# generated using pymatgen
data_Li3Sb3(PO4)4
_symmetry_space_group_name_H-M   'P 1'
_cell_length_a   9.20336800
_cell_length_b   9.25781600
_cell_length_c   13.11638416
_cell_angle_alpha   94.41429936
_cell_angle_beta   90.66689114
_cell_angle_gamma   90.73271251
_symmetry_Int_Tables_number   1
_chemical_formula_structural   Li3Sb3(PO4)4
_chemical_formula_sum   'Li9 Sb9 P12 O48'
_cell_volume   1114.06085138
_cell_formula_units_Z   3
loop_
 _symmetry_equiv_pos_site_id
 _symmetry_equiv_pos_as_xyz
  1  'x, y, z'
loop_
 _atom_site_type_symbol
 _atom_site_label
 _atom_site_symmetry_multiplicity
 _atom_site_fract_x
 _atom_site_fract_y
 _atom_site_fract_z
 _atom_site_occupancy
  Li  Li0  1  0.11460300  0.77436500  0.15492800  1
  Li  Li1  1  0.88085200  0.89245700  0.51870900  1
  Li  Li2  1  0.38382100  0.25056700  0.14704700  1
  Li  Li3  1  0.38294800  0.59676100  0.48114500  1
  Li  Li4  1  0.38677900  0.95088500  0.82092500  1
  Li  Li5  1  0.62141300  0.07629600  0.18295400  1
  Li  Li6  1  0.61276900  0.41829000  0.52128400  1
  Li  Li7  1  0.12170700  0.41477200  0.81328900  1
  Li  Li8  1  0.88702300  0.24482000  0.85190000  1
  Sb  Sb0  1  0.46051900  0.67060800  0.14505800  1
  Sb  Sb1  1  0.85102500  0.55774500  0.20422500  1
  Sb  Sb2  1  0.01767800  0.16000200  0.17023400  1
  Sb  Sb3  1  0.99253300  0.51304100  0.49791600  1
  Sb  Sb4  1  0.03840000  0.84141300  0.81536100  1
  Sb  Sb5  1  0.64292900  0.70764400  0.86530100  1
  Sb  Sb6  1  0.14456400  0.10993800  0.45927700  1
  Sb  Sb7  1  0.53359800  0.00513500  0.51784900  1
  Sb  Sb8  1  0.49431400  0.31656200  0.83209600  1
  P  P0  1  0.81526400  0.85744400  0.06853000  1
  P  P1  1  0.32183600  0.96665000  0.26780200  1
  P  P2  1  0.71803000  0.33007800  0.05160200  1
  P  P3  1  0.67991900  0.70413000  0.39780100  1
  P  P4  1  0.21310200  0.49226500  0.26934900  1
  P  P5  1  0.19208800  0.82131200  0.60360100  1
  P  P6  1  0.79558200  0.17691400  0.39847800  1
  P  P7  1  0.79851500  0.49224400  0.71658300  1
  P  P8  1  0.28819000  0.33921500  0.61132400  1
  P  P9  1  0.29333500  0.66735800  0.93803200  1
  P  P10  1  0.69122400  0.01180400  0.73545500  1
  P  P11  1  0.18945000  0.14081000  0.94004900  1
  O  O0  1  0.91568100  0.99101000  0.07308700  1
  O  O1  1  0.66165200  0.88339400  0.10408100  1
  O  O2  1  0.15978200  0.96399600  0.23452200  1
  O  O3  1  0.26783300  0.71838000  0.05418200  1
  O  O4  1  0.89908800  0.74154300  0.13035600  1
  O  O5  1  0.32753700  0.00367800  0.38857500  1
  O  O6  1  0.37574900  0.80566200  0.25542800  1
  O  O7  1  0.70729200  0.50176600  0.08063400  1
  O  O8  1  0.62614700  0.86535200  0.41325400  1
  O  O9  1  0.67133500  0.66906500  0.27684600  1
  O  O10  1  0.10269100  0.59025100  0.21721700  1
  O  O11  1  0.10293000  0.93243600  0.53987600  1
  O  O12  1  0.71016300  0.95008400  0.62130700  1
  O  O13  1  0.36368400  0.50028300  0.20849100  1
  O  O14  1  0.84190800  0.70632700  0.43140700  1
  O  O15  1  0.87760000  0.30358400  0.09213600  1
  O  O16  1  0.33771400  0.78531500  0.55736300  1
  O  O17  1  0.59847400  0.25118400  0.10430900  1
  O  O18  1  0.23360400  0.53987400  0.38219200  1
  O  O19  1  0.18879300  0.17510600  0.05967000  1
  O  O20  1  0.21225100  0.89320500  0.71719800  1
  O  O21  1  0.58656900  0.59823200  0.45052400  1
  O  O22  1  0.17007900  0.32997900  0.25231900  1
  O  O23  1  0.60660700  0.89310100  0.79506400  1
  O  O24  1  0.08229600  0.69418600  0.61255900  1
  O  O25  1  0.13952200  0.97615100  0.92157600  1
  O  O26  1  0.86163900  0.33308500  0.41078500  1
  O  O27  1  0.79959500  0.65994400  0.75446300  1
  O  O28  1  0.41703600  0.07060700  0.21506800  1
  O  O29  1  0.81897800  0.48291200  0.59774600  1
  O  O30  1  0.76867500  0.12873900  0.28650200  1
  O  O31  1  0.40269300  0.42200000  0.55771700  1
  O  O32  1  0.39774200  0.77694700  0.89276000  1
  O  O33  1  0.81744900  0.79739300  0.95157200  1
  O  O34  1  0.12644700  0.37592200  0.58418700  1
  O  O35  1  0.14260100  0.66692600  0.87837500  1
  O  O36  1  0.64687900  0.18106800  0.46195300  1
  O  O37  1  0.63916900  0.44097500  0.73285400  1
  O  O38  1  0.89715600  0.07087100  0.45193900  1
  O  O39  1  0.91470800  0.41369400  0.77140000  1
  O  O40  1  0.30541100  0.35605800  0.73005900  1
  O  O41  1  0.29433300  0.17062900  0.57729800  1
  O  O42  1  0.35395900  0.51398800  0.93192700  1
  O  O43  1  0.57482300  0.13387400  0.73338100  1
  O  O44  1  0.71351500  0.30249600  0.93424300  1
  O  O45  1  0.09101200  0.24112700  0.88675100  1
  O  O46  1  0.83591500  0.05399500  0.78490000  1
  O  O47  1  0.34927700  0.14208300  0.90184200  1
loop_
_geom_bond_atom_site_label_1
_geom_bond_atom_site_label_2
_geom_bond_distance
_geom_bond_site_symmetry_2
Li0 O10 1.948459 1_555
Li0 O3 1.990023 1_555
Li0 O2 2.008460 1_555
Li0 O4 2.021129 1_455
Li1 O38 1.933157 1_565
Li1 O14 2.019868 1_555
Li1 O11 2.084006 1_655
Li1 O12 2.126845 1_555
Li2 O28 1.974998 1_555
Li2 O17 2.059848 1_555
Li2 O19 2.195458 1_555
Li2 O13 2.399171 1_555
Li2 O22 2.502136 1_555
Li3 O18 1.919849 1_555
Li3 O21 1.921218 1_555
Li3 O31 1.978070 1_555
Li3 O16 1.994862 1_555
Li4 O32 1.930407 1_555
Li4 O47 2.028224 1_565
Li4 O23 2.123705 1_555
Li4 O20 2.128744 1_555
Li5 O28 1.933267 1_555
Li5 O30 1.938048 1_555
Li5 O17 1.997706 1_555
Li5 O1 2.034231 1_545
Li6 O21 1.984372 1_555
Li6 O31 1.997068 1_555
Li6 O29 2.190830 1_555
Li6 O36 2.299456 1_555
Li7 O45 1.955940 1_555
Li7 O39 1.976269 1_455
Li7 O40 2.078652 1_555
Li7 O35 2.427570 1_555
Li8 O45 1.928412 1_655
Li8 O46 1.960771 1_555
Li8 O39 1.968298 1_555
Li8 O44 1.993674 1_555
O0 P0 1.531269 1_555
O0 Sb2 2.140138 1_665
O1 P0 1.510173 1_555
O2 P1 1.548485 1_555
O2 Sb2 2.446376 1_565
O3 P9 1.580994 1_554
O3 Sb0 2.193898 1_555
O4 P0 1.595189 1_555
O4 Sb1 2.067430 1_555
O5 P1 1.594888 1_545
O5 Sb6 2.145171 1_555
O5 Sb7 2.528395 1_555
O6 P1 1.573968 1_555
O6 Sb0 2.010037 1_555
O7 P2 1.610237 1_555
O7 Sb1 2.109392 1_555
O8 P3 1.577465 1_555
O8 Sb7 2.016033 1_565
O9 P3 1.595534 1_555
O9 Sb1 2.152544 1_555
O9 Sb0 2.584392 1_555
O10 P4 1.557533 1_555
O10 Sb1 2.334386 1_455
O11 P5 1.602588 1_555
O11 Sb6 2.055612 1_565
O12 P10 1.573352 1_565
O12 Sb7 2.195015 1_565
O13 P4 1.611070 1_555
O13 Sb0 2.038673 1_555
O14 P3 1.549152 1_555
O14 Sb3 2.481991 1_555
O15 P2 1.584508 1_555
O15 Sb2 2.168166 1_655
O15 Sb1 2.692282 1_555
O16 P5 1.508102 1_555
O17 P2 1.515577 1_555
O18 P4 1.520359 1_555
O18 Sb3 2.722221 1_455
O19 P11 1.576761 1_554
O19 Sb2 2.163673 1_555
O20 P5 1.592236 1_555
O20 Sb4 2.138009 1_555
O21 P3 1.508025 1_555
O22 P4 1.547576 1_555
O22 Sb2 2.291363 1_555
O23 P10 1.596860 1_565
O23 Sb5 2.039434 1_555
O24 P5 1.553569 1_555
O24 Sb3 2.302915 1_455
O25 P11 1.586264 1_565
O25 Sb4 2.008879 1_555
O26 P6 1.557341 1_555
O26 Sb3 2.270770 1_555
O27 P7 1.593133 1_555
O27 Sb5 2.086558 1_555
O28 P1 1.505767 1_545
O29 P7 1.568131 1_555
O29 Sb3 2.106467 1_555
O30 P6 1.518304 1_555
O31 P8 1.507263 1_555
O32 P9 1.544776 1_555
O32 Sb5 2.377759 1_555
O33 P0 1.591400 1_556
O33 Sb5 2.080725 1_555
O34 P8 1.573935 1_555
O34 Sb3 2.153949 1_455
O35 P9 1.584581 1_555
O35 Sb4 2.106874 1_555
O36 P6 1.609522 1_555
O36 Sb7 2.106059 1_555
O37 P7 1.557750 1_555
O37 Sb8 2.242823 1_555
O38 P6 1.563191 1_555
O38 Sb6 2.300700 1_655
O39 P7 1.507252 1_555
O40 P8 1.559194 1_555
O40 Sb8 2.232679 1_555
O41 P8 1.591823 1_555
O41 Sb6 2.099664 1_555
O42 P9 1.528904 1_555
O42 Sb8 2.540695 1_555
O43 P10 1.568608 1_555
O43 Sb8 2.191628 1_555
O44 P2 1.540839 1_556
O44 Sb8 2.419200 1_555
O45 P11 1.509538 1_555
O46 P10 1.507994 1_555
O47 P11 1.559675 1_555
O47 Sb8 2.329932 1_555
