# generated using pymatgen
data_Tl3(MoO4)2
_symmetry_space_group_name_H-M   'P 1'
_cell_length_a   6.14560384
_cell_length_b   6.14560384
_cell_length_c   16.16780500
_cell_angle_alpha   90.00000000
_cell_angle_beta   90.00000000
_cell_angle_gamma   119.99999827
_symmetry_Int_Tables_number   1
_chemical_formula_structural   Tl3(MoO4)2
_chemical_formula_sum   'Tl6 Mo4 O16'
_cell_volume   528.82359479
_cell_formula_units_Z   2
loop_
 _symmetry_equiv_pos_site_id
 _symmetry_equiv_pos_as_xyz
  1  'x, y, z'
loop_
 _atom_site_type_symbol
 _atom_site_label
 _atom_site_symmetry_multiplicity
 _atom_site_fract_x
 _atom_site_fract_y
 _atom_site_fract_z
 _atom_site_occupancy
  Tl  Tl0  1  0.33333300  0.66666700  0.04497400  1
  Tl  Tl1  1  0.00000000  0.00000000  0.01783200  1
  Tl  Tl2  1  0.00000000  0.00000000  0.25494100  1
  Tl  Tl3  1  0.00000000  0.00000000  0.51783200  1
  Tl  Tl4  1  0.00000000  0.00000000  0.75494100  1
  Tl  Tl5  1  0.66666700  0.33333300  0.54497400  1
  Mo  Mo0  1  0.33333300  0.66666700  0.41286600  1
  Mo  Mo1  1  0.66666700  0.33333300  0.91286600  1
  Mo  Mo2  1  0.66666700  0.33333300  0.16553600  1
  Mo  Mo3  1  0.33333300  0.66666700  0.66553600  1
  O  O0  1  0.50627500  0.49372500  0.95047200  1
  O  O1  1  0.82996900  0.17003100  0.13067800  1
  O  O2  1  0.98744900  0.49372500  0.95047200  1
  O  O3  1  0.82996900  0.65993900  0.13067800  1
  O  O4  1  0.17003100  0.82996900  0.63067800  1
  O  O5  1  0.01255100  0.50627500  0.45047200  1
  O  O6  1  0.33333300  0.66666700  0.30422300  1
  O  O7  1  0.33333300  0.66666700  0.77297600  1
  O  O8  1  0.17003100  0.34006100  0.63067800  1
  O  O9  1  0.49372500  0.98744900  0.45047200  1
  O  O10  1  0.49372500  0.50627500  0.45047200  1
  O  O11  1  0.65993900  0.82996900  0.63067800  1
  O  O12  1  0.34006100  0.17003100  0.13067800  1
  O  O13  1  0.66666700  0.33333300  0.27297600  1
  O  O14  1  0.50627500  0.01255100  0.95047200  1
  O  O15  1  0.66666700  0.33333300  0.80422300  1
loop_
_geom_bond_atom_site_label_1
_geom_bond_atom_site_label_2
_geom_bond_distance
_geom_bond_site_symmetry_2
Mo0 O6 1.756519 1_555
Mo0 O9 1.812314 1_555
Mo0 O5 1.812314 1_555
Mo0 O10 1.812324 1_555
Mo1 O15 1.756519 1_555
Mo1 O2 1.812314 1_555
Mo1 O14 1.812314 1_555
Mo1 O0 1.812324 1_555
Mo2 O13 1.737069 1_555
Mo2 O1 1.827346 1_555
Mo2 O12 1.827356 1_555
Mo2 O3 1.827356 1_555
Mo3 O7 1.737069 1_555
Mo3 O4 1.827346 1_555
Mo3 O8 1.827356 1_555
Mo3 O11 1.827356 1_555
O0 Tl0 2.392340 1_556
O1 Tl1 2.569906 1_655
O1 Tl2 2.704078 1_655
O2 Tl0 2.392340 1_656
O3 Tl1 2.569902 1_665
O3 Tl2 2.704075 1_665
O4 Tl3 2.569906 1_565
O4 Tl4 2.704078 1_565
O5 Tl5 2.392340 1_455
O8 Tl3 2.569902 1_555
O8 Tl4 2.704075 1_555
O9 Tl5 2.392340 1_565
O10 Tl5 2.392340 1_555
O11 Tl3 2.569902 1_665
O11 Tl4 2.704075 1_665
O12 Tl1 2.569902 1_555
O12 Tl2 2.704075 1_555
O14 Tl0 2.392340 1_546
