# generated using pymatgen
data_MgMn3TeO8
_symmetry_space_group_name_H-M   'P 1'
_cell_length_a   6.20133901
_cell_length_b   6.36047727
_cell_length_c   6.20121020
_cell_angle_alpha   59.88171876
_cell_angle_beta   58.58960311
_cell_angle_gamma   59.88253087
_symmetry_Int_Tables_number   1
_chemical_formula_structural   MgMn3TeO8
_chemical_formula_sum   'Mg1 Mn3 Te1 O8'
_cell_volume   170.73898280
_cell_formula_units_Z   1
loop_
 _symmetry_equiv_pos_site_id
 _symmetry_equiv_pos_as_xyz
  1  'x, y, z'
loop_
 _atom_site_type_symbol
 _atom_site_label
 _atom_site_symmetry_multiplicity
 _atom_site_fract_x
 _atom_site_fract_y
 _atom_site_fract_z
 _atom_site_occupancy
  Mg  Mg0  1  0.00000000  0.50000000  0.00000000  1
  Mn  Mn0  1  0.00000000  0.50000000  0.50000000  1
  Mn  Mn1  1  0.50000000  0.00000000  0.50000000  1
  Mn  Mn2  1  0.50000000  0.50000000  0.00000000  1
  Te  Te0  1  0.50000000  0.50000000  0.50000000  1
  O  O0  1  0.24442200  0.31588400  0.24442000  1
  O  O1  1  0.26887400  0.28584600  0.72714700  1
  O  O2  1  0.27780700  0.69285500  0.27771400  1
  O  O3  1  0.72719300  0.28580000  0.26890600  1
  O  O4  1  0.27280700  0.71420000  0.73109400  1
  O  O5  1  0.72219300  0.30714500  0.72228600  1
  O  O6  1  0.73112600  0.71415400  0.27285300  1
  O  O7  1  0.75557800  0.68411600  0.75558000  1
loop_
_geom_bond_atom_site_label_1
_geom_bond_atom_site_label_2
_geom_bond_distance
_geom_bond_site_symmetry_2
Mg0 O4 2.142781 1_554
Mg0 O3 2.142781 1_455
Mg0 O6 2.142787 1_455
Mg0 O1 2.142787 1_554
Mg0 O0 2.190483 1_555
Mg0 O7 2.190483 1_454
Mn0 O0 1.938589 1_555
Mn0 O7 1.938589 1_455
Mn0 O2 2.078772 1_555
Mn0 O5 2.078772 1_455
Mn0 O1 2.205210 1_555
Mn0 O6 2.205210 1_455
Mn1 O3 2.279146 1_555
Mn1 O4 2.279146 1_545
Mn1 O1 2.279167 1_555
Mn1 O6 2.279167 1_545
Mn1 O0 2.299469 1_555
Mn1 O7 2.299469 1_545
Mn2 O7 1.938578 1_554
Mn2 O0 1.938578 1_555
Mn2 O2 2.078353 1_555
Mn2 O5 2.078353 1_554
Mn2 O3 2.205539 1_555
Mn2 O4 2.205539 1_554
O1 Te0 1.955291 1_555
O2 Te0 1.972311 1_555
O3 Te0 1.955356 1_555
O4 Te0 1.955356 1_555
O5 Te0 1.972311 1_555
O6 Te0 1.955291 1_555
