# generated using pymatgen
data_K3Na(SO4)2
_symmetry_space_group_name_H-M   'P 1'
_cell_length_a   5.76536787
_cell_length_b   5.76536787
_cell_length_c   7.41233100
_cell_angle_alpha   90.00000000
_cell_angle_beta   90.00000000
_cell_angle_gamma   119.99999851
_symmetry_Int_Tables_number   1
_chemical_formula_structural   K3Na(SO4)2
_chemical_formula_sum   'K3 Na1 S2 O8'
_cell_volume   213.37301299
_cell_formula_units_Z   1
loop_
 _symmetry_equiv_pos_site_id
 _symmetry_equiv_pos_as_xyz
  1  'x, y, z'
loop_
 _atom_site_type_symbol
 _atom_site_label
 _atom_site_symmetry_multiplicity
 _atom_site_fract_x
 _atom_site_fract_y
 _atom_site_fract_z
 _atom_site_occupancy
  K  K0  1  0.33333300  0.66666700  0.17633300  1
  K  K1  1  0.00000000  0.00000000  0.50000000  1
  K  K2  1  0.66666700  0.33333300  0.82366700  1
  Na  Na0  1  0.00000000  0.00000000  0.00000000  1
  S  S0  1  0.66666700  0.33333300  0.26830600  1
  S  S1  1  0.33333300  0.66666700  0.73169400  1
  O  O0  1  0.19238300  0.80761700  0.80276800  1
  O  O1  1  0.19238300  0.38476600  0.80276800  1
  O  O2  1  0.61523400  0.80761700  0.80276800  1
  O  O3  1  0.38476600  0.19238300  0.19723200  1
  O  O4  1  0.80761700  0.61523400  0.19723200  1
  O  O5  1  0.80761700  0.19238300  0.19723200  1
  O  O6  1  0.66666700  0.33333300  0.46697500  1
  O  O7  1  0.33333300  0.66666700  0.53302500  1
loop_
_geom_bond_atom_site_label_1
_geom_bond_atom_site_label_2
_geom_bond_distance
_geom_bond_site_symmetry_2
K0 O7 2.643919 1_555
K0 O3 2.898240 1_565
K0 O4 2.898240 1_455
K0 O5 2.898242 1_565
K0 O5 2.898242 1_455
K0 O4 2.898246 1_555
K0 O3 2.898246 1_555
K0 O0 3.106185 1_554
K0 O1 3.106188 1_554
K0 O2 3.106188 1_554
K1 O0 2.954185 1_545
K1 O5 2.954185 1_455
K1 O1 2.954185 1_555
K1 O2 2.954185 1_445
K1 O4 2.954185 1_445
K1 O3 2.954185 1_555
K1 O7 3.337622 1_545
K1 O6 3.337622 1_455
K1 O7 3.337627 1_445
K1 O6 3.337627 1_445
K1 O7 3.337627 1_555
K1 O6 3.337627 1_555
K2 O6 2.643919 1_555
K2 O1 2.898240 1_655
K2 O2 2.898240 1_545
K2 O0 2.898242 1_655
K2 O0 2.898242 1_545
K2 O2 2.898246 1_555
K2 O1 2.898246 1_555
K2 O5 3.106185 1_556
K2 O3 3.106188 1_556
K2 O4 3.106188 1_556
Na0 O5 2.414124 1_455
Na0 O0 2.414124 1_544
Na0 O3 2.414124 1_555
Na0 O4 2.414124 1_445
Na0 O1 2.414124 1_554
Na0 O2 2.414124 1_444
O0 S1 1.502877 1_555
O1 S1 1.502882 1_555
O2 S1 1.502882 1_555
O3 S0 1.502882 1_555
O4 S0 1.502882 1_555
O5 S0 1.502877 1_555
O6 S0 1.472600 1_555
O7 S1 1.472600 1_555
