# generated using pymatgen
data_K4HgAs2
_symmetry_space_group_name_H-M   'P 1'
_cell_length_a   9.86616261
_cell_length_b   9.86616249
_cell_length_c   9.86616259
_cell_angle_alpha   33.96341440
_cell_angle_beta   33.96341815
_cell_angle_gamma   33.96341797
_symmetry_Int_Tables_number   1
_chemical_formula_structural   K4HgAs2
_chemical_formula_sum   'K4 Hg1 As2'
_cell_volume   267.16520351
_cell_formula_units_Z   1
loop_
 _symmetry_equiv_pos_site_id
 _symmetry_equiv_pos_as_xyz
  1  'x, y, z'
loop_
 _atom_site_type_symbol
 _atom_site_label
 _atom_site_symmetry_multiplicity
 _atom_site_fract_x
 _atom_site_fract_y
 _atom_site_fract_z
 _atom_site_occupancy
  K  K0  1  0.20773479  0.20773479  0.20773479  1
  K  K1  1  0.79226521  0.79226521  0.79226521  1
  K  K2  1  0.38868213  0.38868213  0.38868213  1
  K  K3  1  0.61131787  0.61131787  0.61131787  1
  Hg  Hg0  1  -0.00000000  0.00000000  0.00000000  1
  As  As0  1  0.91056311  0.91056311  0.91056311  1
  As  As1  1  0.08943689  0.08943689  0.08943689  1
loop_
_geom_bond_atom_site_label_1
_geom_bond_atom_site_label_2
_geom_bond_distance
_geom_bond_site_symmetry_2
Hg0 K3 3.667407 1_445
Hg0 K2 3.667407 1_554
Hg0 K3 3.667407 1_454
Hg0 K2 3.667407 1_545
Hg0 K3 3.667408 1_544
Hg0 K2 3.667408 1_455
As0 Hg0 2.492112 1_666
As0 K1 3.296309 1_555
As0 K3 3.460275 1_565
As0 K3 3.460275 1_556
As0 K3 3.460275 1_655
As0 K0 3.476579 1_656
As0 K0 3.476579 1_665
As0 K0 3.476580 1_566
As1 Hg0 2.492112 1_555
As1 K0 3.296309 1_555
As1 K2 3.460275 1_545
As1 K2 3.460275 1_554
As1 K2 3.460275 1_455
As1 K1 3.476579 1_454
As1 K1 3.476579 1_445
As1 K1 3.476580 1_544
