# generated using pymatgen
data_MgH4(ClO)2
_symmetry_space_group_name_H-M   'P 1'
_cell_length_a   3.70305458
_cell_length_b   5.84716554
_cell_length_c   5.84716554
_cell_angle_alpha   92.98257667
_cell_angle_beta   100.29935342
_cell_angle_gamma   100.29935342
_symmetry_Int_Tables_number   1
_chemical_formula_structural   MgH4(ClO)2
_chemical_formula_sum   'Mg1 H4 Cl2 O2'
_cell_volume   122.09565357
_cell_formula_units_Z   1
loop_
 _symmetry_equiv_pos_site_id
 _symmetry_equiv_pos_as_xyz
  1  'x, y, z'
loop_
 _atom_site_type_symbol
 _atom_site_label
 _atom_site_symmetry_multiplicity
 _atom_site_fract_x
 _atom_site_fract_y
 _atom_site_fract_z
 _atom_site_occupancy
  Mg  Mg0  1  0.00000000  0.00000000  0.00000000  1
  H  H0  1  0.14887500  0.77994100  0.40096400  1
  H  H1  1  0.85112500  0.59903600  0.22005900  1
  H  H2  1  0.85112500  0.22005900  0.59903600  1
  H  H3  1  0.14887500  0.40096400  0.77994100  1
  Cl  Cl0  1  0.61749400  0.22676100  0.22676100  1
  Cl  Cl1  1  0.38250600  0.77323900  0.77323900  1
  O  O0  1  0.00000000  0.75890300  0.24109700  1
  O  O1  1  0.00000000  0.24109700  0.75890300  1
loop_
_geom_bond_atom_site_label_1
_geom_bond_atom_site_label_2
_geom_bond_distance
_geom_bond_site_symmetry_2
Mg0 O1 2.044875 1_554
Mg0 O0 2.044875 1_545
H0 O0 0.986083 1_555
H1 O0 0.986083 1_655
H2 O1 0.986083 1_655
H3 O1 0.986083 1_555
Cl0 Mg0 2.528529 1_555
Cl0 Mg0 2.585064 1_655
Cl1 Mg0 2.528529 1_666
Cl1 Mg0 2.585064 1_566
