# generated using pymatgen
data_NaTiAlSi(SO6)2
_symmetry_space_group_name_H-M   'P 1'
_cell_length_a   8.54184843
_cell_length_b   8.55199580
_cell_length_c   22.23136296
_cell_angle_alpha   89.97877373
_cell_angle_beta   90.00000000
_cell_angle_gamma   119.96075697
_symmetry_Int_Tables_number   1
_chemical_formula_structural   NaTiAlSi(SO6)2
_chemical_formula_sum   'Na6 Ti6 Al6 Si6 S12 O72'
_cell_volume   1406.97902126
_cell_formula_units_Z   6
loop_
 _symmetry_equiv_pos_site_id
 _symmetry_equiv_pos_as_xyz
  1  'x, y, z'
loop_
 _atom_site_type_symbol
 _atom_site_label
 _atom_site_symmetry_multiplicity
 _atom_site_fract_x
 _atom_site_fract_y
 _atom_site_fract_z
 _atom_site_occupancy
  Na  Na0  1  0.00661742  0.00350740  0.50159281  1
  Na  Na1  1  0.99688997  0.00350740  0.00159281  1
  Na  Na2  1  0.67366951  0.33357877  0.83470568  1
  Na  Na3  1  0.65991025  0.33357877  0.33470568  1
  Na  Na4  1  0.33611039  0.67397042  0.16787982  1
  Na  Na5  1  0.33785903  0.67397042  0.66787982  1
  Ti  Ti0  1  0.02406469  0.01468021  0.35431911  1
  Ti  Ti1  1  0.99061552  0.01468021  0.85431911  1
  Ti  Ti2  1  0.65750559  0.30852950  0.68755473  1
  Ti  Ti3  1  0.65102491  0.30852950  0.18755473  1
  Ti  Ti4  1  0.33093336  0.66328615  0.02061556  1
  Ti  Ti5  1  0.33235180  0.66328615  0.52061556  1
  Al  Al0  1  0.99782388  0.99410659  0.64791609  1
  Al  Al1  1  0.99628272  0.99410659  0.14791609  1
  Al  Al2  1  0.68205933  0.32650661  0.98050217  1
  Al  Al3  1  0.64444828  0.32650661  0.48050217  1
  Al  Al4  1  0.33911740  0.66921009  0.31363658  1
  Al  Al5  1  0.33009169  0.66921009  0.81363658  1
  Si  Si0  1  0.28196614  0.98543740  0.24692971  1
  Si  Si1  1  0.70347127  0.98543740  0.74692971  1
  Si  Si2  1  0.36563751  0.04147508  0.58135388  1
  Si  Si3  1  0.67583857  0.04147508  0.08135388  1
  Si  Si4  1  0.04406390  0.38831454  0.91429386  1
  Si  Si5  1  0.34424964  0.38831454  0.41429386  1
  S  S0  1  0.71193806  0.71350030  0.25000777  1
  S  S1  1  0.00443989  0.29066641  0.24939927  1
  S  S2  1  0.28622653  0.29066641  0.74939927  1
  S  S3  1  0.00156224  0.71350030  0.75000777  1
  S  S4  1  0.95049796  0.32931185  0.58197231  1
  S  S5  1  0.67107760  0.62140927  0.58307776  1
  S  S6  1  0.95033267  0.62140927  0.08307776  1
  S  S7  1  0.37881489  0.32931185  0.08197231  1
  S  S8  1  0.61904601  0.66018324  0.91650745  1
  S  S9  1  0.33547546  0.95730273  0.91613981  1
  S  S10  1  0.62182627  0.95730273  0.41613981  1
  S  S11  1  0.04113623  0.66018324  0.41650745  1
  O  O0  1  0.19769528  0.03163555  0.30759015  1
  O  O1  1  0.82184431  0.79454953  0.30447312  1
  O  O2  1  0.96545740  0.17643955  0.30405501  1
  O  O3  1  0.21098215  0.17643955  0.80405501  1
  O  O4  1  0.97270523  0.79454953  0.80447312  1
  O  O5  1  0.83394028  0.03163555  0.80759015  1
  O  O6  1  0.80796814  0.96759242  0.69012030  1
  O  O7  1  0.17621081  0.20765401  0.69548110  1
  O  O8  1  0.03391999  0.82509493  0.69544522  1
  O  O9  1  0.79117494  0.82509493  0.19544522  1
  O  O10  1  0.03144321  0.20765401  0.19548110  1
  O  O11  1  0.15962428  0.96759242  0.19012030  1
  O  O12  1  0.87487932  0.36612127  0.63716180  1
  O  O13  1  0.49984668  0.13394904  0.64150444  1
  O  O14  1  0.63812882  0.51154731  0.63756144  1
  O  O15  1  0.87341949  0.51154731  0.13756144  1
  O  O16  1  0.63410336  0.13394904  0.14150444  1
  O  O17  1  0.49124295  0.36612127  0.13716180  1
  O  O18  1  0.46303821  0.30533294  0.02783617  1
  O  O19  1  0.83987120  0.54226221  0.02847944  1
  O  O20  1  0.69923495  0.16819400  0.02557789  1
  O  O21  1  0.46896004  0.16819400  0.52557789  1
  O  O22  1  0.70239201  0.54226221  0.52847944  1
  O  O23  1  0.84229573  0.30533294  0.52783617  1
  O  O24  1  0.54410762  0.70040038  0.97110016  1
  O  O25  1  0.17202636  0.47433741  0.97485912  1
  O  O26  1  0.30510072  0.84444132  0.97066854  1
  O  O27  1  0.53933959  0.84444132  0.47066854  1
  O  O28  1  0.30231005  0.47433741  0.47485912  1
  O  O29  1  0.15629176  0.70040038  0.47110016  1
  O  O30  1  0.12413677  0.63483174  0.36225346  1
  O  O31  1  0.50812238  0.87777237  0.36225460  1
  O  O32  1  0.36283330  0.50823504  0.35665897  1
  O  O33  1  0.14540074  0.50823504  0.85665897  1
  O  O34  1  0.36964899  0.87777237  0.86225460  1
  O  O35  1  0.51069397  0.63483174  0.86225346  1
  O  O36  1  0.01857788  0.82202181  0.41018511  1
  O  O37  1  0.80000027  0.97022766  0.40963466  1
  O  O38  1  0.15643865  0.18518575  0.40936672  1
  O  O39  1  0.02874711  0.18518575  0.90936672  1
  O  O40  1  0.17022739  0.97022766  0.90963466  1
  O  O41  1  0.80344393  0.82202181  0.91018511  1
  O  O42  1  0.97181512  0.16986181  0.58988650  1
  O  O43  1  0.17119882  0.02133330  0.59519252  1
  O  O44  1  0.83017665  0.80401597  0.58946851  1
  O  O45  1  0.97383932  0.80401597  0.08946851  1
  O  O46  1  0.85013448  0.02133330  0.09519252  1
  O  O47  1  0.19804669  0.16986181  0.08988650  1
  O  O48  1  0.69411125  0.17538157  0.74286754  1
  O  O49  1  0.47062044  0.31320150  0.74344807  1
  O  O50  1  0.83825102  0.53349267  0.74256823  1
  O  O51  1  0.69524265  0.53349267  0.24256823  1
  O  O52  1  0.84258206  0.31320150  0.24344807  1
  O  O53  1  0.48127132  0.17538157  0.24286754  1
  O  O54  1  0.63548540  0.49862898  0.92582955  1
  O  O55  1  0.84531150  0.36151226  0.92339713  1
  O  O56  1  0.49370114  0.13973242  0.92418076  1
  O  O57  1  0.64603228  0.13973242  0.42418076  1
  O  O58  1  0.51620176  0.36151226  0.42339713  1
  O  O59  1  0.86314457  0.49862898  0.42582955  1
  O  O60  1  0.36059964  0.49402933  0.07717037  1
  O  O61  1  0.13391371  0.64079728  0.07646574  1
  O  O62  1  0.49039121  0.84390290  0.07424638  1
  O  O63  1  0.35351069  0.84390290  0.57424638  1
  O  O64  1  0.50688256  0.64079728  0.57646574  1
  O  O65  1  0.13342870  0.49402933  0.57717037  1
  O  O66  1  0.31089137  0.81726964  0.26113805  1
  O  O67  1  0.52970996  0.69349234  0.25649453  1
  O  O68  1  0.16486324  0.47054520  0.25697432  1
  O  O69  1  0.30568096  0.47054520  0.75697432  1
  O  O70  1  0.16378138  0.69349234  0.75649453  1
  O  O71  1  0.50637727  0.81726964  0.76113805  1
loop_
_geom_bond_atom_site_label_1
_geom_bond_atom_site_label_2
_geom_bond_distance
_geom_bond_site_symmetry_2
Na0 O43 2.472995 1_555
Na0 O38 2.503437 1_555
Na0 O42 2.527798 1_455
Na0 O44 2.535336 1_445
Na0 O36 2.590281 1_545
Na0 O37 2.621824 1_445
Na1 O46 2.472995 1_555
Na1 O39 2.503437 1_654
Na1 O47 2.527798 1_655
Na1 O45 2.535336 1_545
Na1 O41 2.590281 1_544
Na1 O40 2.621824 1_644
Na2 O55 2.396848 1_555
Na2 O48 2.503461 1_555
Na2 O56 2.553481 1_555
Na2 O54 2.581587 1_555
Na2 O50 2.586845 1_555
Na2 O49 2.617802 1_555
Na3 O58 2.396848 1_555
Na3 O53 2.503461 1_555
Na3 O57 2.553481 1_555
Na3 O59 2.581587 1_555
Na3 O51 2.586845 1_555
Na3 O52 2.617802 1_555
Na4 O66 2.472286 1_555
Na4 O62 2.503317 1_555
Na4 O67 2.523505 1_555
Na4 O68 2.558331 1_555
Na4 O61 2.589320 1_555
Na4 O60 2.608124 1_555
Na5 O71 2.472286 1_555
Na5 O63 2.503317 1_555
Na5 O70 2.523505 1_555
Na5 O69 2.558331 1_555
Na5 O64 2.589320 1_555
Na5 O65 2.608124 1_555
Al0 O6 1.787252 1_555
Al0 O43 1.810150 1_665
Al0 O8 1.935119 1_655
Al0 O7 1.999294 1_665
Al0 O44 2.014485 1_555
Al0 O42 2.074832 1_565
Al1 O11 1.787252 1_655
Al1 O46 1.810150 1_565
Al1 O9 1.935119 1_555
Al1 O10 1.999294 1_665
Al1 O45 2.014485 1_555
Al1 O47 2.074832 1_665
Al2 O20 1.748177 1_556
Al2 O55 1.796837 1_555
Al2 O19 1.968870 1_556
Al2 O56 2.035277 1_555
Al2 O18 2.074049 1_556
Al2 O54 2.094256 1_555
Al3 O21 1.748177 1_555
Al3 O58 1.796837 1_555
Al3 O22 1.968870 1_555
Al3 O57 2.035277 1_555
Al3 O23 2.074049 1_555
Al3 O59 2.094256 1_555
Al4 O32 1.768782 1_555
Al4 O66 1.824113 1_555
Al4 O31 1.965498 1_555
Al4 O67 1.992350 1_555
Al4 O30 2.021693 1_555
Al4 O68 2.040724 1_555
Al5 O33 1.768782 1_555
Al5 O71 1.824113 1_555
Al5 O34 1.965498 1_555
Al5 O70 1.992350 1_555
Al5 O35 2.021693 1_555
Al5 O69 2.040724 1_555
O0 Si0 1.666531 1_545
O0 Ti0 1.756412 1_555
O1 S0 1.476006 1_555
O1 Ti0 2.123509 1_665
O2 S1 1.488547 1_655
O2 Ti0 2.025722 1_655
O3 S2 1.488547 1_555
O3 Ti1 2.025722 1_455
O4 S3 1.476006 1_655
O4 Ti1 2.123509 1_565
O5 Si1 1.666531 1_545
O5 Ti1 1.756412 1_555
O6 Si1 1.597267 1_555
O7 S2 1.469081 1_555
O8 S3 1.481295 1_555
O9 S0 1.481295 1_555
O10 S1 1.469081 1_555
O11 Si0 1.597267 1_555
O12 S4 1.491665 1_555
O12 Ti2 2.007844 1_555
O13 Si2 1.680200 1_555
O13 Ti2 1.756032 1_555
O14 S5 1.471090 1_555
O14 Ti2 2.136038 1_555
O15 S6 1.471090 1_555
O15 Ti3 2.136038 1_555
O16 Si3 1.680200 1_555
O16 Ti3 1.756032 1_555
O17 S7 1.491665 1_555
O17 Ti3 2.007844 1_555
O18 S7 1.468203 1_555
O19 S6 1.477984 1_555
O20 Si3 1.592034 1_555
O21 Si2 1.592034 1_555
O22 S5 1.477984 1_555
O23 S4 1.468203 1_555
O24 S8 1.490382 1_555
O24 Ti4 2.012622 1_556
O25 Si4 1.657237 1_555
O25 Ti4 1.816247 1_556
O26 S9 1.489114 1_555
O26 Ti4 2.005485 1_556
O27 S10 1.489114 1_555
O27 Ti5 2.005484 1_555
O28 Si5 1.657237 1_555
O28 Ti5 1.816247 1_555
O29 S11 1.490382 1_555
O29 Ti5 2.012622 1_555
O30 S11 1.469065 1_555
O31 S10 1.477083 1_555
O32 Si5 1.598477 1_555
O33 Si4 1.598477 1_555
O34 S9 1.477083 1_555
O35 S8 1.469065 1_555
O36 S11 1.496225 1_555
O36 Ti0 2.044674 1_565
O37 S10 1.476950 1_555
O37 Ti0 2.143084 1_665
O38 Si5 1.679270 1_555
O38 Ti0 1.804693 1_555
O39 Si4 1.679274 1_555
O39 Ti1 1.804693 1_455
O40 S9 1.476942 1_555
O40 Ti1 2.143084 1_465
O41 S8 1.496230 1_555
O41 Ti1 2.044674 1_565
O42 S4 1.473563 1_555
O43 Si2 1.611523 1_555
O44 S5 1.478587 1_555
O45 S6 1.478591 1_555
O46 Si3 1.611515 1_555
O47 S7 1.473568 1_555
O48 Si1 1.668185 1_545
O48 Ti2 1.805839 1_555
O49 S2 1.494078 1_555
O49 Ti2 2.039037 1_555
O50 S3 1.482707 1_655
O50 Ti2 2.148425 1_555
O51 S0 1.482711 1_555
O51 Ti3 2.148425 1_555
O52 S1 1.494070 1_655
O52 Ti3 2.039037 1_555
O53 Si0 1.668189 1_545
O53 Ti3 1.805839 1_555
O54 S8 1.471423 1_555
O55 Si4 1.608420 1_655
O56 S9 1.478772 1_545
O57 S10 1.478765 1_545
O58 Si5 1.608437 1_555
O59 S11 1.471413 1_655
O60 S7 1.496243 1_555
O60 Ti4 2.026134 1_555
O61 S6 1.499463 1_455
O61 Ti4 2.021721 1_555
O62 Si3 1.648022 1_565
O62 Ti4 1.887493 1_555
O63 Si2 1.648015 1_565
O63 Ti5 1.887493 1_555
O64 S5 1.499480 1_555
O64 Ti5 2.021721 1_555
O65 S4 1.496233 1_455
O65 Ti5 2.026134 1_555
O66 Si0 1.607399 1_555
O67 S0 1.485572 1_555
O68 S1 1.472163 1_555
O69 S2 1.472166 1_555
O70 S3 1.485564 1_555
O71 Si1 1.607404 1_555
