# generated using pymatgen
data_Na2Ti2Si(PO6)2
_symmetry_space_group_name_H-M   'P 1'
_cell_length_a   8.73569918
_cell_length_b   8.73569891
_cell_length_c   22.27226076
_cell_angle_alpha   89.96842055
_cell_angle_beta   90.03157944
_cell_angle_gamma   119.80192704
_symmetry_Int_Tables_number   1
_chemical_formula_structural   Na2Ti2Si(PO6)2
_chemical_formula_sum   'Na12 Ti12 Si6 P12 O72'
_cell_volume   1474.86928932
_cell_formula_units_Z   6
loop_
 _symmetry_equiv_pos_site_id
 _symmetry_equiv_pos_as_xyz
  1  'x, y, z'
loop_
 _atom_site_type_symbol
 _atom_site_label
 _atom_site_symmetry_multiplicity
 _atom_site_fract_x
 _atom_site_fract_y
 _atom_site_fract_z
 _atom_site_occupancy
  Na  Na0  1  0.00026253  0.63499997  0.25008782  1
  Na  Na1  1  0.36500003  0.99973747  0.75008782  1
  Na  Na2  1  0.66627966  0.96706398  0.58370539  1
  Na  Na3  1  0.03293602  0.33372034  0.08370539  1
  Na  Na4  1  0.96827041  0.66718402  0.91693676  1
  Na  Na5  1  0.33281598  0.03172959  0.41693676  1
  Na  Na6  1  0.00069947  0.99896183  0.49999208  1
  Na  Na7  1  0.00103817  0.99930053  -0.00000792  1
  Na  Na8  1  0.66703998  0.33287261  0.83344173  1
  Na  Na9  1  0.66712739  0.33296002  0.33344173  1
  Na  Na10  1  0.34482572  0.67242431  0.16673575  1
  Na  Na11  1  0.32757569  0.65517428  0.66673575  1
  Ti  Ti0  1  0.99176066  0.00026481  0.35327556  1
  Ti  Ti1  1  0.99973519  0.00823934  0.85327556  1
  Ti  Ti2  1  0.00482410  0.99942448  0.64780879  1
  Ti  Ti3  1  0.00057552  0.99517590  0.14780879  1
  Ti  Ti4  1  0.66941960  0.32981152  0.68598445  1
  Ti  Ti5  1  0.67018848  0.33058040  0.18598445  1
  Ti  Ti6  1  0.65956666  0.33011683  0.98104908  1
  Ti  Ti7  1  0.66988317  0.34043334  0.48104908  1
  Ti  Ti8  1  0.33113534  0.67473122  0.01974260  1
  Ti  Ti9  1  0.32526878  0.66886466  0.51974260  1
  Ti  Ti10  1  0.32690947  0.65742894  0.31402802  1
  Ti  Ti11  1  0.34257106  0.67309053  0.81402802  1
  Si  Si0  1  0.00008833  0.28641364  0.24905477  1
  Si  Si1  1  0.71358636  0.99991167  0.74905477  1
  Si  Si2  1  0.37355520  0.04580236  0.58251984  1
  Si  Si3  1  0.95419764  0.62644480  0.08251984  1
  Si  Si4  1  0.33724930  0.96271111  0.91606052  1
  Si  Si5  1  0.03728889  0.66275070  0.41606052  1
  P  P0  1  0.29204097  0.00415889  0.25089509  1
  P  P1  1  0.70822899  0.71243571  0.24999783  1
  P  P2  1  0.28756429  0.29177101  0.74999783  1
  P  P3  1  0.99584111  0.70795903  0.75089509  1
  P  P4  1  0.95750137  0.33576740  0.58320149  1
  P  P5  1  0.66618798  0.62028213  0.58410005  1
  P  P6  1  0.66423260  0.04249863  0.08320149  1
  P  P7  1  0.37971787  0.33381202  0.08410005  1
  P  P8  1  0.61999066  0.66685743  0.91728238  1
  P  P9  1  0.04662988  0.37802209  0.91679118  1
  P  P10  1  0.62197791  0.95337012  0.41679118  1
  P  P11  1  0.33314257  0.38000934  0.41728238  1
  O  O0  1  0.20537674  0.03018336  0.30755180  1
  O  O1  1  0.83192389  0.79574469  0.30532366  1
  O  O2  1  0.96950922  0.16211604  0.30769671  1
  O  O3  1  0.20425531  0.16807611  0.80532366  1
  O  O4  1  0.96981664  0.79462326  0.80755180  1
  O  O5  1  0.83788396  0.03049078  0.80769671  1
  O  O6  1  0.80179008  0.96916822  0.68929546  1
  O  O7  1  0.17087249  0.20066913  0.69431910  1
  O  O8  1  0.03497783  0.83185056  0.69550401  1
  O  O9  1  0.79933087  0.82912751  0.19431910  1
  O  O10  1  0.03083178  0.19820992  0.18929546  1
  O  O11  1  0.16814944  0.96502217  0.19550401  1
  O  O12  1  0.87042602  0.36604763  0.63930237  1
  O  O13  1  0.50231276  0.13383230  0.64170979  1
  O  O14  1  0.63842484  0.50354938  0.63942810  1
  O  O15  1  0.86616770  0.49768724  0.14170979  1
  O  O16  1  0.63395237  0.12957398  0.13930237  1
  O  O17  1  0.49645062  0.36157516  0.13942810  1
  O  O18  1  0.46556405  0.30205633  0.02772403  1
  O  O19  1  0.83476116  0.53145090  0.02317800  1
  O  O20  1  0.69994669  0.16440146  0.02820985  1
  O  O21  1  0.46854910  0.16523884  0.52317800  1
  O  O22  1  0.69794367  0.53443595  0.52772403  1
  O  O23  1  0.83559854  0.30005331  0.52820985  1
  O  O24  1  0.53286483  0.69553114  0.97266713  1
  O  O25  1  0.15866654  0.45937069  0.97435962  1
  O  O26  1  0.29846073  0.82776979  0.97341613  1
  O  O27  1  0.54062931  0.84133346  0.47435962  1
  O  O28  1  0.30446886  0.46713517  0.47266713  1
  O  O29  1  0.17223021  0.70153927  0.47341613  1
  O  O30  1  0.13492391  0.63593840  0.35705680  1
  O  O31  1  0.50158073  0.86741796  0.36178616  1
  O  O32  1  0.36432944  0.49603896  0.36077581  1
  O  O33  1  0.13258204  0.49841927  0.86178616  1
  O  O34  1  0.36406160  0.86507609  0.85705680  1
  O  O35  1  0.50396104  0.63567056  0.86077581  1
  O  O36  1  0.03040337  0.84475564  0.40899003  1
  O  O37  1  0.80710614  0.97293053  0.40996683  1
  O  O38  1  0.17061426  0.19254974  0.40994530  1
  O  O39  1  0.02706947  0.19289386  0.90996683  1
  O  O40  1  0.15524436  0.96959663  0.90899003  1
  O  O41  1  0.80745026  0.82938574  0.90994530  1
  O  O42  1  0.96936114  0.16582859  0.58986679  1
  O  O43  1  0.17923399  0.02272481  0.59110652  1
  O  O44  1  0.83007782  0.80742192  0.58963622  1
  O  O45  1  0.97727519  0.82076601  0.09110652  1
  O  O46  1  0.83417141  0.03063886  0.08986679  1
  O  O47  1  0.19257808  0.16992218  0.08963622  1
  O  O48  1  0.68566985  0.17249273  0.74319408  1
  O  O49  1  0.47048665  0.30515411  0.74291821  1
  O  O50  1  0.83136157  0.52604668  0.74259693  1
  O  O51  1  0.69484589  0.52951335  0.24291821  1
  O  O52  1  0.82750727  0.31433015  0.24319408  1
  O  O53  1  0.47395332  0.16863843  0.24259693  1
  O  O54  1  0.64508333  0.50346070  0.92258787  1
  O  O55  1  0.86296043  0.36304652  0.92319490  1
  O  O56  1  0.51145744  0.15338653  0.92453182  1
  O  O57  1  0.63695348  0.13703957  0.42319490  1
  O  O58  1  0.49653930  0.35491667  0.42258787  1
  O  O59  1  0.84661347  0.48854256  0.42453182  1
  O  O60  1  0.35654683  0.49681666  0.07651778  1
  O  O61  1  0.14692168  0.63518350  0.07614461  1
  O  O62  1  0.50113374  0.85827456  0.07628779  1
  O  O63  1  0.36481650  0.85307832  0.57614461  1
  O  O64  1  0.50318334  0.64345317  0.57651778  1
  O  O65  1  0.14172544  0.49886626  0.57628779  1
  O  O66  1  0.30656243  0.83484812  0.25652575  1
  O  O67  1  0.52651913  0.69564520  0.25734314  1
  O  O68  1  0.17183842  0.48577771  0.25664976  1
  O  O69  1  0.30435480  0.47348087  0.75734314  1
  O  O70  1  0.16515188  0.69343757  0.75652575  1
  O  O71  1  0.51422229  0.82816158  0.75664976  1
loop_
_geom_bond_atom_site_label_1
_geom_bond_atom_site_label_2
_geom_bond_distance
_geom_bond_site_symmetry_2
Na0 O51 2.355605 1_455
Na0 O66 2.363161 1_555
Na0 O68 2.430802 1_555
Na0 O52 2.438495 1_455
Na0 O30 2.654668 1_555
Na0 O15 2.690905 1_455
Na0 O1 2.775666 1_455
Na0 O11 2.781307 1_555
Na1 O49 2.355605 1_565
Na1 O70 2.363161 1_555
Na1 O71 2.430802 1_555
Na1 O48 2.438496 1_565
Na1 O34 2.654668 1_555
Na1 O13 2.690905 1_565
Na1 O3 2.775666 1_565
Na1 O8 2.781307 1_555
Na2 O63 2.312633 1_555
Na2 O42 2.339634 1_565
Na2 O44 2.448039 1_555
Na2 O64 2.458444 1_555
Na2 O6 2.628241 1_555
Na2 O27 2.672804 1_555
Na2 O23 2.810413 1_565
Na2 O13 2.814490 1_565
Na3 O61 2.312633 1_555
Na3 O46 2.339633 1_455
Na3 O47 2.448039 1_555
Na3 O60 2.458444 1_555
Na3 O10 2.628241 1_555
Na3 O25 2.672804 1_554
Na3 O20 2.810413 1_455
Na3 O15 2.814490 1_455
Na4 O40 2.321399 1_655
Na4 O55 2.344102 1_555
Na4 O41 2.446196 1_555
Na4 O54 2.453304 1_555
Na4 O19 2.643970 1_556
Na4 O4 2.675251 1_555
Na4 O26 2.801095 1_655
Na4 O33 2.801784 1_655
Na5 O36 2.321399 1_545
Na5 O57 2.344102 1_555
Na5 O38 2.446196 1_555
Na5 O58 2.453304 1_555
Na5 O21 2.643970 1_555
Na5 O0 2.675251 1_555
Na5 O29 2.801095 1_545
Na5 O31 2.801784 1_545
Na6 O43 2.503764 1_565
Na6 O36 2.518146 1_555
Na6 O44 2.555037 1_455
Na6 O37 2.558625 1_455
Na6 O38 2.567050 1_565
Na6 O42 2.570443 1_465
Na7 O45 2.503764 1_455
Na7 O40 2.518146 1_554
Na7 O47 2.555037 1_565
Na7 O39 2.558625 1_564
Na7 O41 2.567050 1_454
Na7 O46 2.570443 1_465
Na8 O48 2.501931 1_555
Na8 O56 2.510554 1_555
Na8 O54 2.547049 1_555
Na8 O55 2.557953 1_555
Na8 O50 2.567813 1_555
Na8 O49 2.579766 1_555
Na9 O52 2.501931 1_555
Na9 O59 2.510554 1_555
Na9 O58 2.547049 1_555
Na9 O57 2.557953 1_555
Na9 O53 2.567813 1_555
Na9 O51 2.579766 1_555
Na10 O67 2.511921 1_555
Na10 O62 2.520777 1_555
Na10 O68 2.550106 1_555
Na10 O60 2.561462 1_555
Na10 O66 2.568961 1_555
Na10 O61 2.569727 1_555
Na11 O69 2.511921 1_555
Na11 O65 2.520777 1_555
Na11 O71 2.550106 1_555
Na11 O64 2.561462 1_555
Na11 O70 2.568961 1_555
Na11 O63 2.569727 1_555
O0 P0 1.545839 1_555
O0 Ti0 2.025999 1_455
O1 P1 1.559964 1_555
O1 Ti0 1.950138 1_565
O2 Si0 1.633018 1_655
O2 Ti0 1.827226 1_555
O3 P2 1.559964 1_555
O3 Ti1 1.950138 1_455
O4 P3 1.545839 1_555
O4 Ti1 2.025999 1_565
O5 Si1 1.633018 1_545
O5 Ti1 1.827226 1_555
O6 Si1 1.626205 1_555
O6 Ti2 1.898686 1_655
O7 P2 1.550362 1_555
O7 Ti2 1.932180 1_545
O8 P3 1.562494 1_455
O8 Ti2 1.929256 1_555
O9 P1 1.550362 1_555
O9 Ti3 1.932180 1_655
O10 Si0 1.626205 1_555
O10 Ti3 1.898686 1_545
O11 P0 1.562494 1_565
O11 Ti3 1.929256 1_555
O12 P4 1.552814 1_555
O12 Ti4 1.927084 1_555
O13 Si2 1.653516 1_555
O13 Ti4 1.884263 1_555
O14 P5 1.539584 1_555
O14 Ti4 1.964285 1_555
O15 Si3 1.653516 1_555
O15 Ti5 1.884263 1_555
O16 P6 1.552814 1_555
O16 Ti5 1.927084 1_555
O17 P7 1.539584 1_555
O17 Ti5 1.964285 1_555
O18 P7 1.556965 1_555
O18 Ti6 1.897804 1_554
O19 Si3 1.631907 1_555
O19 Ti6 1.908054 1_554
O20 P6 1.549260 1_555
O20 Ti6 1.956755 1_554
O21 Si2 1.631907 1_555
O21 Ti7 1.908054 1_555
O22 P5 1.556965 1_555
O22 Ti7 1.897804 1_555
O23 P4 1.549260 1_555
O23 Ti7 1.956755 1_555
O24 P8 1.534448 1_555
O24 Ti8 1.980248 1_556
O25 P9 1.554077 1_555
O25 Ti8 2.003484 1_556
O26 Si4 1.654699 1_555
O26 Ti8 1.819571 1_556
O27 P10 1.554077 1_555
O27 Ti9 2.003484 1_555
O28 P11 1.534448 1_555
O28 Ti9 1.980248 1_555
O29 Si5 1.654699 1_555
O29 Ti9 1.819571 1_555
O30 Si5 1.646040 1_555
O30 Ti10 1.858774 1_555
O31 P10 1.544479 1_555
O31 Ti10 2.010675 1_555
O32 P11 1.552413 1_555
O32 Ti10 1.906492 1_555
O33 P9 1.544479 1_555
O33 Ti11 2.010675 1_555
O34 Si4 1.646040 1_555
O34 Ti11 1.858774 1_555
O35 P8 1.552413 1_555
O35 Ti11 1.906492 1_555
O36 Si5 1.628220 1_555
O36 Ti0 1.988150 1_465
O37 P10 1.547020 1_555
O37 Ti0 1.967835 1_565
O38 P11 1.553435 1_555
O38 Ti0 2.060865 1_455
O39 P9 1.547020 1_555
O39 Ti1 1.967835 1_455
O40 Si4 1.628221 1_555
O40 Ti1 1.988150 1_465
O41 P8 1.553435 1_555
O41 Ti1 2.060865 1_565
O42 P4 1.545715 1_555
O42 Ti2 2.078365 1_645
O43 Si2 1.618325 1_555
O43 Ti2 1.910818 1_545
O44 P5 1.552752 1_555
O44 Ti2 2.068180 1_655
O45 Si3 1.618325 1_555
O45 Ti3 1.910818 1_655
O46 P6 1.545715 1_555
O46 Ti3 2.078365 1_645
O47 P7 1.552752 1_555
O47 Ti3 2.068180 1_545
O48 Si1 1.647612 1_545
O48 Ti4 1.929811 1_555
O49 P2 1.551306 1_555
O49 Ti4 2.074702 1_555
O50 P3 1.534405 1_555
O50 Ti4 2.029691 1_555
O51 P1 1.551306 1_555
O51 Ti5 2.074702 1_555
O52 Si0 1.647612 1_655
O52 Ti5 1.929811 1_555
O53 P0 1.534405 1_555
O53 Ti5 2.029691 1_555
O54 P8 1.552493 1_555
O54 Ti6 2.047561 1_555
O55 P9 1.550292 1_655
O55 Ti6 2.096217 1_555
O56 Si4 1.614435 1_545
O56 Ti6 1.912285 1_555
O57 P10 1.550292 1_545
O57 Ti7 2.096217 1_555
O58 P11 1.552493 1_555
O58 Ti7 2.047561 1_555
O59 Si5 1.614435 1_655
O59 Ti7 1.912285 1_555
O60 P7 1.543811 1_555
O60 Ti8 2.098643 1_555
O61 Si3 1.653157 1_455
O61 Ti8 1.932915 1_555
O62 P6 1.537687 1_565
O62 Ti8 1.998901 1_555
O63 Si2 1.653157 1_565
O63 Ti9 1.932915 1_555
O64 P5 1.543811 1_555
O64 Ti9 2.098643 1_555
O65 P4 1.537687 1_455
O65 Ti9 1.998901 1_555
O66 P0 1.551026 1_565
O66 Ti10 2.084544 1_555
O67 P1 1.528667 1_555
O67 Ti10 2.041879 1_555
O68 Si0 1.647881 1_555
O68 Ti10 1.922964 1_555
O69 P2 1.528667 1_555
O69 Ti11 2.041879 1_555
O70 P3 1.551026 1_455
O70 Ti11 2.084544 1_555
O71 Si1 1.647881 1_555
O71 Ti11 1.922964 1_555
