# generated using pymatgen
data_La3Co3O8
_symmetry_space_group_name_H-M   'P 1'
_cell_length_a   5.43251400
_cell_length_b   5.65517100
_cell_length_c   11.76463627
_cell_angle_alpha   89.63457892
_cell_angle_beta   90.00000000
_cell_angle_gamma   90.00000000
_symmetry_Int_Tables_number   1
_chemical_formula_structural   La3Co3O8
_chemical_formula_sum   'La6 Co6 O16'
_cell_volume   361.42340034
_cell_formula_units_Z   2
loop_
 _symmetry_equiv_pos_site_id
 _symmetry_equiv_pos_as_xyz
  1  'x, y, z'
loop_
 _atom_site_type_symbol
 _atom_site_label
 _atom_site_symmetry_multiplicity
 _atom_site_fract_x
 _atom_site_fract_y
 _atom_site_fract_z
 _atom_site_occupancy
  La  La0  1  0.24979800  0.25099200  0.49878100  1
  La  La1  1  0.74979800  0.74900800  0.50121900  1
  La  La2  1  0.25578300  0.26844300  0.18874200  1
  La  La3  1  0.75578300  0.73155700  0.81125800  1
  La  La4  1  0.25271100  0.26712500  0.80746800  1
  La  La5  1  0.75271100  0.73287500  0.19253200  1
  Co  Co0  1  0.25040700  0.75022500  0.66434100  1
  Co  Co1  1  0.75040700  0.24977500  0.33565900  1
  Co  Co2  1  0.25014000  0.75802600  0.33249600  1
  Co  Co3  1  0.75014000  0.24197400  0.66750400  1
  Co  Co4  1  0.29850400  0.81210200  0.00239800  1
  Co  Co5  1  0.79850400  0.18789800  0.99760200  1
  O  O0  1  0.00757700  0.00089200  0.30659900  1
  O  O1  1  0.50757700  0.99910800  0.69340100  1
  O  O2  1  0.49538800  0.99762300  0.30729400  1
  O  O3  1  0.99538800  0.00237700  0.69270600  1
  O  O4  1  0.24964800  0.82996500  0.49179300  1
  O  O5  1  0.74964800  0.17003500  0.50820700  1
  O  O6  1  0.00749900  0.50934800  0.35554800  1
  O  O7  1  0.50749900  0.49065200  0.64445200  1
  O  O8  1  0.49776400  0.51424300  0.35579000  1
  O  O9  1  0.99776400  0.48575700  0.64421000  1
  O  O10  1  0.23092600  0.67660800  0.85342700  1
  O  O11  1  0.73092600  0.32339200  0.14657300  1
  O  O12  1  0.16992800  0.14252900  0.99963600  1
  O  O13  1  0.66992800  0.85747100  0.00036400  1
  O  O14  1  0.74092800  0.31179400  0.84143600  1
  O  O15  1  0.24092800  0.68820600  0.15856400  1
loop_
_geom_bond_atom_site_label_1
_geom_bond_atom_site_label_2
_geom_bond_distance
_geom_bond_site_symmetry_2
La0 O4 2.382923 1_545
La0 O9 2.567778 1_455
La0 O6 2.583678 1_555
La0 O7 2.600656 1_555
La0 O8 2.613219 1_555
La0 O5 2.755881 1_555
La0 O5 2.757487 1_455
La1 O5 2.382923 1_565
La1 O8 2.567778 1_555
La1 O7 2.583678 1_555
La1 O6 2.600656 1_655
La1 O9 2.613219 1_555
La1 O4 2.755881 1_655
La1 O4 2.757487 1_555
La2 O12 2.386284 1_554
La2 O15 2.399351 1_555
La2 O2 2.440883 1_545
La2 O0 2.450141 1_555
La2 O11 2.646397 1_555
La2 O8 2.749070 1_555
La2 O6 2.749630 1_555
La2 O11 2.910427 1_455
La3 O13 2.386284 1_556
La3 O14 2.399351 1_555
La3 O3 2.440883 1_565
La3 O1 2.450141 1_555
La3 O10 2.646397 1_655
La3 O9 2.749070 1_555
La3 O7 2.749630 1_555
La3 O10 2.910427 1_555
La4 O10 2.384276 1_555
La4 O12 2.406151 1_555
La4 O1 2.457865 1_545
La4 O3 2.458535 1_455
La4 O9 2.665635 1_455
La4 O7 2.675981 1_555
La4 O14 2.694291 1_555
La4 O14 2.820406 1_455
La5 O11 2.384276 1_555
La5 O13 2.406151 1_555
La5 O0 2.457865 1_665
La5 O2 2.458535 1_555
La5 O8 2.665635 1_555
La5 O6 2.675981 1_655
La5 O15 2.694291 1_655
La5 O15 2.820406 1_555
Co0 O1 2.013912 1_555
Co0 O3 2.017453 1_465
Co0 O7 2.040734 1_555
Co0 O9 2.044794 1_455
Co0 O4 2.076643 1_555
Co0 O10 2.263014 1_555
Co1 O0 2.013912 1_655
Co1 O2 2.017453 1_545
Co1 O6 2.040734 1_655
Co1 O8 2.044794 1_555
Co1 O5 2.076643 1_555
Co1 O11 2.263014 1_555
Co2 O4 1.920256 1_555
Co2 O2 1.921917 1_555
Co2 O0 1.926201 1_565
Co2 O8 1.944360 1_555
Co2 O6 1.945233 1_555
Co2 O15 2.087064 1_555
Co3 O5 1.920256 1_555
Co3 O3 1.921917 1_555
Co3 O1 1.926201 1_545
Co3 O9 1.944360 1_555
Co3 O7 1.945233 1_555
Co3 O14 2.087064 1_555
Co4 O10 1.952076 1_554
Co4 O15 1.986898 1_555
Co4 O12 1.994973 1_564
Co4 O13 2.034134 1_555
Co5 O11 1.952076 1_556
Co5 O14 1.986898 1_555
Co5 O13 1.994973 1_546
Co5 O12 2.034134 1_655
