# generated using pymatgen
data_OsN2
_symmetry_space_group_name_H-M   'P 1'
_cell_length_a   2.70135000
_cell_length_b   4.14582800
_cell_length_c   4.95327500
_cell_angle_alpha   90.00000000
_cell_angle_beta   90.00000000
_cell_angle_gamma   90.00000000
_symmetry_Int_Tables_number   1
_chemical_formula_structural   OsN2
_chemical_formula_sum   'Os2 N4'
_cell_volume   55.47337353
_cell_formula_units_Z   2
loop_
 _symmetry_equiv_pos_site_id
 _symmetry_equiv_pos_as_xyz
  1  'x, y, z'
loop_
 _atom_site_type_symbol
 _atom_site_label
 _atom_site_symmetry_multiplicity
 _atom_site_fract_x
 _atom_site_fract_y
 _atom_site_fract_z
 _atom_site_occupancy
  Os  Os0  1  0.50000000  0.50000000  0.50000000  1
  Os  Os1  1  0.00000000  0.00000000  0.00000000  1
  N  N0  1  0.50000000  0.37341000  0.90429900  1
  N  N1  1  0.50000000  0.62659000  0.09570100  1
  N  N2  1  0.00000000  0.12659000  0.40429900  1
  N  N3  1  0.00000000  0.87341000  0.59570100  1
loop_
_geom_bond_atom_site_label_1
_geom_bond_atom_site_label_2
_geom_bond_distance
_geom_bond_site_symmetry_2
N0 N1 1.414417 1_556
N0 Os0 2.070232 1_555
N0 Os1 2.108465 1_556
N0 Os1 2.108465 1_656
N1 Os0 2.070232 1_555
N1 Os1 2.108465 1_665
N1 Os1 2.108465 1_565
N2 N3 1.414417 1_545
N2 Os1 2.070232 1_555
N2 Os0 2.108465 1_455
N2 Os0 2.108465 1_555
N3 Os1 2.070232 1_566
N3 Os0 2.108465 1_455
N3 Os0 2.108465 1_555
