# generated using pymatgen
data_Na6ZnSi2Ge3(PO6)4
_symmetry_space_group_name_H-M   'P 1'
_cell_length_a   15.06396237
_cell_length_b   8.76726727
_cell_length_c   8.82292896
_cell_angle_alpha   89.06078609
_cell_angle_beta   125.06220410
_cell_angle_gamma   90.07337352
_symmetry_Int_Tables_number   1
_chemical_formula_structural   Na6ZnSi2Ge3(PO6)4
_chemical_formula_sum   'Na12 Zn2 Si4 Ge6 P8 O48'
_cell_volume   953.60919393
_cell_formula_units_Z   2
loop_
 _symmetry_equiv_pos_site_id
 _symmetry_equiv_pos_as_xyz
  1  'x, y, z'
loop_
 _atom_site_type_symbol
 _atom_site_label
 _atom_site_symmetry_multiplicity
 _atom_site_fract_x
 _atom_site_fract_y
 _atom_site_fract_z
 _atom_site_occupancy
  Na  Na0  1  0.25201812  0.74728734  0.99828623  1
  Na  Na1  1  0.74574485  0.74270803  0.48595842  1
  Na  Na2  1  0.75201812  0.24728734  0.99828623  1
  Na  Na3  1  0.24574485  0.24270803  0.48595842  1
  Na  Na4  1  0.50988511  0.10342835  0.76454141  1
  Na  Na5  1  0.49946971  0.87927167  0.23547593  1
  Na  Na6  1  0.00988511  0.60342835  0.76454141  1
  Na  Na7  1  0.99946971  0.37927167  0.23547593  1
  Na  Na8  1  0.79853068  0.93028287  0.22878977  1
  Na  Na9  1  0.18421080  0.07178945  0.77994962  1
  Na  Na10  1  0.29853068  0.43028287  0.22878977  1
  Na  Na11  1  0.68421080  0.57178945  0.77994962  1
  Zn  Zn0  1  0.10232186  0.24024783  0.05103060  1
  Zn  Zn1  1  0.60232186  0.74024783  0.05103060  1
  Si  Si0  1  0.64884995  0.89901428  0.74826145  1
  Si  Si1  1  0.35887354  0.10186053  0.25614238  1
  Si  Si2  1  0.14884995  0.39901428  0.74826145  1
  Si  Si3  1  0.85887354  0.60186053  0.25614238  1
  Ge  Ge0  1  0.10308863  0.74938753  0.55934746  1
  Ge  Ge1  1  0.89604679  0.75284363  0.94074772  1
  Ge  Ge2  1  0.89842376  0.25366808  0.44230344  1
  Ge  Ge3  1  0.60308863  0.24938753  0.55934746  1
  Ge  Ge4  1  0.39604679  0.25284363  0.94074772  1
  Ge  Ge5  1  0.39842376  0.75366808  0.44230344  1
  P  P0  1  0.99355361  0.95539811  0.74165242  1
  P  P1  1  0.99949294  0.03370178  0.25587259  1
  P  P2  1  0.49355361  0.45539811  0.74165242  1
  P  P3  1  0.49949294  0.53370178  0.25587259  1
  P  P4  1  0.35481775  0.89306070  0.75335207  1
  P  P5  1  0.64635049  0.12414416  0.25305346  1
  P  P6  1  0.85481775  0.39306070  0.75335207  1
  P  P7  1  0.14635049  0.62414416  0.25305346  1
  O  O0  1  0.15714069  0.58393720  0.72188044  1
  O  O1  1  0.85324442  0.57270440  0.75606989  1
  O  O2  1  0.86008229  0.41218422  0.27112691  1
  O  O3  1  0.15288171  0.45044029  0.26129560  1
  O  O4  1  0.65714069  0.08393720  0.72188044  1
  O  O5  1  0.35324442  0.07270440  0.75606989  1
  O  O6  1  0.36008229  0.91218422  0.27112691  1
  O  O7  1  0.65288171  0.95044029  0.26129560  1
  O  O8  1  0.41933273  0.55147748  0.55750821  1
  O  O9  1  0.56698536  0.55205214  0.90793207  1
  O  O10  1  0.56406550  0.44184918  0.44047950  1
  O  O11  1  0.43133753  0.42821896  0.08571739  1
  O  O12  1  0.91933273  0.05147748  0.55750821  1
  O  O13  1  0.06698536  0.05205214  0.90793207  1
  O  O14  1  0.06406550  0.94184918  0.44047950  1
  O  O15  1  0.93133753  0.92821896  0.08571739  1
  O  O16  1  0.24802241  0.83879139  0.72778146  1
  O  O17  1  0.75154605  0.80745455  0.76900904  1
  O  O18  1  0.74505837  0.19306423  0.26206975  1
  O  O19  1  0.25997673  0.18298540  0.24223311  1
  O  O20  1  0.74802241  0.33879139  0.72778146  1
  O  O21  1  0.25154605  0.30745455  0.76900904  1
  O  O22  1  0.24505837  0.69306423  0.26206975  1
  O  O23  1  0.75997673  0.68298540  0.24223311  1
  O  O24  1  0.36232694  0.85747188  0.58824800  1
  O  O25  1  0.64382992  0.89032735  0.92537864  1
  O  O26  1  0.64496311  0.17909135  0.41490232  1
  O  O27  1  0.36379754  0.12463921  0.07259746  1
  O  O28  1  0.86232694  0.35747188  0.58824800  1
  O  O29  1  0.14382992  0.39032735  0.92537864  1
  O  O30  1  0.14496311  0.67909135  0.41490232  1
  O  O31  1  0.86379754  0.62463921  0.07259746  1
  O  O32  1  0.44940500  0.82812659  0.93757123  1
  O  O33  1  0.54458485  0.80583548  0.56957625  1
  O  O34  1  0.54367799  0.18313582  0.06210989  1
  O  O35  1  0.46760881  0.17099209  0.43971818  1
  O  O36  1  0.94940500  0.32812659  0.93757123  1
  O  O37  1  0.04458485  0.30583548  0.56957625  1
  O  O38  1  0.04367799  0.68313582  0.06210989  1
  O  O39  1  0.96760881  0.67099209  0.43971818  1
  O  O40  1  0.07535959  0.84942275  0.73220067  1
  O  O41  1  0.91619903  0.84765539  0.75619271  1
  O  O42  1  0.91039994  0.12988259  0.25467998  1
  O  O43  1  0.07649490  0.14016576  0.24895631  1
  O  O44  1  0.57535959  0.34942275  0.73220067  1
  O  O45  1  0.41619903  0.34765539  0.75619271  1
  O  O46  1  0.41039994  0.62988259  0.25467998  1
  O  O47  1  0.57649490  0.64016576  0.24895631  1
loop_
_geom_bond_atom_site_label_1
_geom_bond_atom_site_label_2
_geom_bond_distance
_geom_bond_site_symmetry_2
Na0 O46 2.366032 1_556
Na0 O22 2.428468 1_556
Na0 O16 2.472972 1_555
Na0 O6 2.478028 1_556
Na0 O0 2.479051 1_555
Na0 O40 2.480803 1_555
Na1 O23 2.347572 1_555
Na1 O47 2.368867 1_555
Na1 O7 2.430068 1_555
Na1 O1 2.445221 1_555
Na1 O41 2.481217 1_555
Na1 O17 2.522331 1_555
Na2 O42 2.366032 1_556
Na2 O18 2.428468 1_556
Na2 O20 2.472972 1_555
Na2 O2 2.478028 1_556
Na2 O4 2.479051 1_555
Na2 O44 2.480803 1_555
Na3 O19 2.347572 1_555
Na3 O43 2.368867 1_555
Na3 O3 2.430068 1_555
Na3 O5 2.445221 1_555
Na3 O45 2.481217 1_555
Na3 O21 2.522331 1_555
Na4 O5 2.332894 1_555
Na4 O44 2.450161 1_555
Na4 O4 2.460464 1_555
Na4 O34 2.482750 1_556
Na4 O25 2.491708 1_545
Na4 O45 2.542643 1_555
Na4 O35 2.611158 1_555
Na4 O24 2.852280 1_545
Na5 O7 2.275523 1_555
Na5 O6 2.313959 1_555
Na5 O32 2.332075 1_554
Na5 O47 2.365259 1_555
Na5 O46 2.617467 1_555
Na5 O33 2.683805 1_555
Na5 O27 2.721263 1_565
Na6 O1 2.332894 1_455
Na6 O40 2.450161 1_555
Na6 O0 2.460464 1_555
Na6 O38 2.482750 1_556
Na6 O29 2.491708 1_555
Na6 O41 2.542643 1_455
Na6 O39 2.611158 1_455
Na6 O28 2.852280 1_455
Na7 O3 2.275523 1_655
Na7 O2 2.313959 1_555
Na7 O36 2.332075 1_554
Na7 O43 2.365259 1_655
Na7 O42 2.617467 1_555
Na7 O37 2.683805 1_655
Na7 O31 2.721263 1_555
Na8 O23 2.262657 1_555
Na8 O42 2.348966 1_565
Na8 O25 2.362375 1_554
Na8 O7 2.377595 1_555
Na8 O18 2.518246 1_565
Na8 O12 2.623797 1_565
Na8 O15 2.915219 1_555
Na9 O21 2.325449 1_555
Na9 O16 2.419279 1_545
Na9 O40 2.427344 1_545
Na9 O27 2.492125 1_556
Na9 O13 2.589806 1_555
Na9 O5 2.672911 1_555
Na9 O14 2.724460 1_545
Na9 O37 2.735023 1_555
Na10 O19 2.262657 1_555
Na10 O46 2.348966 1_555
Na10 O29 2.362375 1_554
Na10 O3 2.377595 1_555
Na10 O22 2.518246 1_555
Na10 O8 2.623797 1_555
Na10 O11 2.915219 1_555
Na11 O17 2.325449 1_555
Na11 O20 2.419279 1_555
Na11 O44 2.427344 1_555
Na11 O31 2.492125 1_556
Na11 O9 2.589806 1_555
Na11 O1 2.672911 1_555
Na11 O10 2.724460 1_555
Na11 O33 2.735023 1_555
Ge0 O39 1.815723 1_455
Ge0 O30 1.830923 1_555
Ge0 O0 1.848453 1_555
Ge0 O14 1.878525 1_555
Ge0 O16 1.973724 1_555
Ge0 O40 2.011520 1_555
Ge1 O17 1.858173 1_555
Ge1 O31 1.859486 1_556
Ge1 O15 1.887814 1_556
Ge1 O38 1.926632 1_656
Ge1 O41 1.989331 1_555
Ge1 O1 2.107048 1_555
Ge2 O2 1.864667 1_555
Ge2 O37 1.868565 1_655
Ge2 O28 1.904237 1_555
Ge2 O12 1.961941 1_555
Ge2 O18 1.987981 1_555
Ge2 O42 2.086425 1_555
Ge3 O35 1.815723 1_555
Ge3 O26 1.830923 1_555
Ge3 O4 1.848453 1_555
Ge3 O10 1.878525 1_555
Ge3 O20 1.973724 1_555
Ge3 O44 2.011520 1_555
Ge4 O21 1.858173 1_555
Ge4 O27 1.859486 1_556
Ge4 O11 1.887814 1_556
Ge4 O34 1.926632 1_556
Ge4 O45 1.989331 1_555
Ge4 O5 2.107048 1_555
Ge5 O6 1.864667 1_555
Ge5 O33 1.868565 1_555
Ge5 O24 1.904237 1_555
Ge5 O8 1.961941 1_555
Ge5 O22 1.987981 1_555
Ge5 O46 2.086425 1_555
O0 Si2 1.648877 1_555
O1 P6 1.575976 1_555
O2 Si3 1.665321 1_555
O3 P7 1.524057 1_555
O3 Zn0 2.429556 1_555
O4 Si0 1.648877 1_545
O5 P4 1.575976 1_545
O6 Si1 1.665321 1_565
O7 P5 1.524057 1_565
O7 Zn1 2.429556 1_555
O8 P2 1.571544 1_555
O9 P2 1.505929 1_555
O9 Zn1 1.973231 1_556
O10 P3 1.544765 1_555
O11 P3 1.560557 1_555
O12 P0 1.571544 1_545
O13 P0 1.505929 1_445
O13 Zn0 1.973231 1_556
O14 P1 1.544765 1_465
O15 P1 1.560557 1_565
O16 P4 1.565230 1_555
O17 Si0 1.656540 1_555
O18 P5 1.563897 1_555
O19 Si1 1.590649 1_555
O19 Zn0 2.027388 1_555
O20 P6 1.565230 1_555
O21 Si2 1.656540 1_555
O22 P7 1.563897 1_555
O23 Si3 1.590649 1_555
O23 Zn1 2.027388 1_555
O24 P4 1.560910 1_555
O25 Si0 1.607913 1_555
O25 Zn1 2.024303 1_556
O26 P5 1.525943 1_555
O27 Si1 1.671892 1_555
O28 P6 1.560910 1_555
O29 Si2 1.607913 1_555
O29 Zn0 2.024303 1_556
O30 P7 1.525943 1_555
O31 Si3 1.671892 1_555
O32 P4 1.518890 1_555
O32 Zn1 2.057148 1_556
O33 Si0 1.677415 1_555
O34 P5 1.574036 1_555
O35 Si1 1.629483 1_555
O36 P6 1.518890 1_555
O36 Zn0 2.057148 1_656
O37 Si2 1.677415 1_555
O38 P7 1.574036 1_555
O39 Si3 1.629483 1_555
O40 P0 1.585045 1_455
O41 P0 1.559343 1_555
O42 P1 1.580749 1_555
O43 P1 1.515630 1_455
O43 Zn0 2.168010 1_555
O44 P2 1.585045 1_555
O45 P2 1.559343 1_555
O46 P3 1.580749 1_555
O47 P3 1.515630 1_555
O47 Zn1 2.168010 1_555
