# generated using pymatgen
data_Si2Mo
_symmetry_space_group_name_H-M   'P 1'
_cell_length_a   3.20426459
_cell_length_b   3.20426453
_cell_length_c   4.51739594
_cell_angle_alpha   110.77250024
_cell_angle_beta   110.77249782
_cell_angle_gamma   90.00000541
_symmetry_Int_Tables_number   1
_chemical_formula_structural   Si2Mo
_chemical_formula_sum   'Si2 Mo1'
_cell_volume   40.12563831
_cell_formula_units_Z   1
loop_
 _symmetry_equiv_pos_site_id
 _symmetry_equiv_pos_as_xyz
  1  'x, y, z'
loop_
 _atom_site_type_symbol
 _atom_site_label
 _atom_site_symmetry_multiplicity
 _atom_site_fract_x
 _atom_site_fract_y
 _atom_site_fract_z
 _atom_site_occupancy
  Si  Si0  1  0.66456963  0.66456963  0.32914126  1
  Si  Si1  1  0.33543037  0.33543037  0.67085874  1
  Mo  Mo0  1  -0.00000000  -0.00000000  -0.00000000  1
loop_
_geom_bond_atom_site_label_1
_geom_bond_atom_site_label_2
_geom_bond_distance
_geom_bond_site_symmetry_2
Si0 Si1 2.572631 1_554
Si0 Si1 2.630034 1_555
Si0 Si1 2.630042 1_565
Si0 Si1 2.630042 1_655
Si0 Si1 2.630050 1_665
Mo0 Si0 2.605426 1_555
Mo0 Si1 2.605426 1_444
Mo0 Si1 2.605430 1_544
Mo0 Si0 2.605430 1_455
Mo0 Si1 2.605430 1_454
Mo0 Si0 2.605430 1_545
Mo0 Si0 2.605433 1_445
Mo0 Si1 2.605433 1_554
Mo0 Si1 2.621780 1_555
Mo0 Si0 2.621780 1_444
