# generated using pymatgen
data_Tl3AgI5
_symmetry_space_group_name_H-M   'P 1'
_cell_length_a   10.80941526
_cell_length_b   10.80941526
_cell_length_c   13.51274800
_cell_angle_alpha   90.00000000
_cell_angle_beta   90.00000000
_cell_angle_gamma   119.99999546
_symmetry_Int_Tables_number   1
_chemical_formula_structural   Tl3AgI5
_chemical_formula_sum   'Tl12 Ag4 I20'
_cell_volume   1367.34696683
_cell_formula_units_Z   4
loop_
 _symmetry_equiv_pos_site_id
 _symmetry_equiv_pos_as_xyz
  1  'x, y, z'
loop_
 _atom_site_type_symbol
 _atom_site_label
 _atom_site_symmetry_multiplicity
 _atom_site_fract_x
 _atom_site_fract_y
 _atom_site_fract_z
 _atom_site_occupancy
  Tl  Tl0  1  0.96564200  0.61485100  0.75000000  1
  Tl  Tl1  1  0.38514900  0.35079100  0.75000000  1
  Tl  Tl2  1  0.64920900  0.03435800  0.75000000  1
  Tl  Tl3  1  0.03435800  0.64920900  0.25000000  1
  Tl  Tl4  1  0.35079100  0.38514900  0.25000000  1
  Tl  Tl5  1  0.61485100  0.96564200  0.25000000  1
  Tl  Tl6  1  0.36294800  0.00000000  0.50000000  1
  Tl  Tl7  1  0.63705200  0.63705200  0.00000000  1
  Tl  Tl8  1  0.00000000  0.36294800  0.00000000  1
  Tl  Tl9  1  0.00000000  0.36294800  0.50000000  1
  Tl  Tl10  1  0.63705200  0.63705200  0.50000000  1
  Tl  Tl11  1  0.36294800  0.00000000  0.00000000  1
  Ag  Ag0  1  0.00000000  0.00000000  0.38023800  1
  Ag  Ag1  1  0.00000000  0.00000000  0.88023800  1
  Ag  Ag2  1  0.00000000  0.00000000  0.61976200  1
  Ag  Ag3  1  0.00000000  0.00000000  0.11976200  1
  I  I0  1  0.66666700  0.33333300  0.89802800  1
  I  I1  1  0.66666700  0.33333300  0.60197200  1
  I  I2  1  0.33333300  0.66666700  0.10197200  1
  I  I3  1  0.33333300  0.66666700  0.39802800  1
  I  I4  1  0.00626500  0.24368400  0.75000000  1
  I  I5  1  0.75631600  0.76258100  0.75000000  1
  I  I6  1  0.23741900  0.99373500  0.75000000  1
  I  I7  1  0.99373500  0.23741900  0.25000000  1
  I  I8  1  0.66666700  0.33333300  0.35763400  1
  I  I9  1  0.33333300  0.66666700  0.85763400  1
  I  I10  1  0.33333300  0.66666700  0.64236600  1
  I  I11  1  0.66666700  0.33333300  0.14236600  1
  I  I12  1  0.75501800  0.00000000  0.00000000  1
  I  I13  1  0.24498200  0.24498200  0.50000000  1
  I  I14  1  0.00000000  0.75501800  0.50000000  1
  I  I15  1  0.00000000  0.75501800  0.00000000  1
  I  I16  1  0.24498200  0.24498200  0.00000000  1
  I  I17  1  0.75501800  0.00000000  0.50000000  1
  I  I18  1  0.24368400  0.00626500  0.25000000  1
  I  I19  1  0.76258100  0.75631600  0.25000000  1
loop_
_geom_bond_atom_site_label_1
_geom_bond_atom_site_label_2
_geom_bond_distance
_geom_bond_site_symmetry_2
Ag0 I14 3.103456 1_545
Ag0 I17 3.103456 1_455
Ag0 I13 3.103456 1_555
Ag0 I7 3.140341 1_455
Ag0 I18 3.140341 1_555
Ag0 I19 3.140341 1_445
Ag1 I12 3.103456 1_456
Ag1 I15 3.103456 1_546
Ag1 I16 3.103456 1_556
Ag1 I6 3.140341 1_545
Ag1 I4 3.140341 1_555
Ag1 I5 3.140341 1_445
Ag2 I17 3.103456 1_455
Ag2 I14 3.103456 1_545
Ag2 I13 3.103456 1_555
Ag2 I6 3.140341 1_545
Ag2 I4 3.140341 1_555
Ag2 I5 3.140341 1_445
Ag3 I12 3.103456 1_455
Ag3 I15 3.103456 1_545
Ag3 I16 3.103456 1_555
Ag3 I7 3.140341 1_455
Ag3 I18 3.140341 1_555
Ag3 I19 3.140341 1_445
I0 I11 3.301678 1_556
I1 I8 3.301678 1_555
I2 I9 3.301678 1_554
I4 Tl2 3.359021 1_455
I5 Tl0 3.359020 1_555
I6 Tl1 3.359021 1_565
I7 Tl4 3.359021 1_655
I10 I9 2.908862 1_555
I10 I3 3.301678 1_555
I11 I8 2.908862 1_555
I12 Tl7 3.466297 1_545
I12 Tl8 3.466297 1_655
I13 Tl9 3.466297 1_555
I13 Tl6 3.466297 1_555
I14 Tl10 3.466297 1_455
I14 Tl6 3.466297 1_565
I15 Tl7 3.466297 1_455
I15 Tl11 3.466297 1_565
I16 Tl8 3.466297 1_555
I16 Tl11 3.466297 1_555
I17 Tl10 3.466297 1_545
I17 Tl9 3.466297 1_655
I18 Tl3 3.359021 1_545
I19 Tl5 3.359020 1_555
