# generated using pymatgen
data_Ba(NiP2)2
_symmetry_space_group_name_H-M   'P 1'
_cell_length_a   5.44406562
_cell_length_b   5.44406583
_cell_length_c   5.44406623
_cell_angle_alpha   106.27990542
_cell_angle_beta   106.27990936
_cell_angle_gamma   116.06175826
_symmetry_Int_Tables_number   1
_chemical_formula_structural   Ba(NiP2)2
_chemical_formula_sum   'Ba1 Ni2 P4'
_cell_volume   122.96127559
_cell_formula_units_Z   1
loop_
 _symmetry_equiv_pos_site_id
 _symmetry_equiv_pos_as_xyz
  1  'x, y, z'
loop_
 _atom_site_type_symbol
 _atom_site_label
 _atom_site_symmetry_multiplicity
 _atom_site_fract_x
 _atom_site_fract_y
 _atom_site_fract_z
 _atom_site_occupancy
  Ba  Ba0  1  0.00000000  0.00000000  0.00000000  1
  Ni  Ni0  1  0.25000000  0.75000000  0.50000000  1
  Ni  Ni1  1  0.75000000  0.25000000  0.50000000  1
  P  P0  1  0.50000000  0.74285339  0.24285339  1
  P  P1  1  0.74285339  0.50000000  0.24285339  1
  P  P2  1  0.25714661  0.50000000  0.75714661  1
  P  P3  1  0.50000000  0.25714661  0.75714661  1
loop_
_geom_bond_atom_site_label_1
_geom_bond_atom_site_label_2
_geom_bond_distance
_geom_bond_site_symmetry_2
Ba0 P3 3.290032 1_554
Ba0 P0 3.290032 1_445
Ba0 P1 3.290032 1_445
Ba0 P2 3.290032 1_554
Ba0 P1 3.290032 1_555
Ba0 P2 3.290032 1_444
Ba0 P0 3.290032 1_555
Ba0 P3 3.290032 1_444
Ba0 Ni1 3.569570 1_454
Ba0 Ni0 3.569570 1_545
Ba0 Ni1 3.569570 1_555
Ba0 Ni0 3.569570 1_444
Ba0 Ni0 3.569570 1_544
Ba0 Ni1 3.569570 1_455
Ba0 Ni0 3.569570 1_555
Ba0 Ni1 3.569570 1_444
Ba0 P3 3.672265 1_454
Ba0 P0 3.672265 1_545
Ba0 P2 3.672265 1_544
Ba0 P1 3.672265 1_455
Ba0 P0 3.672265 1_444
Ba0 P3 3.672265 1_555
Ba0 P1 3.672266 1_444
Ba0 P2 3.672266 1_555
Ni0 P2 2.213118 1_555
Ni0 P0 2.213118 1_555
Ni0 P1 2.213118 1_455
Ni0 P3 2.213118 1_565
Ni1 P1 2.213118 1_555
Ni1 P3 2.213118 1_555
Ni1 P2 2.213118 1_655
Ni1 P0 2.213118 1_545
