# generated using pymatgen
data_Pr2MgMn2(GeO5)2
_symmetry_space_group_name_H-M   'P 1'
_cell_length_a   6.55000563
_cell_length_b   6.04655348
_cell_length_c   6.92940759
_cell_angle_alpha   104.98221929
_cell_angle_beta   103.00614489
_cell_angle_gamma   97.31411012
_symmetry_Int_Tables_number   1
_chemical_formula_structural   Pr2MgMn2(GeO5)2
_chemical_formula_sum   'Pr2 Mg1 Mn2 Ge2 O10'
_cell_volume   253.24276908
_cell_formula_units_Z   1
loop_
 _symmetry_equiv_pos_site_id
 _symmetry_equiv_pos_as_xyz
  1  'x, y, z'
loop_
 _atom_site_type_symbol
 _atom_site_label
 _atom_site_symmetry_multiplicity
 _atom_site_fract_x
 _atom_site_fract_y
 _atom_site_fract_z
 _atom_site_occupancy
  Pr  Pr0  1  0.21112289  0.08883149  0.75096741  1
  Pr  Pr1  1  0.64291026  0.74182694  0.24443257  1
  Mg  Mg0  1  0.72581093  0.34191279  0.71707438  1
  Mn  Mn0  1  0.11313632  0.60719799  0.06653255  1
  Mn  Mn1  1  0.07942860  0.49697532  0.49956310  1
  Ge  Ge0  1  0.62382990  0.83857433  0.73217715  1
  Ge  Ge1  1  0.37523590  0.17888859  0.26680900  1
  O  O0  1  0.93077164  0.58785299  0.25420511  1
  O  O1  1  0.29674761  0.91041284  0.05778243  1
  O  O2  1  0.21096528  0.19512508  0.43770401  1
  O  O3  1  0.60291753  0.12828190  0.85187447  1
  O  O4  1  0.63706967  0.18128711  0.40798958  1
  O  O5  1  0.35603093  0.39154440  0.12620354  1
  O  O6  1  0.65722500  0.64263701  0.88169403  1
  O  O7  1  0.84552857  0.84516894  0.61963868  1
  O  O8  1  0.03612174  0.40380069  0.76168675  1
  O  O9  1  0.37389725  0.74259860  0.53662824  1
loop_
_geom_bond_atom_site_label_1
_geom_bond_atom_site_label_2
_geom_bond_distance
_geom_bond_site_symmetry_2
Mg0 O8 1.957170 1_655
Mg0 O3 1.971439 1_555
Mg0 O4 2.022062 1_555
Mg0 O6 2.043436 1_555
Mn0 O0 1.968236 1_455
Mn0 O8 2.061166 1_554
Mn0 O1 2.083340 1_555
Mn0 O5 2.216603 1_555
Mn1 O0 2.003697 1_455
Mn1 O8 2.101749 1_555
Mn1 O2 2.102220 1_555
Mn1 O9 2.200522 1_555
Ge0 O6 1.767349 1_555
Ge0 O3 1.770958 1_565
Ge0 O9 1.790510 1_555
Ge0 O7 1.797063 1_555
Ge1 O2 1.763517 1_555
Ge1 O4 1.769091 1_555
Ge1 O1 1.798371 1_545
Ge1 O5 1.803398 1_555
O0 Pr1 2.201940 1_555
O1 Pr0 2.608008 1_564
O1 Pr1 2.793396 1_555
O2 Pr0 2.417778 1_555
O3 Pr0 2.466113 1_555
O4 Pr1 2.614397 1_545
O5 Pr1 2.466692 1_555
O5 Pr0 2.645387 1_554
O6 Pr1 2.455086 1_556
O7 Pr0 2.482081 1_665
O7 Pr1 2.511432 1_555
O8 Pr0 2.338265 1_555
O9 Pr0 2.720091 1_565
O9 Pr1 2.967733 1_555
