# generated using pymatgen
data_MgFeAs2O7
_symmetry_space_group_name_H-M   'P 1'
_cell_length_a   5.82187292
_cell_length_b   5.67428017
_cell_length_c   5.36131978
_cell_angle_alpha   92.90769846
_cell_angle_beta   108.41111739
_cell_angle_gamma   77.71204364
_symmetry_Int_Tables_number   1
_chemical_formula_structural   MgFeAs2O7
_chemical_formula_sum   'Mg1 Fe1 As2 O7'
_cell_volume   164.16956169
_cell_formula_units_Z   1
loop_
 _symmetry_equiv_pos_site_id
 _symmetry_equiv_pos_as_xyz
  1  'x, y, z'
loop_
 _atom_site_type_symbol
 _atom_site_label
 _atom_site_symmetry_multiplicity
 _atom_site_fract_x
 _atom_site_fract_y
 _atom_site_fract_z
 _atom_site_occupancy
  Mg  Mg0  1  0.50958067  0.16780321  0.89361558  1
  Fe  Fe0  1  0.09051227  0.04395943  0.05247008  1
  As  As0  1  0.66048078  0.28513010  0.42218551  1
  As  As1  1  0.28545737  0.68035163  0.57533958  1
  O  O0  1  0.77891146  0.12060695  0.71192121  1
  O  O1  1  0.81010960  0.27933270  0.19600179  1
  O  O2  1  0.40168632  0.18805982  0.23138439  1
  O  O3  1  0.08045123  0.78464930  0.28304944  1
  O  O4  1  0.32790336  0.89955972  0.80918685  1
  O  O5  1  0.24253077  0.43188012  0.69805074  1
  O  O6  1  0.58482617  0.59111601  0.51568382  1
loop_
_geom_bond_atom_site_label_1
_geom_bond_atom_site_label_2
_geom_bond_distance
_geom_bond_site_symmetry_2
Mg0 O5 1.974824 1_555
Mg0 O4 1.988296 1_545
Mg0 O0 2.058861 1_555
Mg0 O2 2.086567 1_556
Mg0 O1 2.159975 1_556
Fe0 O3 1.990885 1_545
Fe0 O2 2.079399 1_555
Fe0 O0 2.113332 1_454
Fe0 O1 2.191364 1_455
Fe0 O4 2.197939 1_544
As0 O1 1.697485 1_555
As0 O2 1.715336 1_555
As0 O0 1.719438 1_555
As0 O6 1.784795 1_555
As1 O5 1.682567 1_555
As1 O3 1.685951 1_555
As1 O4 1.719588 1_555
As1 O6 1.832043 1_555
