# generated using pymatgen
data_FePO4
_symmetry_space_group_name_H-M   'P 1'
_cell_length_a   4.76065720
_cell_length_b   4.76065665
_cell_length_c   6.45011300
_cell_angle_alpha   90.00000000
_cell_angle_beta   90.00000000
_cell_angle_gamma   112.72064867
_symmetry_Int_Tables_number   1
_chemical_formula_structural   FePO4
_chemical_formula_sum   'Fe2 P2 O8'
_cell_volume   134.84035744
_cell_formula_units_Z   2
loop_
 _symmetry_equiv_pos_site_id
 _symmetry_equiv_pos_as_xyz
  1  'x, y, z'
loop_
 _atom_site_type_symbol
 _atom_site_label
 _atom_site_symmetry_multiplicity
 _atom_site_fract_x
 _atom_site_fract_y
 _atom_site_fract_z
 _atom_site_occupancy
  Fe  Fe0  1  0.00000000  0.00000000  0.00000000  1
  Fe  Fe1  1  0.00000000  0.00000000  0.50000000  1
  P  P0  1  0.34654700  0.65345300  0.25000000  1
  P  P1  1  0.65345300  0.34654700  0.75000000  1
  O  O0  1  0.24002700  0.75997300  0.05270700  1
  O  O1  1  0.70579000  0.77951400  0.25000000  1
  O  O2  1  0.22048600  0.29421000  0.25000000  1
  O  O3  1  0.24002700  0.75997300  0.44729300  1
  O  O4  1  0.75997300  0.24002700  0.55270700  1
  O  O5  1  0.29421000  0.22048600  0.75000000  1
  O  O6  1  0.77951400  0.70579000  0.75000000  1
  O  O7  1  0.75997300  0.24002700  0.94729300  1
loop_
_geom_bond_atom_site_label_1
_geom_bond_atom_site_label_2
_geom_bond_distance
_geom_bond_site_symmetry_2
Fe0 O0 1.932793 1_545
Fe0 O7 1.932793 1_454
Fe0 O2 2.127937 1_555
Fe0 O6 2.127937 1_444
Fe0 O5 2.127937 1_554
Fe0 O1 2.127937 1_445
Fe1 O4 1.932793 1_455
Fe1 O3 1.932793 1_545
Fe1 O2 2.127937 1_555
Fe1 O6 2.127937 1_445
Fe1 O5 2.127937 1_555
Fe1 O1 2.127937 1_445
O0 P0 1.527211 1_555
O1 P0 1.578674 1_555
O2 P0 1.578674 1_555
O3 P0 1.527211 1_555
O4 P1 1.527211 1_555
O5 P1 1.578674 1_555
O6 P1 1.578674 1_555
O7 P1 1.527211 1_555
