# generated using pymatgen
data_Ba3MgNb2CoO9
_symmetry_space_group_name_H-M   'P 1'
_cell_length_a   6.05831001
_cell_length_b   6.05867823
_cell_length_c   7.57566245
_cell_angle_alpha   96.73425618
_cell_angle_beta   83.25773256
_cell_angle_gamma   120.96056909
_symmetry_Int_Tables_number   1
_chemical_formula_structural   Ba3MgNb2CoO9
_chemical_formula_sum   'Ba3 Mg1 Nb2 Co1 O9'
_cell_volume   236.27115312
_cell_formula_units_Z   1
loop_
 _symmetry_equiv_pos_site_id
 _symmetry_equiv_pos_as_xyz
  1  'x, y, z'
loop_
 _atom_site_type_symbol
 _atom_site_label
 _atom_site_symmetry_multiplicity
 _atom_site_fract_x
 _atom_site_fract_y
 _atom_site_fract_z
 _atom_site_occupancy
  Ba  Ba0  1  0.62605263  0.37455706  0.29651409  1
  Ba  Ba1  1  0.98993016  0.01087959  0.97943080  1
  Ba  Ba2  1  0.36806891  0.63279491  0.69565852  1
  Mg  Mg0  1  0.92182813  0.07835649  0.43160240  1
  Nb  Nb0  1  0.30357388  0.69679939  0.16234663  1
  Nb  Nb1  1  0.67320526  0.32771557  0.83020265  1
  Co  Co0  1  0.12702626  0.87409760  0.54502701  1
  O  O0  1  0.48544337  0.51563221  0.00811289  1
  O  O1  1  0.12153389  0.40174679  0.31835013  1
  O  O2  1  0.83279481  0.63691503  0.68808105  1
  O  O3  1  0.98941330  0.51089454  0.99502508  1
  O  O4  1  0.11302835  0.88684698  0.29081259  1
  O  O5  1  0.36410547  0.16816618  0.68801975  1
  O  O6  1  0.83972469  0.16117393  0.68286208  1
  O  O7  1  0.59814259  0.87858899  0.31874965  1
  O  O8  1  0.48987930  0.01150175  0.99513168  1
loop_
_geom_bond_atom_site_label_1
_geom_bond_atom_site_label_2
_geom_bond_distance
_geom_bond_site_symmetry_2
Ba0 O0 2.802468 1_555
Ba0 O8 2.851176 1_554
Ba0 O3 2.852334 1_554
Ba0 O1 2.943909 1_655
Ba0 O7 2.945455 1_545
Ba0 O4 2.986528 1_655
Ba0 O4 2.990899 1_545
Ba0 O7 3.128323 1_555
Ba0 O1 3.128871 1_555
Ba0 O5 3.256008 1_555
Ba0 O2 3.257751 1_555
Ba1 O2 2.830664 1_545
Ba1 O5 2.831279 1_655
Ba1 O4 2.844439 1_646
Ba1 O6 2.918452 1_555
Ba1 O0 2.992153 1_546
Ba1 O0 2.993800 1_656
Ba1 O3 3.019462 1_555
Ba1 O8 3.019742 1_555
Ba1 O8 3.043159 1_655
Ba1 O3 3.043747 1_545
Ba1 O1 3.154047 1_656
Ba1 O7 3.158671 1_546
Ba2 O2 2.796564 1_555
Ba2 O5 2.796592 1_555
Ba2 O0 2.814446 1_556
Ba2 O3 2.894709 1_455
Ba2 O8 2.895913 1_565
Ba2 Co0 2.924252 1_555
Ba2 O6 3.002857 1_455
Ba2 O6 3.003080 1_565
Ba2 O7 3.200077 1_555
Ba2 O1 3.205217 1_555
Ba2 O2 3.263031 1_455
Ba2 O5 3.263376 1_565
Mg0 O7 1.936552 1_545
Mg0 O1 1.936570 1_655
Mg0 O6 1.983134 1_555
Mg0 O4 2.151319 1_645
Nb0 O1 1.992386 1_555
Nb0 O7 1.992439 1_555
Nb0 O0 2.103638 1_555
Nb0 O4 2.108686 1_555
Nb0 O3 2.126926 1_454
Nb0 O8 2.128512 1_564
Nb1 O6 1.949502 1_555
Nb1 O5 1.992054 1_555
Nb1 O2 1.992095 1_555
Nb1 O3 2.123631 1_555
Nb1 O8 2.123992 1_555
Nb1 O0 2.240395 1_556
Co0 O5 1.921065 1_565
Co0 O2 1.921724 1_455
Co0 O4 1.949873 1_555
