# generated using pymatgen
data_MgFeCuAs2PbO10
_symmetry_space_group_name_H-M   'P 1'
_cell_length_a   5.63956603
_cell_length_b   6.08563584
_cell_length_c   7.52158531
_cell_angle_alpha   104.97424457
_cell_angle_beta   97.41159655
_cell_angle_gamma   112.60242594
_symmetry_Int_Tables_number   1
_chemical_formula_structural   MgFeCuAs2PbO10
_chemical_formula_sum   'Mg1 Fe1 Cu1 As2 Pb1 O10'
_cell_volume   222.55255913
_cell_formula_units_Z   1
loop_
 _symmetry_equiv_pos_site_id
 _symmetry_equiv_pos_as_xyz
  1  'x, y, z'
loop_
 _atom_site_type_symbol
 _atom_site_label
 _atom_site_symmetry_multiplicity
 _atom_site_fract_x
 _atom_site_fract_y
 _atom_site_fract_z
 _atom_site_occupancy
  Mg  Mg0  1  0.89976800  0.37290300  0.30888100  1
  Fe  Fe0  1  0.98565800  0.99697900  0.50242000  1
  Cu  Cu0  1  0.47060600  0.49275700  0.49435800  1
  As  As0  1  0.59258800  0.20692100  0.79417500  1
  As  As1  1  0.38098000  0.79225900  0.21211800  1
  Pb  Pb0  1  0.96896800  0.88252100  0.93448800  1
  O  O0  1  0.79525600  0.63322700  0.44126800  1
  O  O1  1  0.13944600  0.35228100  0.53126100  1
  O  O2  1  0.72486700  0.01470900  0.67989100  1
  O  O3  1  0.22255700  0.96308000  0.31679500  1
  O  O4  1  0.71746500  0.99050200  0.27989100  1
  O  O5  1  0.25055000  0.03440100  0.73449700  1
  O  O6  1  0.28991000  0.51631100  0.27470300  1
  O  O7  1  0.65429800  0.46798000  0.71522500  1
  O  O8  1  0.72398000  0.32111200  0.03223700  1
  O  O9  1  0.27060200  0.70015400  0.97279200  1
loop_
_geom_bond_atom_site_label_1
_geom_bond_atom_site_label_2
_geom_bond_distance
_geom_bond_site_symmetry_2
Mg0 O0 1.975523 1_555
Mg0 O1 2.072709 1_655
Mg0 O8 2.073788 1_555
Mg0 O4 2.088310 1_545
Mg0 O6 2.110598 1_655
Fe0 O1 1.934456 1_665
Fe0 O0 1.945292 1_555
Fe0 O5 2.047168 1_665
Fe0 O3 2.078722 1_655
Fe0 O4 2.087499 1_555
Fe0 O2 2.123831 1_565
Cu0 O1 1.823436 1_555
Cu0 O0 1.845081 1_555
Cu0 O6 1.894444 1_555
Cu0 O7 1.913439 1_555
As0 O8 1.690294 1_556
As0 O2 1.726346 1_555
As0 O5 1.732333 1_555
As0 O7 1.764540 1_555
As1 O9 1.692146 1_554
As1 O3 1.723728 1_555
As1 O4 1.728930 1_555
As1 O6 1.764486 1_555
O2 Pb0 2.678909 1_545
O5 Pb0 2.417719 1_445
O7 Pb0 2.426316 1_555
O9 Pb0 2.387123 1_455
