# generated using pymatgen
data_MgMn2(FeO2)4
_symmetry_space_group_name_H-M   'P 1'
_cell_length_a   6.10630552
_cell_length_b   6.46334334
_cell_length_c   6.09642892
_cell_angle_alpha   60.75094969
_cell_angle_beta   59.27679904
_cell_angle_gamma   61.40851514
_symmetry_Int_Tables_number   1
_chemical_formula_structural   MgMn2(FeO2)4
_chemical_formula_sum   'Mg1 Mn2 Fe4 O8'
_cell_volume   171.85496112
_cell_formula_units_Z   1
loop_
 _symmetry_equiv_pos_site_id
 _symmetry_equiv_pos_as_xyz
  1  'x, y, z'
loop_
 _atom_site_type_symbol
 _atom_site_label
 _atom_site_symmetry_multiplicity
 _atom_site_fract_x
 _atom_site_fract_y
 _atom_site_fract_z
 _atom_site_occupancy
  Mg  Mg0  1  0.10576200  0.63668700  0.12753000  1
  Mn  Mn0  1  0.12332700  0.62340100  0.62798300  1
  Mn  Mn1  1  0.64055400  0.11985000  0.62244700  1
  Fe  Fe0  1  0.99184700  0.09650300  0.92859900  1
  Fe  Fe1  1  0.29006200  0.17558500  0.27556300  1
  Fe  Fe2  1  0.62119800  0.62676800  0.12890600  1
  Fe  Fe3  1  0.62128800  0.63652900  0.62825000  1
  O  O0  1  0.36431000  0.36634500  0.38046100  1
  O  O1  1  0.40155200  0.82463500  0.39143900  1
  O  O2  1  0.37238900  0.38155100  0.88984700  1
  O  O3  1  0.89213200  0.37588700  0.38137300  1
  O  O4  1  0.37007800  0.85271500  0.87234100  1
  O  O5  1  0.82957300  0.44182300  0.86341200  1
  O  O6  1  0.86958000  0.85265800  0.37666800  1
  O  O7  1  0.88134700  0.86406400  0.88018000  1
loop_
_geom_bond_atom_site_label_1
_geom_bond_atom_site_label_2
_geom_bond_distance
_geom_bond_site_symmetry_2
Mg0 O6 2.059655 1_455
Mg0 O7 2.080822 1_454
Mg0 O3 2.104922 1_455
Mg0 O4 2.107941 1_554
Mg0 O2 2.196472 1_554
Mg0 O0 2.266611 1_555
Mn0 O5 2.095977 1_455
Mn0 O1 2.106260 1_555
Mn0 O7 2.186935 1_455
Mn0 O6 2.225649 1_455
Mn0 O0 2.245867 1_555
Mn0 O2 2.252079 1_555
Mn1 O7 2.204430 1_545
Mn1 O3 2.237867 1_555
Mn1 O0 2.287730 1_555
Mn1 O6 2.293304 1_545
Mn1 O2 2.348604 1_555
Mn1 O4 2.370189 1_545
Fe0 O5 1.881516 1_555
Fe0 O4 2.042108 1_645
Fe0 O7 2.099172 1_545
Fe0 O6 2.310499 1_546
Fe1 O1 1.885534 1_545
Fe1 O0 1.932994 1_555
Fe1 O2 1.981921 1_554
Fe1 O3 2.049414 1_455
Fe2 O5 1.999562 1_554
Fe2 O1 2.039894 1_555
Fe2 O7 2.184746 1_554
Fe2 O4 2.237355 1_554
Fe2 O0 2.278650 1_555
Fe2 O3 2.308828 1_555
Fe3 O5 1.955699 1_555
Fe3 O1 2.016304 1_555
Fe3 O6 2.039569 1_555
Fe3 O4 2.041536 1_555
Fe3 O2 2.218468 1_555
Fe3 O3 2.259659 1_555
