# generated using pymatgen
data_MgCo2(SbS)2
_symmetry_space_group_name_H-M   'P 1'
_cell_length_a   3.45410454
_cell_length_b   5.53299884
_cell_length_c   6.98238389
_cell_angle_alpha   101.55570388
_cell_angle_beta   90.00000000
_cell_angle_gamma   90.00000000
_symmetry_Int_Tables_number   1
_chemical_formula_structural   MgCo2(SbS)2
_chemical_formula_sum   'Mg1 Co2 Sb2 S2'
_cell_volume   130.73936434
_cell_formula_units_Z   1
loop_
 _symmetry_equiv_pos_site_id
 _symmetry_equiv_pos_as_xyz
  1  'x, y, z'
loop_
 _atom_site_type_symbol
 _atom_site_label
 _atom_site_symmetry_multiplicity
 _atom_site_fract_x
 _atom_site_fract_y
 _atom_site_fract_z
 _atom_site_occupancy
  Mg  Mg0  1  0.50000000  0.47483390  0.81892379  1
  Co  Co0  1  0.00000000  0.24143031  0.07565678  1
  Co  Co1  1  0.50000000  0.74157827  0.46624099  1
  Sb  Sb0  1  0.00000000  0.01972553  0.35647762  1
  Sb  Sb1  1  0.50000000  0.97963926  0.84927392  1
  S  S0  1  0.50000000  0.48546937  0.17479893  1
  S  S1  1  0.00000000  0.48787936  0.56569497  1
loop_
_geom_bond_atom_site_label_1
_geom_bond_atom_site_label_2
_geom_bond_distance
_geom_bond_site_symmetry_2
Mg0 S0 2.473741 1_556
Mg0 S1 2.483017 1_555
Mg0 S1 2.483017 1_655
Mg0 Sb1 2.758461 1_555
Mg0 Sb1 2.790098 1_545
Co0 S0 2.215999 1_455
Co0 S0 2.215999 1_555
Co0 Sb0 2.512602 1_555
Co0 Sb1 2.581105 1_444
Co0 Sb1 2.581105 1_544
Co0 Mg0 2.965032 1_554
Co0 Mg0 2.965032 1_454
Co1 S0 2.234679 1_555
Co1 S1 2.413688 1_555
Co1 S1 2.413688 1_655
Co1 Sb0 2.532022 1_565
Co1 Sb0 2.532022 1_665
Co1 Sb1 2.734314 1_555
S1 Sb0 2.706962 1_555
