# generated using pymatgen
data_MgMn6(O5F)2
_symmetry_space_group_name_H-M   'P 1'
_cell_length_a   5.10196976
_cell_length_b   7.52688030
_cell_length_c   5.74206843
_cell_angle_alpha   98.27846183
_cell_angle_beta   99.52631794
_cell_angle_gamma   84.26168651
_symmetry_Int_Tables_number   1
_chemical_formula_structural   MgMn6(O5F)2
_chemical_formula_sum   'Mg1 Mn6 O10 F2'
_cell_volume   214.54337744
_cell_formula_units_Z   1
loop_
 _symmetry_equiv_pos_site_id
 _symmetry_equiv_pos_as_xyz
  1  'x, y, z'
loop_
 _atom_site_type_symbol
 _atom_site_label
 _atom_site_symmetry_multiplicity
 _atom_site_fract_x
 _atom_site_fract_y
 _atom_site_fract_z
 _atom_site_occupancy
  Mg  Mg0  1  0.48733177  0.83657799  0.82630604  1
  Mn  Mn0  1  0.56131606  0.02119001  0.44937142  1
  Mn  Mn1  1  0.46968699  0.64255336  0.20419706  1
  Mn  Mn2  1  0.50748434  0.33048087  0.82736201  1
  Mn  Mn3  1  0.99273778  0.65203675  0.66839140  1
  Mn  Mn4  1  0.00057384  0.31962116  0.32872637  1
  Mn  Mn5  1  0.00551642  0.00832207  0.99865082  1
  O  O0  1  0.86895431  0.42089852  0.61241658  1
  O  O1  1  0.86531859  0.09496412  0.28935328  1
  O  O2  1  0.65825875  0.07714498  0.80477925  1
  O  O3  1  0.64124227  0.75965028  0.50862841  1
  O  O4  1  0.67818410  0.41896123  0.14317407  1
  O  O5  1  0.34811509  0.58116669  0.85840380  1
  O  O6  1  0.34799379  0.24603313  0.50448569  1
  O  O7  1  0.35274348  0.90030634  0.15980549  1
  O  O8  1  0.14087853  0.22571108  0.03568244  1
  O  O9  1  0.11265492  0.89288359  0.71115324  1
  F  F0  1  0.83815671  0.77033851  0.00392623  1
  F  F1  1  0.15063026  0.56008930  0.33899541  1
loop_
_geom_bond_atom_site_label_1
_geom_bond_atom_site_label_2
_geom_bond_distance
_geom_bond_site_symmetry_2
Mg0 O9 1.941986 1_555
Mg0 O3 2.087670 1_555
Mg0 O2 2.114327 1_565
Mg0 O7 2.115088 1_556
Mg0 O5 2.157012 1_555
Mn0 O6 1.933971 1_555
Mn0 O7 1.974121 1_545
Mn0 O2 2.011671 1_555
Mn0 O3 2.035632 1_545
Mn0 O1 2.085452 1_555
Mn1 O4 1.918913 1_555
Mn1 O3 1.950078 1_555
Mn1 O5 1.981454 1_554
Mn1 O7 2.011329 1_555
Mn2 O4 1.932855 1_556
Mn2 O6 1.941163 1_555
Mn2 O5 1.974220 1_555
Mn2 O2 1.978142 1_555
Mn2 O0 2.575633 1_555
Mn2 O8 2.618845 1_556
Mn3 O0 1.876266 1_555
Mn3 O9 1.940316 1_655
Mn3 O5 2.020343 1_655
Mn3 O3 2.023022 1_555
Mn4 O1 1.859647 1_455
Mn4 O0 1.894123 1_455
Mn4 O8 1.948964 1_555
Mn4 O4 1.950160 1_455
Mn4 O6 1.959515 1_555
Mn5 O8 1.810161 1_556
Mn5 O9 1.889353 1_545
Mn5 O1 1.926582 1_456
Mn5 O2 1.994049 1_455
Mn5 O7 2.010392 1_546
F0 Mg0 1.963734 1_554
F0 Mn5 2.066085 1_664
F0 Mn3 2.235041 1_554
F1 Mn4 2.024111 1_555
F1 Mn1 2.095617 1_555
F1 Mn3 2.172842 1_455
