# generated using pymatgen
data_Na8Y3NbSi5SO24
_symmetry_space_group_name_H-M   'P 1'
_cell_length_a   9.45084725
_cell_length_b   9.43916151
_cell_length_c   22.87477909
_cell_angle_alpha   90.04237412
_cell_angle_beta   90.19498656
_cell_angle_gamma   120.00852751
_symmetry_Int_Tables_number   1
_chemical_formula_structural   Na8Y3NbSi5SO24
_chemical_formula_sum   'Na24 Y9 Nb3 Si15 S3 O72'
_cell_volume   1767.05527755
_cell_formula_units_Z   3
loop_
 _symmetry_equiv_pos_site_id
 _symmetry_equiv_pos_as_xyz
  1  'x, y, z'
loop_
 _atom_site_type_symbol
 _atom_site_label
 _atom_site_symmetry_multiplicity
 _atom_site_fract_x
 _atom_site_fract_y
 _atom_site_fract_z
 _atom_site_occupancy
  Na  Na0  1  0.61484169  0.99744766  0.25311343  1
  Na  Na1  1  0.36694373  0.34830542  0.25940922  1
  Na  Na2  1  0.01760752  0.64962611  0.24662556  1
  Na  Na3  1  0.64058390  0.62655425  0.74605597  1
  Na  Na4  1  0.01024359  0.36715869  0.73357343  1
  Na  Na5  1  0.34789142  0.00375209  0.73919550  1
  Na  Na6  1  0.29843158  0.34433070  0.57834410  1
  Na  Na7  1  0.04280170  0.70251580  0.57886433  1
  Na  Na8  1  0.66412850  0.95790903  0.57260106  1
  Na  Na9  1  0.30109969  0.95574455  0.07928496  1
  Na  Na10  1  0.65645943  0.70206413  0.07319800  1
  Na  Na11  1  0.04357026  0.34028389  0.07364768  1
  Na  Na12  1  0.96675210  0.67564888  0.91310979  1
  Na  Na13  1  0.69803349  0.02004928  0.92094710  1
  Na  Na14  1  0.32536160  0.29609143  0.91201798  1
  Na  Na15  1  0.97864282  0.30782394  0.42748489  1
  Na  Na16  1  0.33288892  0.02599257  0.42036149  1
  Na  Na17  1  0.68992034  0.67097057  0.42785221  1
  Na  Na18  1  0.99955567  0.00136920  0.50152580  1
  Na  Na19  1  0.99816248  0.99852195  0.99801050  1
  Na  Na20  1  0.66742856  0.34950042  0.83275287  1
  Na  Na21  1  0.64762416  0.31501423  0.34354396  1
  Na  Na22  1  0.33221938  0.68268274  0.15807624  1
  Na  Na23  1  0.32922510  0.66321722  0.65440116  1
  Y  Y0  1  0.00876034  0.00059620  0.35389248  1
  Y  Y1  1  0.00572823  0.99821076  0.84978030  1
  Y  Y2  1  0.01523436  0.00473975  0.64627430  1
  Y  Y3  1  0.01050556  0.99737214  0.14073501  1
  Y  Y4  1  0.66785450  0.34011914  0.68211411  1
  Y  Y5  1  0.66016451  0.32737709  0.18053299  1
  Y  Y6  1  0.33098838  0.66544915  0.01513026  1
  Y  Y7  1  0.33337864  0.66954254  0.51430347  1
  Y  Y8  1  0.33061201  0.67260045  0.32422553  1
  Nb  Nb0  1  0.66408403  0.33242193  0.98135825  1
  Nb  Nb1  1  0.66687098  0.33432537  0.48531935  1
  Nb  Nb2  1  0.31981679  0.65473442  0.82158777  1
  Si  Si0  1  0.30520018  0.99559640  0.24888490  1
  Si  Si1  1  0.30490607  0.31265298  0.75358312  1
  Si  Si2  1  0.00752930  0.69534904  0.75291887  1
  Si  Si3  1  0.96249181  0.33021198  0.58490176  1
  Si  Si4  1  0.37244806  0.03870606  0.58564795  1
  Si  Si5  1  0.66914492  0.63465490  0.58484470  1
  Si  Si6  1  0.95786414  0.62567913  0.08409820  1
  Si  Si7  1  0.66967175  0.03879155  0.08219628  1
  Si  Si8  1  0.37096680  0.33374589  0.08229642  1
  Si  Si9  1  0.62845112  0.66091681  0.91917355  1
  Si  Si10  1  0.02221584  0.36382256  0.92017632  1
  Si  Si11  1  0.34148716  0.96950694  0.91839758  1
  Si  Si12  1  0.64057504  0.98077559  0.41730860  1
  Si  Si13  1  0.34178145  0.36466888  0.41620121  1
  Si  Si14  1  0.01747983  0.65655110  0.41646451  1
  S  S0  1  0.69717479  0.70215987  0.24874408  1
  S  S1  1  0.00421013  0.30145529  0.24846235  1
  S  S2  1  0.68940749  0.98838413  0.75189201  1
  O  O0  1  0.20886643  0.00999015  0.30560402  1
  O  O1  1  0.79074665  0.79194554  0.30130543  1
  O  O2  1  0.98877625  0.20326230  0.30094974  1
  O  O3  1  0.21501925  0.20613577  0.81112734  1
  O  O4  1  0.97508662  0.77648985  0.81011293  1
  O  O5  1  0.78697725  0.00620496  0.80503614  1
  O  O6  1  0.77259816  0.97247358  0.69956962  1
  O  O7  1  0.18717487  0.23413165  0.69585468  1
  O  O8  1  0.04417571  0.81440169  0.69589746  1
  O  O9  1  0.77998673  0.79760882  0.19560164  1
  O  O10  1  0.00844600  0.21359280  0.19531089  1
  O  O11  1  0.19740164  0.97940995  0.18991182  1
  O  O12  1  0.88196563  0.34567196  0.64512593  1
  O  O13  1  0.46627485  0.11516625  0.64692039  1
  O  O14  1  0.65174528  0.53853183  0.64547341  1
  O  O15  1  0.88102436  0.53204970  0.14512418  1
  O  O16  1  0.65287743  0.12037088  0.14214464  1
  O  O17  1  0.47018222  0.35191901  0.14208444  1
  O  O18  1  0.48497735  0.32354324  0.02583370  1
  O  O19  1  0.83397556  0.50921687  0.02782600  1
  O  O20  1  0.67555376  0.16049786  0.02528051  1
  O  O21  1  0.48907438  0.16096013  0.53071508  1
  O  O22  1  0.67469321  0.51767885  0.52935419  1
  O  O23  1  0.84117714  0.32713450  0.52951300  1
  O  O24  1  0.55643181  0.69216664  0.97811005  1
  O  O25  1  0.13350916  0.43571306  0.97748266  1
  O  O26  1  0.30925780  0.86531929  0.97713348  1
  O  O27  1  0.55956380  0.85846637  0.47235953  1
  O  O28  1  0.30835828  0.45291000  0.47077939  1
  O  O29  1  0.14173788  0.69865769  0.47116417  1
  O  O30  1  0.09484722  0.62179673  0.35740557  1
  O  O31  1  0.52626600  0.90180113  0.35853948  1
  O  O32  1  0.37353437  0.47171087  0.35581416  1
  O  O33  1  0.13816093  0.49640963  0.86524800  1
  O  O34  1  0.36075817  0.85806666  0.86348441  1
  O  O35  1  0.49707269  0.64145772  0.86459084  1
  O  O36  1  0.97702996  0.80541703  0.41153385  1
  O  O37  1  0.82805067  0.01969979  0.41072204  1
  O  O38  1  0.18659950  0.17800038  0.41393107  1
  O  O39  1  0.98345506  0.17887850  0.90897305  1
  O  O40  1  0.18799557  0.00049195  0.91061028  1
  O  O41  1  0.81081036  0.81577778  0.91056533  1
  O  O42  1  0.96338946  0.15785450  0.58056040  1
  O  O43  1  0.19998074  0.03974043  0.58037840  1
  O  O44  1  0.84073587  0.80839085  0.58157453  1
  O  O45  1  0.95595365  0.79807549  0.07845441  1
  O  O46  1  0.84175952  0.03783308  0.07862872  1
  O  O47  1  0.19714193  0.16142611  0.07760596  1
  O  O48  1  0.66664068  0.13226861  0.74905946  1
  O  O49  1  0.48780731  0.33417580  0.75123861  1
  O  O50  1  0.85656215  0.50672819  0.74973792  1
  O  O51  1  0.68745988  0.53954275  0.24915324  1
  O  O52  1  0.86162705  0.32790742  0.24824984  1
  O  O53  1  0.48924337  0.16263219  0.25178470  1
  O  O54  1  0.63317033  0.48648148  0.92068837  1
  O  O55  1  0.85102559  0.37143111  0.92086966  1
  O  O56  1  0.51526068  0.14891878  0.92019765  1
  O  O57  1  0.64844010  0.15942071  0.42713084  1
  O  O58  1  0.50799226  0.34860537  0.42613564  1
  O  O59  1  0.83815388  0.48772107  0.42644357  1
  O  O60  1  0.34712125  0.49164158  0.07919616  1
  O  O61  1  0.14004075  0.65026878  0.07922581  1
  O  O62  1  0.50910882  0.85756551  0.07914819  1
  O  O63  1  0.34755573  0.85621477  0.57988667  1
  O  O64  1  0.50878450  0.65525215  0.57967796  1
  O  O65  1  0.14377817  0.49102532  0.57944580  1
  O  O66  1  0.31970183  0.82707006  0.24991173  1
  O  O67  1  0.52968677  0.67948418  0.25006473  1
  O  O68  1  0.15850551  0.46253453  0.25033394  1
  O  O69  1  0.32479546  0.50121505  0.76176339  1
  O  O70  1  0.18299310  0.68847248  0.76227077  1
  O  O71  1  0.52594581  0.83527945  0.75561492  1
loop_
_geom_bond_atom_site_label_1
_geom_bond_atom_site_label_2
_geom_bond_distance
_geom_bond_site_symmetry_2
Na0 O53 2.385818 1_565
Na0 O66 2.425590 1_555
Na0 O31 2.567616 1_555
Na0 O67 2.691407 1_555
Na0 O16 2.740852 1_565
Na0 O52 2.811974 1_565
Na1 O32 2.479218 1_555
Na1 O53 2.542663 1_555
Na1 O51 2.650532 1_555
Na1 O68 2.684839 1_555
Na1 O67 2.716144 1_555
Na1 O17 2.853151 1_555
Na1 O0 2.964807 1_555
Na2 O66 2.485447 1_555
Na2 O15 2.613738 1_455
Na2 O52 2.630424 1_455
Na2 O30 2.683948 1_555
Na2 O68 2.692720 1_555
Na2 O51 2.752613 1_455
Na3 O49 2.393986 1_555
Na3 O14 2.466098 1_555
Na3 O69 2.629063 1_555
Na3 O71 2.690606 1_555
Na3 O50 2.785865 1_555
Na4 O12 2.311072 1_455
Na4 O50 2.428726 1_455
Na4 O69 2.660359 1_555
Na4 O7 2.688054 1_555
Na4 O70 2.707750 1_555
Na4 O48 2.897199 1_455
Na5 O13 2.378139 1_555
Na5 O70 2.632988 1_545
Na5 O48 2.633821 1_555
Na5 O8 2.694611 1_545
Na5 O49 2.724531 1_555
Na5 O71 2.859179 1_545
Na6 O65 2.465526 1_555
Na6 O43 2.541390 1_555
Na6 O64 2.594196 1_555
Na6 O28 2.649999 1_555
Na6 O42 2.748344 1_455
Na6 O7 2.888328 1_555
Na7 O63 2.494127 1_555
Na7 O44 2.561096 1_455
Na7 O65 2.607989 1_555
Na7 O29 2.644735 1_555
Na7 O43 2.758605 1_565
Na7 O8 2.874770 1_555
Na8 O64 2.479940 1_555
Na8 O27 2.483762 1_555
Na8 O42 2.500199 1_565
Na8 O63 2.651699 1_555
Na8 O44 2.678464 1_555
Na9 O61 2.498193 1_555
Na9 O26 2.501741 1_554
Na9 O62 2.558471 1_555
Na9 O47 2.577565 1_565
Na9 O11 2.765709 1_555
Na9 O45 2.828270 1_455
Na10 O24 2.351786 1_554
Na10 O62 2.481499 1_555
Na10 O45 2.505805 1_555
Na10 O60 2.589535 1_555
Na10 O46 2.751980 1_565
Na10 O9 2.989465 1_555
Na11 O25 2.371204 1_554
Na11 O60 2.486948 1_555
Na11 O46 2.521220 1_455
Na11 O61 2.596006 1_555
Na11 O47 2.723094 1_555
Na11 O10 2.983220 1_555
Na12 O41 2.423707 1_555
Na12 O55 2.516779 1_555
Na12 O4 2.528378 1_555
Na12 O40 2.713899 1_665
Na12 O54 2.744245 1_555
Na13 O39 2.357868 1_555
Na13 O56 2.562284 1_555
Na13 O41 2.639478 1_545
Na13 O20 2.789092 1_556
Na13 O5 2.806836 1_555
Na13 O55 2.880028 1_555
Na13 O24 2.992385 1_545
Na13 O34 3.052788 1_545
Na14 O40 2.418270 1_555
Na14 O3 2.495931 1_555
Na14 O54 2.549088 1_555
Na14 O56 2.770875 1_555
Na14 O39 2.844756 1_455
Na15 O37 2.385827 1_555
Na15 O59 2.627158 1_555
Na15 O57 2.707076 1_555
Na15 O23 2.724864 1_555
Na15 O38 2.805900 1_655
Na15 O28 2.876587 1_655
Na16 O38 2.444382 1_555
Na16 O57 2.596825 1_555
Na16 O58 2.643193 1_555
Na16 O0 2.844108 1_555
Na16 O21 2.874527 1_555
Na16 O29 2.932080 1_545
Na16 O36 2.945722 1_445
Na16 O31 2.978623 1_545
Na17 O36 2.382383 1_555
Na17 O58 2.642532 1_555
Na17 O22 2.702636 1_555
Na17 O59 2.716553 1_555
Na17 O27 2.805938 1_555
Na17 O37 2.898315 1_565
Na18 O42 2.464220 1_555
Na18 O44 2.492536 1_545
Na18 O43 2.502425 1_655
Na18 O38 2.645841 1_655
Na18 O37 2.688810 1_555
Na18 O36 2.702141 1_545
Na19 O46 2.507897 1_566
Na19 O47 2.509193 1_666
Na19 O45 2.525919 1_556
Na19 O41 2.650945 1_555
Na19 O40 2.684627 1_665
Na19 O39 2.702892 1_565
Na20 O49 2.472231 1_555
Na20 O54 2.498423 1_555
Na20 O50 2.525354 1_555
Na20 O55 2.594752 1_555
Na20 O56 2.637353 1_555
Na20 O48 2.801529 1_555
Na21 O57 2.414188 1_555
Na21 O58 2.417834 1_555
Na21 O59 2.555766 1_555
Na21 O53 2.556498 1_555
Na21 O51 2.917126 1_555
Na21 O52 2.939594 1_555
Na22 O62 2.458458 1_555
Na22 O61 2.463068 1_555
Na22 O66 2.538350 1_555
Na22 O60 2.603515 1_555
Na22 O67 2.818012 1_555
Na22 O68 2.843373 1_555
Na23 O65 2.404025 1_555
Na23 O63 2.438234 1_555
Na23 O64 2.440127 1_555
Na23 O69 2.883349 1_555
Na23 O71 2.898188 1_555
Na23 O70 2.899518 1_555
Nb0 O18 1.943521 1_556
Nb0 O19 1.948936 1_556
Nb0 O20 1.957643 1_556
Nb0 O56 2.117061 1_555
Nb0 O55 2.130308 1_555
Nb0 O54 2.133365 1_555
Nb1 O23 1.959824 1_555
Nb1 O21 1.960522 1_555
Nb1 O22 1.970879 1_555
Nb1 O59 2.050355 1_555
Nb1 O57 2.057961 1_555
Nb1 O58 2.072313 1_555
Nb2 O33 1.904146 1_555
Nb2 O35 1.997163 1_555
Nb2 O34 2.000948 1_555
Nb2 O70 2.003797 1_555
Nb2 O69 2.010100 1_555
Nb2 O71 2.383233 1_555
O0 Si0 1.631626 1_545
O0 Y0 2.156649 1_555
O1 S0 1.479016 1_555
O1 Y0 2.343463 1_665
O2 S1 1.479690 1_655
O2 Y0 2.350563 1_655
O3 Si1 1.618783 1_555
O3 Y1 2.162759 1_545
O4 Si2 1.621237 1_655
O4 Y1 2.162508 1_655
O5 S2 1.480993 1_545
O5 Y1 2.338610 1_645
O6 S2 1.482372 1_555
O6 Y2 2.481611 1_665
O7 Si1 1.641585 1_555
O7 Y2 2.253801 1_555
O8 Si2 1.643185 1_555
O8 Y2 2.254693 1_565
O9 S0 1.484849 1_555
O9 Y3 2.406251 1_655
O10 S1 1.483141 1_555
O10 Y3 2.400101 1_545
O11 Si0 1.647940 1_555
O11 Y3 2.168038 1_555
O12 Si3 1.617475 1_555
O12 Y4 2.172311 1_555
O13 Si4 1.619122 1_555
O13 Y4 2.174157 1_555
O14 Si5 1.621065 1_555
O14 Y4 2.126005 1_555
O15 Si6 1.619842 1_555
O15 Y5 2.173829 1_555
O16 Si7 1.618890 1_555
O16 Y5 2.110989 1_555
O17 Si8 1.615277 1_555
O17 Y5 2.111062 1_555
O18 Si8 1.717997 1_555
O19 Si6 1.713616 1_555
O20 Si7 1.719508 1_555
O21 Si4 1.692584 1_555
O22 Si5 1.699826 1_555
O23 Si3 1.696294 1_555
O24 Si9 1.604462 1_555
O24 Y6 2.189850 1_556
O25 Si10 1.600170 1_555
O25 Y6 2.205764 1_556
O26 Si11 1.603195 1_555
O26 Y6 2.178459 1_556
O27 Si12 1.621542 1_555
O27 Y7 2.207636 1_555
O28 Si13 1.617564 1_555
O28 Y7 2.177201 1_555
O29 Si14 1.620203 1_555
O29 Y7 2.194481 1_555
O30 Si14 1.647223 1_555
O30 Y8 2.171188 1_555
O31 Si12 1.647152 1_555
O31 Y8 2.168400 1_555
O32 Si13 1.649435 1_555
O32 Y8 2.247622 1_555
O33 Si10 1.727918 1_555
O34 Si11 1.705508 1_555
O35 Si9 1.701561 1_555
O36 Si14 1.634203 1_655
O36 Y0 2.162475 1_665
O37 Si12 1.627184 1_545
O37 Y0 2.227558 1_655
O38 Si13 1.634863 1_555
O38 Y0 2.163517 1_555
O39 Si10 1.614446 1_655
O39 Y1 2.267929 1_645
O40 Si11 1.626125 1_545
O40 Y1 2.202381 1_545
O41 Si9 1.621298 1_555
O41 Y1 2.267182 1_655
O42 Si3 1.634118 1_555
O42 Y2 2.301090 1_655
O43 Si4 1.638898 1_555
O43 Y2 2.207142 1_555
O44 Si5 1.632690 1_555
O44 Y2 2.295021 1_665
O45 Si6 1.641557 1_555
O45 Y3 2.203463 1_655
O46 Si7 1.633235 1_555
O46 Y3 2.302638 1_645
O47 Si8 1.637596 1_555
O47 Y3 2.209760 1_545
O48 S2 1.478986 1_545
O48 Y4 2.485243 1_555
O49 Si1 1.637527 1_555
O49 Y4 2.306894 1_555
O50 Si2 1.633727 1_655
O50 Y4 2.284494 1_555
O51 S0 1.491210 1_555
O51 Y5 2.452944 1_555
O52 S1 1.488190 1_655
O52 Y5 2.448472 1_555
O53 Si0 1.664823 1_545
O53 Y5 2.278833 1_555
O54 Si9 1.669658 1_555
O55 Si10 1.655108 1_655
O56 Si11 1.668616 1_545
O57 Si12 1.665362 1_545
O58 Si13 1.666736 1_555
O59 Si14 1.663023 1_655
O60 Si8 1.616518 1_555
O60 Y6 2.261574 1_555
O61 Si6 1.622420 1_455
O61 Y6 2.277389 1_555
O62 Si7 1.623700 1_565
O62 Y6 2.278718 1_555
O63 Si4 1.622976 1_565
O63 Y7 2.265365 1_555
O64 Si5 1.625478 1_555
O64 Y7 2.282471 1_555
O65 Si3 1.629575 1_455
O65 Y7 2.296169 1_555
O66 Si0 1.663706 1_555
O66 Y8 2.275771 1_555
O67 S0 1.487869 1_555
O67 Y8 2.514240 1_555
O68 S1 1.490561 1_555
O68 Y8 2.486887 1_555
O69 Si1 1.703788 1_555
O70 Si2 1.704449 1_555
O71 S2 1.500092 1_555
