# generated using pymatgen
data_LiGaCl4
_symmetry_space_group_name_H-M   'P 1'
_cell_length_a   6.55228905
_cell_length_b   7.00195027
_cell_length_c   12.85797412
_cell_angle_alpha   87.13979660
_cell_angle_beta   90.00000000
_cell_angle_gamma   90.00000000
_symmetry_Int_Tables_number   1
_chemical_formula_structural   LiGaCl4
_chemical_formula_sum   'Li4 Ga4 Cl16'
_cell_volume   589.17357511
_cell_formula_units_Z   4
loop_
 _symmetry_equiv_pos_site_id
 _symmetry_equiv_pos_as_xyz
  1  'x, y, z'
loop_
 _atom_site_type_symbol
 _atom_site_label
 _atom_site_symmetry_multiplicity
 _atom_site_fract_x
 _atom_site_fract_y
 _atom_site_fract_z
 _atom_site_occupancy
  Li  Li0  1  0.52074561  0.85076025  0.86756675  1
  Li  Li1  1  0.02074561  0.14923975  0.63243325  1
  Li  Li2  1  0.47925439  0.14923975  0.13243325  1
  Li  Li3  1  0.97925439  0.85076025  0.36756675  1
  Ga  Ga0  1  0.17334257  0.29864709  0.39800547  1
  Ga  Ga1  1  0.67334257  0.70135291  0.10199453  1
  Ga  Ga2  1  0.82665743  0.70135291  0.60199453  1
  Ga  Ga3  1  0.32665743  0.29864709  0.89800547  1
  Cl  Cl0  1  0.18256601  0.31103970  0.04992054  1
  Cl  Cl1  1  0.68256601  0.68896030  0.45007946  1
  Cl  Cl2  1  0.81743399  0.68896030  0.95007946  1
  Cl  Cl3  1  0.31743399  0.31103970  0.54992054  1
  Cl  Cl4  1  0.63502969  0.18550706  0.93260141  1
  Cl  Cl5  1  0.13502969  0.81449294  0.56739859  1
  Cl  Cl6  1  0.36497031  0.81449294  0.06739859  1
  Cl  Cl7  1  0.86497031  0.18550706  0.43260141  1
  Cl  Cl8  1  0.18671082  0.06967736  0.80973918  1
  Cl  Cl9  1  0.68671082  0.93032264  0.69026082  1
  Cl  Cl10  1  0.81328918  0.93032264  0.19026082  1
  Cl  Cl11  1  0.31328918  0.06967736  0.30973918  1
  Cl  Cl12  1  0.32436974  0.56870358  0.80814919  1
  Cl  Cl13  1  0.82436974  0.43129642  0.69185081  1
  Cl  Cl14  1  0.67563026  0.43129642  0.19185081  1
  Cl  Cl15  1  0.17563026  0.56870358  0.30814919  1
loop_
_geom_bond_atom_site_label_1
_geom_bond_atom_site_label_2
_geom_bond_distance
_geom_bond_site_symmetry_2
Cl0 Ga3 2.175151 1_554
Cl0 Li2 2.463380 1_555
Cl1 Ga2 2.175151 1_555
Cl1 Li3 2.463380 1_555
Cl2 Ga1 2.175151 1_556
Cl2 Li0 2.463380 1_555
Cl3 Ga0 2.175151 1_555
Cl3 Li1 2.463380 1_555
Cl4 Ga3 2.207462 1_555
Cl4 Li0 2.636165 1_545
Cl4 Li2 2.764625 1_556
Cl5 Ga2 2.207462 1_455
Cl5 Li1 2.636165 1_565
Cl5 Li3 2.764625 1_455
Cl6 Ga1 2.207462 1_555
Cl6 Li2 2.636165 1_565
Cl6 Li0 2.764625 1_554
Cl7 Ga0 2.207462 1_655
Cl7 Li3 2.636165 1_545
Cl7 Li1 2.764625 1_655
Cl8 Ga3 2.209263 1_555
Cl8 Li1 2.561956 1_555
Cl8 Li0 2.753018 1_545
Cl9 Ga2 2.209263 1_555
Cl9 Li0 2.561956 1_555
Cl9 Li1 2.753018 1_665
Cl10 Ga1 2.209263 1_555
Cl10 Li3 2.561956 1_555
Cl10 Li2 2.753018 1_565
Cl11 Ga0 2.209263 1_555
Cl11 Li2 2.561956 1_555
Cl11 Li3 2.753018 1_445
Cl12 Ga3 2.166255 1_555
Cl12 Li0 2.508047 1_555
Cl13 Ga2 2.166255 1_555
Cl13 Li1 2.508047 1_655
Cl14 Ga1 2.166255 1_555
Cl14 Li2 2.508047 1_555
Cl15 Ga0 2.166255 1_555
Cl15 Li3 2.508047 1_455
