# generated using pymatgen
data_Na3LaTiSi(PO6)2
_symmetry_space_group_name_H-M   'P 1'
_cell_length_a   16.23148091
_cell_length_b   9.40687888
_cell_length_c   9.44371915
_cell_angle_alpha   90.00000000
_cell_angle_beta   126.79415518
_cell_angle_gamma   90.00000000
_symmetry_Int_Tables_number   1
_chemical_formula_structural   Na3LaTiSi(PO6)2
_chemical_formula_sum   'Na12 La4 Ti4 Si4 P8 O48'
_cell_volume   1154.69355902
_cell_formula_units_Z   4
loop_
 _symmetry_equiv_pos_site_id
 _symmetry_equiv_pos_as_xyz
  1  'x, y, z'
loop_
 _atom_site_type_symbol
 _atom_site_label
 _atom_site_symmetry_multiplicity
 _atom_site_fract_x
 _atom_site_fract_y
 _atom_site_fract_z
 _atom_site_occupancy
  Na  Na0  1  0.25617243  0.72663115  0.01362481  1
  Na  Na1  1  0.75617243  0.77336885  0.51362481  1
  Na  Na2  1  0.75617243  0.22663115  0.01362481  1
  Na  Na3  1  0.25617243  0.27336885  0.51362481  1
  Na  Na4  1  0.50164644  0.08881704  0.73961816  1
  Na  Na5  1  0.50164644  0.91118296  0.23961816  1
  Na  Na6  1  0.00164644  0.58881704  0.73961816  1
  Na  Na7  1  0.00164644  0.41118296  0.23961816  1
  Na  Na8  1  0.19391300  0.92618070  0.31260661  1
  Na  Na9  1  0.19391300  0.07381930  0.81260661  1
  Na  Na10  1  0.69391300  0.42618070  0.31260661  1
  Na  Na11  1  0.69391300  0.57381930  0.81260661  1
  La  La0  1  0.10862036  0.74260627  0.57028042  1
  La  La1  1  0.10862036  0.25739373  0.07028042  1
  La  La2  1  0.60862036  0.24260627  0.57028042  1
  La  La3  1  0.60862036  0.75739373  0.07028042  1
  Ti  Ti0  1  0.90012202  0.76907091  0.92855450  1
  Ti  Ti1  1  0.90012202  0.23092909  0.42855450  1
  Ti  Ti2  1  0.40012202  0.26907091  0.92855450  1
  Ti  Ti3  1  0.40012202  0.73092909  0.42855450  1
  Si  Si0  1  0.65001805  0.87410880  0.74217284  1
  Si  Si1  1  0.65001805  0.12589120  0.24217284  1
  Si  Si2  1  0.15001805  0.37410880  0.74217284  1
  Si  Si3  1  0.15001805  0.62589120  0.24217284  1
  P  P0  1  0.98759605  0.96210205  0.75082029  1
  P  P1  1  0.98759605  0.03789795  0.25082029  1
  P  P2  1  0.48759605  0.46210205  0.75082029  1
  P  P3  1  0.48759605  0.53789795  0.25082029  1
  P  P4  1  0.35554931  0.92813160  0.74977557  1
  P  P5  1  0.35554931  0.07186840  0.24977557  1
  P  P6  1  0.85554931  0.42813160  0.74977557  1
  P  P7  1  0.85554931  0.57186840  0.24977557  1
  O  O0  1  0.15573430  0.54620681  0.75634081  1
  O  O1  1  0.85596391  0.59726158  0.74434897  1
  O  O2  1  0.85596391  0.40273842  0.24434897  1
  O  O3  1  0.15573430  0.45379319  0.25634081  1
  O  O4  1  0.65573430  0.04620681  0.75634081  1
  O  O5  1  0.35596391  0.09726158  0.74434897  1
  O  O6  1  0.35596391  0.90273842  0.24434897  1
  O  O7  1  0.65573430  0.95379319  0.25634081  1
  O  O8  1  0.43090563  0.56877341  0.58855704  1
  O  O9  1  0.55548860  0.53946324  0.92531359  1
  O  O10  1  0.55548860  0.46053676  0.42531359  1
  O  O11  1  0.43090563  0.43122659  0.08855704  1
  O  O12  1  0.93090563  0.06877341  0.58855704  1
  O  O13  1  0.05548860  0.03946324  0.92531359  1
  O  O14  1  0.05548860  0.96053676  0.42531359  1
  O  O15  1  0.93090563  0.93122659  0.08855704  1
  O  O16  1  0.26299672  0.88208866  0.74790536  1
  O  O17  1  0.74930584  0.80046654  0.75989495  1
  O  O18  1  0.74930584  0.19953346  0.25989495  1
  O  O19  1  0.26299672  0.11791134  0.24790536  1
  O  O20  1  0.76299672  0.38208866  0.74790536  1
  O  O21  1  0.24930584  0.30046654  0.75989495  1
  O  O22  1  0.24930584  0.69953346  0.25989495  1
  O  O23  1  0.76299672  0.61791134  0.24790536  1
  O  O24  1  0.35414288  0.87432687  0.59196276  1
  O  O25  1  0.65310344  0.80858259  0.90143775  1
  O  O26  1  0.65310344  0.19141741  0.40143775  1
  O  O27  1  0.35414288  0.12567313  0.09196276  1
  O  O28  1  0.85414288  0.37432687  0.59196276  1
  O  O29  1  0.15310344  0.30858259  0.90143775  1
  O  O30  1  0.15310344  0.69141741  0.40143775  1
  O  O31  1  0.85414288  0.62567313  0.09196276  1
  O  O32  1  0.45408440  0.88213679  0.92859784  1
  O  O33  1  0.53518798  0.80945462  0.55825285  1
  O  O34  1  0.53518798  0.19054538  0.05825285  1
  O  O35  1  0.45408440  0.11786321  0.42859784  1
  O  O36  1  0.95408440  0.38213679  0.92859784  1
  O  O37  1  0.03518798  0.30945462  0.55825285  1
  O  O38  1  0.03518798  0.69054538  0.05825285  1
  O  O39  1  0.95408440  0.61786321  0.42859784  1
  O  O40  1  0.05446048  0.85445144  0.73636546  1
  O  O41  1  0.90498816  0.87526848  0.75356941  1
  O  O42  1  0.90498816  0.12473152  0.25356941  1
  O  O43  1  0.05446048  0.14554856  0.23636546  1
  O  O44  1  0.55446048  0.35445144  0.73636546  1
  O  O45  1  0.40498816  0.37526848  0.75356941  1
  O  O46  1  0.40498816  0.62473152  0.25356941  1
  O  O47  1  0.55446048  0.64554856  0.23636546  1
loop_
_geom_bond_atom_site_label_1
_geom_bond_atom_site_label_2
_geom_bond_distance
_geom_bond_site_symmetry_2
Na0 O46 2.309011 1_555
Na0 O22 2.407657 1_555
Na0 O6 2.426504 1_555
Na0 O0 2.587849 1_554
Na0 O40 2.958385 1_554
Na0 O16 2.963232 1_554
Na1 O41 2.309011 1_555
Na1 O17 2.407657 1_555
Na1 O1 2.426504 1_555
Na1 O7 2.587849 1_555
Na1 O47 2.958385 1_555
Na1 O23 2.963232 1_555
Na2 O42 2.309011 1_555
Na2 O18 2.407657 1_555
Na2 O2 2.426504 1_555
Na2 O4 2.587849 1_554
Na2 O44 2.958385 1_554
Na2 O20 2.963232 1_554
Na3 O45 2.309011 1_555
Na3 O21 2.407657 1_555
Na3 O5 2.426504 1_555
Na3 O3 2.587849 1_555
Na3 O43 2.958385 1_555
Na3 O19 2.963232 1_555
Na4 O5 2.392988 1_555
Na4 O4 2.442916 1_555
Na4 O35 2.565443 1_555
Na4 O44 2.647890 1_555
Na4 O24 2.783611 1_545
Na4 O34 2.881734 1_556
Na5 O6 2.392988 1_555
Na5 O7 2.442916 1_555
Na5 O32 2.565443 1_554
Na5 O47 2.647890 1_555
Na5 O27 2.783611 1_565
Na5 O33 2.881734 1_555
Na6 O1 2.392988 1_455
Na6 O0 2.442916 1_555
Na6 O39 2.565443 1_455
Na6 O40 2.647890 1_555
Na6 O28 2.783611 1_455
Na6 O38 2.881734 1_556
Na7 O2 2.392988 1_455
Na7 O3 2.442916 1_555
Na7 O36 2.565443 1_454
Na7 O43 2.647890 1_555
Na7 O31 2.783611 1_455
Na7 O37 2.881734 1_555
Na8 O19 2.388387 1_565
Na8 O24 2.396424 1_555
Na8 O22 2.477486 1_555
Na8 O30 2.585566 1_555
Na8 O43 2.819220 1_565
Na9 O16 2.388387 1_545
Na9 O27 2.396424 1_556
Na9 O21 2.477486 1_555
Na9 O29 2.585566 1_555
Na9 O40 2.819220 1_545
Na10 O23 2.388387 1_555
Na10 O28 2.396424 1_555
Na10 O18 2.477486 1_555
Na10 O26 2.585566 1_555
Na10 O47 2.819220 1_555
Na11 O20 2.388387 1_555
Na11 O31 2.396424 1_556
Na11 O17 2.477486 1_555
Na11 O25 2.585566 1_555
Na11 O44 2.819220 1_555
La0 O30 2.162110 1_555
La0 O14 2.325161 1_555
La0 O39 2.332105 1_455
La0 O0 2.340062 1_555
La0 O16 2.403997 1_555
La0 O40 2.447753 1_555
La1 O29 2.162110 1_554
La1 O13 2.325161 1_554
La1 O36 2.332105 1_454
La1 O3 2.340062 1_555
La1 O19 2.403997 1_555
La1 O43 2.447753 1_555
La2 O26 2.162110 1_555
La2 O10 2.325161 1_555
La2 O35 2.332105 1_555
La2 O4 2.340062 1_555
La2 O20 2.403997 1_555
La2 O44 2.447753 1_555
La3 O25 2.162110 1_554
La3 O9 2.325161 1_554
La3 O32 2.332105 1_554
La3 O7 2.340062 1_555
La3 O23 2.403997 1_555
La3 O47 2.447753 1_555
O0 Si2 1.622496 1_555
O1 P6 1.591954 1_555
O1 Ti0 2.158327 1_555
O2 P7 1.591954 1_555
O2 Ti1 2.158327 1_555
O3 Si3 1.622496 1_555
O4 Si0 1.622496 1_545
O5 P4 1.591954 1_545
O5 Ti2 2.158327 1_555
O6 P5 1.591954 1_565
O6 Ti3 2.158327 1_555
O7 Si1 1.622496 1_565
O8 P2 1.585151 1_555
O8 Ti3 1.988773 1_555
O9 P2 1.511343 1_555
O10 P3 1.511343 1_555
O11 P3 1.585151 1_555
O11 Ti2 1.988773 1_554
O12 P0 1.585151 1_545
O12 Ti1 1.988773 1_555
O13 P0 1.511343 1_445
O14 P1 1.511343 1_465
O15 P1 1.585151 1_565
O15 Ti0 1.988773 1_554
O16 P4 1.553359 1_555
O17 Si0 1.667941 1_555
O17 Ti0 1.986475 1_555
O18 Si1 1.667941 1_555
O18 Ti1 1.986475 1_555
O19 P5 1.553359 1_555
O20 P6 1.553359 1_555
O21 Si2 1.667941 1_555
O21 Ti2 1.986475 1_555
O22 Si3 1.667941 1_555
O22 Ti3 1.986475 1_555
O23 P7 1.553359 1_555
O24 P4 1.561106 1_555
O24 Ti3 2.477414 1_555
O25 Si0 1.598249 1_555
O26 Si1 1.598249 1_555
O27 P5 1.561106 1_555
O27 Ti2 2.477414 1_554
O28 P6 1.561106 1_555
O28 Ti1 2.477414 1_555
O29 Si2 1.598249 1_555
O30 Si3 1.598249 1_555
O31 P7 1.561106 1_555
O31 Ti0 2.477414 1_554
O32 P4 1.536766 1_555
O33 Si0 1.727058 1_555
O33 Ti3 1.906710 1_555
O34 Si1 1.727058 1_555
O34 Ti2 1.906710 1_554
O35 P5 1.536766 1_555
O36 P6 1.536766 1_555
O37 Si2 1.727058 1_555
O37 Ti1 1.906710 1_455
O38 Si3 1.727058 1_555
O38 Ti0 1.906710 1_454
O39 P7 1.536766 1_555
O40 P0 1.549023 1_455
O41 P0 1.583497 1_555
O41 Ti0 1.972652 1_555
O42 P1 1.583497 1_555
O42 Ti1 1.972652 1_555
O43 P1 1.549023 1_455
O44 P2 1.549023 1_555
O45 P2 1.583497 1_555
O45 Ti2 1.972652 1_555
O46 P3 1.583497 1_555
O46 Ti3 1.972652 1_555
O47 P3 1.549023 1_555
