# generated using pymatgen
data_Hg3TeCl4
_symmetry_space_group_name_H-M   'P 1'
_cell_length_a   11.75653193
_cell_length_b   12.38052312
_cell_length_c   12.85802962
_cell_angle_alpha   90.00000000
_cell_angle_beta   90.00000000
_cell_angle_gamma   90.00000000
_symmetry_Int_Tables_number   1
_chemical_formula_structural   Hg3TeCl4
_chemical_formula_sum   'Hg24 Te8 Cl32'
_cell_volume   1871.51212488
_cell_formula_units_Z   8
loop_
 _symmetry_equiv_pos_site_id
 _symmetry_equiv_pos_as_xyz
  1  'x, y, z'
loop_
 _atom_site_type_symbol
 _atom_site_label
 _atom_site_symmetry_multiplicity
 _atom_site_fract_x
 _atom_site_fract_y
 _atom_site_fract_z
 _atom_site_occupancy
  Hg  Hg0  1  0.59045503  0.09383311  0.17969039  1
  Hg  Hg1  1  0.31469105  0.31879305  0.22522249  1
  Hg  Hg2  1  0.18530895  0.68120695  0.72522249  1
  Hg  Hg3  1  0.68530895  0.81879305  0.27477751  1
  Hg  Hg4  1  0.18530895  0.81879305  0.22522249  1
  Hg  Hg5  1  0.68530895  0.68120695  0.77477751  1
  Hg  Hg6  1  0.81469105  0.31879305  0.27477751  1
  Hg  Hg7  1  0.31469105  0.18120695  0.72522249  1
  Hg  Hg8  1  0.81469105  0.18120695  0.77477751  1
  Hg  Hg9  1  0.09045503  0.40616689  0.82030961  1
  Hg  Hg10  1  0.40954497  0.59383311  0.32030961  1
  Hg  Hg11  1  0.90954497  0.90616689  0.67969039  1
  Hg  Hg12  1  0.40954497  0.90616689  0.82030961  1
  Hg  Hg13  1  0.90954497  0.59383311  0.17969039  1
  Hg  Hg14  1  0.59045503  0.40616689  0.67969039  1
  Hg  Hg15  1  0.09045503  0.09383311  0.32030961  1
  Hg  Hg16  1  0.21620176  0.08369297  0.01147808  1
  Hg  Hg17  1  0.71620176  0.41630703  0.98852192  1
  Hg  Hg18  1  0.78379824  0.58369297  0.48852192  1
  Hg  Hg19  1  0.28379824  0.91630703  0.51147808  1
  Hg  Hg20  1  0.78379824  0.91630703  0.98852192  1
  Hg  Hg21  1  0.28379824  0.58369297  0.01147808  1
  Hg  Hg22  1  0.21620176  0.41630703  0.51147808  1
  Hg  Hg23  1  0.71620176  0.08369297  0.48852192  1
  Te  Te0  1  0.40681737  0.10491738  0.90058689  1
  Te  Te1  1  0.90681737  0.39508262  0.09941311  1
  Te  Te2  1  0.59318263  0.60491738  0.59941311  1
  Te  Te3  1  0.09318263  0.89508262  0.40058689  1
  Te  Te4  1  0.59318263  0.89508262  0.09941311  1
  Te  Te5  1  0.09318263  0.60491738  0.90058689  1
  Te  Te6  1  0.40681737  0.39508262  0.40058689  1
  Te  Te7  1  0.90681737  0.10491738  0.59941311  1
  Cl  Cl0  1  0.32172161  0.10007221  0.22059728  1
  Cl  Cl1  1  0.82172161  0.39992779  0.77940272  1
  Cl  Cl2  1  0.67827839  0.60007221  0.27940272  1
  Cl  Cl3  1  0.17827839  0.89992779  0.72059728  1
  Cl  Cl4  1  0.67827839  0.89992779  0.77940272  1
  Cl  Cl5  1  0.17827839  0.60007221  0.22059728  1
  Cl  Cl6  1  0.32172161  0.39992779  0.72059728  1
  Cl  Cl7  1  0.82172161  0.10007221  0.27940272  1
  Cl  Cl8  1  0.04032323  0.08190119  0.10442679  1
  Cl  Cl9  1  0.54032323  0.41809881  0.89557321  1
  Cl  Cl10  1  0.95967677  0.58190119  0.39557321  1
  Cl  Cl11  1  0.45967677  0.91809881  0.60442679  1
  Cl  Cl12  1  0.95967677  0.91809881  0.89557321  1
  Cl  Cl13  1  0.45967677  0.58190119  0.10442679  1
  Cl  Cl14  1  0.04032323  0.41809881  0.60442679  1
  Cl  Cl15  1  0.58054601  0.21034137  0.67669110  1
  Cl  Cl16  1  0.74696301  0.16178062  0.95170385  1
  Cl  Cl17  1  0.24696301  0.33821938  0.04829615  1
  Cl  Cl18  1  0.25303699  0.66178062  0.54829615  1
  Cl  Cl19  1  0.75303699  0.83821938  0.45170385  1
  Cl  Cl20  1  0.25303699  0.83821938  0.04829615  1
  Cl  Cl21  1  0.75303699  0.66178062  0.95170385  1
  Cl  Cl22  1  0.74696301  0.33821938  0.45170385  1
  Cl  Cl23  1  0.24696301  0.16178062  0.54829615  1
  Cl  Cl24  1  0.08054601  0.21034137  0.82330890  1
  Cl  Cl25  1  0.58054601  0.28965863  0.17669110  1
  Cl  Cl26  1  0.91945399  0.71034137  0.67669110  1
  Cl  Cl27  1  0.41945399  0.78965863  0.32330890  1
  Cl  Cl28  1  0.91945399  0.78965863  0.17669110  1
  Cl  Cl29  1  0.41945399  0.71034137  0.82330890  1
  Cl  Cl30  1  0.08054601  0.28965863  0.32330890  1
  Cl  Cl31  1  0.54032323  0.08190119  0.39557321  1
loop_
_geom_bond_atom_site_label_1
_geom_bond_atom_site_label_2
_geom_bond_distance
_geom_bond_site_symmetry_2
Hg0 Te4 2.668559 1_545
Hg1 Te6 2.673849 1_555
Hg2 Te5 2.673849 1_555
Hg3 Te4 2.673849 1_555
Hg4 Te3 2.673849 1_555
Hg5 Te2 2.673849 1_555
Hg6 Te1 2.673849 1_555
Hg7 Te0 2.673849 1_555
Hg8 Te7 2.673849 1_555
Hg9 Te5 2.668559 1_555
Hg10 Te6 2.668559 1_555
Hg11 Te7 2.668559 1_565
Hg12 Te0 2.668559 1_565
Hg13 Te1 2.668559 1_555
Hg14 Te2 2.668559 1_555
Hg15 Te3 2.668559 1_545
Hg16 Te0 2.669093 1_554
Hg17 Te1 2.669093 1_556
Hg18 Te2 2.669093 1_555
Hg19 Te3 2.669093 1_555
Hg20 Te4 2.669093 1_556
Hg21 Te5 2.669093 1_554
Hg22 Te6 2.669093 1_555
Hg23 Te7 2.669093 1_555
Cl0 Hg1 2.709792 1_555
Cl0 Hg16 2.968173 1_555
Cl0 Hg15 3.007015 1_555
Cl1 Hg8 2.709792 1_555
Cl1 Hg17 2.968173 1_555
Cl1 Hg14 3.007015 1_555
Cl2 Hg3 2.709792 1_555
Cl2 Hg18 2.968173 1_555
Cl2 Hg13 3.007015 1_555
Cl3 Hg2 2.709792 1_555
Cl3 Hg19 2.968173 1_555
Cl3 Hg12 3.007015 1_555
Cl4 Hg5 2.709792 1_555
Cl4 Hg20 2.968173 1_555
Cl4 Hg11 3.007015 1_555
Cl5 Hg4 2.709792 1_555
Cl5 Hg21 2.968173 1_555
Cl5 Hg10 3.007015 1_555
Cl6 Hg7 2.709792 1_555
Cl6 Hg22 2.968173 1_555
Cl6 Hg9 3.007015 1_555
Cl7 Hg6 2.709792 1_555
Cl7 Hg23 2.968173 1_555
Cl7 Hg0 3.007015 1_555
Cl8 Hg16 2.388371 1_555
Cl8 Hg15 2.841550 1_555
Cl9 Hg17 2.388371 1_555
Cl9 Hg14 2.841550 1_555
Cl10 Hg18 2.388371 1_555
Cl10 Hg13 2.841550 1_555
Cl11 Hg19 2.388371 1_555
Cl11 Hg12 2.841550 1_555
Cl12 Hg20 2.388371 1_555
Cl12 Hg11 2.841550 1_555
Cl13 Hg21 2.388371 1_555
Cl13 Hg10 2.841550 1_555
Cl14 Hg22 2.388371 1_555
Cl14 Hg9 2.841550 1_555
Cl15 Hg14 2.427526 1_555
Cl15 Hg8 3.049306 1_555
Cl16 Hg8 2.422217 1_555
Cl17 Hg1 2.422217 1_555
Cl18 Hg2 2.422217 1_555
Cl19 Hg3 2.422217 1_555
Cl20 Hg4 2.422217 1_555
Cl21 Hg5 2.422217 1_555
Cl22 Hg6 2.422217 1_555
Cl23 Hg7 2.422217 1_555
Cl24 Hg9 2.427526 1_555
Cl24 Hg7 3.049306 1_555
Cl25 Hg0 2.427526 1_555
Cl25 Hg6 3.049306 1_555
Cl26 Hg11 2.427526 1_555
Cl26 Hg5 3.049306 1_555
Cl27 Hg10 2.427526 1_555
Cl27 Hg4 3.049306 1_555
Cl28 Hg13 2.427526 1_555
Cl28 Hg3 3.049306 1_555
Cl29 Hg12 2.427526 1_555
Cl29 Hg2 3.049306 1_555
Cl30 Hg15 2.427526 1_555
Cl30 Hg1 3.049306 1_555
Cl31 Hg23 2.388371 1_555
Cl31 Hg0 2.841550 1_555
