# generated using pymatgen
data_NaBeH3
_symmetry_space_group_name_H-M   'P 1'
_cell_length_a   3.34289200
_cell_length_b   3.34289200
_cell_length_c   3.34289200
_cell_angle_alpha   90.00000000
_cell_angle_beta   90.00000000
_cell_angle_gamma   90.00000000
_symmetry_Int_Tables_number   1
_chemical_formula_structural   NaBeH3
_chemical_formula_sum   'Na1 Be1 H3'
_cell_volume   37.35657381
_cell_formula_units_Z   1
loop_
 _symmetry_equiv_pos_site_id
 _symmetry_equiv_pos_as_xyz
  1  'x, y, z'
loop_
 _atom_site_type_symbol
 _atom_site_label
 _atom_site_symmetry_multiplicity
 _atom_site_fract_x
 _atom_site_fract_y
 _atom_site_fract_z
 _atom_site_occupancy
  Na  Na0  1  0.50000000  0.50000000  0.50000000  1
  Be  Be0  1  0.00000000  0.00000000  0.00000000  1
  H  H0  1  0.50000000  0.00000000  0.00000000  1
  H  H1  1  0.00000000  0.50000000  0.00000000  1
  H  H2  1  0.00000000  0.00000000  0.50000000  1
loop_
_geom_bond_atom_site_label_1
_geom_bond_atom_site_label_2
_geom_bond_distance
_geom_bond_site_symmetry_2
Be0 H2 1.671446 1_554
Be0 H0 1.671446 1_455
Be0 H0 1.671446 1_555
Be0 H1 1.671446 1_545
Be0 H1 1.671446 1_555
Be0 H2 1.671446 1_555
H0 Na0 2.363782 1_555
H0 Na0 2.363782 1_554
H0 Na0 2.363782 1_544
H0 Na0 2.363782 1_545
H1 Na0 2.363782 1_555
H1 Na0 2.363782 1_554
H1 Na0 2.363782 1_455
H1 Na0 2.363782 1_454
H2 Na0 2.363782 1_555
H2 Na0 2.363782 1_445
H2 Na0 2.363782 1_545
H2 Na0 2.363782 1_455
