# generated using pymatgen
data_Nb3InSi3(SO8)3
_symmetry_space_group_name_H-M   'P 1'
_cell_length_a   8.94755006
_cell_length_b   8.93384456
_cell_length_c   23.04367469
_cell_angle_alpha   89.61594453
_cell_angle_beta   89.63911219
_cell_angle_gamma   119.90735694
_symmetry_Int_Tables_number   1
_chemical_formula_structural   Nb3InSi3(SO8)3
_chemical_formula_sum   'Nb9 In3 Si9 S9 O72'
_cell_volume   1596.58832159
_cell_formula_units_Z   3
loop_
 _symmetry_equiv_pos_site_id
 _symmetry_equiv_pos_as_xyz
  1  'x, y, z'
loop_
 _atom_site_type_symbol
 _atom_site_label
 _atom_site_symmetry_multiplicity
 _atom_site_fract_x
 _atom_site_fract_y
 _atom_site_fract_z
 _atom_site_occupancy
  Nb  Nb0  1  0.00846438  0.98679465  0.85801187  1
  Nb  Nb1  1  0.01422860  0.01591870  0.64694162  1
  Nb  Nb2  1  0.99777810  0.99524519  0.13846510  1
  Nb  Nb3  1  0.68033469  0.33997234  0.97388447  1
  Nb  Nb4  1  0.66851293  0.32170046  0.47481115  1
  Nb  Nb5  1  0.34403979  0.68802666  0.02194983  1
  Nb  Nb6  1  0.33623933  0.65457480  0.52299367  1
  Nb  Nb7  1  0.34468231  0.66906371  0.31172850  1
  Nb  Nb8  1  0.34162231  0.67242266  0.80733736  1
  In  In0  1  0.00219690  0.00694364  0.35926573  1
  In  In1  1  0.67667676  0.34573730  0.69380242  1
  In  In2  1  0.67027426  0.32813308  0.18382526  1
  Si  Si0  1  0.28724189  0.28708211  0.75245888  1
  Si  Si1  1  0.00365416  0.71439543  0.74974426  1
  Si  Si2  1  0.94743329  0.33037530  0.58446095  1
  Si  Si3  1  0.95286392  0.61164200  0.08315626  1
  Si  Si4  1  0.66556043  0.05204241  0.08426070  1
  Si  Si5  1  0.61472152  0.66615149  0.91514651  1
  Si  Si6  1  0.34316407  0.95769612  0.91511949  1
  Si  Si7  1  0.61524885  0.94689042  0.41649514  1
  Si  Si8  1  0.34063690  0.38042187  0.41724867  1
  S  S0  1  0.28580279  0.99848973  0.25036953  1
  S  S1  1  0.71360421  0.71202660  0.24983540  1
  S  S2  1  0.00373320  0.29204858  0.25024874  1
  S  S3  1  0.71831500  0.99651782  0.75091723  1
  S  S4  1  0.37796316  0.04285138  0.58221618  1
  S  S5  1  0.67120360  0.62485985  0.58227113  1
  S  S6  1  0.37776494  0.33568690  0.08299100  1
  S  S7  1  0.05209881  0.38210127  0.91575613  1
  S  S8  1  0.04964498  0.66224423  0.41697894  1
  O  O0  1  0.20550938  0.01904751  0.30303495  1
  O  O1  1  0.81597078  0.78692022  0.30148261  1
  O  O2  1  0.97669432  0.18609473  0.30228150  1
  O  O3  1  0.17699603  0.16742844  0.80778329  1
  O  O4  1  0.98450194  0.81653415  0.80711502  1
  O  O5  1  0.81975433  0.01706112  0.80267637  1
  O  O6  1  0.79946068  0.97090107  0.69722670  1
  O  O7  1  0.16077763  0.19743374  0.69341056  1
  O  O8  1  0.02863232  0.84126128  0.69270764  1
  O  O9  1  0.79771866  0.82511612  0.19752513  1
  O  O10  1  0.03362988  0.21134037  0.19807024  1
  O  O11  1  0.17615950  0.97393507  0.19842072  1
  O  O12  1  0.86884426  0.36810167  0.64006435  1
  O  O13  1  0.48117307  0.11115387  0.63372237  1
  O  O14  1  0.62387103  0.51730294  0.63438117  1
  O  O15  1  0.88268974  0.51888095  0.14407320  1
  O  O16  1  0.61624901  0.10664973  0.14343594  1
  O  O17  1  0.47626885  0.37047343  0.13654969  1
  O  O18  1  0.45387370  0.29763961  0.03280234  1
  O  O19  1  0.82737102  0.52647321  0.02734921  1
  O  O20  1  0.69999784  0.17590875  0.02801762  1
  O  O21  1  0.46132766  0.15807347  0.52971602  1
  O  O22  1  0.69442510  0.54111605  0.53068401  1
  O  O23  1  0.82781496  0.30749899  0.52607651  1
  O  O24  1  0.51544458  0.68369561  0.97219794  1
  O  O25  1  0.15301394  0.45689121  0.96832045  1
  O  O26  1  0.30690645  0.83551121  0.97328921  1
  O  O27  1  0.50814432  0.83292578  0.47262469  1
  O  O28  1  0.31452377  0.48160451  0.47263612  1
  O  O29  1  0.15383093  0.68532854  0.46869617  1
  O  O30  1  0.12804335  0.63064892  0.36371186  1
  O  O31  1  0.48840488  0.85751780  0.35842559  1
  O  O32  1  0.36528884  0.50969237  0.35951350  1
  O  O33  1  0.12788220  0.49133167  0.86379608  1
  O  O34  1  0.36783417  0.86041859  0.86015276  1
  O  O35  1  0.49388362  0.63529068  0.85898183  1
  O  O36  1  0.03043026  0.81275802  0.40937941  1
  O  O37  1  0.79478903  0.95909073  0.40857149  1
  O  O38  1  0.18032148  0.19627609  0.40964526  1
  O  O39  1  0.02222776  0.20638955  0.90823314  1
  O  O40  1  0.17105817  0.97713951  0.90816350  1
  O  O41  1  0.80192332  0.83885099  0.90486986  1
  O  O42  1  0.97083672  0.15928910  0.59296399  1
  O  O43  1  0.20473665  0.02918106  0.58826937  1
  O  O44  1  0.82147119  0.79752989  0.58929835  1
  O  O45  1  0.98254324  0.81425837  0.09568466  1
  O  O46  1  0.84095786  0.03044596  0.09680298  1
  O  O47  1  0.20121677  0.17371870  0.09388163  1
  O  O48  1  0.69097125  0.14260387  0.74452248  1
  O  O49  1  0.46151381  0.28997477  0.74059218  1
  O  O50  1  0.83708819  0.53252380  0.74841624  1
  O  O51  1  0.67657547  0.53570165  0.24143089  1
  O  O52  1  0.85585106  0.31790684  0.24475538  1
  O  O53  1  0.45799035  0.14914178  0.24339314  1
  O  O54  1  0.64067221  0.49966141  0.92964190  1
  O  O55  1  0.87616798  0.36760309  0.92290973  1
  O  O56  1  0.50810843  0.14602172  0.92979388  1
  O  O57  1  0.62854194  0.13769851  0.42681099  1
  O  O58  1  0.51975233  0.38100661  0.43112255  1
  O  O59  1  0.87606911  0.50432957  0.42453687  1
  O  O60  1  0.34200909  0.47646067  0.07197324  1
  O  O61  1  0.14155477  0.63743709  0.06803395  1
  O  O62  1  0.51088427  0.85459318  0.07065226  1
  O  O63  1  0.34853778  0.86745282  0.57002131  1
  O  O64  1  0.51536410  0.65003966  0.57182715  1
  O  O65  1  0.14046136  0.49585887  0.56803564  1
  O  O66  1  0.29846543  0.83670473  0.25747798  1
  O  O67  1  0.53954776  0.70551391  0.25677495  1
  O  O68  1  0.16441649  0.46682811  0.25853686  1
  O  O69  1  0.29855010  0.47403346  0.76252710  1
  O  O70  1  0.18284931  0.71122840  0.76149705  1
  O  O71  1  0.54692618  0.83348743  0.75530716  1
loop_
_geom_bond_atom_site_label_1
_geom_bond_atom_site_label_2
_geom_bond_distance
_geom_bond_site_symmetry_2
Nb0 O4 1.853943 1_455
Nb0 O40 1.898553 1_555
Nb0 O3 1.934976 1_565
Nb0 O41 1.961653 1_455
Nb0 O39 2.234848 1_565
Nb0 O5 2.242291 1_465
Nb1 O7 1.848315 1_555
Nb1 O8 1.934875 1_545
Nb1 O42 1.954247 1_455
Nb1 O6 2.095758 1_445
Nb1 O43 2.124858 1_555
Nb1 O44 2.292088 1_445
Nb2 O45 1.846099 1_555
Nb2 O46 1.855367 1_565
Nb2 O47 1.992848 1_665
Nb2 O9 2.143615 1_555
Nb2 O11 2.195400 1_655
Nb2 O10 2.267172 1_665
Nb3 O54 1.921085 1_555
Nb3 O56 1.946785 1_555
Nb3 O19 1.971520 1_556
Nb3 O20 1.992677 1_556
Nb3 O55 2.012434 1_555
Nb3 O18 2.299216 1_556
Nb4 O57 1.869944 1_555
Nb4 O23 1.908629 1_555
Nb4 O58 1.943944 1_555
Nb4 O59 2.092627 1_555
Nb4 O21 2.101804 1_555
Nb4 O22 2.266787 1_555
Nb5 O26 1.877569 1_554
Nb5 O62 1.879026 1_555
Nb5 O24 1.924992 1_554
Nb5 O61 1.940929 1_555
Nb5 O60 2.199512 1_555
Nb5 O25 2.292137 1_554
Nb6 O28 1.870755 1_555
Nb6 O65 1.907067 1_555
Nb6 O27 1.939232 1_555
Nb6 O64 1.980795 1_555
Nb6 O63 2.150314 1_555
Nb6 O29 2.184738 1_555
Nb7 O32 1.875375 1_555
Nb7 O31 1.878543 1_555
Nb7 O67 2.037189 1_555
Nb7 O68 2.125299 1_555
Nb7 O66 2.139132 1_555
Nb7 O30 2.147540 1_555
Nb8 O69 1.924709 1_555
Nb8 O70 1.938900 1_555
Nb8 O35 1.961677 1_555
Nb8 O34 1.998812 1_555
Nb8 O71 2.048353 1_555
Nb8 O33 2.196038 1_555
In0 O37 2.023222 1_445
In0 O38 2.027390 1_555
In0 O2 2.162818 1_455
In0 O0 2.184551 1_555
In0 O36 2.195642 1_545
In0 O1 2.282573 1_445
In1 O50 2.022631 1_555
In1 O49 2.031575 1_555
In1 O12 2.038892 1_555
In1 O48 2.209223 1_555
In1 O14 2.269284 1_555
In1 O13 2.404677 1_555
In2 O15 2.020587 1_555
In2 O16 2.022794 1_555
In2 O52 2.217151 1_555
In2 O53 2.226651 1_555
In2 O17 2.239690 1_555
In2 O51 2.265771 1_555
O0 S0 1.465022 1_545
O1 S1 1.454761 1_555
O2 S2 1.464570 1_655
O3 Si0 1.629549 1_555
O4 Si1 1.667042 1_655
O5 S3 1.459632 1_545
O6 S3 1.506134 1_555
O7 Si0 1.703997 1_555
O8 Si1 1.669056 1_555
O9 S1 1.501405 1_555
O10 S2 1.495689 1_555
O11 S0 1.499099 1_555
O12 Si2 1.574986 1_555
O13 S4 1.447569 1_555
O14 S5 1.454969 1_555
O15 Si3 1.583017 1_555
O16 Si4 1.583699 1_555
O17 S6 1.463666 1_555
O18 S6 1.463905 1_555
O19 Si3 1.634895 1_555
O20 Si4 1.623260 1_555
O21 S4 1.511910 1_555
O22 S5 1.476439 1_555
O23 Si2 1.673640 1_555
O24 Si5 1.633669 1_555
O25 S7 1.466949 1_555
O26 Si6 1.647834 1_555
O27 Si7 1.619172 1_555
O28 Si8 1.650170 1_555
O29 S8 1.468810 1_555
O30 S8 1.506541 1_555
O31 Si7 1.687015 1_555
O32 Si8 1.695327 1_555
O33 S7 1.469686 1_555
O34 Si6 1.615825 1_555
O35 Si5 1.626415 1_555
O36 S8 1.447795 1_555
O37 Si7 1.564390 1_555
O38 Si8 1.564787 1_555
O39 S7 1.466816 1_555
O40 Si6 1.642169 1_555
O41 Si5 1.629475 1_555
O42 Si2 1.653510 1_555
O43 S4 1.498336 1_555
O44 S5 1.466778 1_555
O45 Si3 1.720206 1_555
O46 Si4 1.700181 1_555
O47 S6 1.537177 1_555
O48 S3 1.449543 1_545
O49 Si0 1.568831 1_555
O50 Si1 1.564798 1_655
O51 S1 1.453676 1_555
O52 S2 1.458334 1_655
O53 S0 1.461895 1_545
O54 Si5 1.648197 1_555
O55 S7 1.521520 1_655
O56 Si6 1.631252 1_545
O57 Si7 1.667360 1_545
O58 Si8 1.633657 1_555
O59 S8 1.497023 1_655
O60 S6 1.465084 1_555
O61 Si3 1.621264 1_455
O62 Si4 1.644314 1_565
O63 S4 1.482954 1_565
O64 S5 1.539194 1_555
O65 Si2 1.658294 1_455
O66 S0 1.512977 1_555
O67 S1 1.536478 1_555
O68 S2 1.520023 1_555
O69 Si0 1.640301 1_555
O70 Si1 1.641801 1_555
O71 S3 1.500678 1_555
