# generated using pymatgen
data_Na2Ta4Ti4Si7S5O48
_symmetry_space_group_name_H-M   'P 1'
_cell_length_a   17.60699423
_cell_length_b   8.78516147
_cell_length_c   22.72459245
_cell_angle_alpha   90.17039615
_cell_angle_beta   89.83289811
_cell_angle_gamma   119.98999974
_symmetry_Int_Tables_number   1
_chemical_formula_structural   Na2Ta4Ti4Si7S5O48
_chemical_formula_sum   'Na6 Ta12 Ti12 Si21 S15 O144'
_cell_volume   3044.40865098
_cell_formula_units_Z   3
loop_
 _symmetry_equiv_pos_site_id
 _symmetry_equiv_pos_as_xyz
  1  'x, y, z'
loop_
 _atom_site_type_symbol
 _atom_site_label
 _atom_site_symmetry_multiplicity
 _atom_site_fract_x
 _atom_site_fract_y
 _atom_site_fract_z
 _atom_site_occupancy
  Na  Na0  1  0.99607670  0.99966482  0.49865442  1
  Na  Na1  1  0.49581311  0.99056814  0.00297818  1
  Na  Na2  1  0.32900680  0.33161475  0.83879093  1
  Na  Na3  1  0.82853028  0.33066980  0.83800557  1
  Na  Na4  1  0.33104955  0.32771587  0.33570603  1
  Na  Na5  1  0.82781055  0.32456070  0.33751652  1
  Ta  Ta0  1  0.50492668  0.02014018  0.35745749  1
  Ta  Ta1  1  0.00609724  0.00163884  0.85982304  1
  Ta  Ta2  1  0.50143343  0.01415303  0.64150922  1
  Ta  Ta3  1  0.00184845  0.98958977  0.14176555  1
  Ta  Ta4  1  0.33296228  0.34270364  0.68626533  1
  Ta  Ta5  1  0.83374985  0.34580064  0.68674834  1
  Ta  Ta6  1  0.33802817  0.32290853  0.18960501  1
  Ta  Ta7  1  0.83258144  0.32359816  0.18717566  1
  Ta  Ta8  1  0.17276901  0.68807091  0.02403276  1
  Ta  Ta9  1  0.66905957  0.68504129  0.02399378  1
  Ta  Ta10  1  0.17003720  0.65413534  0.52279542  1
  Ta  Ta11  1  0.67204433  0.65651330  0.52189718  1
  Ti  Ti0  1  0.00722577  0.01512535  0.35863937  1
  Ti  Ti1  1  0.50859493  0.00120289  0.85920753  1
  Ti  Ti2  1  0.00089961  0.01918236  0.64239726  1
  Ti  Ti3  1  0.50235801  -0.00033172  0.14756028  1
  Ti  Ti4  1  0.33740286  0.33856897  0.97989646  1
  Ti  Ti5  1  0.83448571  0.33586500  0.97890402  1
  Ti  Ti6  1  0.33826400  0.33903095  0.47598666  1
  Ti  Ti7  1  0.83744815  0.33605220  0.47632093  1
  Ti  Ti8  1  0.17753173  0.68667396  0.31362436  1
  Ti  Ti9  1  0.66964891  0.67239314  0.30981805  1
  Ti  Ti10  1  0.17697042  0.66722779  0.81436690  1
  Ti  Ti11  1  0.67563296  0.66586004  0.81490457  1
  Si  Si0  1  0.14267899  0.99603728  0.25247097  1
  Si  Si1  1  0.64218205  0.99469083  0.25000392  1
  Si  Si2  1  0.50598703  0.29285731  0.24920099  1
  Si  Si3  1  0.14269022  0.29098466  0.74969896  1
  Si  Si4  1  0.64299275  0.29018431  0.75261227  1
  Si  Si5  1  0.47584376  0.34187019  0.58083821  1
  Si  Si6  1  0.97543738  0.33682819  0.58183772  1
  Si  Si7  1  0.33611475  0.62140004  0.58058263  1
  Si  Si8  1  0.83896859  0.62790089  0.58106063  1
  Si  Si9  1  0.47560925  0.62422535  0.08320136  1
  Si  Si10  1  0.97531752  0.61027657  0.08153578  1
  Si  Si11  1  0.34080516  0.05356418  0.08208194  1
  Si  Si12  1  0.83688397  0.05182077  0.08100982  1
  Si  Si13  1  0.31417101  0.66657410  0.91721656  1
  Si  Si14  1  0.81035784  0.66139832  0.91829180  1
  Si  Si15  1  0.17363888  0.95755408  0.91512972  1
  Si  Si16  1  0.67094933  0.95757536  0.91444446  1
  Si  Si17  1  0.31143885  0.95817005  0.41818714  1
  Si  Si18  1  0.81110734  0.95466555  0.41452938  1
  Si  Si19  1  0.17066818  0.38302629  0.41371901  1
  Si  Si20  1  0.67274693  0.38670788  0.41421828  1
  S  S0  1  0.35590463  0.71290864  0.25007784  1
  S  S1  1  0.85704110  0.71489317  0.25068657  1
  S  S2  1  0.00206356  0.28944538  0.25075999  1
  S  S3  1  0.00299241  0.71571016  0.74983382  1
  S  S4  1  0.50213960  0.71488086  0.75074697  1
  S  S5  1  0.35660741  0.99951593  0.75090191  1
  S  S6  1  0.85615690  0.99895926  0.74989535  1
  S  S7  1  0.18894966  0.04611009  0.58240137  1
  S  S8  1  0.69045492  0.04700358  0.58276155  1
  S  S9  1  0.19046316  0.33506556  0.08340250  1
  S  S10  1  0.68929063  0.33247327  0.08231394  1
  S  S11  1  0.02336305  0.38268530  0.91587087  1
  S  S12  1  0.52345964  0.37944169  0.91584808  1
  S  S13  1  0.02389656  0.66785954  0.41580104  1
  S  S14  1  0.52392375  0.66754193  0.41596618  1
  O  O0  1  0.09188539  0.02572911  0.30809919  1
  O  O1  1  0.59547981  0.02693454  0.30730235  1
  O  O2  1  0.41002078  0.78745972  0.30319680  1
  O  O3  1  0.91215416  0.79198627  0.30254235  1
  O  O4  1  0.48216231  0.16259392  0.30692546  1
  O  O5  1  0.98210523  0.17631873  0.30321096  1
  O  O6  1  0.09431061  0.16236957  0.80640970  1
  O  O7  1  0.59327935  0.15898842  0.80797480  1
  O  O8  1  0.48217671  0.78844853  0.80324964  1
  O  O9  1  0.98269181  0.79141784  0.80323460  1
  O  O10  1  0.41102343  0.03096927  0.80262216  1
  O  O11  1  0.91121666  0.03043108  0.80248192  1
  O  O12  1  0.39747883  0.97218505  0.69649510  1
  O  O13  1  0.89594534  0.97116079  0.69643704  1
  O  O14  1  0.08134859  0.18659149  0.69270463  1
  O  O15  1  0.58341749  0.18948947  0.69423623  1
  O  O16  1  0.01170443  0.81822286  0.69699423  1
  O  O17  1  0.51166578  0.81875252  0.69731718  1
  O  O18  1  0.39453183  0.81899223  0.19680485  1
  O  O19  1  0.89896669  0.82376031  0.19630103  1
  O  O20  1  0.01161519  0.20449045  0.19723314  1
  O  O21  1  0.51291133  0.18979754  0.19192070  1
  O  O22  1  0.08210023  0.97462778  0.19416237  1
  O  O23  1  0.58299530  0.97257741  0.19187678  1
  O  O24  1  0.42780334  0.35732652  0.64113177  1
  O  O25  1  0.92783071  0.35607422  0.64180112  1
  O  O26  1  0.24416014  0.12740674  0.63689521  1
  O  O27  1  0.74461019  0.12770616  0.63723951  1
  O  O28  1  0.31707486  0.49757923  0.64024029  1
  O  O29  1  0.81829492  0.50020625  0.64044738  1
  O  O30  1  0.42709304  0.49860480  0.14048259  1
  O  O31  1  0.92798530  0.49806086  0.14104814  1
  O  O32  1  0.31680769  0.13539442  0.14007885  1
  O  O33  1  0.81715093  0.13775140  0.14005150  1
  O  O34  1  0.24320168  0.36494118  0.13668125  1
  O  O35  1  0.74471496  0.36282767  0.13627931  1
  O  O36  1  0.22634208  0.29729723  0.03044888  1
  O  O37  1  0.72960405  0.30223323  0.02979948  1
  O  O38  1  0.41355425  0.52710719  0.02538308  1
  O  O39  1  0.91251012  0.52509152  0.02490544  1
  O  O40  1  0.34759863  0.17151992  0.02507449  1
  O  O41  1  0.84831811  0.17290628  0.02505524  1
  O  O42  1  0.22731519  0.15610418  0.53062249  1
  O  O43  1  0.72648706  0.15637527  0.53118120  1
  O  O44  1  0.34842924  0.52344540  0.52535565  1
  O  O45  1  0.84979692  0.52618379  0.52577748  1
  O  O46  1  0.41190740  0.29882585  0.52532978  1
  O  O47  1  0.91260524  0.29760926  0.52569216  1
  O  O48  1  0.26318873  0.69244270  0.97340873  1
  O  O49  1  0.76147046  0.69048016  0.97401920  1
  O  O50  1  0.07628334  0.45249289  0.96923096  1
  O  O51  1  0.57684328  0.45457568  0.96939060  1
  O  O52  1  0.15011186  0.83024996  0.97308912  1
  O  O53  1  0.64982927  0.83229393  0.97312291  1
  O  O54  1  0.26001525  0.83247920  0.47431417  1
  O  O55  1  0.76366294  0.83554882  0.47413717  1
  O  O56  1  0.14967531  0.46597154  0.47334322  1
  O  O57  1  0.65100818  0.46784678  0.47387602  1
  O  O58  1  0.07652611  0.69784550  0.46997033  1
  O  O59  1  0.57663514  0.69700601  0.47019770  1
  O  O60  1  0.06290802  0.63771221  0.36312923  1
  O  O61  1  0.56154170  0.63378912  0.36361379  1
  O  O62  1  0.24912807  0.86560955  0.35965886  1
  O  O63  1  0.74869535  0.86185725  0.35831353  1
  O  O64  1  0.17938395  0.50363176  0.35747858  1
  O  O65  1  0.68376901  0.50655391  0.35834522  1
  O  O66  1  0.06290998  0.48853979  0.86273982  1
  O  O67  1  0.56329432  0.48792653  0.86285211  1
  O  O68  1  0.17970006  0.85403115  0.85740116  1
  O  O69  1  0.67937181  0.85513231  0.85727906  1
  O  O70  1  0.25056255  0.63592808  0.85915029  1
  O  O71  1  0.74926285  0.63296738  0.85928802  1
  O  O72  1  0.01230086  0.82431167  0.41007248  1
  O  O73  1  0.51156162  0.82100196  0.40848284  1
  O  O74  1  0.40335823  0.96362403  0.40615905  1
  O  O75  1  0.90815240  0.97248203  0.40511036  1
  O  O76  1  0.08130582  0.18689873  0.40859020  1
  O  O77  1  0.58431108  0.19125396  0.40899464  1
  O  O78  1  0.01178667  0.20102879  0.90706302  1
  O  O79  1  0.51232278  0.20014007  0.90909087  1
  O  O80  1  0.08349938  0.97244656  0.90640632  1
  O  O81  1  0.58166134  0.97524725  0.90830196  1
  O  O82  1  0.40794350  0.84469266  0.90436989  1
  O  O83  1  0.90388289  0.83762695  0.90245118  1
  O  O84  1  0.48706386  0.16792112  0.59353561  1
  O  O85  1  0.98844521  0.16428068  0.59157240  1
  O  O86  1  0.10049929  0.02563606  0.59171732  1
  O  O87  1  0.60136316  0.02576523  0.59387850  1
  O  O88  1  0.42046034  0.81015794  0.59746800  1
  O  O89  1  0.92366255  0.81851950  0.59532454  1
  O  O90  1  0.48912961  0.81920277  0.09099265  1
  O  O91  1  0.98705459  0.80679146  0.09277271  1
  O  O92  1  0.42343511  0.02634251  0.09103613  1
  O  O93  1  0.92082461  0.03116742  0.09686910  1
  O  O94  1  0.10056709  0.17714333  0.09299235  1
  O  O95  1  0.60237609  0.17521661  0.08919722  1
  O  O96  1  0.34623457  0.15778089  0.74194116  1
  O  O97  1  0.84626424  0.15848517  0.74295464  1
  O  O98  1  0.23991356  0.30531254  0.74225404  1
  O  O99  1  0.74028250  0.30532383  0.74304639  1
  O  O100  1  0.41959044  0.53238795  0.74323597  1
  O  O101  1  0.91938206  0.53311473  0.74421360  1
  O  O102  1  0.34370664  0.53260015  0.24254078  1
  O  O103  1  0.84760317  0.53586553  0.24168539  1
  O  O104  1  0.41603134  0.31091808  0.24366406  1
  O  O105  1  0.91969296  0.30680228  0.24326806  1
  O  O106  1  0.23784256  0.17543632  0.24261351  1
  O  O107  1  0.74009608  0.17719724  0.24182224  1
  O  O108  1  0.32279588  0.49255692  0.92409513  1
  O  O109  1  0.82260800  0.49158951  0.92401147  1
  O  O110  1  0.43514413  0.36070321  0.92144589  1
  O  O111  1  0.93445641  0.35871901  0.92148157  1
  O  O112  1  0.25546412  0.15198771  0.92407459  1
  O  O113  1  0.75453343  0.15088937  0.92439094  1
  O  O114  1  0.32145929  0.15107738  0.42493555  1
  O  O115  1  0.82336801  0.15072589  0.42560475  1
  O  O116  1  0.25429856  0.35805724  0.42501335  1
  O  O117  1  0.75575036  0.35852267  0.42606299  1
  O  O118  1  0.43483832  0.50829608  0.42281090  1
  O  O119  1  0.93521230  0.50930073  0.42173189  1
  O  O120  1  0.17720799  0.48612128  0.07447633  1
  O  O121  1  0.68062635  0.48963401  0.07526080  1
  O  O122  1  0.07071868  0.62990555  0.07233736  1
  O  O123  1  0.56913049  0.63004517  0.07186802  1
  O  O124  1  0.25109448  0.85922632  0.07510181  1
  O  O125  1  0.75037222  0.85714934  0.07516868  1
  O  O126  1  0.17928457  0.87069603  0.57624790  1
  O  O127  1  0.67845236  0.87019746  0.57659845  1
  O  O128  1  0.25024429  0.64466463  0.57535156  1
  O  O129  1  0.75108541  0.64595792  0.57542897  1
  O  O130  1  0.07063776  0.51012254  0.57333103  1
  O  O131  1  0.57154766  0.51280761  0.57305257  1
  O  O132  1  0.15144006  0.82248105  0.26228953  1
  O  O133  1  0.65587501  0.82955574  0.26109765  1
  O  O134  1  0.26773900  0.69362273  0.25748902  1
  O  O135  1  0.77035821  0.69537403  0.25480842  1
  O  O136  1  0.07728606  0.46412433  0.25785847  1
  O  O137  1  0.58749553  0.48360081  0.26212449  1
  O  O138  1  0.15226571  0.48153071  0.76127747  1
  O  O139  1  0.65242497  0.48155985  0.76196069  1
  O  O140  1  0.07651169  0.69015150  0.75874499  1
  O  O141  1  0.57720443  0.69047071  0.75773129  1
  O  O142  1  0.26873785  0.84359548  0.75586635  1
  O  O143  1  0.76830888  0.84365661  0.75694024  1
loop_
_geom_bond_atom_site_label_1
_geom_bond_atom_site_label_2
_geom_bond_distance
_geom_bond_site_symmetry_2
Na0 O75 2.572742 1_555
Na0 O76 2.584741 1_665
Na0 O85 2.596624 1_565
Na0 O72 2.631541 1_655
Na0 O89 2.638195 1_555
Na0 O86 2.739577 1_665
Na1 O92 2.471612 1_565
Na1 O90 2.473883 1_555
Na1 O95 2.636369 1_565
Na1 O82 2.660508 1_554
Na1 O81 2.667281 1_554
Na1 O79 2.740619 1_564
Na2 O112 2.425637 1_555
Na2 O108 2.430207 1_555
Na2 O110 2.574060 1_555
Na2 O98 2.642231 1_555
Na2 O100 2.749597 1_555
Na2 O96 2.776196 1_555
Na3 O109 2.441117 1_555
Na3 O113 2.447859 1_555
Na3 O111 2.587656 1_555
Na3 O99 2.605994 1_555
Na3 O101 2.724568 1_555
Na3 O97 2.738621 1_555
Na4 O114 2.510566 1_555
Na4 O116 2.521280 1_555
Na4 O106 2.601312 1_555
Na4 O104 2.614598 1_555
Na4 O118 2.622696 1_555
Na4 O102 2.718576 1_555
Na5 O117 2.471362 1_555
Na5 O115 2.498657 1_555
Na5 O107 2.606562 1_555
Na5 O119 2.609016 1_555
Na5 O105 2.731075 1_555
Na5 O103 2.771795 1_555
O0 Si0 1.640284 1_545
O0 Ti0 1.844307 1_555
O1 Si1 1.635919 1_545
O1 Ta0 1.933722 1_555
O2 S0 1.473797 1_555
O2 Ta0 2.252436 1_565
O3 S1 1.460777 1_555
O3 Ti0 2.233177 1_665
O4 Si2 1.652914 1_555
O4 Ta0 1.886313 1_555
O5 S2 1.478971 1_655
O5 Ti0 2.104178 1_655
O6 Si3 1.644134 1_555
O6 Ta1 1.919956 1_555
O7 Si4 1.634330 1_555
O7 Ti1 1.852941 1_555
O8 S4 1.478110 1_555
O8 Ti1 2.108797 1_565
O9 S3 1.507666 1_655
O9 Ta1 2.112434 1_665
O10 S5 1.454533 1_545
O10 Ti1 2.266536 1_555
O11 S6 1.476867 1_545
O11 Ta1 2.233785 1_655
O12 S5 1.506620 1_555
O12 Ta2 2.088573 1_565
O13 S6 1.480036 1_555
O13 Ti2 2.076383 1_665
O14 Si3 1.641929 1_555
O14 Ti2 1.842057 1_555
O15 Si4 1.648067 1_555
O15 Ta2 1.915293 1_555
O16 S3 1.464127 1_555
O16 Ti2 2.245559 1_565
O17 S4 1.479001 1_555
O17 Ta2 2.216096 1_565
O18 S0 1.471371 1_555
O18 Ti3 2.088461 1_565
O19 S1 1.510953 1_555
O19 Ta3 2.073406 1_655
O20 S2 1.477757 1_555
O20 Ta3 2.201190 1_545
O21 Si2 1.622149 1_555
O21 Ti3 1.876566 1_555
O22 Si0 1.653774 1_555
O22 Ta3 1.904731 1_555
O23 Si1 1.634824 1_555
O23 Ti3 1.853156 1_565
O24 Si5 1.648681 1_555
O24 Ta4 1.906105 1_555
O25 Si6 1.649737 1_555
O25 Ta5 1.906979 1_555
O26 S7 1.515341 1_555
O26 Ta4 2.078944 1_555
O27 S8 1.506753 1_555
O27 Ta5 2.095556 1_555
O28 Si7 1.665875 1_555
O28 Ta4 1.847719 1_555
O29 Si8 1.676350 1_555
O29 Ta5 1.843992 1_555
O30 Si9 1.643671 1_555
O30 Ta6 1.915194 1_555
O31 Si10 1.635661 1_555
O31 Ta7 1.922250 1_555
O32 Si11 1.651397 1_555
O32 Ta6 1.869790 1_555
O33 Si12 1.656571 1_555
O33 Ta7 1.853141 1_555
O34 S9 1.469026 1_555
O34 Ta6 2.236305 1_555
O35 S10 1.507383 1_555
O35 Ta7 2.096599 1_555
O36 S9 1.469675 1_555
O36 Ti4 2.134367 1_554
O37 S10 1.476552 1_555
O37 Ti5 2.068627 1_554
O38 Si9 1.648585 1_555
O38 Ti4 1.840493 1_554
O39 Si10 1.616883 1_555
O39 Ti5 1.859719 1_554
O40 Si11 1.627746 1_555
O40 Ti4 1.874396 1_554
O41 Si12 1.606672 1_555
O41 Ti5 1.888847 1_554
O42 S7 1.457450 1_555
O42 Ti6 2.190779 1_555
O43 S8 1.446582 1_555
O43 Ti7 2.185702 1_555
O44 Si7 1.594090 1_555
O44 Ti6 1.901555 1_555
O45 Si8 1.604797 1_555
O45 Ti7 1.930700 1_555
O46 Si5 1.606638 1_555
O46 Ti6 1.879369 1_555
O47 Si6 1.610909 1_555
O47 Ti7 1.892511 1_555
O48 Si13 1.638147 1_555
O48 Ta8 1.946253 1_556
O49 Si14 1.619096 1_555
O49 Ta9 1.962446 1_556
O50 S11 1.464777 1_555
O50 Ta8 2.280856 1_556
O51 S12 1.476906 1_555
O51 Ta9 2.232861 1_556
O52 Si15 1.643042 1_555
O52 Ta8 1.889164 1_556
O53 Si16 1.650575 1_555
O53 Ta9 1.890391 1_556
O54 Si17 1.633415 1_555
O54 Ta10 1.922779 1_555
O55 Si18 1.660020 1_555
O55 Ta11 1.928078 1_555
O56 Si19 1.662504 1_555
O56 Ta10 1.876920 1_555
O57 Si20 1.660272 1_555
O57 Ta11 1.858256 1_555
O58 S13 1.484609 1_555
O58 Ta10 2.223870 1_555
O59 S14 1.487195 1_555
O59 Ta11 2.222653 1_555
O60 S13 1.466220 1_555
O60 Ti8 2.155329 1_555
O61 S14 1.460007 1_555
O61 Ti9 2.139190 1_555
O62 Si17 1.656526 1_555
O62 Ti8 1.780858 1_555
O63 Si18 1.615732 1_555
O63 Ti9 1.898462 1_555
O64 Si19 1.619853 1_555
O64 Ti8 1.908456 1_555
O65 Si20 1.600175 1_555
O65 Ti9 1.942620 1_555
O66 S11 1.470325 1_555
O66 Ti10 2.133430 1_555
O67 S12 1.477924 1_555
O67 Ti11 2.109409 1_555
O68 Si15 1.627453 1_555
O68 Ti10 1.887790 1_555
O69 Si16 1.626301 1_555
O69 Ti11 1.891527 1_555
O70 Si13 1.665239 1_555
O70 Ti10 1.776447 1_555
O71 Si14 1.659874 1_555
O71 Ti11 1.779126 1_555
O72 S13 1.493156 1_555
O72 Ti0 2.084744 1_565
O73 S14 1.479457 1_555
O73 Ta0 2.153124 1_565
O74 Si17 1.617492 1_555
O74 Ta0 1.942553 1_565
O75 Si18 1.649417 1_555
O75 Ti0 1.907024 1_665
O76 Si19 1.657605 1_555
O76 Ti0 1.815968 1_555
O77 Si20 1.647433 1_555
O77 Ta0 1.866443 1_555
O78 S11 1.517103 1_555
O78 Ta1 2.011178 1_555
O79 S12 1.494396 1_555
O79 Ti1 2.053709 1_555
O80 Si15 1.668780 1_555
O80 Ta1 1.844745 1_565
O81 Si16 1.661465 1_555
O81 Ti1 1.804120 1_565
O82 Si13 1.636129 1_555
O82 Ti1 1.909515 1_565
O83 Si14 1.639914 1_555
O83 Ta1 1.912898 1_665
O84 Si5 1.662031 1_555
O84 Ta2 1.851869 1_555
O85 Si6 1.657883 1_555
O85 Ti2 1.815659 1_655
O86 S7 1.490223 1_555
O86 Ti2 2.072218 1_555
O87 S8 1.504871 1_555
O87 Ta2 2.021829 1_555
O88 Si7 1.624859 1_555
O88 Ta2 1.920773 1_565
O89 Si8 1.623653 1_555
O89 Ti2 1.924048 1_665
O90 Si9 1.616439 1_555
O90 Ti3 1.959776 1_565
O91 Si10 1.652103 1_555
O91 Ta3 1.859897 1_655
O92 Si11 1.601582 1_555
O92 Ti3 1.993373 1_555
O93 Si12 1.618239 1_555
O93 Ta3 1.934197 1_645
O94 S9 1.510651 1_555
O94 Ta3 2.025099 1_545
O95 S10 1.470130 1_555
O95 Ti3 2.126529 1_555
O96 S5 1.504574 1_545
O96 Ta4 2.165200 1_555
O97 S6 1.504931 1_545
O97 Ta5 2.182790 1_555
O98 Si3 1.660661 1_555
O98 Ta4 1.965473 1_555
O99 Si4 1.664176 1_555
O99 Ta5 1.968972 1_555
O100 S4 1.543469 1_555
O100 Ta4 2.058437 1_555
O101 S3 1.547841 1_655
O101 Ta5 2.050575 1_555
O102 S0 1.497712 1_555
O102 Ta6 2.157330 1_555
O103 S1 1.510007 1_555
O103 Ta7 2.139382 1_555
O104 Si2 1.673946 1_555
O104 Ta6 1.887248 1_555
O105 S2 1.542166 1_655
O105 Ta7 2.058592 1_555
O106 Si0 1.643633 1_545
O106 Ta6 1.988308 1_555
O107 Si1 1.677494 1_545
O107 Ta7 1.936993 1_555
O108 Si13 1.618108 1_555
O108 Ti4 1.965742 1_555
O109 Si14 1.616125 1_555
O109 Ti5 1.941407 1_555
O110 S12 1.484683 1_555
O110 Ti4 2.101753 1_555
O111 S11 1.476653 1_655
O111 Ti5 2.115701 1_555
O112 Si15 1.604408 1_545
O112 Ti4 2.002890 1_555
O113 Si16 1.613129 1_545
O113 Ti5 1.966803 1_555
O114 Si17 1.620627 1_545
O114 Ti6 1.913656 1_555
O115 Si18 1.643992 1_545
O115 Ti7 1.904602 1_555
O116 Si19 1.614815 1_555
O116 Ti6 1.952815 1_555
O117 Si20 1.622967 1_555
O117 Ti7 1.925431 1_555
O118 S14 1.499279 1_555
O118 Ti6 2.008413 1_555
O119 S13 1.490693 1_655
O119 Ti7 2.048918 1_555
O120 S9 1.472470 1_555
O120 Ta8 2.149190 1_555
O121 S10 1.472164 1_555
O121 Ta9 2.169918 1_555
O122 Si10 1.613540 1_455
O122 Ta8 1.941265 1_555
O123 Si9 1.641270 1_555
O123 Ta9 1.911757 1_555
O124 Si11 1.654954 1_565
O124 Ta8 1.853518 1_555
O125 Si12 1.630410 1_565
O125 Ta9 1.877084 1_555
O126 S7 1.469698 1_565
O126 Ta10 2.190729 1_555
O127 S8 1.465486 1_565
O127 Ta11 2.203907 1_555
O128 Si7 1.628471 1_555
O128 Ta10 1.885612 1_555
O129 Si8 1.637842 1_555
O129 Ta11 1.888058 1_555
O130 Si6 1.616637 1_455
O130 Ta10 1.940568 1_555
O131 Si5 1.611210 1_555
O131 Ta11 1.959510 1_555
O132 Si0 1.623484 1_555
O132 Ti8 1.885394 1_555
O133 Si1 1.605773 1_555
O133 Ti9 1.880513 1_555
O134 S0 1.484088 1_555
O134 Ti8 2.011309 1_555
O135 S1 1.450919 1_555
O135 Ti9 2.092444 1_555
O136 S2 1.450184 1_555
O136 Ti8 2.256612 1_555
O137 Si2 1.596634 1_555
O137 Ti9 1.902078 1_555
O138 Si3 1.617206 1_555
O138 Ti10 1.894214 1_555
O139 Si4 1.618121 1_555
O139 Ti11 1.888352 1_555
O140 S3 1.435060 1_555
O140 Ti10 2.266593 1_555
O141 S4 1.450085 1_555
O141 Ti11 2.264410 1_555
O142 S5 1.471033 1_555
O142 Ti10 2.067766 1_555
O143 S6 1.472988 1_555
O143 Ti11 2.071023 1_555
