# generated using pymatgen
data_MgZn2Co2(PO5)2
_symmetry_space_group_name_H-M   'P 1'
_cell_length_a   5.76649881
_cell_length_b   6.96706728
_cell_length_c   8.12356090
_cell_angle_alpha   89.16533185
_cell_angle_beta   42.58739607
_cell_angle_gamma   73.39369356
_symmetry_Int_Tables_number   1
_chemical_formula_structural   MgZn2Co2(PO5)2
_chemical_formula_sum   'Mg1 Zn2 Co2 P2 O10'
_cell_volume   201.76399959
_cell_formula_units_Z   1
loop_
 _symmetry_equiv_pos_site_id
 _symmetry_equiv_pos_as_xyz
  1  'x, y, z'
loop_
 _atom_site_type_symbol
 _atom_site_label
 _atom_site_symmetry_multiplicity
 _atom_site_fract_x
 _atom_site_fract_y
 _atom_site_fract_z
 _atom_site_occupancy
  Mg  Mg0  1  0.96446270  0.25696985  0.48709140  1
  Zn  Zn0  1  0.22443893  0.25887323  0.83165811  1
  Zn  Zn1  1  0.60834244  0.75065353  0.22515974  1
  Co  Co0  1  0.37001559  0.52409798  0.06029598  1
  Co  Co1  1  0.64100809  0.94893436  0.87883930  1
  P  P0  1  0.58596997  0.23741772  0.32989904  1
  P  P1  1  0.43635741  0.73429882  0.67590582  1
  O  O0  1  0.52995402  0.07727879  0.23779165  1
  O  O1  1  0.67883100  0.39242141  0.16575463  1
  O  O2  1  0.46751858  0.93015143  0.73233300  1
  O  O3  1  0.19104545  0.65367550  0.91339702  1
  O  O4  1  0.83667845  0.55202143  0.45292480  1
  O  O5  1  0.25213125  0.79740545  0.59713875  1
  O  O6  1  0.19088672  0.34990674  0.61377477  1
  O  O7  1  0.88345308  0.14525591  0.30931455  1
  O  O8  1  0.49219380  0.74789800  0.06215178  1
  O  O9  1  0.56201253  0.24320083  0.84191965  1
loop_
_geom_bond_atom_site_label_1
_geom_bond_atom_site_label_2
_geom_bond_distance
_geom_bond_site_symmetry_2
Mg0 O9 1.993157 1_555
Mg0 O7 2.035590 1_555
Mg0 O4 2.065045 1_555
Mg0 O0 2.078063 1_655
Mg0 O6 2.379990 1_655
Co0 O8 1.889984 1_555
Co0 O9 2.042886 1_554
Co0 O3 2.133940 1_554
Co0 O4 2.213929 1_455
Co0 O1 2.456925 1_555
Co1 O8 1.913190 1_556
Co1 O9 2.037184 1_565
Co1 O2 2.065684 1_555
Co1 O5 2.199827 1_655
Co1 O0 2.590662 1_566
O0 P0 1.579618 1_555
O0 Zn1 2.178038 1_545
O1 P0 1.571051 1_555
O1 Zn0 1.989285 1_654
O1 Zn1 2.406999 1_555
O2 P1 1.544014 1_555
O2 Zn0 2.101070 1_565
O3 P1 1.562901 1_555
O3 Zn1 2.093465 1_456
O4 P1 1.567467 1_555
O5 P1 1.567506 1_555
O5 Zn1 1.990742 1_555
O6 P0 1.555155 1_555
O6 Zn0 1.993481 1_555
O7 P0 1.527782 1_555
O8 Zn1 1.875245 1_555
O9 Zn0 1.981256 1_555
