# generated using pymatgen
data_Na3TaTi(SiO4)3
_symmetry_space_group_name_H-M   'P 1'
_cell_length_a   15.65831735
_cell_length_b   8.99446564
_cell_length_c   8.98458413
_cell_angle_alpha   90.00000000
_cell_angle_beta   125.03322056
_cell_angle_gamma   90.00000000
_symmetry_Int_Tables_number   1
_chemical_formula_structural   Na3TaTi(SiO4)3
_chemical_formula_sum   'Na12 Ta4 Ti4 Si12 O48'
_cell_volume   1036.11158808
_cell_formula_units_Z   4
loop_
 _symmetry_equiv_pos_site_id
 _symmetry_equiv_pos_as_xyz
  1  'x, y, z'
loop_
 _atom_site_type_symbol
 _atom_site_label
 _atom_site_symmetry_multiplicity
 _atom_site_fract_x
 _atom_site_fract_y
 _atom_site_fract_z
 _atom_site_occupancy
  Na  Na0  1  0.25003751  0.72744612  0.99067472  1
  Na  Na1  1  0.75003751  0.77255388  0.49067472  1
  Na  Na2  1  0.75003751  0.22744612  0.99067472  1
  Na  Na3  1  0.25003751  0.27255388  0.49067472  1
  Na  Na4  1  0.49855476  0.11847030  0.74302227  1
  Na  Na5  1  0.49855476  0.88152970  0.24302227  1
  Na  Na6  1  0.99855476  0.61847030  0.74302227  1
  Na  Na7  1  0.99855476  0.38152970  0.24302227  1
  Na  Na8  1  0.19120318  0.94650963  0.28514332  1
  Na  Na9  1  0.19120318  0.05349037  0.78514332  1
  Na  Na10  1  0.69120318  0.44650963  0.28514332  1
  Na  Na11  1  0.69120318  0.55349037  0.78514332  1
  Ta  Ta0  1  0.89246771  0.75346860  0.93152107  1
  Ta  Ta1  1  0.89246771  0.24653140  0.43152107  1
  Ta  Ta2  1  0.39246771  0.25346860  0.93152107  1
  Ta  Ta3  1  0.39246771  0.74653140  0.43152107  1
  Ti  Ti0  1  0.10536655  0.74998632  0.56410015  1
  Ti  Ti1  1  0.10536655  0.25001368  0.06410015  1
  Ti  Ti2  1  0.60536655  0.24998632  0.56410015  1
  Ti  Ti3  1  0.60536655  0.75001368  0.06410015  1
  Si  Si0  1  0.00058271  0.95977585  0.75653361  1
  Si  Si1  1  0.00058271  0.04022415  0.25653361  1
  Si  Si2  1  0.50058271  0.45977585  0.75653361  1
  Si  Si3  1  0.50058271  0.54022415  0.25653361  1
  Si  Si4  1  0.35509858  0.88707455  0.75857866  1
  Si  Si5  1  0.64276486  0.89488538  0.74679361  1
  Si  Si6  1  0.64276486  0.10511462  0.24679361  1
  Si  Si7  1  0.35509858  0.11292545  0.25857866  1
  Si  Si8  1  0.85509858  0.38707455  0.75857866  1
  Si  Si9  1  0.14276486  0.39488538  0.74679361  1
  Si  Si10  1  0.14276486  0.60511462  0.24679361  1
  Si  Si11  1  0.85509858  0.61292545  0.25857866  1
  O  O0  1  0.14719168  0.57392240  0.74111008  1
  O  O1  1  0.84930949  0.57160466  0.76463836  1
  O  O2  1  0.84930949  0.42839534  0.26463836  1
  O  O3  1  0.14719168  0.42607760  0.24111008  1
  O  O4  1  0.64719168  0.07392240  0.74111008  1
  O  O5  1  0.34930949  0.07160466  0.76463836  1
  O  O6  1  0.34930949  0.92839534  0.26463836  1
  O  O7  1  0.64719168  0.92607760  0.24111008  1
  O  O8  1  0.43420065  0.57184166  0.57866784  1
  O  O9  1  0.56950150  0.56299196  0.93783948  1
  O  O10  1  0.56950150  0.43700804  0.43783948  1
  O  O11  1  0.43420065  0.42815834  0.07866784  1
  O  O12  1  0.93420065  0.07184166  0.57866784  1
  O  O13  1  0.06950150  0.06299196  0.93783948  1
  O  O14  1  0.06950150  0.93700804  0.43783948  1
  O  O15  1  0.93420065  0.92815834  0.07866784  1
  O  O16  1  0.25371527  0.82258538  0.74474329  1
  O  O17  1  0.74008386  0.80956158  0.75979601  1
  O  O18  1  0.74008386  0.19043842  0.25979601  1
  O  O19  1  0.25371527  0.17741462  0.24474329  1
  O  O20  1  0.75371527  0.32258538  0.74474329  1
  O  O21  1  0.24008386  0.30956158  0.75979601  1
  O  O22  1  0.24008386  0.69043842  0.25979601  1
  O  O23  1  0.75371527  0.67741462  0.24474329  1
  O  O24  1  0.35485765  0.85646948  0.57622701  1
  O  O25  1  0.63875426  0.84421885  0.91858245  1
  O  O26  1  0.63875426  0.15578115  0.41858245  1
  O  O27  1  0.35485765  0.14353052  0.07622701  1
  O  O28  1  0.85485765  0.35646948  0.57622701  1
  O  O29  1  0.13875426  0.34421885  0.91858245  1
  O  O30  1  0.13875426  0.65578115  0.41858245  1
  O  O31  1  0.85485765  0.64353052  0.07622701  1
  O  O32  1  0.46440442  0.82629661  0.93913824  1
  O  O33  1  0.53500517  0.82873612  0.56195318  1
  O  O34  1  0.53500517  0.17126388  0.06195318  1
  O  O35  1  0.46440442  0.17370339  0.43913824  1
  O  O36  1  0.96440442  0.32629661  0.93913824  1
  O  O37  1  0.03500517  0.32873612  0.56195318  1
  O  O38  1  0.03500517  0.67126388  0.06195318  1
  O  O39  1  0.96440442  0.67370339  0.43913824  1
  O  O40  1  0.08155717  0.85491170  0.74575369  1
  O  O41  1  0.91534301  0.85069513  0.75518295  1
  O  O42  1  0.91534301  0.14930487  0.25518295  1
  O  O43  1  0.08155717  0.14508830  0.24575369  1
  O  O44  1  0.58155717  0.35491170  0.74575369  1
  O  O45  1  0.41534301  0.35069513  0.75518295  1
  O  O46  1  0.41534301  0.64930487  0.25518295  1
  O  O47  1  0.58155717  0.64508830  0.24575369  1
loop_
_geom_bond_atom_site_label_1
_geom_bond_atom_site_label_2
_geom_bond_distance
_geom_bond_site_symmetry_2
Na0 O0 2.319937 1_555
Na0 O16 2.400827 1_555
Na0 O46 2.403996 1_556
Na0 O22 2.532628 1_556
Na0 O40 2.539956 1_555
Na0 O6 2.710900 1_556
Na1 O7 2.319937 1_555
Na1 O23 2.400827 1_555
Na1 O41 2.403996 1_555
Na1 O17 2.532628 1_555
Na1 O47 2.539956 1_555
Na1 O1 2.710900 1_555
Na2 O4 2.319937 1_555
Na2 O20 2.400827 1_555
Na2 O42 2.403996 1_556
Na2 O18 2.532628 1_556
Na2 O44 2.539956 1_555
Na2 O2 2.710900 1_556
Na3 O3 2.319937 1_555
Na3 O19 2.400827 1_555
Na3 O45 2.403996 1_555
Na3 O21 2.532628 1_555
Na3 O43 2.539956 1_555
Na3 O5 2.710900 1_555
Na4 O4 2.371405 1_555
Na4 O44 2.485125 1_555
Na4 O5 2.489523 1_555
Na4 O45 2.497179 1_555
Na4 O35 2.512156 1_555
Na4 O34 2.623819 1_556
Na5 O7 2.371405 1_555
Na5 O47 2.485125 1_555
Na5 O6 2.489523 1_555
Na5 O46 2.497179 1_555
Na5 O32 2.512156 1_554
Na5 O33 2.623819 1_555
Na6 O0 2.371405 1_655
Na6 O40 2.485125 1_655
Na6 O1 2.489523 1_555
Na6 O41 2.497179 1_555
Na6 O39 2.512156 1_555
Na6 O38 2.623819 1_656
Na7 O3 2.371405 1_655
Na7 O43 2.485125 1_655
Na7 O2 2.489523 1_555
Na7 O42 2.497179 1_555
Na7 O36 2.512156 1_554
Na7 O37 2.623819 1_655
Na8 O43 2.359130 1_565
Na8 O19 2.410635 1_565
Na8 O22 2.478436 1_555
Na8 O24 2.523463 1_555
Na8 O6 2.590967 1_555
Na8 O13 2.763860 1_564
Na8 O14 2.919331 1_555
Na9 O40 2.359130 1_545
Na9 O16 2.410635 1_545
Na9 O21 2.478436 1_555
Na9 O27 2.523463 1_556
Na9 O5 2.590967 1_555
Na9 O14 2.763860 1_545
Na9 O13 2.919331 1_555
Na10 O47 2.359130 1_555
Na10 O23 2.410635 1_555
Na10 O18 2.478436 1_555
Na10 O28 2.523463 1_555
Na10 O2 2.590967 1_555
Na10 O9 2.763860 1_554
Na10 O10 2.919331 1_555
Na11 O44 2.359130 1_555
Na11 O20 2.410635 1_555
Na11 O17 2.478436 1_555
Na11 O31 2.523463 1_556
Na11 O1 2.590967 1_555
Na11 O10 2.763860 1_555
Na11 O9 2.919331 1_555
O0 Si9 1.613902 1_555
O0 Ti0 2.066433 1_555
O1 Si8 1.664817 1_555
O1 Ta0 2.053588 1_555
O2 Si11 1.664817 1_555
O2 Ta1 2.053588 1_555
O3 Si10 1.613902 1_555
O3 Ti1 2.066433 1_555
O4 Si5 1.613902 1_545
O4 Ti2 2.066433 1_555
O5 Si4 1.664817 1_545
O5 Ta2 2.053588 1_555
O6 Si7 1.664817 1_565
O6 Ta3 2.053588 1_555
O7 Si6 1.613902 1_565
O7 Ti3 2.066433 1_555
O8 Si2 1.656236 1_555
O8 Ta3 1.910961 1_555
O9 Si2 1.631474 1_555
O9 Ti3 1.923666 1_556
O10 Si3 1.631474 1_555
O10 Ti2 1.923666 1_555
O11 Si3 1.656236 1_555
O11 Ta2 1.910961 1_554
O12 Si0 1.656236 1_645
O12 Ta1 1.910961 1_555
O13 Si0 1.631474 1_545
O13 Ti1 1.923666 1_556
O14 Si1 1.631474 1_565
O14 Ti0 1.923666 1_555
O15 Si1 1.656236 1_665
O15 Ta0 1.910961 1_554
O16 Si4 1.626492 1_555
O16 Ti0 2.031734 1_555
O17 Si5 1.649350 1_555
O17 Ta0 2.025271 1_555
O18 Si6 1.649350 1_555
O18 Ta1 2.025271 1_555
O19 Si7 1.626492 1_555
O19 Ti1 2.031734 1_555
O20 Si8 1.626492 1_555
O20 Ti2 2.031734 1_555
O21 Si9 1.649350 1_555
O21 Ta2 2.025271 1_555
O22 Si10 1.649350 1_555
O22 Ta3 2.025271 1_555
O23 Si11 1.626492 1_555
O23 Ti3 2.031734 1_555
O24 Si4 1.659186 1_555
O24 Ta3 1.973317 1_555
O25 Si5 1.644733 1_555
O25 Ti3 1.866910 1_556
O26 Si6 1.644733 1_555
O26 Ti2 1.866910 1_555
O27 Si7 1.659186 1_555
O27 Ta2 1.973317 1_554
O28 Si8 1.659186 1_555
O28 Ta1 1.973317 1_555
O29 Si9 1.644733 1_555
O29 Ti1 1.866910 1_556
O30 Si10 1.644733 1_555
O30 Ti0 1.866910 1_555
O31 Si11 1.659186 1_555
O31 Ta0 1.973317 1_554
O32 Si4 1.634674 1_555
O32 Ti3 1.938559 1_556
O33 Si5 1.655862 1_555
O33 Ta3 1.974457 1_555
O34 Si6 1.655862 1_555
O34 Ta2 1.974457 1_554
O35 Si7 1.634674 1_555
O35 Ti2 1.938559 1_555
O36 Si8 1.634674 1_555
O36 Ti1 1.938559 1_656
O37 Si9 1.655862 1_555
O37 Ta1 1.974457 1_455
O38 Si10 1.655862 1_555
O38 Ta0 1.974457 1_454
O39 Si11 1.634674 1_555
O39 Ti0 1.938559 1_655
O40 Si0 1.627151 1_555
O40 Ti0 2.095691 1_555
O41 Si0 1.650941 1_655
O41 Ta0 2.013621 1_555
O42 Si1 1.650941 1_655
O42 Ta1 2.013621 1_555
O43 Si1 1.627151 1_555
O43 Ti1 2.095691 1_555
O44 Si2 1.627151 1_555
O44 Ti2 2.095691 1_555
O45 Si2 1.650941 1_555
O45 Ta2 2.013621 1_555
O46 Si3 1.650941 1_555
O46 Ta3 2.013621 1_555
O47 Si3 1.627151 1_555
O47 Ti3 2.095691 1_555
