# generated using pymatgen
data_Ba2PrMg(CuO2)4
_symmetry_space_group_name_H-M   'P 1'
_cell_length_a   3.77442800
_cell_length_b   4.04694571
_cell_length_c   15.02305488
_cell_angle_alpha   96.87154936
_cell_angle_beta   90.00000000
_cell_angle_gamma   90.00000000
_symmetry_Int_Tables_number   1
_chemical_formula_structural   Ba2PrMg(CuO2)4
_chemical_formula_sum   'Ba2 Pr1 Mg1 Cu4 O8'
_cell_volume   227.82738583
_cell_formula_units_Z   1
loop_
 _symmetry_equiv_pos_site_id
 _symmetry_equiv_pos_as_xyz
  1  'x, y, z'
loop_
 _atom_site_type_symbol
 _atom_site_label
 _atom_site_symmetry_multiplicity
 _atom_site_fract_x
 _atom_site_fract_y
 _atom_site_fract_z
 _atom_site_occupancy
  Ba  Ba0  1  0.50000000  0.38517100  0.74867000  1
  Ba  Ba1  1  0.50000000  0.61482900  0.25133000  1
  Pr  Pr0  1  0.50000000  0.50000000  0.00000000  1
  Mg  Mg0  1  0.50000000  0.50000000  0.50000000  1
  Cu  Cu0  1  0.00000000  0.94659100  0.88443200  1
  Cu  Cu1  1  0.00000000  0.05340900  0.11556800  1
  Cu  Cu2  1  0.00000000  0.83883100  0.58828500  1
  Cu  Cu3  1  0.00000000  0.16116900  0.41171500  1
  O  O0  1  0.00000000  0.29215800  0.55061900  1
  O  O1  1  0.00000000  0.70784200  0.44938100  1
  O  O2  1  0.00000000  0.44996300  0.89235000  1
  O  O3  1  0.00000000  0.55003700  0.10765000  1
  O  O4  1  0.50000000  0.95273000  0.89715100  1
  O  O5  1  0.50000000  0.04727000  0.10284900  1
  O  O6  1  0.00000000  0.87183500  0.71224300  1
  O  O7  1  0.00000000  0.12816500  0.28775700  1
loop_
_geom_bond_atom_site_label_1
_geom_bond_atom_site_label_2
_geom_bond_distance
_geom_bond_site_symmetry_2
Ba0 O6 2.811545 1_645
Ba0 O6 2.811545 1_545
Ba0 O6 2.828056 1_555
Ba0 O6 2.828056 1_655
Ba0 O2 2.855534 1_655
Ba0 O2 2.855534 1_555
Ba0 O4 2.995429 1_545
Ba0 O4 3.004233 1_555
Ba1 O7 2.811545 1_665
Ba1 O7 2.811545 1_565
Ba1 O7 2.828056 1_555
Ba1 O7 2.828056 1_655
Ba1 O3 2.855534 1_555
Ba1 O3 2.855534 1_655
Ba1 O5 2.995429 1_565
Ba1 O5 3.004233 1_555
Mg0 O0 2.236160 1_555
Mg0 O0 2.236160 1_655
Mg0 O1 2.236160 1_655
Mg0 O1 2.236160 1_555
Cu0 O4 1.896726 1_455
Cu0 O4 1.896726 1_555
Cu0 O2 2.026332 1_565
Cu0 O2 2.027501 1_555
Cu0 O6 2.568233 1_555
Cu1 O5 1.896726 1_455
Cu1 O5 1.896726 1_555
Cu1 O3 2.026332 1_545
Cu1 O3 2.027501 1_555
Cu1 O7 2.568233 1_555
Cu2 O6 1.851004 1_555
Cu2 O0 1.983513 1_565
Cu2 O1 2.090667 1_555
Cu2 O0 2.217015 1_555
Cu3 O7 1.851004 1_555
Cu3 O1 1.983513 1_545
Cu3 O0 2.090667 1_555
Cu3 O1 2.217015 1_555
O2 Pr0 2.477833 1_456
O2 Pr0 2.477833 1_556
O3 Pr0 2.477833 1_555
O3 Pr0 2.477833 1_455
O4 Pr0 2.534090 1_556
O4 Pr0 2.544349 1_566
O5 Pr0 2.534090 1_555
O5 Pr0 2.544349 1_545
