# generated using pymatgen
data_MgMnCo3O8
_symmetry_space_group_name_H-M   'P 1'
_cell_length_a   5.90731976
_cell_length_b   5.74232944
_cell_length_c   6.07221109
_cell_angle_alpha   61.27675257
_cell_angle_beta   123.26109876
_cell_angle_gamma   120.24036466
_symmetry_Int_Tables_number   1
_chemical_formula_structural   MgMnCo3O8
_chemical_formula_sum   'Mg1 Mn1 Co3 O8'
_cell_volume   142.72028362
_cell_formula_units_Z   1
loop_
 _symmetry_equiv_pos_site_id
 _symmetry_equiv_pos_as_xyz
  1  'x, y, z'
loop_
 _atom_site_type_symbol
 _atom_site_label
 _atom_site_symmetry_multiplicity
 _atom_site_fract_x
 _atom_site_fract_y
 _atom_site_fract_z
 _atom_site_occupancy
  Mg  Mg0  1  0.00000000  0.00000000  0.00000000  1
  Mn  Mn0  1  0.50000000  0.50000000  0.50000000  1
  Co  Co0  1  0.50000000  0.50000000  0.00000000  1
  Co  Co1  1  0.50000000  0.00000000  0.00000000  1
  Co  Co2  1  0.00000000  0.50000000  0.00000000  1
  O  O0  1  0.75618000  0.71531800  0.76723800  1
  O  O1  1  0.72469700  0.23940100  0.78203100  1
  O  O2  1  0.24419900  0.72136000  0.81081300  1
  O  O3  1  0.27345000  0.23580300  0.79998300  1
  O  O4  1  0.72655000  0.76419700  0.20001700  1
  O  O5  1  0.75580100  0.27864000  0.18918700  1
  O  O6  1  0.27530300  0.76059900  0.21796900  1
  O  O7  1  0.24382000  0.28468200  0.23276200  1
loop_
_geom_bond_atom_site_label_1
_geom_bond_atom_site_label_2
_geom_bond_distance
_geom_bond_site_symmetry_2
Mg0 O4 2.070308 1_445
Mg0 O3 2.070308 1_554
Mg0 O0 2.088219 1_444
Mg0 O7 2.088219 1_555
Mg0 O1 2.104401 1_454
Mg0 O6 2.104401 1_545
Mn0 O0 1.949924 1_555
Mn0 O7 1.949924 1_555
Mn0 O1 1.994525 1_555
Mn0 O6 1.994525 1_555
Mn0 O3 2.320248 1_555
Mn0 O4 2.320248 1_555
Co0 O3 1.873707 1_554
Co0 O4 1.873707 1_555
Co0 O5 1.961102 1_555
Co0 O2 1.961102 1_554
Co0 O7 2.144391 1_555
Co0 O0 2.144391 1_554
Co1 O3 1.887142 1_554
Co1 O4 1.887142 1_545
Co1 O2 1.894847 1_544
Co1 O5 1.894847 1_555
Co1 O6 1.934885 1_545
Co1 O1 1.934885 1_554
Co2 O7 1.866020 1_555
Co2 O0 1.866020 1_454
Co2 O2 1.893072 1_554
Co2 O5 1.893072 1_455
Co2 O6 1.930613 1_555
Co2 O1 1.930613 1_454
