# generated using pymatgen
data_La3NbP2(SO6)4
_symmetry_space_group_name_H-M   'P 1'
_cell_length_a   9.44398065
_cell_length_b   9.44713095
_cell_length_c   24.11843868
_cell_angle_alpha   89.98879187
_cell_angle_beta   89.99566889
_cell_angle_gamma   119.94999529
_symmetry_Int_Tables_number   1
_chemical_formula_structural   La3NbP2(SO6)4
_chemical_formula_sum   'La9 Nb3 P6 S12 O72'
_cell_volume   1864.46158855
_cell_formula_units_Z   3
loop_
 _symmetry_equiv_pos_site_id
 _symmetry_equiv_pos_as_xyz
  1  'x, y, z'
loop_
 _atom_site_type_symbol
 _atom_site_label
 _atom_site_symmetry_multiplicity
 _atom_site_fract_x
 _atom_site_fract_y
 _atom_site_fract_z
 _atom_site_occupancy
  La  La0  1  0.99816057  0.99944876  0.35670673  1
  La  La1  1  0.99463570  0.00159638  0.86153519  1
  La  La2  1  0.98952956  0.99550156  0.65361524  1
  La  La3  1  0.00264781  0.01233893  0.14320846  1
  La  La4  1  0.66573288  0.32721272  0.69603159  1
  La  La5  1  0.67282580  0.33517267  0.19515381  1
  La  La6  1  0.67343190  0.33804073  0.47223198  1
  La  La7  1  0.33184152  0.66580347  0.02290304  1
  La  La8  1  0.32962978  0.67053278  0.52775045  1
  Nb  Nb0  1  0.66708861  0.33372646  0.96986569  1
  Nb  Nb1  1  0.32060814  0.65838744  0.31342528  1
  Nb  Nb2  1  0.34080913  0.67241438  0.82174570  1
  P  P0  1  0.02170287  0.30650949  0.25189197  1
  P  P1  1  0.68667048  0.97492017  0.75533245  1
  P  P2  1  0.60535819  0.63991330  0.91697808  1
  P  P3  1  0.03686694  0.39671620  0.91667554  1
  P  P4  1  0.35860723  0.96540400  0.91680475  1
  P  P5  1  0.05160210  0.65985149  0.41355210  1
  S  S0  1  0.29024416  0.97508392  0.25236731  1
  S  S1  1  0.68321108  0.71112739  0.25262047  1
  S  S2  1  0.29095063  0.32030933  0.75594639  1
  S  S3  1  0.02952538  0.70899352  0.75609946  1
  S  S4  1  0.95108351  0.32365754  0.58415686  1
  S  S5  1  0.37255937  0.05245622  0.58389832  1
  S  S6  1  0.67492746  0.62460490  0.58390428  1
  S  S7  1  0.92909221  0.61200128  0.07732384  1
  S  S8  1  0.67840411  0.06995425  0.07710329  1
  S  S9  1  0.39151110  0.32009796  0.07772813  1
  S  S10  1  0.60195183  0.94341213  0.41139008  1
  S  S11  1  0.34232213  0.39618790  0.41183736  1
  O  O0  1  0.21695396  0.00667202  0.30120691  1
  O  O1  1  0.79090098  0.78280167  0.30110739  1
  O  O2  1  0.99095760  0.19860163  0.30243068  1
  O  O3  1  0.21592440  0.20824372  0.80302419  1
  O  O4  1  0.99428002  0.78584867  0.80302095  1
  O  O5  1  0.80254502  0.01023819  0.80393160  1
  O  O6  1  0.75221218  0.93469473  0.70274244  1
  O  O7  1  0.19124372  0.25591338  0.70520000  1
  O  O8  1  0.06515076  0.80890717  0.70524513  1
  O  O9  1  0.75438574  0.81385524  0.20273719  1
  O  O10  1  0.05729559  0.23365595  0.19999310  1
  O  O11  1  0.18688135  0.94109640  0.20274558  1
  O  O12  1  0.86947926  0.34291181  0.63362702  1
  O  O13  1  0.47408120  0.13565050  0.63324446  1
  O  O14  1  0.65798484  0.52520040  0.63351256  1
  O  O15  1  0.85418781  0.51574971  0.12812791  1
  O  O16  1  0.65857929  0.14396982  0.12824819  1
  O  O17  1  0.48543672  0.33859021  0.12868486  1
  O  O18  1  0.48023891  0.30601158  0.02766651  1
  O  O19  1  0.82523579  0.52170152  0.02737523  1
  O  O20  1  0.69354848  0.17424338  0.02742043  1
  O  O21  1  0.45270617  0.14600446  0.53267524  1
  O  O22  1  0.68960885  0.54386285  0.53283081  1
  O  O23  1  0.85573474  0.30812593  0.53317507  1
  O  O24  1  0.53942575  0.67269365  0.96948933  1
  O  O25  1  0.13169673  0.46157637  0.97011761  1
  O  O26  1  0.32678127  0.86778216  0.96951550  1
  O  O27  1  0.53237101  0.85167523  0.46304591  1
  O  O28  1  0.32242440  0.46906475  0.46272162  1
  O  O29  1  0.15260789  0.68253117  0.46532914  1
  O  O30  1  0.15633448  0.64729729  0.36143016  1
  O  O31  1  0.49783936  0.84678185  0.36249873  1
  O  O32  1  0.35379721  0.50239981  0.36225428  1
  O  O33  1  0.13055031  0.51899409  0.86814949  1
  O  O34  1  0.38840934  0.86904205  0.86814222  1
  O  O35  1  0.48142290  0.61087427  0.86792219  1
  O  O36  1  0.03474084  0.80889824  0.40193132  1
  O  O37  1  0.76686674  0.96581005  0.40437401  1
  O  O38  1  0.19871152  0.23359880  0.40398783  1
  O  O39  1  0.99733934  0.22450181  0.90339075  1
  O  O40  1  0.22757791  0.00461509  0.90076486  1
  O  O41  1  0.77709865  0.77043586  0.90234458  1
  O  O42  1  0.96731859  0.17630481  0.58971142  1
  O  O43  1  0.20872524  0.03449639  0.59028526  1
  O  O44  1  0.82347618  0.78806050  0.58901491  1
  O  O45  1  0.93809533  0.77264057  0.08170182  1
  O  O46  1  0.83068882  0.06053239  0.08081102  1
  O  O47  1  0.22974682  0.16776390  0.08136089  1
  O  O48  1  0.64707994  0.11151096  0.74547982  1
  O  O49  1  0.45936094  0.35355414  0.74709131  1
  O  O50  1  0.89395201  0.54138279  0.74722105  1
  O  O51  1  0.65225831  0.54341190  0.24406863  1
  O  O52  1  0.88495836  0.34538453  0.24260133  1
  O  O53  1  0.45714913  0.11137657  0.24425227  1
  O  O54  1  0.61184400  0.47365244  0.92710055  1
  O  O55  1  0.86048252  0.38583882  0.92742240  1
  O  O56  1  0.52480422  0.13868146  0.92726645  1
  O  O57  1  0.60725333  0.10160487  0.41189661  1
  O  O58  1  0.49395568  0.38906300  0.41133801  1
  O  O59  1  0.88896902  0.50012828  0.41324060  1
  O  O60  1  0.36974167  0.46306368  0.07201730  1
  O  O61  1  0.09329806  0.63230929  0.07142494  1
  O  O62  1  0.53563005  0.90594746  0.07113402  1
  O  O63  1  0.35717828  0.88809218  0.58047243  1
  O  O64  1  0.52850109  0.64302285  0.57904516  1
  O  O65  1  0.11579904  0.46999458  0.57988011  1
  O  O66  1  0.30593445  0.82447644  0.26358542  1
  O  O67  1  0.52014099  0.69838842  0.26472007  1
  O  O68  1  0.18102515  0.48108577  0.26546771  1
  O  O69  1  0.30037808  0.48200839  0.77010906  1
  O  O70  1  0.18173357  0.69893807  0.77014663  1
  O  O71  1  0.51543985  0.81478382  0.77296596  1
loop_
_geom_bond_atom_site_label_1
_geom_bond_atom_site_label_2
_geom_bond_distance
_geom_bond_site_symmetry_2
La0 O36 2.273735 1_655
La0 O2 2.320526 1_565
La0 O37 2.345292 1_555
La0 O38 2.366179 1_665
La0 O1 2.412429 1_555
La0 O0 2.434070 1_665
La1 O5 2.318625 1_555
La1 O39 2.324078 1_555
La1 O41 2.340424 1_545
La1 O40 2.381865 1_655
La1 O3 2.468786 1_655
La1 O4 2.477950 1_545
La2 O6 2.338973 1_555
La2 O44 2.379137 1_555
La2 O42 2.386159 1_565
La2 O43 2.447818 1_665
La2 O8 2.534625 1_655
La2 O7 2.559546 1_665
La3 O10 2.331809 1_555
La3 O47 2.415603 1_555
La3 O46 2.418216 1_455
La3 O45 2.514576 1_445
La3 O9 2.585184 1_445
La3 O11 2.590637 1_545
La4 O48 2.290508 1_555
La4 O13 2.361171 1_555
La4 O12 2.388370 1_555
La4 O49 2.420949 1_555
La4 O50 2.431143 1_555
La4 O14 2.431671 1_555
La5 O52 2.267111 1_555
La5 O15 2.353322 1_555
La5 O16 2.375562 1_555
La5 O51 2.383711 1_555
La5 O53 2.391610 1_555
La5 O17 2.400073 1_555
La6 O59 2.323561 1_555
La6 O22 2.375880 1_555
La6 O23 2.385478 1_555
La6 O21 2.446266 1_555
La6 O58 2.465382 1_555
La6 O57 2.470804 1_555
La7 O25 2.296948 1_554
La7 O24 2.319323 1_554
La7 O26 2.321912 1_554
La7 O61 2.415049 1_555
La7 O62 2.417802 1_555
La7 O60 2.425569 1_555
La8 O29 2.294298 1_555
La8 O63 2.318630 1_555
La8 O65 2.329515 1_555
La8 O64 2.369192 1_555
La8 O27 2.399328 1_555
La8 O28 2.441083 1_555
Nb0 O55 1.930737 1_555
Nb0 O54 1.942071 1_555
Nb0 O56 1.945550 1_555
Nb0 O20 2.152795 1_556
Nb0 O19 2.158962 1_556
Nb0 O18 2.159622 1_556
Nb1 O30 1.896234 1_555
Nb1 O68 1.917677 1_555
Nb1 O32 2.029124 1_555
Nb1 O66 2.035316 1_555
Nb1 O67 2.088560 1_555
Nb1 O31 2.096823 1_555
Nb2 O71 1.922832 1_555
Nb2 O34 2.017904 1_555
Nb2 O35 2.027966 1_555
Nb2 O70 2.060217 1_555
Nb2 O69 2.060972 1_555
Nb2 O33 2.102757 1_555
O0 S0 1.470343 1_545
O1 S1 1.474202 1_555
O2 P0 1.520917 1_655
O3 S2 1.470550 1_555
O4 S3 1.469767 1_655
O5 P1 1.522673 1_545
O6 P1 1.539898 1_555
O7 S2 1.477579 1_555
O8 S3 1.480169 1_555
O9 S1 1.479593 1_555
O10 P0 1.544267 1_555
O11 S0 1.475017 1_555
O12 S4 1.480042 1_555
O13 S5 1.483762 1_555
O14 S6 1.479370 1_555
O15 S7 1.478446 1_555
O16 S8 1.475334 1_555
O17 S9 1.474211 1_555
O18 S9 1.512926 1_555
O19 S7 1.518596 1_555
O20 S8 1.511890 1_555
O21 S5 1.487187 1_555
O22 S6 1.491430 1_555
O23 S4 1.487485 1_555
O24 P2 1.510026 1_555
O25 P3 1.513745 1_555
O26 P4 1.509898 1_555
O27 S10 1.471691 1_555
O28 S11 1.464557 1_555
O29 P5 1.520360 1_555
O30 P5 1.640020 1_555
O31 S10 1.514910 1_555
O32 S11 1.529570 1_555
O33 P3 1.570286 1_555
O34 P4 1.594248 1_555
O35 P2 1.588953 1_555
O36 P5 1.519962 1_555
O37 S10 1.473079 1_555
O38 S11 1.467877 1_555
O39 P3 1.510871 1_655
O40 P4 1.508590 1_545
O41 P2 1.509456 1_555
O42 S4 1.480652 1_555
O43 S5 1.477944 1_555
O44 S6 1.484877 1_555
O45 S7 1.480762 1_555
O46 S8 1.487312 1_555
O47 S9 1.489067 1_555
O48 P1 1.530687 1_545
O49 S2 1.474785 1_555
O50 S3 1.472521 1_655
O51 S1 1.475158 1_555
O52 P0 1.525257 1_655
O53 S0 1.467685 1_545
O54 P2 1.620596 1_555
O55 P3 1.637542 1_655
O56 P4 1.625315 1_545
O57 S10 1.470165 1_545
O58 S11 1.466837 1_555
O59 P5 1.523765 1_655
O60 S9 1.470574 1_555
O61 S7 1.471321 1_455
O62 S8 1.467499 1_565
O63 S5 1.487904 1_565
O64 S6 1.482073 1_555
O65 S4 1.481316 1_455
O66 S0 1.526405 1_555
O67 S1 1.512019 1_555
O68 P0 1.616685 1_555
O69 S2 1.523992 1_555
O70 S3 1.525280 1_555
O71 P1 1.625264 1_555
