# generated using pymatgen
data_MgFe6O7F5
_symmetry_space_group_name_H-M   'P 1'
_cell_length_a   8.31129623
_cell_length_b   5.98083281
_cell_length_c   5.77603537
_cell_angle_alpha   66.47300940
_cell_angle_beta   65.89888315
_cell_angle_gamma   63.33553596
_symmetry_Int_Tables_number   1
_chemical_formula_structural   MgFe6O7F5
_chemical_formula_sum   'Mg1 Fe6 O7 F5'
_cell_volume   225.86126428
_cell_formula_units_Z   1
loop_
 _symmetry_equiv_pos_site_id
 _symmetry_equiv_pos_as_xyz
  1  'x, y, z'
loop_
 _atom_site_type_symbol
 _atom_site_label
 _atom_site_symmetry_multiplicity
 _atom_site_fract_x
 _atom_site_fract_y
 _atom_site_fract_z
 _atom_site_occupancy
  Mg  Mg0  1  0.34075465  0.16007820  0.65639757  1
  Fe  Fe0  1  0.86146348  0.69468569  0.69484690  1
  Fe  Fe1  1  0.68384706  0.34745493  0.35498230  1
  Fe  Fe2  1  0.30839632  0.66785359  0.67752335  1
  Fe  Fe3  1  0.11791590  0.28230335  0.30442032  1
  Fe  Fe4  1  0.53537881  0.01395292  0.03520373  1
  Fe  Fe5  1  0.98694424  0.02265401  0.97176441  1
  O  O0  1  0.62339606  0.04801367  0.64344463  1
  O  O1  1  0.30382234  0.32379203  0.94700808  1
  O  O2  1  0.95293641  0.18273534  0.24264065  1
  O  O3  1  0.04331834  0.81452549  0.74377636  1
  O  O4  1  0.35095600  0.99660697  0.39489085  1
  O  O5  1  0.67609172  0.65740209  0.07334586  1
  O  O6  1  0.04654081  0.30836131  0.67372085  1
  F  F0  1  0.27845407  0.85346744  0.93287427  1
  F  F1  1  0.59534546  0.53772740  0.62168786  1
  F  F2  1  0.38091322  0.48345684  0.40462552  1
  F  F3  1  0.70121058  0.14978972  0.08039493  1
  F  F4  1  0.97898152  0.68133001  0.27263957  1
loop_
_geom_bond_atom_site_label_1
_geom_bond_atom_site_label_2
_geom_bond_distance
_geom_bond_site_symmetry_2
Mg0 O4 2.060246 1_545
Mg0 O0 2.111049 1_555
Mg0 O1 2.119475 1_555
Mg0 O6 2.168092 1_555
Fe0 O3 2.088292 1_655
Fe0 O5 2.090761 1_556
Fe0 O6 2.145109 1_655
Fe0 O0 2.166763 1_565
Fe1 O5 1.912508 1_555
Fe1 O2 1.934186 1_555
Fe1 O0 1.994378 1_555
Fe2 O3 1.901221 1_555
Fe2 O1 2.030626 1_555
Fe2 O4 2.060629 1_555
Fe3 O2 1.914226 1_455
Fe3 O1 2.010195 1_554
Fe3 O6 2.018730 1_555
Fe3 O4 2.021763 1_545
Fe4 O5 1.886977 1_545
Fe4 O4 2.011564 1_545
Fe4 O0 2.027513 1_554
Fe4 O1 2.059960 1_554
Fe5 O3 1.945369 1_645
Fe5 O6 1.960506 1_655
Fe5 O2 2.009069 1_556
F0 Mg0 2.005009 1_565
F0 Fe2 2.056491 1_555
F0 Fe5 2.116846 1_465
F1 Fe1 1.982948 1_555
F1 Fe2 2.074576 1_555
F2 Mg0 1.975945 1_555
F2 Fe2 2.019785 1_555
F2 Fe1 2.200343 1_555
F3 Fe4 2.023838 1_555
F3 Fe5 2.038347 1_554
F3 Fe1 2.256277 1_555
F4 Fe5 2.094486 1_564
F4 Fe3 2.100597 1_655
F4 Fe0 2.246717 1_555
