# generated using pymatgen
data_CsBeH3
_symmetry_space_group_name_H-M   'P 1'
_cell_length_a   5.07066973
_cell_length_b   5.91286537
_cell_length_c   7.80634952
_cell_angle_alpha   90.00000000
_cell_angle_beta   108.86384796
_cell_angle_gamma   90.00000000
_symmetry_Int_Tables_number   1
_chemical_formula_structural   CsBeH3
_chemical_formula_sum   'Cs2 Be2 H6'
_cell_volume   221.48042744
_cell_formula_units_Z   2
loop_
 _symmetry_equiv_pos_site_id
 _symmetry_equiv_pos_as_xyz
  1  'x, y, z'
loop_
 _atom_site_type_symbol
 _atom_site_label
 _atom_site_symmetry_multiplicity
 _atom_site_fract_x
 _atom_site_fract_y
 _atom_site_fract_z
 _atom_site_occupancy
  Cs  Cs0  1  0.81859242  0.25000000  0.23178819  1
  Cs  Cs1  1  0.18140758  0.75000000  0.76821181  1
  Be  Be0  1  0.23690673  0.75000000  0.23883906  1
  Be  Be1  1  0.76309327  0.25000000  0.76116094  1
  H  H0  1  0.69731844  0.04534343  0.82830883  1
  H  H1  1  0.30268156  0.54534343  0.17169117  1
  H  H2  1  0.30268156  0.95465657  0.17169117  1
  H  H3  1  0.69731844  0.45465657  0.82830883  1
  H  H4  1  0.91289956  0.25000000  0.63833874  1
  H  H5  1  0.08710044  0.75000000  0.36166126  1
loop_
_geom_bond_atom_site_label_1
_geom_bond_atom_site_label_2
_geom_bond_distance
_geom_bond_site_symmetry_2
Cs0 H4 3.052788 1_555
Cs0 H2 3.052813 1_545
Cs0 H1 3.052813 1_555
Cs0 H2 3.168554 1_645
Cs0 H1 3.168554 1_655
Cs0 H3 3.242015 1_554
Cs0 H0 3.242015 1_554
Cs0 H5 3.275590 1_645
Cs0 H5 3.275590 1_655
Cs1 H5 3.052788 1_555
Cs1 H0 3.052813 1_565
Cs1 H3 3.052813 1_555
Cs1 H0 3.168554 1_465
Cs1 H3 3.168554 1_455
Cs1 H2 3.242015 1_556
Cs1 H1 3.242015 1_556
Cs1 H4 3.275590 1_465
Cs1 H4 3.275590 1_455
Be0 H2 1.401217 1_555
Be0 H1 1.401217 1_555
Be0 H5 1.402592 1_555
Be1 H3 1.401217 1_555
Be1 H0 1.401217 1_555
Be1 H4 1.402592 1_555
