# generated using pymatgen
data_Na2PtO2
_symmetry_space_group_name_H-M   'P 1'
_cell_length_a   5.46705557
_cell_length_b   5.46705557
_cell_length_c   5.46705557
_cell_angle_alpha   146.62241930
_cell_angle_beta   130.77133306
_cell_angle_gamma   60.78389731
_symmetry_Int_Tables_number   1
_chemical_formula_structural   Na2PtO2
_chemical_formula_sum   'Na2 Pt1 O2'
_cell_volume   67.43566227
_cell_formula_units_Z   1
loop_
 _symmetry_equiv_pos_site_id
 _symmetry_equiv_pos_as_xyz
  1  'x, y, z'
loop_
 _atom_site_type_symbol
 _atom_site_label
 _atom_site_symmetry_multiplicity
 _atom_site_fract_x
 _atom_site_fract_y
 _atom_site_fract_z
 _atom_site_occupancy
  Na  Na0  1  0.67650375  0.67650375  -0.00000000  1
  Na  Na1  1  0.32349625  0.32349625  0.00000000  1
  Pt  Pt0  1  -0.00000000  -0.00000000  -0.00000000  1
  O  O0  1  0.85952952  0.35952952  0.50000000  1
  O  O1  1  0.14047048  0.64047048  0.50000000  1
loop_
_geom_bond_atom_site_label_1
_geom_bond_atom_site_label_2
_geom_bond_distance
_geom_bond_site_symmetry_2
Na0 O1 2.302295 1_554
Na0 O1 2.302295 1_655
Na0 O0 2.333394 1_565
Na0 O0 2.333394 1_554
Na1 O0 2.302295 1_454
Na1 O0 2.302295 1_555
Na1 O1 2.333394 1_555
Na1 O1 2.333394 1_544
O0 Pt0 2.054295 1_655
O0 Pt0 2.054295 1_666
O1 Pt0 2.054295 1_555
O1 Pt0 2.054295 1_566
