# generated using pymatgen
data_Bi3IO4
_symmetry_space_group_name_H-M   'P 1'
_cell_length_a   5.62525340
_cell_length_b   5.62658607
_cell_length_c   19.44639727
_cell_angle_alpha   90.00000000
_cell_angle_beta   90.00000000
_cell_angle_gamma   90.00000000
_symmetry_Int_Tables_number   1
_chemical_formula_structural   Bi3IO4
_chemical_formula_sum   'Bi12 I4 O16'
_cell_volume   615.49738367
_cell_formula_units_Z   4
loop_
 _symmetry_equiv_pos_site_id
 _symmetry_equiv_pos_as_xyz
  1  'x, y, z'
loop_
 _atom_site_type_symbol
 _atom_site_label
 _atom_site_symmetry_multiplicity
 _atom_site_fract_x
 _atom_site_fract_y
 _atom_site_fract_z
 _atom_site_occupancy
  Bi  Bi0  1  0.25208075  0.25000312  0.86976190  1
  Bi  Bi1  1  0.25208075  0.24999688  0.63023810  1
  Bi  Bi2  1  0.25000000  0.74980362  -0.00000000  1
  Bi  Bi3  1  0.25000000  0.75019638  0.50000000  1
  Bi  Bi4  1  0.24791925  0.24999688  0.36976190  1
  Bi  Bi5  1  0.24791925  0.25000312  0.13023810  1
  Bi  Bi6  1  0.75208075  0.75000312  0.63023810  1
  Bi  Bi7  1  0.75208075  0.74999688  0.86976190  1
  Bi  Bi8  1  0.75000000  0.25019638  -0.00000000  1
  Bi  Bi9  1  0.75000000  0.24980362  0.50000000  1
  Bi  Bi10  1  0.74791925  0.74999688  0.13023810  1
  Bi  Bi11  1  0.74791925  0.75000312  0.36976190  1
  I  I0  1  0.25771375  0.75000000  0.75000000  1
  I  I1  1  0.24228625  0.75000000  0.25000000  1
  I  I2  1  0.75771375  0.25000000  0.75000000  1
  I  I3  1  0.74228625  0.25000000  0.25000000  1
  O  O0  1  0.99772815  0.50056322  0.42448364  1
  O  O1  1  0.99772815  0.99943678  0.07551636  1
  O  O2  1  0.00208650  0.49943094  0.92447978  1
  O  O3  1  0.00208650  0.00056906  0.57552022  1
  O  O4  1  0.49791350  0.00056906  0.42447978  1
  O  O5  1  0.49791350  0.49943094  0.07552022  1
  O  O6  1  0.50227185  0.50056322  0.57551636  1
  O  O7  1  0.50227185  0.99943678  0.92448364  1
  O  O8  1  0.49772815  0.00056322  0.07551636  1
  O  O9  1  0.49772815  0.49943678  0.42448364  1
  O  O10  1  0.50208650  0.50056906  0.92447978  1
  O  O11  1  0.50208650  0.99943094  0.57552022  1
  O  O12  1  0.99791350  0.50056906  0.07552022  1
  O  O13  1  0.99791350  0.99943094  0.42447978  1
  O  O14  1  0.00227185  0.00056322  0.92448364  1
  O  O15  1  0.00227185  0.49943678  0.57551636  1
loop_
_geom_bond_atom_site_label_1
_geom_bond_atom_site_label_2
_geom_bond_distance
_geom_bond_site_symmetry_2
Bi0 O14 2.253195 1_555
Bi0 O2 2.253768 1_555
Bi0 O10 2.257801 1_555
Bi0 O7 2.258488 1_545
Bi1 O15 2.253195 1_555
Bi1 O3 2.253768 1_555
Bi1 O11 2.257801 1_545
Bi1 O6 2.258488 1_555
Bi2 O5 2.467018 1_555
Bi2 O2 2.467018 1_554
Bi2 O14 2.467628 1_564
Bi2 O8 2.467628 1_565
Bi2 O12 2.476731 1_455
Bi2 O10 2.476731 1_554
Bi2 O7 2.478554 1_554
Bi2 O1 2.478554 1_455
Bi3 O4 2.467018 1_565
Bi3 O3 2.467018 1_565
Bi3 O9 2.467628 1_555
Bi3 O15 2.467628 1_555
Bi3 O13 2.476731 1_455
Bi3 O11 2.476731 1_555
Bi3 O0 2.478554 1_455
Bi3 O6 2.478554 1_555
Bi4 O9 2.253195 1_555
Bi4 O4 2.253768 1_555
Bi4 O13 2.257801 1_445
Bi4 O0 2.258488 1_455
Bi5 O8 2.253195 1_555
Bi5 O5 2.253768 1_555
Bi5 O12 2.257801 1_455
Bi5 O1 2.258488 1_445
Bi6 O6 2.253195 1_555
Bi6 O11 2.253768 1_555
Bi6 O3 2.257801 1_665
Bi6 O15 2.258488 1_655
Bi7 O7 2.253195 1_555
Bi7 O10 2.253768 1_555
Bi7 O2 2.257801 1_655
Bi7 O14 2.258488 1_665
Bi8 O12 2.467018 1_555
Bi8 O10 2.467018 1_554
Bi8 O7 2.467628 1_544
Bi8 O1 2.467628 1_545
Bi8 O2 2.476731 1_654
Bi8 O5 2.476731 1_555
Bi8 O14 2.478554 1_654
Bi8 O8 2.478554 1_555
Bi9 O13 2.467018 1_545
Bi9 O11 2.467018 1_545
Bi9 O0 2.467628 1_555
Bi9 O6 2.467628 1_555
Bi9 O3 2.476731 1_655
Bi9 O4 2.476731 1_555
Bi9 O9 2.478554 1_555
Bi9 O15 2.478554 1_655
Bi10 O1 2.253195 1_555
Bi10 O12 2.253768 1_555
Bi10 O5 2.257801 1_555
Bi10 O8 2.258488 1_565
Bi11 O0 2.253195 1_555
Bi11 O13 2.253768 1_555
Bi11 O4 2.257801 1_565
Bi11 O9 2.258488 1_555
