# generated using pymatgen
data_MgNbCrO4
_symmetry_space_group_name_H-M   'P 1'
_cell_length_a   3.04774127
_cell_length_b   5.43762810
_cell_length_c   5.70127504
_cell_angle_alpha   107.91119557
_cell_angle_beta   90.00000000
_cell_angle_gamma   90.00000000
_symmetry_Int_Tables_number   1
_chemical_formula_structural   MgNbCrO4
_chemical_formula_sum   'Mg1 Nb1 Cr1 O4'
_cell_volume   89.90504243
_cell_formula_units_Z   1
loop_
 _symmetry_equiv_pos_site_id
 _symmetry_equiv_pos_as_xyz
  1  'x, y, z'
loop_
 _atom_site_type_symbol
 _atom_site_label
 _atom_site_symmetry_multiplicity
 _atom_site_fract_x
 _atom_site_fract_y
 _atom_site_fract_z
 _atom_site_occupancy
  Mg  Mg0  1  0.47080551  0.50000000  0.00000000  1
  Nb  Nb0  1  0.97072666  0.00000000  0.00000000  1
  Cr  Cr0  1  0.46940170  0.50000000  0.50000000  1
  O  O0  1  0.96969590  0.60003340  0.77118504  1
  O  O1  1  0.47067067  0.88478934  0.18326835  1
  O  O2  1  0.47067067  0.11521066  0.81673165  1
  O  O3  1  0.96969590  0.39996660  0.22881496  1
loop_
_geom_bond_atom_site_label_1
_geom_bond_atom_site_label_2
_geom_bond_distance
_geom_bond_site_symmetry_2
Mg0 O2 2.030991 1_554
Mg0 O1 2.030991 1_555
Mg0 O3 2.178541 1_555
Mg0 O0 2.178541 1_554
Mg0 O3 2.183267 1_455
Mg0 O0 2.183267 1_454
Nb0 O2 2.051461 1_654
Nb0 O1 2.051461 1_645
Nb0 O2 2.051714 1_554
Nb0 O1 2.051714 1_545
Nb0 O0 2.164894 1_544
Nb0 O3 2.164894 1_555
Cr0 O0 2.118601 1_455
Cr0 O3 2.118601 1_455
Cr0 O0 2.119890 1_555
Cr0 O3 2.119890 1_555
