# generated using pymatgen
data_Li2Fe(PO4)2
_symmetry_space_group_name_H-M   'P 1'
_cell_length_a   4.87953820
_cell_length_b   4.87953820
_cell_length_c   6.41052979
_cell_angle_alpha   88.96508128
_cell_angle_beta   88.96508128
_cell_angle_gamma   66.70408137
_symmetry_Int_Tables_number   1
_chemical_formula_structural   Li2Fe(PO4)2
_chemical_formula_sum   'Li2 Fe1 P2 O8'
_cell_volume   140.15769483
_cell_formula_units_Z   1
loop_
 _symmetry_equiv_pos_site_id
 _symmetry_equiv_pos_as_xyz
  1  'x, y, z'
loop_
 _atom_site_type_symbol
 _atom_site_label
 _atom_site_symmetry_multiplicity
 _atom_site_fract_x
 _atom_site_fract_y
 _atom_site_fract_z
 _atom_site_occupancy
  Li  Li0  1  0.49717300  0.49717300  0.48800600  1
  Li  Li1  1  0.82429300  0.82429300  0.72934900  1
  Fe  Fe0  1  0.49708900  0.49708900  0.00865100  1
  P  P0  1  0.14877100  0.14877100  0.76516000  1
  P  P1  1  0.85408800  0.85408800  0.23291500  1
  O  O0  1  0.26642100  0.79983200  0.77047200  1
  O  O1  1  0.26029200  0.26029200  0.95608200  1
  O  O2  1  0.25419400  0.25419400  0.56438900  1
  O  O3  1  0.20019600  0.72608600  0.22828100  1
  O  O4  1  0.72608600  0.20019600  0.22828100  1
  O  O5  1  0.75298600  0.75298600  0.44009600  1
  O  O6  1  0.79983200  0.26642100  0.77047200  1
  O  O7  1  0.74111700  0.74111700  0.03907900  1
loop_
_geom_bond_atom_site_label_1
_geom_bond_atom_site_label_2
_geom_bond_distance
_geom_bond_site_symmetry_2
Li0 O2 2.030048 1_555
Li0 O5 2.101261 1_555
Li0 O3 2.204410 1_555
Li0 O4 2.204410 1_555
Li0 O0 2.331388 1_555
Li0 O6 2.331388 1_555
Li1 O5 1.955199 1_555
Li1 O7 2.084192 1_556
Li1 O0 2.133956 1_655
Li1 O6 2.133956 1_565
Fe0 O1 1.966691 1_554
Fe0 O7 2.003010 1_555
Fe0 O3 2.008080 1_555
Fe0 O4 2.008080 1_555
Fe0 O0 2.108522 1_554
Fe0 O6 2.108522 1_554
O0 P0 1.566927 1_565
O1 P0 1.540306 1_555
O2 P0 1.532062 1_555
O3 P1 1.551684 1_455
O4 P1 1.551684 1_545
O5 P1 1.547860 1_555
O6 P0 1.566927 1_655
O7 P1 1.562567 1_555
