# generated using pymatgen
data_MgMn3CuO8
_symmetry_space_group_name_H-M   'P 1'
_cell_length_a   10.58613060
_cell_length_b   10.58642485
_cell_length_c   15.04252356
_cell_angle_alpha   18.67703767
_cell_angle_beta   18.65257088
_cell_angle_gamma   32.19217484
_symmetry_Int_Tables_number   1
_chemical_formula_structural   MgMn3CuO8
_chemical_formula_sum   'Mg1 Mn3 Cu1 O8'
_cell_volume   149.42626101
_cell_formula_units_Z   1
loop_
 _symmetry_equiv_pos_site_id
 _symmetry_equiv_pos_as_xyz
  1  'x, y, z'
loop_
 _atom_site_type_symbol
 _atom_site_label
 _atom_site_symmetry_multiplicity
 _atom_site_fract_x
 _atom_site_fract_y
 _atom_site_fract_z
 _atom_site_occupancy
  Mg  Mg0  1  0.99997900  0.00001000  0.50000800  1
  Mn  Mn0  1  0.00004300  0.50005100  0.99992800  1
  Mn  Mn1  1  0.49997800  0.99996600  0.00004700  1
  Mn  Mn2  1  0.50002500  0.49994300  0.00002000  1
  Cu  Cu0  1  0.99999000  0.00000800  0.99999600  1
  O  O0  1  0.00003900  0.00058200  0.26706600  1
  O  O1  1  0.00016200  0.45651600  0.29236300  1
  O  O2  1  0.46013200  0.00054700  0.29019900  1
  O  O3  1  0.99998600  0.99940400  0.73292600  1
  O  O4  1  0.53970300  0.54008900  0.21084800  1
  O  O5  1  0.99983600  0.54351200  0.70762000  1
  O  O6  1  0.53983400  0.99945400  0.70982400  1
  O  O7  1  0.46029200  0.45991500  0.78915400  1
loop_
_geom_bond_atom_site_label_1
_geom_bond_atom_site_label_2
_geom_bond_distance
_geom_bond_site_symmetry_2
Mg0 O1 2.125046 1_655
Mg0 O5 2.125086 1_545
Mg0 O4 2.137119 1_546
Mg0 O7 2.137145 1_654
Mg0 O6 2.137665 1_545
Mg0 O2 2.137704 1_655
Mn0 O2 1.934599 1_565
Mn0 O6 1.935069 1_446
Mn0 O4 1.935812 1_456
Mn0 O7 1.935873 1_555
Mn0 O3 1.961698 1_455
Mn0 O0 1.961811 1_556
Mn1 O5 1.933313 1_455
Mn1 O1 1.933653 1_664
Mn1 O7 1.935438 1_564
Mn1 O4 1.935441 1_555
Mn1 O3 1.962617 1_554
Mn1 O0 1.962647 1_565
Mn2 O5 1.934173 1_554
Mn2 O1 1.934470 1_555
Mn2 O2 1.935027 1_555
Mn2 O6 1.935489 1_554
Mn2 O3 1.961127 1_445
Mn2 O0 1.961222 1_664
Cu0 O4 2.102989 1_655
Cu0 O7 2.103074 1_546
Cu0 O2 2.105779 1_556
Cu0 O6 2.105847 1_645
Cu0 O1 2.121430 1_646
Cu0 O5 2.121521 1_555
