# generated using pymatgen
data_Ce4As3
_symmetry_space_group_name_H-M   'P 1'
_cell_length_a   7.89174250
_cell_length_b   7.89132477
_cell_length_c   7.89182546
_cell_angle_alpha   109.47492252
_cell_angle_beta   109.47187806
_cell_angle_gamma   109.46939216
_symmetry_Int_Tables_number   1
_chemical_formula_structural   Ce4As3
_chemical_formula_sum   'Ce8 As6'
_cell_volume   378.32482319
_cell_formula_units_Z   2
loop_
 _symmetry_equiv_pos_site_id
 _symmetry_equiv_pos_as_xyz
  1  'x, y, z'
loop_
 _atom_site_type_symbol
 _atom_site_label
 _atom_site_symmetry_multiplicity
 _atom_site_fract_x
 _atom_site_fract_y
 _atom_site_fract_z
 _atom_site_occupancy
  Ce  Ce0  1  0.13611575  0.13611042  0.13611145  1
  Ce  Ce1  1  0.86389692  0.49999148  0.00001360  1
  Ce  Ce2  1  -0.00001795  0.86385583  0.49998481  1
  Ce  Ce3  1  0.50000860  0.00001375  0.86385275  1
  Ce  Ce4  1  0.00001038  0.36390844  0.50002517  1
  Ce  Ce5  1  0.49998217  -0.00002838  0.36385045  1
  Ce  Ce6  1  0.36390826  0.50002037  0.00002815  1
  Ce  Ce7  1  0.63610710  0.63611882  0.63614612  1
  As  As0  1  0.25002149  0.62501756  0.37501245  1
  As  As1  1  0.37500610  0.25000900  0.62500647  1
  As  As2  1  0.12497014  0.74998277  0.87498239  1
  As  As3  1  0.87501107  0.12500530  0.75000335  1
  As  As4  1  0.62500191  0.37499799  0.25000557  1
  As  As5  1  0.74997805  0.87499766  0.12497926  1
loop_
_geom_bond_atom_site_label_1
_geom_bond_atom_site_label_2
_geom_bond_distance
_geom_bond_site_symmetry_2
As0 Ce5 3.008790 1_565
As0 Ce7 3.008934 1_555
As0 Ce1 3.008961 1_455
As0 Ce4 3.009151 1_555
As0 Ce3 3.309688 1_565
As0 Ce0 3.309956 1_555
As0 Ce2 3.309964 1_555
As0 Ce6 3.309994 1_555
As1 Ce7 3.008777 1_555
As1 Ce6 3.008974 1_556
As1 Ce5 3.009079 1_555
As1 Ce2 3.009159 1_545
As1 Ce3 3.309861 1_555
As1 Ce4 3.310112 1_555
As1 Ce1 3.310131 1_556
As1 Ce0 3.310146 1_555
As2 Ce4 3.008521 1_555
As2 Ce0 3.008761 1_566
As2 Ce1 3.009023 1_456
As2 Ce3 3.009431 1_565
As2 Ce7 3.309983 1_455
As2 Ce5 3.309987 1_566
As2 Ce2 3.310066 1_555
As2 Ce6 3.310162 1_556
As3 Ce1 3.008723 1_556
As3 Ce2 3.008929 1_645
As3 Ce0 3.008992 1_656
As3 Ce5 3.009196 1_555
As3 Ce3 3.310003 1_555
As3 Ce7 3.310031 1_545
As3 Ce4 3.310112 1_655
As3 Ce6 3.310132 1_656
As4 Ce3 3.008912 1_554
As4 Ce6 3.008938 1_555
As4 Ce4 3.008992 1_655
As4 Ce7 3.009094 1_555
As4 Ce2 3.309757 1_655
As4 Ce5 3.310060 1_555
As4 Ce0 3.310127 1_555
As4 Ce1 3.310175 1_555
As5 Ce6 3.008780 1_555
As5 Ce3 3.009019 1_564
As5 Ce0 3.009100 1_665
As5 Ce2 3.009189 1_655
As5 Ce7 3.309691 1_554
As5 Ce5 3.309920 1_565
As5 Ce4 3.310064 1_665
As5 Ce1 3.310112 1_555
