# generated using pymatgen
data_Na2Hf4Nb4Si7S5O48
_symmetry_space_group_name_H-M   'P 1'
_cell_length_a   17.86765650
_cell_length_b   8.94624821
_cell_length_c   23.16022567
_cell_angle_alpha   90.01158314
_cell_angle_beta   89.08014736
_cell_angle_gamma   120.05256095
_symmetry_Int_Tables_number   1
_chemical_formula_structural   Na2Hf4Nb4Si7S5O48
_chemical_formula_sum   'Na6 Hf12 Nb12 Si21 S15 O144'
_cell_volume   3203.89233356
_cell_formula_units_Z   3
loop_
 _symmetry_equiv_pos_site_id
 _symmetry_equiv_pos_as_xyz
  1  'x, y, z'
loop_
 _atom_site_type_symbol
 _atom_site_label
 _atom_site_symmetry_multiplicity
 _atom_site_fract_x
 _atom_site_fract_y
 _atom_site_fract_z
 _atom_site_occupancy
  Na  Na0  1  0.99286344  0.00477743  0.49803574  1
  Na  Na1  1  0.49220868  0.97849571  0.00378631  1
  Na  Na2  1  0.32494234  0.33126151  0.83944201  1
  Na  Na3  1  0.82357980  0.32835363  0.83824080  1
  Na  Na4  1  0.32736568  0.32140877  0.33498446  1
  Na  Na5  1  0.82262755  0.31574474  0.33784268  1
  Hf  Hf0  1  0.00378775  0.01170233  0.35771061  1
  Hf  Hf1  1  0.50530065  0.99740793  0.85880257  1
  Hf  Hf2  1  0.00090514  0.01394563  0.64403376  1
  Hf  Hf3  1  0.50116646  0.99680199  0.14712373  1
  Hf  Hf4  1  0.33372205  0.33749271  0.97998681  1
  Hf  Hf5  1  0.83431091  0.33538395  0.97894451  1
  Hf  Hf6  1  0.33665299  0.33655434  0.47686299  1
  Hf  Hf7  1  0.83470148  0.33131034  0.47774519  1
  Hf  Hf8  1  0.17292998  0.68091498  0.31099110  1
  Hf  Hf9  1  0.66951319  0.67344723  0.30935523  1
  Hf  Hf10  1  0.17415474  0.66638071  0.81177284  1
  Hf  Hf11  1  0.67185894  0.66428643  0.81175522  1
  Nb  Nb0  1  0.50527155  0.02457388  0.35822010  1
  Nb  Nb1  1  0.00684933  0.00217800  0.86161863  1
  Nb  Nb2  1  0.50299044  0.01853058  0.64129563  1
  Nb  Nb3  1  0.00317922  0.98755629  0.14118761  1
  Nb  Nb4  1  0.33208211  0.34434072  0.68567328  1
  Nb  Nb5  1  0.83501995  0.34937764  0.68521798  1
  Nb  Nb6  1  0.34056077  0.32113360  0.18915882  1
  Nb  Nb7  1  0.83177487  0.32039614  0.18643988  1
  Nb  Nb8  1  0.17390442  0.69317575  0.02487636  1
  Nb  Nb9  1  0.67258814  0.69234867  0.02446753  1
  Nb  Nb10  1  0.17306392  0.65298053  0.52305235  1
  Nb  Nb11  1  0.67183381  0.65218574  0.52191478  1
  Si  Si0  1  0.14365556  0.00218829  0.24989084  1
  Si  Si1  1  0.64276848  0.00143749  0.25033090  1
  Si  Si2  1  0.50377436  0.29028146  0.24957917  1
  Si  Si3  1  0.14347803  0.28504709  0.75019966  1
  Si  Si4  1  0.64381317  0.28639196  0.75004880  1
  Si  Si5  1  0.47638087  0.34376670  0.58182932  1
  Si  Si6  1  0.97797735  0.33872275  0.58127702  1
  Si  Si7  1  0.33823822  0.62781384  0.58232269  1
  Si  Si8  1  0.83772676  0.62821067  0.58061262  1
  Si  Si9  1  0.47683450  0.62165111  0.08190683  1
  Si  Si10  1  0.97593492  0.60945704  0.08204133  1
  Si  Si11  1  0.34029929  0.05245303  0.08163759  1
  Si  Si12  1  0.83852249  0.05019970  0.08274207  1
  Si  Si13  1  0.31055576  0.66496720  0.91723360  1
  Si  Si14  1  0.80906561  0.66272290  0.91615796  1
  Si  Si15  1  0.17231199  0.95586400  0.91492130  1
  Si  Si16  1  0.66955289  0.95732959  0.91486248  1
  Si  Si17  1  0.31040081  0.95405387  0.41610592  1
  Si  Si18  1  0.80966553  0.95302162  0.41568083  1
  Si  Si19  1  0.16871967  0.37923827  0.41420525  1
  Si  Si20  1  0.67182375  0.38493923  0.41406262  1
  S  S0  1  0.35680488  0.70744205  0.25089909  1
  S  S1  1  0.85911833  0.71221718  0.24916074  1
  S  S2  1  0.99907230  0.28710348  0.24937529  1
  S  S3  1  0.99926185  0.71273560  0.75092923  1
  S  S4  1  0.49896430  0.71128868  0.74938116  1
  S  S5  1  0.35850470  0.00574393  0.74936878  1
  S  S6  1  0.85753643  0.00597188  0.75094648  1
  S  S7  1  0.19030864  0.04581982  0.58370988  1
  S  S8  1  0.69017925  0.04514578  0.58490564  1
  S  S9  1  0.18924463  0.33712862  0.08458398  1
  S  S10  1  0.69010782  0.33533785  0.08341635  1
  S  S11  1  0.02389762  0.37985193  0.91591044  1
  S  S12  1  0.52352064  0.37975621  0.91654775  1
  S  S13  1  0.02441350  0.66840120  0.41674030  1
  S  S14  1  0.52521525  0.67166907  0.41669697  1
  O  O0  1  0.09663353  0.03150661  0.30551614  1
  O  O1  1  0.59408705  0.02882538  0.30717134  1
  O  O2  1  0.40923708  0.78561307  0.30196739  1
  O  O3  1  0.91170682  0.79125873  0.30032220  1
  O  O4  1  0.48325786  0.16356452  0.30754739  1
  O  O5  1  0.98072876  0.17686304  0.30177195  1
  O  O6  1  0.09339145  0.15921894  0.80700338  1
  O  O7  1  0.59785769  0.16219922  0.80542669  1
  O  O8  1  0.48081174  0.78506299  0.80174960  1
  O  O9  1  0.98223795  0.78941489  0.80309048  1
  O  O10  1  0.41028155  0.02991188  0.80053602  1
  O  O11  1  0.91049659  0.03039723  0.80174944  1
  O  O12  1  0.39982516  0.97997909  0.69671839  1
  O  O13  1  0.89733683  0.97866913  0.69808490  1
  O  O14  1  0.08728143  0.18849931  0.69467138  1
  O  O15  1  0.58437473  0.18104206  0.69367324  1
  O  O16  1  0.00936352  0.81349639  0.69865681  1
  O  O17  1  0.50980836  0.81558493  0.69759693  1
  O  O18  1  0.39596896  0.81215717  0.19786733  1
  O  O19  1  0.90156699  0.82063368  0.19645785  1
  O  O20  1  0.00978520  0.20407140  0.19752006  1
  O  O21  1  0.50960071  0.19351723  0.19307319  1
  O  O22  1  0.08299929  0.98545293  0.19353145  1
  O  O23  1  0.58873665  0.98098820  0.19328822  1
  O  O24  1  0.42564681  0.35575906  0.64081453  1
  O  O25  1  0.92665422  0.35503244  0.64002174  1
  O  O26  1  0.24356641  0.13075656  0.63600028  1
  O  O27  1  0.74389251  0.12959160  0.63647950  1
  O  O28  1  0.31858688  0.49958936  0.64061069  1
  O  O29  1  0.82020035  0.50211786  0.63966618  1
  O  O30  1  0.42648438  0.49883220  0.13951737  1
  O  O31  1  0.92613848  0.49617071  0.14046404  1
  O  O32  1  0.32122473  0.13783517  0.13992603  1
  O  O33  1  0.81860160  0.13906742  0.14041428  1
  O  O34  1  0.24185873  0.36374835  0.13563878  1
  O  O35  1  0.74355009  0.35815483  0.13527576  1
  O  O36  1  0.22499073  0.29890060  0.03237631  1
  O  O37  1  0.73038644  0.30608078  0.03135566  1
  O  O38  1  0.41678963  0.53235854  0.02671164  1
  O  O39  1  0.91606442  0.53409759  0.02708910  1
  O  O40  1  0.34628618  0.16284903  0.02574133  1
  O  O41  1  0.85210303  0.16797540  0.02766068  1
  O  O42  1  0.22844468  0.15589892  0.53211023  1
  O  O43  1  0.72604528  0.15454785  0.53314572  1
  O  O44  1  0.35197169  0.53514162  0.52816208  1
  O  O45  1  0.84823508  0.53071302  0.52639427  1
  O  O46  1  0.41454155  0.29550993  0.52806847  1
  O  O47  1  0.91577318  0.29980245  0.52761241  1
  O  O48  1  0.25789056  0.68206488  0.97411294  1
  O  O49  1  0.76082264  0.68751195  0.97315480  1
  O  O50  1  0.07439557  0.45086869  0.96760304  1
  O  O51  1  0.57511624  0.45573048  0.96813564  1
  O  O52  1  0.15348504  0.83459288  0.97327972  1
  O  O53  1  0.65578643  0.83718618  0.97386479  1
  O  O54  1  0.25848312  0.83234090  0.47352511  1
  O  O55  1  0.75767272  0.83300494  0.47423215  1
  O  O56  1  0.15498433  0.47216969  0.47406813  1
  O  O57  1  0.65402320  0.46983600  0.47386482  1
  O  O58  1  0.07515631  0.69352081  0.46853846  1
  O  O59  1  0.57531030  0.69418314  0.46879384  1
  O  O60  1  0.06404489  0.64388276  0.36384262  1
  O  O61  1  0.56403703  0.64095134  0.36460462  1
  O  O62  1  0.25060148  0.86693988  0.36008743  1
  O  O63  1  0.75225481  0.86533935  0.36005895  1
  O  O64  1  0.17557139  0.49421710  0.35877806  1
  O  O65  1  0.68300429  0.50091264  0.35907606  1
  O  O66  1  0.06366061  0.48485591  0.86323276  1
  O  O67  1  0.56377707  0.48402775  0.86355719  1
  O  O68  1  0.17750649  0.85886629  0.85803199  1
  O  O69  1  0.67656328  0.85811528  0.85861634  1
  O  O70  1  0.25246420  0.63899388  0.86040768  1
  O  O71  1  0.75095453  0.63397462  0.85944392  1
  O  O72  1  0.01295823  0.82169626  0.40976306  1
  O  O73  1  0.51335565  0.82210255  0.40827967  1
  O  O74  1  0.40194151  0.95705794  0.40559377  1
  O  O75  1  0.90338271  0.96216513  0.41115061  1
  O  O76  1  0.08076892  0.18841354  0.41269728  1
  O  O77  1  0.58230021  0.19419918  0.40874404  1
  O  O78  1  0.01219727  0.20222048  0.90672804  1
  O  O79  1  0.51245896  0.20390691  0.90883863  1
  O  O80  1  0.08185325  0.96913731  0.90668149  1
  O  O81  1  0.58174333  0.97317609  0.91259503  1
  O  O82  1  0.40314249  0.84319018  0.90995930  1
  O  O83  1  0.90328631  0.84063046  0.90157094  1
  O  O84  1  0.49051704  0.17605006  0.59691267  1
  O  O85  1  0.99298098  0.17481891  0.59080861  1
  O  O86  1  0.10288965  0.02434717  0.59247999  1
  O  O87  1  0.60194552  0.02479892  0.59505552  1
  O  O88  1  0.41940609  0.81249683  0.60171583  1
  O  O89  1  0.92039897  0.81351775  0.59349332  1
  O  O90  1  0.49353402  0.81508402  0.08954905  1
  O  O91  1  0.99069270  0.80576130  0.09585891  1
  O  O92  1  0.42053843  0.02242726  0.08899827  1
  O  O93  1  0.91943447  0.02699254  0.10121793  1
  O  O94  1  0.10035974  0.17981115  0.09386263  1
  O  O95  1  0.60402583  0.18025290  0.08976818  1
  O  O96  1  0.34765104  0.15869563  0.74145303  1
  O  O97  1  0.84755354  0.16050806  0.74335709  1
  O  O98  1  0.24029108  0.29978425  0.74264527  1
  O  O99  1  0.74010823  0.30243229  0.73885148  1
  O  O100  1  0.41875113  0.53311150  0.74275724  1
  O  O101  1  0.91855065  0.53439641  0.74486596  1
  O  O102  1  0.34479138  0.53154556  0.24333348  1
  O  O103  1  0.84933908  0.53807697  0.24114655  1
  O  O104  1  0.41342448  0.30500210  0.24409206  1
  O  O105  1  0.91870492  0.30422603  0.24283451  1
  O  O106  1  0.23757097  0.17832546  0.23821352  1
  O  O107  1  0.74023026  0.18495728  0.24175658  1
  O  O108  1  0.32262571  0.49810532  0.92240164  1
  O  O109  1  0.82645301  0.50265355  0.92253639  1
  O  O110  1  0.43617347  0.36031206  0.92141393  1
  O  O111  1  0.93581940  0.35664514  0.92097000  1
  O  O112  1  0.25212248  0.14735091  0.92209467  1
  O  O113  1  0.75376816  0.14624238  0.92283398  1
  O  O114  1  0.32500476  0.14672607  0.42377047  1
  O  O115  1  0.82378651  0.14619942  0.42363242  1
  O  O116  1  0.25298253  0.36037254  0.42342562  1
  O  O117  1  0.75256515  0.35601645  0.42361616  1
  O  O118  1  0.43711055  0.51381437  0.42269153  1
  O  O119  1  0.93675295  0.51248430  0.42168057  1
  O  O120  1  0.17605640  0.48396390  0.07496244  1
  O  O121  1  0.68223057  0.48957763  0.07597480  1
  O  O122  1  0.07018419  0.62780149  0.07210392  1
  O  O123  1  0.57021284  0.62682351  0.07064673  1
  O  O124  1  0.24994660  0.86099521  0.07501967  1
  O  O125  1  0.75187567  0.85916700  0.07552657  1
  O  O126  1  0.18193419  0.87536664  0.57709141  1
  O  O127  1  0.67900778  0.87334487  0.57793885  1
  O  O128  1  0.25200435  0.64606929  0.57559280  1
  O  O129  1  0.74966657  0.64165356  0.57460088  1
  O  O130  1  0.07046671  0.51625059  0.57206386  1
  O  O131  1  0.57015723  0.51346804  0.57296919  1
  O  O132  1  0.15189220  0.83189259  0.25665629  1
  O  O133  1  0.66058328  0.84625593  0.26013169  1
  O  O134  1  0.26989727  0.68997798  0.25711746  1
  O  O135  1  0.77341234  0.69526526  0.25401004  1
  O  O136  1  0.07342592  0.45831559  0.25713241  1
  O  O137  1  0.58252929  0.47762472  0.26128898  1
  O  O138  1  0.15467040  0.47253833  0.75997343  1
  O  O139  1  0.65335943  0.47386347  0.75636381  1
  O  O140  1  0.07352723  0.68832885  0.75880863  1
  O  O141  1  0.57353512  0.68856221  0.75711679  1
  O  O142  1  0.27157358  0.85021012  0.75467647  1
  O  O143  1  0.77059915  0.85141069  0.75694760  1
loop_
_geom_bond_atom_site_label_1
_geom_bond_atom_site_label_2
_geom_bond_distance
_geom_bond_site_symmetry_2
Na0 O75 2.498662 1_545
Na0 O76 2.527748 1_655
Na0 O85 2.631812 1_555
Na0 O89 2.680027 1_545
Na0 O72 2.748694 1_645
Na0 O86 2.910866 1_655
Na1 O92 2.472206 1_565
Na1 O90 2.473956 1_555
Na1 O82 2.626888 1_554
Na1 O81 2.643835 1_554
Na1 O95 2.780192 1_565
Na1 O79 2.877258 1_564
Na2 O112 2.416916 1_555
Na2 O108 2.445292 1_555
Na2 O98 2.659858 1_555
Na2 O110 2.687996 1_555
Na2 O100 2.816755 1_555
Na2 O96 2.880072 1_555
Na3 O113 2.436408 1_555
Na3 O109 2.483435 1_555
Na3 O99 2.709321 1_555
Na3 O111 2.715119 1_555
Na3 O101 2.775777 1_555
Na3 O97 2.807145 1_555
Na4 O116 2.541616 1_555
Na4 O114 2.569991 1_555
Na4 O104 2.634268 1_555
Na4 O106 2.700581 1_555
Na4 O102 2.744250 1_555
Na4 O118 2.771288 1_555
Na5 O117 2.452518 1_555
Na5 O115 2.506572 1_555
Na5 O107 2.620617 1_555
Na5 O119 2.749039 1_555
Na5 O105 2.802716 1_555
Na5 O103 2.866375 1_555
Hf0 O0 1.971308 1_555
Hf0 O76 1.972429 1_555
Hf0 O75 2.019733 1_445
Hf0 O72 2.157729 1_545
Hf0 O5 2.158488 1_455
Hf0 O3 2.276430 1_445
Hf1 O81 1.953455 1_555
Hf1 O7 1.982356 1_565
Hf1 O82 2.011948 1_555
Hf1 O79 2.130580 1_565
Hf1 O8 2.175149 1_555
Hf1 O10 2.314353 1_565
Hf2 O85 1.954830 1_455
Hf2 O14 1.959432 1_555
Hf2 O89 2.030830 1_445
Hf2 O13 2.105225 1_445
Hf2 O86 2.124886 1_555
Hf2 O16 2.262210 1_545
Hf3 O23 1.971510 1_555
Hf3 O21 1.997776 1_565
Hf3 O90 2.054862 1_555
Hf3 O92 2.081686 1_565
Hf3 O18 2.112557 1_555
Hf3 O95 2.176516 1_565
Hf4 O38 1.967833 1_556
Hf4 O40 1.993502 1_556
Hf4 O108 2.043833 1_555
Hf4 O112 2.096388 1_555
Hf4 O36 2.149061 1_556
Hf4 O110 2.186090 1_555
Hf5 O39 1.996997 1_556
Hf5 O41 2.026373 1_556
Hf5 O109 2.045212 1_555
Hf5 O113 2.059906 1_555
Hf5 O37 2.104849 1_556
Hf5 O111 2.169098 1_555
Hf6 O46 2.010734 1_555
Hf6 O114 2.023051 1_555
Hf6 O44 2.040927 1_555
Hf6 O116 2.047120 1_555
Hf6 O118 2.094811 1_555
Hf6 O42 2.186112 1_555
Hf7 O47 1.993608 1_555
Hf7 O115 2.008663 1_555
Hf7 O45 2.021430 1_555
Hf7 O117 2.039202 1_555
Hf7 O119 2.145379 1_555
Hf7 O43 2.182209 1_555
Hf8 O62 1.930083 1_555
Hf8 O132 2.018323 1_555
Hf8 O64 2.024410 1_555
Hf8 O134 2.086900 1_555
Hf8 O60 2.161307 1_555
Hf8 O136 2.281819 1_555
Hf9 O133 1.992191 1_555
Hf9 O63 2.006161 1_555
Hf9 O137 2.012846 1_555
Hf9 O65 2.036902 1_555
Hf9 O61 2.155827 1_555
Hf9 O135 2.165235 1_555
Hf10 O70 1.918502 1_555
Hf10 O138 1.993902 1_555
Hf10 O68 2.003700 1_555
Hf10 O142 2.131418 1_555
Hf10 O66 2.160890 1_555
Hf10 O140 2.280459 1_555
Hf11 O71 1.929971 1_555
Hf11 O69 2.011977 1_555
Hf11 O139 2.026307 1_555
Hf11 O143 2.120645 1_555
Hf11 O67 2.139293 1_555
Hf11 O141 2.277837 1_555
Nb0 O77 1.877613 1_555
Nb0 O4 1.893003 1_555
Nb0 O74 1.948238 1_545
Nb0 O1 1.948573 1_555
Nb0 O73 2.216834 1_545
Nb0 O2 2.368217 1_545
Nb1 O80 1.847808 1_545
Nb1 O83 1.906830 1_445
Nb1 O6 1.930512 1_555
Nb1 O78 2.033363 1_555
Nb1 O9 2.198548 1_445
Nb1 O11 2.337168 1_455
Nb2 O84 1.847882 1_555
Nb2 O15 1.907422 1_555
Nb2 O88 1.937607 1_545
Nb2 O87 2.028822 1_555
Nb2 O12 2.109947 1_545
Nb2 O17 2.288913 1_545
Nb3 O91 1.854838 1_455
Nb3 O22 1.893794 1_555
Nb3 O93 1.947753 1_465
Nb3 O94 2.030527 1_565
Nb3 O19 2.091774 1_455
Nb3 O20 2.289758 1_565
Nb4 O28 1.849457 1_555
Nb4 O24 1.912567 1_555
Nb4 O98 1.966153 1_555
Nb4 O100 2.107947 1_555
Nb4 O26 2.122885 1_555
Nb4 O96 2.231549 1_555
Nb5 O29 1.849935 1_555
Nb5 O25 1.908142 1_555
Nb5 O99 1.953069 1_555
Nb5 O101 2.113453 1_555
Nb5 O27 2.154762 1_555
Nb5 O97 2.260056 1_555
Nb6 O32 1.884945 1_555
Nb6 O104 1.891000 1_555
Nb6 O30 1.925002 1_555
Nb6 O106 1.971805 1_555
Nb6 O102 2.232257 1_555
Nb6 O34 2.352825 1_555
Nb7 O33 1.856925 1_555
Nb7 O107 1.932159 1_555
Nb7 O31 1.933105 1_555
Nb7 O105 2.104677 1_555
Nb7 O35 2.143989 1_555
Nb7 O103 2.212675 1_555
Nb8 O124 1.858935 1_555
Nb8 O52 1.907526 1_554
Nb8 O48 1.933067 1_554
Nb8 O122 1.955127 1_555
Nb8 O120 2.219143 1_555
Nb8 O50 2.415381 1_554
Nb9 O53 1.882588 1_554
Nb9 O125 1.888942 1_555
Nb9 O123 1.922746 1_555
Nb9 O49 1.976826 1_554
Nb9 O121 2.250331 1_555
Nb9 O51 2.365505 1_554
Nb10 O56 1.869659 1_555
Nb10 O128 1.901706 1_555
Nb10 O54 1.926537 1_555
Nb10 O130 1.957829 1_555
Nb10 O126 2.288941 1_555
Nb10 O58 2.343606 1_555
Nb11 O57 1.868597 1_555
Nb11 O129 1.902002 1_555
Nb11 O55 1.910515 1_555
Nb11 O131 1.977927 1_555
Nb11 O59 2.312256 1_555
Nb11 O127 2.316234 1_555
O0 Si0 1.618709 1_555
O1 Si1 1.651121 1_555
O2 S0 1.464473 1_555
O3 S1 1.468627 1_555
O4 Si2 1.670498 1_555
O5 S2 1.488849 1_555
O6 Si3 1.659105 1_555
O7 Si4 1.614516 1_555
O8 S4 1.487716 1_555
O9 S3 1.489763 1_555
O10 S5 1.463455 1_555
O11 S6 1.468377 1_555
O12 S5 1.492169 1_565
O13 S6 1.486661 1_565
O14 Si3 1.606405 1_555
O15 Si4 1.662060 1_555
O16 S3 1.463309 1_455
O17 S4 1.469171 1_555
O18 S0 1.480577 1_555
O19 S1 1.496609 1_555
O20 S2 1.471547 1_455
O21 Si2 1.599480 1_555
O22 Si0 1.668420 1_565
O23 Si1 1.604626 1_565
O24 Si5 1.660451 1_555
O25 Si6 1.675462 1_555
O26 S7 1.503989 1_555
O27 S8 1.492917 1_555
O28 Si7 1.686290 1_555
O29 Si8 1.695352 1_555
O30 Si9 1.664005 1_555
O31 Si10 1.645710 1_555
O32 Si11 1.663613 1_555
O33 Si12 1.676487 1_555
O34 S9 1.466285 1_555
O35 S10 1.495847 1_555
O36 S9 1.476732 1_555
O37 S10 1.483556 1_555
O38 Si9 1.615093 1_555
O39 Si10 1.593636 1_555
O40 Si11 1.597818 1_555
O41 Si12 1.590909 1_555
O42 S7 1.471231 1_555
O43 S8 1.467398 1_555
O44 Si7 1.585711 1_555
O45 Si8 1.590244 1_555
O46 Si5 1.588624 1_555
O47 Si6 1.599335 1_555
O48 Si13 1.657874 1_555
O49 Si14 1.639993 1_555
O50 S11 1.453028 1_555
O51 S12 1.465203 1_555
O52 Si15 1.654532 1_555
O53 Si16 1.675742 1_555
O54 Si17 1.662509 1_555
O55 Si18 1.678051 1_555
O56 Si19 1.693108 1_555
O57 Si20 1.680388 1_555
O58 S13 1.463709 1_555
O59 S14 1.466823 1_555
O60 S13 1.475832 1_555
O61 S14 1.475184 1_555
O62 Si17 1.625525 1_555
O63 Si18 1.600987 1_555
O64 Si19 1.609449 1_555
O65 Si20 1.588378 1_555
O66 S11 1.476433 1_555
O67 S12 1.481161 1_555
O68 Si15 1.604338 1_555
O69 Si16 1.614349 1_555
O70 Si13 1.632681 1_555
O71 Si14 1.626569 1_555
O72 S13 1.493681 1_555
O73 S14 1.476887 1_555
O74 Si17 1.636592 1_555
O75 Si18 1.636717 1_555
O76 Si19 1.643129 1_555
O77 Si20 1.660729 1_555
O78 S11 1.510902 1_555
O79 S12 1.495147 1_555
O80 Si15 1.692644 1_555
O81 Si16 1.646174 1_555
O82 Si13 1.629912 1_555
O83 Si14 1.667259 1_555
O84 Si5 1.679215 1_555
O85 Si6 1.632928 1_555
O86 S7 1.485670 1_555
O87 S8 1.508155 1_555
O88 Si7 1.629572 1_555
O89 Si8 1.606401 1_555
O90 Si9 1.612262 1_555
O91 Si10 1.671765 1_555
O92 Si11 1.596954 1_555
O93 Si12 1.623825 1_555
O94 S9 1.516461 1_555
O95 S10 1.472327 1_555
O96 S5 1.486812 1_555
O97 S6 1.490694 1_555
O98 Si3 1.673961 1_555
O99 Si4 1.669308 1_555
O100 S4 1.528824 1_555
O101 S3 1.531942 1_555
O102 S0 1.488562 1_555
O103 S1 1.490073 1_555
O104 Si2 1.690893 1_555
O105 S2 1.528317 1_555
O106 Si0 1.645970 1_555
O107 Si1 1.700858 1_555
O108 Si13 1.616354 1_555
O109 Si14 1.617460 1_555
O110 S12 1.483629 1_555
O111 S11 1.483363 1_655
O112 Si15 1.598915 1_545
O113 Si16 1.617489 1_545
O114 Si17 1.619132 1_545
O115 Si18 1.627554 1_545
O116 Si19 1.614220 1_555
O117 Si20 1.606652 1_555
O118 S14 1.502726 1_555
O119 S13 1.489324 1_655
O120 S9 1.463775 1_555
O121 S10 1.465928 1_555
O122 Si10 1.620669 1_455
O123 Si9 1.662104 1_555
O124 Si11 1.673859 1_565
O125 Si12 1.644281 1_565
O126 S7 1.464022 1_565
O127 S8 1.456647 1_565
O128 Si7 1.638531 1_555
O129 Si8 1.645022 1_555
O130 Si6 1.630626 1_455
O131 Si5 1.611132 1_555
O132 Si0 1.610184 1_565
O133 Si1 1.589105 1_565
O134 S0 1.485355 1_555
O135 S1 1.463751 1_555
O136 S2 1.453543 1_455
O137 Si2 1.585116 1_555
O138 Si3 1.603135 1_555
O139 Si4 1.605474 1_555
O140 S3 1.462792 1_455
O141 S4 1.458681 1_555
O142 S5 1.480901 1_565
O143 S6 1.478536 1_565
