# generated using pymatgen
data_MgV4As2O13
_symmetry_space_group_name_H-M   'P 1'
_cell_length_a   5.37241006
_cell_length_b   5.19474331
_cell_length_c   8.90264413
_cell_angle_alpha   90.26209617
_cell_angle_beta   82.68881930
_cell_angle_gamma   80.15791534
_symmetry_Int_Tables_number   1
_chemical_formula_structural   MgV4As2O13
_chemical_formula_sum   'Mg1 V4 As2 O13'
_cell_volume   242.72249237
_cell_formula_units_Z   1
loop_
 _symmetry_equiv_pos_site_id
 _symmetry_equiv_pos_as_xyz
  1  'x, y, z'
loop_
 _atom_site_type_symbol
 _atom_site_label
 _atom_site_symmetry_multiplicity
 _atom_site_fract_x
 _atom_site_fract_y
 _atom_site_fract_z
 _atom_site_occupancy
  Mg  Mg0  1  0.19300900  0.55713400  0.18918400  1
  V  V0  1  0.93510000  0.13236700  0.36081200  1
  V  V1  1  0.59331700  0.73365200  0.29237300  1
  V  V2  1  0.74947500  0.96643300  0.67869800  1
  V  V3  1  0.47732000  0.48130000  0.90785300  1
  As  As0  1  0.22812800  0.43448600  0.57930700  1
  As  As1  1  0.99617100  0.05264900  0.00620100  1
  O  O0  1  0.89595900  0.47666700  0.30932500  1
  O  O1  1  0.22678900  0.92436600  0.30185900  1
  O  O2  1  0.69987700  0.93801600  0.46828800  1
  O  O3  1  0.59952100  0.74553200  0.77705500  1
  O  O4  1  0.55165800  0.57380200  0.10102000  1
  O  O5  1  0.43437800  0.28911400  0.70507400  1
  O  O6  1  0.80678700  0.17310000  0.86863500  1
  O  O7  1  0.12479900  0.73094900  0.97713400  1
  O  O8  1  0.79049400  0.03553500  0.17565100  1
  O  O9  1  0.99948300  0.23486500  0.56629000  1
  O  O10  1  0.09247800  0.73429900  0.65524100  1
  O  O11  1  0.39459800  0.44740800  0.40209300  1
  O  O12  1  0.22077500  0.24352700  0.02830600  1
loop_
_geom_bond_atom_site_label_1
_geom_bond_atom_site_label_2
_geom_bond_distance
_geom_bond_site_symmetry_2
Mg0 O0 1.913959 1_455
Mg0 O4 2.002221 1_555
Mg0 O12 2.137464 1_555
Mg0 O7 2.142877 1_554
Mg0 O1 2.196717 1_555
Mg0 O11 2.326346 1_555
As0 O10 1.700207 1_555
As0 O11 1.719240 1_555
As0 O9 1.751645 1_455
As0 O5 1.757598 1_555
As1 O7 1.700874 1_644
As1 O12 1.716291 1_655
As1 O6 1.741587 1_554
As1 O8 1.764985 1_555
O0 V0 1.832127 1_555
O0 V1 1.941851 1_555
O1 V0 1.762186 1_465
O1 V1 2.038658 1_555
O2 V0 1.915474 1_565
O2 V2 1.933817 1_555
O2 V1 2.080438 1_555
O3 V2 1.696543 1_555
O3 V3 1.949141 1_555
O4 V3 1.892250 1_554
O4 V1 1.946620 1_555
O5 V3 2.115937 1_555
O5 V2 2.157721 1_545
O6 V2 2.082205 1_545
O6 V3 2.164942 1_555
O7 V3 2.122451 1_555
O8 V0 2.006445 1_555
O8 V1 2.227976 1_545
O9 V0 1.991122 1_555
O9 V2 2.249645 1_545
O10 V2 2.008374 1_455
O11 V1 2.143722 1_555
O12 V3 2.189322 1_554
