# generated using pymatgen
data_LaIn2Ir
_symmetry_space_group_name_H-M   'P 1'
_cell_length_a   5.59197466
_cell_length_b   5.59197466
_cell_length_c   8.19349719
_cell_angle_alpha   90.00000000
_cell_angle_beta   90.00000000
_cell_angle_gamma   133.06294350
_symmetry_Int_Tables_number   1
_chemical_formula_structural   LaIn2Ir
_chemical_formula_sum   'La2 In4 Ir2'
_cell_volume   187.18962157
_cell_formula_units_Z   2
loop_
 _symmetry_equiv_pos_site_id
 _symmetry_equiv_pos_as_xyz
  1  'x, y, z'
loop_
 _atom_site_type_symbol
 _atom_site_label
 _atom_site_symmetry_multiplicity
 _atom_site_fract_x
 _atom_site_fract_y
 _atom_site_fract_z
 _atom_site_occupancy
  La  La0  1  0.93559988  0.06440012  0.75000000  1
  La  La1  1  0.06440012  0.93559988  0.25000000  1
  In  In0  1  0.64954374  0.35045626  0.55114837  1
  In  In1  1  0.35045626  0.64954374  0.44885163  1
  In  In2  1  0.64954374  0.35045626  0.94885163  1
  In  In3  1  0.35045626  0.64954374  0.05114837  1
  Ir  Ir0  1  0.78569355  0.21430645  0.25000000  1
  Ir  Ir1  1  0.21430645  0.78569355  0.75000000  1
loop_
_geom_bond_atom_site_label_1
_geom_bond_atom_site_label_2
_geom_bond_distance
_geom_bond_site_symmetry_2
In0 Ir0 2.835351 1_555
In0 Ir1 2.838208 1_655
In0 Ir1 2.838208 1_545
In0 In1 3.148043 1_545
In0 In1 3.148043 1_655
In0 In1 3.180702 1_555
In0 In2 3.258581 1_555
In0 La0 3.356549 1_555
In0 La1 3.436675 1_545
In0 La1 3.436675 1_655
In0 La0 3.525790 1_455
In0 La0 3.525790 1_565
In1 Ir1 2.835351 1_555
In1 Ir0 2.838208 1_565
In1 Ir0 2.838208 1_455
In1 In3 3.258581 1_555
In1 La1 3.356549 1_555
In1 La0 3.436675 1_455
In1 La0 3.436675 1_565
In1 La1 3.525790 1_655
In1 La1 3.525790 1_545
In2 Ir0 2.835351 1_556
In2 Ir1 2.838208 1_655
In2 Ir1 2.838208 1_545
In2 In3 3.148043 1_546
In2 In3 3.148043 1_656
In2 In3 3.180702 1_556
In2 La0 3.356549 1_555
In2 La1 3.436675 1_656
In2 La1 3.436675 1_546
In2 La0 3.525790 1_565
In2 La0 3.525790 1_455
In3 Ir1 2.835351 1_554
In3 Ir0 2.838208 1_565
In3 Ir0 2.838208 1_455
In3 La1 3.356549 1_555
In3 La0 3.436675 1_454
In3 La0 3.436675 1_564
In3 La1 3.525790 1_655
In3 La1 3.525790 1_545
Ir0 La1 2.859195 1_645
Ir0 La1 3.180135 1_545
Ir0 La1 3.180135 1_655
Ir1 La0 2.859195 1_465
Ir1 La0 3.180135 1_565
Ir1 La0 3.180135 1_455
