# generated using pymatgen
data_ZnSn3P2(SO6)4
_symmetry_space_group_name_H-M   'P 1'
_cell_length_a   8.74529055
_cell_length_b   8.76340391
_cell_length_c   22.63998765
_cell_angle_alpha   89.82674456
_cell_angle_beta   89.84601952
_cell_angle_gamma   120.02494893
_symmetry_Int_Tables_number   1
_chemical_formula_structural   ZnSn3P2(SO6)4
_chemical_formula_sum   'Zn3 Sn9 P6 S12 O72'
_cell_volume   1502.23388784
_cell_formula_units_Z   3
loop_
 _symmetry_equiv_pos_site_id
 _symmetry_equiv_pos_as_xyz
  1  'x, y, z'
loop_
 _atom_site_type_symbol
 _atom_site_label
 _atom_site_symmetry_multiplicity
 _atom_site_fract_x
 _atom_site_fract_y
 _atom_site_fract_z
 _atom_site_occupancy
  Zn  Zn0  1  0.99130213  0.99899058  0.35328399  1
  Zn  Zn1  1  0.67487819  0.33505037  0.68615499  1
  Zn  Zn2  1  0.65986257  0.33448365  0.18567425  1
  Sn  Sn0  1  0.00126285  0.00070764  0.85839489  1
  Sn  Sn1  1  0.99894194  0.00438521  0.64602660  1
  Sn  Sn2  1  0.00563520  0.00509017  0.14673059  1
  Sn  Sn3  1  0.66047118  0.33182327  0.97901116  1
  Sn  Sn4  1  0.67061149  0.32661263  0.47898763  1
  Sn  Sn5  1  0.33366038  0.66176111  0.01987936  1
  Sn  Sn6  1  0.33294859  0.66559044  0.51920067  1
  Sn  Sn7  1  0.33850950  0.67246432  0.31122641  1
  Sn  Sn8  1  0.33276699  0.66659061  0.81698687  1
  P  P0  1  0.95745268  0.33608099  0.58479073  1
  P  P1  1  0.37906708  0.33507275  0.08493486  1
  P  P2  1  0.62281574  0.66514125  0.91671119  1
  P  P3  1  0.04023540  0.37678211  0.91720130  1
  P  P4  1  0.33524101  0.95614429  0.91742529  1
  P  P5  1  0.62686309  0.95565891  0.41636746  1
  S  S0  1  0.29213269  0.00416544  0.25176238  1
  S  S1  1  0.71294834  0.70738196  0.25075632  1
  S  S2  1  0.99594774  0.29104665  0.25141920  1
  S  S3  1  0.29482780  0.29272019  0.75028526  1
  S  S4  1  0.99867709  0.70800857  0.75015099  1
  S  S5  1  0.70744392  0.00090318  0.75072495  1
  S  S6  1  0.37665757  0.04269792  0.58476574  1
  S  S7  1  0.66594724  0.62152671  0.58414565  1
  S  S8  1  0.95684211  0.62281333  0.08449426  1
  S  S9  1  0.66557218  0.04263337  0.08457431  1
  S  S10  1  0.33192936  0.37214470  0.41659758  1
  S  S11  1  0.04224524  0.67018715  0.41614598  1
  O  O0  1  0.20809333  0.02793711  0.30392454  1
  O  O1  1  0.81933993  0.78949261  0.30294878  1
  O  O2  1  0.97143651  0.18309969  0.30354504  1
  O  O3  1  0.21045992  0.17854916  0.80298062  1
  O  O4  1  0.96915719  0.79169506  0.80276795  1
  O  O5  1  0.82170435  0.03092681  0.80289407  1
  O  O6  1  0.78424739  0.96169714  0.69684572  1
  O  O7  1  0.17886012  0.21483595  0.69676859  1
  O  O8  1  0.03671034  0.82421997  0.69591483  1
  O  O9  1  0.78618584  0.82273880  0.19581467  1
  O  O10  1  0.03758190  0.21834085  0.19683350  1
  O  O11  1  0.17846776  0.96205455  0.19698103  1
  O  O12  1  0.87739032  0.36830626  0.63879277  1
  O  O13  1  0.48391538  0.11992068  0.63683859  1
  O  O14  1  0.63333294  0.51359380  0.63663123  1
  O  O15  1  0.88108590  0.51431679  0.13679213  1
  O  O16  1  0.63591043  0.11972629  0.13682977  1
  O  O17  1  0.49122177  0.36702433  0.13878101  1
  O  O18  1  0.45390069  0.29726095  0.02771734  1
  O  O19  1  0.84990614  0.54946924  0.02969959  1
  O  O20  1  0.70286581  0.15183282  0.02973147  1
  O  O21  1  0.44818413  0.15234826  0.52995051  1
  O  O22  1  0.69937584  0.54754864  0.52917863  1
  O  O23  1  0.84494623  0.29880838  0.52785691  1
  O  O24  1  0.54581025  0.70534055  0.97137103  1
  O  O25  1  0.15746453  0.45526096  0.97146926  1
  O  O26  1  0.29710647  0.83892671  0.97238207  1
  O  O27  1  0.54058446  0.84067872  0.47315196  1
  O  O28  1  0.30055131  0.45191765  0.47059205  1
  O  O29  1  0.15092396  0.69807427  0.47044664  1
  O  O30  1  0.11864168  0.62804001  0.36386097  1
  O  O31  1  0.50183245  0.87435373  0.36236578  1
  O  O32  1  0.37032037  0.48887275  0.36385270  1
  O  O33  1  0.11711921  0.48886828  0.86009551  1
  O  O34  1  0.37034900  0.88033933  0.86029828  1
  O  O35  1  0.51042898  0.62932035  0.86007877  1
  O  O36  1  0.02598732  0.82485250  0.40883821  1
  O  O37  1  0.80574856  0.97504749  0.40869596  1
  O  O38  1  0.17865172  0.20006693  0.40921883  1
  O  O39  1  0.02449441  0.19579240  0.90816534  1
  O  O40  1  0.17048272  0.97357315  0.90859406  1
  O  O41  1  0.80462406  0.83029280  0.90809034  1
  O  O42  1  0.97883594  0.16978798  0.59064227  1
  O  O43  1  0.19618185  0.02141624  0.59055373  1
  O  O44  1  0.82641795  0.80071953  0.59014001  1
  O  O45  1  0.97514310  0.80175683  0.09048058  1
  O  O46  1  0.82494565  0.02131381  0.09044926  1
  O  O47  1  0.19054615  0.16842225  0.09057061  1
  O  O48  1  0.68985675  0.15524864  0.74243209  1
  O  O49  1  0.46668408  0.30916062  0.74135094  1
  O  O50  1  0.84292998  0.53664268  0.74248112  1
  O  O51  1  0.69167230  0.53432389  0.24208563  1
  O  O52  1  0.84400625  0.31224191  0.24132205  1
  O  O53  1  0.46661721  0.15467906  0.24240825  1
  O  O54  1  0.64403312  0.50371839  0.92398772  1
  O  O55  1  0.85783841  0.35722570  0.92564994  1
  O  O56  1  0.49857497  0.13797181  0.92404638  1
  O  O57  1  0.63542298  0.13647928  0.42413412  1
  O  O58  1  0.49710275  0.36323624  0.42532939  1
  O  O59  1  0.86587008  0.50783496  0.42397442  1
  O  O60  1  0.35578776  0.49751297  0.07559008  1
  O  O61  1  0.13582687  0.64546467  0.07592824  1
  O  O62  1  0.50750207  0.86582750  0.07590688  1
  O  O63  1  0.35627934  0.86549021  0.57603148  1
  O  O64  1  0.50909932  0.64338776  0.57600224  1
  O  O65  1  0.14400077  0.49919585  0.57434925  1
  O  O66  1  0.30462386  0.83765415  0.25645650  1
  O  O67  1  0.53259911  0.69215091  0.25604985  1
  O  O68  1  0.16258628  0.47082605  0.25777651  1
  O  O69  1  0.30627055  0.46744469  0.75693736  1
  O  O70  1  0.16174867  0.69537225  0.75651218  1
  O  O71  1  0.53189697  0.83747100  0.75702300  1
loop_
_geom_bond_atom_site_label_1
_geom_bond_atom_site_label_2
_geom_bond_distance
_geom_bond_site_symmetry_2
O0 S0 1.458847 1_555
O0 Zn0 2.100761 1_445
O1 S1 1.456289 1_555
O1 Zn0 2.046867 1_555
O2 S2 1.456878 1_555
O2 Zn0 2.042539 1_545
O3 S3 1.489302 1_555
O3 Sn0 2.114792 1_555
O4 S4 1.488846 1_555
O4 Sn0 2.126281 1_665
O5 S5 1.485880 1_555
O5 Sn0 2.130631 1_655
O6 S5 1.512030 1_565
O6 Sn1 2.066839 1_565
O7 S3 1.510393 1_555
O7 Sn1 2.077320 1_455
O8 S4 1.518812 1_455
O8 Sn1 2.095400 1_465
O9 S1 1.523009 1_555
O9 Sn2 2.092928 1_665
O10 S2 1.516670 1_455
O10 Sn2 2.085473 1_555
O11 S0 1.518154 1_565
O11 Sn2 2.073205 1_565
O12 P0 1.503369 1_555
O12 Zn1 1.960263 1_555
O13 S6 1.450241 1_555
O13 Zn1 2.112292 1_555
O14 S7 1.452375 1_555
O14 Zn1 2.097079 1_555
O15 S8 1.450323 1_555
O15 Zn2 2.092371 1_555
O16 S9 1.449801 1_555
O16 Zn2 2.104285 1_555
O17 P1 1.503402 1_555
O17 Zn2 1.952176 1_555
O18 P1 1.559238 1_555
O18 Sn3 2.002725 1_554
O19 S8 1.495386 1_555
O19 Sn3 2.135566 1_554
O20 S9 1.497367 1_555
O20 Sn3 2.126173 1_554
O21 S6 1.497277 1_555
O21 Sn4 2.109893 1_555
O22 S7 1.499004 1_555
O22 Sn4 2.151888 1_555
O23 P0 1.556910 1_555
O23 Sn4 1.996778 1_555
O24 P2 1.531207 1_555
O24 Sn5 2.017812 1_556
O25 P3 1.529649 1_555
O25 Sn5 2.020118 1_556
O26 P4 1.536783 1_555
O26 Sn5 2.038988 1_556
O27 P5 1.569547 1_555
O27 Sn6 1.982506 1_555
O28 S10 1.501235 1_555
O28 Sn6 2.069020 1_555
O29 S11 1.500009 1_555
O29 Sn6 2.072303 1_555
O30 S11 1.493104 1_555
O30 Sn7 2.122386 1_555
O31 P5 1.559099 1_555
O31 Sn7 2.000777 1_555
O32 S10 1.493939 1_555
O32 Sn7 2.126874 1_555
O33 P3 1.554073 1_555
O33 Sn8 1.994071 1_555
O34 P4 1.554194 1_555
O34 Sn8 1.993746 1_555
O35 P2 1.552068 1_555
O35 Sn8 1.996632 1_555
O36 S11 1.440941 1_555
O36 Zn0 2.111026 1_455
O37 P5 1.496246 1_555
O37 Zn0 1.974287 1_555
O38 S10 1.441724 1_555
O38 Zn0 2.128037 1_445
O39 P3 1.536255 1_555
O39 Sn0 1.974588 1_555
O40 P4 1.536548 1_555
O40 Sn0 1.974286 1_565
O41 P2 1.534432 1_555
O41 Sn0 1.965380 1_665
O42 P0 1.564580 1_555
O42 Sn1 1.987325 1_555
O43 S6 1.499062 1_555
O43 Sn1 2.074731 1_455
O44 S7 1.500235 1_555
O44 Sn1 2.095676 1_565
O45 S8 1.501108 1_555
O45 Sn2 2.099542 1_665
O46 S9 1.502208 1_555
O46 Sn2 2.091735 1_655
O47 P1 1.566973 1_555
O47 Sn2 1.985433 1_555
O48 S5 1.447488 1_555
O48 Zn1 2.078121 1_555
O49 S3 1.449818 1_555
O49 Zn1 2.121493 1_555
O50 S4 1.447907 1_555
O50 Zn1 2.081462 1_555
O51 S1 1.446639 1_555
O51 Zn2 2.074459 1_555
O52 S2 1.449402 1_555
O52 Zn2 2.131232 1_555
O53 S0 1.447556 1_555
O53 Zn2 2.073617 1_555
O54 P2 1.524513 1_555
O54 Sn3 2.011973 1_555
O55 P3 1.528049 1_655
O55 Sn3 2.022594 1_555
O56 P4 1.525333 1_545
O56 Sn3 2.013519 1_555
O57 P5 1.559016 1_545
O57 Sn4 1.978554 1_555
O58 S10 1.498673 1_555
O58 Sn4 2.091930 1_555
O59 S11 1.495201 1_655
O59 Sn4 2.062031 1_555
O60 P1 1.549542 1_555
O60 Sn5 1.992277 1_555
O61 S8 1.488048 1_455
O61 Sn5 2.088957 1_555
O62 S9 1.486596 1_565
O62 Sn5 2.102769 1_555
O63 S6 1.485791 1_565
O63 Sn6 2.103153 1_555
O64 S7 1.488733 1_555
O64 Sn6 2.091369 1_555
O65 P0 1.556540 1_455
O65 Sn6 1.995550 1_555
O66 S0 1.520248 1_565
O66 Sn7 2.035054 1_555
O67 S1 1.519200 1_555
O67 Sn7 2.040972 1_555
O68 S2 1.526892 1_455
O68 Sn7 2.063022 1_555
O69 S3 1.491759 1_555
O69 Sn8 2.135191 1_555
O70 S4 1.491924 1_455
O70 Sn8 2.135754 1_555
O71 S5 1.491854 1_565
O71 Sn8 2.117400 1_555
