# generated using pymatgen
data_Na9Ca2Nb10Si9(PO8)9
_symmetry_space_group_name_H-M   'P 1'
_cell_length_a   9.00337330
_cell_length_b   8.97868296
_cell_length_c   22.77084929
_cell_angle_alpha   89.92458279
_cell_angle_beta   90.00355310
_cell_angle_gamma   120.09067491
_symmetry_Int_Tables_number   1
_chemical_formula_structural   Na9Ca2Nb10Si9(PO8)9
_chemical_formula_sum   'Na9 Ca2 Nb10 Si9 P9 O72'
_cell_volume   1592.68442892
_cell_formula_units_Z   1
loop_
 _symmetry_equiv_pos_site_id
 _symmetry_equiv_pos_as_xyz
  1  'x, y, z'
loop_
 _atom_site_type_symbol
 _atom_site_label
 _atom_site_symmetry_multiplicity
 _atom_site_fract_x
 _atom_site_fract_y
 _atom_site_fract_z
 _atom_site_occupancy
  Na  Na0  1  0.62612322  0.00826760  0.24573550  1
  Na  Na1  1  0.37662832  0.36515250  0.24487677  1
  Na  Na2  1  0.99238738  0.37134704  0.74461610  1
  Na  Na3  1  0.00033242  0.99929295  0.49927042  1
  Na  Na4  1  0.99976805  0.99917088  0.99996876  1
  Na  Na5  1  0.65089745  0.33228772  0.82802528  1
  Na  Na6  1  0.68558545  0.35040954  0.32875451  1
  Na  Na7  1  0.31893472  0.66439376  0.16402666  1
  Na  Na8  1  0.34827210  0.67942101  0.66517272  1
  Ca  Ca0  1  0.65562241  0.33253084  0.68606254  1
  Ca  Ca1  1  0.67786807  0.34378802  0.18371840  1
  Nb  Nb0  1  0.99403035  0.99777247  0.35868335  1
  Nb  Nb1  1  0.00506125  0.00283171  0.85845483  1
  Nb  Nb2  1  0.00429156  0.00257269  0.64497316  1
  Nb  Nb3  1  0.99569492  0.99904206  0.14528879  1
  Nb  Nb4  1  0.66732176  0.33466242  0.97873460  1
  Nb  Nb5  1  0.66616678  0.33459874  0.47874633  1
  Nb  Nb6  1  0.33438170  0.66628968  0.01677849  1
  Nb  Nb7  1  0.33219126  0.66515001  0.51736434  1
  Nb  Nb8  1  0.32955982  0.66333186  0.31372391  1
  Nb  Nb9  1  0.33821272  0.66831353  0.81284415  1
  Si  Si0  1  0.70862086  0.71220816  0.25253147  1
  Si  Si1  1  0.00450650  0.29010387  0.25184392  1
  Si  Si2  1  0.28943071  0.29225119  0.75216698  1
  Si  Si3  1  0.62230322  0.66445859  0.91614809  1
  Si  Si4  1  0.04223870  0.37957789  0.91535719  1
  Si  Si5  1  0.33733744  0.95720085  0.91610399  1
  Si  Si6  1  0.61983039  0.95798537  0.41598253  1
  Si  Si7  1  0.33593731  0.37677279  0.41630948  1
  Si  Si8  1  0.04252144  0.66457073  0.41703627  1
  P  P0  1  0.27487767  0.98822018  0.25126881  1
  P  P1  1  0.00998806  0.72094074  0.75193599  1
  P  P2  1  0.71392485  0.99001656  0.75141120  1
  P  P3  1  0.96264707  0.33366007  0.58501110  1
  P  P4  1  0.37105734  0.03586453  0.58296232  1
  P  P5  1  0.66615166  0.63096286  0.58275537  1
  P  P6  1  0.96685627  0.63249063  0.08187026  1
  P  P7  1  0.66540812  0.03522591  0.08426039  1
  P  P8  1  0.36837249  0.33275907  0.08402948  1
  O  O0  1  0.18587442  0.00610917  0.30611197  1
  O  O1  1  0.82679487  0.81810571  0.30891840  1
  O  O2  1  0.00174691  0.17492682  0.30820391  1
  O  O3  1  0.17240998  0.17492998  0.80797106  1
  O  O4  1  0.99584262  0.81457876  0.80658073  1
  O  O5  1  0.81932449  0.99673963  0.80593495  1
  O  O6  1  0.80337123  0.97137643  0.69448572  1
  O  O7  1  0.16482372  0.18883386  0.69307527  1
  O  O8  1  0.02085820  0.82722566  0.69512781  1
  O  O9  1  0.81060757  0.83351735  0.19311798  1
  O  O10  1  0.03023793  0.19300141  0.19225582  1
  O  O11  1  0.16863525  0.97171990  0.19432776  1
  O  O12  1  0.90496840  0.36560461  0.64344600  1
  O  O13  1  0.46908305  0.09727365  0.63914181  1
  O  O14  1  0.62910401  0.53195271  0.63892102  1
  O  O15  1  0.90743598  0.53519629  0.13878954  1
  O  O16  1  0.63317248  0.09223893  0.14293498  1
  O  O17  1  0.45790108  0.36488402  0.14270889  1
  O  O18  1  0.47328902  0.31376395  0.03253468  1
  O  O19  1  0.84437935  0.53446234  0.02924476  1
  O  O20  1  0.68911568  0.15989373  0.03258821  1
  O  O21  1  0.46374181  0.15761472  0.52958697  1
  O  O22  1  0.69040478  0.53403170  0.52945904  1
  O  O23  1  0.83902265  0.31069389  0.53311030  1
  O  O24  1  0.52821421  0.69344060  0.97225862  1
  O  O25  1  0.16780108  0.47398206  0.97108620  1
  O  O26  1  0.30873476  0.83489897  0.97251351  1
  O  O27  1  0.52292223  0.83318262  0.47155911  1
  O  O28  1  0.30743697  0.47351569  0.47173211  1
  O  O29  1  0.16384974  0.68988709  0.47312914  1
  O  O30  1  0.13604261  0.63522710  0.35915298  1
  O  O31  1  0.50420348  0.87060938  0.35649880  1
  O  O32  1  0.36653218  0.49712925  0.35701051  1
  O  O33  1  0.13050694  0.49752610  0.85612587  1
  O  O34  1  0.36556296  0.86412973  0.85847526  1
  O  O35  1  0.49804766  0.63330530  0.85840142  1
  O  O36  1  0.02417656  0.83407339  0.41056204  1
  O  O37  1  0.81059151  0.97930001  0.41128116  1
  O  O38  1  0.16903256  0.18669635  0.41049087  1
  O  O39  1  0.01751546  0.18690881  0.90994984  1
  O  O40  1  0.16770310  0.97751255  0.90978748  1
  O  O41  1  0.81135811  0.83206667  0.90913045  1
  O  O42  1  0.97642979  0.16443214  0.58758938  1
  O  O43  1  0.18753641  0.01983636  0.58811334  1
  O  O44  1  0.83381750  0.81247130  0.58675053  1
  O  O45  1  0.98071160  0.81344035  0.08580504  1
  O  O46  1  0.83364979  0.02146901  0.08669584  1
  O  O47  1  0.18800684  0.16453098  0.08545491  1
  O  O48  1  0.70865771  0.15592100  0.75040581  1
  O  O49  1  0.47144991  0.30952437  0.75520503  1
  O  O50  1  0.85954590  0.53855093  0.75095031  1
  O  O51  1  0.66962362  0.51949297  0.25339829  1
  O  O52  1  0.82937908  0.29164194  0.25292956  1
  O  O53  1  0.45330426  0.14704993  0.24813310  1
  O  O54  1  0.63823771  0.49254103  0.92666004  1
  O  O55  1  0.85355445  0.36020049  0.92703144  1
  O  O56  1  0.50643077  0.14663873  0.92720336  1
  O  O57  1  0.64046797  0.14745089  0.42728955  1
  O  O58  1  0.50829739  0.36212517  0.42653604  1
  O  O59  1  0.85420310  0.49283652  0.42674094  1
  O  O60  1  0.34043100  0.48809646  0.07178932  1
  O  O61  1  0.15009966  0.66112199  0.07038112  1
  O  O62  1  0.51221793  0.85173692  0.07196981  1
  O  O63  1  0.33807490  0.85093492  0.57120716  1
  O  O64  1  0.51246045  0.66150747  0.57092222  1
  O  O65  1  0.14676910  0.48613042  0.57236934  1
  O  O66  1  0.29261745  0.82441696  0.25423447  1
  O  O67  1  0.52528432  0.71521452  0.25446742  1
  O  O68  1  0.18552945  0.47683189  0.25454862  1
  O  O69  1  0.28684364  0.47649358  0.75418019  1
  O  O70  1  0.18020500  0.71376922  0.75397896  1
  O  O71  1  0.53244391  0.82622755  0.75453147  1
loop_
_geom_bond_atom_site_label_1
_geom_bond_atom_site_label_2
_geom_bond_distance
_geom_bond_site_symmetry_2
Na0 O52 2.276293 1_555
Na0 O67 2.321725 1_545
Na0 O53 2.433319 1_555
Na0 O16 2.449380 1_555
Na0 O66 2.609114 1_545
Na0 O31 2.779504 1_545
Na1 O51 2.291683 1_555
Na1 O53 2.381617 1_555
Na1 O68 2.396834 1_555
Na1 O17 2.439220 1_555
Na1 O67 2.738902 1_555
Na2 O48 2.308470 1_555
Na2 O69 2.336196 1_655
Na2 O50 2.346518 1_555
Na2 O12 2.426663 1_555
Na2 O70 2.673189 1_655
Na2 O33 2.805671 1_655
Na3 O44 2.549366 1_455
Na3 O42 2.572390 1_465
Na3 O38 2.579488 1_565
Na3 O36 2.579585 1_555
Na3 O43 2.579978 1_565
Na3 O37 2.580298 1_455
Na4 O45 2.516995 1_556
Na4 O47 2.519906 1_666
Na4 O46 2.545323 1_566
Na4 O39 2.605664 1_665
Na4 O40 2.614776 1_655
Na4 O41 2.619701 1_555
Na5 O49 2.251898 1_555
Na5 O50 2.557787 1_555
Na5 O48 2.595226 1_555
Na5 O54 2.702002 1_555
Na5 O56 2.717892 1_555
Na5 O55 2.831426 1_555
Na6 O51 2.341304 1_555
Na6 O52 2.371347 1_555
Na6 O59 2.641750 1_555
Na6 O53 2.693899 1_555
Na6 O58 2.772349 1_555
Na6 O57 2.786966 1_555
Na7 O68 2.547626 1_555
Na7 O66 2.586328 1_555
Na7 O61 2.610285 1_555
Na7 O67 2.655731 1_555
Na7 O60 2.696375 1_555
Na7 O62 2.703297 1_555
Na8 O71 2.538162 1_555
Na8 O69 2.591027 1_555
Na8 O70 2.635152 1_555
Na8 O64 2.656468 1_555
Na8 O63 2.662934 1_555
Na8 O65 2.760608 1_555
Ca0 O14 2.199759 1_555
Ca0 O13 2.207359 1_555
Ca0 O49 2.219697 1_555
Ca0 O12 2.323949 1_555
Ca0 O50 2.361590 1_555
Ca0 O48 2.375340 1_555
Ca1 O15 2.169335 1_555
Ca1 O51 2.266248 1_555
Ca1 O52 2.280789 1_555
Ca1 O17 2.281561 1_555
Ca1 O16 2.284657 1_555
Ca1 O53 2.402474 1_555
Nb0 O1 1.929390 1_555
Nb0 O2 1.934042 1_665
Nb0 O37 1.978563 1_555
Nb0 O36 2.006220 1_655
Nb0 O38 2.019074 1_665
Nb0 O0 2.071808 1_665
Nb1 O3 1.907959 1_555
Nb1 O40 1.973605 1_545
Nb1 O39 1.984548 1_555
Nb1 O41 2.009521 1_445
Nb1 O4 2.030695 1_445
Nb1 O5 2.034175 1_445
Nb2 O7 1.914794 1_555
Nb2 O8 2.008971 1_545
Nb2 O6 2.028118 1_445
Nb2 O43 2.040983 1_555
Nb2 O42 2.059826 1_455
Nb2 O44 2.098944 1_445
Nb3 O9 1.919487 1_555
Nb3 O10 1.932639 1_665
Nb3 O11 2.028196 1_655
Nb3 O46 2.059817 1_565
Nb3 O45 2.100105 1_555
Nb3 O47 2.115956 1_665
Nb4 O54 1.962604 1_555
Nb4 O55 1.965727 1_555
Nb4 O56 1.969288 1_555
Nb4 O19 2.054243 1_556
Nb4 O18 2.063688 1_556
Nb4 O20 2.075648 1_556
Nb5 O58 1.961129 1_555
Nb5 O57 1.966034 1_555
Nb5 O59 1.967478 1_555
Nb5 O22 2.049661 1_555
Nb5 O21 2.068410 1_555
Nb5 O23 2.081954 1_555
Nb6 O24 1.925003 1_554
Nb6 O26 1.925520 1_554
Nb6 O25 1.929014 1_554
Nb6 O61 2.041490 1_555
Nb6 O60 2.052799 1_555
Nb6 O62 2.060937 1_555
Nb7 O29 1.922987 1_555
Nb7 O28 1.926152 1_555
Nb7 O27 1.926434 1_555
Nb7 O64 2.043404 1_555
Nb7 O63 2.050692 1_555
Nb7 O65 2.060002 1_555
Nb8 O30 1.930826 1_555
Nb8 O32 1.950244 1_555
Nb8 O31 1.988707 1_555
Nb8 O68 2.032145 1_555
Nb8 O67 2.078089 1_555
Nb8 O66 2.124776 1_555
Nb9 O35 1.923112 1_555
Nb9 O34 1.949897 1_555
Nb9 O33 1.985108 1_555
Nb9 O69 2.042516 1_555
Nb9 O71 2.083413 1_555
Nb9 O70 2.137193 1_555
O0 P0 1.535320 1_545
O1 Si0 1.635027 1_555
O2 Si1 1.639460 1_555
O3 Si2 1.648675 1_555
O4 P1 1.543216 1_655
O5 P2 1.545386 1_555
O6 P2 1.578811 1_555
O7 Si2 1.699972 1_555
O8 P1 1.580096 1_555
O9 Si0 1.689148 1_555
O10 Si1 1.691327 1_555
O11 P0 1.573636 1_555
O12 P3 1.507619 1_555
O13 P4 1.494384 1_555
O14 P5 1.495646 1_555
O15 P6 1.502562 1_555
O16 P7 1.510690 1_555
O17 P8 1.511969 1_555
O18 P8 1.567965 1_555
O19 P6 1.567172 1_555
O20 P7 1.562027 1_555
O21 P4 1.565394 1_555
O22 P5 1.572048 1_555
O23 P3 1.564742 1_555
O24 Si3 1.624762 1_555
O25 Si4 1.627458 1_555
O26 Si5 1.623222 1_555
O27 Si6 1.623117 1_555
O28 Si7 1.624645 1_555
O29 Si8 1.621106 1_555
O30 Si8 1.655038 1_555
O31 Si6 1.648500 1_555
O32 Si7 1.662727 1_555
O33 Si4 1.650655 1_555
O34 Si5 1.643407 1_555
O35 Si3 1.657060 1_555
O36 Si8 1.617618 1_555
O37 Si6 1.633478 1_555
O38 Si7 1.617794 1_555
O39 Si4 1.634549 1_555
O40 Si5 1.632708 1_555
O41 Si3 1.618133 1_555
O42 P3 1.586312 1_555
O43 P4 1.589380 1_555
O44 P5 1.573684 1_555
O45 P6 1.568554 1_555
O46 P7 1.581253 1_555
O47 P8 1.568414 1_555
O48 P2 1.514079 1_545
O49 Si2 1.568317 1_555
O50 P1 1.514206 1_655
O51 Si0 1.583799 1_555
O52 Si1 1.583901 1_655
O53 P0 1.523816 1_545
O54 Si3 1.637571 1_555
O55 Si4 1.640245 1_655
O56 Si5 1.636826 1_545
O57 Si6 1.636742 1_545
O58 Si7 1.638353 1_555
O59 Si8 1.636695 1_655
O60 P8 1.561098 1_555
O61 P6 1.559164 1_455
O62 P7 1.554829 1_565
O63 P4 1.556785 1_565
O64 P5 1.562959 1_555
O65 P3 1.558341 1_455
O66 P0 1.558339 1_555
O67 Si0 1.664932 1_555
O68 Si1 1.652652 1_555
O69 Si2 1.666744 1_555
O70 P1 1.566487 1_555
O71 P2 1.558130 1_555
