# generated using pymatgen
data_Ba2MgMn3Tl2O10
_symmetry_space_group_name_H-M   'P 1'
_cell_length_a   4.18686263
_cell_length_b   4.27819336
_cell_length_c   14.82613521
_cell_angle_alpha   89.97360709
_cell_angle_beta   89.97973233
_cell_angle_gamma   90.00212141
_symmetry_Int_Tables_number   1
_chemical_formula_structural   Ba2MgMn3Tl2O10
_chemical_formula_sum   'Ba2 Mg1 Mn3 Tl2 O10'
_cell_volume   265.56877088
_cell_formula_units_Z   1
loop_
 _symmetry_equiv_pos_site_id
 _symmetry_equiv_pos_as_xyz
  1  'x, y, z'
loop_
 _atom_site_type_symbol
 _atom_site_label
 _atom_site_symmetry_multiplicity
 _atom_site_fract_x
 _atom_site_fract_y
 _atom_site_fract_z
 _atom_site_occupancy
  Ba  Ba0  1  0.24346859  0.19261000  0.25083073  1
  Ba  Ba1  1  0.74431047  0.69327622  0.74876402  1
  Mg  Mg0  1  0.74409371  0.19598009  0.00063994  1
  Mn  Mn0  1  0.24423758  0.19747388  0.85228409  1
  Mn  Mn1  1  0.74348401  0.69634689  0.14728488  1
  Mn  Mn2  1  0.24417980  0.69603438  0.99885261  1
  Tl  Tl0  1  0.74181367  0.60693166  0.42778742  1
  Tl  Tl1  1  0.24213568  0.10491403  0.57107055  1
  O  O0  1  0.24428122  0.69606732  0.86682036  1
  O  O1  1  0.24450326  0.21479963  0.71942616  1
  O  O2  1  0.74421721  0.19386085  0.85951551  1
  O  O3  1  0.74195414  0.86406003  0.55866257  1
  O  O4  1  0.74393175  0.69582964  0.01307932  1
  O  O5  1  0.24357313  0.69398867  0.13209967  1
  O  O6  1  0.74297611  0.71260217  0.28100394  1
  O  O7  1  0.74369693  0.19619791  0.14055993  1
  O  O8  1  0.24171856  0.36849178  0.43861881  1
  O  O9  1  0.24403017  0.19566685  0.98575250  1
loop_
_geom_bond_atom_site_label_1
_geom_bond_atom_site_label_2
_geom_bond_distance
_geom_bond_site_symmetry_2
Ba0 O7 2.655928 1_455
Ba0 O7 2.656522 1_555
Ba0 O5 2.766357 1_545
Ba0 O5 2.774213 1_555
Ba0 O8 2.884401 1_555
Ba0 O6 2.964999 1_545
Ba0 O6 2.967579 1_445
Ba0 O6 3.086122 1_555
Ba0 O6 3.088815 1_455
Ba1 O2 2.694072 1_555
Ba1 O2 2.699240 1_565
Ba1 O0 2.728398 1_555
Ba1 O0 2.729160 1_655
Ba1 O3 2.911329 1_555
Ba1 O1 2.959678 1_555
Ba1 O1 2.960709 1_655
Ba1 O1 3.089745 1_565
Ba1 O1 3.090518 1_665
Mg0 O7 2.074473 1_555
Mg0 O2 2.092354 1_554
Mg0 O9 2.104694 1_654
Mg0 O9 2.105378 1_554
Mg0 O4 2.146476 1_555
Mg0 O4 2.147589 1_545
Mn0 O1 1.971130 1_555
Mn0 O9 1.978832 1_555
Mn0 O2 2.096185 1_555
Mn0 O2 2.096278 1_455
Mn0 O0 2.144038 1_555
Mn0 O0 2.155815 1_545
Mn1 O6 1.983789 1_555
Mn1 O4 1.989752 1_555
Mn1 O5 2.105235 1_555
Mn1 O5 2.105820 1_655
Mn1 O7 2.140737 1_565
Mn1 O7 2.142102 1_555
Mn2 O0 1.957528 1_555
Mn2 O5 1.975555 1_556
Mn2 O4 2.103072 1_556
Mn2 O4 2.104990 1_456
Mn2 O9 2.146241 1_565
Mn2 O9 2.149551 1_555
O1 Tl1 2.249455 1_555
O3 Tl0 2.230944 1_555
O3 Tl1 2.339859 1_565
O3 Tl1 2.341267 1_665
O6 Tl0 2.222492 1_555
O8 Tl1 2.264030 1_555
O8 Tl0 2.333968 1_455
O8 Tl0 2.334513 1_555
