# generated using pymatgen
data_Na6HfMg3P4(SO12)2
_symmetry_space_group_name_H-M   'P 1'
_cell_length_a   8.96976961
_cell_length_b   8.94984135
_cell_length_c   22.29628306
_cell_angle_alpha   89.97595982
_cell_angle_beta   89.96380539
_cell_angle_gamma   120.07388073
_symmetry_Int_Tables_number   1
_chemical_formula_structural   Na6HfMg3P4(SO12)2
_chemical_formula_sum   'Na18 Hf3 Mg9 P12 S6 O72'
_cell_volume   1548.94387256
_cell_formula_units_Z   3
loop_
 _symmetry_equiv_pos_site_id
 _symmetry_equiv_pos_as_xyz
  1  'x, y, z'
loop_
 _atom_site_type_symbol
 _atom_site_label
 _atom_site_symmetry_multiplicity
 _atom_site_fract_x
 _atom_site_fract_y
 _atom_site_fract_z
 _atom_site_occupancy
  Na  Na0  1  0.36431265  0.36524252  0.25274793  1
  Na  Na1  1  0.63871987  0.63549528  0.74526230  1
  Na  Na2  1  0.99496293  0.34775024  0.74839704  1
  Na  Na3  1  0.29781677  0.34116396  0.58438961  1
  Na  Na4  1  0.02752171  0.69249145  0.57985770  1
  Na  Na5  1  0.67336812  0.96274131  0.58193759  1
  Na  Na6  1  0.29121474  0.96335895  0.08040197  1
  Na  Na7  1  0.66404160  0.69197882  0.08242099  1
  Na  Na8  1  0.04298774  0.34251649  0.08315227  1
  Na  Na9  1  0.32250579  0.29614863  0.91174053  1
  Na  Na10  1  0.97932051  0.30460163  0.41219466  1
  Na  Na11  1  0.69557584  0.67682759  0.41243456  1
  Na  Na12  1  0.00457398  0.99989218  0.49377254  1
  Na  Na13  1  0.99463007  0.98778333  0.99206374  1
  Na  Na14  1  0.65557095  0.30851254  0.82906997  1
  Na  Na15  1  0.66556449  0.31866890  0.32881340  1
  Na  Na16  1  0.32461151  0.67037090  0.17059214  1
  Na  Na17  1  0.33890483  0.66831651  0.66434518  1
  Hf  Hf0  1  0.67102949  0.34060442  0.97830325  1
  Hf  Hf1  1  0.66740886  0.33355085  0.47914692  1
  Hf  Hf2  1  0.33677699  0.67384402  0.81763796  1
  Mg  Mg0  1  0.00534049  0.99771474  0.35183109  1
  Mg  Mg1  1  0.99686195  0.00289883  0.85199055  1
  Mg  Mg2  1  0.99431556  0.00551926  0.65202309  1
  Mg  Mg3  1  0.00409443  0.99617263  0.15143577  1
  Mg  Mg4  1  0.66054095  0.32750268  0.68528851  1
  Mg  Mg5  1  0.67318742  0.34039249  0.18440624  1
  Mg  Mg6  1  0.32968338  0.66479787  0.01445767  1
  Mg  Mg7  1  0.33253285  0.66391386  0.51184536  1
  Mg  Mg8  1  0.33281784  0.67541969  0.32016298  1
  P  P0  1  0.29686480  0.29283957  0.75061922  1
  P  P1  1  0.70702561  0.00244376  0.74886902  1
  P  P2  1  0.96408399  0.33564667  0.58592295  1
  P  P3  1  0.66728330  0.62996374  0.58590576  1
  P  P4  1  0.96302402  0.62802611  0.08589428  1
  P  P5  1  0.37121825  0.33408716  0.08604898  1
  P  P6  1  0.63291604  0.67538780  0.91934279  1
  P  P7  1  0.03826540  0.36894736  0.91824666  1
  P  P8  1  0.32808280  0.96061744  0.92080906  1
  P  P9  1  0.62762071  0.95804070  0.41718353  1
  P  P10  1  0.32976170  0.37037976  0.41547979  1
  P  P11  1  0.04468062  0.67299745  0.41807785  1
  S  S0  1  0.29649364  0.99881941  0.24882772  1
  S  S1  1  0.70301619  0.70466871  0.24972092  1
  S  S2  1  0.99824306  0.29415170  0.24961496  1
  S  S3  1  0.00145380  0.70976567  0.74900622  1
  S  S4  1  0.37208424  0.03794996  0.58510677  1
  S  S5  1  0.66636357  0.04116557  0.08550443  1
  O  O0  1  0.20835142  0.02592593  0.30017278  1
  O  O1  1  0.80556685  0.78982175  0.30373005  1
  O  O2  1  0.98075310  0.19095626  0.30393178  1
  O  O3  1  0.21158090  0.19001939  0.80716005  1
  O  O4  1  0.97989087  0.79457862  0.80136614  1
  O  O5  1  0.82247669  0.02593182  0.80199921  1
  O  O6  1  0.77376350  0.96097721  0.69059584  1
  O  O7  1  0.18740300  0.21603517  0.69331587  1
  O  O8  1  0.02659870  0.80739415  0.69283197  1
  O  O9  1  0.78670223  0.80548115  0.19446627  1
  O  O10  1  0.02127644  0.20976378  0.19498073  1
  O  O11  1  0.19892686  0.97885549  0.19221881  1
  O  O12  1  0.87661258  0.35996023  0.64108693  1
  O  O13  1  0.48040303  0.12015657  0.63745999  1
  O  O14  1  0.63960681  0.51597702  0.64089132  1
  O  O15  1  0.87736145  0.50830545  0.13890886  1
  O  O16  1  0.63900923  0.12304680  0.13789030  1
  O  O17  1  0.48351185  0.35899616  0.14105363  1
  O  O18  1  0.46119832  0.30606827  0.02930603  1
  O  O19  1  0.84593136  0.53752032  0.02911810  1
  O  O20  1  0.69427341  0.15068093  0.03083552  1
  O  O21  1  0.45413057  0.14721657  0.53061967  1
  O  O22  1  0.68708901  0.53596168  0.52906919  1
  O  O23  1  0.84631348  0.30932388  0.52958870  1
  O  O24  1  0.54655198  0.69088689  0.97599134  1
  O  O25  1  0.14704922  0.45478367  0.97390786  1
  O  O26  1  0.31278115  0.86144591  0.97802846  1
  O  O27  1  0.55204074  0.85617800  0.47583711  1
  O  O28  1  0.30403825  0.45086370  0.47284530  1
  O  O29  1  0.13991623  0.69334162  0.47727640  1
  O  O30  1  0.12245456  0.62978751  0.36483422  1
  O  O31  1  0.51606659  0.87545111  0.36274150  1
  O  O32  1  0.36887128  0.48524651  0.35960884  1
  O  O33  1  0.12494924  0.48314142  0.86101495  1
  O  O34  1  0.35487517  0.86991266  0.86535383  1
  O  O35  1  0.51212622  0.64088248  0.86314262  1
  O  O36  1  0.00665885  0.82107896  0.41024387  1
  O  O37  1  0.81249301  0.98524713  0.41086202  1
  O  O38  1  0.16999095  0.19086146  0.40869055  1
  O  O39  1  0.02318815  0.19256337  0.91105106  1
  O  O40  1  0.17542184  0.98905745  0.91217759  1
  O  O41  1  0.81175003  0.82561027  0.90990052  1
  O  O42  1  0.98179333  0.17186971  0.58748653  1
  O  O43  1  0.19868694  0.02100337  0.58930516  1
  O  O44  1  0.83586137  0.80755616  0.58778600  1
  O  O45  1  0.97302550  0.80636575  0.08949700  1
  O  O46  1  0.82323047  0.02444713  0.09006630  1
  O  O47  1  0.18911620  0.17096889  0.08907566  1
  O  O48  1  0.68971533  0.16485361  0.74334998  1
  O  O49  1  0.48409565  0.33018128  0.74554753  1
  O  O50  1  0.84704797  0.53255588  0.74522680  1
  O  O51  1  0.68122318  0.52701253  0.24655225  1
  O  O52  1  0.84400079  0.31271348  0.24474462  1
  O  O53  1  0.47001203  0.16025122  0.24475316  1
  O  O54  1  0.63527572  0.49877029  0.92170933  1
  O  O55  1  0.85673930  0.35225823  0.92225681  1
  O  O56  1  0.49564034  0.14568573  0.92243760  1
  O  O57  1  0.65542033  0.14745640  0.42336628  1
  O  O58  1  0.49702243  0.35435192  0.42369110  1
  O  O59  1  0.85514978  0.50226366  0.42372044  1
  O  O60  1  0.35558134  0.49795911  0.07885033  1
  O  O61  1  0.14539869  0.65246280  0.07835202  1
  O  O62  1  0.51264951  0.86708356  0.07864327  1
  O  O63  1  0.35398595  0.86470788  0.57825088  1
  O  O64  1  0.50716380  0.65169673  0.57923560  1
  O  O65  1  0.14365932  0.49927641  0.57876005  1
  O  O66  1  0.31499588  0.84479966  0.25514491  1
  O  O67  1  0.52609834  0.68189125  0.25284367  1
  O  O68  1  0.15948641  0.46703794  0.25335444  1
  O  O69  1  0.31172007  0.48065567  0.75571415  1
  O  O70  1  0.15519042  0.68349898  0.75474162  1
  O  O71  1  0.52178343  0.83567793  0.75712533  1
loop_
_geom_bond_atom_site_label_1
_geom_bond_atom_site_label_2
_geom_bond_distance
_geom_bond_site_symmetry_2
Na0 O68 2.425533 1_555
Na0 O67 2.452648 1_555
Na0 O53 2.457628 1_555
Na0 O51 2.463793 1_555
Na0 O32 2.605807 1_555
Na0 O17 2.721191 1_555
Na0 O0 2.834620 1_555
Na0 O10 2.962806 1_555
Na1 O49 2.364730 1_555
Na1 O50 2.462939 1_555
Na1 O71 2.502683 1_555
Na1 O69 2.550095 1_555
Na1 O14 2.563235 1_555
Na1 O6 2.810203 1_555
Na1 O35 2.872430 1_555
Na1 O4 2.931964 1_555
Na2 O48 2.386934 1_555
Na2 O69 2.475423 1_655
Na2 O50 2.588496 1_555
Na2 O70 2.605244 1_655
Na2 O12 2.642490 1_555
Na2 O5 2.765210 1_555
Na2 O33 2.779016 1_655
Na2 O7 2.813425 1_655
Na3 O65 2.427216 1_555
Na3 O42 2.455784 1_455
Na3 O64 2.456091 1_555
Na3 O43 2.541492 1_555
Na3 O7 2.648855 1_555
Na3 O28 2.663679 1_555
Na3 O14 2.938216 1_555
Na3 O21 2.975732 1_555
Na4 O44 2.412748 1_455
Na4 O65 2.425182 1_555
Na4 O29 2.497402 1_555
Na4 O63 2.535395 1_555
Na4 O43 2.553967 1_565
Na4 O8 2.722713 1_555
Na4 O22 2.878834 1_455
Na4 O12 2.917181 1_455
Na5 O64 2.411754 1_555
Na5 O42 2.446033 1_565
Na5 O44 2.469681 1_555
Na5 O63 2.542593 1_555
Na5 O27 2.579755 1_555
Na5 O6 2.587957 1_555
Na6 O61 2.409916 1_555
Na6 O47 2.456428 1_565
Na6 O45 2.478110 1_455
Na6 O26 2.501482 1_554
Na6 O62 2.530656 1_555
Na6 O11 2.651940 1_555
Na6 O18 2.887587 1_565
Na6 O16 2.992616 1_565
Na7 O60 2.421177 1_555
Na7 O45 2.431310 1_555
Na7 O62 2.537722 1_555
Na7 O46 2.581523 1_565
Na7 O24 2.595115 1_554
Na7 O9 2.714563 1_555
Na7 O19 2.871333 1_555
Na7 O17 2.893083 1_555
Na8 O60 2.428274 1_555
Na8 O61 2.448665 1_555
Na8 O47 2.471770 1_555
Na8 O46 2.527501 1_455
Na8 O25 2.620837 1_554
Na8 O10 2.726057 1_555
Na8 O15 2.857037 1_455
Na8 O20 2.952305 1_455
Na9 O39 2.360805 1_555
Na9 O40 2.379143 1_545
Na9 O54 2.472014 1_555
Na9 O56 2.525498 1_555
Na9 O3 2.527225 1_555
Na9 O18 2.884479 1_556
Na9 O35 2.884724 1_555
Na9 O25 2.941455 1_555
Na10 O38 2.390006 1_655
Na10 O37 2.474440 1_545
Na10 O57 2.526751 1_555
Na10 O59 2.531959 1_555
Na10 O2 2.622311 1_555
Na10 O30 2.735767 1_655
Na10 O28 2.865473 1_655
Na10 O23 2.884938 1_555
Na11 O37 2.412251 1_555
Na11 O36 2.417535 1_655
Na11 O58 2.532142 1_555
Na11 O59 2.606574 1_555
Na11 O1 2.620187 1_555
Na11 O32 2.808025 1_555
Na11 O22 2.873802 1_555
Na11 O27 2.881550 1_555
Na12 O36 2.462189 1_555
Na12 O38 2.484646 1_565
Na12 O37 2.486131 1_455
Na12 O44 2.651277 1_455
Na12 O42 2.663470 1_465
Na12 O43 2.698074 1_565
Na13 O41 2.402771 1_555
Na13 O40 2.404217 1_655
Na13 O39 2.492660 1_665
Na13 O45 2.659756 1_556
Na13 O47 2.747917 1_666
Na13 O46 2.783507 1_566
Na14 O48 2.407424 1_555
Na14 O49 2.484662 1_555
Na14 O56 2.532536 1_555
Na14 O50 2.646948 1_555
Na14 O55 2.650201 1_555
Na14 O54 2.740818 1_555
Na15 O53 2.472562 1_555
Na15 O52 2.481893 1_555
Na15 O51 2.568059 1_555
Na15 O57 2.580314 1_555
Na15 O59 2.697502 1_555
Na15 O58 2.709776 1_555
Na16 O66 2.477042 1_555
Na16 O68 2.490556 1_555
Na16 O67 2.541204 1_555
Na16 O61 2.566247 1_555
Na16 O60 2.659664 1_555
Na16 O62 2.676538 1_555
Na17 O64 2.474377 1_555
Na17 O65 2.519611 1_555
Na17 O63 2.559502 1_555
Na17 O69 2.572252 1_555
Na17 O71 2.599633 1_555
Na17 O70 2.648899 1_555
Hf0 O19 2.020818 1_556
Hf0 O54 2.037863 1_555
Hf0 O55 2.042152 1_555
Hf0 O56 2.079292 1_555
Hf0 O18 2.084487 1_556
Hf0 O20 2.158343 1_556
Hf1 O59 2.022469 1_555
Hf1 O57 2.038310 1_555
Hf1 O58 2.046124 1_555
Hf1 O22 2.057485 1_555
Hf1 O23 2.058605 1_555
Hf1 O21 2.134514 1_555
Hf2 O34 1.988405 1_555
Hf2 O35 2.014207 1_555
Hf2 O33 2.050537 1_555
Hf2 O71 2.063644 1_555
Hf2 O69 2.135217 1_555
Hf2 O70 2.184231 1_555
Mg0 O36 2.052439 1_555
Mg0 O38 2.054766 1_565
Mg0 O0 2.059752 1_565
Mg0 O1 2.117935 1_455
Mg0 O37 2.130847 1_455
Mg0 O2 2.135730 1_465
Mg1 O5 2.014140 1_555
Mg1 O39 2.066817 1_655
Mg1 O3 2.068006 1_655
Mg1 O41 2.072883 1_545
Mg1 O4 2.119165 1_545
Mg1 O40 2.140759 1_645
Mg2 O6 2.004846 1_545
Mg2 O7 2.032268 1_655
Mg2 O42 2.113216 1_555
Mg2 O8 2.137647 1_645
Mg2 O44 2.165962 1_545
Mg2 O43 2.253252 1_655
Mg3 O11 2.044095 1_555
Mg3 O9 2.072782 1_455
Mg3 O10 2.080167 1_565
Mg3 O45 2.097272 1_455
Mg3 O47 2.127913 1_565
Mg3 O46 2.232074 1_465
Mg4 O14 2.043716 1_555
Mg4 O13 2.047038 1_555
Mg4 O48 2.060097 1_555
Mg4 O12 2.060346 1_555
Mg4 O49 2.084689 1_555
Mg4 O50 2.209178 1_555
Mg5 O15 1.969637 1_555
Mg5 O17 2.035306 1_555
Mg5 O16 2.087556 1_555
Mg5 O51 2.143875 1_555
Mg5 O52 2.145107 1_555
Mg5 O53 2.186620 1_555
Mg6 O25 1.987773 1_554
Mg6 O26 2.011612 1_554
Mg6 O24 2.028951 1_554
Mg6 O61 2.141978 1_555
Mg6 O60 2.165893 1_555
Mg6 O62 2.246421 1_555
Mg7 O28 1.992597 1_555
Mg7 O27 2.020758 1_555
Mg7 O29 2.026337 1_555
Mg7 O65 2.181810 1_555
Mg7 O64 2.213078 1_555
Mg7 O63 2.261566 1_555
Mg8 O31 1.965245 1_555
Mg8 O30 1.985999 1_555
Mg8 O32 2.079836 1_555
Mg8 O66 2.160190 1_555
Mg8 O67 2.271105 1_555
Mg8 O68 2.283300 1_555
O0 S0 1.478453 1_545
O1 S1 1.475338 1_555
O2 S2 1.482530 1_555
O3 P0 1.521029 1_555
O4 S3 1.457423 1_655
O5 P1 1.517718 1_555
O6 P1 1.551217 1_565
O7 P0 1.547522 1_555
O8 S3 1.477917 1_555
O9 S1 1.488087 1_555
O10 S2 1.501269 1_455
O11 S0 1.495243 1_555
O12 P2 1.531615 1_555
O13 S4 1.460675 1_555
O14 P3 1.533009 1_555
O15 P4 1.519314 1_555
O16 S5 1.463573 1_555
O17 P5 1.531353 1_555
O18 P5 1.586422 1_555
O19 P4 1.584811 1_555
O20 S5 1.503927 1_555
O21 S4 1.500131 1_555
O22 P3 1.579767 1_555
O23 P2 1.581638 1_555
O24 P6 1.523567 1_555
O25 P7 1.527583 1_555
O26 P8 1.520187 1_555
O27 P9 1.542529 1_555
O28 P10 1.541106 1_555
O29 P11 1.533225 1_555
O30 P11 1.521589 1_555
O31 P9 1.510647 1_555
O32 P10 1.539045 1_555
O33 P7 1.574363 1_555
O34 P8 1.562547 1_555
O35 P6 1.583065 1_555
O36 P11 1.534972 1_555
O37 P9 1.556916 1_555
O38 P10 1.533261 1_555
O39 P7 1.523912 1_555
O40 P8 1.525290 1_555
O41 P6 1.504298 1_555
O42 P2 1.551861 1_555
O43 S4 1.488022 1_555
O44 P3 1.551091 1_555
O45 P4 1.555211 1_555
O46 S5 1.491216 1_555
O47 P5 1.553613 1_555
O48 P1 1.542110 1_555
O49 P0 1.543416 1_555
O50 S3 1.496479 1_655
O51 S1 1.503295 1_555
O52 S2 1.477848 1_555
O53 S0 1.504694 1_545
O54 P6 1.592264 1_555
O55 P7 1.561266 1_655
O56 P8 1.583917 1_545
O57 P9 1.591100 1_545
O58 P10 1.587761 1_555
O59 P11 1.623861 1_655
O60 P5 1.549977 1_555
O61 P4 1.546996 1_455
O62 S5 1.483018 1_565
O63 S4 1.483813 1_565
O64 P3 1.550145 1_555
O65 P2 1.549192 1_455
O66 S0 1.475350 1_555
O67 S1 1.496771 1_555
O68 S2 1.500102 1_455
O69 P0 1.622302 1_555
O70 S3 1.516016 1_555
O71 P1 1.592566 1_565
