# generated using pymatgen
data_Na2NbGaSi(PO6)2
_symmetry_space_group_name_H-M   'P 1'
_cell_length_a   8.80403201
_cell_length_b   8.80403172
_cell_length_c   22.52041457
_cell_angle_alpha   89.61393976
_cell_angle_beta   90.38606024
_cell_angle_gamma   119.71079390
_symmetry_Int_Tables_number   1
_chemical_formula_structural   Na2NbGaSi(PO6)2
_chemical_formula_sum   'Na12 Nb6 Ga6 Si6 P12 O72'
_cell_volume   1516.05624340
_cell_formula_units_Z   6
loop_
 _symmetry_equiv_pos_site_id
 _symmetry_equiv_pos_as_xyz
  1  'x, y, z'
loop_
 _atom_site_type_symbol
 _atom_site_label
 _atom_site_symmetry_multiplicity
 _atom_site_fract_x
 _atom_site_fract_y
 _atom_site_fract_z
 _atom_site_occupancy
  Na  Na0  1  0.99208501  0.62920105  0.24794338  1
  Na  Na1  1  0.37079895  0.00791499  0.74794338  1
  Na  Na2  1  0.65876451  0.96487294  0.58291369  1
  Na  Na3  1  0.03512706  0.34123549  0.08291369  1
  Na  Na4  1  0.97387297  0.67428794  0.91640791  1
  Na  Na5  1  0.32571206  0.02612703  0.41640791  1
  Na  Na6  1  0.00032593  0.99794720  0.49573979  1
  Na  Na7  1  0.00205280  0.99967407  0.99573979  1
  Na  Na8  1  0.66802118  0.33086224  0.82912422  1
  Na  Na9  1  0.66913776  0.33197882  0.32912422  1
  Na  Na10  1  0.34348409  0.67330065  0.16232470  1
  Na  Na11  1  0.32669935  0.65651591  0.66232470  1
  Nb  Nb0  1  0.00326296  0.00032768  0.64609468  1
  Nb  Nb1  1  0.99967232  0.99673704  0.14609468  1
  Nb  Nb2  1  0.66149632  0.33043581  0.97920192  1
  Nb  Nb3  1  0.66956419  0.33850368  0.47920192  1
  Nb  Nb4  1  0.32758936  0.65865946  0.31238189  1
  Nb  Nb5  1  0.34134054  0.67241064  0.81238189  1
  Ga  Ga0  1  0.99057684  0.99721036  0.35223708  1
  Ga  Ga1  1  0.00278964  0.00942316  0.85223708  1
  Ga  Ga2  1  0.66958372  0.32920903  0.68474025  1
  Ga  Ga3  1  0.67079097  0.33041628  0.18474025  1
  Ga  Ga4  1  0.33162311  0.67537525  0.01857916  1
  Ga  Ga5  1  0.32462475  0.66837689  0.51857916  1
  Si  Si0  1  0.98938897  0.27982067  0.25151901  1
  Si  Si1  1  0.72017933  0.01061103  0.75151901  1
  Si  Si2  1  0.37735498  0.03906418  0.58411008  1
  Si  Si3  1  0.96093582  0.62264502  0.08411008  1
  Si  Si4  1  0.32675174  0.95737293  0.91714148  1
  Si  Si5  1  0.04262707  0.67324826  0.41714148  1
  P  P0  1  0.29722345  0.01085301  0.25187568  1
  P  P1  1  0.71091469  0.70880092  0.25131134  1
  P  P2  1  0.29119908  0.28908531  0.75131134  1
  P  P3  1  0.98914699  0.70277655  0.75187568  1
  P  P4  1  0.96229715  0.34290353  0.58470978  1
  P  P5  1  0.66039314  0.61706754  0.58530713  1
  P  P6  1  0.65709647  0.03770285  0.08470978  1
  P  P7  1  0.38293246  0.33960686  0.08530713  1
  P  P8  1  0.62263971  0.67261575  0.91941022  1
  P  P9  1  0.04851773  0.37297990  0.91828305  1
  P  P10  1  0.62702010  0.95148227  0.41828305  1
  P  P11  1  0.32738425  0.37736029  0.41941022  1
  O  O0  1  0.21313270  0.03085263  0.30784351  1
  O  O1  1  0.82991925  0.78897604  0.30497063  1
  O  O2  1  0.96903515  0.16523606  0.30882223  1
  O  O3  1  0.21102396  0.17008075  0.80497063  1
  O  O4  1  0.96914737  0.78686730  0.80784351  1
  O  O5  1  0.83476394  0.03096485  0.80882223  1
  O  O6  1  0.79978625  0.96994800  0.69054257  1
  O  O7  1  0.17141092  0.20044278  0.69495894  1
  O  O8  1  0.03331136  0.83009481  0.69642547  1
  O  O9  1  0.79955722  0.82858908  0.19495894  1
  O  O10  1  0.03005200  0.20021375  0.19054257  1
  O  O11  1  0.16990519  0.96668864  0.19642547  1
  O  O12  1  0.87651692  0.36799205  0.63949053  1
  O  O13  1  0.49774941  0.12647820  0.64241372  1
  O  O14  1  0.63750940  0.50650116  0.64006108  1
  O  O15  1  0.87352180  0.50225059  0.14241372  1
  O  O16  1  0.63200795  0.12348308  0.13949053  1
  O  O17  1  0.49349884  0.36249060  0.14006108  1
  O  O18  1  0.46515834  0.30298583  0.02875476  1
  O  O19  1  0.83581220  0.53289835  0.02420850  1
  O  O20  1  0.69765217  0.16234945  0.02905498  1
  O  O21  1  0.46710165  0.16418780  0.52420850  1
  O  O22  1  0.69701417  0.53484166  0.52875476  1
  O  O23  1  0.83765055  0.30234783  0.52905498  1
  O  O24  1  0.53491683  0.69459067  0.97342219  1
  O  O25  1  0.15386156  0.45406644  0.97508819  1
  O  O26  1  0.28968258  0.82984757  0.97286631  1
  O  O27  1  0.54593356  0.84613844  0.47508819  1
  O  O28  1  0.30540933  0.46508317  0.47342219  1
  O  O29  1  0.17015243  0.71031742  0.47286631  1
  O  O30  1  0.13368850  0.63693387  0.35726655  1
  O  O31  1  0.50341332  0.86824981  0.36304460  1
  O  O32  1  0.36369724  0.49501294  0.36215382  1
  O  O33  1  0.13175019  0.49658668  0.86304460  1
  O  O34  1  0.36306613  0.86631150  0.85726655  1
  O  O35  1  0.50498706  0.63630276  0.86215382  1
  O  O36  1  0.02915759  0.84876413  0.40753798  1
  O  O37  1  0.80922142  0.97648999  0.41103528  1
  O  O38  1  0.17407889  0.19225787  0.41130419  1
  O  O39  1  0.02351001  0.19077858  0.91103528  1
  O  O40  1  0.15123587  0.97084241  0.90753798  1
  O  O41  1  0.80774213  0.82592111  0.91130419  1
  O  O42  1  0.96784577  0.16621194  0.58951469  1
  O  O43  1  0.18282577  0.02327136  0.59001676  1
  O  O44  1  0.82847093  0.80506400  0.58990074  1
  O  O45  1  0.97672864  0.81717423  0.09001676  1
  O  O46  1  0.83378806  0.03215423  0.08951469  1
  O  O47  1  0.19493600  0.17152907  0.08990074  1
  O  O48  1  0.68010024  0.17103023  0.74473045  1
  O  O49  1  0.47250923  0.30874908  0.74279440  1
  O  O50  1  0.83073253  0.52355768  0.74179980  1
  O  O51  1  0.69125092  0.52749077  0.24279440  1
  O  O52  1  0.82896977  0.31989976  0.24473045  1
  O  O53  1  0.47644232  0.16926747  0.24179980  1
  O  O54  1  0.64200343  0.50296417  0.92298275  1
  O  O55  1  0.86406904  0.36457161  0.92325589  1
  O  O56  1  0.50600444  0.14912832  0.92314350  1
  O  O57  1  0.63542839  0.13593096  0.42325589  1
  O  O58  1  0.49703583  0.35799657  0.42298275  1
  O  O59  1  0.85087168  0.49399556  0.42314350  1
  O  O60  1  0.35429424  0.49546914  0.07617648  1
  O  O61  1  0.15008434  0.63445864  0.07723802  1
  O  O62  1  0.50350296  0.85568636  0.07652318  1
  O  O63  1  0.36554136  0.84991566  0.57723802  1
  O  O64  1  0.50453086  0.64570576  0.57617648  1
  O  O65  1  0.14431364  0.49649704  0.57652318  1
  O  O66  1  0.30740642  0.83639240  0.25616848  1
  O  O67  1  0.52972221  0.69774008  0.25643940  1
  O  O68  1  0.17063101  0.48135040  0.25669299  1
  O  O69  1  0.30225992  0.47027779  0.75643940  1
  O  O70  1  0.16360760  0.69259358  0.75616848  1
  O  O71  1  0.51864960  0.82936899  0.75669299  1
loop_
_geom_bond_atom_site_label_1
_geom_bond_atom_site_label_2
_geom_bond_distance
_geom_bond_site_symmetry_2
Na0 O51 2.340188 1_555
Na0 O52 2.368065 1_555
Na0 O66 2.458958 1_655
Na0 O68 2.494945 1_655
Na0 O15 2.613961 1_555
Na0 O30 2.738079 1_655
Na0 O1 2.776008 1_555
Na0 O11 2.827094 1_655
Na1 O49 2.340188 1_555
Na1 O48 2.368065 1_555
Na1 O70 2.458958 1_545
Na1 O71 2.494945 1_545
Na1 O13 2.613961 1_555
Na1 O34 2.738079 1_545
Na1 O3 2.776008 1_555
Na1 O8 2.827094 1_545
Na2 O63 2.261075 1_555
Na2 O42 2.405353 1_565
Na2 O64 2.446122 1_555
Na2 O44 2.512813 1_555
Na2 O27 2.635986 1_555
Na2 O6 2.706366 1_555
Na2 O13 2.807112 1_565
Na2 O23 2.849221 1_565
Na3 O61 2.261075 1_555
Na3 O46 2.405353 1_455
Na3 O60 2.446122 1_555
Na3 O47 2.512813 1_555
Na3 O25 2.635986 1_554
Na3 O10 2.706366 1_555
Na3 O15 2.807112 1_455
Na3 O20 2.849221 1_455
Na4 O40 2.291472 1_655
Na4 O55 2.403524 1_555
Na4 O41 2.421941 1_555
Na4 O54 2.543270 1_555
Na4 O4 2.639805 1_555
Na4 O19 2.723965 1_556
Na4 O26 2.724735 1_655
Na4 O33 2.833234 1_655
Na5 O36 2.291472 1_545
Na5 O57 2.403524 1_555
Na5 O38 2.421941 1_555
Na5 O58 2.543270 1_555
Na5 O0 2.639805 1_555
Na5 O21 2.723965 1_555
Na5 O29 2.724735 1_545
Na5 O31 2.833234 1_545
Na6 O36 2.471327 1_555
Na6 O37 2.480297 1_455
Na6 O38 2.506743 1_565
Na6 O43 2.597001 1_565
Na6 O44 2.667867 1_455
Na6 O42 2.684484 1_465
Na7 O40 2.471327 1_555
Na7 O39 2.480297 1_565
Na7 O41 2.506743 1_455
Na7 O45 2.597001 1_456
Na7 O47 2.667867 1_566
Na7 O46 2.684484 1_466
Na8 O48 2.406395 1_555
Na8 O50 2.526197 1_555
Na8 O49 2.531488 1_555
Na8 O56 2.609708 1_555
Na8 O55 2.648115 1_555
Na8 O54 2.685118 1_555
Na9 O52 2.406395 1_555
Na9 O53 2.526197 1_555
Na9 O51 2.531488 1_555
Na9 O59 2.609708 1_555
Na9 O57 2.648115 1_555
Na9 O58 2.685118 1_555
Na10 O62 2.459543 1_555
Na10 O61 2.464871 1_555
Na10 O60 2.532855 1_555
Na10 O67 2.614695 1_555
Na10 O66 2.670408 1_555
Na10 O68 2.671002 1_555
Na11 O65 2.459543 1_555
Na11 O63 2.464871 1_555
Na11 O64 2.532855 1_555
Na11 O69 2.614695 1_555
Na11 O70 2.670408 1_555
Na11 O71 2.671002 1_555
Nb0 O6 1.956602 1_445
Nb0 O43 1.960055 1_555
Nb0 O7 1.981251 1_555
Nb0 O8 1.991740 1_545
Nb0 O42 2.067537 1_455
Nb0 O44 2.075025 1_445
Nb1 O10 1.956602 1_665
Nb1 O45 1.960055 1_555
Nb1 O9 1.981251 1_555
Nb1 O11 1.991740 1_655
Nb1 O46 2.067537 1_565
Nb1 O47 2.075025 1_665
Nb2 O19 1.962552 1_556
Nb2 O56 1.963068 1_555
Nb2 O18 1.974833 1_556
Nb2 O20 1.997863 1_556
Nb2 O54 2.041850 1_555
Nb2 O55 2.086226 1_555
Nb3 O21 1.962552 1_555
Nb3 O59 1.963068 1_555
Nb3 O22 1.974833 1_555
Nb3 O23 1.997863 1_555
Nb3 O58 2.041850 1_555
Nb3 O57 2.086226 1_555
Nb4 O30 1.915607 1_555
Nb4 O68 1.945255 1_555
Nb4 O32 1.964849 1_555
Nb4 O31 2.067866 1_555
Nb4 O67 2.071221 1_555
Nb4 O66 2.080524 1_555
Nb5 O34 1.915607 1_555
Nb5 O71 1.945255 1_555
Nb5 O35 1.964849 1_555
Nb5 O33 2.067866 1_555
Nb5 O69 2.071221 1_555
Nb5 O70 2.080524 1_555
Ga0 O2 1.853741 1_565
Ga0 O36 1.945981 1_655
Ga0 O1 1.982504 1_555
Ga0 O37 2.018048 1_555
Ga0 O0 2.091315 1_665
Ga0 O38 2.140131 1_665
Ga1 O5 1.853741 1_455
Ga1 O40 1.945981 1_545
Ga1 O3 1.982504 1_555
Ga1 O39 2.018048 1_555
Ga1 O4 2.091315 1_445
Ga1 O41 2.140131 1_445
Ga2 O13 1.926115 1_555
Ga2 O48 1.968228 1_555
Ga2 O12 1.969231 1_555
Ga2 O14 1.985055 1_555
Ga2 O50 2.047085 1_555
Ga2 O49 2.114178 1_555
Ga3 O15 1.926115 1_555
Ga3 O52 1.968228 1_555
Ga3 O16 1.969231 1_555
Ga3 O17 1.985055 1_555
Ga3 O53 2.047085 1_555
Ga3 O51 2.114178 1_555
Ga4 O26 1.876028 1_554
Ga4 O61 1.969943 1_555
Ga4 O24 1.997070 1_554
Ga4 O62 2.032949 1_555
Ga4 O25 2.046298 1_554
Ga4 O60 2.124449 1_555
Ga5 O29 1.876028 1_555
Ga5 O63 1.969943 1_555
Ga5 O28 1.997070 1_555
Ga5 O65 2.032949 1_555
Ga5 O27 2.046298 1_555
Ga5 O64 2.124449 1_555
O0 P0 1.520704 1_555
O1 P1 1.522374 1_555
O2 Si0 1.587940 1_555
O3 P2 1.522374 1_555
O4 P3 1.520704 1_555
O5 Si1 1.587940 1_555
O6 Si1 1.665351 1_565
O7 P2 1.584710 1_555
O8 P3 1.588300 1_455
O9 P1 1.584710 1_555
O10 Si0 1.665351 1_455
O11 P0 1.588300 1_565
O12 P4 1.524038 1_555
O13 Si2 1.620518 1_555
O14 P5 1.517043 1_555
O15 Si3 1.620518 1_555
O16 P6 1.524038 1_555
O17 P7 1.517043 1_555
O18 P7 1.580929 1_555
O19 Si3 1.670088 1_555
O20 P6 1.581705 1_555
O21 Si2 1.670088 1_555
O22 P5 1.580929 1_555
O23 P4 1.581705 1_555
O24 P8 1.509106 1_555
O25 P9 1.531785 1_555
O26 Si4 1.601644 1_555
O27 P10 1.531785 1_555
O28 P11 1.509106 1_555
O29 Si5 1.601644 1_555
O30 Si5 1.684520 1_555
O31 P10 1.572365 1_555
O32 P11 1.580215 1_555
O33 P9 1.572365 1_555
O34 Si4 1.684520 1_555
O35 P8 1.580216 1_555
O36 Si5 1.620314 1_555
O37 P10 1.516982 1_555
O38 P11 1.526821 1_555
O39 P9 1.516982 1_555
O40 Si4 1.620314 1_555
O41 P8 1.526821 1_555
O42 P4 1.583341 1_555
O43 Si2 1.654372 1_555
O44 P5 1.585035 1_555
O45 Si3 1.654372 1_555
O46 P6 1.583341 1_555
O47 P7 1.585035 1_555
O48 Si1 1.622630 1_555
O49 P2 1.531196 1_555
O50 P3 1.518377 1_555
O51 P1 1.531195 1_555
O52 Si0 1.622630 1_555
O53 P0 1.518377 1_555
O54 P8 1.586514 1_555
O55 P9 1.593182 1_655
O56 Si4 1.648688 1_545
O57 P10 1.593182 1_545
O58 P11 1.586514 1_555
O59 Si5 1.648688 1_655
O60 P7 1.525542 1_555
O61 Si3 1.624643 1_455
O62 P6 1.511007 1_565
O63 Si2 1.624643 1_565
O64 P5 1.525542 1_555
O65 P4 1.511007 1_455
O66 P0 1.584589 1_565
O67 P1 1.554319 1_555
O68 Si0 1.703434 1_455
O69 P2 1.554319 1_555
O70 P3 1.584589 1_455
O71 Si1 1.703434 1_565
