# generated using pymatgen
data_MnVO4
_symmetry_space_group_name_H-M   'P 1'
_cell_length_a   5.02889298
_cell_length_b   5.02889298
_cell_length_c   6.45702700
_cell_angle_alpha   90.00000000
_cell_angle_beta   90.00000000
_cell_angle_gamma   111.28593651
_symmetry_Int_Tables_number   1
_chemical_formula_structural   MnVO4
_chemical_formula_sum   'Mn2 V2 O8'
_cell_volume   152.15665118
_cell_formula_units_Z   2
loop_
 _symmetry_equiv_pos_site_id
 _symmetry_equiv_pos_as_xyz
  1  'x, y, z'
loop_
 _atom_site_type_symbol
 _atom_site_label
 _atom_site_symmetry_multiplicity
 _atom_site_fract_x
 _atom_site_fract_y
 _atom_site_fract_z
 _atom_site_occupancy
  Mn  Mn0  1  0.00000000  0.00000000  0.00000000  1
  Mn  Mn1  1  0.00000000  0.00000000  0.50000000  1
  V  V0  1  0.35142600  0.64857400  0.25000000  1
  V  V1  1  0.64857400  0.35142600  0.75000000  1
  O  O0  1  0.77236900  0.22763100  0.96293900  1
  O  O1  1  0.78529400  0.73134000  0.75000000  1
  O  O2  1  0.26866000  0.21470600  0.75000000  1
  O  O3  1  0.21470600  0.26866000  0.25000000  1
  O  O4  1  0.77236900  0.22763100  0.53706100  1
  O  O5  1  0.22763100  0.77236900  0.46293900  1
  O  O6  1  0.73134000  0.78529400  0.25000000  1
  O  O7  1  0.22763100  0.77236900  0.03706100  1
loop_
_geom_bond_atom_site_label_1
_geom_bond_atom_site_label_2
_geom_bond_distance
_geom_bond_site_symmetry_2
Mn0 O0 1.905126 1_454
Mn0 O7 1.905126 1_545
Mn0 O2 2.130229 1_554
Mn0 O3 2.130229 1_555
Mn0 O1 2.130229 1_444
Mn0 O6 2.130229 1_445
Mn1 O4 1.905126 1_455
Mn1 O5 1.905126 1_545
Mn1 O3 2.130229 1_555
Mn1 O2 2.130229 1_555
Mn1 O1 2.130229 1_445
Mn1 O6 2.130229 1_445
O0 V1 1.716692 1_555
O1 V1 1.780220 1_555
O2 V1 1.780220 1_555
O3 V0 1.780220 1_555
O4 V1 1.716692 1_555
O5 V0 1.716692 1_555
O6 V0 1.780220 1_555
O7 V0 1.716692 1_555
