# generated using pymatgen
data_MgFe12(OF)12
_symmetry_space_group_name_H-M   'P 1'
_cell_length_a   9.81396147
_cell_length_b   14.54891376
_cell_length_c   3.09880600
_cell_angle_alpha   90.00000000
_cell_angle_beta   90.00000000
_cell_angle_gamma   90.95054250
_symmetry_Int_Tables_number   1
_chemical_formula_structural   MgFe12(OF)12
_chemical_formula_sum   'Mg1 Fe12 O12 F12'
_cell_volume   442.39431545
_cell_formula_units_Z   1
loop_
 _symmetry_equiv_pos_site_id
 _symmetry_equiv_pos_as_xyz
  1  'x, y, z'
loop_
 _atom_site_type_symbol
 _atom_site_label
 _atom_site_symmetry_multiplicity
 _atom_site_fract_x
 _atom_site_fract_y
 _atom_site_fract_z
 _atom_site_occupancy
  Mg  Mg0  1  0.75266000  0.32317500  0.50000000  1
  Fe  Fe0  1  0.03083200  0.99866100  0.00000000  1
  Fe  Fe1  1  0.04380500  0.33361600  0.00000000  1
  Fe  Fe2  1  0.99899700  0.66988700  0.00000000  1
  Fe  Fe3  1  0.23578500  0.16528000  0.50000000  1
  Fe  Fe4  1  0.24853300  0.49691700  0.50000000  1
  Fe  Fe5  1  0.25540300  0.84832500  0.50000000  1
  Fe  Fe6  1  0.48409300  0.35497900  0.00000000  1
  Fe  Fe7  1  0.49569200  0.99191300  0.00000000  1
  Fe  Fe8  1  0.50742000  0.67134400  0.00000000  1
  Fe  Fe9  1  0.73453400  0.06234700  0.50000000  1
  Fe  Fe10  1  0.71976400  0.51475300  0.50000000  1
  Fe  Fe11  1  0.72810100  0.82938700  0.50000000  1
  O  O0  1  0.10919100  0.26918200  0.50000000  1
  O  O1  1  0.10475000  0.92881400  0.50000000  1
  O  O2  1  0.16759900  0.10142600  0.00000000  1
  O  O3  1  0.15946300  0.44208300  0.00000000  1
  O  O4  1  0.35652300  0.89842000  0.00000000  1
  O  O5  1  0.40442100  0.41377200  0.50000000  1
  O  O6  1  0.61349800  0.94653000  0.50000000  1
  O  O7  1  0.57604700  0.60808400  0.50000000  1
  O  O8  1  0.63933800  0.09849100  0.00000000  1
  O  O9  1  0.67195300  0.40828900  0.00000000  1
  O  O10  1  0.64137800  0.77352900  0.00000000  1
  O  O11  1  0.92042200  0.05110400  0.50000000  1
  F  F0  1  0.10350900  0.60329000  0.50000000  1
  F  F1  1  0.16244400  0.76937200  0.00000000  1
  F  F2  1  0.34763100  0.23694400  0.00000000  1
  F  F3  1  0.33602100  0.57712700  0.00000000  1
  F  F4  1  0.40297200  0.06558200  0.50000000  1
  F  F5  1  0.39195900  0.73447300  0.50000000  1
  F  F6  1  0.56782800  0.27121700  0.50000000  1
  F  F7  1  0.84777900  0.26211400  0.00000000  1
  F  F8  1  0.83974000  0.89257800  0.00000000  1
  F  F9  1  0.84493000  0.56895600  0.00000000  1
  F  F10  1  0.92420200  0.39928600  0.50000000  1
  F  F11  1  0.89364200  0.73819500  0.50000000  1
loop_
_geom_bond_atom_site_label_1
_geom_bond_atom_site_label_2
_geom_bond_distance
_geom_bond_site_symmetry_2
Mg0 O9 2.143355 1_556
Mg0 O9 2.143355 1_555
Fe0 O2 1.992579 1_565
Fe0 O1 1.995999 1_555
Fe0 O1 1.995999 1_554
Fe0 O11 2.045564 1_465
Fe0 O11 2.045564 1_464
Fe1 O0 1.926443 1_554
Fe1 O0 1.926443 1_555
Fe1 O3 1.928540 1_555
Fe3 O2 1.921164 1_555
Fe3 O2 1.921164 1_556
Fe3 O0 1.972552 1_555
Fe4 O3 1.943723 1_555
Fe4 O3 1.943723 1_556
Fe4 O5 1.966019 1_555
Fe5 O1 1.901242 1_555
Fe5 O4 1.972986 1_555
Fe5 O4 1.972986 1_556
Fe6 O5 1.940585 1_554
Fe6 O5 1.940585 1_555
Fe6 O9 1.988257 1_555
Fe7 O4 1.911536 1_555
Fe7 O6 2.049050 1_555
Fe7 O6 2.049050 1_554
Fe7 O8 2.078262 1_565
Fe8 O7 1.929221 1_554
Fe8 O7 1.929221 1_555
Fe8 O10 1.968172 1_555
Fe9 O11 1.834317 1_555
Fe9 O8 1.888464 1_555
Fe9 O8 1.888464 1_556
Fe9 O6 2.045440 1_545
Fe10 O7 1.973996 1_555
Fe10 O9 2.235151 1_556
Fe10 O9 2.235151 1_555
Fe11 O10 1.939717 1_556
Fe11 O10 1.939717 1_555
Fe11 O6 2.057479 1_555
F0 Fe2 2.103433 1_456
F0 Fe2 2.103433 1_455
F0 Fe4 2.119871 1_555
F1 Fe5 2.125472 1_555
F1 Fe5 2.125472 1_554
F1 Fe2 2.142650 1_455
F2 Fe3 2.157453 1_554
F2 Fe3 2.157453 1_555
F2 Fe6 2.160160 1_555
F3 Fe4 2.113391 1_554
F3 Fe4 2.113391 1_555
F3 Fe8 2.152194 1_555
F4 Fe7 2.099948 1_546
F4 Fe7 2.099948 1_545
F4 Fe3 2.207945 1_555
F5 Fe8 2.136054 1_555
F5 Fe8 2.136054 1_556
F5 Fe5 2.147884 1_555
F6 Mg0 1.953534 1_555
F6 Fe6 2.143428 1_556
F6 Fe6 2.143428 1_555
F7 Mg0 2.022073 1_554
F7 Mg0 2.022073 1_555
F7 Fe1 2.171808 1_655
F8 Fe11 2.100676 1_555
F8 Fe11 2.100676 1_554
F8 Fe0 2.408949 1_655
F9 Fe2 2.090169 1_555
F9 Fe10 2.121154 1_555
F9 Fe10 2.121154 1_554
F10 Mg0 1.999632 1_555
F10 Fe1 2.174502 1_656
F10 Fe1 2.174502 1_655
F11 Fe11 2.114505 1_555
F11 Fe2 2.119304 1_556
F11 Fe2 2.119304 1_555
