# generated using pymatgen
data_TmMg(FeO2)2
_symmetry_space_group_name_H-M   'P 1'
_cell_length_a   3.43278638
_cell_length_b   3.43278638
_cell_length_c   11.22841409
_cell_angle_alpha   76.25927199
_cell_angle_beta   76.25927199
_cell_angle_gamma   55.68396583
_symmetry_Int_Tables_number   1
_chemical_formula_structural   TmMg(FeO2)2
_chemical_formula_sum   'Tm1 Mg1 Fe2 O4'
_cell_volume   105.26826381
_cell_formula_units_Z   1
loop_
 _symmetry_equiv_pos_site_id
 _symmetry_equiv_pos_as_xyz
  1  'x, y, z'
loop_
 _atom_site_type_symbol
 _atom_site_label
 _atom_site_symmetry_multiplicity
 _atom_site_fract_x
 _atom_site_fract_y
 _atom_site_fract_z
 _atom_site_occupancy
  Tm  Tm0  1  0.01244011  0.01244011  0.03352109  1
  Mg  Mg0  1  0.39848232  0.39848232  0.77420175  1
  Fe  Fe0  1  0.20666016  0.20666016  0.32407023  1
  Fe  Fe1  1  0.76102131  0.76102131  0.54904767  1
  O  O0  1  0.12757126  0.12757126  0.69759553  1
  O  O1  1  0.87272752  0.87272752  0.36508172  1
  O  O2  1  0.29050426  0.29050426  0.12616788  1
  O  O3  1  0.74130705  0.74130705  0.91602811  1
loop_
_geom_bond_atom_site_label_1
_geom_bond_atom_site_label_2
_geom_bond_distance
_geom_bond_site_symmetry_2
Mg0 O0 2.050558 1_555
Mg0 O0 2.145165 1_655
Mg0 O0 2.145165 1_565
Mg0 O3 2.280451 1_545
Mg0 O3 2.280451 1_455
Fe0 O1 1.954538 1_445
Fe0 O1 2.012018 1_455
Fe0 O1 2.012018 1_545
Fe0 O2 2.142260 1_555
Fe1 O1 1.993537 1_555
Fe1 O0 2.298431 1_565
Fe1 O0 2.298431 1_655
O2 Tm0 2.171362 1_655
O2 Tm0 2.171362 1_565
O2 Tm0 2.207989 1_555
O3 Tm0 2.292700 1_656
O3 Tm0 2.292700 1_566
O3 Tm0 2.369892 1_666
