# generated using pymatgen
data_GaP3(HO5)2
_symmetry_space_group_name_H-M   'P 1'
_cell_length_a   8.81575300
_cell_length_b   7.44596300
_cell_length_c   12.51583807
_cell_angle_alpha   67.22663106
_cell_angle_beta   90.00000000
_cell_angle_gamma   90.00000000
_symmetry_Int_Tables_number   1
_chemical_formula_structural   GaP3(HO5)2
_chemical_formula_sum   'Ga4 P12 H8 O40'
_cell_volume   757.51542013
_cell_formula_units_Z   4
loop_
 _symmetry_equiv_pos_site_id
 _symmetry_equiv_pos_as_xyz
  1  'x, y, z'
loop_
 _atom_site_type_symbol
 _atom_site_label
 _atom_site_symmetry_multiplicity
 _atom_site_fract_x
 _atom_site_fract_y
 _atom_site_fract_z
 _atom_site_occupancy
  Ga  Ga0  1  0.93347100  0.25045600  0.20545900  1
  Ga  Ga1  1  0.43347100  0.74954400  0.29454100  1
  Ga  Ga2  1  0.06652900  0.74954400  0.79454100  1
  Ga  Ga3  1  0.56652900  0.25045600  0.70545900  1
  P  P0  1  0.88135200  0.70252900  0.02450300  1
  P  P1  1  0.38135200  0.29747100  0.47549700  1
  P  P2  1  0.11864800  0.29747100  0.97549700  1
  P  P3  1  0.61864800  0.70252900  0.52450300  1
  P  P4  1  0.11272600  0.64124200  0.20778300  1
  P  P5  1  0.61272600  0.35875800  0.29221700  1
  P  P6  1  0.88727400  0.35875800  0.79221700  1
  P  P7  1  0.38727400  0.64124200  0.70778300  1
  P  P8  1  0.11080600  0.85775300  0.36241600  1
  P  P9  1  0.61080600  0.14224700  0.13758400  1
  P  P10  1  0.88919400  0.14224700  0.63758400  1
  P  P11  1  0.38919400  0.85775300  0.86241600  1
  H  H0  1  0.67942300  0.74007200  0.11404700  1
  H  H1  1  0.17942300  0.25992800  0.38595300  1
  H  H2  1  0.32057700  0.25992800  0.88595300  1
  H  H3  1  0.82057700  0.74007200  0.61404700  1
  H  H4  1  0.14193100  0.72828300  0.55437200  1
  H  H5  1  0.64193100  0.27171700  0.94562800  1
  H  H6  1  0.85806900  0.27171700  0.44562800  1
  H  H7  1  0.35806900  0.72828300  0.05437200  1
  O  O0  1  0.74362300  0.81576900  0.04623600  1
  O  O1  1  0.24362300  0.18423100  0.45376400  1
  O  O2  1  0.25637700  0.18423100  0.95376400  1
  O  O3  1  0.75637700  0.81576900  0.54623600  1
  O  O4  1  0.08390600  0.20663300  0.10316400  1
  O  O5  1  0.58390600  0.79336700  0.39683600  1
  O  O6  1  0.91609400  0.79336700  0.89683600  1
  O  O7  1  0.41609400  0.20663300  0.60316400  1
  O  O8  1  0.57872700  0.57548200  0.24660700  1
  O  O9  1  0.07872700  0.42451800  0.25339300  1
  O  O10  1  0.42127300  0.42451800  0.75339300  1
  O  O11  1  0.92127300  0.57548200  0.74660700  1
  O  O12  1  0.22127400  0.69771500  0.68459700  1
  O  O13  1  0.72127400  0.30228500  0.81540300  1
  O  O14  1  0.77872600  0.30228500  0.31540300  1
  O  O15  1  0.27872600  0.69771500  0.18459700  1
  O  O16  1  0.85582700  0.48449800  0.07831300  1
  O  O17  1  0.35582700  0.51550200  0.42168700  1
  O  O18  1  0.14417300  0.51550200  0.92168700  1
  O  O19  1  0.64417300  0.48449800  0.57831300  1
  O  O20  1  0.77587000  0.09678600  0.17101600  1
  O  O21  1  0.27587000  0.90321400  0.32898400  1
  O  O22  1  0.22413000  0.90321400  0.82898400  1
  O  O23  1  0.72413000  0.09678600  0.67101600  1
  O  O24  1  0.01010500  0.03444000  0.33597700  1
  O  O25  1  0.51010500  0.96556000  0.16402300  1
  O  O26  1  0.98989500  0.96556000  0.66402300  1
  O  O27  1  0.48989500  0.03444000  0.83597700  1
  O  O28  1  0.02588200  0.75371000  0.08929000  1
  O  O29  1  0.52588200  0.24629000  0.41071000  1
  O  O30  1  0.97411800  0.24629000  0.91071000  1
  O  O31  1  0.47411800  0.75371000  0.58929000  1
  O  O32  1  0.08411600  0.71274600  0.48976100  1
  O  O33  1  0.58411600  0.28725400  0.01023900  1
  O  O34  1  0.91588400  0.28725400  0.51023900  1
  O  O35  1  0.41588400  0.71274600  0.98976100  1
  O  O36  1  0.04137500  0.72905800  0.29390700  1
  O  O37  1  0.54137500  0.27094200  0.20609300  1
  O  O38  1  0.95862500  0.27094200  0.70609300  1
  O  O39  1  0.45862500  0.72905800  0.79390700  1
loop_
_geom_bond_atom_site_label_1
_geom_bond_atom_site_label_2
_geom_bond_distance
_geom_bond_site_symmetry_2
Ga0 O24 1.917775 1_655
Ga0 O20 1.951228 1_555
Ga0 O4 1.956499 1_655
Ga0 O16 1.972526 1_555
Ga0 O9 2.069163 1_655
Ga0 O14 2.077152 1_555
Ga1 O25 1.917775 1_555
Ga1 O21 1.951228 1_555
Ga1 O5 1.956499 1_555
Ga1 O17 1.972526 1_555
Ga1 O8 2.069163 1_555
Ga1 O15 2.077152 1_555
Ga2 O26 1.917775 1_455
Ga2 O22 1.951228 1_555
Ga2 O6 1.956499 1_455
Ga2 O18 1.972526 1_555
Ga2 O11 2.069163 1_455
Ga2 O12 2.077152 1_555
Ga3 O27 1.917775 1_555
Ga3 O23 1.951228 1_555
Ga3 O7 1.956499 1_555
Ga3 O19 1.972526 1_555
Ga3 O10 2.069163 1_555
Ga3 O13 2.077152 1_555
H0 O0 0.993974 1_555
H1 O1 0.993974 1_555
H2 O2 0.993974 1_555
H3 O3 0.993974 1_555
H4 O32 0.999759 1_555
H4 O12 1.705977 1_555
H5 O33 0.999759 1_556
H5 O13 1.705977 1_555
H6 O34 0.999759 1_555
H6 O14 1.705977 1_555
H7 O35 0.999759 1_554
H7 O15 1.705977 1_555
O0 P0 1.561007 1_555
O1 P1 1.561007 1_555
O2 P2 1.561007 1_555
O3 P3 1.561007 1_555
O4 P2 1.505906 1_554
O5 P3 1.505906 1_555
O6 P0 1.505906 1_556
O7 P1 1.505906 1_555
O8 P5 1.518760 1_555
O9 P4 1.518760 1_555
O10 P7 1.518760 1_555
O11 P6 1.518760 1_555
O12 P7 1.519258 1_555
O13 P6 1.519258 1_555
O14 P5 1.519258 1_555
O15 P4 1.519258 1_555
O16 P0 1.514381 1_555
O17 P1 1.514381 1_555
O18 P2 1.514381 1_555
O19 P3 1.514381 1_555
O20 P9 1.515755 1_555
O21 P8 1.515755 1_555
O22 P11 1.515755 1_555
O23 P10 1.515755 1_555
O24 P8 1.513735 1_545
O25 P9 1.513735 1_565
O26 P10 1.513735 1_565
O27 P11 1.513735 1_545
O28 P4 1.589136 1_555
O28 P0 1.632604 1_455
O29 P5 1.589136 1_555
O29 P1 1.632604 1_555
O30 P6 1.589136 1_555
O30 P2 1.632604 1_655
O31 P7 1.589136 1_555
O31 P3 1.632604 1_555
O32 P8 1.558582 1_555
O33 P9 1.558582 1_555
O34 P10 1.558582 1_555
O35 P11 1.558582 1_555
O36 P4 1.590837 1_555
O36 P8 1.632247 1_555
O37 P5 1.590837 1_555
O37 P9 1.632247 1_555
O38 P6 1.590837 1_555
O38 P10 1.632247 1_555
O39 P7 1.590837 1_555
O39 P11 1.632247 1_555
