# generated using pymatgen
data_Nd2MgTi2S2O5
_symmetry_space_group_name_H-M   'P 1'
_cell_length_a   3.97461293
_cell_length_b   3.97461285
_cell_length_c   11.68479178
_cell_angle_alpha   99.79225446
_cell_angle_beta   99.79225783
_cell_angle_gamma   90.00001308
_symmetry_Int_Tables_number   1
_chemical_formula_structural   Nd2MgTi2S2O5
_chemical_formula_sum   'Nd2 Mg1 Ti2 S2 O5'
_cell_volume   179.17203857
_cell_formula_units_Z   1
loop_
 _symmetry_equiv_pos_site_id
 _symmetry_equiv_pos_as_xyz
  1  'x, y, z'
loop_
 _atom_site_type_symbol
 _atom_site_label
 _atom_site_symmetry_multiplicity
 _atom_site_fract_x
 _atom_site_fract_y
 _atom_site_fract_z
 _atom_site_occupancy
  Nd  Nd0  1  0.33442600  0.33442600  0.66885300  1
  Nd  Nd1  1  0.66557400  0.66557400  0.33114700  1
  Mg  Mg0  1  0.50000000  0.50000000  0.00000000  1
  Ti  Ti0  1  0.08422500  0.08422500  0.16845000  1
  Ti  Ti1  1  0.91577400  0.91577400  0.83155000  1
  S  S0  1  0.20291500  0.20291500  0.40582800  1
  S  S1  1  0.79708600  0.79708600  0.59417300  1
  O  O0  1  0.90577300  0.40577300  0.81154500  1
  O  O1  1  0.09422700  0.59422700  0.18845600  1
  O  O2  1  0.40577300  0.90577300  0.81154400  1
  O  O3  1  0.59422700  0.09422700  0.18845500  1
  O  O4  1  0.00000000  0.00000000  0.00000000  1
loop_
_geom_bond_atom_site_label_1
_geom_bond_atom_site_label_2
_geom_bond_distance
_geom_bond_site_symmetry_2
Nd0 O2 2.562904 1_545
Nd0 O0 2.562913 1_455
Nd0 O2 2.562913 1_555
Nd0 O0 2.562919 1_555
Nd0 S1 2.935334 1_445
Nd0 S1 2.935334 1_555
Nd0 S1 2.935335 1_455
Nd0 S1 2.935335 1_545
Nd0 S0 2.983167 1_555
Nd1 O1 2.562904 1_655
Nd1 O3 2.562913 1_565
Nd1 O1 2.562913 1_555
Nd1 O3 2.562919 1_555
Nd1 S0 2.935335 1_555
Nd1 S0 2.935338 1_655
Nd1 S0 2.935338 1_565
Nd1 S0 2.935340 1_665
Nd1 S1 2.983179 1_555
Mg0 O4 2.810475 1_665
Mg0 O4 2.810475 1_555
Mg0 O4 2.810476 1_655
Mg0 O4 2.810476 1_565
S0 Ti0 2.692285 1_555
S1 Ti1 2.692274 1_555
O0 Ti1 2.000211 1_555
O0 Ti1 2.000223 1_545
O1 Ti0 2.000214 1_555
O1 Ti0 2.000222 1_565
O2 Ti1 2.000210 1_555
O2 Ti1 2.000226 1_455
O3 Ti0 2.000215 1_555
O3 Ti0 2.000219 1_655
O4 Ti0 1.910520 1_555
O4 Ti1 1.910520 1_444
