# generated using pymatgen
data_Na3La2Zn2PS5O24
_symmetry_space_group_name_H-M   'P 1'
_cell_length_a   9.12192838
_cell_length_b   9.17969079
_cell_length_c   23.82100373
_cell_angle_alpha   90.69495884
_cell_angle_beta   89.19399353
_cell_angle_gamma   119.98553694
_symmetry_Int_Tables_number   1
_chemical_formula_structural   Na3La2Zn2PS5O24
_chemical_formula_sum   'Na9 La6 Zn6 P3 S15 O72'
_cell_volume   1727.50047540
_cell_formula_units_Z   3
loop_
 _symmetry_equiv_pos_site_id
 _symmetry_equiv_pos_as_xyz
  1  'x, y, z'
loop_
 _atom_site_type_symbol
 _atom_site_label
 _atom_site_symmetry_multiplicity
 _atom_site_fract_x
 _atom_site_fract_y
 _atom_site_fract_z
 _atom_site_occupancy
  Na  Na0  1  0.36490268  0.98953255  0.75022296  1
  Na  Na1  1  0.65808344  0.96993000  0.58927444  1
  Na  Na2  1  0.67204737  0.69389634  0.08294182  1
  Na  Na3  1  0.02952436  0.00241863  0.51186342  1
  Na  Na4  1  0.01991907  0.00695509  0.01041953  1
  Na  Na5  1  0.68430615  0.33812162  0.83258454  1
  Na  Na6  1  0.66787753  0.33433425  0.33248283  1
  Na  Na7  1  0.30574224  0.66340302  0.16761347  1
  Na  Na8  1  0.32814414  0.65368140  0.66721057  1
  La  La0  1  0.00113366  0.00100305  0.35504395  1
  La  La1  1  0.98455512  -0.00139001  0.85484906  1
  La  La2  1  0.67059581  0.33472089  0.67870561  1
  La  La3  1  0.67689831  0.33626944  0.18136771  1
  La  La4  1  0.67430139  0.33601422  0.98349442  1
  La  La5  1  0.65390260  0.32793304  0.48285431  1
  Zn  Zn0  1  0.00130147  0.99771996  0.65411420  1
  Zn  Zn1  1  0.01491700  0.99598922  0.15336874  1
  Zn  Zn2  1  0.31401037  0.67042963  0.01625810  1
  Zn  Zn3  1  0.32337638  0.67294646  0.51600166  1
  Zn  Zn4  1  0.33326374  0.66409987  0.31578451  1
  Zn  Zn5  1  0.35352485  0.67276536  0.81535159  1
  P  P0  1  0.69123911  0.98596382  0.74577329  1
  P  P1  1  0.34388327  0.01008341  0.58600857  1
  P  P2  1  0.98417698  0.65714235  0.08365991  1
  S  S0  1  0.29466054  0.98389712  0.24863630  1
  S  S1  1  0.68925406  0.70714215  0.24805545  1
  S  S2  1  0.01753153  0.30470393  0.24884642  1
  S  S3  1  0.28974247  0.30262935  0.74908889  1
  S  S4  1  0.01269672  0.70732765  0.74958082  1
  S  S5  1  0.98621029  0.33124249  0.58107097  1
  S  S6  1  0.66703534  0.65362746  0.58268081  1
  S  S7  1  0.66735614  0.01355160  0.08244351  1
  S  S8  1  0.35002497  0.33525280  0.08342756  1
  S  S9  1  0.60671822  0.66086641  0.92000005  1
  S  S10  1  0.05978139  0.39576096  0.91518860  1
  S  S11  1  0.33624438  0.94976096  0.91446575  1
  S  S12  1  0.60782199  0.94442424  0.41736345  1
  S  S13  1  0.33555914  0.39544283  0.41651305  1
  S  S14  1  0.05178331  0.66220183  0.41578962  1
  O  O0  1  0.21644001  0.00716805  0.30046965  1
  O  O1  1  0.79585409  0.79202176  0.29771778  1
  O  O2  1  0.99746757  0.20781230  0.30069459  1
  O  O3  1  0.21369002  0.19800216  0.79989271  1
  O  O4  1  0.99334422  0.78499467  0.80182104  1
  O  O5  1  0.79794960  0.00892227  0.79802855  1
  O  O6  1  0.77967541  0.97669864  0.69076607  1
  O  O7  1  0.19149974  0.21714764  0.69836317  1
  O  O8  1  0.02880148  0.81081758  0.70015837  1
  O  O9  1  0.77291448  0.79919077  0.19553305  1
  O  O10  1  0.02561862  0.21360803  0.19827878  1
  O  O11  1  0.19508958  0.97264552  0.19841297  1
  O  O12  1  0.91313279  0.36379111  0.63298021  1
  O  O13  1  0.45964792  0.08868647  0.63892305  1
  O  O14  1  0.64375991  0.55125246  0.63336871  1
  O  O15  1  0.90063134  0.54369942  0.13564743  1
  O  O16  1  0.63708913  0.09138851  0.13289906  1
  O  O17  1  0.46408305  0.36466319  0.13216211  1
  O  O18  1  0.42842375  0.30354535  0.03257149  1
  O  O19  1  0.86017542  0.57026697  0.03331047  1
  O  O20  1  0.69174207  0.12042011  0.03277519  1
  O  O21  1  0.43666723  0.13139430  0.53576069  1
  O  O22  1  0.69367961  0.57052694  0.53289154  1
  O  O23  1  0.86841689  0.30342289  0.53361656  1
  O  O24  1  0.52017174  0.66277374  0.97255264  1
  O  O25  1  0.14277702  0.47759979  0.96805888  1
  O  O26  1  0.33380722  0.85709573  0.96464259  1
  O  O27  1  0.52798949  0.86164806  0.47085208  1
  O  O28  1  0.33389599  0.48308760  0.46825701  1
  O  O29  1  0.14009765  0.66836490  0.46759971  1
  O  O30  1  0.13707484  0.65732172  0.36360356  1
  O  O31  1  0.51547157  0.85580911  0.36661699  1
  O  O32  1  0.33902594  0.47998322  0.36417161  1
  O  O33  1  0.14732765  0.48510993  0.86387601  1
  O  O34  1  0.34160729  0.86965700  0.86057752  1
  O  O35  1  0.52002710  0.65857185  0.86820107  1
  O  O36  1  0.03203019  0.81559878  0.41682422  1
  O  O37  1  0.78150246  0.96514508  0.41699846  1
  O  O38  1  0.18301667  0.22156109  0.41819270  1
  O  O39  1  0.03880492  0.22313278  0.91658509  1
  O  O40  1  0.18277165  0.96913335  0.91671983  1
  O  O41  1  0.78011929  0.81325864  0.92121891  1
  O  O42  1  0.98818339  0.17119562  0.58745969  1
  O  O43  1  0.16912000  0.99389571  0.59444615  1
  O  O44  1  0.81795489  0.82455763  0.58806375  1
  O  O45  1  0.98762661  0.82782780  0.09179343  1
  O  O46  1  0.82180959  -0.00053367  0.08895486  1
  O  O47  1  0.18115895  0.18612592  0.09207626  1
  O  O48  1  0.66205199  0.14198303  0.74532680  1
  O  O49  1  0.46297226  0.31767492  0.74511822  1
  O  O50  1  0.86150029  0.53535127  0.74634859  1
  O  O51  1  0.66818993  0.53371034  0.24659818  1
  O  O52  1  0.86273571  0.32384389  0.24757683  1
  O  O53  1  0.46759988  0.13636989  0.24531083  1
  O  O54  1  0.62843367  0.50857588  0.91804964  1
  O  O55  1  0.88350477  0.37259423  0.91417272  1
  O  O56  1  0.49042116  0.12278806  0.91549151  1
  O  O57  1  0.62971723  0.11835518  0.41624162  1
  O  O58  1  0.48913389  0.37347236  0.41536567  1
  O  O59  1  0.87754187  0.51012265  0.41618783  1
  O  O60  1  0.34391696  0.49250446  0.07675828  1
  O  O61  1  0.15969270  0.67662510  0.07484889  1
  O  O62  1  0.51909722  0.84168666  0.07532108  1
  O  O63  1  0.34090910  0.84094507  0.57627416  1
  O  O64  1  0.51400023  0.67011490  0.57672450  1
  O  O65  1  0.15559813  0.47691834  0.57232086  1
  O  O66  1  0.30746796  0.82980888  0.25222776  1
  O  O67  1  0.52122509  0.69381316  0.25391458  1
  O  O68  1  0.17045297  0.47379078  0.25207554  1
  O  O69  1  0.30810535  0.47071917  0.75476477  1
  O  O70  1  0.17008139  0.69597267  0.75230991  1
  O  O71  1  0.51107071  0.82712119  0.75155053  1
loop_
_geom_bond_atom_site_label_1
_geom_bond_atom_site_label_2
_geom_bond_distance
_geom_bond_site_symmetry_2
Na0 O48 2.350040 1_565
Na0 O70 2.374117 1_555
Na0 O71 2.447618 1_555
Na0 O49 2.683465 1_565
Na0 O13 2.795074 1_565
Na0 O34 2.826157 1_555
Na0 O8 2.922536 1_555
Na1 O64 2.401429 1_555
Na1 O44 2.418995 1_555
Na1 O63 2.541809 1_555
Na1 O42 2.630549 1_565
Na1 O6 2.661192 1_555
Na1 O13 2.782911 1_565
Na1 O23 2.994452 1_565
Na1 O27 3.033331 1_555
Na2 O62 2.392737 1_555
Na2 O46 2.433198 1_565
Na2 O45 2.513165 1_555
Na2 O60 2.621690 1_555
Na2 O19 2.736376 1_555
Na2 O9 2.844600 1_555
Na2 O17 2.898284 1_555
Na2 O24 2.933307 1_554
Na3 O43 2.381450 1_545
Na3 O42 2.506518 1_455
Na3 O44 2.551252 1_445
Na3 O36 2.830281 1_545
Na3 O38 2.862102 1_555
Na4 O45 2.474899 1_445
Na4 O47 2.497375 1_555
Na4 O46 2.560111 1_455
Na4 O40 2.777177 1_544
Na4 O41 2.934757 1_444
Na4 O39 2.952795 1_554
Na5 O55 2.586276 1_555
Na5 O48 2.675662 1_555
Na5 O50 2.679934 1_555
Na5 O56 2.727195 1_555
Na5 O54 2.746545 1_555
Na5 O49 2.860551 1_555
Na6 O58 2.676452 1_555
Na6 O59 2.679912 1_555
Na6 O52 2.706406 1_555
Na6 O57 2.723864 1_555
Na6 O51 2.760556 1_555
Na6 O53 2.765621 1_555
Na7 O66 2.509675 1_555
Na7 O68 2.543352 1_555
Na7 O61 2.631267 1_555
Na7 O60 2.776491 1_555
Na7 O67 2.778328 1_555
Na7 O62 2.843008 1_555
Na8 O71 2.591671 1_555
Na8 O70 2.607132 1_555
Na8 O69 2.640356 1_555
Na8 O64 2.681885 1_555
Na8 O63 2.746664 1_555
Na8 O65 2.770887 1_555
La0 O0 2.317202 1_555
La0 O2 2.325005 1_455
La0 O1 2.338610 1_445
La0 O37 2.360013 1_445
La0 O36 2.386163 1_545
La0 O38 2.398622 1_555
La1 O5 2.228782 1_555
La1 O4 2.354035 1_545
La1 O39 2.362833 1_655
La1 O3 2.364280 1_655
La1 O41 2.383887 1_545
La1 O40 2.467457 1_645
La2 O13 2.314528 1_555
La2 O12 2.345523 1_555
La2 O48 2.362567 1_555
La2 O14 2.392292 1_555
La2 O49 2.395767 1_555
La2 O50 2.412881 1_555
La3 O15 2.253982 1_555
La3 O52 2.376344 1_555
La3 O16 2.377180 1_555
La3 O51 2.403718 1_555
La3 O17 2.405744 1_555
La3 O53 2.411753 1_555
La4 O19 2.292896 1_556
La4 O20 2.386737 1_556
La4 O18 2.398443 1_556
La4 O55 2.401169 1_555
La4 O54 2.419796 1_555
La4 O56 2.446749 1_555
La5 O21 2.276269 1_555
La5 O22 2.377335 1_555
La5 O58 2.393875 1_555
La5 O57 2.404023 1_555
La5 O23 2.419722 1_555
La5 O59 2.458384 1_555
O0 S0 1.483394 1_545
O1 S1 1.484870 1_555
O2 S2 1.485792 1_655
O3 S3 1.485557 1_555
O4 S4 1.478562 1_655
O5 P0 1.537551 1_545
O6 P0 1.552775 1_555
O6 Zn0 2.109761 1_655
O7 S3 1.477664 1_555
O7 Zn0 2.164541 1_545
O8 S4 1.480835 1_555
O8 Zn0 2.166374 1_555
O9 S1 1.488605 1_555
O9 Zn1 2.267375 1_655
O10 S2 1.480016 1_555
O10 Zn1 2.213792 1_545
O11 S0 1.483490 1_555
O11 Zn1 2.075002 1_555
O12 S5 1.493178 1_555
O13 P1 1.574271 1_555
O14 S6 1.485605 1_555
O15 P2 1.552521 1_555
O16 S7 1.482684 1_555
O17 S8 1.499564 1_555
O18 S8 1.496290 1_555
O19 P2 1.570746 1_555
O20 S7 1.488068 1_555
O21 P1 1.565525 1_555
O22 S6 1.484226 1_555
O23 S5 1.500164 1_555
O24 S9 1.475192 1_555
O24 Zn2 2.168112 1_556
O25 S10 1.469375 1_555
O25 Zn2 2.031952 1_556
O26 S11 1.468927 1_555
O26 Zn2 2.053322 1_556
O27 S12 1.474937 1_555
O27 Zn3 2.097142 1_555
O28 S13 1.467800 1_555
O28 Zn3 2.110981 1_555
O29 S14 1.468360 1_555
O29 Zn3 2.027070 1_555
O30 S14 1.469341 1_555
O30 Zn4 2.082600 1_555
O31 S12 1.467132 1_555
O31 Zn4 2.099283 1_555
O32 S13 1.468219 1_555
O32 Zn4 2.079815 1_555
O33 S10 1.465152 1_555
O33 Zn5 2.142386 1_555
O34 S11 1.483984 1_555
O34 Zn5 2.141269 1_555
O35 S9 1.469178 1_555
O35 Zn5 2.040655 1_555
O36 S14 1.506178 1_555
O37 S12 1.498232 1_555
O38 S13 1.505162 1_555
O39 S10 1.498973 1_555
O40 S11 1.496970 1_555
O41 S9 1.499427 1_555
O42 S5 1.487921 1_555
O42 Zn0 2.308336 1_645
O43 P1 1.535840 1_565
O43 Zn0 2.087152 1_555
O44 S6 1.488160 1_555
O44 Zn0 2.270567 1_655
O45 P2 1.561102 1_555
O45 Zn1 2.041465 1_655
O46 S7 1.488132 1_555
O46 Zn1 2.364692 1_645
O47 S8 1.476267 1_555
O47 Zn1 2.198100 1_545
O48 P0 1.582345 1_545
O49 S3 1.517558 1_555
O50 S4 1.491324 1_655
O51 S1 1.505266 1_555
O52 S2 1.508293 1_655
O53 S0 1.498688 1_545
O54 S9 1.506888 1_555
O55 S10 1.513466 1_655
O56 S11 1.506161 1_545
O57 S12 1.507307 1_545
O58 S13 1.511668 1_555
O59 S14 1.502412 1_655
O60 S8 1.482668 1_555
O60 Zn2 2.309245 1_555
O61 P2 1.531214 1_455
O61 Zn2 1.988859 1_555
O62 S7 1.487976 1_565
O62 Zn2 2.243083 1_555
O63 P1 1.553875 1_565
O63 Zn3 2.042420 1_555
O64 S6 1.486293 1_555
O64 Zn3 2.287674 1_555
O65 S5 1.466807 1_455
O65 Zn3 2.151334 1_555
O66 S0 1.479907 1_555
O66 Zn4 2.255020 1_555
O67 S1 1.480103 1_555
O67 Zn4 2.158111 1_555
O68 S2 1.482188 1_555
O68 Zn4 2.228554 1_555
O69 S3 1.471208 1_555
O69 Zn5 2.208704 1_555
O70 S4 1.492835 1_555
O70 Zn5 2.352754 1_555
O71 P0 1.565010 1_555
O71 Zn5 2.082837 1_555
