# generated using pymatgen
data_MgCo2P2(O4F)2
_symmetry_space_group_name_H-M   'P 1'
_cell_length_a   5.25350882
_cell_length_b   5.35786744
_cell_length_c   7.39268378
_cell_angle_alpha   108.64227614
_cell_angle_beta   107.60806676
_cell_angle_gamma   97.03582500
_symmetry_Int_Tables_number   1
_chemical_formula_structural   MgCo2P2(O4F)2
_chemical_formula_sum   'Mg1 Co2 P2 O8 F2'
_cell_volume   182.31223237
_cell_formula_units_Z   1
loop_
 _symmetry_equiv_pos_site_id
 _symmetry_equiv_pos_as_xyz
  1  'x, y, z'
loop_
 _atom_site_type_symbol
 _atom_site_label
 _atom_site_symmetry_multiplicity
 _atom_site_fract_x
 _atom_site_fract_y
 _atom_site_fract_z
 _atom_site_occupancy
  Mg  Mg0  1  0.01715100  0.67275400  0.28420800  1
  Co  Co0  1  0.99364100  0.00244500  0.98522000  1
  Co  Co1  1  0.51964000  0.49606700  0.51363500  1
  P  P0  1  0.41352000  0.09613900  0.74377600  1
  P  P1  1  0.58412900  0.91055800  0.25595300  1
  O  O0  1  0.26731700  0.81424900  0.15253400  1
  O  O1  1  0.75081200  0.85126300  0.11064300  1
  O  O2  1  0.66390700  0.22109900  0.37977100  1
  O  O3  1  0.69752400  0.74278800  0.38758500  1
  O  O4  1  0.24958500  0.11441700  0.88846700  1
  O  O5  1  0.32554200  0.79832000  0.57911800  1
  O  O6  1  0.33224900  0.28184900  0.62598500  1
  O  O7  1  0.72066000  0.18399000  0.87978400  1
  F  F0  1  0.14788300  0.34518100  0.25189100  1
  F  F1  1  0.84143800  0.65638000  0.75607500  1
loop_
_geom_bond_atom_site_label_1
_geom_bond_atom_site_label_2
_geom_bond_distance
_geom_bond_site_symmetry_2
Mg0 O0 2.061855 1_555
Mg0 O3 2.071679 1_455
Mg0 O5 2.118699 1_555
Mg0 O1 2.131934 1_455
Co0 O4 1.827037 1_655
Co0 F1 1.938082 1_545
Co0 O7 1.939202 1_555
Co0 O1 2.021364 1_546
Co0 F0 2.066339 1_656
Co0 O0 2.165730 1_646
Co1 O2 1.876016 1_555
Co1 F1 1.906561 1_555
Co1 O6 1.950302 1_555
Co1 O5 2.024519 1_555
Co1 O3 2.121512 1_555
Co1 F0 2.130447 1_555
O0 P1 1.545463 1_555
O1 P1 1.562301 1_555
O2 P1 1.550891 1_545
O3 P1 1.565094 1_555
O4 P0 1.551295 1_555
O5 P0 1.574386 1_565
O6 P0 1.537428 1_555
O7 P0 1.538153 1_555
F0 Mg0 1.932776 1_555
