# generated using pymatgen
data_KAg5S3
_symmetry_space_group_name_H-M   'P 1'
_cell_length_a   13.32530290
_cell_length_b   13.32531142
_cell_length_c   7.93105681
_cell_angle_alpha   90.00002264
_cell_angle_beta   89.99999975
_cell_angle_gamma   120.00012125
_symmetry_Int_Tables_number   1
_chemical_formula_structural   KAg5S3
_chemical_formula_sum   'K6 Ag30 S18'
_cell_volume   1219.59495522
_cell_formula_units_Z   6
loop_
 _symmetry_equiv_pos_site_id
 _symmetry_equiv_pos_as_xyz
  1  'x, y, z'
loop_
 _atom_site_type_symbol
 _atom_site_label
 _atom_site_symmetry_multiplicity
 _atom_site_fract_x
 _atom_site_fract_y
 _atom_site_fract_z
 _atom_site_occupancy
  K  K0  1  0.33333310  0.66666706  0.50111776  1
  K  K1  1  0.33333317  0.66666716  0.99888261  1
  K  K2  1  0.66666700  0.33333317  0.49888268  1
  K  K3  1  0.66666708  0.33333299  0.00111738  1
  K  K4  1  0.00000027  0.00000013  0.49999955  1
  K  K5  1  0.00000012  0.00000028  0.00000004  1
  Ag  Ag0  1  0.99482278  0.70140371  0.75000188  1
  Ag  Ag1  1  0.70658045  0.00517682  0.75000107  1
  Ag  Ag2  1  0.29859635  0.29341836  0.75000123  1
  Ag  Ag3  1  0.29341794  0.29859643  0.24999870  1
  Ag  Ag4  1  0.00517737  0.70658092  0.24999902  1
  Ag  Ag5  1  0.70140439  0.99482165  0.24999897  1
  Ag  Ag6  1  0.46502680  0.46502682  0.50000011  1
  Ag  Ag7  1  -0.00000009  0.53497497  -0.00000001  1
  Ag  Ag8  1  0.53497591  -0.00000016  0.00000029  1
  Ag  Ag9  1  0.53497571  -0.00000013  0.49999975  1
  Ag  Ag10  1  0.99999909  0.53497499  0.50000055  1
  Ag  Ag11  1  0.46502689  0.46502691  -0.00000004  1
  Ag  Ag12  1  0.18403688  0.85047608  0.50099233  1
  Ag  Ag13  1  0.14952248  0.33356153  0.50099276  1
  Ag  Ag14  1  0.66643926  0.81596171  0.50099203  1
  Ag  Ag15  1  0.81596282  0.66643922  0.49900816  1
  Ag  Ag16  1  0.66643918  0.81596232  0.99900800  1
  Ag  Ag17  1  0.18403677  0.85047599  0.99900768  1
  Ag  Ag18  1  0.14952172  0.33356141  0.99900728  1
  Ag  Ag19  1  0.85047649  0.18403783  0.00099254  1
  Ag  Ag20  1  0.33356120  0.14952259  0.00099245  1
  Ag  Ag21  1  0.33356187  0.14952347  0.49900725  1
  Ag  Ag22  1  0.85047664  0.18403804  0.49900748  1
  Ag  Ag23  1  0.81596254  0.66643925  0.00099206  1
  Ag  Ag24  1  0.63277312  0.63420515  0.24999994  1
  Ag  Ag25  1  0.36579404  0.99856599  0.24999838  1
  Ag  Ag26  1  0.00143189  0.36722727  0.24999836  1
  Ag  Ag27  1  0.36722714  0.00143244  0.75000167  1
  Ag  Ag28  1  0.99856525  0.36579404  0.75000134  1
  Ag  Ag29  1  0.63420553  0.63277298  0.75000012  1
  S  S0  1  0.55200525  0.77774224  0.25000012  1
  S  S1  1  0.22225780  0.77426301  0.25000007  1
  S  S2  1  0.22573670  0.44799484  0.25000001  1
  S  S3  1  0.44799502  0.22573715  0.74999996  1
  S  S4  1  0.77426269  0.22225739  0.74999998  1
  S  S5  1  0.77774264  0.55200536  0.75000007  1
  S  S6  1  0.53348815  0.41688702  0.25000007  1
  S  S7  1  0.58311254  0.11660092  0.25000006  1
  S  S8  1  0.88339857  0.46651161  0.25000004  1
  S  S9  1  0.46651139  0.88339888  0.74999993  1
  S  S10  1  0.11660094  0.58311238  0.74999991  1
  S  S11  1  0.41688715  0.53348835  0.74999999  1
  S  S12  1  0.86628743  0.78326164  0.25000007  1
  S  S13  1  0.21673853  0.08302588  0.24999998  1
  S  S14  1  0.91697454  0.13371313  0.25000013  1
  S  S15  1  0.13371385  0.91697701  0.74999828  1
  S  S16  1  0.08302590  0.21673852  0.74999992  1
  S  S17  1  0.78326180  0.86628731  0.75000006  1
loop_
_geom_bond_atom_site_label_1
_geom_bond_atom_site_label_2
_geom_bond_distance
_geom_bond_site_symmetry_2
K0 S9 3.203289 1_555
K0 S10 3.203291 1_555
K0 S11 3.203303 1_555
K0 S1 3.214821 1_555
K0 S0 3.214825 1_555
K0 S2 3.214826 1_555
K1 S9 3.203292 1_555
K1 S10 3.203294 1_555
K1 S11 3.203304 1_555
K1 S1 3.214819 1_556
K1 S0 3.214823 1_556
K1 S2 3.214827 1_556
K2 S8 3.203289 1_555
K2 S7 3.203295 1_555
K2 S6 3.203304 1_555
K2 S4 3.214821 1_555
K2 S3 3.214821 1_555
K2 S5 3.214824 1_555
K3 S8 3.203288 1_555
K3 S7 3.203295 1_555
K3 S6 3.203306 1_555
K3 S4 3.214819 1_554
K3 S3 3.214822 1_554
K3 S5 3.214827 1_554
K4 S15 3.209541 1_545
K4 S13 3.209553 1_555
K4 S12 3.209554 1_445
K4 S16 3.209559 1_555
K4 S17 3.209559 1_445
K4 S14 3.209561 1_455
K5 S17 3.209555 1_444
K5 S13 3.209556 1_555
K5 S16 3.209557 1_554
K5 S15 3.209558 1_544
K5 S12 3.209559 1_445
K5 S14 3.209561 1_455
Ag0 S15 2.522016 1_655
Ag0 S5 2.563593 1_555
Ag0 S10 2.770514 1_655
Ag1 S17 2.521992 1_545
Ag1 S4 2.563601 1_555
Ag1 S9 2.770503 1_545
Ag2 S16 2.521985 1_555
Ag2 S3 2.563597 1_555
Ag2 S11 2.770516 1_555
Ag3 S13 2.521989 1_555
Ag3 S2 2.563595 1_555
Ag3 S6 2.770517 1_555
Ag4 S12 2.521990 1_455
Ag4 S1 2.563598 1_555
Ag4 S8 2.770508 1_455
Ag5 S14 2.521983 1_565
Ag5 S0 2.563589 1_555
Ag5 S7 2.770533 1_565
Ag6 S11 2.400058 1_555
Ag6 S6 2.400059 1_555
Ag7 S10 2.400059 1_554
Ag7 S8 2.400061 1_455
Ag8 S7 2.400058 1_555
Ag8 S9 2.400061 1_544
Ag9 S7 2.400058 1_555
Ag9 S9 2.400061 1_545
Ag10 S8 2.400058 1_555
Ag10 S10 2.400060 1_655
Ag11 S11 2.400059 1_554
Ag11 S6 2.400060 1_555
Ag12 S15 2.393594 1_555
Ag12 S1 2.402210 1_555
Ag13 S16 2.393593 1_555
Ag13 S2 2.402211 1_555
Ag14 S17 2.393595 1_555
Ag14 S0 2.402209 1_555
Ag15 S12 2.393597 1_555
Ag15 S5 2.402208 1_555
Ag16 S17 2.393596 1_555
Ag16 S0 2.402209 1_556
Ag17 S15 2.393617 1_555
Ag17 S1 2.402212 1_556
Ag18 S16 2.393592 1_555
Ag18 S2 2.402211 1_556
Ag19 S14 2.393596 1_555
Ag19 S4 2.402210 1_554
Ag20 S13 2.393593 1_555
Ag20 S3 2.402212 1_554
Ag21 S13 2.393595 1_555
Ag21 S3 2.402208 1_555
Ag22 S14 2.393594 1_555
Ag22 S4 2.402209 1_555
Ag23 S12 2.393595 1_555
Ag23 S5 2.402208 1_554
Ag24 S6 2.510970 1_555
Ag24 S0 2.622060 1_555
Ag24 S12 2.728917 1_555
Ag25 S7 2.510973 1_565
Ag25 S1 2.622032 1_555
Ag25 S13 2.728933 1_565
Ag26 S8 2.510968 1_455
Ag26 S2 2.622053 1_555
Ag26 S14 2.728920 1_455
Ag27 S9 2.510970 1_545
Ag27 S3 2.622053 1_555
Ag27 S15 2.728911 1_545
Ag28 S10 2.510973 1_655
Ag28 S4 2.622027 1_555
Ag28 S16 2.728941 1_655
Ag29 S11 2.510972 1_555
Ag29 S5 2.622057 1_555
Ag29 S17 2.728919 1_555
