# generated using pymatgen
data_NaZnBi
_symmetry_space_group_name_H-M   'P 1'
_cell_length_a   4.63049400
_cell_length_b   4.63049400
_cell_length_c   7.55842500
_cell_angle_alpha   90.00000000
_cell_angle_beta   90.00000000
_cell_angle_gamma   90.00000000
_symmetry_Int_Tables_number   1
_chemical_formula_structural   NaZnBi
_chemical_formula_sum   'Na2 Zn2 Bi2'
_cell_volume   162.06377829
_cell_formula_units_Z   2
loop_
 _symmetry_equiv_pos_site_id
 _symmetry_equiv_pos_as_xyz
  1  'x, y, z'
loop_
 _atom_site_type_symbol
 _atom_site_label
 _atom_site_symmetry_multiplicity
 _atom_site_fract_x
 _atom_site_fract_y
 _atom_site_fract_z
 _atom_site_occupancy
  Na  Na0  1  0.75000000  0.75000000  0.32975300  1
  Na  Na1  1  0.25000000  0.25000000  0.67024700  1
  Zn  Zn0  1  0.25000000  0.75000000  0.00000000  1
  Zn  Zn1  1  0.75000000  0.25000000  0.00000000  1
  Bi  Bi0  1  0.75000000  0.75000000  0.76901900  1
  Bi  Bi1  1  0.25000000  0.25000000  0.23098100  1
loop_
_geom_bond_atom_site_label_1
_geom_bond_atom_site_label_2
_geom_bond_distance
_geom_bond_site_symmetry_2
Na0 Zn1 3.401837 1_555
Na0 Zn0 3.401837 1_655
Na0 Zn0 3.401837 1_555
Na0 Zn1 3.401837 1_565
Na1 Zn0 3.401837 1_556
Na1 Zn1 3.401837 1_456
Na1 Zn1 3.401837 1_556
Na1 Zn0 3.401837 1_546
Bi0 Zn1 2.899719 1_556
Bi0 Zn0 2.899719 1_656
Bi0 Zn0 2.899719 1_556
Bi0 Zn1 2.899719 1_566
Bi0 Na0 3.320159 1_555
Bi0 Na1 3.358287 1_565
Bi0 Na1 3.358287 1_555
Bi0 Na1 3.358287 1_655
Bi0 Na1 3.358287 1_665
Bi1 Zn1 2.899719 1_455
Bi1 Zn0 2.899719 1_555
Bi1 Zn0 2.899719 1_545
Bi1 Zn1 2.899719 1_555
Bi1 Na1 3.320159 1_555
Bi1 Na0 3.358287 1_555
Bi1 Na0 3.358287 1_445
Bi1 Na0 3.358287 1_545
Bi1 Na0 3.358287 1_455
