# generated using pymatgen
data_HfSb2
_symmetry_space_group_name_H-M   'P 1'
_cell_length_a   3.89910177
_cell_length_b   9.92615687
_cell_length_c   15.03138881
_cell_angle_alpha   90.00000000
_cell_angle_beta   90.00000000
_cell_angle_gamma   90.00000000
_symmetry_Int_Tables_number   1
_chemical_formula_structural   HfSb2
_chemical_formula_sum   'Hf8 Sb16'
_cell_volume   581.76128144
_cell_formula_units_Z   8
loop_
 _symmetry_equiv_pos_site_id
 _symmetry_equiv_pos_as_xyz
  1  'x, y, z'
loop_
 _atom_site_type_symbol
 _atom_site_label
 _atom_site_symmetry_multiplicity
 _atom_site_fract_x
 _atom_site_fract_y
 _atom_site_fract_z
 _atom_site_occupancy
  Hf  Hf0  1  0.50000000  0.52175940  0.25130187  1
  Hf  Hf1  1  0.50000000  0.47824060  0.74869813  1
  Hf  Hf2  1  0.00000000  0.02175940  0.24869813  1
  Hf  Hf3  1  -0.00000000  0.97824060  0.75130187  1
  Hf  Hf4  1  0.00000000  0.83291162  0.49342821  1
  Hf  Hf5  1  0.00000000  0.16708838  0.50657179  1
  Hf  Hf6  1  0.50000000  0.33291162  0.00657179  1
  Hf  Hf7  1  0.50000000  0.66708838  0.99342821  1
  Sb  Sb0  1  -0.00000000  0.51321789  0.10421843  1
  Sb  Sb1  1  -0.00000000  0.48678211  0.89578157  1
  Sb  Sb2  1  0.50000000  0.01321789  0.39578157  1
  Sb  Sb3  1  0.50000000  0.98678211  0.60421843  1
  Sb  Sb4  1  0.00000000  0.73168733  0.30226605  1
  Sb  Sb5  1  -0.00000000  0.26831267  0.69773395  1
  Sb  Sb6  1  0.50000000  0.23168733  0.19773395  1
  Sb  Sb7  1  0.50000000  0.76831267  0.80226605  1
  Sb  Sb8  1  0.00000000  0.88160410  0.94226242  1
  Sb  Sb9  1  0.00000000  0.11839590  0.05773758  1
  Sb  Sb10  1  0.50000000  0.38160410  0.55773758  1
  Sb  Sb11  1  0.50000000  0.61839590  0.44226242  1
  Sb  Sb12  1  -0.00000000  0.66058352  0.65687261  1
  Sb  Sb13  1  0.00000000  0.33941648  0.34312739  1
  Sb  Sb14  1  0.50000000  0.16058352  0.84312739  1
  Sb  Sb15  1  0.50000000  0.83941648  0.15687261  1
loop_
_geom_bond_atom_site_label_1
_geom_bond_atom_site_label_2
_geom_bond_distance
_geom_bond_site_symmetry_2
Hf0 Sb0 2.948877 1_655
Hf0 Sb0 2.948877 1_555
Hf0 Sb4 2.954612 1_555
Hf0 Sb4 2.954612 1_655
Hf0 Sb6 2.989769 1_555
Hf0 Sb13 2.996974 1_655
Hf0 Sb13 2.996974 1_555
Hf0 Sb11 3.026438 1_555
Hf0 Sb15 3.457865 1_555
Hf1 Sb1 2.948877 1_555
Hf1 Sb1 2.948877 1_655
Hf1 Sb5 2.954612 1_655
Hf1 Sb5 2.954612 1_555
Hf1 Sb7 2.989769 1_555
Hf1 Sb12 2.996974 1_555
Hf1 Sb12 2.996974 1_655
Hf1 Sb10 3.026438 1_555
Hf1 Sb14 3.457865 1_555
Hf2 Sb2 2.948877 1_455
Hf2 Sb2 2.948877 1_555
Hf2 Sb6 2.954612 1_455
Hf2 Sb6 2.954612 1_555
Hf2 Sb4 2.989769 1_545
Hf2 Sb15 2.996974 1_545
Hf2 Sb15 2.996974 1_445
Hf2 Sb9 3.026438 1_555
Hf2 Sb13 3.457865 1_555
Hf3 Sb3 2.948877 1_555
Hf3 Sb3 2.948877 1_455
Hf3 Sb7 2.954612 1_455
Hf3 Sb7 2.954612 1_555
Hf3 Sb5 2.989769 1_565
Hf3 Sb14 2.996974 1_565
Hf3 Sb14 2.996974 1_465
Hf3 Sb8 3.026438 1_555
Hf3 Sb12 3.457865 1_555
Hf4 Sb3 2.984435 1_555
Hf4 Sb3 2.984435 1_455
Hf4 Sb11 2.987682 1_455
Hf4 Sb11 2.987682 1_555
Hf4 Sb12 2.993635 1_555
Hf4 Sb2 3.026265 1_465
Hf4 Sb2 3.026265 1_565
Hf4 Sb4 3.044039 1_555
Hf5 Sb2 2.984435 1_455
Hf5 Sb2 2.984435 1_555
Hf5 Sb10 2.987682 1_555
Hf5 Sb10 2.987682 1_455
Hf5 Sb13 2.993635 1_555
Hf5 Sb3 3.026265 1_445
Hf5 Sb3 3.026265 1_545
Hf5 Sb5 3.044039 1_555
Hf6 Sb1 2.984435 1_654
Hf6 Sb1 2.984435 1_554
Hf6 Sb9 2.987682 1_555
Hf6 Sb9 2.987682 1_655
Hf6 Sb14 2.993635 1_554
Hf6 Sb0 3.026265 1_655
Hf6 Sb0 3.026265 1_555
Hf6 Sb6 3.044039 1_555
Hf7 Sb0 2.984435 1_556
Hf7 Sb0 2.984435 1_656
Hf7 Sb8 2.987682 1_555
Hf7 Sb8 2.987682 1_655
Hf7 Sb15 2.993635 1_556
Hf7 Sb1 3.026265 1_555
Hf7 Sb1 3.026265 1_655
Hf7 Sb7 3.044039 1_555
Sb6 Sb9 3.081169 1_555
Sb6 Sb9 3.081169 1_655
Sb7 Sb8 3.081169 1_555
Sb7 Sb8 3.081169 1_655
Sb8 Sb9 2.921878 1_566
Sb10 Sb11 2.921878 1_555
Sb10 Sb5 3.081169 1_555
Sb10 Sb5 3.081169 1_655
Sb11 Sb4 3.081169 1_655
Sb11 Sb4 3.081169 1_555
