# generated using pymatgen
data_LaNi3
_symmetry_space_group_name_H-M   'P 1'
_cell_length_a   8.77852574
_cell_length_b   8.77852702
_cell_length_c   8.77852549
_cell_angle_alpha   33.11548556
_cell_angle_beta   33.11547760
_cell_angle_gamma   33.11548203
_symmetry_Int_Tables_number   1
_chemical_formula_structural   LaNi3
_chemical_formula_sum   'La3 Ni9'
_cell_volume   179.72210115
_cell_formula_units_Z   3
loop_
 _symmetry_equiv_pos_site_id
 _symmetry_equiv_pos_as_xyz
  1  'x, y, z'
loop_
 _atom_site_type_symbol
 _atom_site_label
 _atom_site_symmetry_multiplicity
 _atom_site_fract_x
 _atom_site_fract_y
 _atom_site_fract_z
 _atom_site_occupancy
  La  La0  1  0.86211004  0.86211004  0.86211004  1
  La  La1  1  0.13788996  0.13788996  0.13788996  1
  La  La2  1  0.00000000  -0.00000000  0.00000000  1
  Ni  Ni0  1  0.42069087  0.42069087  0.91731793  1
  Ni  Ni1  1  0.91731793  0.42069087  0.42069087  1
  Ni  Ni2  1  0.42069087  0.91731793  0.42069087  1
  Ni  Ni3  1  0.50000000  0.50000000  0.50000000  1
  Ni  Ni4  1  0.33211967  0.33211867  0.33211967  1
  Ni  Ni5  1  0.66788033  0.66788133  0.66788033  1
  Ni  Ni6  1  0.08268207  0.57930913  0.57930913  1
  Ni  Ni7  1  0.57930913  0.57930913  0.08268207  1
  Ni  Ni8  1  0.57930913  0.08268207  0.57930913  1
loop_
_geom_bond_atom_site_label_1
_geom_bond_atom_site_label_2
_geom_bond_distance
_geom_bond_site_symmetry_2
La0 Ni2 2.881037 1_556
La0 Ni2 2.881037 1_655
La0 Ni0 2.881037 1_655
La0 Ni1 2.881037 1_556
La0 Ni0 2.881037 1_565
La0 Ni1 2.881038 1_565
La0 Ni3 2.976059 1_655
La0 Ni3 2.976060 1_556
La0 Ni3 2.976060 1_565
La0 Ni8 3.208579 1_565
La0 Ni6 3.208579 1_655
La0 Ni7 3.208579 1_556
La1 Ni8 2.881037 1_554
La1 Ni8 2.881037 1_455
La1 Ni7 2.881037 1_455
La1 Ni6 2.881037 1_554
La1 Ni7 2.881037 1_545
La1 Ni6 2.881038 1_545
La1 Ni3 2.976059 1_455
La1 Ni3 2.976060 1_554
La1 Ni3 2.976060 1_545
La1 Ni2 3.208579 1_545
La1 Ni1 3.208579 1_455
La1 Ni0 3.208579 1_554
La2 Ni5 2.888890 1_544
La2 Ni4 2.888890 1_455
La2 Ni5 2.888890 1_445
La2 Ni4 2.888890 1_554
La2 Ni5 2.888895 1_454
La2 Ni4 2.888895 1_545
La2 Ni2 3.203097 1_544
La2 Ni8 3.203097 1_455
La2 Ni0 3.203097 1_454
La2 Ni7 3.203097 1_545
La2 Ni2 3.203097 1_445
La2 Ni8 3.203097 1_554
La2 Ni1 3.203097 1_454
La2 Ni6 3.203097 1_545
La2 Ni0 3.203098 1_544
La2 Ni7 3.203098 1_455
La2 Ni1 3.203098 1_445
La2 Ni6 3.203098 1_554
Ni0 Ni4 2.448616 1_556
Ni0 Ni1 2.484841 1_555
Ni0 Ni2 2.484841 1_555
Ni0 Ni5 2.486160 1_555
Ni0 Ni1 2.518593 1_456
Ni0 Ni2 2.518594 1_546
Ni0 Ni3 2.580138 1_555
Ni1 Ni4 2.448616 1_655
Ni1 Ni2 2.484841 1_555
Ni1 Ni5 2.486159 1_555
Ni1 Ni2 2.518594 1_645
Ni1 Ni3 2.580138 1_555
Ni2 Ni4 2.448614 1_565
Ni2 Ni5 2.486157 1_555
Ni2 Ni3 2.580139 1_555
Ni3 Ni7 2.580138 1_555
Ni3 Ni6 2.580138 1_555
Ni3 Ni8 2.580139 1_555
Ni4 Ni8 2.486157 1_555
Ni4 Ni6 2.486159 1_555
Ni4 Ni7 2.486160 1_555
Ni5 Ni8 2.448614 1_565
Ni5 Ni7 2.448616 1_556
Ni5 Ni6 2.448616 1_655
Ni6 Ni7 2.484841 1_555
Ni6 Ni8 2.484841 1_555
Ni6 Ni7 2.518593 1_456
Ni6 Ni8 2.518594 1_465
Ni7 Ni8 2.484841 1_555
Ni7 Ni8 2.518594 1_564
