# generated using pymatgen
data_K2NaInP2
_symmetry_space_group_name_H-M   'P 1'
_cell_length_a   8.88468087
_cell_length_b   8.88468087
_cell_length_c   8.88468087
_cell_angle_alpha   135.82085912
_cell_angle_beta   135.74664516
_cell_angle_gamma   64.31485463
_symmetry_Int_Tables_number   1
_chemical_formula_structural   K2NaInP2
_chemical_formula_sum   'K4 Na2 In2 P4'
_cell_volume   336.39889723
_cell_formula_units_Z   2
loop_
 _symmetry_equiv_pos_site_id
 _symmetry_equiv_pos_as_xyz
  1  'x, y, z'
loop_
 _atom_site_type_symbol
 _atom_site_label
 _atom_site_symmetry_multiplicity
 _atom_site_fract_x
 _atom_site_fract_y
 _atom_site_fract_z
 _atom_site_occupancy
  K  K0  1  0.17730900  0.93906700  0.76175800  1
  K  K1  1  0.82269100  0.06093300  0.23824200  1
  K  K2  1  0.32269100  0.58444900  0.26175800  1
  K  K3  1  0.67730900  0.41555100  0.73824200  1
  Na  Na0  1  0.75000000  0.00000000  0.75000000  1
  Na  Na1  1  0.25000000  0.00000000  0.25000000  1
  In  In0  1  0.25000000  0.50000000  0.75000000  1
  In  In1  1  0.75000000  0.50000000  0.25000000  1
  P  P0  1  0.40077500  0.18557300  0.78479800  1
  P  P1  1  0.59922500  0.81442700  0.21520200  1
  P  P2  1  0.09922500  0.38402200  0.28479800  1
  P  P3  1  0.90077500  0.61597800  0.71520200  1
loop_
_geom_bond_atom_site_label_1
_geom_bond_atom_site_label_2
_geom_bond_distance
_geom_bond_site_symmetry_2
K0 P0 3.365200 1_565
K0 P2 3.396750 1_555
K0 Na0 3.528280 1_465
K0 Na1 3.528280 1_566
K0 P1 3.560253 1_556
K0 P1 3.560253 1_455
K0 P2 3.687202 1_566
K1 P1 3.365200 1_545
K1 P3 3.396750 1_555
K1 Na1 3.528280 1_655
K1 Na0 3.528280 1_554
K1 P0 3.560253 1_655
K1 P0 3.560253 1_554
K1 P3 3.687202 1_544
K2 P2 3.365207 1_555
K2 P0 3.396744 1_554
K2 Na0 3.528280 1_565
K2 Na1 3.528280 1_565
K2 P3 3.560252 1_555
K2 P3 3.560258 1_454
K2 P0 3.687203 1_565
K3 P3 3.365207 1_555
K3 P1 3.396744 1_556
K3 Na0 3.528280 1_555
K3 Na1 3.528280 1_555
K3 P2 3.560252 1_555
K3 P2 3.560258 1_656
K3 P1 3.687203 1_545
Na0 P3 2.941006 1_545
Na0 P2 2.941010 1_656
Na0 P1 2.941014 1_545
Na0 P0 2.941014 1_555
Na1 P2 2.941006 1_555
Na1 P3 2.941010 1_444
Na1 P1 2.941014 1_545
Na1 P0 2.941014 1_555
In0 P2 2.663778 1_555
In0 P3 2.663783 1_455
In0 P1 2.663783 1_556
In0 P0 2.663783 1_555
In0 K0 3.601914 1_555
In0 K2 3.601914 1_556
In0 K1 3.601914 1_455
In0 K3 3.601914 1_555
In1 P3 2.663778 1_555
In1 P2 2.663783 1_655
In1 P0 2.663783 1_554
In1 P1 2.663783 1_555
In1 K0 3.601914 1_655
In1 K1 3.601914 1_555
In1 K2 3.601914 1_555
In1 K3 3.601914 1_554
