# generated using pymatgen
data_In3Pd5
_symmetry_space_group_name_H-M   'P 1'
_cell_length_a   4.22291898
_cell_length_b   5.68313800
_cell_length_c   11.21462412
_cell_angle_alpha   90.00000000
_cell_angle_beta   90.00000000
_cell_angle_gamma   90.00000000
_symmetry_Int_Tables_number   1
_chemical_formula_structural   In3Pd5
_chemical_formula_sum   'In6 Pd10'
_cell_volume   269.14460142
_cell_formula_units_Z   2
loop_
 _symmetry_equiv_pos_site_id
 _symmetry_equiv_pos_as_xyz
  1  'x, y, z'
loop_
 _atom_site_type_symbol
 _atom_site_label
 _atom_site_symmetry_multiplicity
 _atom_site_fract_x
 _atom_site_fract_y
 _atom_site_fract_z
 _atom_site_occupancy
  In  In0  1  0.50000000  0.31944329  0.85698512  1
  In  In1  1  0.50000000  0.81944329  0.64301488  1
  In  In2  1  -0.00000000  0.50000000  0.50000000  1
  In  In3  1  -0.00000000  -0.00000000  -0.00000000  1
  In  In4  1  0.50000000  0.68055671  0.14301488  1
  In  In5  1  0.50000000  0.18055671  0.35698512  1
  Pd  Pd0  1  0.50000000  0.70225139  0.39061361  1
  Pd  Pd1  1  0.50000000  0.29774861  0.60938639  1
  Pd  Pd2  1  0.00000000  0.06400130  0.75613913  1
  Pd  Pd3  1  0.50000000  0.79774861  0.89061361  1
  Pd  Pd4  1  -0.00000000  0.43599870  0.25613913  1
  Pd  Pd5  1  -0.00000000  0.93599870  0.24386087  1
  Pd  Pd6  1  -0.00000000  0.56400130  0.74386087  1
  Pd  Pd7  1  -0.00000000  0.50000000  -0.00000000  1
  Pd  Pd8  1  -0.00000000  -0.00000000  0.50000000  1
  Pd  Pd9  1  0.50000000  0.20225139  0.10938639  1
loop_
_geom_bond_atom_site_label_1
_geom_bond_atom_site_label_2
_geom_bond_distance
_geom_bond_site_symmetry_2
In0 Pd3 2.744312 1_555
In0 Pd1 2.779463 1_555
In0 Pd2 2.800853 1_555
In0 Pd2 2.800853 1_655
In0 Pd6 2.828326 1_555
In0 Pd6 2.828326 1_655
In0 Pd7 2.843161 1_556
In0 Pd7 2.843161 1_656
In0 Pd9 2.907885 1_556
In0 Pd3 2.988752 1_545
In1 Pd1 2.744312 1_565
In1 Pd3 2.779463 1_555
In1 Pd6 2.800853 1_555
In1 Pd6 2.800853 1_655
In1 Pd2 2.828326 1_565
In1 Pd2 2.828326 1_665
In1 Pd8 2.843161 1_565
In1 Pd8 2.843161 1_665
In1 Pd0 2.907885 1_555
In1 Pd1 2.988752 1_555
In2 Pd1 2.698943 1_555
In2 Pd0 2.698943 1_455
In2 Pd0 2.698943 1_555
In2 Pd1 2.698943 1_455
In2 Pd6 2.758890 1_555
In2 Pd4 2.758890 1_555
In2 Pd8 2.841569 1_565
In2 Pd8 2.841569 1_555
In3 Pd9 2.698943 1_455
In3 Pd9 2.698943 1_555
In3 Pd3 2.698943 1_544
In3 Pd3 2.698943 1_444
In3 Pd5 2.758890 1_545
In3 Pd2 2.758890 1_554
In3 Pd7 2.841569 1_545
In3 Pd7 2.841569 1_555
In4 Pd9 2.744312 1_555
In4 Pd0 2.779463 1_555
In4 Pd5 2.800853 1_555
In4 Pd5 2.800853 1_655
In4 Pd4 2.828326 1_655
In4 Pd4 2.828326 1_555
In4 Pd7 2.843161 1_555
In4 Pd7 2.843161 1_655
In4 Pd3 2.907885 1_554
In4 Pd9 2.988752 1_565
In5 Pd0 2.744312 1_545
In5 Pd9 2.779463 1_555
In5 Pd4 2.800853 1_655
In5 Pd4 2.800853 1_555
In5 Pd5 2.828326 1_545
In5 Pd5 2.828326 1_645
In5 Pd8 2.843161 1_555
In5 Pd8 2.843161 1_655
In5 Pd1 2.907885 1_555
In5 Pd0 2.988752 1_555
