# generated using pymatgen
data_K3NaFeCl6
_symmetry_space_group_name_H-M   'P 1'
_cell_length_a   8.43311570
_cell_length_b   8.43311570
_cell_length_c   8.43311488
_cell_angle_alpha   92.79940701
_cell_angle_beta   92.79940701
_cell_angle_gamma   92.79940706
_symmetry_Int_Tables_number   1
_chemical_formula_structural   K3NaFeCl6
_chemical_formula_sum   'K6 Na2 Fe2 Cl12'
_cell_volume   597.52173258
_cell_formula_units_Z   2
loop_
 _symmetry_equiv_pos_site_id
 _symmetry_equiv_pos_as_xyz
  1  'x, y, z'
loop_
 _atom_site_type_symbol
 _atom_site_label
 _atom_site_symmetry_multiplicity
 _atom_site_fract_x
 _atom_site_fract_y
 _atom_site_fract_z
 _atom_site_occupancy
  K  K0  1  0.37372700  0.75000000  0.12627300  1
  K  K1  1  0.12627300  0.37372700  0.75000000  1
  K  K2  1  0.75000000  0.12627300  0.37372700  1
  K  K3  1  0.62627300  0.25000000  0.87372700  1
  K  K4  1  0.87372700  0.62627300  0.25000000  1
  K  K5  1  0.25000000  0.87372700  0.62627300  1
  Na  Na0  1  0.25000000  0.25000000  0.25000000  1
  Na  Na1  1  0.75000000  0.75000000  0.75000000  1
  Fe  Fe0  1  0.50000000  0.50000000  0.50000000  1
  Fe  Fe1  1  0.00000000  0.00000000  0.00000000  1
  Cl  Cl0  1  0.42071000  0.21567900  0.54463700  1
  Cl  Cl1  1  0.54463700  0.42071000  0.21567900  1
  Cl  Cl2  1  0.21567900  0.54463700  0.42071000  1
  Cl  Cl3  1  0.07929000  0.95536300  0.28432100  1
  Cl  Cl4  1  0.28432100  0.07929000  0.95536300  1
  Cl  Cl5  1  0.95536300  0.28432100  0.07929000  1
  Cl  Cl6  1  0.04463700  0.71567900  0.92071000  1
  Cl  Cl7  1  0.71567900  0.92071000  0.04463700  1
  Cl  Cl8  1  0.92071000  0.04463700  0.71567900  1
  Cl  Cl9  1  0.78432100  0.45536300  0.57929000  1
  Cl  Cl10  1  0.45536300  0.57929000  0.78432100  1
  Cl  Cl11  1  0.57929000  0.78432100  0.45536300  1
loop_
_geom_bond_atom_site_label_1
_geom_bond_atom_site_label_2
_geom_bond_distance
_geom_bond_site_symmetry_2
Cl0 Fe0 2.508779 1_555
Cl0 Na0 2.844572 1_555
Cl0 K3 3.192734 1_555
Cl0 K5 3.278341 1_545
Cl0 K2 3.293409 1_555
Cl0 K1 3.385113 1_555
Cl1 Fe0 2.508779 1_555
Cl1 Na0 2.844572 1_555
Cl1 K4 3.192734 1_555
Cl1 K3 3.278341 1_554
Cl1 K0 3.293409 1_555
Cl1 K2 3.385113 1_555
Cl2 Fe0 2.508779 1_555
Cl2 Na0 2.844572 1_555
Cl2 K5 3.192734 1_555
Cl2 K4 3.278341 1_455
Cl2 K1 3.293409 1_555
Cl2 K0 3.385113 1_555
Cl3 Fe1 2.508779 1_565
Cl3 Na0 2.844572 1_565
Cl3 K4 3.192734 1_455
Cl3 K5 3.278341 1_555
Cl3 K2 3.293409 1_465
Cl3 K0 3.385113 1_555
Cl4 Fe1 2.508779 1_556
Cl4 Na0 2.844572 1_556
Cl4 K5 3.192734 1_545
Cl4 K3 3.278341 1_555
Cl4 K0 3.293409 1_546
Cl4 K1 3.385113 1_555
Cl5 Fe1 2.508779 1_655
Cl5 Na0 2.844572 1_655
Cl5 K3 3.192734 1_554
Cl5 K4 3.278341 1_555
Cl5 K1 3.293409 1_654
Cl5 K2 3.385113 1_555
Cl6 Fe1 2.508779 1_566
Cl6 Na1 2.844572 1_455
Cl6 K0 3.192734 1_556
Cl6 K1 3.278341 1_555
Cl6 K4 3.293409 1_456
Cl6 K5 3.385113 1_555
Cl7 Fe1 2.508779 1_665
Cl7 Na1 2.844572 1_554
Cl7 K2 3.192734 1_565
Cl7 K0 3.278341 1_555
Cl7 K3 3.293409 1_564
Cl7 K4 3.385113 1_555
Cl8 Fe1 2.508779 1_656
Cl8 Na1 2.844572 1_545
Cl8 K1 3.192734 1_655
Cl8 K2 3.278341 1_555
Cl8 K5 3.293409 1_645
Cl8 K3 3.385113 1_555
Cl9 Fe0 2.508779 1_555
Cl9 Na1 2.844572 1_555
Cl9 K2 3.192734 1_555
Cl9 K1 3.278341 1_655
Cl9 K4 3.293409 1_555
Cl9 K3 3.385113 1_555
Cl10 Fe0 2.508779 1_555
Cl10 Na1 2.844572 1_555
Cl10 K1 3.192734 1_555
Cl10 K0 3.278341 1_556
Cl10 K3 3.293409 1_555
Cl10 K5 3.385113 1_555
Cl11 Fe0 2.508779 1_555
Cl11 Na1 2.844572 1_555
Cl11 K0 3.192734 1_555
Cl11 K2 3.278341 1_565
Cl11 K5 3.293409 1_555
Cl11 K4 3.385113 1_555
