# generated using pymatgen
data_ScNbSi(SO6)2
_symmetry_space_group_name_H-M   'P 1'
_cell_length_a   8.90756789
_cell_length_b   8.91923141
_cell_length_c   22.94144657
_cell_angle_alpha   90.02293102
_cell_angle_beta   90.00000000
_cell_angle_gamma   119.95675169
_symmetry_Int_Tables_number   1
_chemical_formula_structural   ScNbSi(SO6)2
_chemical_formula_sum   'Sc6 Nb6 Si6 S12 O72'
_cell_volume   1579.16335294
_cell_formula_units_Z   6
loop_
 _symmetry_equiv_pos_site_id
 _symmetry_equiv_pos_as_xyz
  1  'x, y, z'
loop_
 _atom_site_type_symbol
 _atom_site_label
 _atom_site_symmetry_multiplicity
 _atom_site_fract_x
 _atom_site_fract_y
 _atom_site_fract_z
 _atom_site_occupancy
  Sc  Sc0  1  0.99143040  0.00950455  0.35685584  1
  Sc  Sc1  1  0.01807416  0.00950455  0.85685584  1
  Sc  Sc2  1  0.66965048  0.33706224  0.68928383  1
  Sc  Sc3  1  0.66741276  0.33706224  0.18928383  1
  Sc  Sc4  1  0.32750053  0.66632713  0.02326463  1
  Sc  Sc5  1  0.33882560  0.66632713  0.52326463  1
  Nb  Nb0  1  0.00884926  0.01860579  0.64267737  1
  Nb  Nb1  1  0.00975653  0.01860579  0.14267737  1
  Nb  Nb2  1  0.65098692  0.32748034  0.97568591  1
  Nb  Nb3  1  0.67649442  0.32748034  0.47568591  1
  Nb  Nb4  1  0.33834307  0.67201939  0.30919254  1
  Nb  Nb5  1  0.33367531  0.67201939  0.80919254  1
  Si  Si0  1  0.99720236  0.29035530  0.25163760  1
  Si  Si1  1  0.29315294  0.29035530  0.75163760  1
  Si  Si2  1  0.95737849  0.34228392  0.58512261  1
  Si  Si3  1  0.38490643  0.34228392  0.08512261  1
  Si  Si4  1  0.32859745  0.94690155  0.91821897  1
  Si  Si5  1  0.61830310  0.94690155  0.41821897  1
  S  S0  1  0.28430684  0.99791243  0.25045254  1
  S  S1  1  0.71452308  0.71434679  0.25053636  1
  S  S2  1  -0.00017629  0.71434679  0.75053636  1
  S  S3  1  0.71360559  0.99791243  0.75045254  1
  S  S4  1  0.37982052  0.04748829  0.58332396  1
  S  S5  1  0.67102619  0.62176852  0.58401825  1
  S  S6  1  0.95074333  0.62176852  0.08401825  1
  S  S7  1  0.66766877  0.04748829  0.08332396  1
  S  S8  1  0.61962615  0.66771033  0.91643552  1
  S  S9  1  0.04463565  0.38220187  0.91700210  1
  S  S10  1  0.33756522  0.38220187  0.41700210  1
  S  S11  1  0.04808317  0.66771033  0.41643552  1
  O  O0  1  0.20495955  0.01946929  0.30255972  1
  O  O1  1  0.81833816  0.79117841  0.30259392  1
  O  O2  1  0.97758649  0.17071659  0.30555572  1
  O  O3  1  0.19313010  0.17071659  0.80555572  1
  O  O4  1  0.97284026  0.79117841  0.80259392  1
  O  O5  1  0.81450975  0.01946929  0.80255972  1
  O  O6  1  0.79250376  0.96420180  0.69755019  1
  O  O7  1  0.15973906  0.19005974  0.69275312  1
  O  O8  1  0.03302930  0.82323161  0.69795647  1
  O  O9  1  0.79020232  0.82323161  0.19795647  1
  O  O10  1  0.03032068  0.19005974  0.19275312  1
  O  O11  1  0.17169804  0.96420180  0.19755019  1
  O  O12  1  0.85979182  0.35536339  0.64054532  1
  O  O13  1  0.48263093  0.12660505  0.63519045  1
  O  O14  1  0.64131359  0.51458984  0.63557143  1
  O  O15  1  0.87327725  0.51458984  0.13557143  1
  O  O16  1  0.64397512  0.12660505  0.13519045  1
  O  O17  1  0.49557257  0.35536339  0.14054532  1
  O  O18  1  0.47944915  0.30535859  0.02629732  1
  O  O19  1  0.84181016  0.54044938  0.03106353  1
  O  O20  1  0.70483387  0.16062021  0.03067215  1
  O  O21  1  0.45578734  0.16062021  0.53067215  1
  O  O22  1  0.69864022  0.54044938  0.53106353  1
  O  O23  1  0.82591044  0.30535859  0.52629732  1
  O  O24  1  0.53998732  0.68917097  0.96849990  1
  O  O25  1  0.15283154  0.45732482  0.96835607  1
  O  O26  1  0.31503481  0.83789628  0.97418977  1
  O  O27  1  0.52286047  0.83789628  0.47418977  1
  O  O28  1  0.30449228  0.45732482  0.46835607  1
  O  O29  1  0.14918266  0.68917097  0.46849990  1
  O  O30  1  0.12397422  0.62960731  0.36368117  1
  O  O31  1  0.49194005  0.85505451  0.36000850  1
  O  O32  1  0.36529932  0.49398839  0.36418390  1
  O  O33  1  0.12868808  0.49398839  0.86418390  1
  O  O34  1  0.36311346  0.85505451  0.86000850  1
  O  O35  1  0.50563209  0.62960731  0.86368117  1
  O  O36  1  0.02512009  0.81499002  0.40576485  1
  O  O37  1  0.80838038  0.97903217  0.40838117  1
  O  O38  1  0.19381866  0.20766424  0.40725973  1
  O  O39  1  0.01384557  0.20766424  0.90725973  1
  O  O40  1  0.17065180  0.97903217  0.90838117  1
  O  O41  1  0.78986993  0.81499002  0.90576485  1
  O  O42  1  0.96446810  0.15606159  0.59379169  1
  O  O43  1  0.20057429  0.02811998  0.59138828  1
  O  O44  1  0.83066833  0.79494161  0.59332433  1
  O  O45  1  0.96427328  0.79494161  0.09332433  1
  O  O46  1  0.82754569  0.02811998  0.09138828  1
  O  O47  1  0.19159349  0.15606159  0.09379169  1
  O  O48  1  0.68511944  0.14261281  0.74113320  1
  O  O49  1  0.47815271  0.31692207  0.73704156  1
  O  O50  1  0.85465032  0.54017240  0.74255310  1
  O  O51  1  0.68552308  0.54017240  0.24255310  1
  O  O52  1  0.83877036  0.31692207  0.23704156  1
  O  O53  1  0.45749438  0.14261281  0.24113320  1
  O  O54  1  0.63989233  0.50840125  0.92452704  1
  O  O55  1  0.87323388  0.37284376  0.92553137  1
  O  O56  1  0.51229508  0.14346500  0.92765115  1
  O  O57  1  0.63117092  0.14346500  0.42765115  1
  O  O58  1  0.49961088  0.37284376  0.42553137  1
  O  O59  1  0.86850992  0.50840125  0.42452704  1
  O  O60  1  0.34879683  0.49424641  0.07096263  1
  O  O61  1  0.12399578  0.64626990  0.07552808  1
  O  O62  1  0.52154449  0.87486747  0.07448820  1
  O  O63  1  0.35332198  0.87486747  0.57448820  1
  O  O64  1  0.52227312  0.64626990  0.57552808  1
  O  O65  1  0.14544858  0.49424641  0.57096263  1
  O  O66  1  0.29763974  0.83439925  0.25761346  1
  O  O67  1  0.53597176  0.69747674  0.25891931  1
  O  O68  1  0.17563040  0.48065869  0.26320417  1
  O  O69  1  0.30502728  0.48065869  0.76320417  1
  O  O70  1  0.16150398  0.69747674  0.75891931  1
  O  O71  1  0.53675851  0.83439925  0.75761346  1
loop_
_geom_bond_atom_site_label_1
_geom_bond_atom_site_label_2
_geom_bond_distance
_geom_bond_site_symmetry_2
Nb0 O42 1.844527 1_455
Nb0 O7 1.846815 1_555
Nb0 O43 2.040499 1_555
Nb0 O6 2.144889 1_445
Nb0 O44 2.148670 1_445
Nb0 O8 2.251199 1_545
Nb1 O47 1.844527 1_555
Nb1 O10 1.846815 1_555
Nb1 O46 2.040499 1_455
Nb1 O11 2.144889 1_545
Nb1 O45 2.148670 1_445
Nb1 O9 2.251199 1_445
Nb2 O56 1.846064 1_555
Nb2 O18 1.849570 1_556
Nb2 O54 2.037638 1_555
Nb2 O55 2.146436 1_555
Nb2 O20 2.179608 1_556
Nb2 O19 2.210195 1_556
Nb3 O57 1.846064 1_555
Nb3 O23 1.849570 1_555
Nb3 O59 2.037638 1_555
Nb3 O58 2.146436 1_555
Nb3 O21 2.179608 1_555
Nb3 O22 2.210195 1_555
Nb4 O68 1.911791 1_555
Nb4 O31 1.914143 1_555
Nb4 O67 2.020333 1_555
Nb4 O66 2.038388 1_555
Nb4 O32 2.133788 1_555
Nb4 O30 2.151957 1_555
Nb5 O69 1.911791 1_555
Nb5 O34 1.914143 1_555
Nb5 O70 2.020333 1_555
Nb5 O71 2.038388 1_555
Nb5 O33 2.133788 1_555
Nb5 O35 2.151957 1_555
O0 S0 1.449507 1_545
O0 Sc0 2.237959 1_455
O1 S1 1.455168 1_555
O1 Sc0 2.172198 1_565
O2 Si0 1.585598 1_555
O2 Sc0 1.909517 1_555
O3 Si1 1.585598 1_555
O3 Sc1 1.909517 1_555
O4 S2 1.455168 1_655
O4 Sc1 2.172198 1_665
O5 S3 1.449507 1_545
O5 Sc1 2.237959 1_655
O6 S3 1.505996 1_555
O7 Si1 1.724751 1_555
O8 S2 1.483164 1_555
O9 S1 1.483164 1_555
O10 Si0 1.724751 1_455
O11 S0 1.505996 1_555
O12 Si2 1.577033 1_555
O12 Sc2 1.967108 1_555
O13 S4 1.451347 1_555
O13 Sc2 2.171161 1_555
O14 S5 1.459763 1_555
O14 Sc2 2.118968 1_555
O15 S6 1.459763 1_555
O15 Sc3 2.118968 1_555
O16 S7 1.451347 1_555
O16 Sc3 2.171161 1_555
O17 Si3 1.577033 1_555
O17 Sc3 1.967108 1_555
O18 Si3 1.707503 1_555
O19 S6 1.496635 1_555
O20 S7 1.501394 1_555
O21 S4 1.501394 1_555
O22 S5 1.496635 1_555
O23 Si2 1.707503 1_555
O24 S8 1.449815 1_555
O24 Sc4 2.194890 1_556
O25 S9 1.456106 1_555
O25 Sc4 2.141053 1_556
O26 Si4 1.578713 1_555
O26 Sc4 1.947473 1_556
O27 Si5 1.578713 1_555
O27 Sc5 1.947473 1_555
O28 S10 1.456106 1_555
O28 Sc5 2.141053 1_555
O29 S11 1.449815 1_555
O29 Sc5 2.194890 1_555
O30 S11 1.505431 1_555
O31 Si5 1.673221 1_555
O32 S10 1.509435 1_555
O33 S9 1.509435 1_555
O34 Si4 1.673221 1_555
O35 S8 1.505431 1_555
O36 S11 1.447746 1_555
O36 Sc0 2.209185 1_465
O37 Si5 1.585942 1_555
O37 Sc0 1.920274 1_565
O38 S10 1.456685 1_555
O38 Sc0 2.127722 1_455
O39 S9 1.456688 1_555
O39 Sc1 2.127722 1_555
O40 Si4 1.585933 1_555
O40 Sc1 1.920274 1_565
O41 S8 1.447751 1_555
O41 Sc1 2.209185 1_665
O42 Si2 1.705095 1_555
O43 S4 1.529026 1_555
O44 S5 1.503204 1_555
O45 S6 1.503208 1_555
O46 S7 1.529017 1_555
O47 Si3 1.705100 1_555
O48 S3 1.450194 1_545
O48 Sc2 2.163826 1_555
O49 Si1 1.579221 1_555
O49 Sc2 1.958699 1_555
O50 S2 1.453488 1_655
O50 Sc2 2.123135 1_555
O51 S1 1.453491 1_555
O51 Sc3 2.123135 1_555
O52 Si0 1.579212 1_555
O52 Sc3 1.958699 1_555
O53 S0 1.450199 1_545
O53 Sc3 2.163826 1_555
O54 S8 1.530499 1_555
O55 S9 1.499678 1_655
O56 Si4 1.712509 1_545
O57 Si5 1.712501 1_545
O58 S10 1.499696 1_555
O59 S11 1.530489 1_655
O60 Si3 1.575375 1_555
O60 Sc4 1.970078 1_555
O61 S6 1.459644 1_455
O61 Sc4 2.105210 1_555
O62 S7 1.450566 1_565
O62 Sc4 2.148416 1_555
O63 S4 1.450559 1_565
O63 Sc5 2.148416 1_555
O64 S5 1.459662 1_555
O64 Sc5 2.105210 1_555
O65 Si2 1.575363 1_455
O65 Sc5 1.970078 1_555
O66 S0 1.530108 1_555
O67 S1 1.533038 1_555
O68 Si0 1.668221 1_455
O69 Si1 1.668225 1_555
O70 S2 1.533029 1_555
O71 S3 1.530113 1_555
