# generated using pymatgen
data_Mg(InS2)2
_symmetry_space_group_name_H-M   'P 1'
_cell_length_a   7.64046706
_cell_length_b   7.64046706
_cell_length_c   7.64046706
_cell_angle_alpha   60.00000000
_cell_angle_beta   60.00000000
_cell_angle_gamma   60.00000000
_symmetry_Int_Tables_number   1
_chemical_formula_structural   Mg(InS2)2
_chemical_formula_sum   'Mg2 In4 S8'
_cell_volume   315.38768068
_cell_formula_units_Z   2
loop_
 _symmetry_equiv_pos_site_id
 _symmetry_equiv_pos_as_xyz
  1  'x, y, z'
loop_
 _atom_site_type_symbol
 _atom_site_label
 _atom_site_symmetry_multiplicity
 _atom_site_fract_x
 _atom_site_fract_y
 _atom_site_fract_z
 _atom_site_occupancy
  Mg  Mg0  1  0.50000000  0.50000000  0.50000000  1
  Mg  Mg1  1  0.75000000  0.75000000  0.75000000  1
  In  In0  1  0.12500000  0.12500000  0.12500000  1
  In  In1  1  0.12500000  0.12500000  0.62500000  1
  In  In2  1  0.12500000  0.62500000  0.12500000  1
  In  In3  1  0.62500000  0.12500000  0.12500000  1
  S  S0  1  0.35365225  0.88211558  0.88211558  1
  S  S1  1  0.36788442  0.36788442  0.36788442  1
  S  S2  1  0.89634775  0.36788442  0.36788442  1
  S  S3  1  0.88211558  0.88211558  0.35365225  1
  S  S4  1  0.88211558  0.88211558  0.88211558  1
  S  S5  1  0.36788442  0.89634775  0.36788442  1
  S  S6  1  0.36788442  0.36788442  0.89634775  1
  S  S7  1  0.88211558  0.35365225  0.88211558  1
loop_
_geom_bond_atom_site_label_1
_geom_bond_atom_site_label_2
_geom_bond_distance
_geom_bond_site_symmetry_2
Mg0 S1 2.472576 1_555
Mg0 S2 2.472582 1_555
Mg0 S5 2.472582 1_555
Mg0 S6 2.472582 1_555
Mg1 S4 2.472576 1_555
Mg1 S0 2.472582 1_555
Mg1 S3 2.472582 1_555
Mg1 S7 2.472582 1_555
In0 S3 2.626679 1_445
In0 S5 2.626679 1_545
In0 S7 2.626679 1_454
In0 S2 2.626679 1_455
In0 S0 2.626679 1_544
In0 S6 2.626679 1_554
In1 S0 2.626674 1_545
In1 S2 2.626674 1_455
In1 S5 2.626674 1_545
In1 S7 2.626674 1_455
In1 S4 2.626679 1_445
In1 S1 2.626679 1_555
In2 S2 2.626674 1_455
In2 S3 2.626674 1_455
In2 S0 2.626674 1_554
In2 S6 2.626674 1_554
In2 S4 2.626679 1_454
In2 S1 2.626679 1_555
In3 S6 2.626674 1_554
In3 S5 2.626674 1_545
In3 S7 2.626674 1_554
In3 S3 2.626674 1_545
In3 S1 2.626679 1_555
In3 S4 2.626679 1_544
