# generated using pymatgen
data_ErNiGe
_symmetry_space_group_name_H-M   'P 1'
_cell_length_a   4.17576008
_cell_length_b   6.81278950
_cell_length_c   7.19569562
_cell_angle_alpha   90.00000000
_cell_angle_beta   90.00000000
_cell_angle_gamma   90.00000000
_symmetry_Int_Tables_number   1
_chemical_formula_structural   ErNiGe
_chemical_formula_sum   'Er4 Ni4 Ge4'
_cell_volume   204.70728240
_cell_formula_units_Z   4
loop_
 _symmetry_equiv_pos_site_id
 _symmetry_equiv_pos_as_xyz
  1  'x, y, z'
loop_
 _atom_site_type_symbol
 _atom_site_label
 _atom_site_symmetry_multiplicity
 _atom_site_fract_x
 _atom_site_fract_y
 _atom_site_fract_z
 _atom_site_occupancy
  Er  Er0  1  0.25000000  0.49216743  0.79273420  1
  Er  Er1  1  0.75000000  0.50783257  0.20726580  1
  Er  Er2  1  0.25000000  0.99216743  0.70726580  1
  Er  Er3  1  0.75000000  0.00783257  0.29273420  1
  Ni  Ni0  1  0.75000000  0.30840825  0.58161983  1
  Ni  Ni1  1  0.25000000  0.19159175  0.08161983  1
  Ni  Ni2  1  0.75000000  0.80840825  0.91838017  1
  Ni  Ni3  1  0.25000000  0.69159175  0.41838017  1
  Ge  Ge0  1  0.25000000  0.30178621  0.41129367  1
  Ge  Ge1  1  0.75000000  0.19821379  0.91129367  1
  Ge  Ge2  1  0.25000000  0.80178621  0.08870633  1
  Ge  Ge3  1  0.75000000  0.69821379  0.58870633  1
loop_
_geom_bond_atom_site_label_1
_geom_bond_atom_site_label_2
_geom_bond_distance
_geom_bond_site_symmetry_2
Er0 Ni0 2.869536 1_555
Er0 Ni0 2.869536 1_455
Er0 Ge3 2.912927 1_455
Er0 Ge3 2.912927 1_555
Er0 Ni1 2.917953 1_556
Er0 Ge2 2.997526 1_556
Er0 Ge1 3.016229 1_455
Er0 Ge1 3.016229 1_555
Er0 Ni3 3.016971 1_555
Er0 Ge0 3.035757 1_555
Er0 Ni2 3.133441 1_455
Er0 Ni2 3.133441 1_555
Er1 Ni3 2.869536 1_655
Er1 Ni3 2.869536 1_555
Er1 Ge0 2.912927 1_555
Er1 Ge0 2.912927 1_655
Er1 Ni2 2.917953 1_554
Er1 Ge1 2.997526 1_554
Er1 Ge2 3.016229 1_555
Er1 Ge2 3.016229 1_655
Er1 Ni0 3.016971 1_555
Er1 Ge3 3.035757 1_555
Er1 Ni1 3.133441 1_555
Er1 Ni1 3.133441 1_655
Er2 Ni2 2.869536 1_555
Er2 Ni2 2.869536 1_455
Er2 Ge1 2.912927 1_565
Er2 Ge1 2.912927 1_465
Er2 Ni3 2.917953 1_555
Er2 Ge0 2.997526 1_565
Er2 Ge3 3.016229 1_455
Er2 Ge3 3.016229 1_555
Er2 Ni1 3.016971 1_566
Er2 Ge2 3.035757 1_556
Er2 Ni0 3.133441 1_565
Er2 Ni0 3.133441 1_465
Er3 Ni1 2.869536 1_655
Er3 Ni1 2.869536 1_555
Er3 Ge2 2.912927 1_545
Er3 Ge2 2.912927 1_645
Er3 Ni0 2.917953 1_555
Er3 Ge3 2.997526 1_545
Er3 Ge0 3.016229 1_655
Er3 Ge0 3.016229 1_555
Er3 Ni2 3.016971 1_544
Er3 Ge1 3.035757 1_554
Er3 Ni3 3.133441 1_545
Er3 Ni3 3.133441 1_645
Ge0 Ni0 2.421448 1_455
Ge0 Ni0 2.421448 1_555
Ge0 Ni1 2.488189 1_555
Ge0 Ni3 2.656153 1_555
Ge1 Ni1 2.421448 1_556
Ge1 Ni1 2.421448 1_656
Ge1 Ni0 2.488189 1_555
Ge1 Ni2 2.656153 1_545
Ge2 Ni2 2.421448 1_554
Ge2 Ni2 2.421448 1_454
Ge2 Ni3 2.488189 1_555
Ge2 Ni1 2.656153 1_565
Ge3 Ni3 2.421448 1_555
Ge3 Ni3 2.421448 1_655
Ge3 Ni2 2.488189 1_555
Ge3 Ni0 2.656153 1_555
