# generated using pymatgen
data_Na3MgTi3P5SO24
_symmetry_space_group_name_H-M   'P 1'
_cell_length_a   8.69309330
_cell_length_b   8.67201101
_cell_length_c   22.19052601
_cell_angle_alpha   89.94552006
_cell_angle_beta   90.25898625
_cell_angle_gamma   119.95678880
_symmetry_Int_Tables_number   1
_chemical_formula_structural   Na3MgTi3P5SO24
_chemical_formula_sum   'Na9 Mg3 Ti9 P15 S3 O72'
_cell_volume   1449.36042190
_cell_formula_units_Z   3
loop_
 _symmetry_equiv_pos_site_id
 _symmetry_equiv_pos_as_xyz
  1  'x, y, z'
loop_
 _atom_site_type_symbol
 _atom_site_label
 _atom_site_symmetry_multiplicity
 _atom_site_fract_x
 _atom_site_fract_y
 _atom_site_fract_z
 _atom_site_occupancy
  Na  Na0  1  0.99331872  0.36796116  0.74572223  1
  Na  Na1  1  0.31482698  0.97578762  0.08513233  1
  Na  Na2  1  0.32725936  0.03645222  0.41205450  1
  Na  Na3  1  0.98316500  0.99967538  0.49699153  1
  Na  Na4  1  0.98577444  0.00184188  0.99799470  1
  Na  Na5  1  0.65100402  0.33289014  0.83098544  1
  Na  Na6  1  0.67175587  0.33810403  0.32686516  1
  Na  Na7  1  0.33436386  0.65344189  0.16749770  1
  Na  Na8  1  0.34698343  0.67460638  0.66487369  1
  Mg  Mg0  1  0.99629292  0.00069160  0.35502344  1
  Mg  Mg1  1  0.66252047  0.33785833  0.68785358  1
  Mg  Mg2  1  0.66373537  0.33021898  0.18434844  1
  Ti  Ti0  1  0.00317128  0.00010043  0.85485276  1
  Ti  Ti1  1  0.99127407  0.99616803  0.64675665  1
  Ti  Ti2  1  0.00279603  0.99752754  0.14652118  1
  Ti  Ti3  1  0.67064373  0.33419711  0.98022690  1
  Ti  Ti4  1  0.68190199  0.34596185  0.48027895  1
  Ti  Ti5  1  0.33446276  0.66162743  0.01848587  1
  Ti  Ti6  1  0.33495435  0.65908878  0.51986152  1
  Ti  Ti7  1  0.33188758  0.67261162  0.31408696  1
  Ti  Ti8  1  0.33848246  0.67144342  0.81321570  1
  P  P0  1  0.29364538  0.00145841  0.25344774  1
  P  P1  1  0.28672828  0.28552744  0.75103387  1
  P  P2  1  0.00318324  0.71617336  0.75109784  1
  P  P3  1  0.70915667  0.99439760  0.75108124  1
  P  P4  1  0.96041339  0.33497552  0.58610782  1
  P  P5  1  0.66759559  0.62440806  0.58459927  1
  P  P6  1  0.95647058  0.61993133  0.08435907  1
  P  P7  1  0.66964208  0.04253859  0.08314373  1
  P  P8  1  0.37880785  0.33677514  0.08397579  1
  P  P9  1  0.62199408  0.66556587  0.91643530  1
  P  P10  1  0.04304955  0.37862570  0.91483487  1
  P  P11  1  0.33543248  0.95711849  0.91762065  1
  P  P12  1  0.62151305  0.95566235  0.41861135  1
  P  P13  1  0.33774682  0.38109341  0.41622030  1
  P  P14  1  0.04453150  0.66251787  0.41750224  1
  S  S0  1  0.70942096  0.71067033  0.25092518  1
  S  S1  1  0.00191754  0.29075443  0.25070949  1
  S  S2  1  0.37467117  0.04176216  0.58247720  1
  O  O0  1  0.20568827  0.01633396  0.31021082  1
  O  O1  1  0.81016027  0.79624125  0.30495606  1
  O  O2  1  0.98208987  0.18907312  0.30489140  1
  O  O3  1  0.18956080  0.17451065  0.80782808  1
  O  O4  1  0.98666649  0.81223689  0.80731496  1
  O  O5  1  0.82832301  0.01881993  0.80635468  1
  O  O6  1  0.79781153  0.96842163  0.69341965  1
  O  O7  1  0.16400681  0.19680942  0.69504152  1
  O  O8  1  0.02514202  0.82977496  0.69421345  1
  O  O9  1  0.79738626  0.82181128  0.19556451  1
  O  O10  1  0.02050088  0.19884757  0.19574831  1
  O  O11  1  0.17375278  0.97822756  0.19511355  1
  O  O12  1  0.88696427  0.36349242  0.64407805  1
  O  O13  1  0.48339490  0.12348800  0.63578145  1
  O  O14  1  0.63177284  0.51449432  0.64045130  1
  O  O15  1  0.88133217  0.51182311  0.14020202  1
  O  O16  1  0.62056059  0.11363991  0.13729180  1
  O  O17  1  0.48577975  0.37092830  0.14055270  1
  O  O18  1  0.46515238  0.29861353  0.02847864  1
  O  O19  1  0.83822051  0.53209298  0.02749636  1
  O  O20  1  0.69796687  0.16173591  0.02647053  1
  O  O21  1  0.45579428  0.14579353  0.52632714  1
  O  O22  1  0.69163472  0.52966590  0.52776133  1
  O  O23  1  0.83739952  0.31102157  0.53040228  1
  O  O24  1  0.53084648  0.69158082  0.97190617  1
  O  O25  1  0.16265691  0.47422985  0.96984171  1
  O  O26  1  0.30987110  0.84784235  0.97521752  1
  O  O27  1  0.52431843  0.84085645  0.47363834  1
  O  O28  1  0.31875991  0.47514732  0.47272675  1
  O  O29  1  0.16283326  0.68596629  0.47233813  1
  O  O30  1  0.13339453  0.63649272  0.36001230  1
  O  O31  1  0.49862072  0.86768703  0.36147456  1
  O  O32  1  0.36311320  0.49827372  0.36002007  1
  O  O33  1  0.12742549  0.48785595  0.85689130  1
  O  O34  1  0.35804352  0.86024205  0.86231461  1
  O  O35  1  0.50457924  0.63994163  0.86018574  1
  O  O36  1  0.02681283  0.82738921  0.41352892  1
  O  O37  1  0.80245093  0.97428993  0.41314109  1
  O  O38  1  0.17545726  0.19614980  0.41363331  1
  O  O39  1  0.02505154  0.19277741  0.91124448  1
  O  O40  1  0.16801674  0.97478258  0.91075190  1
  O  O41  1  0.80617636  0.83284280  0.91068521  1
  O  O42  1  0.97760015  0.16457459  0.58804048  1
  O  O43  1  0.19559507  0.02473803  0.58698824  1
  O  O44  1  0.83894873  0.81065144  0.58780143  1
  O  O45  1  0.97999064  0.81255185  0.08944842  1
  O  O46  1  0.83623907  0.02367842  0.09022100  1
  O  O47  1  0.19043214  0.16380427  0.08942693  1
  O  O48  1  0.69441650  0.16079103  0.74617050  1
  O  O49  1  0.46632540  0.30050347  0.74760545  1
  O  O50  1  0.84276455  0.52995695  0.74888479  1
  O  O51  1  0.68912983  0.53390667  0.24471628  1
  O  O52  1  0.85028303  0.31844817  0.24400245  1
  O  O53  1  0.47864989  0.15915112  0.24609104  1
  O  O54  1  0.63695043  0.49712104  0.92328740  1
  O  O55  1  0.85926875  0.36227675  0.92262047  1
  O  O56  1  0.50295817  0.14188578  0.92214502  1
  O  O57  1  0.62783240  0.13768306  0.42453326  1
  O  O58  1  0.50676687  0.36340965  0.42303105  1
  O  O59  1  0.86181331  0.48972312  0.42263414  1
  O  O60  1  0.34691367  0.49472644  0.07257308  1
  O  O61  1  0.14940152  0.65639763  0.07384362  1
  O  O62  1  0.50551992  0.85385051  0.07156786  1
  O  O63  1  0.35023857  0.85958845  0.57669183  1
  O  O64  1  0.50829302  0.65546353  0.57385416  1
  O  O65  1  0.14721733  0.49803901  0.57472986  1
  O  O66  1  0.30104551  0.82190404  0.25532409  1
  O  O67  1  0.52981981  0.69745702  0.25293245  1
  O  O68  1  0.17157983  0.46785398  0.25279604  1
  O  O69  1  0.29510186  0.46959039  0.75638741  1
  O  O70  1  0.17514330  0.70184473  0.75594102  1
  O  O71  1  0.52647559  0.82327137  0.75639534  1
loop_
_geom_bond_atom_site_label_1
_geom_bond_atom_site_label_2
_geom_bond_distance
_geom_bond_site_symmetry_2
Na0 O48 2.305970 1_555
Na0 O69 2.323969 1_655
Na0 O50 2.351299 1_555
Na0 O12 2.426783 1_555
Na0 O70 2.522054 1_655
Na0 O33 2.700754 1_655
Na0 O7 2.808400 1_655
Na0 O5 2.950841 1_555
Na1 O47 2.366224 1_565
Na1 O62 2.390093 1_555
Na1 O61 2.412985 1_555
Na1 O45 2.524443 1_455
Na1 O16 2.575707 1_565
Na1 O26 2.671788 1_554
Na1 O18 2.734992 1_565
Na1 O11 2.741121 1_555
Na2 O57 2.318998 1_555
Na2 O36 2.319746 1_545
Na2 O38 2.342279 1_555
Na2 O0 2.459631 1_555
Na2 O58 2.472429 1_555
Na2 O21 2.738354 1_555
Na2 O31 2.795773 1_545
Na2 O29 2.956594 1_545
Na3 O37 2.368018 1_555
Na3 O42 2.490952 1_565
Na3 O44 2.506720 1_555
Na3 O38 2.509280 1_665
Na3 O36 2.526694 1_655
Na3 O43 2.648093 1_665
Na4 O39 2.449338 1_655
Na4 O41 2.456017 1_545
Na4 O46 2.486898 1_556
Na4 O40 2.590893 1_645
Na4 O45 2.593797 1_546
Na4 O47 2.594559 1_656
Na5 O49 2.367175 1_555
Na5 O50 2.488978 1_555
Na5 O56 2.525904 1_555
Na5 O54 2.533797 1_555
Na5 O48 2.546827 1_555
Na5 O55 2.642818 1_555
Na6 O53 2.411528 1_555
Na6 O51 2.443270 1_555
Na6 O52 2.471693 1_555
Na6 O59 2.603632 1_555
Na6 O58 2.646131 1_555
Na6 O57 2.683539 1_555
Na7 O68 2.432980 1_555
Na7 O67 2.439561 1_555
Na7 O66 2.539587 1_555
Na7 O60 2.549690 1_555
Na7 O61 2.629807 1_555
Na7 O62 2.684188 1_555
Na8 O71 2.487711 1_555
Na8 O64 2.516376 1_555
Na8 O63 2.520401 1_555
Na8 O65 2.584664 1_555
Na8 O69 2.586280 1_555
Na8 O70 2.598395 1_555
Mg0 O0 2.022434 1_655
Mg0 O2 2.029371 1_555
Mg0 O1 2.029395 1_545
Mg0 O37 2.046691 1_545
Mg0 O38 2.083203 1_655
Mg0 O36 2.099030 1_645
Mg1 O14 1.981810 1_555
Mg1 O49 2.059064 1_555
Mg1 O13 2.076706 1_555
Mg1 O12 2.093665 1_555
Mg1 O50 2.107776 1_555
Mg1 O48 2.127808 1_555
Mg2 O17 1.998365 1_555
Mg2 O16 2.013697 1_555
Mg2 O15 2.014128 1_555
Mg2 O53 2.073404 1_555
Mg2 O52 2.130313 1_555
Mg2 O51 2.139099 1_555
O0 P0 1.515060 1_555
O1 S0 1.448555 1_555
O2 S1 1.449449 1_655
O3 P1 1.556877 1_555
O3 Ti0 1.888569 1_555
O4 P2 1.547220 1_655
O4 Ti0 1.885730 1_665
O5 P3 1.546708 1_545
O5 Ti0 1.930330 1_655
O6 P3 1.569958 1_555
O6 Ti1 1.889352 1_555
O7 P1 1.563323 1_555
O7 Ti1 1.951917 1_445
O8 P2 1.553177 1_555
O8 Ti1 1.922605 1_455
O9 S0 1.514280 1_555
O9 Ti2 1.997976 1_655
O10 S1 1.510304 1_555
O10 Ti2 1.999680 1_545
O11 P0 1.606578 1_565
O11 Ti2 1.906023 1_555
O12 P4 1.513064 1_555
O13 S2 1.455074 1_555
O14 P5 1.498798 1_555
O15 P6 1.494892 1_555
O16 P7 1.508242 1_555
O17 P8 1.497921 1_555
O18 P8 1.564209 1_555
O18 Ti3 1.974564 1_554
O19 P6 1.561155 1_555
O19 Ti3 1.913231 1_554
O20 P7 1.567431 1_555
O20 Ti3 1.922464 1_554
O21 S2 1.494709 1_555
O21 Ti4 2.127938 1_555
O22 P5 1.576488 1_555
O22 Ti4 1.876978 1_555
O23 P4 1.575254 1_555
O23 Ti4 1.884409 1_555
O24 P9 1.543300 1_555
O24 Ti5 1.903392 1_556
O25 P10 1.545298 1_555
O25 Ti5 1.897784 1_556
O26 P11 1.539780 1_555
O26 Ti5 1.978715 1_556
O27 P12 1.537222 1_555
O27 Ti6 1.915041 1_555
O28 P13 1.550179 1_555
O28 Ti6 1.853610 1_555
O29 P14 1.536221 1_555
O29 Ti6 1.933602 1_555
O30 P14 1.568040 1_555
O30 Ti7 1.894631 1_555
O31 P12 1.583200 1_555
O31 Ti7 1.899806 1_555
O32 P13 1.553333 1_555
O32 Ti7 1.950066 1_555
O33 P10 1.549478 1_555
O33 Ti8 1.983986 1_555
O34 P11 1.555531 1_555
O34 Ti8 1.902708 1_555
O35 P9 1.552971 1_555
O35 Ti8 1.904105 1_555
O36 P14 1.515027 1_555
O37 P12 1.504264 1_555
O38 P13 1.518434 1_555
O39 P10 1.541634 1_555
O39 Ti0 2.019506 1_555
O40 P11 1.544464 1_555
O40 Ti0 1.984450 1_565
O41 P9 1.538206 1_555
O41 Ti0 2.026469 1_665
O42 P4 1.558245 1_555
O42 Ti1 2.003242 1_545
O43 S2 1.492336 1_555
O43 Ti1 2.134582 1_445
O44 P5 1.558541 1_555
O44 Ti1 1.978380 1_555
O45 P6 1.582366 1_555
O45 Ti2 1.974950 1_655
O46 P7 1.543786 1_555
O46 Ti2 2.004917 1_645
O47 P8 1.579421 1_555
O47 Ti2 2.002814 1_545
O48 P3 1.514819 1_545
O49 P1 1.502906 1_555
O50 P2 1.518363 1_655
O51 S0 1.459456 1_555
O52 S1 1.460043 1_655
O53 P0 1.512862 1_555
O54 P9 1.537174 1_555
O54 Ti3 2.021148 1_555
O55 P10 1.542267 1_655
O55 Ti3 2.000428 1_555
O56 P11 1.538469 1_545
O56 Ti3 2.031409 1_555
O57 P12 1.557444 1_545
O57 Ti4 2.040745 1_555
O58 P13 1.558268 1_555
O58 Ti4 2.041280 1_555
O59 P14 1.551011 1_655
O59 Ti4 1.924672 1_555
O60 P8 1.547616 1_555
O60 Ti5 1.923304 1_555
O61 P6 1.562387 1_455
O61 Ti5 2.010983 1_555
O62 P7 1.563652 1_565
O62 Ti5 1.972259 1_555
O63 S2 1.490783 1_565
O63 Ti6 2.098368 1_555
O64 P5 1.554510 1_555
O64 Ti6 1.933392 1_555
O65 P4 1.552463 1_455
O65 Ti6 1.958284 1_555
O66 P0 1.590696 1_565
O66 Ti7 1.946457 1_555
O67 S0 1.508208 1_555
O67 Ti7 2.121068 1_555
O68 S1 1.507807 1_555
O68 Ti7 2.112109 1_555
O69 P1 1.565726 1_555
O69 Ti8 2.034023 1_555
O70 P2 1.563854 1_555
O70 Ti8 2.014428 1_555
O71 P3 1.544627 1_555
O71 Ti8 1.964861 1_555
