# generated using pymatgen
data_Na14Ca2Si9Ge6(SO16)3
_symmetry_space_group_name_H-M   'P 1'
_cell_length_a   17.87066632
_cell_length_b   9.01847151
_cell_length_c   21.89812766
_cell_angle_alpha   90.55594577
_cell_angle_beta   89.64061074
_cell_angle_gamma   120.25351781
_symmetry_Int_Tables_number   1
_chemical_formula_structural   Na14Ca2Si9Ge6(SO16)3
_chemical_formula_sum   'Na42 Ca6 Si27 Ge18 S9 O144'
_cell_volume   3048.42253678
_cell_formula_units_Z   3
loop_
 _symmetry_equiv_pos_site_id
 _symmetry_equiv_pos_as_xyz
  1  'x, y, z'
loop_
 _atom_site_type_symbol
 _atom_site_label
 _atom_site_symmetry_multiplicity
 _atom_site_fract_x
 _atom_site_fract_y
 _atom_site_fract_z
 _atom_site_occupancy
  Na  Na0  1  0.31038990  0.01056828  0.24598641  1
  Na  Na1  1  0.81388320  0.01369648  0.24914600  1
  Na  Na2  1  0.19146601  0.37225199  0.25684539  1
  Na  Na3  1  0.69129346  0.36874095  0.25134033  1
  Na  Na4  1  0.98905999  0.61386306  0.25631287  1
  Na  Na5  1  0.49463099  0.62566881  0.24935545  1
  Na  Na6  1  0.31360170  0.61723304  0.74468975  1
  Na  Na7  1  0.81152164  0.61485815  0.74233443  1
  Na  Na8  1  0.99402429  0.35487433  0.74383234  1
  Na  Na9  1  0.49149217  0.37134601  0.75084031  1
  Na  Na10  1  0.19185956  0.01869972  0.74641974  1
  Na  Na11  1  0.69304430  0.01228765  0.75275425  1
  Na  Na12  1  0.15765429  0.34306178  0.58302963  1
  Na  Na13  1  0.65851176  0.34877870  0.57851516  1
  Na  Na14  1  0.01407487  0.69357550  0.58044222  1
  Na  Na15  1  0.51076594  0.68780304  0.57328819  1
  Na  Na16  1  0.32914847  0.96988896  0.58509839  1
  Na  Na17  1  0.83211516  0.96247369  0.57338367  1
  Na  Na18  1  0.15736157  0.96803298  0.08558166  1
  Na  Na19  1  0.65865160  0.97193615  0.08705875  1
  Na  Na20  1  0.33264084  0.69467291  0.08405916  1
  Na  Na21  1  0.82829569  0.68873890  0.08898402  1
  Na  Na22  1  0.01227121  0.32988003  0.07758056  1
  Na  Na23  1  0.51634021  0.33627638  0.08667087  1
  Na  Na24  1  0.98393504  0.67004052  0.91880185  1
  Na  Na25  1  0.35035426  0.03142793  0.91167874  1
  Na  Na26  1  0.16349919  0.30256825  0.91714686  1
  Na  Na27  1  0.48623850  0.30107388  0.41892258  1
  Na  Na28  1  0.66820189  0.02866654  0.41487263  1
  Na  Na29  1  0.85077327  0.67421219  0.41926241  1
  Na  Na30  1  0.00197270  0.00267722  0.49443582  1
  Na  Na31  1  0.49497723  0.98811477  0.49524871  1
  Na  Na32  1  0.99281024  0.00144083  0.99635680  1
  Na  Na33  1  0.51046901  0.01087376  0.99821982  1
  Na  Na34  1  0.33902887  0.34475063  0.83034959  1
  Na  Na35  1  0.82284528  0.31577276  0.83394764  1
  Na  Na36  1  0.32388207  0.33149668  0.33463883  1
  Na  Na37  1  0.83701941  0.33180477  0.33134429  1
  Na  Na38  1  0.17289432  0.67826648  0.16769869  1
  Na  Na39  1  0.66907693  0.67459417  0.16739459  1
  Na  Na40  1  0.16754272  0.66151703  0.66088961  1
  Na  Na41  1  0.67427408  0.66801776  0.66471079  1
  Ca  Ca0  1  0.32828165  0.33684374  0.68536728  1
  Ca  Ca1  1  0.83990217  0.33168987  0.68161780  1
  Ca  Ca2  1  0.33803801  0.34338555  0.18459334  1
  Ca  Ca3  1  0.82716141  0.31942987  0.18604454  1
  Ca  Ca4  1  0.16546758  0.67211136  0.00770250  1
  Ca  Ca5  1  0.67055249  0.66701961  0.50525208  1
  Si  Si0  1  0.13678669  0.99734078  0.25148900  1
  Si  Si1  1  0.63533163  0.98318817  0.25355270  1
  Si  Si2  1  0.35525384  0.72656427  0.25165765  1
  Si  Si3  1  0.84896210  0.71231016  0.25570105  1
  Si  Si4  1  0.00806334  0.29687476  0.25634924  1
  Si  Si5  1  0.13510615  0.28597477  0.75451432  1
  Si  Si6  1  0.64033307  0.28423877  0.74922295  1
  Si  Si7  1  0.50788239  0.72315981  0.75774721  1
  Si  Si8  1  0.35029614  0.98539842  0.75595070  1
  Si  Si9  1  0.85550420  0.98485588  0.75167055  1
  Si  Si10  1  0.98698091  0.34629090  0.57883264  1
  Si  Si11  1  0.18567172  0.03918307  0.58368412  1
  Si  Si12  1  0.33308445  0.63479077  0.58155732  1
  Si  Si13  1  0.83599672  0.63577853  0.58614444  1
  Si  Si14  1  0.48495155  0.62523455  0.07776536  1
  Si  Si15  1  0.33611038  0.02641605  0.08792584  1
  Si  Si16  1  0.83295419  0.03081743  0.08054162  1
  Si  Si17  1  0.68625157  0.33275309  0.08332461  1
  Si  Si18  1  0.80839661  0.65521717  0.91403015  1
  Si  Si19  1  0.01065902  0.36144516  0.91824567  1
  Si  Si20  1  0.52792430  0.37510599  0.91293630  1
  Si  Si21  1  0.16620858  0.97266462  0.91704397  1
  Si  Si22  1  0.30888563  0.96146972  0.41487742  1
  Si  Si23  1  0.82793772  0.98702529  0.41785593  1
  Si  Si24  1  0.66484866  0.36416601  0.41528863  1
  Si  Si25  1  0.02884534  0.68109491  0.41310269  1
  Si  Si26  1  0.51116694  0.66005379  0.41824289  1
  Ge  Ge0  1  0.99701686  0.99197775  0.35160465  1
  Ge  Ge1  1  0.49555234  0.98254326  0.35815108  1
  Ge  Ge2  1  0.99468577  0.00642267  0.85774086  1
  Ge  Ge3  1  0.50367600  0.01761059  0.84834903  1
  Ge  Ge4  1  0.99734514  0.02183547  0.63871186  1
  Ge  Ge5  1  0.49269001  0.97400044  0.65728300  1
  Ge  Ge6  1  0.98845953  0.00675966  0.15972280  1
  Ge  Ge7  1  0.49844106  0.97696698  0.14155558  1
  Ge  Ge8  1  0.35061241  0.31473370  0.98027065  1
  Ge  Ge9  1  0.82587423  0.31465082  0.97708932  1
  Ge  Ge10  1  0.32544415  0.33588896  0.47707317  1
  Ge  Ge11  1  0.85198390  0.36354499  0.47243988  1
  Ge  Ge12  1  0.66936145  0.65101742  0.01655923  1
  Ge  Ge13  1  0.16967250  0.68463269  0.51540200  1
  Ge  Ge14  1  0.16624683  0.69062777  0.30774211  1
  Ge  Ge15  1  0.67326564  0.68898067  0.32260547  1
  Ge  Ge16  1  0.16208704  0.66597919  0.81555658  1
  Ge  Ge17  1  0.66634020  0.64405007  0.80743961  1
  S  S0  1  0.50503372  0.28786758  0.25182378  1
  S  S1  1  0.00608364  0.71818292  0.75413337  1
  S  S2  1  0.48225432  0.32480942  0.58403749  1
  S  S3  1  0.67589058  0.03067234  0.58407477  1
  S  S4  1  0.98075697  0.63702432  0.08323305  1
  S  S5  1  0.18080100  0.32391370  0.08047025  1
  S  S6  1  0.32263104  0.66901277  0.91392140  1
  S  S7  1  0.66639985  0.95940933  0.91599782  1
  S  S8  1  0.16897434  0.37904228  0.41616502  1
  O  O0  1  0.09189920  0.02307638  0.31187494  1
  O  O1  1  0.58697659  0.01231108  0.31072433  1
  O  O2  1  0.41581999  0.83175356  0.30796108  1
  O  O3  1  0.91174634  0.80300577  0.31401696  1
  O  O4  1  0.49589174  0.18881799  0.30685726  1
  O  O5  1  0.99189141  0.16047675  0.30892103  1
  O  O6  1  0.08826187  0.16076537  0.81210395  1
  O  O7  1  0.59717682  0.17080648  0.81054513  1
  O  O8  1  0.49146946  0.82615567  0.81317556  1
  O  O9  1  0.99834830  0.80149054  0.81004491  1
  O  O10  1  0.40935504  0.01428781  0.81709512  1
  O  O11  1  0.91548027  0.00128122  0.80859339  1
  O  O12  1  0.39357263  0.94575072  0.69426162  1
  O  O13  1  0.89830290  0.96099666  0.68636203  1
  O  O14  1  0.07793921  0.20393570  0.69008109  1
  O  O15  1  0.57446421  0.18480146  0.68946789  1
  O  O16  1  0.01588165  0.81383533  0.69748853  1
  O  O17  1  0.52367390  0.83261401  0.69251128  1
  O  O18  1  0.39683315  0.83274759  0.18586181  1
  O  O19  1  0.88996545  0.83549309  0.19248106  1
  O  O20  1  0.02361008  0.21803886  0.18924235  1
  O  O21  1  0.51152401  0.20366681  0.19406775  1
  O  O22  1  0.07333359  0.96583213  0.18887242  1
  O  O23  1  0.57907365  0.95296258  0.18815889  1
  O  O24  1  0.44210021  0.33875849  0.64132300  1
  O  O25  1  0.96871079  0.40219277  0.64459865  1
  O  O26  1  0.23926546  0.08447665  0.64601215  1
  O  O27  1  0.72468896  0.10643768  0.64108845  1
  O  O28  1  0.30677511  0.53470487  0.64497719  1
  O  O29  1  0.81971920  0.52881877  0.64736805  1
  O  O30  1  0.46310443  0.52516112  0.14116594  1
  O  O31  1  0.93930841  0.54213588  0.13948717  1
  O  O32  1  0.31289832  0.10293785  0.14585945  1
  O  O33  1  0.80659595  0.07903097  0.14432624  1
  O  O34  1  0.23009743  0.34773966  0.13705173  1
  O  O35  1  0.74089702  0.39815194  0.14490631  1
  O  O36  1  0.22708522  0.31118919  0.02498699  1
  O  O37  1  0.73574974  0.28584731  0.02726812  1
  O  O38  1  0.40778361  0.51238657  0.02428612  1
  O  O39  1  0.92864270  0.54805383  0.02725378  1
  O  O40  1  0.35417470  0.15112766  0.02435814  1
  O  O41  1  0.85600875  0.17559726  0.02536693  1
  O  O42  1  0.23596434  0.18709136  0.52926692  1
  O  O43  1  0.71966488  0.13348513  0.52929161  1
  O  O44  1  0.35561929  0.53309411  0.52660259  1
  O  O45  1  0.85101266  0.53541201  0.52440597  1
  O  O46  1  0.42841088  0.30579796  0.52928413  1
  O  O47  1  0.91163560  0.30569757  0.52729238  1
  O  O48  1  0.28729831  0.69274533  0.97054082  1
  O  O49  1  0.76611270  0.69377655  0.97395736  1
  O  O50  1  0.06433380  0.41958731  0.98018726  1
  O  O51  1  0.58366841  0.46514709  0.97355536  1
  O  O52  1  0.14222400  0.87395859  0.98015868  1
  O  O53  1  0.65891859  0.86252028  0.97185557  1
  O  O54  1  0.26731566  0.83940782  0.47459678  1
  O  O55  1  0.79681646  0.87474000  0.47817914  1
  O  O56  1  0.16248374  0.46493822  0.47251485  1
  O  O57  1  0.63517222  0.40835260  0.47852775  1
  O  O58  1  0.08401071  0.69630789  0.47380522  1
  O  O59  1  0.56325312  0.70509411  0.48073141  1
  O  O60  1  0.06973092  0.63955323  0.35239659  1
  O  O61  1  0.56635967  0.62496339  0.36188815  1
  O  O62  1  0.24881568  0.87469694  0.35335399  1
  O  O63  1  0.75422451  0.88750982  0.36114902  1
  O  O64  1  0.18058649  0.47822693  0.36041125  1
  O  O65  1  0.68564062  0.51116184  0.36034114  1
  O  O66  1  0.06522821  0.51274455  0.86278383  1
  O  O67  1  0.56805095  0.49246749  0.85197958  1
  O  O68  1  0.18891899  0.87292250  0.86017977  1
  O  O69  1  0.67750384  0.88070888  0.85989178  1
  O  O70  1  0.26311173  0.64507037  0.86060080  1
  O  O71  1  0.74800421  0.62317018  0.85292673  1
  O  O72  1  0.01367783  0.84702238  0.41075437  1
  O  O73  1  0.50121158  0.82998132  0.40901293  1
  O  O74  1  0.40999232  0.99928615  0.40864017  1
  O  O75  1  0.92291643  0.00097876  0.40813129  1
  O  O76  1  0.09276935  0.20441506  0.41497490  1
  O  O77  1  0.57944280  0.16958118  0.40357256  1
  O  O78  1  0.00061891  0.17175915  0.90878736  1
  O  O79  1  0.51010880  0.17228762  0.91081487  1
  O  O80  1  0.08090601  0.99346261  0.90537681  1
  O  O81  1  0.58921016  0.98208322  0.91431619  1
  O  O82  1  0.40959575  0.82769488  0.90929954  1
  O  O83  1  0.91001574  0.82087935  0.90818601  1
  O  O84  1  0.48838211  0.16417351  0.58474377  1
  O  O85  1  0.98782850  0.16182867  0.58169152  1
  O  O86  1  0.09119287  0.03279435  0.59078231  1
  O  O87  1  0.58974774  0.02692018  0.58712123  1
  O  O88  1  0.42617806  0.82904393  0.58964429  1
  O  O89  1  0.92987880  0.82636905  0.58786386  1
  O  O90  1  0.48608396  0.81094657  0.08158835  1
  O  O91  1  0.98749253  0.80987578  0.08391693  1
  O  O92  1  0.43069608  0.03155989  0.08933915  1
  O  O93  1  0.92581807  0.02076647  0.08924735  1
  O  O94  1  0.09556725  0.15815887  0.08213836  1
  O  O95  1  0.59208235  0.15035365  0.09010564  1
  O  O96  1  0.34130271  0.15252641  0.75487273  1
  O  O97  1  0.84443134  0.15188584  0.75324925  1
  O  O98  1  0.23163654  0.31618782  0.75630939  1
  O  O99  1  0.73616255  0.31281388  0.75009085  1
  O  O100  1  0.42473390  0.53443056  0.75488606  1
  O  O101  1  0.93151618  0.54196157  0.75424747  1
  O  O102  1  0.34402134  0.53730962  0.25341001  1
  O  O103  1  0.83923830  0.52665345  0.25312396  1
  O  O104  1  0.42842993  0.31085292  0.25157676  1
  O  O105  1  0.92556200  0.32160743  0.25303621  1
  O  O106  1  0.23304835  0.16136292  0.25185429  1
  O  O107  1  0.73113398  0.14779492  0.25502348  1
  O  O108  1  0.32786584  0.50947353  0.91358469  1
  O  O109  1  0.82083098  0.48588617  0.92551416  1
  O  O110  1  0.42705012  0.34485369  0.91924639  1
  O  O111  1  0.91696684  0.35883637  0.92053550  1
  O  O112  1  0.25865114  0.16975005  0.92370005  1
  O  O113  1  0.74784307  0.13740751  0.91854507  1
  O  O114  1  0.31973594  0.15502545  0.42660591  1
  O  O115  1  0.82688955  0.17002486  0.42231669  1
  O  O116  1  0.25060354  0.36418382  0.41951387  1
  O  O117  1  0.75588648  0.35539421  0.42054542  1
  O  O118  1  0.41721810  0.47424066  0.42046854  1
  O  O119  1  0.92932727  0.51035654  0.41728910  1
  O  O120  1  0.16771709  0.47224443  0.07765363  1
  O  O121  1  0.66859776  0.49507867  0.07136713  1
  O  O122  1  0.06754851  0.65534685  0.08166697  1
  O  O123  1  0.58362762  0.66644945  0.06180278  1
  O  O124  1  0.25729931  0.83295240  0.07970999  1
  O  O125  1  0.74951006  0.83627810  0.06754895  1
  O  O126  1  0.16903340  0.84271034  0.57114912  1
  O  O127  1  0.66193780  0.85544665  0.58082040  1
  O  O128  1  0.25098514  0.66538586  0.56846649  1
  O  O129  1  0.75424662  0.66470737  0.58095958  1
  O  O130  1  0.08573892  0.50331497  0.56357424  1
  O  O131  1  0.56870834  0.47999385  0.58170061  1
  O  O132  1  0.14186681  0.81681276  0.24995423  1
  O  O133  1  0.64123168  0.80304539  0.25959458  1
  O  O134  1  0.25875854  0.71295096  0.25540166  1
  O  O135  1  0.75337904  0.70369648  0.25987607  1
  O  O136  1  0.09976077  0.48533681  0.25925418  1
  O  O137  1  0.58588336  0.46062398  0.25278439  1
  O  O138  1  0.14093064  0.47945290  0.76156311  1
  O  O139  1  0.64343882  0.47249720  0.74898906  1
  O  O140  1  0.08999314  0.71028428  0.75626204  1
  O  O141  1  0.59843607  0.71426325  0.76119939  1
  O  O142  1  0.25362377  0.80275355  0.75961525  1
  O  O143  1  0.75878468  0.80675230  0.75592121  1
loop_
_geom_bond_atom_site_label_1
_geom_bond_atom_site_label_2
_geom_bond_distance
_geom_bond_site_symmetry_2
Na0 O32 2.345208 1_555
Na0 O134 2.368725 1_545
Na0 O106 2.380055 1_555
Na0 O104 2.457455 1_555
Na0 O132 2.612983 1_545
Na0 O62 2.627736 1_545
Na1 O107 2.337219 1_555
Na1 O33 2.395853 1_555
Na1 O135 2.450294 1_545
Na1 O105 2.472762 1_555
Na1 O63 2.691848 1_545
Na1 O133 2.697093 1_545
Na1 O19 2.848360 1_545
Na2 O136 2.326089 1_555
Na2 O102 2.358882 1_555
Na2 O106 2.366524 1_555
Na2 O64 2.496845 1_555
Na2 O134 2.676954 1_555
Na2 O34 2.743495 1_555
Na3 O103 2.286026 1_555
Na3 O137 2.409940 1_555
Na3 O107 2.432536 1_555
Na3 O35 2.457130 1_555
Na3 O135 2.646791 1_555
Na3 O65 2.724981 1_555
Na4 O105 2.285457 1_555
Na4 O103 2.381466 1_555
Na4 O132 2.406292 1_655
Na4 O60 2.500217 1_655
Na4 O31 2.677785 1_555
Na4 O136 2.752273 1_655
Na4 O3 2.954053 1_555
Na5 O133 2.291347 1_555
Na5 O102 2.392535 1_555
Na5 O104 2.465800 1_555
Na5 O30 2.492463 1_555
Na5 O137 2.707398 1_555
Na5 O61 2.786370 1_555
Na5 O23 2.889394 1_555
Na6 O28 2.284052 1_555
Na6 O98 2.362802 1_555
Na6 O142 2.418060 1_555
Na6 O100 2.460674 1_555
Na6 O138 2.708015 1_555
Na6 O70 2.739881 1_555
Na6 O12 2.795848 1_555
Na7 O29 2.242239 1_555
Na7 O99 2.360541 1_555
Na7 O143 2.366777 1_555
Na7 O101 2.555291 1_555
Na7 O139 2.608501 1_555
Na7 O71 2.684538 1_555
Na8 O25 2.309472 1_555
Na8 O138 2.310300 1_655
Na8 O97 2.368438 1_555
Na8 O101 2.456652 1_555
Na8 O14 2.736965 1_655
Na8 O140 2.781872 1_655
Na8 O66 2.928371 1_655
Na9 O100 2.314851 1_555
Na9 O139 2.389656 1_555
Na9 O96 2.401915 1_555
Na9 O24 2.523576 1_555
Na9 O67 2.540738 1_555
Na9 O141 2.702638 1_555
Na10 O96 2.318884 1_555
Na10 O26 2.323703 1_555
Na10 O98 2.412268 1_555
Na10 O140 2.449764 1_545
Na10 O142 2.697321 1_545
Na10 O68 2.815883 1_545
Na11 O97 2.339290 1_555
Na11 O141 2.354431 1_545
Na11 O99 2.416798 1_555
Na11 O27 2.561095 1_555
Na11 O69 2.589065 1_545
Na11 O143 2.649295 1_545
Na11 O17 2.931517 1_545
Na11 O7 2.997670 1_555
Na12 O130 2.410875 1_555
Na12 O86 2.434528 1_555
Na12 O128 2.541519 1_555
Na12 O85 2.623877 1_455
Na12 O56 2.650602 1_555
Na12 O42 2.693293 1_555
Na12 O28 2.699580 1_555
Na12 O14 2.704285 1_555
Na13 O57 2.348783 1_555
Na13 O131 2.427217 1_555
Na13 O129 2.476714 1_555
Na13 O87 2.526766 1_555
Na13 O84 2.633003 1_555
Na13 O15 2.851646 1_555
Na13 O43 2.865103 1_555
Na13 O29 2.915937 1_555
Na14 O89 2.352336 1_455
Na14 O126 2.400858 1_555
Na14 O130 2.629986 1_555
Na14 O58 2.636097 1_555
Na14 O86 2.655486 1_565
Na14 O25 2.728947 1_455
Na14 O16 2.767413 1_555
Na14 O45 2.802578 1_455
Na15 O59 2.201595 1_555
Na15 O127 2.344440 1_555
Na15 O88 2.441401 1_555
Na15 O131 2.565737 1_555
Na15 O44 2.605547 1_555
Na15 O87 2.659876 1_565
Na15 O17 2.865779 1_555
Na16 O128 2.397257 1_555
Na16 O84 2.478604 1_565
Na16 O126 2.508665 1_555
Na16 O88 2.618020 1_555
Na16 O26 2.654490 1_565
Na16 O54 2.670037 1_555
Na16 O12 2.717426 1_555
Na16 O46 2.906446 1_565
Na17 O55 2.202704 1_555
Na17 O129 2.327139 1_555
Na17 O85 2.442876 1_565
Na17 O89 2.614376 1_555
Na17 O127 2.691825 1_555
Na17 O13 2.751947 1_555
Na17 O47 2.868731 1_565
Na18 O52 2.420952 1_554
Na18 O122 2.443742 1_555
Na18 O94 2.465101 1_565
Na18 O124 2.622335 1_555
Na18 O91 2.624580 1_455
Na18 O22 2.701779 1_555
Na18 O32 2.748760 1_565
Na19 O95 2.436083 1_565
Na19 O123 2.439529 1_555
Na19 O125 2.509691 1_555
Na19 O23 2.583738 1_555
Na19 O33 2.634484 1_565
Na19 O90 2.668759 1_555
Na19 O53 2.700777 1_554
Na19 O37 2.783174 1_565
Na20 O124 2.252305 1_555
Na20 O90 2.392404 1_555
Na20 O18 2.524893 1_555
Na20 O120 2.602389 1_555
Na20 O48 2.616586 1_554
Na20 O92 2.635479 1_565
Na20 O38 2.894776 1_555
Na20 O34 2.959810 1_555
Na21 O125 2.425125 1_555
Na21 O91 2.483172 1_555
Na21 O121 2.514384 1_555
Na21 O19 2.570237 1_555
Na21 O35 2.592434 1_555
Na21 O93 2.597102 1_565
Na21 O49 2.769449 1_554
Na22 O50 2.306255 1_554
Na22 O120 2.402372 1_555
Na22 O93 2.427467 1_455
Na22 O122 2.583333 1_555
Na22 O94 2.636644 1_555
Na22 O41 2.671215 1_455
Na22 O20 2.701362 1_555
Na23 O121 2.374478 1_555
Na23 O92 2.379421 1_555
Na23 O30 2.609636 1_555
Na23 O21 2.630002 1_555
Na23 O95 2.634371 1_555
Na23 O123 2.650326 1_555
Na23 O51 2.746534 1_554
Na23 O40 2.859697 1_555
Na24 O83 2.338865 1_555
Na24 O111 2.434661 1_555
Na24 O109 2.529276 1_555
Na24 O80 2.552261 1_655
Na24 O39 2.598590 1_556
Na24 O9 2.623548 1_555
Na24 O66 2.765524 1_655
Na24 O52 2.819006 1_655
Na25 O10 2.357144 1_555
Na25 O110 2.446576 1_555
Na25 O79 2.471842 1_555
Na25 O112 2.521761 1_555
Na25 O82 2.541052 1_545
Na25 O40 2.671059 1_556
Na25 O68 2.737177 1_545
Na26 O80 2.420910 1_545
Na26 O112 2.530930 1_555
Na26 O78 2.537756 1_555
Na26 O108 2.567666 1_555
Na26 O36 2.610560 1_556
Na26 O6 2.642621 1_555
Na26 O50 2.825863 1_555
Na26 O70 2.957878 1_555
Na27 O74 2.360056 1_545
Na27 O118 2.429174 1_555
Na27 O77 2.503821 1_555
Na27 O114 2.581801 1_555
Na27 O46 2.630836 1_555
Na27 O57 2.673548 1_555
Na27 O4 2.683159 1_555
Na27 O61 2.824212 1_555
Na28 O115 2.460223 1_555
Na28 O77 2.496891 1_555
Na28 O117 2.548721 1_555
Na28 O73 2.597100 1_545
Na28 O43 2.669112 1_555
Na28 O1 2.673834 1_555
Na28 O63 2.699639 1_545
Na28 O59 2.940369 1_545
Na29 O117 2.496265 1_555
Na29 O119 2.498913 1_555
Na29 O72 2.523048 1_655
Na29 O75 2.566630 1_565
Na29 O3 2.567702 1_555
Na29 O45 2.632422 1_555
Na29 O55 2.749738 1_555
Na29 O65 2.859017 1_555
Na30 O75 2.362008 1_455
Na30 O72 2.369265 1_545
Na30 O76 2.453975 1_555
Na30 O85 2.466007 1_455
Na30 O89 2.517862 1_445
Na30 O86 2.581076 1_555
Na31 O73 2.391130 1_555
Na31 O88 2.467968 1_555
Na31 O74 2.471375 1_555
Na31 O87 2.543643 1_565
Na31 O84 2.549694 1_565
Na31 O77 2.554112 1_565
Na32 O93 2.402947 1_556
Na32 O78 2.427722 1_655
Na32 O83 2.473008 1_545
Na32 O94 2.504954 1_656
Na32 O80 2.554394 1_645
Na32 O91 2.562560 1_546
Na33 O81 2.397867 1_545
Na33 O79 2.417892 1_555
Na33 O95 2.428409 1_556
Na33 O90 2.456802 1_546
Na33 O92 2.504716 1_556
Na33 O82 2.598281 1_545
Na34 O100 2.320752 1_555
Na34 O96 2.398584 1_555
Na34 O108 2.410472 1_555
Na34 O98 2.431277 1_555
Na34 O110 2.510133 1_555
Na34 O112 2.544460 1_555
Na35 O113 2.381182 1_555
Na35 O99 2.401137 1_555
Na35 O111 2.437770 1_555
Na35 O97 2.443644 1_555
Na35 O109 2.523998 1_555
Na35 O101 2.648269 1_555
Na36 O116 2.367281 1_555
Na36 O106 2.397658 1_555
Na36 O118 2.408449 1_555
Na36 O102 2.474185 1_555
Na36 O114 2.556499 1_555
Na36 O104 2.671154 1_555
Na37 O105 2.358442 1_555
Na37 O115 2.432237 1_555
Na37 O107 2.439125 1_555
Na37 O103 2.451684 1_555
Na37 O119 2.481872 1_555
Na37 O117 2.496040 1_555
Na38 O134 2.383796 1_555
Na38 O132 2.398963 1_555
Na38 O124 2.414370 1_555
Na38 O136 2.549213 1_555
Na38 O122 2.604023 1_555
Na38 O120 2.665854 1_555
Na39 O135 2.463611 1_555
Na39 O133 2.487740 1_555
Na39 O137 2.564127 1_555
Na39 O125 2.623593 1_555
Na39 O121 2.638776 1_555
Na39 O123 2.758944 1_555
Na40 O128 2.496405 1_555
Na40 O126 2.559405 1_555
Na40 O130 2.567557 1_555
Na40 O142 2.583903 1_555
Na40 O140 2.652513 1_555
Na40 O138 2.655650 1_555
Na41 O129 2.327227 1_555
Na41 O139 2.426967 1_555
Na41 O143 2.433303 1_555
Na41 O131 2.549193 1_555
Na41 O127 2.592557 1_555
Na41 O141 2.644179 1_555
Ca0 O26 2.187274 1_555
Ca0 O28 2.200011 1_555
Ca0 O24 2.237871 1_555
Ca0 O98 2.253606 1_555
Ca0 O100 2.312814 1_555
Ca0 O96 2.361601 1_555
Ca1 O29 2.128045 1_555
Ca1 O25 2.207246 1_555
Ca1 O27 2.219674 1_555
Ca1 O97 2.297759 1_555
Ca1 O99 2.316523 1_555
Ca1 O101 2.377339 1_555
Ca2 O32 2.147315 1_555
Ca2 O30 2.213300 1_555
Ca2 O34 2.215538 1_555
Ca2 O102 2.259079 1_555
Ca2 O106 2.300677 1_555
Ca2 O104 2.315742 1_555
Ca3 O35 2.196537 1_555
Ca3 O33 2.198384 1_555
Ca3 O107 2.226822 1_555
Ca3 O31 2.246773 1_555
Ca3 O103 2.289351 1_555
Ca3 O105 2.289481 1_555
Ca4 O52 2.153230 1_554
Ca4 O50 2.157660 1_554
Ca4 O124 2.207494 1_555
Ca4 O48 2.238191 1_554
Ca4 O122 2.326138 1_555
Ca4 O120 2.392567 1_555
Ca5 O57 2.162411 1_555
Ca5 O55 2.167406 1_555
Ca5 O59 2.182438 1_555
Ca5 O129 2.247030 1_555
Ca5 O127 2.419841 1_555
Ca5 O131 2.425532 1_555
Ge0 O0 1.793795 1_665
Ge0 O3 1.809879 1_555
Ge0 O5 1.833064 1_565
Ge0 O75 1.837983 1_565
Ge0 O72 1.976170 1_655
Ge0 O76 2.280139 1_665
Ge1 O2 1.767951 1_555
Ge1 O73 1.820750 1_555
Ge1 O1 1.833621 1_565
Ge1 O77 1.876198 1_565
Ge1 O74 1.947118 1_555
Ge1 O4 2.179782 1_565
Ge2 O11 1.765208 1_555
Ge2 O78 1.814919 1_655
Ge2 O6 1.842068 1_655
Ge2 O80 1.918307 1_645
Ge2 O83 1.942515 1_545
Ge2 O9 2.143476 1_545
Ge3 O7 1.750636 1_555
Ge3 O8 1.794121 1_545
Ge3 O10 1.809325 1_555
Ge3 O79 1.906192 1_555
Ge3 O82 2.157822 1_545
Ge3 O81 2.248568 1_545
Ge4 O85 1.852459 1_555
Ge4 O13 1.879345 1_545
Ge4 O14 1.907316 1_655
Ge4 O89 1.907375 1_545
Ge4 O86 1.933133 1_655
Ge4 O16 2.442027 1_645
Ge5 O17 1.806494 1_555
Ge5 O12 1.841029 1_555
Ge5 O15 1.853092 1_565
Ge5 O88 1.932458 1_555
Ge5 O87 2.177945 1_565
Ge5 O84 2.378674 1_565
Ge6 O20 1.793928 1_655
Ge6 O19 1.806816 1_545
Ge6 O22 1.850698 1_645
Ge6 O93 1.954168 1_555
Ge6 O94 2.405245 1_655
Ge6 O91 2.412652 1_545
Ge7 O23 1.871300 1_555
Ge7 O18 1.884871 1_555
Ge7 O92 1.909042 1_565
Ge7 O90 1.909779 1_555
Ge7 O95 1.971960 1_565
Ge7 O21 2.243432 1_565
Ge8 O40 1.798946 1_556
Ge8 O38 1.814980 1_556
Ge8 O110 1.826395 1_555
Ge8 O112 1.942649 1_555
Ge8 O36 2.394861 1_556
Ge8 O108 2.481680 1_555
Ge9 O37 1.852197 1_556
Ge9 O111 1.916540 1_555
Ge9 O41 1.921894 1_556
Ge9 O109 1.960571 1_555
Ge9 O113 1.969713 1_555
Ge9 O39 2.257302 1_556
Ge10 O42 1.873148 1_555
Ge10 O44 1.906223 1_555
Ge10 O114 1.921207 1_555
Ge10 O118 1.930172 1_555
Ge10 O116 1.952919 1_555
Ge10 O46 2.302678 1_555
Ge11 O119 1.813292 1_555
Ge11 O47 1.854717 1_555
Ge11 O115 1.905809 1_555
Ge11 O45 1.921020 1_555
Ge11 O117 2.035105 1_555
Ge12 O49 1.823014 1_554
Ge12 O121 1.852462 1_555
Ge12 O51 1.855431 1_554
Ge12 O123 1.881885 1_555
Ge12 O125 1.913691 1_555
Ge12 O53 2.242463 1_554
Ge13 O54 1.828110 1_555
Ge13 O58 1.834675 1_555
Ge13 O126 1.872225 1_555
Ge13 O130 1.891733 1_555
Ge13 O128 1.941955 1_555
Ge13 O56 2.129086 1_555
Ge14 O60 1.824921 1_555
Ge14 O62 1.857064 1_555
Ge14 O132 1.902808 1_555
Ge14 O136 1.930782 1_555
Ge14 O134 1.932034 1_555
Ge14 O64 2.367777 1_555
Ge15 O63 1.840385 1_555
Ge15 O61 1.897581 1_555
Ge15 O65 1.920631 1_555
Ge15 O135 1.934337 1_555
Ge15 O133 1.980071 1_555
Ge15 O137 2.397027 1_555
Ge16 O66 1.889539 1_555
Ge16 O142 1.915473 1_555
Ge16 O138 1.922704 1_555
Ge16 O68 1.933036 1_555
Ge16 O140 2.013768 1_555
Ge16 O70 2.153344 1_555
Ge17 O71 1.859099 1_555
Ge17 O67 1.868200 1_555
Ge17 O139 1.878710 1_555
Ge17 O141 1.923791 1_555
Ge17 O143 1.929024 1_555
Ge17 O69 2.332505 1_555
O0 Si0 1.616869 1_545
O1 Si1 1.609920 1_545
O2 Si2 1.597178 1_555
O3 Si3 1.622223 1_555
O4 S0 1.465721 1_555
O5 Si4 1.608438 1_655
O6 Si5 1.621152 1_555
O7 Si6 1.631928 1_555
O8 Si7 1.634094 1_555
O9 S1 1.472176 1_655
O10 Si8 1.645738 1_545
O11 Si9 1.605518 1_545
O12 Si8 1.675410 1_555
O13 Si9 1.680091 1_555
O14 Si5 1.678721 1_555
O15 Si6 1.683719 1_555
O16 S1 1.476237 1_555
O17 Si7 1.684154 1_555
O18 Si2 1.685648 1_555
O19 Si3 1.698380 1_555
O20 Si4 1.707572 1_555
O21 S0 1.502646 1_555
O22 Si0 1.712890 1_555
O23 Si1 1.694118 1_555
O24 S2 1.476817 1_555
O25 Si10 1.606451 1_555
O26 Si11 1.599492 1_555
O27 S3 1.477423 1_555
O28 Si12 1.597807 1_555
O29 Si13 1.596867 1_555
O30 Si14 1.599043 1_555
O31 S4 1.472663 1_555
O32 Si15 1.588279 1_555
O33 Si16 1.596318 1_555
O34 S5 1.474868 1_555
O35 Si17 1.593970 1_555
O36 S5 1.501273 1_555
O37 Si17 1.679758 1_555
O38 Si14 1.700554 1_555
O39 S4 1.502030 1_555
O40 Si15 1.722141 1_555
O41 Si16 1.678298 1_555
O42 Si11 1.678226 1_555
O43 S3 1.479785 1_555
O44 Si12 1.672184 1_555
O45 Si13 1.713345 1_555
O46 S2 1.495693 1_555
O47 Si10 1.653834 1_555
O48 S6 1.450158 1_555
O49 Si18 1.630191 1_555
O50 Si19 1.590774 1_555
O51 Si20 1.610724 1_555
O52 Si21 1.586912 1_555
O53 S7 1.475984 1_555
O54 Si22 1.632656 1_555
O55 Si23 1.590266 1_555
O56 S8 1.485388 1_555
O57 Si24 1.597126 1_555
O58 Si25 1.623047 1_555
O59 Si26 1.589995 1_555
O60 Si25 1.641755 1_555
O61 Si26 1.699290 1_555
O62 Si22 1.652586 1_555
O63 Si23 1.700105 1_555
O64 S8 1.471312 1_555
O65 Si24 1.694782 1_555
O66 Si19 1.721726 1_555
O67 Si20 1.633059 1_555
O68 Si21 1.692399 1_555
O69 S7 1.474643 1_555
O70 S6 1.523344 1_555
O71 Si18 1.653783 1_555
O72 Si25 1.650983 1_555
O73 Si26 1.643840 1_555
O74 Si22 1.666291 1_555
O75 Si23 1.650116 1_545
O76 S8 1.474452 1_555
O77 Si24 1.664970 1_555
O78 Si19 1.638846 1_555
O79 Si20 1.691421 1_555
O80 Si21 1.648704 1_555
O81 S7 1.493658 1_555
O82 S6 1.494406 1_555
O83 Si18 1.677266 1_555
O84 S2 1.507066 1_555
O85 Si10 1.673030 1_555
O86 Si11 1.666443 1_555
O87 S3 1.523714 1_555
O88 Si12 1.711431 1_555
O89 Si13 1.692431 1_555
O90 Si14 1.666028 1_555
O91 S4 1.501746 1_555
O92 Si15 1.667894 1_555
O93 Si16 1.718870 1_555
O94 S5 1.503998 1_555
O95 Si17 1.664980 1_555
O96 Si8 1.594676 1_545
O97 Si9 1.615153 1_545
O98 Si5 1.605813 1_555
O99 Si6 1.598488 1_555
O100 Si7 1.599839 1_555
O101 S1 1.472243 1_655
O102 Si2 1.615808 1_555
O103 Si3 1.594336 1_555
O104 S0 1.484289 1_555
O105 Si4 1.600551 1_655
O106 Si0 1.607260 1_545
O107 Si1 1.604578 1_545
O108 S6 1.488075 1_555
O109 Si18 1.671755 1_555
O110 Si20 1.686782 1_555
O111 Si19 1.663058 1_655
O112 Si21 1.717203 1_545
O113 S7 1.530798 1_545
O114 Si22 1.673757 1_545
O115 Si23 1.661817 1_545
O116 S8 1.532920 1_555
O117 Si24 1.672886 1_555
O118 Si26 1.671788 1_555
O119 Si25 1.668399 1_655
O120 S5 1.471366 1_555
O121 Si17 1.668844 1_555
O122 S4 1.474903 1_455
O123 Si14 1.644466 1_555
O124 Si15 1.606575 1_565
O125 Si16 1.655927 1_565
O126 Si11 1.662538 1_565
O127 S3 1.471559 1_565
O128 Si12 1.650947 1_555
O129 Si13 1.613068 1_555
O130 Si10 1.647784 1_455
O131 S2 1.473052 1_555
O132 Si0 1.675672 1_555
O133 Si1 1.686695 1_555
O134 Si2 1.667502 1_555
O135 Si3 1.672299 1_555
O136 Si4 1.664585 1_555
O137 S0 1.498939 1_555
O138 Si5 1.700359 1_555
O139 Si6 1.670585 1_555
O140 S1 1.537654 1_555
O141 Si7 1.662343 1_555
O142 Si8 1.684522 1_555
O143 Si9 1.667183 1_555
