# generated using pymatgen
data_Rb6Mg(FeO3)2
_symmetry_space_group_name_H-M   'P 1'
_cell_length_a   6.39245839
_cell_length_b   7.36752271
_cell_length_c   7.36752445
_cell_angle_alpha   115.11951104
_cell_angle_beta   93.82218786
_cell_angle_gamma   93.82218323
_symmetry_Int_Tables_number   1
_chemical_formula_structural   Rb6Mg(FeO3)2
_chemical_formula_sum   'Rb6 Mg1 Fe2 O6'
_cell_volume   311.73359632
_cell_formula_units_Z   1
loop_
 _symmetry_equiv_pos_site_id
 _symmetry_equiv_pos_as_xyz
  1  'x, y, z'
loop_
 _atom_site_type_symbol
 _atom_site_label
 _atom_site_symmetry_multiplicity
 _atom_site_fract_x
 _atom_site_fract_y
 _atom_site_fract_z
 _atom_site_occupancy
  Rb  Rb0  1  0.95465800  0.25792400  0.78492400  1
  Rb  Rb1  1  0.95465800  0.78492400  0.25792400  1
  Rb  Rb2  1  0.45912700  0.27380200  0.82293700  1
  Rb  Rb3  1  0.45912700  0.82293700  0.27380200  1
  Rb  Rb4  1  0.28305400  0.55711500  0.55711400  1
  Rb  Rb5  1  0.70866500  0.37214600  0.37214700  1
  Mg  Mg0  1  0.58042300  0.87324400  0.87324400  1
  Fe  Fe0  1  0.95329100  0.82353800  0.82353800  1
  Fe  Fe1  1  0.15764100  0.17109400  0.17109400  1
  O  O0  1  0.22904800  0.42613100  0.15414000  1
  O  O1  1  0.72019800  0.61990400  0.85149300  1
  O  O2  1  0.26601800  0.90522800  0.90522800  1
  O  O3  1  0.22904800  0.15414000  0.42613100  1
  O  O4  1  0.72019800  0.85149300  0.61990400  1
  O  O5  1  0.82485000  0.06008600  0.06008600  1
loop_
_geom_bond_atom_site_label_1
_geom_bond_atom_site_label_2
_geom_bond_distance
_geom_bond_site_symmetry_2
Mg0 O5 2.012186 1_566
Mg0 O2 2.056592 1_555
Mg0 O1 2.072509 1_555
Mg0 O4 2.072510 1_555
Fe0 O2 2.022989 1_655
Fe0 O1 2.125720 1_555
Fe0 O4 2.125721 1_555
Fe0 O5 2.133426 1_566
Fe1 O0 1.961400 1_555
Fe1 O3 1.961400 1_555
Fe1 O5 2.198087 1_455
Fe1 O2 2.293011 1_544
O0 Rb4 2.692839 1_555
O0 Rb2 2.783968 1_554
O0 Rb0 2.867738 1_454
O0 Rb3 2.924513 1_555
O0 Rb1 3.119266 1_455
O1 Rb2 2.874348 1_555
O1 Rb1 2.959510 1_556
O1 Rb0 3.019868 1_555
O1 Rb5 3.206830 1_555
O1 Rb4 3.300684 1_555
O1 Rb3 3.431768 1_556
O2 Rb4 2.767192 1_555
O2 Rb2 3.211835 1_565
O2 Rb3 3.211836 1_556
O3 Rb4 2.692846 1_555
O3 Rb3 2.783967 1_545
O3 Rb1 2.867738 1_445
O3 Rb2 2.924514 1_555
O3 Rb0 3.119266 1_455
O4 Rb3 2.874348 1_555
O4 Rb0 2.959509 1_565
O4 Rb1 3.019869 1_555
O4 Rb5 3.206834 1_555
O4 Rb4 3.300679 1_555
O4 Rb2 3.431767 1_565
O5 Rb5 2.662881 1_555
O5 Rb1 3.081338 1_545
O5 Rb0 3.081339 1_554
