# generated using pymatgen
data_K2O2
_symmetry_space_group_name_H-M   'P 1'
_cell_length_a   4.82932164
_cell_length_b   4.82932227
_cell_length_c   6.45041428
_cell_angle_alpha   90.00000000
_cell_angle_beta   90.00000000
_cell_angle_gamma   92.31366155
_symmetry_Int_Tables_number   1
_chemical_formula_structural   K2O2
_chemical_formula_sum   'K4 O4'
_cell_volume   150.31618493
_cell_formula_units_Z   2
loop_
 _symmetry_equiv_pos_site_id
 _symmetry_equiv_pos_as_xyz
  1  'x, y, z'
loop_
 _atom_site_type_symbol
 _atom_site_label
 _atom_site_symmetry_multiplicity
 _atom_site_fract_x
 _atom_site_fract_y
 _atom_site_fract_z
 _atom_site_occupancy
  K  K0  1  0.90919476  0.59080524  0.75000000  1
  K  K1  1  0.59080524  0.90919476  0.25000000  1
  K  K2  1  0.09080524  0.40919476  0.25000000  1
  K  K3  1  0.40919476  0.09080524  0.75000000  1
  O  O0  1  0.58793539  0.41206461  0.43077975  1
  O  O1  1  0.91206461  0.08793539  0.93077975  1
  O  O2  1  0.41206461  0.58793539  0.56922025  1
  O  O3  1  0.08793539  0.91206461  0.06922025  1
loop_
_geom_bond_atom_site_label_1
_geom_bond_atom_site_label_2
_geom_bond_distance
_geom_bond_site_symmetry_2
K0 O2 2.668549 1_555
K0 O1 2.668549 1_565
K0 O2 2.694517 1_655
K0 O1 2.694517 1_555
K0 O0 2.698875 1_555
K0 O3 2.698875 1_656
K1 O3 2.668549 1_655
K1 O0 2.668549 1_555
K1 O3 2.694517 1_555
K1 O0 2.694517 1_565
K1 O1 2.698875 1_564
K1 O2 2.698875 1_555
K2 O0 2.668549 1_555
K2 O3 2.668549 1_545
K2 O0 2.694517 1_455
K2 O3 2.694517 1_555
K2 O2 2.698875 1_555
K2 O1 2.698875 1_454
K3 O1 2.668549 1_455
K3 O2 2.668549 1_555
K3 O1 2.694517 1_555
K3 O2 2.694517 1_545
K3 O3 2.698875 1_546
K3 O0 2.698875 1_555
O0 O2 1.516059 1_555
O1 O3 1.516059 1_646
