# generated using pymatgen
data_Na8Mg(FeO4)2
_symmetry_space_group_name_H-M   'P 1'
_cell_length_a   5.83885528
_cell_length_b   5.79922839
_cell_length_c   8.96998400
_cell_angle_alpha   72.39564744
_cell_angle_beta   88.43998651
_cell_angle_gamma   71.12064337
_symmetry_Int_Tables_number   1
_chemical_formula_structural   Na8Mg(FeO4)2
_chemical_formula_sum   'Na8 Mg1 Fe2 O8'
_cell_volume   273.09047824
_cell_formula_units_Z   1
loop_
 _symmetry_equiv_pos_site_id
 _symmetry_equiv_pos_as_xyz
  1  'x, y, z'
loop_
 _atom_site_type_symbol
 _atom_site_label
 _atom_site_symmetry_multiplicity
 _atom_site_fract_x
 _atom_site_fract_y
 _atom_site_fract_z
 _atom_site_occupancy
  Na  Na0  1  0.20136482  0.56744754  0.41953189  1
  Na  Na1  1  0.71941463  0.49252049  0.58419142  1
  Na  Na2  1  0.84585027  0.39474258  0.94541936  1
  Na  Na3  1  0.25527673  0.73310490  0.99463745  1
  Na  Na4  1  0.71264692  0.03608618  0.44814297  1
  Na  Na5  1  0.21730571  0.98120218  0.60548173  1
  Na  Na6  1  0.19703485  0.20648461  0.22701242  1
  Na  Na7  1  0.69675013  0.87699430  0.78959397  1
  Mg  Mg0  1  0.56832509  0.03792777  0.09562339  1
  Fe  Fe0  1  0.29473969  0.41352740  0.75698818  1
  Fe  Fe1  1  0.71340660  0.53264557  0.24249270  1
  O  O0  1  0.83560216  0.74134521  0.06338040  1
  O  O1  1  0.26251554  0.17023346  0.95726087  1
  O  O2  1  0.95432498  0.31712298  0.40290527  1
  O  O3  1  0.99961473  0.67372272  0.64847959  1
  O  O4  1  0.48679660  0.60246296  0.79151727  1
  O  O5  1  0.58378985  0.31703103  0.17218601  1
  O  O6  1  0.48451925  0.80377802  0.30194778  1
  O  O7  1  0.46030446  0.23703712  0.61570734  1
loop_
_geom_bond_atom_site_label_1
_geom_bond_atom_site_label_2
_geom_bond_distance
_geom_bond_site_symmetry_2
Na0 O7 2.298789 1_555
Na0 O2 2.389149 1_455
Na0 O3 2.479728 1_455
Na0 O6 2.494246 1_555
Na1 O2 2.352965 1_555
Na1 O3 2.375701 1_555
Na1 O4 2.393548 1_555
Na1 O7 2.395399 1_555
Na1 O6 2.715062 1_555
Na2 O4 2.295510 1_555
Na2 O1 2.346430 1_655
Na2 O0 2.523606 1_556
Na2 O5 2.530661 1_556
Na3 O4 2.399810 1_555
Na3 O1 2.468791 1_565
Na3 O0 2.499367 1_456
Na3 O5 2.623822 1_556
Na4 O7 2.369780 1_555
Na4 O2 2.422664 1_555
Na4 O3 2.460452 1_545
Na4 O5 2.493283 1_555
Na4 O6 2.762960 1_545
Na5 O2 2.351502 1_465
Na5 O7 2.382099 1_565
Na5 O4 2.402942 1_555
Na5 O3 2.442957 1_455
Na6 O2 2.193502 1_455
Na6 O6 2.301836 1_545
Na6 O1 2.500094 1_554
Na6 O5 2.537332 1_555
Na7 O7 2.231652 1_565
Na7 O4 2.298493 1_555
Na7 O3 2.355985 1_555
Na7 O0 2.415462 1_556
Mg0 O5 1.967220 1_555
Mg0 O1 1.993836 1_554
Mg0 O0 2.004144 1_545
Mg0 O6 2.090231 1_545
Fe0 O4 1.890318 1_555
Fe0 O7 1.914595 1_555
Fe0 O3 1.927135 1_455
Fe0 O1 1.968128 1_555
Fe1 O2 1.869738 1_555
Fe1 O5 1.910333 1_555
Fe1 O6 1.910844 1_555
Fe1 O0 1.968595 1_555
