# generated using pymatgen
data_LiVP2O7
_symmetry_space_group_name_H-M   'P 1'
_cell_length_a   6.47321892
_cell_length_b   6.47917985
_cell_length_c   12.39873903
_cell_angle_alpha   75.84034137
_cell_angle_beta   75.85312868
_cell_angle_gamma   79.61991250
_symmetry_Int_Tables_number   1
_chemical_formula_structural   LiVP2O7
_chemical_formula_sum   'Li4 V4 P8 O28'
_cell_volume   484.90174717
_cell_formula_units_Z   4
loop_
 _symmetry_equiv_pos_site_id
 _symmetry_equiv_pos_as_xyz
  1  'x, y, z'
loop_
 _atom_site_type_symbol
 _atom_site_label
 _atom_site_symmetry_multiplicity
 _atom_site_fract_x
 _atom_site_fract_y
 _atom_site_fract_z
 _atom_site_occupancy
  Li  Li0  1  0.25031500  0.74917400  0.00053900  1
  Li  Li1  1  0.50053200  0.99982700  0.24971300  1
  Li  Li2  1  0.74996100  0.25012200  0.49978300  1
  Li  Li3  1  0.00003100  0.49976700  0.75034000  1
  V  V0  1  0.62458100  0.87460700  0.74988200  1
  V  V1  1  0.87430900  0.12457600  0.99943700  1
  V  V2  1  0.12524300  0.37570600  0.25028200  1
  V  V3  1  0.37482300  0.62525300  0.49989100  1
  P  P0  1  0.74660400  0.66641200  0.99907700  1
  P  P1  1  0.99564200  0.91719700  0.24885100  1
  P  P2  1  0.24652500  0.16687000  0.49906300  1
  P  P3  1  0.49679700  0.41654900  0.74900200  1
  P  P4  1  0.58342600  0.50345200  0.25082500  1
  P  P5  1  0.83307300  0.75350600  0.50090100  1
  P  P6  1  0.08309500  0.00387500  0.75076700  1
  P  P7  1  0.33287200  0.25458400  0.00096800  1
  O  O0  1  0.59640200  0.65353700  0.12500600  1
  O  O1  1  0.84665300  0.90332900  0.37505200  1
  O  O2  1  0.09660300  0.15334300  0.62493300  1
  O  O3  1  0.34654200  0.40336000  0.87486900  1
  O  O4  1  0.91915400  0.80593100  0.99347000  1
  O  O5  1  0.16772900  0.05776500  0.24266300  1
  O  O6  1  0.41880500  0.30687600  0.49307200  1
  O  O7  1  0.66922000  0.55626300  0.74327600  1
  O  O8  1  0.44373600  0.33096100  0.25661600  1
  O  O9  1  0.69299000  0.58127500  0.50691300  1
  O  O10  1  0.94278600  0.83170700  0.75713200  1
  O  O11  1  0.19212300  0.08254800  0.00744700  1
  O  O12  1  0.58060000  0.76900600  0.92433600  1
  O  O13  1  0.82937000  0.01812000  0.17428000  1
  O  O14  1  0.08040000  0.26865500  0.42434200  1
  O  O15  1  0.33096800  0.51881500  0.67415900  1
  O  O16  1  0.48102600  0.66905400  0.32579700  1
  O  O17  1  0.73127700  0.91916800  0.57580500  1
  O  O18  1  0.98181800  0.16975400  0.82550700  1
  O  O19  1  0.23222900  0.42039500  0.07572600  1
  O  O20  1  0.85123200  0.44543100  0.98065500  1
  O  O21  1  0.10102600  0.69586900  0.23033100  1
  O  O22  1  0.35122500  0.94582300  0.48035700  1
  O  O23  1  0.60145600  0.19553000  0.73051900  1
  O  O24  1  0.80456400  0.39878900  0.26943100  1
  O  O25  1  0.05423900  0.64864100  0.51968000  1
  O  O26  1  0.30427500  0.89892500  0.76968300  1
  O  O27  1  0.55431600  0.14905800  0.01962300  1
loop_
_geom_bond_atom_site_label_1
_geom_bond_atom_site_label_2
_geom_bond_distance
_geom_bond_site_symmetry_2
Li0 O19 2.117906 1_555
Li0 O4 2.128443 1_454
Li0 O12 2.128954 1_554
Li0 O11 2.143905 1_565
Li1 O13 2.117406 1_565
Li1 O8 2.129737 1_565
Li1 O16 2.132850 1_555
Li1 O5 2.138731 1_565
Li2 O14 2.127035 1_655
Li2 O6 2.127328 1_555
Li2 O9 2.130527 1_555
Li2 O17 2.133077 1_545
Li3 O18 2.125232 1_455
Li3 O7 2.126225 1_455
Li3 O15 2.132063 1_555
Li3 O10 2.134498 1_455
O0 P4 1.615382 1_555
O0 P0 1.616660 1_554
O1 P5 1.614754 1_555
O1 P1 1.615976 1_555
O2 P6 1.613779 1_555
O2 P2 1.615074 1_555
O3 P7 1.614689 1_556
O3 P3 1.616015 1_555
O4 P0 1.537765 1_555
O4 V1 2.049489 1_565
O5 P1 1.538153 1_445
O5 V2 2.050975 1_555
O6 P2 1.537258 1_555
O6 V3 2.050699 1_555
O7 P3 1.537578 1_555
O7 V0 2.049602 1_555
O8 P4 1.537860 1_555
O8 V2 2.047765 1_555
O9 P5 1.537528 1_555
O9 V3 2.048076 1_555
O10 P6 1.537041 1_665
O10 V0 2.049421 1_555
O11 P7 1.537979 1_555
O11 V1 2.049678 1_454
O12 P0 1.543805 1_555
O12 V0 2.067104 1_555
O13 P1 1.542054 1_545
O13 V1 2.071802 1_554
O14 P2 1.543419 1_555
O14 V2 2.063209 1_555
O15 P3 1.543445 1_555
O15 V3 2.065553 1_555
O16 P4 1.544409 1_555
O16 V3 2.063421 1_555
O17 P5 1.543535 1_555
O17 V0 2.063273 1_555
O18 P6 1.542739 1_655
O18 V1 2.061919 1_555
O19 P7 1.541929 1_555
O19 V2 2.068946 1_555
O20 P0 1.515190 1_555
O20 V1 2.016561 1_555
O21 P1 1.518726 1_455
O21 V2 2.009874 1_555
O22 P2 1.516651 1_565
O22 V3 2.013377 1_555
O23 P3 1.515667 1_555
O23 V0 2.016130 1_545
O24 P4 1.515677 1_555
O24 V2 2.013051 1_655
O25 P5 1.516743 1_455
O25 V3 2.011378 1_555
O26 P6 1.517424 1_565
O26 V0 2.009106 1_555
O27 P7 1.518976 1_555
O27 V1 2.006500 1_554
