# generated using pymatgen
data_UMnO4
_symmetry_space_group_name_H-M   'P 1'
_cell_length_a   3.50528900
_cell_length_b   4.82302646
_cell_length_c   4.82302646
_cell_angle_alpha   91.02607747
_cell_angle_beta   90.00000000
_cell_angle_gamma   90.00000000
_symmetry_Int_Tables_number   1
_chemical_formula_structural   UMnO4
_chemical_formula_sum   'U1 Mn1 O4'
_cell_volume   81.52550062
_cell_formula_units_Z   1
loop_
 _symmetry_equiv_pos_site_id
 _symmetry_equiv_pos_as_xyz
  1  'x, y, z'
loop_
 _atom_site_type_symbol
 _atom_site_label
 _atom_site_symmetry_multiplicity
 _atom_site_fract_x
 _atom_site_fract_y
 _atom_site_fract_z
 _atom_site_occupancy
  U  U0  1  0.50000000  0.00000000  0.00000000  1
  Mn  Mn0  1  0.00000000  0.50000000  0.50000000  1
  O  O0  1  0.00000100  0.18675000  0.81324900  1
  O  O1  1  0.00000000  0.81325000  0.18675100  1
  O  O2  1  0.50000100  0.70723400  0.70723500  1
  O  O3  1  0.50000000  0.29276600  0.29276500  1
loop_
_geom_bond_atom_site_label_1
_geom_bond_atom_site_label_2
_geom_bond_distance
_geom_bond_site_symmetry_2
Mn0 O1 2.155655 1_555
Mn0 O0 2.155655 1_555
Mn0 O2 2.243649 1_455
Mn0 O3 2.243652 1_455
Mn0 O3 2.243652 1_555
Mn0 O2 2.243655 1_555
O0 U0 2.173324 1_556
O0 U0 2.173329 1_456
O1 U0 2.173327 1_465
O1 U0 2.173327 1_565
O2 U0 1.978931 1_566
O3 U0 1.978931 1_555
