# generated using pymatgen
data_NaFeS2
_symmetry_space_group_name_H-M   'P 1'
_cell_length_a   7.09010420
_cell_length_b   7.09010420
_cell_length_c   7.09010420
_cell_angle_alpha   134.72376404
_cell_angle_beta   122.31312668
_cell_angle_gamma   76.21758190
_symmetry_Int_Tables_number   1
_chemical_formula_structural   NaFeS2
_chemical_formula_sum   'Na2 Fe2 S4'
_cell_volume   208.29862825
_cell_formula_units_Z   2
loop_
 _symmetry_equiv_pos_site_id
 _symmetry_equiv_pos_as_xyz
  1  'x, y, z'
loop_
 _atom_site_type_symbol
 _atom_site_label
 _atom_site_symmetry_multiplicity
 _atom_site_fract_x
 _atom_site_fract_y
 _atom_site_fract_z
 _atom_site_occupancy
  Na  Na0  1  0.29943900  0.29943900  0.00000000  1
  Na  Na1  1  0.70056100  0.70056100  0.00000000  1
  Fe  Fe0  1  0.00000000  0.00000000  0.00000000  1
  Fe  Fe1  1  0.00000000  0.50000000  0.50000000  1
  S  S0  1  0.28391200  0.84850100  0.92210600  1
  S  S1  1  0.92639500  0.36180700  0.07789400  1
  S  S2  1  0.71608800  0.63819300  0.56458800  1
  S  S3  1  0.07360500  0.15149900  0.43541200  1
loop_
_geom_bond_atom_site_label_1
_geom_bond_atom_site_label_2
_geom_bond_distance
_geom_bond_site_symmetry_2
Na0 S3 2.779660 1_554
Na0 S2 2.779664 1_555
Na0 S1 2.856017 1_455
Na0 S0 2.856019 1_544
Na1 S1 2.779660 1_555
Na1 S0 2.779666 1_554
Na1 S3 2.856017 1_665
Na1 S2 2.856022 1_554
Fe0 S0 2.198687 1_544
Fe0 S2 2.198691 1_444
Fe0 S1 2.198694 1_455
Fe0 S3 2.198694 1_555
Fe1 S2 2.153144 1_455
Fe1 S0 2.153147 1_555
Fe1 S1 2.153150 1_455
Fe1 S3 2.153150 1_555
