# generated using pymatgen
data_Na10Y7NbSi6(SO8)6
_symmetry_space_group_name_H-M   'P 1'
_cell_length_a   18.60524843
_cell_length_b   9.33394637
_cell_length_c   23.60357740
_cell_angle_alpha   90.04352785
_cell_angle_beta   89.86895420
_cell_angle_gamma   119.98667967
_symmetry_Int_Tables_number   1
_chemical_formula_structural   Na10Y7NbSi6(SO8)6
_chemical_formula_sum   'Na30 Y21 Nb3 Si18 S18 O144'
_cell_volume   3550.31049090
_cell_formula_units_Z   3
loop_
 _symmetry_equiv_pos_site_id
 _symmetry_equiv_pos_as_xyz
  1  'x, y, z'
loop_
 _atom_site_type_symbol
 _atom_site_label
 _atom_site_symmetry_multiplicity
 _atom_site_fract_x
 _atom_site_fract_y
 _atom_site_fract_z
 _atom_site_occupancy
  Na  Na0  1  0.32236846  0.01049092  0.24738220  1
  Na  Na1  1  0.82554401  0.00293212  0.25032514  1
  Na  Na2  1  0.18555723  0.35792282  0.24872239  1
  Na  Na3  1  0.68695457  0.37950215  0.23424134  1
  Na  Na4  1  0.99455784  0.62871641  0.24187471  1
  Na  Na5  1  0.49291326  0.61746984  0.25027128  1
  Na  Na6  1  0.30962284  0.61907026  0.74891173  1
  Na  Na7  1  0.80923635  0.62260230  0.74752597  1
  Na  Na8  1  0.99473271  0.34419502  0.74485540  1
  Na  Na9  1  0.69040896  0.01922318  0.75631621  1
  Na  Na10  1  0.16515226  0.34550155  0.58350923  1
  Na  Na11  1  0.00982047  0.69332662  0.58692773  1
  Na  Na12  1  0.32843129  0.96192574  0.58753705  1
  Na  Na13  1  0.83468106  0.97280553  0.58161553  1
  Na  Na14  1  0.82993460  0.67434096  0.07370681  1
  Na  Na15  1  0.17098271  0.31130832  0.90696285  1
  Na  Na16  1  0.67317404  0.31686341  0.91598697  1
  Na  Na17  1  0.35713873  0.66604568  0.41775852  1
  Na  Na18  1  0.99985847  0.99406449  0.49803789  1
  Na  Na19  1  0.50659937  0.96679437  0.49902377  1
  Na  Na20  1  0.98619049  0.96188311  0.99830951  1
  Na  Na21  1  0.48754955  0.95484278  0.00084249  1
  Na  Na22  1  0.32834157  0.33146993  0.83654965  1
  Na  Na23  1  0.82739709  0.33684068  0.83760873  1
  Na  Na24  1  0.34824042  0.34355926  0.33213741  1
  Na  Na25  1  0.84269981  0.34913539  0.32961233  1
  Na  Na26  1  0.15426986  0.66184790  0.16379671  1
  Na  Na27  1  0.64795208  0.63126767  0.15781789  1
  Na  Na28  1  0.16499508  0.66258467  0.66091862  1
  Na  Na29  1  0.66889390  0.62543423  0.66955040  1
  Y  Y0  1  0.99895163  0.99834715  0.34901240  1
  Y  Y1  1  0.50126485  0.99625339  0.35181079  1
  Y  Y2  1  0.99337890  0.99479733  0.85199638  1
  Y  Y3  1  0.49755496  0.99592253  0.85336565  1
  Y  Y4  1  0.50489121  0.00545374  0.64861928  1
  Y  Y5  1  0.32693048  0.32983392  0.68184532  1
  Y  Y6  1  0.82955113  0.33888945  0.68134698  1
  Y  Y7  1  0.33833900  0.34292223  0.18176750  1
  Y  Y8  1  0.83940882  0.34685549  0.17749885  1
  Y  Y9  1  0.34238491  0.36229338  0.98682193  1
  Y  Y10  1  0.83431654  0.35006918  0.98917986  1
  Y  Y11  1  0.33299283  0.34102651  0.48422376  1
  Y  Y12  1  0.83962793  0.34859929  0.48652743  1
  Y  Y13  1  0.16909425  0.67229312  0.01876725  1
  Y  Y14  1  0.66476870  0.66406501  0.01980922  1
  Y  Y15  1  0.16407896  0.66383992  0.51903048  1
  Y  Y16  1  0.66145719  0.65997373  0.51449255  1
  Y  Y17  1  0.16457999  0.66448670  0.30856071  1
  Y  Y18  1  0.66040061  0.65560919  0.31604439  1
  Y  Y19  1  0.16813543  0.66467625  0.81682538  1
  Y  Y20  1  0.67281982  0.66368746  0.81539643  1
  Nb  Nb0  1  0.00144372  0.01428592  0.64753173  1
  Nb  Nb1  1  0.99942445  0.98947024  0.15366701  1
  Nb  Nb2  1  0.49696739  0.00379142  0.14582311  1
  Si  Si0  1  0.14693724  0.00175468  0.25040914  1
  Si  Si1  1  0.35466828  0.71153546  0.24987120  1
  Si  Si2  1  0.85086794  0.70155944  0.25085828  1
  Si  Si3  1  0.99670178  0.28574002  0.24795730  1
  Si  Si4  1  0.50065429  0.28995556  0.24944284  1
  Si  Si5  1  0.14672803  0.29637202  0.75295655  1
  Si  Si6  1  0.65007755  0.29649379  0.75362256  1
  Si  Si7  1  0.85188944  0.00156318  0.74664416  1
  Si  Si8  1  0.98055660  0.32982388  0.58735045  1
  Si  Si9  1  0.18228945  0.03575280  0.58405373  1
  Si  Si10  1  0.33588219  0.64450182  0.58283685  1
  Si  Si11  1  0.83486067  0.64432497  0.58823435  1
  Si  Si12  1  0.48848629  0.64814952  0.08954029  1
  Si  Si13  1  0.98924591  0.65253998  0.08859023  1
  Si  Si14  1  0.67883527  0.32861671  0.08592595  1
  Si  Si15  1  0.31621212  0.66211690  0.91450381  1
  Si  Si16  1  0.81912037  0.66401864  0.91900531  1
  Si  Si17  1  0.51260636  0.66350335  0.41400390  1
  S  S0  1  0.64559530  -0.00005335  0.24656559  1
  S  S1  1  0.00166100  0.70973510  0.74639330  1
  S  S2  1  0.49952845  0.70279177  0.74962335  1
  S  S3  1  0.35119170  0.00020272  0.74908467  1
  S  S4  1  0.48161105  0.33249753  0.58471421  1
  S  S5  1  0.68453200  0.03465588  0.58186204  1
  S  S6  1  0.33664790  0.03464191  0.08540073  1
  S  S7  1  0.83972991  0.03357539  0.08601881  1
  S  S8  1  0.17693291  0.32154717  0.08468939  1
  S  S9  1  0.01751489  0.37018149  0.91674065  1
  S  S10  1  0.51707294  0.36970960  0.91619329  1
  S  S11  1  0.16852495  0.96935409  0.91743534  1
  S  S12  1  0.66793031  0.96938024  0.91454411  1
  S  S13  1  0.31394262  0.96245925  0.41596827  1
  S  S14  1  0.81637135  0.97000498  0.41722933  1
  S  S15  1  0.16573686  0.36692954  0.41603457  1
  S  S16  1  0.67066240  0.36704737  0.41583592  1
  S  S17  1  0.01583356  0.66609644  0.41646342  1
  O  O0  1  0.10824144  0.04080614  0.30513354  1
  O  O1  1  0.61077855  0.02860516  0.29878714  1
  O  O2  1  0.40767058  0.78221943  0.30791601  1
  O  O3  1  0.91231510  0.78438482  0.30378941  1
  O  O4  1  0.49029358  0.18146533  0.30508672  1
  O  O5  1  0.98068508  0.17353323  0.30367384  1
  O  O6  1  0.10665199  0.19993293  0.81144557  1
  O  O7  1  0.60699107  0.18945196  0.81123251  1
  O  O8  1  0.48445538  0.78133150  0.79948653  1
  O  O9  1  0.99351318  0.79336181  0.79688554  1
  O  O10  1  0.40173201  0.01053674  0.79860983  1
  O  O11  1  0.91037128  0.02551165  0.80019247  1
  O  O12  1  0.38894336  0.97861174  0.69625385  1
  O  O13  1  0.90501010  0.98524507  0.69040938  1
  O  O14  1  0.08543028  0.18221703  0.69759849  1
  O  O15  1  0.59655161  0.19462540  0.69816084  1
  O  O16  1  0.00910824  0.80510303  0.69385080  1
  O  O17  1  0.50769759  0.80042119  0.69807724  1
  O  O18  1  0.40990734  0.84027484  0.19676881  1
  O  O19  1  0.90466208  0.82219560  0.19324630  1
  O  O20  1  0.00581897  0.18143843  0.19226101  1
  O  O21  1  0.50833276  0.18587440  0.19388523  1
  O  O22  1  0.08318390  0.97913769  0.19469765  1
  O  O23  1  0.59215031  0.97954928  0.19707278  1
  O  O24  1  0.44354452  0.35438165  0.63637256  1
  O  O25  1  0.94558413  0.36864441  0.64467110  1
  O  O26  1  0.24713513  0.11080068  0.63649674  1
  O  O27  1  0.73175276  0.10899019  0.63494458  1
  O  O28  1  0.32330253  0.53020465  0.63927350  1
  O  O29  1  0.81928573  0.54354822  0.64728257  1
  O  O30  1  0.44959840  0.54173607  0.14709364  1
  O  O31  1  0.95172941  0.55537024  0.14832533  1
  O  O32  1  0.32689822  0.10739819  0.13828261  1
  O  O33  1  0.82957208  0.10632967  0.13923129  1
  O  O34  1  0.22774694  0.34285022  0.13568593  1
  O  O35  1  0.73430557  0.35043152  0.14202501  1
  O  O36  1  0.21776437  0.29979936  0.03345630  1
  O  O37  1  0.71868572  0.29547794  0.02909373  1
  O  O38  1  0.42807065  0.56223262  0.03455070  1
  O  O39  1  0.92064109  0.55961017  0.03827396  1
  O  O40  1  0.34556321  0.13849639  0.03598394  1
  O  O41  1  0.84923358  0.13911574  0.03682482  1
  O  O42  1  0.21803923  0.15989393  0.53012611  1
  O  O43  1  0.72723305  0.14227248  0.53305008  1
  O  O44  1  0.34343739  0.55409362  0.52561084  1
  O  O45  1  0.85756055  0.55592111  0.53630051  1
  O  O46  1  0.42911171  0.30960171  0.53456722  1
  O  O47  1  0.91497834  0.27790048  0.53546819  1
  O  O48  1  0.26208911  0.67130402  0.96710608  1
  O  O49  1  0.77057013  0.67299356  0.97565023  1
  O  O50  1  0.07020149  0.46538271  0.96492380  1
  O  O51  1  0.56717170  0.45368988  0.96665891  1
  O  O52  1  0.15847099  0.86819087  0.96789582  1
  O  O53  1  0.65923506  0.86282543  0.96278624  1
  O  O54  1  0.27143603  0.86193792  0.46721299  1
  O  O55  1  0.77234921  0.87216261  0.46851247  1
  O  O56  1  0.16108426  0.45312737  0.46756388  1
  O  O57  1  0.66489365  0.45713740  0.46563729  1
  O  O58  1  0.06174847  0.67109451  0.46824322  1
  O  O59  1  0.56993265  0.67099643  0.46756741  1
  O  O60  1  0.05967892  0.65833991  0.36507236  1
  O  O61  1  0.55648742  0.65882845  0.35348058  1
  O  O62  1  0.26494614  0.87738454  0.36458218  1
  O  O63  1  0.76981499  0.88295247  0.36509289  1
  O  O64  1  0.17109694  0.46547311  0.36479227  1
  O  O65  1  0.67937702  0.46210373  0.36301985  1
  O  O66  1  0.05352566  0.46393882  0.86270967  1
  O  O67  1  0.55503663  0.46982668  0.86473380  1
  O  O68  1  0.17321475  0.88428842  0.86541851  1
  O  O69  1  0.67003597  0.89108375  0.85981695  1
  O  O70  1  0.26410021  0.64049297  0.85424733  1
  O  O71  1  0.76459763  0.64762213  0.86136921  1
  O  O72  1  0.00762446  0.81602147  0.41730250  1
  O  O73  1  0.50059128  0.82738713  0.41850126  1
  O  O74  1  0.39593905  0.97091855  0.41410523  1
  O  O75  1  0.90034816  0.98671670  0.41789936  1
  O  O76  1  0.09174255  0.20031162  0.41572641  1
  O  O77  1  0.59501845  0.20215562  0.41467660  1
  O  O78  1  0.01969025  0.21203192  0.91521610  1
  O  O79  1  0.51556109  0.20826040  0.91259322  1
  O  O80  1  0.09603663  0.99657478  0.91496446  1
  O  O81  1  0.59469654  0.99604653  0.91534654  1
  O  O82  1  0.40954371  0.82312266  0.91416834  1
  O  O83  1  0.91257143  0.82531315  0.91665823  1
  O  O84  1  0.48639418  0.17812407  0.58858177  1
  O  O85  1  0.99425464  0.16495482  0.59480831  1
  O  O86  1  0.09021716  0.01916031  0.59874959  1
  O  O87  1  0.59961089  0.01016055  0.58467811  1
  O  O88  1  0.41277701  0.83564030  0.58605838  1
  O  O89  1  0.92432208  0.82797370  0.59558893  1
  O  O90  1  0.49188752  0.83147273  0.09760306  1
  O  O91  1  0.99204364  0.83752213  0.09270941  1
  O  O92  1  0.41437302  0.02127183  0.08839971  1
  O  O93  1  0.91550084  0.01502557  0.08888285  1
  O  O94  1  0.09375425  0.17120978  0.09014716  1
  O  O95  1  0.58485275  0.16448520  0.09757588  1
  O  O96  1  0.34353988  0.14973456  0.74760931  1
  O  O97  1  0.84322725  0.16586474  0.74100184  1
  O  O98  1  0.24211263  0.33389175  0.74587616  1
  O  O99  1  0.74413879  0.31672022  0.75147496  1
  O  O100  1  0.42637187  0.53373224  0.74549612  1
  O  O101  1  0.92536296  0.54302562  0.74483896  1
  O  O102  1  0.33708354  0.52246583  0.24231744  1
  O  O103  1  0.83400156  0.51265784  0.24471251  1
  O  O104  1  0.41791228  0.30807207  0.24384178  1
  O  O105  1  0.91462343  0.30611701  0.24277263  1
  O  O106  1  0.23874095  0.15654565  0.23934149  1
  O  O107  1  0.73083693  0.14359773  0.24050060  1
  O  O108  1  0.31724900  0.48465449  0.91841235  1
  O  O109  1  0.82002305  0.48649109  0.91962675  1
  O  O110  1  0.43107210  0.33906027  0.92154143  1
  O  O111  1  0.93222010  0.33870887  0.92220702  1
  O  O112  1  0.24518552  0.13483669  0.92091196  1
  O  O113  1  0.74456113  0.13404866  0.91797293  1
  O  O114  1  0.32314883  0.12820963  0.41957909  1
  O  O115  1  0.82281423  0.13527819  0.41871010  1
  O  O116  1  0.24388674  0.35989077  0.41666128  1
  O  O117  1  0.74534439  0.34842421  0.42003735  1
  O  O118  1  0.41795778  0.49929516  0.41619055  1
  O  O119  1  0.93238214  0.51297174  0.41679499  1
  O  O120  1  0.16768036  0.47040107  0.07955867  1
  O  O121  1  0.67453938  0.49917738  0.08154935  1
  O  O122  1  0.08153495  0.68044449  0.07959575  1
  O  O123  1  0.58237318  0.68467460  0.08110575  1
  O  O124  1  0.26500823  0.86543574  0.08036847  1
  O  O125  1  0.76716406  0.86434588  0.08060474  1
  O  O126  1  0.16087400  0.84455967  0.57545032  1
  O  O127  1  0.68084248  0.87269966  0.57656519  1
  O  O128  1  0.24982189  0.65775533  0.58080624  1
  O  O129  1  0.76090367  0.68621421  0.57713934  1
  O  O130  1  0.07320164  0.48280383  0.57618789  1
  O  O131  1  0.56660689  0.47671246  0.57932851  1
  O  O132  1  0.14551045  0.82536121  0.25147161  1
  O  O133  1  0.65156278  0.84663660  0.25077004  1
  O  O134  1  0.26589956  0.71012930  0.25101867  1
  O  O135  1  0.76470821  0.70760632  0.25225718  1
  O  O136  1  0.08297273  0.46560549  0.24971524  1
  O  O137  1  0.58624743  0.47250911  0.24951928  1
  O  O138  1  0.14662638  0.47511006  0.74875846  1
  O  O139  1  0.66191163  0.48316679  0.75297250  1
  O  O140  1  0.07503223  0.68712153  0.74956826  1
  O  O141  1  0.57774586  0.69966397  0.75542742  1
  O  O142  1  0.26752903  0.84680457  0.75279705  1
  O  O143  1  0.76025255  0.83506713  0.74794767  1
loop_
_geom_bond_atom_site_label_1
_geom_bond_atom_site_label_2
_geom_bond_distance
_geom_bond_site_symmetry_2
Na0 O104 2.438472 1_555
Na0 O134 2.454950 1_545
Na0 O106 2.537200 1_555
Na0 O32 2.717162 1_555
Na0 O132 2.852671 1_545
Na0 O62 3.000416 1_545
Na0 O18 3.029664 1_545
Na0 O4 3.032380 1_555
Na1 O135 2.400616 1_545
Na1 O105 2.469440 1_555
Na1 O107 2.682793 1_555
Na1 O33 2.782749 1_555
Na1 O5 2.805701 1_555
Na1 O133 2.808169 1_545
Na1 O63 2.915232 1_545
Na2 O102 2.449447 1_555
Na2 O106 2.533517 1_555
Na2 O136 2.563380 1_555
Na2 O34 2.802632 1_555
Na2 O134 2.851811 1_555
Na2 O0 2.888693 1_555
Na2 O64 2.974611 1_555
Na3 O103 2.386286 1_555
Na3 O35 2.411798 1_555
Na3 O137 2.452901 1_555
Na3 O135 2.687902 1_555
Na3 O107 2.708305 1_555
Na4 O31 2.332336 1_555
Na4 O132 2.481414 1_655
Na4 O105 2.608199 1_555
Na4 O103 2.620270 1_555
Na4 O136 2.750157 1_655
Na5 O104 2.506451 1_555
Na5 O30 2.552851 1_555
Na5 O102 2.580615 1_555
Na5 O133 2.641413 1_555
Na5 O61 2.652927 1_555
Na5 O137 2.682348 1_555
Na6 O98 2.307868 1_555
Na6 O142 2.608378 1_555
Na6 O138 2.632286 1_555
Na6 O100 2.662291 1_555
Na6 O70 2.664188 1_555
Na6 O28 2.766683 1_555
Na7 O139 2.378284 1_555
Na7 O99 2.484036 1_555
Na7 O29 2.512192 1_555
Na7 O143 2.563208 1_555
Na7 O101 2.612892 1_555
Na7 O71 2.854392 1_555
Na8 O97 2.456706 1_555
Na8 O138 2.457069 1_655
Na8 O25 2.588319 1_555
Na8 O101 2.739403 1_555
Na8 O140 2.776682 1_655
Na8 O11 2.889165 1_555
Na8 O14 2.986059 1_655
Na8 O66 2.995188 1_655
Na9 O99 2.438917 1_555
Na9 O97 2.488777 1_555
Na9 O143 2.629312 1_545
Na9 O141 2.653560 1_545
Na9 O69 2.662597 1_545
Na10 O128 2.527977 1_555
Na10 O130 2.606200 1_555
Na10 O86 2.665691 1_555
Na10 O42 2.693008 1_555
Na10 O85 2.767951 1_455
Na10 O28 2.882029 1_555
Na10 O56 2.930134 1_555
Na11 O126 2.448641 1_555
Na11 O89 2.479559 1_455
Na11 O86 2.649175 1_565
Na11 O16 2.732718 1_555
Na11 O45 2.734820 1_455
Na11 O130 2.762283 1_555
Na11 O25 2.974670 1_455
Na11 O58 3.001890 1_555
Na12 O88 2.387881 1_555
Na12 O128 2.464660 1_555
Na12 O84 2.604254 1_565
Na12 O126 2.754958 1_555
Na12 O26 2.764908 1_565
Na12 O12 2.777410 1_555
Na13 O129 2.319686 1_555
Na13 O127 2.531318 1_555
Na13 O85 2.609370 1_565
Na13 O89 2.640969 1_555
Na13 O47 2.696768 1_565
Na13 O13 2.860579 1_555
Na13 O55 2.876752 1_555
Na14 O121 2.517773 1_555
Na14 O39 2.548143 1_555
Na14 O49 2.564112 1_554
Na14 O125 2.569971 1_555
Na14 O91 2.651595 1_555
Na14 O93 2.777627 1_565
Na15 O108 2.387032 1_555
Na15 O78 2.492063 1_555
Na15 O6 2.522157 1_555
Na15 O80 2.552468 1_545
Na15 O112 2.646425 1_555
Na15 O70 2.943707 1_555
Na16 O109 2.378173 1_555
Na16 O79 2.581219 1_555
Na16 O81 2.593958 1_545
Na16 O113 2.635120 1_555
Na16 O7 2.754970 1_555
Na16 O37 2.839784 1_556
Na17 O73 2.318200 1_555
Na17 O118 2.337626 1_555
Na17 O74 2.563794 1_555
Na17 O116 2.566676 1_555
Na17 O44 2.715199 1_555
Na17 O2 2.784917 1_555
Na18 O72 2.578377 1_655
Na18 O75 2.626655 1_555
Na18 O76 2.665322 1_665
Na18 O89 2.737330 1_555
Na18 O85 2.816382 1_565
Na18 O86 2.855834 1_665
Na19 O73 2.273729 1_555
Na19 O87 2.561352 1_565
Na19 O88 2.572416 1_555
Na19 O77 2.806279 1_565
Na19 O74 2.890702 1_555
Na19 O84 3.038423 1_565
Na20 O83 2.340601 1_555
Na20 O91 2.540754 1_556
Na20 O93 2.680272 1_566
Na20 O80 2.733629 1_655
Na20 O78 2.869409 1_665
Na20 O94 2.937052 1_666
Na21 O82 2.455489 1_554
Na21 O90 2.578072 1_555
Na21 O92 2.708904 1_565
Na21 O81 2.722261 1_554
Na21 O95 2.964914 1_565
Na21 O79 2.995966 1_564
Na22 O108 2.471743 1_555
Na22 O112 2.623038 1_555
Na22 O98 2.684565 1_555
Na22 O110 2.750388 1_555
Na22 O96 2.799262 1_555
Na22 O100 2.838317 1_555
Na23 O109 2.429809 1_555
Na23 O99 2.508223 1_555
Na23 O113 2.575329 1_555
Na23 O111 2.788347 1_555
Na23 O97 2.880006 1_555
Na23 O101 2.881404 1_555
Na24 O118 2.419554 1_555
Na24 O104 2.559149 1_555
Na24 O114 2.753547 1_555
Na24 O102 2.771329 1_555
Na24 O116 2.837377 1_555
Na24 O106 2.907714 1_555
Na25 O103 2.573834 1_555
Na25 O105 2.583906 1_555
Na25 O119 2.611059 1_555
Na25 O117 2.794050 1_555
Na25 O115 2.794412 1_555
Na25 O107 2.908419 1_555
Na26 O122 2.461500 1_555
Na26 O136 2.606157 1_555
Na26 O132 2.623127 1_555
Na26 O120 2.765299 1_555
Na26 O124 2.794146 1_555
Na26 O134 2.799573 1_555
Na27 O121 2.368067 1_555
Na27 O123 2.373856 1_555
Na27 O137 2.547902 1_555
Na27 O125 2.852733 1_555
Na27 O135 2.944136 1_555
Na27 O133 2.952663 1_555
Na28 O128 2.475036 1_555
Na28 O130 2.622637 1_555
Na28 O138 2.623370 1_555
Na28 O126 2.663975 1_555
Na28 O140 2.756587 1_555
Na28 O142 2.834309 1_555
Na29 O139 2.342606 1_555
Na29 O143 2.612727 1_555
Na29 O129 2.650306 1_555
Na29 O131 2.730759 1_555
Na29 O141 2.936202 1_555
Nb0 O85 1.932822 1_455
Nb0 O13 1.955191 1_445
Nb0 O14 1.962775 1_555
Nb0 O86 1.993009 1_555
Nb0 O89 2.024047 1_445
Nb0 O16 2.304380 1_545
Nb1 O22 1.879632 1_655
Nb1 O19 1.913634 1_555
Nb1 O20 1.959475 1_665
Nb1 O91 1.975773 1_555
Nb1 O93 2.284068 1_565
Nb1 O94 2.285059 1_665
Nb2 O90 1.933159 1_545
Nb2 O95 1.939787 1_555
Nb2 O21 1.964453 1_555
Nb2 O18 1.980358 1_545
Nb2 O92 2.117930 1_555
Nb2 O23 2.249750 1_545
O0 Si0 1.605304 1_555
O0 Y0 2.133020 1_445
O1 S0 1.476334 1_555
O1 Y1 2.276614 1_545
O2 Si1 1.624581 1_555
O2 Y1 2.150475 1_555
O3 Si2 1.608468 1_555
O3 Y0 2.124347 1_555
O4 Si4 1.610387 1_555
O4 Y1 2.145513 1_545
O5 Si3 1.613551 1_555
O5 Y0 2.119989 1_545
O6 Si5 1.611964 1_555
O6 Y2 2.232418 1_445
O7 Si6 1.639022 1_555
O7 Y3 2.171335 1_545
O8 S2 1.484571 1_555
O8 Y3 2.279963 1_555
O9 S1 1.472646 1_655
O9 Y2 2.286524 1_555
O10 S3 1.474511 1_555
O10 Y3 2.263029 1_545
O11 Si7 1.610629 1_555
O11 Y2 2.100993 1_545
O12 S3 1.491997 1_565
O12 Y4 2.330167 1_565
O13 Si7 1.704695 1_565
O14 Si5 1.712692 1_555
O15 Si6 1.633129 1_555
O15 Y4 2.095097 1_555
O16 S1 1.492400 1_555
O17 S2 1.481956 1_555
O17 Y4 2.265294 1_565
O18 Si1 1.683194 1_555
O19 Si2 1.728693 1_555
O20 Si3 1.693201 1_455
O21 Si4 1.679225 1_555
O22 Si0 1.713803 1_565
O23 S0 1.485073 1_565
O24 S4 1.473211 1_555
O24 Y5 2.324784 1_555
O25 Si8 1.617439 1_555
O25 Y6 2.208968 1_555
O26 Si9 1.624575 1_555
O26 Y5 2.121207 1_555
O27 S5 1.489129 1_555
O27 Y6 2.284236 1_555
O28 Si10 1.648813 1_555
O28 Y5 2.154405 1_555
O29 Si11 1.624499 1_555
O29 Y6 2.167912 1_555
O30 Si12 1.623167 1_555
O30 Y7 2.133823 1_555
O31 Si13 1.631696 1_555
O31 Y8 2.135196 1_555
O32 S6 1.474078 1_555
O32 Y7 2.336974 1_555
O33 S7 1.483350 1_555
O33 Y8 2.340212 1_555
O34 S8 1.482957 1_555
O34 Y7 2.329294 1_555
O35 Si14 1.629629 1_555
O35 Y8 2.144493 1_555
O36 S8 1.493405 1_555
O36 Y9 2.359055 1_554
O37 Si14 1.633684 1_555
O37 Y10 2.161286 1_554
O38 Si12 1.641739 1_555
O38 Y9 2.079546 1_554
O39 Si13 1.640354 1_555
O39 Y10 2.147728 1_554
O40 S6 1.472352 1_555
O40 Y9 2.416823 1_554
O41 S7 1.475353 1_555
O41 Y10 2.402051 1_554
O42 Si9 1.622731 1_555
O42 Y11 2.232534 1_555
O43 S5 1.472227 1_555
O43 Y12 2.292308 1_555
O44 Si10 1.634727 1_555
O44 Y11 2.135141 1_555
O45 Si11 1.645098 1_555
O45 Y12 2.142245 1_555
O46 S4 1.482230 1_555
O46 Y11 2.287075 1_555
O47 Si8 1.624205 1_555
O47 Y12 2.160689 1_555
O48 Si15 1.625840 1_555
O48 Y13 2.118221 1_556
O49 Si16 1.637230 1_555
O49 Y14 2.189740 1_556
O50 S9 1.475399 1_555
O50 Y13 2.277138 1_556
O51 S10 1.474942 1_555
O51 Y14 2.273636 1_556
O52 S11 1.472864 1_555
O52 Y13 2.278145 1_556
O53 S12 1.466972 1_555
O53 Y14 2.336528 1_556
O54 S13 1.491452 1_555
O54 Y15 2.281437 1_555
O55 S14 1.489813 1_555
O55 Y16 2.294689 1_555
O56 S15 1.483845 1_555
O56 Y15 2.287836 1_555
O57 S16 1.479371 1_555
O57 Y16 2.244026 1_555
O58 S17 1.480044 1_555
O58 Y15 2.281626 1_555
O59 Si17 1.634736 1_555
O59 Y16 2.078689 1_555
O60 S17 1.482050 1_555
O60 Y17 2.338369 1_555
O61 Si17 1.655121 1_555
O61 Y18 2.137682 1_555
O62 S13 1.487511 1_555
O62 Y17 2.341449 1_555
O63 S14 1.491553 1_555
O63 Y18 2.382497 1_555
O64 S15 1.492756 1_555
O64 Y17 2.335930 1_555
O65 S16 1.491507 1_555
O65 Y18 2.293159 1_555
O66 S9 1.500960 1_555
O66 Y19 2.286769 1_555
O67 S10 1.478343 1_555
O67 Y20 2.336751 1_555
O68 S11 1.487542 1_555
O68 Y19 2.308601 1_555
O69 S12 1.493725 1_555
O69 Y20 2.390248 1_555
O70 Si15 1.677463 1_555
O70 Y19 2.104604 1_555
O71 Si16 1.659517 1_555
O71 Y20 2.092934 1_555
O72 S17 1.481759 1_555
O72 Y0 2.408374 1_455
O73 Si17 1.656088 1_555
O73 Y1 2.224041 1_555
O74 S13 1.488222 1_555
O74 Y1 2.362654 1_555
O75 S14 1.490704 1_555
O75 Y0 2.410121 1_555
O76 S15 1.474393 1_555
O76 Y0 2.401781 1_445
O77 S16 1.478228 1_555
O77 Y1 2.365286 1_545
O78 S9 1.497202 1_555
O78 Y2 2.363106 1_445
O79 S10 1.495453 1_555
O79 Y3 2.308450 1_545
O80 S11 1.493237 1_555
O80 Y2 2.416309 1_455
O81 S12 1.502558 1_555
O81 Y3 2.327397 1_555
O82 Si15 1.632555 1_555
O82 Y3 2.166842 1_555
O83 Si16 1.635782 1_555
O83 Y2 2.169820 1_555
O84 S4 1.490268 1_555
O84 Y4 2.298760 1_555
O85 Si8 1.690189 1_555
O86 Si9 1.676586 1_555
O87 S5 1.480361 1_555
O87 Y4 2.301287 1_555
O88 Si10 1.638413 1_555
O88 Y4 2.218707 1_565
O89 Si11 1.699345 1_555
O90 Si12 1.691008 1_555
O91 Si13 1.703903 1_555
O92 S6 1.514150 1_555
O93 S7 1.505440 1_555
O94 S8 1.486358 1_555
O95 Si14 1.673569 1_555
O96 S3 1.472494 1_555
O96 Y5 2.419987 1_555
O97 Si7 1.625745 1_555
O97 Y6 2.251999 1_555
O98 Si5 1.636294 1_555
O98 Y5 2.196508 1_555
O99 Si6 1.664384 1_555
O99 Y6 2.228862 1_555
O100 S2 1.485117 1_555
O100 Y5 2.406428 1_555
O101 S1 1.493290 1_655
O101 Y6 2.380506 1_555
O102 Si1 1.635809 1_555
O102 Y7 2.210646 1_555
O103 Si2 1.635581 1_555
O103 Y8 2.252388 1_555
O104 Si4 1.636188 1_555
O104 Y7 2.221804 1_555
O105 Si3 1.635350 1_555
O105 Y8 2.240373 1_555
O106 Si0 1.613951 1_555
O106 Y7 2.253131 1_555
O107 S0 1.485652 1_555
O107 Y8 2.459856 1_555
O108 Si15 1.668774 1_555
O108 Y9 2.161152 1_555
O109 Si16 1.665566 1_555
O109 Y10 2.175087 1_555
O110 S10 1.483091 1_555
O110 Y9 2.342958 1_555
O111 S9 1.467794 1_655
O111 Y10 2.451071 1_555
O112 S11 1.491649 1_545
O112 Y9 2.523497 1_555
O113 S12 1.487117 1_545
O113 Y10 2.514165 1_555
O114 S13 1.471433 1_545
O114 Y11 2.437340 1_555
O115 S14 1.486760 1_545
O115 Y12 2.449412 1_555
O116 S15 1.488030 1_555
O116 Y11 2.372103 1_555
O117 S16 1.487543 1_555
O117 Y12 2.355815 1_555
O118 Si17 1.659697 1_555
O118 Y11 2.217564 1_555
O119 S17 1.495076 1_655
O119 Y12 2.320634 1_555
O120 S8 1.488002 1_555
O120 Y13 2.359057 1_555
O121 Si14 1.636770 1_555
O121 Y14 2.193103 1_555
O122 Si13 1.616348 1_455
O122 Y13 2.198659 1_555
O123 Si12 1.615663 1_555
O123 Y14 2.182786 1_555
O124 S6 1.476902 1_565
O124 Y13 2.311002 1_555
O125 S7 1.484227 1_565
O125 Y14 2.373128 1_555
O126 Si9 1.635175 1_565
O126 Y15 2.172364 1_555
O127 S5 1.483771 1_565
O127 Y16 2.345497 1_555
O128 Si10 1.667247 1_555
O128 Y15 2.185309 1_555
O129 Si11 1.629229 1_555
O129 Y16 2.286662 1_555
O130 Si8 1.617915 1_455
O130 Y15 2.161337 1_555
O131 S4 1.483369 1_555
O131 Y16 2.314392 1_555
O132 Si0 1.633552 1_565
O132 Y17 2.175831 1_555
O133 S0 1.492977 1_565
O133 Y18 2.424551 1_555
O134 Si1 1.645204 1_555
O134 Y17 2.183142 1_555
O135 Si2 1.632224 1_555
O135 Y18 2.305394 1_555
O136 Si3 1.644130 1_455
O136 Y17 2.206553 1_555
O137 Si4 1.651372 1_555
O137 Y18 2.222337 1_555
O138 Si5 1.672291 1_555
O138 Y19 2.272221 1_555
O139 Si6 1.643533 1_555
O139 Y20 2.169579 1_555
O140 S1 1.483964 1_555
O140 Y19 2.437306 1_555
O141 S2 1.476744 1_555
O141 Y20 2.418926 1_555
O142 S3 1.500804 1_565
O142 Y19 2.332885 1_555
O143 Si7 1.635290 1_565
O143 Y20 2.265067 1_555
