# generated using pymatgen
data_Sr2MgZnWO6
_symmetry_space_group_name_H-M   'P 1'
_cell_length_a   6.43256362
_cell_length_b   6.43256301
_cell_length_c   5.81900300
_cell_angle_alpha   63.10811759
_cell_angle_beta   63.10812036
_cell_angle_gamma   51.87432687
_symmetry_Int_Tables_number   1
_chemical_formula_structural   Sr2MgZnWO6
_chemical_formula_sum   'Sr2 Mg1 Zn1 W1 O6'
_cell_volume   163.70776546
_cell_formula_units_Z   1
loop_
 _symmetry_equiv_pos_site_id
 _symmetry_equiv_pos_as_xyz
  1  'x, y, z'
loop_
 _atom_site_type_symbol
 _atom_site_label
 _atom_site_symmetry_multiplicity
 _atom_site_fract_x
 _atom_site_fract_y
 _atom_site_fract_z
 _atom_site_occupancy
  Sr  Sr0  1  0.32283000  0.32283000  0.17717000  1
  Sr  Sr1  1  0.67717000  0.67717000  0.82283000  1
  Mg  Mg0  1  0.00000000  0.00000000  0.50000000  1
  Zn  Zn0  1  0.50000000  0.50000000  0.50000000  1
  W  W0  1  0.00000000  0.00000000  0.00000000  1
  O  O0  1  0.25297300  0.74702700  0.74003800  1
  O  O1  1  0.25297300  0.74702700  0.25996200  1
  O  O2  1  0.74702700  0.25297300  0.74003800  1
  O  O3  1  0.20777700  0.20777700  0.79222300  1
  O  O4  1  0.74702700  0.25297300  0.25996200  1
  O  O5  1  0.79222300  0.79222300  0.20777700  1
loop_
_geom_bond_atom_site_label_1
_geom_bond_atom_site_label_2
_geom_bond_distance
_geom_bond_site_symmetry_2
Mg0 O0 1.994318 1_545
Mg0 O2 1.994318 1_455
Mg0 O4 1.994318 1_455
Mg0 O1 1.994318 1_545
Mg0 Sr1 3.228096 1_445
Mg0 Sr0 3.228096 1_555
O0 Zn0 1.970576 1_555
O0 W0 2.077167 1_566
O0 Sr0 2.712750 1_556
O0 Sr1 2.712751 1_555
O1 Zn0 1.970576 1_555
O1 W0 2.077167 1_565
O1 Sr0 2.712750 1_555
O1 Sr1 2.712750 1_554
O2 Zn0 1.970576 1_555
O2 W0 2.077167 1_656
O2 Sr1 2.712750 1_555
O2 Sr0 2.712750 1_556
O3 W0 2.077639 1_556
O3 Sr1 2.830105 1_545
O3 Sr1 2.830105 1_455
O3 Sr0 3.128698 1_555
O3 Sr0 3.128698 1_556
O4 Zn0 1.970576 1_555
O4 W0 2.077167 1_655
O4 Sr1 2.712750 1_554
O4 Sr0 2.712751 1_555
O5 W0 2.077639 1_665
O5 Sr0 2.830105 1_565
O5 Sr0 2.830105 1_655
O5 Sr1 3.128698 1_555
O5 Sr1 3.128698 1_554
