# generated using pymatgen
data_Na5Ga3Ge(PO4)6
_symmetry_space_group_name_H-M   'P 1'
_cell_length_a   8.65525252
_cell_length_b   8.65593902
_cell_length_c   21.75024462
_cell_angle_alpha   89.95115871
_cell_angle_beta   89.96925407
_cell_angle_gamma   120.01739904
_symmetry_Int_Tables_number   1
_chemical_formula_structural   Na5Ga3Ge(PO4)6
_chemical_formula_sum   'Na15 Ga9 Ge3 P18 O72'
_cell_volume   1410.95158945
_cell_formula_units_Z   3
loop_
 _symmetry_equiv_pos_site_id
 _symmetry_equiv_pos_as_xyz
  1  'x, y, z'
loop_
 _atom_site_type_symbol
 _atom_site_label
 _atom_site_symmetry_multiplicity
 _atom_site_fract_x
 _atom_site_fract_y
 _atom_site_fract_z
 _atom_site_occupancy
  Na  Na0  1  0.63426278  0.99983881  0.25247113  1
  Na  Na1  1  0.36521462  0.36551827  0.25288746  1
  Na  Na2  1  0.00048930  0.63523230  0.25252118  1
  Na  Na3  1  0.63922730  0.63456626  0.74951915  1
  Na  Na4  1  0.99864609  0.36210182  0.74977514  1
  Na  Na5  1  0.03348707  0.70160803  0.58199274  1
  Na  Na6  1  0.66474487  0.96539338  0.58178890  1
  Na  Na7  1  0.66523460  0.70018731  0.08187183  1
  Na  Na8  1  0.03359806  0.33175824  0.08206697  1
  Na  Na9  1  0.00786917  0.00869131  0.49658492  1
  Na  Na10  1  0.00781021  0.99899528  0.99587672  1
  Na  Na11  1  0.65857351  0.32450945  0.83433978  1
  Na  Na12  1  0.66630907  0.33329706  0.33776621  1
  Na  Na13  1  0.33242202  0.67416554  0.16563454  1
  Na  Na14  1  0.33329045  0.66615588  0.66484991  1
  Ga  Ga0  1  0.00059706  0.00005326  0.35617144  1
  Ga  Ga1  1  0.00192530  0.00076181  0.85406294  1
  Ga  Ga2  1  0.00788591  0.00694131  0.64874584  1
  Ga  Ga3  1  0.00605360  0.99912288  0.14831494  1
  Ga  Ga4  1  0.65984990  0.32734239  0.68378811  1
  Ga  Ga5  1  0.66558692  0.33183400  0.18288170  1
  Ga  Ga6  1  0.33259130  0.67243819  0.01541233  1
  Ga  Ga7  1  0.33256214  0.66063890  0.51507288  1
  Ga  Ga8  1  0.33339772  0.66637866  0.32224867  1
  Ge  Ge0  1  0.66490921  0.33211606  0.97775374  1
  Ge  Ge1  1  0.66434173  0.33241756  0.47894532  1
  Ge  Ge2  1  0.33419344  0.67295922  0.81804362  1
  P  P0  1  0.28977534  0.99939498  0.25057699  1
  P  P1  1  0.70995051  0.71032949  0.24979255  1
  P  P2  1  0.00019950  0.29030066  0.24982847  1
  P  P3  1  0.29122981  0.28954487  0.75193619  1
  P  P4  1  0.00548686  0.71270777  0.75088632  1
  P  P5  1  0.70579833  0.99867252  0.75104781  1
  P  P6  1  0.95720687  0.33377266  0.58302999  1
  P  P7  1  0.37751975  0.04738539  0.58210835  1
  P  P8  1  0.66236380  0.61903766  0.58318521  1
  P  P9  1  0.95744980  0.62372627  0.08224079  1
  P  P10  1  0.66231340  0.04319027  0.08252670  1
  P  P11  1  0.37708027  0.32972940  0.08210863  1
  P  P12  1  0.62504316  0.66593897  0.91755757  1
  P  P13  1  0.04072973  0.37508918  0.91777640  1
  P  P14  1  0.33397313  0.95903921  0.91736099  1
  P  P15  1  0.62760939  0.96262290  0.41790995  1
  P  P16  1  0.33499119  0.37275802  0.41728311  1
  P  P17  1  0.03727317  0.66460006  0.41808091  1
  O  O0  1  0.20880896  0.04067298  0.30605857  1
  O  O1  1  0.83332343  0.79360335  0.30479082  1
  O  O2  1  0.96021932  0.16660405  0.30478818  1
  O  O3  1  0.20816288  0.17544803  0.80845512  1
  O  O4  1  0.96289560  0.79373817  0.80593694  1
  O  O5  1  0.82898161  0.03714717  0.80617820  1
  O  O6  1  0.77904333  0.95517824  0.69191696  1
  O  O7  1  0.17133908  0.21735609  0.69427265  1
  O  O8  1  0.03870876  0.82072036  0.69079368  1
  O  O9  1  0.78501518  0.82452526  0.19021369  1
  O  O10  1  0.03881060  0.21522689  0.19022682  1
  O  O11  1  0.17195678  0.95757621  0.19260013  1
  O  O12  1  0.88025744  0.37219847  0.64199174  1
  O  O13  1  0.49668559  0.12267522  0.63933540  1
  O  O14  1  0.63339443  0.51185476  0.64294628  1
  O  O15  1  0.88070249  0.50859591  0.14136005  1
  O  O16  1  0.63232750  0.12040141  0.14229100  1
  O  O17  1  0.49203862  0.37107073  0.14109197  1
  O  O18  1  0.46686966  0.29915495  0.02570599  1
  O  O19  1  0.82911368  0.53498342  0.02662299  1
  O  O20  1  0.70485411  0.17167220  0.02685530  1
  O  O21  1  0.46422510  0.16621639  0.52495557  1
  O  O22  1  0.70479213  0.53362863  0.52746575  1
  O  O23  1  0.82945959  0.29385309  0.52725967  1
  O  O24  1  0.54292733  0.69547476  0.97595134  1
  O  O25  1  0.15349335  0.45693723  0.97592474  1
  O  O26  1  0.30105282  0.84431880  0.97457715  1
  O  O27  1  0.54386496  0.84855170  0.47583361  1
  O  O28  1  0.30222446  0.45816383  0.47338313  1
  O  O29  1  0.15210857  0.69605534  0.47577414  1
  O  O30  1  0.11433453  0.62821047  0.35859040  1
  O  O31  1  0.51405342  0.88515944  0.35854489  1
  O  O32  1  0.37206961  0.48472456  0.35717669  1
  O  O33  1  0.12425522  0.49522448  0.85872070  1
  O  O34  1  0.37371487  0.87658773  0.85928544  1
  O  O35  1  0.50481594  0.62954805  0.85870229  1
  O  O36  1  0.01871542  0.83063716  0.41160362  1
  O  O37  1  0.81208939  0.98080909  0.41145061  1
  O  O38  1  0.16913099  0.18791781  0.41109985  1
  O  O39  1  0.02127419  0.19104240  0.91054017  1
  O  O40  1  0.16920238  0.97793712  0.90996901  1
  O  O41  1  0.80886411  0.83119699  0.91013756  1
  O  O42  1  0.96857264  0.16172982  0.58874941  1
  O  O43  1  0.18896720  0.02356536  0.58789155  1
  O  O44  1  0.83339303  0.80759202  0.58773102  1
  O  O45  1  0.96892382  0.80670326  0.08761145  1
  O  O46  1  0.83306204  0.02605583  0.08698933  1
  O  O47  1  0.18855581  0.16548326  0.08732155  1
  O  O48  1  0.68903355  0.16696820  0.74405960  1
  O  O49  1  0.48149143  0.31939104  0.74474390  1
  O  O50  1  0.83919955  0.52190809  0.74492384  1
  O  O51  1  0.68883479  0.52120890  0.24356466  1
  O  O52  1  0.83237936  0.31176696  0.24387121  1
  O  O53  1  0.47870726  0.16760817  0.24380409  1
  O  O54  1  0.63918753  0.49261247  0.92272556  1
  O  O55  1  0.85342866  0.36138900  0.92317318  1
  O  O56  1  0.50743044  0.14640527  0.92304375  1
  O  O57  1  0.64255789  0.15003617  0.42402885  1
  O  O58  1  0.50805395  0.35895753  0.42395001  1
  O  O59  1  0.85004419  0.49177653  0.42460274  1
  O  O60  1  0.35756015  0.49871029  0.07661737  1
  O  O61  1  0.14101587  0.63729373  0.07618170  1
  O  O62  1  0.49976547  0.85418594  0.07668297  1
  O  O63  1  0.35654807  0.85828590  0.57631893  1
  O  O64  1  0.49988731  0.64545542  0.57689317  1
  O  O65  1  0.14109980  0.50325062  0.57638959  1
  O  O66  1  0.31197066  0.83246410  0.25655744  1
  O  O67  1  0.52134560  0.68915806  0.25573875  1
  O  O68  1  0.16759765  0.47900089  0.25577584  1
  O  O69  1  0.31111712  0.48299828  0.75839354  1
  O  O70  1  0.17267132  0.68713485  0.75834115  1
  O  O71  1  0.51832101  0.82407366  0.75865196  1
loop_
_geom_bond_atom_site_label_1
_geom_bond_atom_site_label_2
_geom_bond_distance
_geom_bond_site_symmetry_2
Na0 O67 2.358422 1_555
Na0 O52 2.373184 1_565
Na0 O66 2.417493 1_555
Na0 O53 2.431703 1_565
Na0 O31 2.520102 1_555
Na0 O16 2.616402 1_565
Na0 O2 2.696211 1_565
Na0 O9 2.796718 1_555
Na1 O68 2.361235 1_555
Na1 O53 2.371225 1_555
Na1 O67 2.427053 1_555
Na1 O51 2.434155 1_555
Na1 O32 2.481201 1_555
Na1 O17 2.657813 1_555
Na1 O0 2.694586 1_555
Na1 O10 2.803760 1_555
Na2 O66 2.363465 1_555
Na2 O51 2.371808 1_455
Na2 O68 2.425431 1_555
Na2 O52 2.432498 1_455
Na2 O30 2.521734 1_555
Na2 O15 2.644293 1_455
Na2 O1 2.692675 1_455
Na2 O11 2.744981 1_555
Na3 O71 2.354400 1_555
Na3 O49 2.364639 1_555
Na3 O50 2.375989 1_555
Na3 O69 2.468726 1_555
Na3 O14 2.540573 1_555
Na3 O35 2.634594 1_555
Na3 O6 2.714429 1_555
Na3 O4 2.719716 1_555
Na4 O48 2.349810 1_555
Na4 O69 2.369354 1_655
Na4 O50 2.395624 1_555
Na4 O70 2.445460 1_655
Na4 O12 2.577840 1_555
Na4 O33 2.622733 1_655
Na4 O7 2.671251 1_655
Na4 O5 2.726296 1_555
Na5 O65 2.330378 1_555
Na5 O44 2.333695 1_455
Na5 O43 2.417112 1_565
Na5 O63 2.424516 1_555
Na5 O29 2.537880 1_555
Na5 O8 2.573478 1_555
Na5 O22 2.735356 1_455
Na5 O12 2.792910 1_455
Na6 O42 2.314279 1_565
Na6 O63 2.348509 1_555
Na6 O64 2.400779 1_555
Na6 O44 2.451104 1_555
Na6 O27 2.525140 1_555
Na6 O6 2.610310 1_555
Na6 O23 2.731209 1_565
Na6 O13 2.741944 1_565
Na7 O45 2.313117 1_555
Na7 O60 2.345228 1_555
Na7 O62 2.398079 1_555
Na7 O46 2.445400 1_565
Na7 O24 2.527716 1_554
Na7 O9 2.583917 1_555
Na7 O19 2.744322 1_555
Na7 O17 2.782244 1_555
Na8 O61 2.326876 1_555
Na8 O46 2.330272 1_455
Na8 O47 2.411349 1_555
Na8 O60 2.431015 1_555
Na8 O25 2.539451 1_554
Na8 O10 2.568143 1_555
Na8 O20 2.742252 1_455
Na8 O15 2.790287 1_455
Na9 O38 2.374404 1_555
Na9 O36 2.439277 1_545
Na9 O37 2.439952 1_445
Na9 O43 2.493853 1_555
Na9 O42 2.518631 1_455
Na9 O44 2.569336 1_445
Na10 O40 2.393409 1_555
Na10 O39 2.454127 1_565
Na10 O41 2.461309 1_455
Na10 O47 2.496522 1_566
Na10 O45 2.509557 1_456
Na10 O46 2.573276 1_466
Na11 O56 2.405154 1_555
Na11 O49 2.466591 1_555
Na11 O54 2.467754 1_555
Na11 O55 2.478979 1_555
Na11 O48 2.479637 1_555
Na11 O50 2.542513 1_555
Na12 O58 2.396183 1_555
Na12 O57 2.397308 1_555
Na12 O59 2.408941 1_555
Na12 O52 2.556765 1_555
Na12 O53 2.559048 1_555
Na12 O51 2.560919 1_555
Na13 O62 2.450067 1_555
Na13 O66 2.463056 1_555
Na13 O61 2.471306 1_555
Na13 O68 2.512577 1_555
Na13 O67 2.514555 1_555
Na13 O60 2.537265 1_555
Na14 O64 2.455055 1_555
Na14 O65 2.473573 1_555
Na14 O63 2.484613 1_555
Na14 O70 2.520071 1_555
Na14 O69 2.525781 1_555
Na14 O71 2.532534 1_555
Ga0 O38 1.957385 1_555
Ga0 O36 1.963666 1_545
Ga0 O37 1.964954 1_445
Ga0 O0 1.980552 1_555
Ga0 O2 1.987786 1_455
Ga0 O1 1.988715 1_445
Ga1 O3 1.936948 1_555
Ga1 O4 1.954206 1_445
Ga1 O5 1.974171 1_455
Ga1 O40 1.975220 1_545
Ga1 O41 1.993711 1_445
Ga1 O39 1.994364 1_555
Ga2 O7 1.930230 1_555
Ga2 O8 1.983394 1_545
Ga2 O43 2.000214 1_555
Ga2 O42 2.016792 1_455
Ga2 O6 2.028530 1_445
Ga2 O44 2.101966 1_445
Ga3 O11 1.906982 1_555
Ga3 O9 1.969152 1_455
Ga3 O10 1.970539 1_565
Ga3 O47 2.011801 1_565
Ga3 O45 2.022203 1_455
Ga3 O46 2.103859 1_465
Ga4 O13 1.889155 1_555
Ga4 O14 1.938056 1_555
Ga4 O12 1.967965 1_555
Ga4 O49 2.009219 1_555
Ga4 O48 2.014315 1_555
Ga4 O50 2.098694 1_555
Ga5 O16 1.920327 1_555
Ga5 O17 1.925929 1_555
Ga5 O15 1.941342 1_555
Ga5 O53 2.021588 1_555
Ga5 O52 2.031377 1_555
Ga5 O51 2.035569 1_555
Ga6 O26 1.865806 1_554
Ga6 O24 1.930156 1_554
Ga6 O25 1.931638 1_554
Ga6 O62 2.018084 1_555
Ga6 O61 2.020210 1_555
Ga6 O60 2.098157 1_555
Ga7 O28 1.872254 1_555
Ga7 O27 1.933523 1_555
Ga7 O29 1.934963 1_555
Ga7 O64 2.028514 1_555
Ga7 O65 2.028917 1_555
Ga7 O63 2.096035 1_555
Ga8 O32 1.919995 1_555
Ga8 O31 1.922407 1_555
Ga8 O30 1.923576 1_555
Ga8 O66 2.099088 1_555
Ga8 O67 2.110423 1_555
Ga8 O68 2.111351 1_555
Ge0 O18 1.901459 1_556
Ge0 O20 1.914970 1_556
Ge0 O56 1.915899 1_555
Ge0 O54 1.928466 1_555
Ge0 O55 1.928638 1_555
Ge0 O19 1.934180 1_556
Ge1 O21 1.890432 1_555
Ge1 O58 1.904098 1_555
Ge1 O59 1.913141 1_555
Ge1 O57 1.913149 1_555
Ge1 O22 1.913936 1_555
Ge1 O23 1.932996 1_555
Ge2 O34 1.851534 1_555
Ge2 O33 1.910590 1_555
Ge2 O35 1.913160 1_555
Ge2 O71 1.956702 1_555
Ge2 O70 1.956789 1_555
Ge2 O69 2.025380 1_555
O0 P0 1.524903 1_545
O1 P1 1.524306 1_555
O2 P2 1.523741 1_655
O3 P3 1.513282 1_555
O4 P4 1.523543 1_655
O5 P5 1.527183 1_545
O6 P5 1.560919 1_555
O7 P3 1.547331 1_555
O8 P4 1.547150 1_555
O9 P1 1.559741 1_555
O10 P2 1.559725 1_555
O11 P0 1.547224 1_555
O12 P6 1.555729 1_555
O13 P7 1.538845 1_555
O14 P8 1.542075 1_555
O15 P9 1.556401 1_555
O16 P10 1.542208 1_555
O17 P11 1.552358 1_555
O18 P11 1.544112 1_555
O19 P9 1.560961 1_555
O20 P10 1.557604 1_555
O21 P7 1.546271 1_555
O22 P8 1.556543 1_555
O23 P6 1.559886 1_555
O24 P12 1.537852 1_555
O25 P13 1.537886 1_555
O26 P14 1.526557 1_555
O27 P15 1.538956 1_555
O28 P16 1.525367 1_555
O29 P17 1.538770 1_555
O30 P17 1.558307 1_555
O31 P15 1.557652 1_555
O32 P16 1.561281 1_555
O33 P13 1.580643 1_555
O34 P14 1.571604 1_555
O35 P12 1.579533 1_555
O36 P17 1.530313 1_555
O37 P15 1.530448 1_555
O38 P16 1.530141 1_555
O39 P13 1.524184 1_555
O40 P14 1.523178 1_555
O41 P12 1.525073 1_555
O42 P6 1.545677 1_555
O43 P7 1.544258 1_555
O44 P8 1.564611 1_555
O45 P9 1.541104 1_555
O46 P10 1.560436 1_555
O47 P11 1.541138 1_555
O48 P5 1.541894 1_545
O49 P3 1.541764 1_555
O50 P4 1.561477 1_655
O51 P1 1.559691 1_555
O52 P2 1.559277 1_655
O53 P0 1.559789 1_545
O54 P12 1.569085 1_555
O55 P13 1.569507 1_655
O56 P14 1.569694 1_545
O57 P15 1.567321 1_545
O58 P16 1.567877 1_555
O59 P17 1.567789 1_655
O60 P11 1.558603 1_555
O61 P9 1.539007 1_455
O62 P10 1.539376 1_565
O63 P7 1.559211 1_565
O64 P8 1.539651 1_555
O65 P6 1.539312 1_455
O66 P0 1.555352 1_555
O67 P1 1.554199 1_555
O68 P2 1.554558 1_555
O69 P3 1.601691 1_555
O70 P4 1.577922 1_555
O71 P5 1.578008 1_555
