# generated using pymatgen
data_CaTa5(PO4)9
_symmetry_space_group_name_H-M   'P 1'
_cell_length_a   8.83926131
_cell_length_b   8.83926102
_cell_length_c   22.77860324
_cell_angle_alpha   90.00000000
_cell_angle_beta   90.00000000
_cell_angle_gamma   120.00000106
_symmetry_Int_Tables_number   1
_chemical_formula_structural   CaTa5(PO4)9
_chemical_formula_sum   'Ca2 Ta10 P18 O72'
_cell_volume   1541.30876643
_cell_formula_units_Z   2
loop_
 _symmetry_equiv_pos_site_id
 _symmetry_equiv_pos_as_xyz
  1  'x, y, z'
loop_
 _atom_site_type_symbol
 _atom_site_label
 _atom_site_symmetry_multiplicity
 _atom_site_fract_x
 _atom_site_fract_y
 _atom_site_fract_z
 _atom_site_occupancy
  Ca  Ca0  1  0.66666700  0.33333300  0.69113588  1
  Ca  Ca1  1  0.66666700  0.33333300  0.19113588  1
  Ta  Ta0  1  -0.00000000  -0.00000000  0.35791460  1
  Ta  Ta1  1  -0.00000000  -0.00000000  0.85791460  1
  Ta  Ta2  1  -0.00000000  -0.00000000  0.64304806  1
  Ta  Ta3  1  -0.00000000  -0.00000000  0.14304806  1
  Ta  Ta4  1  0.66666700  0.33333300  0.97879301  1
  Ta  Ta5  1  0.66666700  0.33333300  0.47879301  1
  Ta  Ta6  1  0.33333300  0.66666700  0.02061452  1
  Ta  Ta7  1  0.33333300  0.66666700  0.52061452  1
  Ta  Ta8  1  0.33333300  0.66666700  0.30766252  1
  Ta  Ta9  1  0.33333300  0.66666700  0.80766252  1
  P  P0  1  0.27616290  0.99322750  0.25183292  1
  P  P1  1  0.71706460  0.72383710  0.25183292  1
  P  P2  1  0.00677250  0.28293540  0.25183292  1
  P  P3  1  0.27616290  0.28293540  0.75183292  1
  P  P4  1  0.00677250  0.72383710  0.75183292  1
  P  P5  1  0.71706460  0.99322750  0.75183292  1
  P  P6  1  0.95797478  0.33333286  0.58254728  1
  P  P7  1  0.37535908  0.04202522  0.58254728  1
  P  P8  1  0.66666714  0.62464092  0.58254728  1
  P  P9  1  0.95797478  0.62464092  0.08254728  1
  P  P10  1  0.66666714  0.04202522  0.08254728  1
  P  P11  1  0.37535908  0.33333286  0.08254728  1
  P  P12  1  0.61598322  0.66363346  0.91569280  1
  P  P13  1  0.04764924  0.38401678  0.91569280  1
  P  P14  1  0.33636654  0.95235076  0.91569280  1
  P  P15  1  0.61598322  0.95235076  0.41569280  1
  P  P16  1  0.33636654  0.38401678  0.41569280  1
  P  P17  1  0.04764924  0.66363346  0.41569280  1
  O  O0  1  0.17617349  0.00387957  0.30662362  1
  O  O1  1  0.82770608  0.82382651  0.30662362  1
  O  O2  1  0.99612043  0.17229392  0.30662362  1
  O  O3  1  0.17617349  0.17229392  0.80662362  1
  O  O4  1  0.99612043  0.82382651  0.80662362  1
  O  O5  1  0.82770608  0.00387957  0.80662362  1
  O  O6  1  0.80309491  0.96391266  0.69616093  1
  O  O7  1  0.16081775  0.19690509  0.69616093  1
  O  O8  1  0.03608734  0.83918225  0.69616093  1
  O  O9  1  0.80309491  0.83918225  0.19616093  1
  O  O10  1  0.03608734  0.19690509  0.19616093  1
  O  O11  1  0.16081775  0.96391266  0.19616093  1
  O  O12  1  0.89925053  0.38067661  0.63690555  1
  O  O13  1  0.48142708  0.10074947  0.63690555  1
  O  O14  1  0.61932339  0.51857292  0.63690555  1
  O  O15  1  0.89925053  0.51857292  0.13690555  1
  O  O16  1  0.61932339  0.10074947  0.13690555  1
  O  O17  1  0.48142708  0.38067661  0.13690555  1
  O  O18  1  0.46778589  0.30340005  0.02789103  1
  O  O19  1  0.83561516  0.53221411  0.02789103  1
  O  O20  1  0.69659995  0.16438484  0.02789103  1
  O  O21  1  0.46778589  0.16438484  0.52789103  1
  O  O22  1  0.69659995  0.53221411  0.52789103  1
  O  O23  1  0.83561516  0.30340005  0.52789103  1
  O  O24  1  0.53093560  0.69477055  0.96943574  1
  O  O25  1  0.16383395  0.46906440  0.96943574  1
  O  O26  1  0.30522945  0.83616605  0.96943574  1
  O  O27  1  0.53093560  0.83616605  0.46943574  1
  O  O28  1  0.30522945  0.46906440  0.46943574  1
  O  O29  1  0.16383395  0.69477055  0.46943574  1
  O  O30  1  0.13453286  0.63354971  0.36190271  1
  O  O31  1  0.49901585  0.86546714  0.36190271  1
  O  O32  1  0.36645029  0.50098415  0.36190271  1
  O  O33  1  0.13453286  0.50098415  0.86190271  1
  O  O34  1  0.36645029  0.86546714  0.86190271  1
  O  O35  1  0.49901585  0.63354971  0.86190271  1
  O  O36  1  0.02492461  0.82438589  0.40675729  1
  O  O37  1  0.79946128  0.97507539  0.40675729  1
  O  O38  1  0.17561411  0.20053872  0.40675729  1
  O  O39  1  0.02492461  0.20053872  0.90675729  1
  O  O40  1  0.17561411  0.97507539  0.90675729  1
  O  O41  1  0.79946128  0.82438589  0.90675729  1
  O  O42  1  0.97655935  0.16770715  0.59027348  1
  O  O43  1  0.19114780  0.02344065  0.59027348  1
  O  O44  1  0.83229285  0.80885220  0.59027348  1
  O  O45  1  0.97655935  0.80885220  0.09027348  1
  O  O46  1  0.83229285  0.02344065  0.09027348  1
  O  O47  1  0.19114780  0.16770715  0.09027348  1
  O  O48  1  0.69692358  0.14959482  0.75027865  1
  O  O49  1  0.45267224  0.30307642  0.75027865  1
  O  O50  1  0.85040518  0.54732776  0.75027865  1
  O  O51  1  0.69692358  0.54732776  0.25027865  1
  O  O52  1  0.85040518  0.30307642  0.25027865  1
  O  O53  1  0.45267224  0.14959482  0.25027865  1
  O  O54  1  0.63732632  0.50278424  0.92784150  1
  O  O55  1  0.86545892  0.36267368  0.92784150  1
  O  O56  1  0.49721576  0.13454108  0.92784150  1
  O  O57  1  0.63732632  0.13454108  0.42784150  1
  O  O58  1  0.49721576  0.36267368  0.42784150  1
  O  O59  1  0.86545892  0.50278424  0.42784150  1
  O  O60  1  0.34217625  0.48504349  0.06457294  1
  O  O61  1  0.14286624  0.65782375  0.06457294  1
  O  O62  1  0.51495651  0.85713376  0.06457294  1
  O  O63  1  0.34217625  0.85713376  0.56457294  1
  O  O64  1  0.51495651  0.65782375  0.56457294  1
  O  O65  1  0.14286624  0.48504349  0.56457294  1
  O  O66  1  0.28301852  0.82009745  0.26156070  1
  O  O67  1  0.53707793  0.71698148  0.26156070  1
  O  O68  1  0.17990255  0.46292207  0.26156070  1
  O  O69  1  0.28301852  0.46292207  0.76156070  1
  O  O70  1  0.17990255  0.71698148  0.76156070  1
  O  O71  1  0.53707793  0.82009745  0.76156070  1
loop_
_geom_bond_atom_site_label_1
_geom_bond_atom_site_label_2
_geom_bond_distance
_geom_bond_site_symmetry_2
Ca0 O50 2.226778 1_555
Ca0 O48 2.226778 1_555
Ca0 O49 2.226778 1_555
Ca0 O13 2.251070 1_555
Ca0 O14 2.251070 1_555
Ca0 O12 2.251070 1_555
Ca1 O51 2.226778 1_555
Ca1 O53 2.226778 1_555
Ca1 O52 2.226778 1_555
Ca1 O16 2.251070 1_555
Ca1 O15 2.251070 1_555
Ca1 O17 2.251070 1_555
O0 P0 1.559130 1_545
O0 Ta0 1.933337 1_555
O1 P1 1.559130 1_555
O1 Ta0 1.933337 1_665
O2 P2 1.559130 1_655
O2 Ta0 1.933337 1_655
O3 P3 1.559130 1_555
O3 Ta1 1.933337 1_555
O4 P4 1.559130 1_655
O4 Ta1 1.933337 1_665
O5 P5 1.559130 1_545
O5 Ta1 1.933337 1_655
O6 P5 1.565446 1_555
O6 Ta2 2.009873 1_665
O7 P3 1.565446 1_555
O7 Ta2 2.009873 1_555
O8 P4 1.565446 1_555
O8 Ta2 2.009873 1_565
O9 P1 1.565446 1_555
O9 Ta3 2.009873 1_665
O10 P2 1.565446 1_555
O10 Ta3 2.009873 1_555
O11 P0 1.565446 1_555
O11 Ta3 2.009873 1_565
O12 P6 1.481537 1_555
O13 P7 1.481537 1_555
O14 P8 1.481537 1_555
O15 P9 1.481537 1_555
O16 P10 1.481537 1_555
O17 P11 1.481537 1_555
O18 P11 1.582289 1_555
O18 Ta4 1.986476 1_554
O19 P9 1.582289 1_555
O19 Ta4 1.986476 1_554
O20 P10 1.582289 1_555
O20 Ta4 1.986476 1_554
O21 P7 1.582289 1_555
O21 Ta5 1.986476 1_555
O22 P8 1.582289 1_555
O22 Ta5 1.986476 1_555
O23 P6 1.582289 1_555
O23 Ta5 1.986476 1_555
O24 P12 1.531808 1_555
O24 Ta6 2.009399 1_556
O25 P13 1.531808 1_555
O25 Ta6 2.009399 1_556
O26 P14 1.531808 1_555
O26 Ta6 2.009399 1_556
O27 P15 1.531808 1_555
O27 Ta7 2.009399 1_555
O28 P16 1.531808 1_555
O28 Ta7 2.009399 1_555
O29 P17 1.531808 1_555
O29 Ta7 2.009399 1_555
O30 P17 1.538183 1_555
O30 Ta8 2.045899 1_555
O31 P15 1.538183 1_555
O31 Ta8 2.045899 1_555
O32 P16 1.538183 1_555
O32 Ta8 2.045899 1_555
O33 P13 1.538183 1_555
O33 Ta9 2.045899 1_555
O34 P14 1.538183 1_555
O34 Ta9 2.045899 1_555
O35 P12 1.538183 1_555
O35 Ta9 2.045899 1_555
O36 P17 1.544748 1_555
O36 Ta0 2.009471 1_565
O37 P15 1.544757 1_555
O37 Ta0 2.009471 1_665
O38 P16 1.544753 1_555
O38 Ta0 2.009471 1_555
O39 P13 1.544757 1_555
O39 Ta1 2.009471 1_555
O40 P14 1.544748 1_555
O40 Ta1 2.009471 1_565
O41 P12 1.544753 1_555
O41 Ta1 2.009471 1_665
O42 P6 1.562619 1_555
O42 Ta2 1.998183 1_655
O43 P7 1.562628 1_555
O43 Ta2 1.998183 1_555
O44 P8 1.562625 1_555
O44 Ta2 1.998183 1_665
O45 P9 1.562628 1_555
O45 Ta3 1.998183 1_665
O46 P10 1.562619 1_555
O46 Ta3 1.998183 1_655
O47 P11 1.562625 1_555
O47 Ta3 1.998183 1_555
O48 P5 1.479668 1_545
O49 P3 1.479677 1_555
O50 P4 1.479673 1_655
O51 P1 1.479677 1_555
O52 P2 1.479668 1_655
O53 P0 1.479673 1_545
O54 P12 1.549801 1_555
O54 Ta4 2.011517 1_555
O55 P13 1.549784 1_655
O55 Ta4 2.011517 1_555
O56 P14 1.549791 1_545
O56 Ta4 2.011517 1_555
O57 P15 1.549784 1_545
O57 Ta5 2.011517 1_555
O58 P16 1.549801 1_555
O58 Ta5 2.011517 1_555
O59 P17 1.549791 1_655
O59 Ta5 2.011517 1_555
O60 P11 1.563748 1_555
O60 Ta6 1.926549 1_555
O61 P9 1.563731 1_455
O61 Ta6 1.926549 1_555
O62 P10 1.563737 1_565
O62 Ta6 1.926549 1_555
O63 P7 1.563731 1_565
O63 Ta7 1.926549 1_555
O64 P8 1.563748 1_555
O64 Ta7 1.926549 1_555
O65 P6 1.563737 1_455
O65 Ta7 1.926549 1_555
O66 P0 1.577167 1_555
O66 Ta8 1.934698 1_555
O67 P1 1.577175 1_555
O67 Ta8 1.934698 1_555
O68 P2 1.577171 1_555
O68 Ta8 1.934698 1_555
O69 P3 1.577175 1_555
O69 Ta9 1.934698 1_555
O70 P4 1.577167 1_555
O70 Ta9 1.934698 1_555
O71 P5 1.577171 1_555
O71 Ta9 1.934698 1_555
