# generated using pymatgen
data_MgPb4(WO5)2
_symmetry_space_group_name_H-M   'P 1'
_cell_length_a   6.16895453
_cell_length_b   7.41339761
_cell_length_c   8.25056460
_cell_angle_alpha   109.68127831
_cell_angle_beta   111.95327990
_cell_angle_gamma   89.99999811
_symmetry_Int_Tables_number   1
_chemical_formula_structural   MgPb4(WO5)2
_chemical_formula_sum   'Mg1 Pb4 W2 O10'
_cell_volume   326.07506275
_cell_formula_units_Z   1
loop_
 _symmetry_equiv_pos_site_id
 _symmetry_equiv_pos_as_xyz
  1  'x, y, z'
loop_
 _atom_site_type_symbol
 _atom_site_label
 _atom_site_symmetry_multiplicity
 _atom_site_fract_x
 _atom_site_fract_y
 _atom_site_fract_z
 _atom_site_occupancy
  Mg  Mg0  1  0.88077900  0.50000000  0.00000000  1
  Pb  Pb0  1  0.44136700  0.25511800  0.05134700  1
  Pb  Pb1  1  0.39002100  0.74488200  0.94865300  1
  Pb  Pb2  1  0.04295000  0.07665600  0.24858200  1
  Pb  Pb3  1  0.79436700  0.92334400  0.75141800  1
  W  W0  1  0.85103300  0.31953200  0.61587200  1
  W  W1  1  0.23516400  0.68046800  0.38412800  1
  O  O0  1  0.67310900  0.00000000  0.00000000  1
  O  O1  1  0.19025100  0.00000000  0.00000000  1
  O  O2  1  0.67821400  0.31054600  0.37423700  1
  O  O3  1  0.30397700  0.68945400  0.62576300  1
  O  O4  1  0.94392600  0.74334600  0.22080600  1
  O  O5  1  0.72312000  0.25665400  0.77919400  1
  O  O6  1  0.93999700  0.58019900  0.80876700  1
  O  O7  1  0.13123100  0.41980100  0.19123300  1
  O  O8  1  0.45873300  0.82154100  0.36613700  1
  O  O9  1  0.09259500  0.17845900  0.63386300  1
loop_
_geom_bond_atom_site_label_1
_geom_bond_atom_site_label_2
_geom_bond_distance
_geom_bond_site_symmetry_2
Mg0 O4 1.995184 1_555
Mg0 O5 1.995184 1_554
Mg0 O6 2.009764 1_554
Mg0 O7 2.009767 1_655
O0 Pb3 2.334718 1_544
O0 Pb2 2.334722 1_655
O0 Pb1 2.390263 1_544
O0 Pb0 2.390267 1_555
O1 Pb0 2.264035 1_555
O1 Pb1 2.264038 1_544
O1 Pb2 2.442016 1_555
O1 Pb3 2.442020 1_444
O2 W0 1.853897 1_555
O2 Pb0 2.398538 1_555
O3 W1 1.853900 1_555
O3 Pb1 2.398537 1_555
O4 W1 1.968214 1_655
O4 Pb2 2.458705 1_665
O5 W0 1.968201 1_555
O5 Pb3 2.458704 1_545
O6 W0 1.960539 1_555
O6 Pb1 2.680466 1_655
O7 W1 1.960539 1_555
O7 Pb0 2.680455 1_555
O8 W1 1.809858 1_555
O9 W0 1.809868 1_455
