# generated using pymatgen
data_TmFeO3
_symmetry_space_group_name_H-M   'P 1'
_cell_length_a   5.27251600
_cell_length_b   5.61182200
_cell_length_c   7.67266200
_cell_angle_alpha   90.00000000
_cell_angle_beta   90.00000000
_cell_angle_gamma   90.00000000
_symmetry_Int_Tables_number   1
_chemical_formula_structural   TmFeO3
_chemical_formula_sum   'Tm4 Fe4 O12'
_cell_volume   227.02195563
_cell_formula_units_Z   4
loop_
 _symmetry_equiv_pos_site_id
 _symmetry_equiv_pos_as_xyz
  1  'x, y, z'
loop_
 _atom_site_type_symbol
 _atom_site_label
 _atom_site_symmetry_multiplicity
 _atom_site_fract_x
 _atom_site_fract_y
 _atom_site_fract_z
 _atom_site_occupancy
  Tm  Tm0  1  0.02110800  0.92838900  0.75000000  1
  Tm  Tm1  1  0.52110800  0.57161100  0.25000000  1
  Tm  Tm2  1  0.47889200  0.42838900  0.75000000  1
  Tm  Tm3  1  0.97889200  0.07161100  0.25000000  1
  Fe  Fe0  1  0.00000000  0.50000000  0.50000000  1
  Fe  Fe1  1  0.50000000  0.00000000  0.50000000  1
  Fe  Fe2  1  0.50000000  0.00000000  0.00000000  1
  Fe  Fe3  1  0.00000000  0.50000000  0.00000000  1
  O  O0  1  0.68892500  0.30800300  0.43632800  1
  O  O1  1  0.18892500  0.19199700  0.56367200  1
  O  O2  1  0.81107500  0.80800300  0.06367200  1
  O  O3  1  0.31107500  0.69199700  0.93632800  1
  O  O4  1  0.31107500  0.69199700  0.56367200  1
  O  O5  1  0.81107500  0.80800300  0.43632800  1
  O  O6  1  0.18892500  0.19199700  0.93632800  1
  O  O7  1  0.68892500  0.30800300  0.06367200  1
  O  O8  1  0.12506700  0.45108000  0.25000000  1
  O  O9  1  0.62506700  0.04892000  0.75000000  1
  O  O10  1  0.37493300  0.95108000  0.25000000  1
  O  O11  1  0.87493300  0.54892000  0.75000000  1
loop_
_geom_bond_atom_site_label_1
_geom_bond_atom_site_label_2
_geom_bond_distance
_geom_bond_site_symmetry_2
Fe0 O4 2.022290 1_555
Fe0 O0 2.022290 1_455
Fe0 O8 2.046841 1_555
Fe0 O11 2.046841 1_455
Fe0 O5 2.053891 1_455
Fe0 O1 2.053891 1_555
Fe1 O5 2.022290 1_545
Fe1 O1 2.022290 1_555
Fe1 O9 2.046841 1_555
Fe1 O10 2.046841 1_545
Fe1 O0 2.053891 1_555
Fe1 O4 2.053891 1_545
Fe2 O2 2.022290 1_545
Fe2 O6 2.022290 1_554
Fe2 O9 2.046841 1_554
Fe2 O10 2.046841 1_545
Fe2 O7 2.053891 1_555
Fe2 O3 2.053891 1_544
Fe3 O7 2.022290 1_455
Fe3 O3 2.022290 1_554
Fe3 O8 2.046841 1_555
Fe3 O11 2.046841 1_454
Fe3 O2 2.053891 1_455
Fe3 O6 2.053891 1_554
O0 Tm1 2.239451 1_555
O0 Tm3 2.478122 1_555
O0 Tm2 2.734037 1_555
O1 Tm0 2.239451 1_545
O1 Tm2 2.478122 1_555
O1 Tm3 2.734037 1_455
O2 Tm3 2.239451 1_565
O2 Tm1 2.478122 1_555
O2 Tm0 2.734037 1_654
O3 Tm2 2.239451 1_555
O3 Tm0 2.478122 1_555
O3 Tm1 2.734037 1_556
O4 Tm2 2.239451 1_555
O4 Tm0 2.478122 1_555
O4 Tm1 2.734037 1_555
O5 Tm3 2.239451 1_565
O5 Tm1 2.478122 1_555
O5 Tm0 2.734037 1_655
O6 Tm0 2.239451 1_545
O6 Tm2 2.478122 1_555
O6 Tm3 2.734037 1_456
O7 Tm1 2.239451 1_555
O7 Tm3 2.478122 1_555
O7 Tm2 2.734037 1_554
O8 Tm1 2.194952 1_555
O8 Tm3 2.264689 1_455
O9 Tm0 2.194952 1_645
O9 Tm2 2.264689 1_555
O10 Tm3 2.194952 1_465
O10 Tm1 2.264689 1_555
O11 Tm2 2.194952 1_555
O11 Tm0 2.264689 1_655
