# generated using pymatgen
data_Na3Sb5F18
_symmetry_space_group_name_H-M   'P 1'
_cell_length_a   24.26632800
_cell_length_b   5.58879000
_cell_length_c   12.33231450
_cell_angle_alpha   89.01658199
_cell_angle_beta   90.00000000
_cell_angle_gamma   90.00000000
_symmetry_Int_Tables_number   1
_chemical_formula_structural   Na3Sb5F18
_chemical_formula_sum   'Na12 Sb20 F72'
_cell_volume   1672.25487934
_cell_formula_units_Z   4
loop_
 _symmetry_equiv_pos_site_id
 _symmetry_equiv_pos_as_xyz
  1  'x, y, z'
loop_
 _atom_site_type_symbol
 _atom_site_label
 _atom_site_symmetry_multiplicity
 _atom_site_fract_x
 _atom_site_fract_y
 _atom_site_fract_z
 _atom_site_occupancy
  Na  Na0  1  0.06861200  0.77081200  0.99206700  1
  Na  Na1  1  0.56861200  0.72918800  0.50793300  1
  Na  Na2  1  0.93138800  0.22918800  0.00793300  1
  Na  Na3  1  0.43138800  0.27081200  0.49206700  1
  Na  Na4  1  0.19330500  0.78181900  0.75990600  1
  Na  Na5  1  0.69330500  0.71818100  0.74009400  1
  Na  Na6  1  0.80669500  0.21818100  0.24009400  1
  Na  Na7  1  0.30669500  0.28181900  0.25990600  1
  Na  Na8  1  0.06708700  0.24965100  0.75781500  1
  Na  Na9  1  0.56708700  0.25034900  0.74218500  1
  Na  Na10  1  0.93291300  0.75034900  0.24218500  1
  Na  Na11  1  0.43291300  0.74965100  0.25781500  1
  Sb  Sb0  1  0.69558500  0.16577800  0.96629500  1
  Sb  Sb1  1  0.19558500  0.33422200  0.53370500  1
  Sb  Sb2  1  0.30441500  0.83422200  0.03370500  1
  Sb  Sb3  1  0.80441500  0.66577800  0.46629500  1
  Sb  Sb4  1  0.93353500  0.19418200  0.46946700  1
  Sb  Sb5  1  0.43353500  0.30581800  0.03053300  1
  Sb  Sb6  1  0.06646500  0.80581800  0.53053300  1
  Sb  Sb7  1  0.56646500  0.69418200  0.96946700  1
  Sb  Sb8  1  0.82046400  0.29999000  0.75634700  1
  Sb  Sb9  1  0.32046400  0.20001000  0.74365300  1
  Sb  Sb10  1  0.17953600  0.70001000  0.24365300  1
  Sb  Sb11  1  0.67953600  0.79999000  0.25634700  1
  Sb  Sb12  1  0.32603000  0.76013300  0.46445200  1
  Sb  Sb13  1  0.82603000  0.73986700  0.03554800  1
  Sb  Sb14  1  0.67397000  0.23986700  0.53554800  1
  Sb  Sb15  1  0.17397000  0.26013300  0.96445200  1
  Sb  Sb16  1  0.54409200  0.22900700  0.28449700  1
  Sb  Sb17  1  0.04409200  0.27099300  0.21550300  1
  Sb  Sb18  1  0.45590800  0.77099300  0.71550300  1
  Sb  Sb19  1  0.95590800  0.72900700  0.78449700  1
  F  F0  1  0.11493800  0.47963100  0.89761500  1
  F  F1  1  0.61493800  0.02036900  0.60238500  1
  F  F2  1  0.88506200  0.52036900  0.10238500  1
  F  F3  1  0.38506200  0.97963100  0.39761500  1
  F  F4  1  0.13498000  0.03351800  0.86591100  1
  F  F5  1  0.63498000  0.46648200  0.63408900  1
  F  F6  1  0.86502000  0.96648200  0.13408900  1
  F  F7  1  0.36502000  0.53351800  0.36591100  1
  F  F8  1  0.11833700  0.89000900  0.64639700  1
  F  F9  1  0.61833700  0.60999100  0.85360300  1
  F  F10  1  0.88166300  0.10999100  0.35360300  1
  F  F11  1  0.38166300  0.39000900  0.14639700  1
  F  F12  1  0.23781400  0.99083400  0.91382800  1
  F  F13  1  0.73781400  0.50916600  0.58617200  1
  F  F14  1  0.76218600  0.00916600  0.08617200  1
  F  F15  1  0.26218600  0.49083400  0.41382800  1
  F  F16  1  0.40129600  0.57682000  0.94587000  1
  F  F17  1  0.90129600  0.92318000  0.55413000  1
  F  F18  1  0.59870400  0.42318000  0.05413000  1
  F  F19  1  0.09870400  0.07682000  0.44587000  1
  F  F20  1  0.13703300  0.39027100  0.64535600  1
  F  F21  1  0.63703300  0.10972900  0.85464400  1
  F  F22  1  0.86296700  0.60972900  0.35464400  1
  F  F23  1  0.36296700  0.89027100  0.14535600  1
  F  F24  1  0.34541800  0.11729300  0.95775400  1
  F  F25  1  0.84541800  0.38270700  0.54224600  1
  F  F26  1  0.65458200  0.88270700  0.04224600  1
  F  F27  1  0.15458200  0.61729300  0.45775400  1
  F  F28  1  0.08515800  0.14624900  0.07469100  1
  F  F29  1  0.58515800  0.35375100  0.42530900  1
  F  F30  1  0.91484200  0.85375100  0.92530900  1
  F  F31  1  0.41484200  0.64624900  0.57469100  1
  F  F32  1  0.27920000  0.95029200  0.36141900  1
  F  F33  1  0.77920000  0.54970800  0.13858100  1
  F  F34  1  0.72080000  0.04970800  0.63858100  1
  F  F35  1  0.22080000  0.45029200  0.86141900  1
  F  F36  1  0.01841000  0.05776200  0.60033400  1
  F  F37  1  0.51841000  0.44223800  0.89966600  1
  F  F38  1  0.98159000  0.94223800  0.39966600  1
  F  F39  1  0.48159000  0.55776200  0.10033400  1
  F  F40  1  0.02039500  0.58792900  0.68523400  1
  F  F41  1  0.52039500  0.91207100  0.81476600  1
  F  F42  1  0.97960500  0.41207100  0.31476600  1
  F  F43  1  0.47960500  0.08792900  0.18523400  1
  F  F44  1  0.01572600  0.51880000  0.11351700  1
  F  F45  1  0.51572600  0.98120000  0.38648300  1
  F  F46  1  0.98427400  0.48120000  0.88648300  1
  F  F47  1  0.48427400  0.01880000  0.61351700  1
  F  F48  1  0.15996300  0.70429000  0.08527700  1
  F  F49  1  0.65996300  0.79571000  0.41472300  1
  F  F50  1  0.84003700  0.29571000  0.91472300  1
  F  F51  1  0.34003700  0.20429000  0.58527700  1
  F  F52  1  0.23542800  0.58138800  0.61596900  1
  F  F53  1  0.73542800  0.91861200  0.88403100  1
  F  F54  1  0.76457200  0.41861200  0.38403100  1
  F  F55  1  0.26457200  0.08138800  0.11596900  1
  F  F56  1  0.25984400  0.61114000  0.16992500  1
  F  F57  1  0.75984400  0.88886000  0.33007500  1
  F  F58  1  0.74015600  0.38886000  0.83007500  1
  F  F59  1  0.24015600  0.11114000  0.66992500  1
  F  F60  1  0.09427800  0.66415700  0.25623600  1
  F  F61  1  0.59427800  0.83584300  0.24376400  1
  F  F62  1  0.90572200  0.33584300  0.74376400  1
  F  F63  1  0.40572200  0.16415700  0.75623600  1
  F  F64  1  0.01619400  0.93729700  0.84478100  1
  F  F65  1  0.51619400  0.56270300  0.65521900  1
  F  F66  1  0.98380600  0.06270300  0.15521900  1
  F  F67  1  0.48380600  0.43729700  0.34478100  1
  F  F68  1  0.32322900  0.84988900  0.75090400  1
  F  F69  1  0.82322900  0.65011100  0.74909600  1
  F  F70  1  0.67677100  0.15011100  0.24909600  1
  F  F71  1  0.17677100  0.34988900  0.25090400  1
loop_
_geom_bond_atom_site_label_1
_geom_bond_atom_site_label_2
_geom_bond_distance
_geom_bond_site_symmetry_2
F0 Sb15 2.049775 1_555
F0 Na0 2.309515 1_555
F0 Na8 2.459425 1_555
F1 Sb14 2.049775 1_555
F1 Na1 2.309515 1_545
F1 Na9 2.459425 1_555
F2 Sb13 2.049775 1_555
F2 Na2 2.309515 1_555
F2 Na10 2.459425 1_555
F3 Sb12 2.049775 1_555
F3 Na3 2.309515 1_565
F3 Na11 2.459425 1_555
F4 Sb15 2.007201 1_555
F4 Na4 2.398766 1_545
F4 Na8 2.428001 1_555
F4 Na0 2.662980 1_545
F5 Sb14 2.007201 1_555
F5 Na5 2.398766 1_555
F5 Na9 2.428001 1_555
F5 Na1 2.662980 1_555
F6 Sb13 2.007201 1_555
F6 Na6 2.398766 1_565
F6 Na10 2.428001 1_555
F6 Na2 2.662980 1_565
F7 Sb12 2.007201 1_555
F7 Na7 2.398766 1_555
F7 Na11 2.428001 1_555
F7 Na3 2.662980 1_555
F8 Sb6 1.967379 1_555
F8 Na4 2.367605 1_555
F8 Na8 2.751256 1_565
F9 Sb7 1.967379 1_555
F9 Na5 2.367605 1_555
F9 Na9 2.751256 1_555
F10 Sb4 1.967379 1_555
F10 Na6 2.367605 1_555
F10 Na10 2.751256 1_545
F11 Sb5 1.967379 1_555
F11 Na7 2.367605 1_555
F11 Na11 2.751256 1_555
F12 Sb15 2.255530 1_565
F12 Sb2 2.349301 1_556
F12 Na4 2.492075 1_555
F13 Sb14 2.255530 1_555
F13 Sb3 2.349301 1_555
F13 Na5 2.492075 1_555
F14 Sb13 2.255530 1_545
F14 Sb0 2.349301 1_554
F14 Na6 2.492075 1_555
F15 Sb12 2.255530 1_555
F15 Sb1 2.349301 1_555
F15 Na7 2.492075 1_555
F16 Sb5 1.985398 1_556
F17 Sb4 1.985398 1_565
F18 Sb7 1.985398 1_554
F19 Sb6 1.985398 1_545
F20 Sb1 2.006892 1_555
F20 Na8 2.320472 1_555
F21 Sb0 2.006892 1_555
F21 Na9 2.320472 1_555
F22 Sb3 2.006892 1_555
F22 Na10 2.320472 1_555
F23 Sb2 2.006892 1_555
F23 Na11 2.320472 1_555
F24 Sb2 2.078284 1_546
F24 Sb5 2.553504 1_556
F25 Sb3 2.078284 1_555
F25 Sb4 2.553504 1_555
F26 Sb0 2.078284 1_564
F26 Sb7 2.553504 1_554
F27 Sb1 2.078284 1_555
F27 Sb6 2.553504 1_555
F28 Sb17 2.129840 1_555
F28 Na0 2.382321 1_544
F28 Sb15 2.620740 1_554
F29 Sb16 2.129840 1_555
F29 Na1 2.382321 1_555
F29 Sb14 2.620740 1_555
F30 Sb19 2.129840 1_555
F30 Na2 2.382321 1_566
F30 Sb13 2.620740 1_556
F31 Sb18 2.129840 1_555
F31 Na3 2.382321 1_555
F31 Sb12 2.620740 1_555
F32 Sb12 1.997249 1_555
F32 Na7 2.316412 1_565
F33 Sb13 1.997249 1_555
F33 Na6 2.316412 1_555
F34 Sb14 1.997249 1_555
F34 Na5 2.316412 1_545
F35 Sb15 1.997249 1_555
F35 Na4 2.316412 1_555
F36 Sb6 2.031026 1_545
F36 Na8 2.527574 1_555
F37 Sb7 2.031026 1_555
F37 Na9 2.527574 1_555
F38 Sb4 2.031026 1_565
F38 Na10 2.527574 1_555
F39 Sb5 2.031026 1_555
F39 Na11 2.527574 1_555
F40 Sb19 2.145254 1_455
F40 Na8 2.366669 1_555
F40 Sb6 2.508531 1_555
F41 Sb18 2.145254 1_555
F41 Na9 2.366669 1_565
F41 Sb7 2.508531 1_555
F42 Sb17 2.145254 1_655
F42 Na10 2.366669 1_555
F42 Sb4 2.508531 1_555
F43 Sb16 2.145254 1_555
F43 Na11 2.366669 1_545
F43 Sb5 2.508531 1_555
F44 Sb17 1.978370 1_555
F44 Na0 2.408644 1_554
F44 Na10 2.881204 1_455
F45 Sb16 1.978370 1_565
F45 Na1 2.408644 1_555
F45 Na11 2.881204 1_555
F46 Sb19 1.978370 1_555
F46 Na2 2.408644 1_556
F46 Na8 2.881204 1_655
F47 Sb18 1.978370 1_545
F47 Na3 2.408644 1_555
F47 Na9 2.881204 1_555
F48 Sb10 2.009808 1_555
F48 Na0 2.521683 1_554
F49 Sb11 2.009808 1_555
F49 Na1 2.521683 1_555
F50 Sb8 2.009808 1_555
F50 Na2 2.521683 1_556
F51 Sb9 2.009808 1_555
F51 Na3 2.521683 1_555
F52 Sb1 1.979966 1_555
F52 Na4 2.349203 1_555
F53 Sb0 1.979966 1_565
F53 Na5 2.349203 1_555
F54 Sb3 1.979966 1_555
F54 Na6 2.349203 1_555
F55 Sb2 1.979966 1_545
F55 Na7 2.349203 1_555
F56 Sb10 2.210576 1_555
F56 Sb2 2.339745 1_555
F56 Na7 2.416874 1_555
F57 Sb11 2.210576 1_555
F57 Sb3 2.339745 1_555
F57 Na6 2.416874 1_565
F58 Sb8 2.210576 1_555
F58 Sb0 2.339745 1_555
F58 Na5 2.416874 1_555
F59 Sb9 2.210576 1_555
F59 Sb1 2.339745 1_555
F59 Na4 2.416874 1_545
F60 Sb10 2.084108 1_555
F60 Sb17 2.569341 1_555
F61 Sb11 2.084108 1_555
F61 Sb16 2.569341 1_565
F62 Sb8 2.084108 1_555
F62 Sb19 2.569341 1_555
F63 Sb9 2.084108 1_555
F63 Sb18 2.569341 1_545
F64 Sb19 2.019319 1_455
F64 Na8 2.378774 1_565
F64 Na0 2.392679 1_555
F65 Sb18 2.019319 1_555
F65 Na9 2.378774 1_555
F65 Na1 2.392679 1_555
F66 Sb17 2.019319 1_655
F66 Na10 2.378774 1_545
F66 Na2 2.392679 1_555
F67 Sb16 2.019319 1_555
F67 Na11 2.378774 1_555
F67 Na3 2.392679 1_555
F68 Sb9 1.958411 1_565
F69 Sb8 1.958411 1_555
F70 Sb11 1.958411 1_545
F71 Sb10 1.958411 1_555
