# generated using pymatgen
data_Na12Ta2Zn4Si6(SO12)3
_symmetry_space_group_name_H-M   'P 1'
_cell_length_a   9.20247014
_cell_length_b   9.19919225
_cell_length_c   22.13683932
_cell_angle_alpha   89.98268646
_cell_angle_beta   90.00000000
_cell_angle_gamma   120.01178779
_symmetry_Int_Tables_number   1
_chemical_formula_structural   Na12Ta2Zn4Si6(SO12)3
_chemical_formula_sum   'Na24 Ta4 Zn8 Si12 S6 O72'
_cell_volume   1622.73921560
_cell_formula_units_Z   2
loop_
 _symmetry_equiv_pos_site_id
 _symmetry_equiv_pos_as_xyz
  1  'x, y, z'
loop_
 _atom_site_type_symbol
 _atom_site_label
 _atom_site_symmetry_multiplicity
 _atom_site_fract_x
 _atom_site_fract_y
 _atom_site_fract_z
 _atom_site_occupancy
  Na  Na0  1  0.64793244  0.02169046  0.25317629  1
  Na  Na1  1  0.35170492  0.33904087  0.24964321  1
  Na  Na2  1  0.99340521  0.63242630  0.23885424  1
  Na  Na3  1  0.63902109  0.63242630  0.73885424  1
  Na  Na4  1  0.98733595  0.33904087  0.74964321  1
  Na  Na5  1  0.37375802  0.02169046  0.75317629  1
  Na  Na6  1  0.30242949  0.34599778  0.58627031  1
  Na  Na7  1  0.03627808  0.71018624  0.57804258  1
  Na  Na8  1  0.66598272  0.94372145  0.58272094  1
  Na  Na9  1  0.27773973  0.94372145  0.08272094  1
  Na  Na10  1  0.67390916  0.71018624  0.07804258  1
  Na  Na11  1  0.04356928  0.34599778  0.08627031  1
  Na  Na12  1  0.98547273  0.69739326  0.91505755  1
  Na  Na13  1  0.71361729  0.02381611  0.90855470  1
  Na  Na14  1  0.30666853  0.27989662  0.90888718  1
  Na  Na15  1  0.97322710  0.27989662  0.40888718  1
  Na  Na16  1  0.31019782  0.02381611  0.40855470  1
  Na  Na17  1  0.71191953  0.69739326  0.41505755  1
  Na  Na18  1  0.99170000  0.99286315  0.49339500  1
  Na  Na19  1  0.00116315  0.99286315  0.99339500  1
  Na  Na20  1  0.65442577  0.31966736  0.82443553  1
  Na  Na21  1  0.66524259  0.31966736  0.32443553  1
  Na  Na22  1  0.31314969  0.66419702  0.16249363  1
  Na  Na23  1  0.35104633  0.66419702  0.66249363  1
  Ta  Ta0  1  0.67469432  0.34389788  0.97597965  1
  Ta  Ta1  1  0.66920456  0.34389788  0.47597965  1
  Ta  Ta2  1  0.32543925  0.66509746  0.31772013  1
  Ta  Ta3  1  0.33965720  0.66509746  0.81772013  1
  Zn  Zn0  1  0.01768169  0.01737714  0.34966379  1
  Zn  Zn1  1  0.99969545  0.01737714  0.84966379  1
  Zn  Zn2  1  0.98044373  0.00024183  0.65852370  1
  Zn  Zn3  1  0.01979810  0.00024183  0.15852370  1
  Zn  Zn4  1  0.64735259  0.32859099  0.68558381  1
  Zn  Zn5  1  0.68123940  0.32859099  0.18558381  1
  Zn  Zn6  1  0.31961442  0.66753283  0.00750575  1
  Zn  Zn7  1  0.34791741  0.66753283  0.50750575  1
  Si  Si0  1  0.30214910  0.99955278  0.24967781  1
  Si  Si1  1  0.00303197  0.29388102  0.24946822  1
  Si  Si2  1  0.29084904  0.29388102  0.74946822  1
  Si  Si3  1  0.69740368  0.99955278  0.74967781  1
  Si  Si4  1  0.67007367  0.63266144  0.58728076  1
  Si  Si5  1  0.96258876  0.63266144  0.08728076  1
  Si  Si6  1  0.62723472  0.66975999  0.92246266  1
  Si  Si7  1  0.04174880  0.37315021  0.92047050  1
  Si  Si8  1  0.33250880  0.96290278  0.92012045  1
  Si  Si9  1  0.63039298  0.96290278  0.42012045  1
  Si  Si10  1  0.33140042  0.37315021  0.42047050  1
  Si  Si11  1  0.04252427  0.66975999  0.42246266  1
  S  S0  1  0.69713404  0.70410110  0.25055961  1
  S  S1  1  0.00696706  0.70410110  0.75055961  1
  S  S2  1  0.95444887  0.33397658  0.58384544  1
  S  S3  1  0.37586896  0.04220262  0.58281544  1
  S  S4  1  0.66633466  0.04220262  0.08281544  1
  S  S5  1  0.37952871  0.33397658  0.08384544  1
  O  O0  1  0.21951925  0.02989466  0.30921468  1
  O  O1  1  0.80013482  0.78240162  0.30487352  1
  O  O2  1  0.96784828  0.17866506  0.30870497  1
  O  O3  1  0.21081678  0.17866506  0.80870497  1
  O  O4  1  0.98226680  0.78240162  0.80487352  1
  O  O5  1  0.81037541  0.02989466  0.80921468  1
  O  O6  1  0.76036599  0.94363769  0.68944915  1
  O  O7  1  0.17538086  0.21655689  0.68826600  1
  O  O8  1  0.03508197  0.80679478  0.69512695  1
  O  O9  1  0.77171281  0.80679478  0.19512695  1
  O  O10  1  0.04117603  0.21655689  0.18826600  1
  O  O11  1  0.18327169  0.94363769  0.18944915  1
  O  O12  1  0.87077284  0.34537728  0.63882638  1
  O  O13  1  0.47490489  0.11747957  0.63838800  1
  O  O14  1  0.64775584  0.51595579  0.64505835  1
  O  O15  1  0.86820095  0.51595579  0.14505835  1
  O  O16  1  0.64257568  0.11747957  0.13838800  1
  O  O17  1  0.47460544  0.34537728  0.13882638  1
  O  O18  1  0.47259361  0.31890088  0.02874874  1
  O  O19  1  0.83415162  0.51865144  0.02689352  1
  O  O20  1  0.67682182  0.15038918  0.02861199  1
  O  O21  1  0.47356836  0.15038918  0.52861199  1
  O  O22  1  0.68450082  0.51865144  0.52689352  1
  O  O23  1  0.84630827  0.31890088  0.52874874  1
  O  O24  1  0.54442813  0.69868570  0.98147263  1
  O  O25  1  0.14954509  0.44795370  0.98085032  1
  O  O26  1  0.30214870  0.85814341  0.98135202  1
  O  O27  1  0.55599371  0.85814341  0.48135202  1
  O  O28  1  0.29840761  0.44795370  0.48085032  1
  O  O29  1  0.15425657  0.69868570  0.48147263  1
  O  O30  1  0.13610214  0.63368971  0.36292811  1
  O  O31  1  0.49849457  0.86341630  0.36196891  1
  O  O32  1  0.36992218  0.50264834  0.36145103  1
  O  O33  1  0.13272516  0.50264834  0.86145103  1
  O  O34  1  0.36492073  0.86341630  0.86196891  1
  O  O35  1  0.49758657  0.63368971  0.86292811  1
  O  O36  1  0.00295757  0.81849698  0.41084815  1
  O  O37  1  0.81513814  0.98855687  0.41032657  1
  O  O38  1  0.17852538  0.18422795  0.41371271  1
  O  O39  1  0.00570258  0.18422795  0.91371271  1
  O  O40  1  0.17341873  0.98855687  0.91032657  1
  O  O41  1  0.81553942  0.81849698  0.91084815  1
  O  O42  1  0.96922364  0.18089466  0.58104733  1
  O  O43  1  0.21323865  0.03724001  0.58232179  1
  O  O44  1  0.84723383  0.81360233  0.58380464  1
  O  O45  1  0.96636850  0.81360233  0.08380464  1
  O  O46  1  0.82400136  0.03724001  0.08232179  1
  O  O47  1  0.21167101  0.18089466  0.08104733  1
  O  O48  1  0.67570726  0.16569332  0.74296497  1
  O  O49  1  0.48497145  0.33186012  0.74824532  1
  O  O50  1  0.86432127  0.53183341  0.74582465  1
  O  O51  1  0.66751314  0.53183341  0.24582465  1
  O  O52  1  0.84688966  0.33186012  0.24824532  1
  O  O53  1  0.48998707  0.16569332  0.24296497  1
  O  O54  1  0.62933563  0.48654819  0.92424098  1
  O  O55  1  0.85218170  0.36327858  0.92319827  1
  O  O56  1  0.51155159  0.14967810  0.92398544  1
  O  O57  1  0.63812752  0.14967810  0.42398544  1
  O  O58  1  0.51109788  0.36327858  0.42319827  1
  O  O59  1  0.85721356  0.48654819  0.42424098  1
  O  O60  1  0.36714771  0.48795004  0.08007443  1
  O  O61  1  0.14664522  0.64687151  0.08248283  1
  O  O62  1  0.51851206  0.87153424  0.07888740  1
  O  O63  1  0.35302119  0.87153424  0.57888740  1
  O  O64  1  0.50022529  0.64687151  0.58248283  1
  O  O65  1  0.12080132  0.48795004  0.58007443  1
  O  O66  1  0.32511067  0.82772710  0.25870495  1
  O  O67  1  0.52628908  0.69267355  0.25592106  1
  O  O68  1  0.18170030  0.48626777  0.25801437  1
  O  O69  1  0.30456647  0.48626777  0.75801437  1
  O  O70  1  0.16638347  0.69267355  0.75592106  1
  O  O71  1  0.50261543  0.82772710  0.75870495  1
loop_
_geom_bond_atom_site_label_1
_geom_bond_atom_site_label_2
_geom_bond_distance
_geom_bond_site_symmetry_2
Na0 O53 2.417547 1_555
Na0 O52 2.505856 1_555
Na0 O66 2.592560 1_545
Na0 O67 2.651073 1_545
Na0 O16 2.697767 1_555
Na0 O31 2.793923 1_545
Na0 O2 2.830507 1_555
Na1 O53 2.492843 1_555
Na1 O68 2.536920 1_555
Na1 O51 2.538200 1_555
Na1 O17 2.689678 1_555
Na1 O0 2.800638 1_555
Na1 O67 2.820512 1_555
Na1 O10 2.839301 1_555
Na1 O32 2.858169 1_555
Na2 O15 2.356507 1_555
Na2 O52 2.403433 1_555
Na2 O51 2.664192 1_555
Na2 O66 2.693154 1_655
Na2 O68 2.705641 1_655
Na2 O11 2.727506 1_655
Na3 O14 2.356510 1_555
Na3 O49 2.403432 1_555
Na3 O50 2.664200 1_555
Na3 O71 2.693161 1_555
Na3 O69 2.705649 1_555
Na3 O6 2.727506 1_555
Na4 O48 2.492835 1_555
Na4 O69 2.536912 1_655
Na4 O50 2.538193 1_555
Na4 O12 2.689674 1_555
Na4 O5 2.800638 1_555
Na4 O70 2.820512 1_655
Na4 O7 2.839301 1_655
Na4 O33 2.858167 1_655
Na5 O48 2.417555 1_555
Na5 O49 2.505854 1_555
Na5 O71 2.592552 1_545
Na5 O70 2.651075 1_545
Na5 O13 2.697769 1_555
Na5 O34 2.793920 1_545
Na5 O3 2.830507 1_555
Na6 O64 2.437413 1_555
Na6 O28 2.521992 1_555
Na6 O43 2.533139 1_555
Na6 O7 2.547247 1_555
Na6 O65 2.588632 1_555
Na6 O42 2.657771 1_455
Na7 O44 2.367168 1_455
Na7 O29 2.423830 1_555
Na7 O63 2.524217 1_555
Na7 O65 2.525324 1_555
Na7 O43 2.609925 1_565
Na7 O8 2.742071 1_555
Na8 O64 2.370025 1_555
Na8 O27 2.425631 1_555
Na8 O44 2.492523 1_555
Na8 O6 2.517352 1_555
Na8 O42 2.541301 1_565
Na8 O63 2.613337 1_555
Na9 O61 2.370023 1_555
Na9 O26 2.425626 1_554
Na9 O45 2.492531 1_455
Na9 O11 2.517355 1_555
Na9 O47 2.541307 1_565
Na9 O62 2.613319 1_555
Na10 O45 2.367159 1_555
Na10 O24 2.423839 1_554
Na10 O62 2.524233 1_555
Na10 O60 2.525337 1_555
Na10 O46 2.609925 1_565
Na10 O9 2.742070 1_555
Na11 O61 2.437416 1_555
Na11 O25 2.521989 1_554
Na11 O46 2.533141 1_455
Na11 O10 2.547245 1_555
Na11 O60 2.588615 1_555
Na11 O47 2.657763 1_555
Na12 O41 2.331956 1_555
Na12 O40 2.354179 1_655
Na12 O4 2.565866 1_555
Na12 O55 2.685555 1_555
Na12 O54 2.860963 1_555
Na12 O19 2.911851 1_556
Na12 O26 2.919482 1_655
Na12 O33 2.980554 1_655
Na13 O39 2.334031 1_655
Na13 O5 2.362627 1_555
Na13 O41 2.494368 1_545
Na13 O56 2.658758 1_555
Na13 O55 2.738619 1_555
Na14 O40 2.323771 1_545
Na14 O3 2.396471 1_555
Na14 O39 2.453240 1_555
Na14 O54 2.626779 1_555
Na14 O56 2.713054 1_555
Na15 O37 2.323770 1_545
Na15 O2 2.396473 1_555
Na15 O38 2.453249 1_655
Na15 O59 2.626765 1_555
Na15 O57 2.713037 1_555
Na16 O38 2.334024 1_555
Na16 O0 2.362624 1_555
Na16 O36 2.494361 1_545
Na16 O57 2.658775 1_555
Na16 O58 2.738621 1_555
Na17 O36 2.331965 1_655
Na17 O37 2.354177 1_555
Na17 O1 2.565868 1_555
Na17 O58 2.685553 1_555
Na17 O59 2.860978 1_555
Na17 O22 2.911854 1_555
Na17 O27 2.919482 1_555
Na17 O32 2.980554 1_555
Na18 O37 2.441039 1_555
Na18 O36 2.467947 1_655
Na18 O38 2.477238 1_665
Na18 O44 2.509430 1_555
Na18 O42 2.675752 1_565
Na18 O43 2.714058 1_665
Na19 O40 2.441039 1_555
Na19 O41 2.467947 1_455
Na19 O39 2.477238 1_565
Na19 O45 2.509430 1_456
Na19 O47 2.675752 1_566
Na19 O46 2.714058 1_466
Na20 O49 2.337480 1_555
Na20 O48 2.361420 1_555
Na20 O50 2.606765 1_555
Na20 O56 2.640376 1_555
Na20 O55 2.742779 1_555
Na20 O54 2.765508 1_555
Na21 O52 2.337480 1_555
Na21 O53 2.361420 1_555
Na21 O51 2.606765 1_555
Na21 O57 2.640376 1_555
Na21 O58 2.742779 1_555
Na21 O59 2.765508 1_555
Na22 O61 2.294814 1_555
Na22 O68 2.575045 1_555
Na22 O66 2.578288 1_555
Na22 O60 2.648051 1_555
Na22 O62 2.650816 1_555
Na22 O67 2.771188 1_555
Na23 O64 2.294814 1_555
Na23 O69 2.575045 1_555
Na23 O71 2.578288 1_555
Na23 O65 2.648051 1_555
Na23 O63 2.650816 1_555
Na23 O70 2.771188 1_555
O0 Si0 1.614209 1_545
O0 Zn0 2.012699 1_555
O1 S0 1.476627 1_555
O1 Zn0 2.309926 1_665
O2 Si1 1.613574 1_655
O2 Zn0 1.978302 1_655
O3 Si2 1.613574 1_555
O3 Zn1 1.978302 1_455
O4 S1 1.476627 1_655
O4 Zn1 2.309926 1_565
O5 Si3 1.614209 1_545
O5 Zn1 2.012699 1_555
O6 Si3 1.635990 1_555
O6 Zn2 1.945845 1_565
O7 Si2 1.647755 1_555
O7 Zn2 2.010265 1_455
O8 S1 1.489957 1_555
O8 Zn2 2.229442 1_465
O9 S0 1.489957 1_555
O9 Zn3 2.229442 1_665
O10 Si1 1.647755 1_555
O10 Zn3 2.010265 1_555
O11 Si0 1.635990 1_555
O11 Zn3 1.945845 1_565
O12 S2 1.471783 1_555
O12 Zn4 2.237121 1_555
O13 S3 1.480781 1_555
O13 Zn4 2.073572 1_555
O14 Si4 1.615322 1_555
O14 Zn4 1.941209 1_555
O15 Si5 1.615322 1_555
O15 Zn5 1.941209 1_555
O16 S4 1.480781 1_555
O16 Zn5 2.073572 1_555
O17 S5 1.471783 1_555
O17 Zn5 2.237121 1_555
O18 S5 1.535970 1_555
O18 Ta0 2.109122 1_554
O19 Si5 1.744917 1_555
O19 Ta0 1.910283 1_554
O20 S4 1.530599 1_555
O20 Ta0 2.135492 1_554
O21 S3 1.530599 1_555
O21 Ta1 2.135492 1_555
O22 Si4 1.744917 1_555
O22 Ta1 1.910283 1_555
O23 S2 1.535970 1_555
O23 Ta1 2.109122 1_555
O24 Si6 1.600295 1_555
O24 Zn6 2.025128 1_556
O25 Si7 1.600567 1_555
O25 Zn6 1.927703 1_556
O26 Si8 1.604355 1_555
O26 Zn6 1.927947 1_556
O27 Si9 1.604355 1_555
O27 Zn7 1.927947 1_555
O28 Si10 1.600567 1_555
O28 Zn7 1.927703 1_555
O29 Si11 1.600295 1_555
O29 Zn7 2.025128 1_555
O30 Si11 1.695484 1_555
O30 Ta2 1.901863 1_555
O31 Si9 1.690400 1_555
O31 Ta2 1.979558 1_555
O32 Si10 1.681776 1_555
O32 Ta2 1.987217 1_555
O33 Si7 1.681776 1_555
O33 Ta3 1.987217 1_555
O34 Si8 1.690400 1_555
O34 Ta3 1.979558 1_555
O35 Si6 1.695484 1_555
O35 Ta3 1.901863 1_555
O36 Si11 1.602804 1_555
O36 Zn0 2.224984 1_565
O37 Si9 1.609871 1_555
O37 Zn0 2.202997 1_665
O38 Si10 1.605075 1_555
O38 Zn0 2.070183 1_555
O39 Si7 1.605078 1_555
O39 Zn1 2.070183 1_455
O40 Si8 1.609862 1_555
O40 Zn1 2.202997 1_465
O41 Si6 1.602810 1_555
O41 Zn1 2.224984 1_565
O42 S2 1.482236 1_555
O42 Zn2 2.425670 1_555
O43 S3 1.474337 1_555
O44 Si4 1.649156 1_555
O44 Zn2 2.254484 1_565
O45 Si5 1.649160 1_555
O45 Zn3 2.254484 1_665
O46 S4 1.474328 1_555
O47 S5 1.482242 1_555
O47 Zn3 2.425670 1_555
O48 Si3 1.644066 1_545
O48 Zn4 2.077782 1_555
O49 Si2 1.640026 1_555
O49 Zn4 2.050113 1_555
O50 S1 1.471259 1_655
O50 Zn4 2.351106 1_555
O51 S0 1.471262 1_555
O51 Zn5 2.351106 1_555
O52 Si1 1.640017 1_655
O52 Zn5 2.050113 1_555
O53 Si0 1.644071 1_545
O53 Zn5 2.077782 1_555
O54 Si6 1.695599 1_555
O54 Ta0 1.937809 1_555
O55 Si7 1.701953 1_655
O55 Ta0 1.942495 1_555
O56 Si8 1.685917 1_545
O56 Ta0 2.022086 1_555
O57 Si9 1.685908 1_545
O57 Ta1 2.022086 1_555
O58 Si10 1.701971 1_555
O58 Ta1 1.942495 1_555
O59 Si11 1.695589 1_655
O59 Ta1 1.937809 1_555
O60 S5 1.479053 1_555
O60 Zn6 2.494481 1_555
O61 Si5 1.635769 1_455
O61 Zn6 2.240921 1_555
O62 S4 1.478711 1_565
O62 Zn6 2.436094 1_555
O63 S3 1.478704 1_565
O63 Zn7 2.436094 1_555
O64 Si4 1.635787 1_555
O64 Zn7 2.240921 1_555
O65 S2 1.479042 1_455
O65 Zn7 2.494481 1_555
O66 Si0 1.707919 1_555
O66 Ta2 1.987023 1_555
O67 S0 1.526956 1_555
O67 Ta2 2.209726 1_555
O68 Si1 1.720647 1_555
O68 Ta2 2.006830 1_555
O69 Si2 1.720651 1_555
O69 Ta3 2.006830 1_555
O70 S1 1.526947 1_555
O70 Ta3 2.209726 1_555
O71 Si3 1.707924 1_555
O71 Ta3 1.987023 1_555
