# generated using pymatgen
data_LiVF5
_symmetry_space_group_name_H-M   'P 1'
_cell_length_a   6.70388781
_cell_length_b   6.94996136
_cell_length_c   7.64286294
_cell_angle_alpha   89.90297500
_cell_angle_beta   90.00000000
_cell_angle_gamma   90.00000000
_symmetry_Int_Tables_number   1
_chemical_formula_structural   LiVF5
_chemical_formula_sum   'Li4 V4 F20'
_cell_volume   356.09393499
_cell_formula_units_Z   4
loop_
 _symmetry_equiv_pos_site_id
 _symmetry_equiv_pos_as_xyz
  1  'x, y, z'
loop_
 _atom_site_type_symbol
 _atom_site_label
 _atom_site_symmetry_multiplicity
 _atom_site_fract_x
 _atom_site_fract_y
 _atom_site_fract_z
 _atom_site_occupancy
  Li  Li0  1  0.25023432  0.75197979  0.98368450  1
  Li  Li1  1  0.24976568  0.75197979  0.48368450  1
  Li  Li2  1  0.75023432  0.24802021  0.51631550  1
  Li  Li3  1  0.74976568  0.24802021  0.01631550  1
  V  V0  1  0.75119412  0.74747016  0.62521971  1
  V  V1  1  0.74880588  0.74747016  0.12521971  1
  V  V2  1  0.25119412  0.25252984  0.87478029  1
  V  V3  1  0.24880588  0.25252984  0.37478029  1
  F  F0  1  0.25230051  0.99089869  0.87617907  1
  F  F1  1  0.24769949  0.99089869  0.37617907  1
  F  F2  1  0.74567657  0.74742030  0.87435846  1
  F  F3  1  0.75432343  0.74742030  0.37435846  1
  F  F4  1  0.02273222  0.75530622  0.62517301  1
  F  F5  1  0.47726778  0.75530622  0.12517301  1
  F  F6  1  0.47968465  0.74211968  0.61911515  1
  F  F7  1  0.02031535  0.74211968  0.11911515  1
  F  F8  1  0.25163276  0.51400016  0.87523552  1
  F  F9  1  0.24836724  0.51400016  0.37523552  1
  F  F10  1  0.75163276  0.48599984  0.62476448  1
  F  F11  1  0.74836724  0.48599984  0.12476448  1
  F  F12  1  0.97968465  0.25788032  0.88088485  1
  F  F13  1  0.52031535  0.25788032  0.38088485  1
  F  F14  1  0.52273222  0.24469378  0.87482699  1
  F  F15  1  0.97726778  0.24469378  0.37482699  1
  F  F16  1  0.24567657  0.25257970  0.62564154  1
  F  F17  1  0.25432343  0.25257970  0.12564154  1
  F  F18  1  0.75230051  0.00910131  0.62382093  1
  F  F19  1  0.74769949  0.00910131  0.12382093  1
loop_
_geom_bond_atom_site_label_1
_geom_bond_atom_site_label_2
_geom_bond_distance
_geom_bond_site_symmetry_2
F0 V2 1.818355 1_565
F0 Li0 1.851449 1_555
F1 V3 1.818355 1_565
F1 Li1 1.851449 1_555
F2 V0 1.904492 1_555
F2 V1 1.917414 1_556
F3 V1 1.904492 1_555
F3 V0 1.917414 1_555
F4 V0 1.821175 1_455
F4 Li1 1.867217 1_555
F5 V1 1.821175 1_555
F5 Li0 1.867217 1_554
F6 V0 1.821148 1_555
F6 Li1 1.857850 1_555
F7 V1 1.821148 1_455
F7 Li0 1.857850 1_554
F8 V2 1.817220 1_555
F8 Li0 1.851294 1_555
F9 V3 1.817220 1_555
F9 Li1 1.851294 1_555
F10 V0 1.817220 1_555
F10 Li2 1.851294 1_555
F11 V1 1.817220 1_555
F11 Li3 1.851294 1_555
F12 V2 1.821148 1_655
F12 Li3 1.857850 1_556
F13 V3 1.821148 1_555
F13 Li2 1.857850 1_555
F14 V2 1.821175 1_555
F14 Li3 1.867217 1_556
F15 V3 1.821175 1_655
F15 Li2 1.867217 1_555
F16 V2 1.904492 1_555
F16 V3 1.917414 1_555
F17 V3 1.904492 1_555
F17 V2 1.917414 1_554
F18 V0 1.818355 1_545
F18 Li2 1.851449 1_555
F19 V1 1.818355 1_545
F19 Li3 1.851449 1_555
