# generated using pymatgen
data_Na6Ca2Nb4Si6(SO12)3
_symmetry_space_group_name_H-M   'P 1'
_cell_length_a   9.12627101
_cell_length_b   9.12627068
_cell_length_c   23.02600742
_cell_angle_alpha   90.00000000
_cell_angle_beta   90.00000000
_cell_angle_gamma   120.00000115
_symmetry_Int_Tables_number   1
_chemical_formula_structural   Na6Ca2Nb4Si6(SO12)3
_chemical_formula_sum   'Na12 Ca4 Nb8 Si12 S6 O72'
_cell_volume   1660.87127432
_cell_formula_units_Z   2
loop_
 _symmetry_equiv_pos_site_id
 _symmetry_equiv_pos_as_xyz
  1  'x, y, z'
loop_
 _atom_site_type_symbol
 _atom_site_label
 _atom_site_symmetry_multiplicity
 _atom_site_fract_x
 _atom_site_fract_y
 _atom_site_fract_z
 _atom_site_occupancy
  Na  Na0  1  0.96634191  0.67903555  0.91787744  1
  Na  Na1  1  0.71269264  0.03365809  0.91787744  1
  Na  Na2  1  0.32096445  0.28730736  0.91787744  1
  Na  Na3  1  0.96634191  0.28730736  0.41787744  1
  Na  Na4  1  0.32096445  0.03365809  0.41787744  1
  Na  Na5  1  0.71269264  0.67903555  0.41787744  1
  Na  Na6  1  -0.00000000  -0.00000000  0.49349013  1
  Na  Na7  1  -0.00000000  -0.00000000  0.99349013  1
  Na  Na8  1  0.66666700  0.33333300  0.82980278  1
  Na  Na9  1  0.66666700  0.33333300  0.32980278  1
  Na  Na10  1  0.33333300  0.66666700  0.16321514  1
  Na  Na11  1  0.33333300  0.66666700  0.66321514  1
  Ca  Ca0  1  -0.00000000  -0.00000000  0.35119229  1
  Ca  Ca1  1  -0.00000000  -0.00000000  0.85119229  1
  Ca  Ca2  1  0.66666700  0.33333300  0.68162211  1
  Ca  Ca3  1  0.66666700  0.33333300  0.18162211  1
  Nb  Nb0  1  -0.00000000  -0.00000000  0.63841058  1
  Nb  Nb1  1  -0.00000000  -0.00000000  0.13841058  1
  Nb  Nb2  1  0.66666700  0.33333300  0.98391327  1
  Nb  Nb3  1  0.66666700  0.33333300  0.48391327  1
  Nb  Nb4  1  0.33333300  0.66666700  0.02191008  1
  Nb  Nb5  1  0.33333300  0.66666700  0.52191008  1
  Nb  Nb6  1  0.33333300  0.66666700  0.31666296  1
  Nb  Nb7  1  0.33333300  0.66666700  0.81666296  1
  Si  Si0  1  0.96244142  0.33850365  0.58433292  1
  Si  Si1  1  0.37606323  0.03755858  0.58433292  1
  Si  Si2  1  0.66149635  0.62393677  0.58433292  1
  Si  Si3  1  0.96244142  0.62393677  0.08433292  1
  Si  Si4  1  0.66149635  0.03755858  0.08433292  1
  Si  Si5  1  0.37606323  0.33850365  0.08433292  1
  Si  Si6  1  0.61762159  0.65742031  0.91837168  1
  Si  Si7  1  0.03979772  0.38237841  0.91837168  1
  Si  Si8  1  0.34257969  0.96020228  0.91837168  1
  Si  Si9  1  0.61762159  0.96020228  0.41837168  1
  Si  Si10  1  0.34257969  0.38237841  0.41837168  1
  Si  Si11  1  0.03979772  0.65742031  0.41837168  1
  S  S0  1  0.29208738  0.99025532  0.25066021  1
  S  S1  1  0.69816793  0.70791262  0.25066021  1
  S  S2  1  0.00974468  0.30183207  0.25066021  1
  S  S3  1  0.29208738  0.30183207  0.75066021  1
  S  S4  1  0.00974468  0.70791262  0.75066021  1
  S  S5  1  0.69816793  0.99025532  0.75066021  1
  O  O0  1  0.21625563  0.00236853  0.30592659  1
  O  O1  1  0.78611290  0.78374437  0.30592659  1
  O  O2  1  0.99763147  0.21388710  0.30592659  1
  O  O3  1  0.21625563  0.21388710  0.80592659  1
  O  O4  1  0.99763147  0.78374437  0.80592659  1
  O  O5  1  0.78611290  0.00236853  0.80592659  1
  O  O6  1  0.79463392  0.97582181  0.70002225  1
  O  O7  1  0.18118789  0.20536608  0.70002225  1
  O  O8  1  0.02417819  0.81881211  0.70002225  1
  O  O9  1  0.79463392  0.81881211  0.20002225  1
  O  O10  1  0.02417819  0.20536608  0.20002225  1
  O  O11  1  0.18118789  0.97582181  0.20002225  1
  O  O12  1  0.89965523  0.37846163  0.64186862  1
  O  O13  1  0.47880740  0.10034477  0.64186862  1
  O  O14  1  0.62153837  0.52119260  0.64186862  1
  O  O15  1  0.89965523  0.52119260  0.14186862  1
  O  O16  1  0.62153837  0.10034477  0.14186862  1
  O  O17  1  0.47880740  0.37846163  0.14186862  1
  O  O18  1  0.46614871  0.30191488  0.02560958  1
  O  O19  1  0.83576717  0.53385129  0.02560958  1
  O  O20  1  0.69808512  0.16423283  0.02560958  1
  O  O21  1  0.46614871  0.16423283  0.52560958  1
  O  O22  1  0.69808512  0.53385129  0.52560958  1
  O  O23  1  0.83576717  0.30191488  0.52560958  1
  O  O24  1  0.51553847  0.67988732  0.97121612  1
  O  O25  1  0.16434785  0.48446153  0.97121612  1
  O  O26  1  0.32011268  0.83565215  0.97121612  1
  O  O27  1  0.51553847  0.83565215  0.47121612  1
  O  O28  1  0.32011268  0.48446153  0.47121612  1
  O  O29  1  0.16434785  0.67988732  0.47121612  1
  O  O30  1  0.13959237  0.63360171  0.35908935  1
  O  O31  1  0.49400834  0.86040763  0.35908935  1
  O  O32  1  0.36639829  0.50599166  0.35908935  1
  O  O33  1  0.13959237  0.50599166  0.85908935  1
  O  O34  1  0.36639829  0.86040763  0.85908935  1
  O  O35  1  0.49400834  0.63360171  0.85908935  1
  O  O36  1  0.01818485  0.82116058  0.41550081  1
  O  O37  1  0.80297573  0.98181515  0.41550081  1
  O  O38  1  0.17883942  0.19702427  0.41550081  1
  O  O39  1  0.01818485  0.19702427  0.91550081  1
  O  O40  1  0.17883942  0.98181515  0.91550081  1
  O  O41  1  0.80297573  0.82116058  0.91550081  1
  O  O42  1  0.97652049  0.16005455  0.59279523  1
  O  O43  1  0.18353406  0.02347951  0.59279523  1
  O  O44  1  0.83994545  0.81646594  0.59279523  1
  O  O45  1  0.97652049  0.81646594  0.09279523  1
  O  O46  1  0.83994545  0.02347951  0.09279523  1
  O  O47  1  0.18353406  0.16005455  0.09279523  1
  O  O48  1  0.67351606  0.13596701  0.74697450  1
  O  O49  1  0.46245196  0.32648394  0.74697450  1
  O  O50  1  0.86403299  0.53754804  0.74697450  1
  O  O51  1  0.67351606  0.53754804  0.24697450  1
  O  O52  1  0.86403299  0.32648394  0.24697450  1
  O  O53  1  0.46245196  0.13596701  0.24697450  1
  O  O54  1  0.62391085  0.48052475  0.92191856  1
  O  O55  1  0.85661490  0.37608915  0.92191856  1
  O  O56  1  0.51947525  0.14338510  0.92191856  1
  O  O57  1  0.62391085  0.14338510  0.42191856  1
  O  O58  1  0.51947525  0.37608915  0.42191856  1
  O  O59  1  0.85661490  0.48052475  0.42191856  1
  O  O60  1  0.33393208  0.48747507  0.06889799  1
  O  O61  1  0.15354199  0.66606792  0.06889799  1
  O  O62  1  0.51252493  0.84645801  0.06889799  1
  O  O63  1  0.33393208  0.84645801  0.56889799  1
  O  O64  1  0.51252493  0.66606792  0.56889799  1
  O  O65  1  0.15354199  0.48747507  0.56889799  1
  O  O66  1  0.29973358  0.82664885  0.25219872  1
  O  O67  1  0.52691428  0.70026642  0.25219872  1
  O  O68  1  0.17335115  0.47308572  0.25219872  1
  O  O69  1  0.29973358  0.47308572  0.75219872  1
  O  O70  1  0.17335115  0.70026642  0.75219872  1
  O  O71  1  0.52691428  0.82664885  0.75219872  1
loop_
_geom_bond_atom_site_label_1
_geom_bond_atom_site_label_2
_geom_bond_distance
_geom_bond_site_symmetry_2
Na0 O41 2.417039 1_555
Na0 O55 2.426268 1_555
Na0 O40 2.457776 1_655
Na0 O4 2.714184 1_555
Na0 O54 2.719464 1_555
Na0 O19 2.783935 1_556
Na1 O39 2.417047 1_655
Na1 O56 2.426251 1_555
Na1 O41 2.457783 1_545
Na1 O5 2.714186 1_555
Na1 O55 2.719463 1_555
Na1 O20 2.783931 1_556
Na2 O40 2.417047 1_545
Na2 O54 2.426265 1_555
Na2 O39 2.457774 1_555
Na2 O3 2.714184 1_555
Na2 O56 2.719479 1_555
Na2 O18 2.783939 1_556
Na3 O37 2.417047 1_545
Na3 O59 2.426251 1_555
Na3 O38 2.457783 1_655
Na3 O2 2.714186 1_555
Na3 O57 2.719463 1_555
Na3 O23 2.783931 1_555
Na4 O38 2.417039 1_555
Na4 O57 2.426268 1_555
Na4 O36 2.457776 1_545
Na4 O0 2.714184 1_555
Na4 O58 2.719464 1_555
Na4 O21 2.783935 1_555
Na5 O36 2.417047 1_655
Na5 O58 2.426265 1_555
Na5 O37 2.457774 1_555
Na5 O1 2.714184 1_555
Na5 O59 2.719479 1_555
Na5 O22 2.783939 1_555
Na6 O38 2.487392 1_555
Na6 O36 2.487392 1_545
Na6 O37 2.487392 1_445
Na6 O44 2.778687 1_445
Na6 O42 2.778687 1_455
Na6 O43 2.778687 1_555
Na7 O39 2.487392 1_555
Na7 O41 2.487392 1_445
Na7 O40 2.487392 1_545
Na7 O45 2.778687 1_446
Na7 O47 2.778687 1_556
Na7 O46 2.778687 1_456
Na8 O56 2.641931 1_555
Na8 O54 2.641931 1_555
Na8 O55 2.641931 1_555
Na8 O50 2.645430 1_555
Na8 O49 2.645430 1_555
Na8 O48 2.645430 1_555
Na9 O57 2.641931 1_555
Na9 O59 2.641931 1_555
Na9 O58 2.641931 1_555
Na9 O51 2.645430 1_555
Na9 O53 2.645430 1_555
Na9 O52 2.645430 1_555
Na10 O66 2.621370 1_555
Na10 O68 2.621370 1_555
Na10 O67 2.621370 1_555
Na10 O60 2.720265 1_555
Na10 O62 2.720265 1_555
Na10 O61 2.720265 1_555
Na11 O70 2.621370 1_555
Na11 O71 2.621370 1_555
Na11 O69 2.621370 1_555
Na11 O63 2.720265 1_555
Na11 O65 2.720265 1_555
Na11 O64 2.720265 1_555
Ca0 O1 2.222453 1_445
Ca0 O2 2.222453 1_455
Ca0 O0 2.222453 1_555
Ca0 O38 2.270453 1_555
Ca0 O36 2.270453 1_545
Ca0 O37 2.270453 1_445
Ca1 O4 2.222453 1_445
Ca1 O3 2.222453 1_555
Ca1 O5 2.222453 1_455
Ca1 O39 2.270453 1_555
Ca1 O41 2.270453 1_445
Ca1 O40 2.270453 1_545
Ca2 O13 2.157079 1_555
Ca2 O14 2.157079 1_555
Ca2 O12 2.157079 1_555
Ca2 O50 2.371773 1_555
Ca2 O49 2.371773 1_555
Ca2 O48 2.371773 1_555
Ca3 O16 2.157079 1_555
Ca3 O15 2.157079 1_555
Ca3 O17 2.157079 1_555
Ca3 O51 2.371773 1_555
Ca3 O53 2.371773 1_555
Ca3 O52 2.371773 1_555
Nb0 O44 1.896253 1_445
Nb0 O42 1.896253 1_455
Nb0 O43 1.896253 1_555
Nb0 O7 2.271669 1_555
Nb0 O8 2.271669 1_545
Nb0 O6 2.271669 1_445
Nb1 O45 1.896253 1_445
Nb1 O47 1.896253 1_555
Nb1 O46 1.896253 1_455
Nb1 O10 2.271669 1_555
Nb1 O9 2.271669 1_445
Nb1 O11 2.271669 1_545
Nb2 O19 1.956562 1_556
Nb2 O20 1.956562 1_556
Nb2 O18 1.956562 1_556
Nb2 O56 2.125710 1_555
Nb2 O54 2.125710 1_555
Nb2 O55 2.125710 1_555
Nb3 O22 1.956562 1_555
Nb3 O21 1.956562 1_555
Nb3 O23 1.956562 1_555
Nb3 O57 2.125710 1_555
Nb3 O59 2.125710 1_555
Nb3 O58 2.125710 1_555
Nb4 O60 1.963150 1_555
Nb4 O62 1.963150 1_555
Nb4 O61 1.963150 1_555
Nb4 O25 1.985337 1_554
Nb4 O26 1.985337 1_554
Nb4 O24 1.985337 1_554
Nb5 O63 1.963150 1_555
Nb5 O65 1.963150 1_555
Nb5 O64 1.963150 1_555
Nb5 O28 1.985337 1_555
Nb5 O27 1.985337 1_555
Nb5 O29 1.985337 1_555
Nb6 O31 1.907391 1_555
Nb6 O32 1.907391 1_555
Nb6 O30 1.907391 1_555
Nb6 O66 2.208336 1_555
Nb6 O68 2.208336 1_555
Nb6 O67 2.208336 1_555
Nb7 O34 1.907391 1_555
Nb7 O33 1.907391 1_555
Nb7 O35 1.907391 1_555
Nb7 O70 2.208336 1_555
Nb7 O71 2.208336 1_555
Nb7 O69 2.208336 1_555
O0 S0 1.478883 1_545
O1 S1 1.478883 1_555
O2 S2 1.478883 1_655
O3 S3 1.478883 1_555
O4 S4 1.478883 1_655
O5 S5 1.478883 1_545
O6 S5 1.505958 1_555
O7 S3 1.505958 1_555
O8 S4 1.505958 1_555
O9 S1 1.505958 1_555
O10 S2 1.505958 1_555
O11 S0 1.505958 1_555
O12 Si0 1.557374 1_555
O13 Si1 1.557374 1_555
O14 Si2 1.557374 1_555
O15 Si3 1.557374 1_555
O16 Si4 1.557374 1_555
O17 Si5 1.557374 1_555
O18 Si5 1.700088 1_555
O19 Si3 1.700088 1_555
O20 Si4 1.700088 1_555
O21 Si1 1.700088 1_555
O22 Si2 1.700088 1_555
O23 Si0 1.700088 1_555
O24 Si6 1.606738 1_555
O25 Si7 1.606738 1_555
O26 Si8 1.606738 1_555
O27 Si9 1.606738 1_555
O28 Si10 1.606738 1_555
O29 Si11 1.606738 1_555
O30 Si11 1.714065 1_555
O31 Si9 1.714065 1_555
O32 Si10 1.714065 1_555
O33 Si7 1.714065 1_555
O34 Si8 1.714065 1_555
O35 Si6 1.714065 1_555
O36 Si11 1.603456 1_555
O37 Si9 1.603465 1_555
O38 Si10 1.603462 1_555
O39 Si7 1.603465 1_555
O40 Si8 1.603456 1_555
O41 Si6 1.603462 1_555
O42 Si0 1.707626 1_555
O43 Si1 1.707635 1_555
O44 Si2 1.707631 1_555
O45 Si3 1.707635 1_555
O46 Si4 1.707626 1_555
O47 Si5 1.707631 1_555
O48 S5 1.457867 1_545
O49 S3 1.457876 1_555
O50 S4 1.457873 1_655
O51 S1 1.457876 1_555
O52 S2 1.457867 1_655
O53 S0 1.457873 1_545
O54 Si6 1.645875 1_555
O55 Si7 1.645857 1_655
O56 Si8 1.645865 1_545
O57 Si9 1.645857 1_545
O58 Si10 1.645875 1_555
O59 Si11 1.645865 1_655
O60 Si5 1.626434 1_555
O61 Si3 1.626417 1_455
O62 Si4 1.626422 1_565
O63 Si1 1.626417 1_565
O64 Si2 1.626434 1_555
O65 Si0 1.626422 1_455
O66 S0 1.529612 1_555
O67 S1 1.529621 1_555
O68 S2 1.529617 1_555
O69 S3 1.529621 1_555
O70 S4 1.529612 1_555
O71 S5 1.529617 1_555
