# generated using pymatgen
data_Ba2MgNiMoO6
_symmetry_space_group_name_H-M   'P 1'
_cell_length_a   6.26125489
_cell_length_b   6.25667336
_cell_length_c   6.26154571
_cell_angle_alpha   56.75997529
_cell_angle_beta   56.82113512
_cell_angle_gamma   56.84713319
_symmetry_Int_Tables_number   1
_chemical_formula_structural   Ba2MgNiMoO6
_chemical_formula_sum   'Ba2 Mg1 Ni1 Mo1 O6'
_cell_volume   160.67648340
_cell_formula_units_Z   1
loop_
 _symmetry_equiv_pos_site_id
 _symmetry_equiv_pos_as_xyz
  1  'x, y, z'
loop_
 _atom_site_type_symbol
 _atom_site_label
 _atom_site_symmetry_multiplicity
 _atom_site_fract_x
 _atom_site_fract_y
 _atom_site_fract_z
 _atom_site_occupancy
  Ba  Ba0  1  0.71684237  0.71671520  0.71623844  1
  Ba  Ba1  1  0.25909046  0.25856638  0.25882400  1
  Mg  Mg0  1  0.93135664  0.93107235  0.93110819  1
  Ni  Ni0  1  0.08090762  0.08202606  0.08190120  1
  Mo  Mo0  1  0.48281753  0.48249593  0.48278972  1
  O  O0  1  0.25559778  0.25531454  0.71158449  1
  O  O1  1  0.71474045  0.24958023  0.71713913  1
  O  O2  1  0.71271254  0.25565279  0.25704406  1
  O  O3  1  0.71574793  0.71605444  0.25039522  1
  O  O4  1  0.25688160  0.71175985  0.25484489  1
  O  O5  1  0.24830508  0.71576022  0.71573266  1
loop_
_geom_bond_atom_site_label_1
_geom_bond_atom_site_label_2
_geom_bond_distance
_geom_bond_site_symmetry_2
Ba0 O3 2.922925 1_555
Ba0 O1 2.926835 1_555
Ba0 O5 2.938639 1_555
Ba0 O2 2.999174 1_565
Ba0 O4 3.003546 1_556
Ba0 O0 3.006182 1_565
Ba0 O0 3.007871 1_655
Ba0 O2 3.010944 1_556
Ba0 O4 3.012038 1_655
Ba1 Ni0 2.781003 1_555
Ba1 O0 2.812011 1_555
Ba1 O4 2.814394 1_555
Ba1 O2 2.824250 1_555
Ba1 O1 3.014826 1_554
Ba1 O5 3.018447 1_545
Ba1 O3 3.019216 1_545
Ba1 O5 3.021099 1_554
Ba1 O3 3.024855 1_455
Ba1 O1 3.030274 1_455
Mg0 O5 1.926173 1_655
Mg0 O1 1.926506 1_565
Mg0 O3 1.926924 1_556
Ni0 O2 1.870087 1_455
Ni0 O0 1.874445 1_554
Ni0 O4 1.875454 1_545
Mo0 O2 1.955066 1_555
Mo0 O4 1.960087 1_555
Mo0 O0 1.960964 1_555
Mo0 O3 2.014179 1_555
Mo0 O1 2.014680 1_555
Mo0 O5 2.014757 1_555
