# generated using pymatgen
data_Ir
_symmetry_space_group_name_H-M   'P 1'
_cell_length_a   5.40232882
_cell_length_b   5.40232882
_cell_length_c   5.40232882
_cell_angle_alpha   109.47122063
_cell_angle_beta   109.47122063
_cell_angle_gamma   109.47122063
_symmetry_Int_Tables_number   1
_chemical_formula_structural   Ir
_chemical_formula_sum   Ir8
_cell_volume   121.37273925
_cell_formula_units_Z   8
loop_
 _symmetry_equiv_pos_site_id
 _symmetry_equiv_pos_as_xyz
  1  'x, y, z'
loop_
 _atom_site_type_symbol
 _atom_site_label
 _atom_site_symmetry_multiplicity
 _atom_site_fract_x
 _atom_site_fract_y
 _atom_site_fract_z
 _atom_site_occupancy
  Ir  Ir0_0  1  0.00000000  0.00000000  0.00000000  1
  Ir  Ir0_1  1  0.00000000  0.00000000  0.50000000  1
  Ir  Ir0_2  1  0.00000000  0.50000000  0.00000000  1
  Ir  Ir0_3  1  0.00000000  0.50000000  0.50000000  1
  Ir  Ir0_4  1  0.50000000  0.00000000  0.00000000  1
  Ir  Ir0_5  1  0.50000000  0.00000000  0.50000000  1
  Ir  Ir0_6  1  0.50000000  0.50000000  0.00000000  1
  Ir  Ir0_7  1  0.50000000  0.50000000  0.50000000  1
loop_
_geom_bond_atom_site_label_1
_geom_bond_atom_site_label_2
_geom_bond_distance
_geom_bond_site_symmetry_2
Ir0_0 Ir0_1 2.701164 1_554
Ir0_0 Ir0_4 2.701164 1_455
Ir0_0 Ir0_7 2.701164 1_444
Ir0_0 Ir0_4 2.701164 1_555
Ir0_0 Ir0_1 2.701164 1_555
Ir0_0 Ir0_2 2.701164 1_545
Ir0_0 Ir0_2 2.701164 1_555
Ir0_0 Ir0_7 2.701164 1_555
Ir0_1 Ir0_5 2.701164 1_555
Ir0_1 Ir0_6 2.701164 1_445
Ir0_1 Ir0_3 2.701164 1_545
Ir0_1 Ir0_3 2.701164 1_555
Ir0_1 Ir0_5 2.701164 1_455
Ir0_1 Ir0_6 2.701164 1_556
Ir0_2 Ir0_3 2.701164 1_555
Ir0_2 Ir0_6 2.701164 1_555
Ir0_2 Ir0_5 2.701164 1_454
Ir0_2 Ir0_5 2.701164 1_565
Ir0_2 Ir0_3 2.701164 1_554
Ir0_2 Ir0_6 2.701164 1_455
Ir0_3 Ir0_7 2.701164 1_455
Ir0_3 Ir0_4 2.701164 1_455
Ir0_3 Ir0_4 2.701164 1_566
Ir0_3 Ir0_7 2.701164 1_555
Ir0_4 Ir0_5 2.701164 1_554
Ir0_4 Ir0_6 2.701164 1_545
Ir0_4 Ir0_6 2.701164 1_555
Ir0_4 Ir0_5 2.701164 1_555
Ir0_5 Ir0_7 2.701164 1_555
Ir0_5 Ir0_7 2.701164 1_545
Ir0_6 Ir0_7 2.701164 1_555
Ir0_6 Ir0_7 2.701164 1_554
