# generated using pymatgen
data_Na21Mg10Nb2P15(SO24)3
_symmetry_space_group_name_H-M   'P 1'
_cell_length_a   8.99144296
_cell_length_b   9.00179316
_cell_length_c   22.15466780
_cell_angle_alpha   89.86230733
_cell_angle_beta   89.91155013
_cell_angle_gamma   120.05631143
_symmetry_Int_Tables_number   1
_chemical_formula_structural   Na21Mg10Nb2P15(SO24)3
_chemical_formula_sum   'Na21 Mg10 Nb2 P15 S3 O72'
_cell_volume   1552.04440657
_cell_formula_units_Z   1
loop_
 _symmetry_equiv_pos_site_id
 _symmetry_equiv_pos_as_xyz
  1  'x, y, z'
loop_
 _atom_site_type_symbol
 _atom_site_label
 _atom_site_symmetry_multiplicity
 _atom_site_fract_x
 _atom_site_fract_y
 _atom_site_fract_z
 _atom_site_occupancy
  Na  Na0  1  0.36384085  0.35502045  0.24806361  1
  Na  Na1  1  0.98835871  0.35466841  0.74245574  1
  Na  Na2  1  0.36506576  0.00980953  0.74256755  1
  Na  Na3  1  0.29412814  0.32625750  0.58088619  1
  Na  Na4  1  0.03968177  0.69936848  0.58321768  1
  Na  Na5  1  0.66724989  0.97722201  0.58228034  1
  Na  Na6  1  0.30073838  0.97622775  0.08687089  1
  Na  Na7  1  0.66070643  0.69168375  0.08926958  1
  Na  Na8  1  0.04053353  0.33207043  0.08766127  1
  Na  Na9  1  0.96505396  0.66881090  0.91396298  1
  Na  Na10  1  0.70470348  0.03580431  0.91443178  1
  Na  Na11  1  0.33133366  0.29474150  0.91763308  1
  Na  Na12  1  0.96406722  0.29582945  0.41655288  1
  Na  Na13  1  0.33164949  0.03696556  0.41714276  1
  Na  Na14  1  0.70388318  0.66828572  0.41334081  1
  Na  Na15  1  0.00573162  0.00666237  0.49869128  1
  Na  Na16  1  0.00723404  0.00618290  0.99923401  1
  Na  Na17  1  0.66582726  0.34220515  0.82890908  1
  Na  Na18  1  0.67619256  0.33298693  0.32911135  1
  Na  Na19  1  0.33316025  0.66879304  0.16846397  1
  Na  Na20  1  0.33525729  0.66675159  0.65934952  1
  Mg  Mg0  1  0.99797697  0.99959081  0.34782524  1
  Mg  Mg1  1  0.99995296  0.99841454  0.84843803  1
  Mg  Mg2  1  0.00338280  0.00401256  0.65133175  1
  Mg  Mg3  1  0.00426986  0.00410078  0.15804811  1
  Mg  Mg4  1  0.66736391  0.33330420  0.68324416  1
  Mg  Mg5  1  0.66661022  0.33561894  0.18859638  1
  Mg  Mg6  1  0.66005415  0.33146344  0.98140813  1
  Mg  Mg7  1  0.66505549  0.32590163  0.48223634  1
  Mg  Mg8  1  0.33377173  0.66143572  0.01539690  1
  Mg  Mg9  1  0.32856696  0.66691255  0.51592624  1
  Nb  Nb0  1  0.33295502  0.67044878  0.31275735  1
  Nb  Nb1  1  0.33647839  0.66626537  0.81293136  1
  P  P0  1  0.29434441  0.00131571  0.24983292  1
  P  P1  1  0.70870850  0.70644015  0.25029466  1
  P  P2  1  0.99505090  0.29314329  0.25070259  1
  P  P3  1  0.29599453  0.29237574  0.75105468  1
  P  P4  1  0.99418359  0.70473128  0.75149430  1
  P  P5  1  0.70977711  0.00111655  0.75049395  1
  P  P6  1  0.96232853  0.33297797  0.58351760  1
  P  P7  1  0.37055821  0.03795512  0.58384421  1
  P  P8  1  0.37051143  0.33251957  0.08287768  1
  P  P9  1  0.63012053  0.67017938  0.91919667  1
  P  P10  1  0.03841894  0.37102946  0.91877003  1
  P  P11  1  0.33192294  0.95856912  0.91909949  1
  P  P12  1  0.62789117  0.95807684  0.41900153  1
  P  P13  1  0.33297518  0.37316693  0.41855314  1
  P  P14  1  0.03904075  0.66899455  0.41868678  1
  S  S0  1  0.66718121  0.62557653  0.58309583  1
  S  S1  1  0.95906727  0.62574311  0.08205201  1
  S  S2  1  0.66697399  0.04106646  0.08237385  1
  O  O0  1  0.20973118  0.02663504  0.30548830  1
  O  O1  1  0.81109490  0.79016081  0.30664183  1
  O  O2  1  0.97862252  0.19072234  0.30736489  1
  O  O3  1  0.21427792  0.18663575  0.80830912  1
  O  O4  1  0.97771559  0.78619125  0.80932192  1
  O  O5  1  0.81538936  0.02666957  0.80748657  1
  O  O6  1  0.78313330  0.96846953  0.69377297  1
  O  O7  1  0.18162692  0.22189018  0.69542294  1
  O  O8  1  0.03664004  0.81800770  0.69550669  1
  O  O9  1  0.78110584  0.81127088  0.19188624  1
  O  O10  1  0.03929147  0.22414865  0.19356205  1
  O  O11  1  0.18855235  0.96543225  0.19181797  1
  O  O12  1  0.88064677  0.36270668  0.64040601  1
  O  O13  1  0.47994953  0.12140669  0.64076724  1
  O  O14  1  0.64054373  0.51669851  0.63602331  1
  O  O15  1  0.87528542  0.51505609  0.13444688  1
  O  O16  1  0.64350235  0.12643820  0.13468700  1
  O  O17  1  0.48421487  0.35972909  0.13817143  1
  O  O18  1  0.45201644  0.30488043  0.02515491  1
  O  O19  1  0.85837154  0.54821679  0.02598842  1
  O  O20  1  0.69471242  0.14383925  0.02621025  1
  O  O21  1  0.45310126  0.15074695  0.52730045  1
  O  O22  1  0.69342620  0.54974123  0.52743736  1
  O  O23  1  0.85192215  0.30776406  0.52699207  1
  O  O24  1  0.54869889  0.69912498  0.97496853  1
  O  O25  1  0.14982195  0.45473402  0.97398872  1
  O  O26  1  0.30484676  0.84669930  0.97447387  1
  O  O27  1  0.54604570  0.84809462  0.47510564  1
  O  O28  1  0.30577876  0.45710600  0.47402491  1
  O  O29  1  0.14863301  0.69819267  0.47466203  1
  O  O30  1  0.13879070  0.64430210  0.36336293  1
  O  O31  1  0.50452934  0.85798249  0.36372930  1
  O  O32  1  0.35616855  0.49147807  0.36151130  1
  O  O33  1  0.13365052  0.49082471  0.86186857  1
  O  O34  1  0.35505425  0.86274507  0.86233172  1
  O  O35  1  0.50537883  0.64525127  0.86393533  1
  O  O36  1  0.02077803  0.82858105  0.40960507  1
  O  O37  1  0.80653729  0.97774235  0.41030041  1
  O  O38  1  0.17290797  0.19397015  0.41086481  1
  O  O39  1  0.01990863  0.19270224  0.91073151  1
  O  O40  1  0.17262184  0.97818661  0.91128375  1
  O  O41  1  0.80815173  0.82932717  0.91018990  1
  O  O42  1  0.97870645  0.16845762  0.58872520  1
  O  O43  1  0.18640695  0.01418312  0.58909585  1
  O  O44  1  0.82275039  0.80025645  0.58910378  1
  O  O45  1  0.97567440  0.79915593  0.08732368  1
  O  O46  1  0.82042236  0.01847200  0.08772884  1
  O  O47  1  0.18688146  0.16969829  0.08799777  1
  O  O48  1  0.67900393  0.15548735  0.74581585  1
  O  O49  1  0.47556529  0.31555355  0.74392084  1
  O  O50  1  0.84664925  0.51906555  0.74555560  1
  O  O51  1  0.67082004  0.51971994  0.24529610  1
  O  O52  1  0.84371787  0.32265206  0.24303858  1
  O  O53  1  0.47468686  0.15984355  0.24380762  1
  O  O54  1  0.64138118  0.50458398  0.91998483  1
  O  O55  1  0.86086693  0.35928433  0.92068971  1
  O  O56  1  0.49848213  0.13559470  0.91979492  1
  O  O57  1  0.63818262  0.13454957  0.41927653  1
  O  O58  1  0.49924080  0.36216969  0.41997046  1
  O  O59  1  0.86176798  0.50310029  0.41999432  1
  O  O60  1  0.35080031  0.49625303  0.07838813  1
  O  O61  1  0.13614570  0.64881935  0.07764769  1
  O  O62  1  0.50896246  0.86676069  0.07777435  1
  O  O63  1  0.35475265  0.85711585  0.57894875  1
  O  O64  1  0.51209545  0.64575380  0.57843368  1
  O  O65  1  0.14678194  0.49363275  0.57885960  1
  O  O66  1  0.31479552  0.83571427  0.25869429  1
  O  O67  1  0.51803964  0.68462589  0.25758169  1
  O  O68  1  0.16908414  0.47954521  0.25835629  1
  O  O69  1  0.31202096  0.47830646  0.75986792  1
  O  O70  1  0.16757707  0.68685868  0.75900281  1
  O  O71  1  0.51927541  0.83608842  0.75904094  1
loop_
_geom_bond_atom_site_label_1
_geom_bond_atom_site_label_2
_geom_bond_distance
_geom_bond_site_symmetry_2
Na0 O51 2.391717 1_555
Na0 O53 2.417364 1_555
Na0 O68 2.518193 1_555
Na0 O67 2.579397 1_555
Na0 O17 2.654442 1_555
Na0 O32 2.816022 1_555
Na0 O10 2.817015 1_555
Na0 O0 2.854874 1_555
Na1 O50 2.388991 1_555
Na1 O48 2.441372 1_555
Na1 O12 2.476074 1_555
Na1 O69 2.572507 1_655
Na1 O70 2.617873 1_655
Na1 O7 2.759555 1_655
Na1 O5 2.930028 1_555
Na1 O33 2.937714 1_655
Na2 O49 2.413345 1_555
Na2 O48 2.446616 1_555
Na2 O13 2.470884 1_555
Na2 O70 2.561068 1_545
Na2 O71 2.583034 1_545
Na2 O8 2.774763 1_545
Na2 O3 2.942793 1_555
Na2 O34 2.943444 1_545
Na3 O65 2.454937 1_555
Na3 O42 2.460322 1_455
Na3 O43 2.476775 1_555
Na3 O64 2.543281 1_555
Na3 O28 2.620216 1_555
Na3 O7 2.715430 1_555
Na3 O21 2.866115 1_555
Na3 O14 2.967473 1_555
Na4 O63 2.453530 1_555
Na4 O43 2.458794 1_565
Na4 O65 2.480641 1_555
Na4 O44 2.533880 1_455
Na4 O29 2.597521 1_555
Na4 O8 2.715124 1_555
Na4 O12 2.910212 1_455
Na4 O22 2.975496 1_455
Na5 O42 2.449420 1_565
Na5 O63 2.455064 1_555
Na5 O64 2.586210 1_555
Na5 O44 2.597307 1_555
Na5 O27 2.632299 1_555
Na5 O6 2.698599 1_555
Na5 O23 2.852730 1_565
Na5 O13 2.896666 1_565
Na6 O47 2.422366 1_565
Na6 O11 2.515227 1_555
Na6 O62 2.522840 1_555
Na6 O45 2.533105 1_455
Na6 O61 2.559876 1_555
Na6 O26 2.760145 1_554
Na6 O16 2.879500 1_565
Na6 O18 2.901037 1_565
Na7 O60 2.451790 1_555
Na7 O45 2.492603 1_555
Na7 O9 2.520181 1_555
Na7 O46 2.546500 1_565
Na7 O62 2.561901 1_555
Na7 O24 2.739698 1_554
Na7 O17 2.801855 1_555
Na8 O47 2.407193 1_555
Na8 O60 2.424020 1_555
Na8 O46 2.507880 1_455
Na8 O10 2.535084 1_555
Na8 O61 2.541495 1_555
Na8 O25 2.723819 1_554
Na8 O15 2.906949 1_455
Na8 O20 3.023179 1_455
Na9 O40 2.456622 1_655
Na9 O55 2.458898 1_555
Na9 O41 2.475247 1_555
Na9 O54 2.522140 1_555
Na9 O4 2.524046 1_555
Na9 O19 2.682341 1_556
Na9 O33 2.938285 1_655
Na9 O26 2.969526 1_655
Na10 O56 2.434648 1_555
Na10 O39 2.454171 1_655
Na10 O41 2.461908 1_545
Na10 O55 2.525245 1_555
Na10 O5 2.585850 1_555
Na10 O20 2.680462 1_556
Na10 O24 2.944111 1_545
Na10 O34 2.959202 1_545
Na11 O54 2.463440 1_555
Na11 O40 2.470915 1_545
Na11 O39 2.476602 1_555
Na11 O56 2.543622 1_555
Na11 O18 2.601936 1_556
Na11 O3 2.629496 1_555
Na11 O25 2.941691 1_555
Na11 O35 2.974860 1_555
Na12 O59 2.460226 1_555
Na12 O38 2.471274 1_655
Na12 O37 2.482766 1_545
Na12 O57 2.536739 1_555
Na12 O2 2.626417 1_555
Na12 O23 2.667774 1_555
Na12 O28 2.953275 1_655
Na12 O30 2.955805 1_655
Na13 O57 2.438391 1_555
Na13 O38 2.464633 1_555
Na13 O36 2.471925 1_545
Na13 O58 2.535113 1_555
Na13 O21 2.664114 1_555
Na13 O0 2.690120 1_555
Na13 O29 2.929107 1_545
Na13 O31 2.987422 1_545
Na14 O58 2.432857 1_555
Na14 O37 2.457590 1_555
Na14 O36 2.467377 1_655
Na14 O59 2.522338 1_555
Na14 O1 2.577195 1_555
Na14 O22 2.724517 1_555
Na14 O32 2.943088 1_555
Na14 O27 2.968516 1_555
Na15 O38 2.514925 1_555
Na15 O42 2.554600 1_455
Na15 O43 2.560421 1_555
Na15 O37 2.580049 1_445
Na15 O36 2.591351 1_545
Na15 O44 2.661050 1_445
Na16 O47 2.507004 1_556
Na16 O40 2.537796 1_545
Na16 O39 2.543303 1_555
Na16 O41 2.608035 1_445
Na16 O45 2.610247 1_446
Na16 O46 2.618111 1_456
Na17 O50 2.443762 1_555
Na17 O49 2.475966 1_555
Na17 O48 2.538052 1_555
Na17 O54 2.567266 1_555
Na17 O56 2.635697 1_555
Na17 O55 2.641228 1_555
Na18 O52 2.458913 1_555
Na18 O51 2.518443 1_555
Na18 O53 2.545504 1_555
Na18 O59 2.578556 1_555
Na18 O57 2.582088 1_555
Na18 O58 2.657775 1_555
Na19 O67 2.540861 1_555
Na19 O68 2.549885 1_555
Na19 O66 2.557947 1_555
Na19 O60 2.584686 1_555
Na19 O62 2.619646 1_555
Na19 O61 2.629107 1_555
Na20 O63 2.413203 1_555
Na20 O65 2.420248 1_555
Na20 O64 2.464031 1_555
Na20 O71 2.727697 1_555
Na20 O70 2.728589 1_555
Na20 O69 2.739697 1_555
Mg0 O1 2.012444 1_555
Mg0 O2 2.021632 1_565
Mg0 O0 2.023177 1_665
Mg0 O37 2.137666 1_555
Mg0 O36 2.142898 1_655
Mg0 O38 2.178956 1_665
Mg1 O4 2.016541 1_555
Mg1 O5 2.016949 1_565
Mg1 O3 2.022774 1_665
Mg1 O41 2.125056 1_555
Mg1 O40 2.161192 1_655
Mg1 O39 2.166483 1_665
Mg2 O7 2.057861 1_555
Mg2 O6 2.065530 1_445
Mg2 O8 2.084549 1_545
Mg2 O43 2.111670 1_555
Mg2 O42 2.117651 1_455
Mg2 O44 2.222097 1_445
Mg3 O11 2.001691 1_545
Mg3 O10 2.006321 1_555
Mg3 O9 2.025220 1_445
Mg3 O47 2.203600 1_555
Mg3 O46 2.323268 1_455
Mg3 O45 2.337680 1_445
Mg4 O12 2.033019 1_555
Mg4 O13 2.038968 1_555
Mg4 O14 2.066222 1_555
Mg4 O49 2.126603 1_555
Mg4 O50 2.149039 1_555
Mg4 O48 2.156942 1_555
Mg5 O52 2.048360 1_555
Mg5 O53 2.055916 1_555
Mg5 O51 2.067157 1_555
Mg5 O17 2.084646 1_555
Mg5 O15 2.125230 1_555
Mg5 O16 2.152904 1_555
Mg6 O18 2.010101 1_556
Mg6 O20 2.110688 1_556
Mg6 O19 2.119369 1_556
Mg6 O56 2.129421 1_555
Mg6 O54 2.135698 1_555
Mg6 O55 2.161105 1_555
Mg7 O21 2.022706 1_555
Mg7 O23 2.027822 1_555
Mg7 O57 2.136989 1_555
Mg7 O22 2.150248 1_555
Mg7 O58 2.173508 1_555
Mg7 O59 2.174870 1_555
Mg8 O25 1.992361 1_554
Mg8 O24 1.997087 1_554
Mg8 O26 2.024549 1_554
Mg8 O60 2.097793 1_555
Mg8 O61 2.204994 1_555
Mg8 O62 2.215822 1_555
Mg9 O29 1.998046 1_555
Mg9 O28 2.022885 1_555
Mg9 O27 2.023476 1_555
Mg9 O65 2.115960 1_555
Mg9 O63 2.131936 1_555
Mg9 O64 2.235571 1_555
Nb0 O66 1.977330 1_555
Nb0 O31 1.977574 1_555
Nb0 O30 1.985279 1_555
Nb0 O68 2.013909 1_555
Nb0 O67 2.015008 1_555
Nb0 O32 2.033449 1_555
Nb1 O35 1.977622 1_555
Nb1 O69 1.982625 1_555
Nb1 O71 1.982966 1_555
Nb1 O70 2.013636 1_555
Nb1 O34 2.016894 1_555
Nb1 O33 2.023891 1_555
O0 P0 1.524224 1_555
O1 P1 1.512267 1_555
O2 P2 1.518276 1_555
O3 P3 1.531537 1_555
O4 P4 1.521077 1_555
O5 P5 1.528152 1_555
O6 P5 1.514570 1_565
O7 P3 1.527482 1_555
O8 P4 1.525317 1_455
O9 P1 1.537834 1_555
O10 P2 1.547982 1_455
O11 P0 1.535954 1_565
O12 P6 1.547618 1_555
O13 P7 1.546094 1_555
O14 S0 1.466762 1_555
O15 S1 1.465460 1_555
O16 S2 1.464361 1_555
O17 P8 1.536340 1_555
O18 P8 1.554236 1_555
O19 S1 1.491383 1_555
O20 S2 1.492888 1_555
O21 P7 1.545050 1_555
O22 S0 1.485510 1_555
O23 P6 1.544268 1_555
O24 P9 1.523293 1_555
O25 P10 1.523111 1_555
O26 P11 1.525115 1_555
O27 P12 1.525827 1_555
O28 P13 1.526333 1_555
O29 P14 1.524423 1_555
O30 P14 1.598042 1_555
O31 P12 1.596886 1_555
O32 P13 1.595314 1_555
O33 P10 1.597017 1_555
O34 P11 1.597864 1_555
O35 P9 1.600221 1_555
O36 P14 1.538238 1_555
O37 P12 1.537107 1_555
O38 P13 1.542396 1_555
O39 P10 1.539523 1_555
O40 P11 1.538433 1_555
O41 P9 1.534632 1_555
O42 P6 1.563965 1_555
O43 P7 1.563750 1_555
O44 S0 1.498403 1_555
O45 S1 1.496723 1_555
O46 S2 1.496852 1_555
O47 P8 1.568993 1_555
O48 P5 1.550122 1_555
O49 P3 1.528742 1_555
O50 P4 1.533328 1_555
O51 P1 1.543015 1_555
O52 P2 1.521006 1_555
O53 P0 1.537570 1_555
O54 P9 1.543916 1_555
O55 P10 1.546716 1_655
O56 P11 1.546635 1_545
O57 P12 1.544331 1_545
O58 P13 1.547285 1_555
O59 P14 1.544946 1_655
O60 P8 1.573113 1_555
O61 S1 1.501952 1_455
O62 S2 1.503015 1_565
O63 P7 1.565600 1_565
O64 S0 1.497396 1_555
O65 P6 1.564895 1_455
O66 P0 1.602455 1_565
O67 P1 1.632642 1_555
O68 P2 1.632467 1_455
O69 P3 1.618721 1_555
O70 P4 1.654130 1_455
O71 P5 1.620317 1_565
