# generated using pymatgen
data_Na6Ca16Ta8Si3(S11O48)3
_symmetry_space_group_name_H-M   'P 1'
_cell_length_a   18.20095166
_cell_length_b   9.10874206
_cell_length_c   23.65981996
_cell_angle_alpha   90.03386833
_cell_angle_beta   89.99649619
_cell_angle_gamma   120.01506783
_symmetry_Int_Tables_number   1
_chemical_formula_structural   Na6Ca16Ta8Si3(S11O48)3
_chemical_formula_sum   'Na6 Ca16 Ta8 Si3 S33 O144'
_cell_volume   3396.47572606
_cell_formula_units_Z   1
loop_
 _symmetry_equiv_pos_site_id
 _symmetry_equiv_pos_as_xyz
  1  'x, y, z'
loop_
 _atom_site_type_symbol
 _atom_site_label
 _atom_site_symmetry_multiplicity
 _atom_site_fract_x
 _atom_site_fract_y
 _atom_site_fract_z
 _atom_site_occupancy
  Na  Na0  1  0.00200933  0.98031823  0.49033979  1
  Na  Na1  1  0.49146204  0.01279362  0.00027661  1
  Na  Na2  1  0.33655296  0.33525847  0.84187904  1
  Na  Na3  1  0.84954322  0.36036136  0.82585607  1
  Na  Na4  1  0.33491112  0.34072507  0.33285821  1
  Na  Na5  1  0.83870671  0.34241754  0.34012992  1
  Ca  Ca0  1  0.00013717  0.99490408  0.35405047  1
  Ca  Ca1  1  0.49875194  0.99686657  0.35337090  1
  Ca  Ca2  1  0.99701450  0.99275631  0.85708524  1
  Ca  Ca3  1  0.50169074  0.00828602  0.85899523  1
  Ca  Ca4  1  0.49674195  0.99973360  0.15366108  1
  Ca  Ca5  1  0.33199874  0.33221584  0.68582843  1
  Ca  Ca6  1  0.83788237  0.33858833  0.68426022  1
  Ca  Ca7  1  0.34008405  0.34024098  0.18207979  1
  Ca  Ca8  1  0.82751887  0.32483239  0.18312505  1
  Ca  Ca9  1  0.33224118  0.32613588  0.97760319  1
  Ca  Ca10  1  0.84141955  0.34141091  0.98112496  1
  Ca  Ca11  1  0.33220483  0.32995097  0.48070035  1
  Ca  Ca12  1  0.84401325  0.34763230  0.47881404  1
  Ca  Ca13  1  0.16822407  0.66975240  0.02373980  1
  Ca  Ca14  1  0.16156580  0.66651606  0.52207264  1
  Ca  Ca15  1  0.66683167  0.66639536  0.52328365  1
  Ta  Ta0  1  0.00105246  0.99117645  0.65176144  1
  Ta  Ta1  1  0.49860164  0.99940061  0.64736504  1
  Ta  Ta2  1  0.00084155  0.99949072  0.15010120  1
  Ta  Ta3  1  0.66211170  0.65451781  0.01936197  1
  Ta  Ta4  1  0.16232269  0.66380928  0.31623572  1
  Ta  Ta5  1  0.66783475  0.66773401  0.31476642  1
  Ta  Ta6  1  0.16320991  0.66713747  0.81062595  1
  Ta  Ta7  1  0.66263686  0.65767016  0.81079985  1
  Si  Si0  1  0.99821063  0.70366191  0.75456204  1
  Si  Si1  1  0.52130149  0.37806511  0.91577657  1
  Si  Si2  1  0.01563793  0.66444944  0.41821569  1
  S  S0  1  0.14413981  0.99060896  0.24962236  1
  S  S1  1  0.65046126  0.99334659  0.25399957  1
  S  S2  1  0.34516353  0.69636522  0.25374299  1
  S  S3  1  0.85074301  0.71153113  0.25037747  1
  S  S4  1  0.00445084  0.29555123  0.25001838  1
  S  S5  1  0.50445870  0.30930076  0.25438506  1
  S  S6  1  0.14288966  0.29540626  0.75195063  1
  S  S7  1  0.64235087  0.29381509  0.75057070  1
  S  S8  1  0.50565904  0.71709242  0.75145555  1
  S  S9  1  0.35327446  0.98952102  0.75118833  1
  S  S10  1  0.85105304  0.98889192  0.75158342  1
  S  S11  1  0.48032287  0.32343366  0.58670464  1
  S  S12  1  0.98178685  0.31581041  0.58644521  1
  S  S13  1  0.18027706  0.03998288  0.58672409  1
  S  S14  1  0.68073263  0.03859830  0.58662688  1
  S  S15  1  0.33773604  0.63674096  0.58638252  1
  S  S16  1  0.83892467  0.64244892  0.58652228  1
  S  S17  1  0.48706192  0.63883326  0.07941564  1
  S  S18  1  0.98004058  0.63844266  0.08739605  1
  S  S19  1  0.33735930  0.03932531  0.08273111  1
  S  S20  1  0.83474775  0.02596820  0.08365977  1
  S  S21  1  0.17998821  0.32348627  0.08678898  1
  S  S22  1  0.68405830  0.33589944  0.07928655  1
  S  S23  1  0.30698443  0.66063486  0.91286158  1
  S  S24  1  0.80186648  0.66273455  0.91543300  1
  S  S25  1  0.02379862  0.38792368  0.91301970  1
  S  S26  1  0.16897030  0.95175392  0.91299699  1
  S  S27  1  0.66991147  0.94244196  0.91607902  1
  S  S28  1  0.30767999  0.95474646  0.41318902  1
  S  S29  1  0.80759233  0.95478543  0.41458749  1
  S  S30  1  0.16995720  0.38397323  0.41395978  1
  S  S31  1  0.66826959  0.38271584  0.41370767  1
  S  S32  1  0.52306199  0.66069968  0.41392546  1
  O  O0  1  0.10641788  0.01928348  0.29924173  1
  O  O1  1  0.60950290  0.01832313  0.30294734  1
  O  O2  1  0.39987881  0.77888562  0.30265533  1
  O  O3  1  0.90199958  0.78590348  0.30015791  1
  O  O4  1  0.49250794  0.20275184  0.30327362  1
  O  O5  1  0.98954372  0.19214347  0.29978335  1
  O  O6  1  0.10497176  0.19437144  0.80179766  1
  O  O7  1  0.60455843  0.19501315  0.80116567  1
  O  O8  1  0.49381237  0.79316582  0.80172627  1
  O  O9  1  0.98840801  0.79520107  0.80753311  1
  O  O10  1  0.40605724  0.01973067  0.80056493  1
  O  O11  1  0.90228959  0.02147393  0.80188371  1
  O  O12  1  0.39807864  0.96606732  0.69971644  1
  O  O13  1  0.89430972  0.96407582  0.70061796  1
  O  O14  1  0.08759079  0.21068648  0.70010434  1
  O  O15  1  0.58520365  0.21053059  0.70014246  1
  O  O16  1  0.01238847  0.83631257  0.69746138  1
  O  O17  1  0.51879422  0.82758481  0.70033941  1
  O  O18  1  0.37973266  0.79522938  0.20161589  1
  O  O19  1  0.89496886  0.82618456  0.19941313  1
  O  O20  1  0.01461404  0.19946184  0.19882652  1
  O  O21  1  0.52316901  0.24806824  0.20234737  1
  O  O22  1  0.08390836  0.96750728  0.19876877  1
  O  O23  1  0.60133152  0.95741208  0.20183593  1
  O  O24  1  0.44103163  0.34882236  0.63636476  1
  O  O25  1  0.94123489  0.34250003  0.63531937  1
  O  O26  1  0.23096614  0.12455682  0.63652364  1
  O  O27  1  0.73181669  0.11539717  0.63665620  1
  O  O28  1  0.32681653  0.53479411  0.63628664  1
  O  O29  1  0.82677142  0.53943783  0.63627695  1
  O  O30  1  0.45824499  0.54017030  0.13122005  1
  O  O31  1  0.93894375  0.52987408  0.13593640  1
  O  O32  1  0.33105653  0.12315105  0.13446048  1
  O  O33  1  0.81257002  0.09123235  0.13298725  1
  O  O34  1  0.23282759  0.34883364  0.13592499  1
  O  O35  1  0.73359440  0.37325140  0.13113077  1
  O  O36  1  0.20800507  0.27738639  0.03563746  1
  O  O37  1  0.72661657  0.31500288  0.02994076  1
  O  O38  1  0.43452420  0.55434391  0.03020889  1
  O  O39  1  0.92801763  0.58094345  0.03608311  1
  O  O40  1  0.34678009  0.14316406  0.03206949  1
  O  O41  1  0.85838131  0.13703148  0.03427840  1
  O  O42  1  0.21282968  0.14293445  0.53512970  1
  O  O43  1  0.70939602  0.14289987  0.53605988  1
  O  O44  1  0.36122130  0.57689462  0.53592431  1
  O  O45  1  0.86034770  0.58179344  0.53533071  1
  O  O46  1  0.42782687  0.27851521  0.53594034  1
  O  O47  1  0.92937660  0.27297855  0.53508626  1
  O  O48  1  0.26797651  0.67606054  0.96465980  1
  O  O49  1  0.75552163  0.67180611  0.96690103  1
  O  O50  1  0.06953523  0.46857480  0.96449074  1
  O  O51  1  0.58307850  0.49840519  0.97082848  1
  O  O52  1  0.16234505  0.85741491  0.96390889  1
  O  O53  1  0.66731104  0.84364931  0.96791053  1
  O  O54  1  0.26969409  0.86072496  0.46466221  1
  O  O55  1  0.76760839  0.85716748  0.46531596  1
  O  O56  1  0.16615948  0.46545212  0.46564355  1
  O  O57  1  0.66040528  0.46405403  0.46435975  1
  O  O58  1  0.07093148  0.67644366  0.47150295  1
  O  O59  1  0.56969789  0.67411746  0.46527676  1
  O  O60  1  0.07721484  0.65686703  0.35833578  1
  O  O61  1  0.57577486  0.65114208  0.36261840  1
  O  O62  1  0.25073232  0.85090257  0.36095946  1
  O  O63  1  0.75412046  0.84887726  0.36246485  1
  O  O64  1  0.17457082  0.49435539  0.36161360  1
  O  O65  1  0.67564674  0.49986044  0.36173103  1
  O  O66  1  0.07509490  0.49915744  0.86111513  1
  O  O67  1  0.58085492  0.50274389  0.85882260  1
  O  O68  1  0.17497681  0.84880165  0.86113759  1
  O  O69  1  0.67592892  0.85205003  0.86316698  1
  O  O70  1  0.25483809  0.65678924  0.86112007  1
  O  O71  1  0.75039327  0.65282506  0.86273421  1
  O  O72  1  0.00828454  0.83272219  0.41369309  1
  O  O73  1  0.51556237  0.80968117  0.40510924  1
  O  O74  1  0.39055269  0.97351917  0.40383156  1
  O  O75  1  0.89209887  0.97709396  0.40763730  1
  O  O76  1  0.09366461  0.21919548  0.40703164  1
  O  O77  1  0.59241672  0.22070774  0.40403551  1
  O  O78  1  0.01533280  0.22292964  0.90509669  1
  O  O79  1  0.52489149  0.20747864  0.92013769  1
  O  O80  1  0.09479635  0.96911385  0.90611803  1
  O  O81  1  0.59121330  0.94698984  0.91438834  1
  O  O82  1  0.39271477  0.80941378  0.90810175  1
  O  O83  1  0.88260012  0.81834990  0.91406500  1
  O  O84  1  0.48794978  0.16115517  0.60187339  1
  O  O85  1  0.98900991  0.15633578  0.60068678  1
  O  O86  1  0.09141159  0.02670305  0.59750868  1
  O  O87  1  0.59089051  0.02276504  0.60344982  1
  O  O88  1  0.41988900  0.81542938  0.60210109  1
  O  O89  1  0.91935962  0.82214913  0.59878515  1
  O  O90  1  0.50364276  0.81306630  0.08502347  1
  O  O91  1  0.98778642  0.81437515  0.10321900  1
  O  O92  1  0.41450096  0.02011410  0.08552969  1
  O  O93  1  0.91066869  0.00446017  0.10001410  1
  O  O94  1  0.08967998  0.15953998  0.10308728  1
  O  O95  1  0.59718070  0.19489860  0.08480383  1
  O  O96  1  0.33863338  0.13105414  0.74118603  1
  O  O97  1  0.83146893  0.12340249  0.74167905  1
  O  O98  1  0.22899945  0.32588918  0.74248927  1
  O  O99  1  0.72746185  0.32415015  0.74122861  1
  O  O100  1  0.43670149  0.54448491  0.74212762  1
  O  O101  1  0.92450964  0.51329675  0.74604626  1
  O  O102  1  0.33086096  0.52199390  0.24841884  1
  O  O103  1  0.83605288  0.54094068  0.23973974  1
  O  O104  1  0.43338937  0.34233431  0.24970868  1
  O  O105  1  0.93408671  0.32414717  0.23788796  1
  O  O106  1  0.22797199  0.13347574  0.23818268  1
  O  O107  1  0.73816600  0.13589339  0.24868073  1
  O  O108  1  0.30952613  0.50137055  0.91106772  1
  O  O109  1  0.80582706  0.50663357  0.91684361  1
  O  O110  1  0.43444800  0.37851089  0.91243434  1
  O  O111  1  0.94062975  0.38150083  0.91035162  1
  O  O112  1  0.24829056  0.11579100  0.90928414  1
  O  O113  1  0.74659762  0.10907616  0.91808802  1
  O  O114  1  0.30975753  0.11911834  0.41085792  1
  O  O115  1  0.80613767  0.11384393  0.41162566  1
  O  O116  1  0.24837103  0.37317878  0.41061884  1
  O  O117  1  0.74670099  0.37558885  0.41147365  1
  O  O118  1  0.44061753  0.50143468  0.41134869  1
  O  O119  1  0.92785931  0.48797511  0.40929227  1
  O  O120  1  0.15948843  0.45707800  0.07991489  1
  O  O121  1  0.67697720  0.49811953  0.06759775  1
  O  O122  1  0.06618991  0.67356822  0.07961958  1
  O  O123  1  0.57771458  0.65981442  0.06757616  1
  O  O124  1  0.26134711  0.87074521  0.07857290  1
  O  O125  1  0.76288142  0.85247814  0.06883733  1
  O  O126  1  0.16485992  0.86885211  0.58158169  1
  O  O127  1  0.65993499  0.86388336  0.57899555  1
  O  O128  1  0.27067585  0.67550771  0.57881652  1
  O  O129  1  0.76967146  0.67692542  0.57919197  1
  O  O130  1  0.06826111  0.45443911  0.57937281  1
  O  O131  1  0.56705133  0.45873226  0.57915725  1
  O  O132  1  0.14787289  0.82982187  0.25479865  1
  O  O133  1  0.65882875  0.83495922  0.26633421  1
  O  O134  1  0.25930484  0.68293783  0.26471327  1
  O  O135  1  0.76540545  0.70162857  0.25788169  1
  O  O136  1  0.08580608  0.46236531  0.25605716  1
  O  O137  1  0.58460581  0.48531721  0.26597479  1
  O  O138  1  0.14951402  0.46822692  0.75919432  1
  O  O139  1  0.64920928  0.46955705  0.75816376  1
  O  O140  1  0.09099805  0.69777722  0.76333075  1
  O  O141  1  0.58796074  0.70768664  0.75921121  1
  O  O142  1  0.26906545  0.82844123  0.75779177  1
  O  O143  1  0.76585519  0.82366084  0.76063404  1
loop_
_geom_bond_atom_site_label_1
_geom_bond_atom_site_label_2
_geom_bond_distance
_geom_bond_site_symmetry_2
Na0 O72 2.293425 1_555
Na0 O75 2.788041 1_455
Na0 O76 2.788478 1_565
Na0 O86 2.926941 1_565
Na0 O89 2.959316 1_455
Na1 O79 2.456497 1_554
Na1 O92 2.475502 1_555
Na1 O95 2.693859 1_555
Na1 O90 2.790549 1_545
Na1 O82 2.843036 1_544
Na1 O81 2.978561 1_544
Na2 O110 2.326780 1_555
Na2 O112 2.431241 1_555
Na2 O108 2.439820 1_555
Na3 O101 2.338617 1_555
Na3 O111 2.542195 1_555
Na3 O97 2.831616 1_555
Na3 O109 2.845980 1_555
Na3 O99 2.884732 1_555
Na3 O113 3.037516 1_555
Na4 O116 2.533392 1_555
Na4 O118 2.544160 1_555
Na4 O114 2.601853 1_555
Na4 O102 2.616991 1_555
Na4 O104 2.656408 1_555
Na4 O106 2.947760 1_555
Na5 O119 2.216751 1_555
Na5 O117 2.500017 1_555
Na5 O115 2.513347 1_555
Na5 O107 2.849673 1_555
Na5 O103 3.001064 1_555
Na5 O105 3.030042 1_555
Ca0 O72 2.101732 1_555
Ca0 O3 2.244096 1_455
Ca0 O0 2.245691 1_565
Ca0 O76 2.271753 1_565
Ca0 O75 2.276245 1_455
Ca0 O5 2.294081 1_465
Ca1 O74 2.220331 1_555
Ca1 O77 2.240591 1_565
Ca1 O73 2.241343 1_555
Ca1 O2 2.245739 1_555
Ca1 O1 2.265094 1_565
Ca1 O4 2.269507 1_565
Ca2 O9 2.086311 1_555
Ca2 O80 2.223427 1_655
Ca2 O78 2.257233 1_665
Ca2 O11 2.280033 1_565
Ca2 O6 2.310195 1_665
Ca2 O83 2.317376 1_555
Ca3 O79 2.189406 1_555
Ca3 O82 2.230034 1_545
Ca3 O7 2.255423 1_555
Ca3 O10 2.265788 1_555
Ca3 O8 2.326335 1_545
Ca3 O81 2.365501 1_545
Ca4 O92 2.269843 1_565
Ca4 O18 2.307829 1_555
Ca4 O21 2.362930 1_565
Ca4 O90 2.398834 1_555
Ca4 O23 2.409676 1_555
Ca4 O95 2.430646 1_565
Ca5 O26 2.199532 1_555
Ca5 O28 2.228096 1_555
Ca5 O24 2.242842 1_555
Ca5 O98 2.281805 1_555
Ca5 O96 2.304710 1_555
Ca5 O100 2.335663 1_555
Ca6 O101 2.154696 1_555
Ca6 O25 2.193945 1_555
Ca6 O29 2.247086 1_555
Ca6 O27 2.280244 1_555
Ca6 O97 2.339938 1_555
Ca6 O99 2.368249 1_555
Ca7 O32 2.208818 1_555
Ca7 O34 2.272182 1_555
Ca7 O104 2.326496 1_555
Ca7 O30 2.339580 1_555
Ca7 O102 2.346802 1_555
Ca7 O106 2.372895 1_555
Ca8 O31 2.249535 1_555
Ca8 O107 2.283664 1_555
Ca8 O103 2.320404 1_555
Ca8 O35 2.320665 1_555
Ca8 O33 2.329510 1_555
Ca8 O105 2.335261 1_555
Ca9 O40 2.225351 1_556
Ca9 O110 2.275568 1_555
Ca9 O38 2.336982 1_556
Ca9 O112 2.384581 1_555
Ca9 O108 2.420765 1_555
Ca9 O36 2.488257 1_556
Ca10 O37 2.292404 1_556
Ca10 O39 2.343479 1_556
Ca10 O111 2.353409 1_555
Ca10 O41 2.391730 1_556
Ca10 O109 2.444568 1_555
Ca10 O113 2.454410 1_555
Ca11 O42 2.362287 1_555
Ca11 O46 2.402809 1_555
Ca11 O114 2.407679 1_555
Ca11 O116 2.415530 1_555
Ca11 O44 2.419458 1_555
Ca11 O118 2.438211 1_555
Ca12 O119 2.172354 1_555
Ca12 O47 2.388993 1_555
Ca12 O45 2.405829 1_555
Ca12 O115 2.462630 1_555
Ca12 O117 2.488463 1_555
Ca12 O43 2.597451 1_555
Ca13 O124 2.191041 1_555
Ca13 O52 2.263439 1_554
Ca13 O48 2.269138 1_554
Ca13 O120 2.288966 1_555
Ca13 O50 2.292104 1_554
Ca13 O122 2.293967 1_555
Ca14 O58 2.076201 1_555
Ca14 O130 2.274726 1_555
Ca14 O126 2.295457 1_555
Ca14 O56 2.300859 1_555
Ca14 O54 2.316686 1_555
Ca14 O128 2.364412 1_555
Ca15 O55 2.253606 1_555
Ca15 O129 2.254563 1_555
Ca15 O57 2.266166 1_555
Ca15 O59 2.266916 1_555
Ca15 O131 2.278071 1_555
Ca15 O127 2.283033 1_555
O0 S0 1.448031 1_545
O1 S1 1.455317 1_545
O2 S2 1.464994 1_555
O3 S3 1.443389 1_555
O4 S5 1.455085 1_555
O5 S4 1.446635 1_655
O6 S6 1.442194 1_555
O7 S7 1.448412 1_555
O8 S8 1.445609 1_555
O9 Si0 1.563765 1_555
O10 S9 1.448698 1_545
O11 S10 1.448065 1_545
O12 S9 1.538696 1_555
O12 Ta1 2.101967 1_555
O13 S10 1.517432 1_555
O13 Ta0 2.166086 1_655
O14 S6 1.528149 1_555
O14 Ta0 2.152611 1_545
O15 S7 1.513466 1_555
O15 Ta1 2.169545 1_545
O16 Si0 1.744035 1_455
O16 Ta0 1.869364 1_555
O17 S8 1.514403 1_555
O17 Ta1 2.175574 1_555
O18 S2 1.470463 1_555
O19 S3 1.533923 1_555
O19 Ta2 2.127214 1_655
O20 S4 1.558193 1_555
O20 Ta2 2.061654 1_545
O21 S5 1.460164 1_555
O22 S0 1.569337 1_555
O22 Ta2 2.034169 1_555
O23 S1 1.461775 1_555
O24 S11 1.452736 1_555
O25 S12 1.456058 1_555
O26 S13 1.456333 1_555
O27 S14 1.450309 1_555
O28 S15 1.453459 1_555
O29 S16 1.452148 1_555
O30 S17 1.454199 1_555
O31 S18 1.455201 1_555
O32 S19 1.476693 1_555
O33 S20 1.455200 1_555
O34 S21 1.451695 1_555
O35 S22 1.458083 1_555
O36 S21 1.454159 1_555
O37 S22 1.465078 1_555
O38 S17 1.457705 1_555
O39 S18 1.465620 1_555
O40 S19 1.483181 1_555
O41 S20 1.462699 1_555
O42 S13 1.471726 1_555
O43 S14 1.453122 1_555
O44 S15 1.461986 1_555
O45 S16 1.462508 1_555
O46 S11 1.459920 1_555
O47 S12 1.471730 1_555
O48 S23 1.457824 1_555
O49 S24 1.506882 1_555
O49 Ta3 2.046472 1_556
O50 S25 1.450147 1_555
O51 Si1 1.711079 1_555
O51 Ta3 1.833492 1_556
O52 S26 1.449646 1_555
O53 S27 1.508170 1_555
O53 Ta3 2.073182 1_556
O54 S28 1.450296 1_555
O55 S29 1.454152 1_555
O56 S30 1.449533 1_555
O57 S31 1.452804 1_555
O58 Si2 1.582496 1_555
O59 S32 1.451800 1_555
O60 Ta4 1.815929 1_555
O60 Si2 1.828982 1_555
O61 S32 1.576376 1_555
O61 Ta5 1.964391 1_555
O62 S28 1.585563 1_555
O62 Ta4 1.966679 1_555
O63 S29 1.567824 1_555
O63 Ta5 1.966730 1_555
O64 S30 1.571255 1_555
O64 Ta4 1.982687 1_555
O65 S31 1.589686 1_555
O65 Ta5 1.952606 1_555
O66 S25 1.568856 1_555
O66 Ta6 1.971584 1_555
O67 Si1 1.746580 1_555
O67 Ta7 1.843432 1_555
O68 S26 1.580518 1_555
O68 Ta6 1.963518 1_555
O69 S27 1.531705 1_555
O69 Ta7 2.073020 1_555
O70 S23 1.538677 1_555
O70 Ta6 2.091671 1_555
O71 S24 1.534889 1_555
O71 Ta7 2.033182 1_555
O72 Si2 1.607522 1_555
O73 S32 1.445455 1_555
O74 S28 1.447541 1_555
O75 S29 1.456503 1_555
O76 S30 1.456861 1_555
O77 S31 1.448258 1_555
O78 S25 1.444142 1_555
O79 Si1 1.590932 1_555
O80 S26 1.444896 1_555
O81 S27 1.454100 1_555
O82 S23 1.472610 1_555
O83 S24 1.444197 1_555
O84 S11 1.593401 1_555
O84 Ta1 1.911699 1_545
O85 S12 1.559663 1_555
O85 Ta0 2.025732 1_645
O86 S13 1.581166 1_555
O86 Ta0 1.981147 1_545
O87 S14 1.617774 1_555
O87 Ta1 1.894416 1_545
O88 S15 1.608664 1_555
O88 Ta1 1.898348 1_555
O89 S16 1.583913 1_555
O89 Ta0 1.964681 1_655
O90 S17 1.465598 1_555
O91 S18 1.581574 1_555
O91 Ta2 1.930541 1_655
O92 S19 1.500733 1_555
O93 S20 1.539013 1_555
O93 Ta2 2.043200 1_645
O94 S21 1.620307 1_555
O94 Ta2 1.902760 1_545
O95 S22 1.461272 1_555
O96 S9 1.460512 1_545
O97 S10 1.456165 1_545
O98 S6 1.465685 1_555
O99 S7 1.448004 1_555
O100 S8 1.456474 1_555
O101 Si0 1.587223 1_555
O102 S2 1.480694 1_555
O103 S3 1.460556 1_555
O104 S5 1.471546 1_555
O105 S4 1.457486 1_655
O106 S0 1.452146 1_545
O107 S1 1.475290 1_545
O108 S23 1.474969 1_555
O109 S24 1.459680 1_555
O110 Si1 1.584830 1_555
O111 S25 1.486695 1_655
O112 S26 1.471925 1_545
O113 S27 1.461042 1_545
O114 S28 1.479730 1_545
O115 S29 1.463966 1_545
O116 S30 1.480947 1_555
O117 S31 1.462033 1_555
O118 S32 1.477159 1_555
O119 Si2 1.615953 1_655
O120 S21 1.449438 1_555
O121 S22 1.570819 1_555
O121 Ta3 1.947486 1_555
O122 S18 1.446709 1_455
O123 S17 1.588052 1_555
O123 Ta3 1.933159 1_555
O124 S19 1.468366 1_565
O125 S20 1.504201 1_565
O125 Ta3 2.162099 1_555
O126 S13 1.444137 1_565
O127 S14 1.451044 1_565
O128 S15 1.441457 1_555
O129 S16 1.453823 1_555
O130 S12 1.453127 1_455
O131 S11 1.447907 1_555
O132 S0 1.504774 1_555
O132 Ta4 2.206641 1_555
O133 S1 1.552448 1_555
O133 Ta5 1.977879 1_555
O134 S2 1.527469 1_555
O134 Ta4 2.079532 1_555
O135 S3 1.520522 1_555
O135 Ta5 2.124179 1_555
O136 S4 1.506850 1_555
O136 Ta4 2.184999 1_555
O137 S5 1.559919 1_555
O137 Ta5 1.966729 1_555
O138 S6 1.527006 1_555
O138 Ta6 2.090737 1_555
O139 S7 1.552458 1_555
O139 Ta7 2.031060 1_555
O140 Si0 1.728771 1_455
O140 Ta6 1.850682 1_555
O141 S8 1.553503 1_555
O141 Ta7 2.040857 1_555
O142 S9 1.508880 1_555
O142 Ta6 2.145513 1_555
O143 S10 1.543070 1_555
O143 Ta7 2.093868 1_555
