# generated using pymatgen
data_NaMgFe(SO4)2
_symmetry_space_group_name_H-M   'P 1'
_cell_length_a   5.20770979
_cell_length_b   5.21072923
_cell_length_c   6.39225707
_cell_angle_alpha   93.04329029
_cell_angle_beta   92.97774145
_cell_angle_gamma   68.22346623
_symmetry_Int_Tables_number   1
_chemical_formula_structural   NaMgFe(SO4)2
_chemical_formula_sum   'Na1 Mg1 Fe1 S2 O8'
_cell_volume   160.75709605
_cell_formula_units_Z   1
loop_
 _symmetry_equiv_pos_site_id
 _symmetry_equiv_pos_as_xyz
  1  'x, y, z'
loop_
 _atom_site_type_symbol
 _atom_site_label
 _atom_site_symmetry_multiplicity
 _atom_site_fract_x
 _atom_site_fract_y
 _atom_site_fract_z
 _atom_site_occupancy
  Na  Na0  1  0.00329900  0.00508700  0.47535600  1
  Mg  Mg0  1  0.67809800  0.68189800  0.76580900  1
  Fe  Fe0  1  0.99585500  0.99783300  0.99610500  1
  S  S0  1  0.63163700  0.63250500  0.25241400  1
  S  S1  1  0.36290700  0.36339200  0.74250700  1
  O  O0  1  0.74271700  0.74302900  0.07614000  1
  O  O1  1  0.26439300  0.26276300  0.92026200  1
  O  O2  1  0.72747500  0.72822200  0.45920200  1
  O  O3  1  0.27431800  0.27395800  0.54197600  1
  O  O4  1  0.74746300  0.32804500  0.23579900  1
  O  O5  1  0.32708400  0.74856000  0.23595200  1
  O  O6  1  0.27247200  0.68123800  0.75657500  1
  O  O7  1  0.68061400  0.27569300  0.75618900  1
loop_
_geom_bond_atom_site_label_1
_geom_bond_atom_site_label_2
_geom_bond_distance
_geom_bond_site_symmetry_2
Na0 O4 2.313015 1_455
Na0 O5 2.313096 1_545
Na0 O3 2.340422 1_555
Na0 O2 2.379406 1_445
Na0 O7 2.514214 1_455
Na0 O6 2.519764 1_545
Mg0 O0 2.023097 1_556
Mg0 O2 2.028370 1_555
Mg0 O7 2.109440 1_555
Mg0 O6 2.111414 1_555
Fe0 O0 2.281066 1_556
Fe0 O4 2.292604 1_566
Fe0 O5 2.299440 1_656
Fe0 O6 2.310565 1_655
Fe0 O7 2.313855 1_565
Fe0 O1 2.381260 1_665
O0 S0 1.523079 1_555
O1 S1 1.467190 1_555
O2 S0 1.513695 1_555
O3 S1 1.451823 1_555
O4 S0 1.473333 1_555
O5 S0 1.473099 1_555
O6 S1 1.543619 1_555
O7 S1 1.543422 1_555
