# generated using pymatgen
data_Na3Nb5ZnSi3(PO6)6
_symmetry_space_group_name_H-M   'P 1'
_cell_length_a   8.82556968
_cell_length_b   8.82556939
_cell_length_c   22.85394364
_cell_angle_alpha   90.00000000
_cell_angle_beta   90.00000000
_cell_angle_gamma   120.00000109
_symmetry_Int_Tables_number   1
_chemical_formula_structural   Na3Nb5ZnSi3(PO6)6
_chemical_formula_sum   'Na6 Nb10 Zn2 Si6 P12 O72'
_cell_volume   1541.61973384
_cell_formula_units_Z   2
loop_
 _symmetry_equiv_pos_site_id
 _symmetry_equiv_pos_as_xyz
  1  'x, y, z'
loop_
 _atom_site_type_symbol
 _atom_site_label
 _atom_site_symmetry_multiplicity
 _atom_site_fract_x
 _atom_site_fract_y
 _atom_site_fract_z
 _atom_site_occupancy
  Na  Na0  1  -0.00000000  -0.00000000  0.49932993  1
  Na  Na1  1  -0.00000000  -0.00000000  0.99932993  1
  Na  Na2  1  0.66666700  0.33333300  0.82787660  1
  Na  Na3  1  0.66666700  0.33333300  0.32787660  1
  Na  Na4  1  0.33333300  0.66666700  0.16669544  1
  Na  Na5  1  0.33333300  0.66666700  0.66669544  1
  Nb  Nb0  1  -0.00000000  -0.00000000  0.35536747  1
  Nb  Nb1  1  -0.00000000  -0.00000000  0.85536747  1
  Nb  Nb2  1  -0.00000000  -0.00000000  0.64591915  1
  Nb  Nb3  1  -0.00000000  -0.00000000  0.14591915  1
  Nb  Nb4  1  0.66666700  0.33333300  0.97785862  1
  Nb  Nb5  1  0.66666700  0.33333300  0.47785862  1
  Nb  Nb6  1  0.33333300  0.66666700  0.01988930  1
  Nb  Nb7  1  0.33333300  0.66666700  0.51988930  1
  Nb  Nb8  1  0.33333300  0.66666700  0.31266501  1
  Nb  Nb9  1  0.33333300  0.66666700  0.81266501  1
  Zn  Zn0  1  0.66666700  0.33333300  0.68532547  1
  Zn  Zn1  1  0.66666700  0.33333300  0.18532547  1
  Si  Si0  1  0.62022690  0.66642996  0.91648712  1
  Si  Si1  1  0.04620206  0.37977310  0.91648712  1
  Si  Si2  1  0.33357004  0.95379794  0.91648712  1
  Si  Si3  1  0.62022690  0.95379794  0.41648712  1
  Si  Si4  1  0.33357004  0.37977310  0.41648712  1
  Si  Si5  1  0.04620206  0.66642996  0.41648712  1
  P  P0  1  0.29204700  0.00336366  0.24992064  1
  P  P1  1  0.71131666  0.70795300  0.24992064  1
  P  P2  1  0.99663634  0.28868334  0.24992064  1
  P  P3  1  0.29204700  0.28868334  0.74992064  1
  P  P4  1  0.99663634  0.70795300  0.74992064  1
  P  P5  1  0.71131666  0.00336366  0.74992064  1
  P  P6  1  0.95382825  0.33476033  0.58519049  1
  P  P7  1  0.38093309  0.04617175  0.58519049  1
  P  P8  1  0.66523967  0.61906691  0.58519049  1
  P  P9  1  0.95382825  0.61906691  0.08519049  1
  P  P10  1  0.66523967  0.04617175  0.08519049  1
  P  P11  1  0.38093309  0.33476033  0.08519049  1
  O  O0  1  0.19486306  0.02051747  0.30403128  1
  O  O1  1  0.82565441  0.80513694  0.30403128  1
  O  O2  1  0.97948253  0.17434559  0.30403128  1
  O  O3  1  0.19486306  0.17434559  0.80403128  1
  O  O4  1  0.97948253  0.80513694  0.80403128  1
  O  O5  1  0.82565441  0.02051747  0.80403128  1
  O  O6  1  0.80246964  0.97264901  0.69535080  1
  O  O7  1  0.17017937  0.19753036  0.69535080  1
  O  O8  1  0.02735099  0.82982063  0.69535080  1
  O  O9  1  0.80246964  0.82982063  0.19535080  1
  O  O10  1  0.02735099  0.19753036  0.19535080  1
  O  O11  1  0.17017937  0.97264901  0.19535080  1
  O  O12  1  0.87956756  0.36743900  0.63948358  1
  O  O13  1  0.48787244  0.12043244  0.63948358  1
  O  O14  1  0.63256100  0.51212756  0.63948358  1
  O  O15  1  0.87956756  0.51212756  0.13948358  1
  O  O16  1  0.63256100  0.12043244  0.13948358  1
  O  O17  1  0.48787244  0.36743900  0.13948358  1
  O  O18  1  0.46248568  0.30372182  0.02911170  1
  O  O19  1  0.84123715  0.53751432  0.02911170  1
  O  O20  1  0.69627818  0.15876285  0.02911170  1
  O  O21  1  0.46248568  0.15876285  0.52911170  1
  O  O22  1  0.69627818  0.53751432  0.52911170  1
  O  O23  1  0.84123715  0.30372182  0.52911170  1
  O  O24  1  0.53137985  0.69882285  0.97391565  1
  O  O25  1  0.16744200  0.46862015  0.97391565  1
  O  O26  1  0.30117715  0.83255800  0.97391565  1
  O  O27  1  0.53137985  0.83255800  0.47391565  1
  O  O28  1  0.30117715  0.46862015  0.47391565  1
  O  O29  1  0.16744200  0.69882285  0.47391565  1
  O  O30  1  0.13571759  0.63383471  0.35884527  1
  O  O31  1  0.49811612  0.86428241  0.35884527  1
  O  O32  1  0.36616529  0.50188388  0.35884527  1
  O  O33  1  0.13571759  0.50188388  0.85884527  1
  O  O34  1  0.36616529  0.86428241  0.85884527  1
  O  O35  1  0.49811612  0.63383471  0.85884527  1
  O  O36  1  0.02439813  0.83712230  0.40775734  1
  O  O37  1  0.81272417  0.97560187  0.40775734  1
  O  O38  1  0.16287770  0.18727583  0.40775734  1
  O  O39  1  0.02439813  0.18727583  0.90775734  1
  O  O40  1  0.16287770  0.97560187  0.90775734  1
  O  O41  1  0.81272417  0.83712230  0.90775734  1
  O  O42  1  0.97616706  0.16815117  0.59083478  1
  O  O43  1  0.19198412  0.02383294  0.59083478  1
  O  O44  1  0.83184883  0.80801588  0.59083478  1
  O  O45  1  0.97616706  0.80801588  0.09083478  1
  O  O46  1  0.83184883  0.02383294  0.09083478  1
  O  O47  1  0.19198412  0.16815117  0.09083478  1
  O  O48  1  0.69379569  0.16373832  0.74530064  1
  O  O49  1  0.46994363  0.30620431  0.74530064  1
  O  O50  1  0.83626168  0.53005637  0.74530064  1
  O  O51  1  0.69379569  0.53005637  0.24530064  1
  O  O52  1  0.83626168  0.30620431  0.24530064  1
  O  O53  1  0.46994363  0.16373832  0.24530064  1
  O  O54  1  0.64137425  0.49534265  0.92604834  1
  O  O55  1  0.85396940  0.35862575  0.92604834  1
  O  O56  1  0.50465735  0.14603060  0.92604834  1
  O  O57  1  0.64137425  0.14603060  0.42604834  1
  O  O58  1  0.50465735  0.35862575  0.42604834  1
  O  O59  1  0.85396940  0.49534265  0.42604834  1
  O  O60  1  0.35211205  0.49331908  0.07504992  1
  O  O61  1  0.14120603  0.64788795  0.07504992  1
  O  O62  1  0.50668092  0.85879397  0.07504992  1
  O  O63  1  0.35211205  0.85879397  0.57504992  1
  O  O64  1  0.50668092  0.64788795  0.57504992  1
  O  O65  1  0.14120603  0.49331908  0.57504992  1
  O  O66  1  0.30014657  0.83144747  0.25569678  1
  O  O67  1  0.53129991  0.69985343  0.25569678  1
  O  O68  1  0.16855253  0.46870009  0.25569678  1
  O  O69  1  0.30014657  0.46870009  0.75569678  1
  O  O70  1  0.16855253  0.69985343  0.75569678  1
  O  O71  1  0.53129991  0.83144747  0.75569678  1
loop_
_geom_bond_atom_site_label_1
_geom_bond_atom_site_label_2
_geom_bond_distance
_geom_bond_site_symmetry_2
Na0 O38 2.608076 1_555
Na0 O36 2.608076 1_545
Na0 O37 2.608076 1_445
Na0 O42 2.632879 1_455
Na0 O44 2.632879 1_445
Na0 O43 2.632879 1_555
Na1 O39 2.608076 1_555
Na1 O41 2.608076 1_445
Na1 O40 2.608076 1_545
Na1 O46 2.632879 1_456
Na1 O47 2.632879 1_556
Na1 O45 2.632879 1_446
Na2 O50 2.493488 1_555
Na2 O48 2.493488 1_555
Na2 O49 2.493488 1_555
Na2 O56 2.728955 1_555
Na2 O54 2.728955 1_555
Na2 O55 2.728955 1_555
Na3 O51 2.493488 1_555
Na3 O53 2.493488 1_555
Na3 O52 2.493488 1_555
Na3 O57 2.728955 1_555
Na3 O59 2.728955 1_555
Na3 O58 2.728955 1_555
Na4 O66 2.600759 1_555
Na4 O68 2.600759 1_555
Na4 O67 2.600759 1_555
Na4 O62 2.647333 1_555
Na4 O60 2.647333 1_555
Na4 O61 2.647333 1_555
Na5 O70 2.600759 1_555
Na5 O71 2.600759 1_555
Na5 O69 2.600759 1_555
Na5 O63 2.647333 1_555
Na5 O65 2.647333 1_555
Na5 O64 2.647333 1_555
Nb0 O38 1.963628 1_555
Nb0 O36 1.963628 1_545
Nb0 O37 1.963628 1_445
Nb0 O1 2.013824 1_445
Nb0 O2 2.013824 1_455
Nb0 O0 2.013824 1_555
Nb1 O39 1.963628 1_555
Nb1 O41 1.963628 1_445
Nb1 O40 1.963628 1_545
Nb1 O4 2.013824 1_445
Nb1 O3 2.013824 1_555
Nb1 O5 2.013824 1_455
Nb2 O7 1.988178 1_555
Nb2 O8 1.988178 1_545
Nb2 O6 1.988178 1_445
Nb2 O42 2.035572 1_455
Nb2 O44 2.035572 1_445
Nb2 O43 2.035572 1_555
Nb3 O10 1.988178 1_555
Nb3 O9 1.988178 1_445
Nb3 O11 1.988178 1_545
Nb3 O46 2.035572 1_455
Nb3 O47 2.035572 1_555
Nb3 O45 2.035572 1_445
Nb4 O56 1.953311 1_555
Nb4 O54 1.953311 1_555
Nb4 O55 1.953311 1_555
Nb4 O19 2.053449 1_556
Nb4 O18 2.053449 1_556
Nb4 O20 2.053449 1_556
Nb5 O57 1.953311 1_555
Nb5 O59 1.953311 1_555
Nb5 O58 1.953311 1_555
Nb5 O22 2.053449 1_555
Nb5 O21 2.053449 1_555
Nb5 O23 2.053449 1_555
Nb6 O25 1.934813 1_554
Nb6 O26 1.934813 1_554
Nb6 O24 1.934813 1_554
Nb6 O62 2.052026 1_555
Nb6 O60 2.052026 1_555
Nb6 O61 2.052026 1_555
Nb7 O28 1.934813 1_555
Nb7 O27 1.934813 1_555
Nb7 O29 1.934813 1_555
Nb7 O63 2.052026 1_555
Nb7 O65 2.052026 1_555
Nb7 O64 2.052026 1_555
Nb8 O31 1.932419 1_555
Nb8 O32 1.932419 1_555
Nb8 O30 1.932419 1_555
Nb8 O66 2.078878 1_555
Nb8 O68 2.078878 1_555
Nb8 O67 2.078878 1_555
Nb9 O34 1.932419 1_555
Nb9 O33 1.932419 1_555
Nb9 O35 1.932419 1_555
Nb9 O70 2.078878 1_555
Nb9 O71 2.078878 1_555
Nb9 O69 2.078878 1_555
O0 P0 1.554898 1_555
O1 P1 1.554898 1_555
O2 P2 1.554898 1_555
O3 P3 1.554898 1_555
O4 P4 1.554898 1_555
O5 P5 1.554898 1_555
O6 P5 1.579267 1_565
O7 P3 1.579267 1_555
O8 P4 1.579267 1_455
O9 P1 1.579267 1_555
O10 P2 1.579267 1_455
O11 P0 1.579267 1_565
O12 P6 1.497115 1_555
O12 Zn0 2.037930 1_555
O13 P7 1.497114 1_555
O13 Zn0 2.037929 1_555
O14 P8 1.497114 1_555
O14 Zn0 2.037930 1_555
O15 P9 1.497114 1_555
O15 Zn1 2.037930 1_555
O16 P10 1.497115 1_555
O16 Zn1 2.037929 1_555
O17 P11 1.497114 1_555
O17 Zn1 2.037930 1_555
O18 P11 1.559741 1_555
O19 P9 1.559741 1_555
O20 P10 1.559741 1_555
O21 P7 1.559741 1_555
O22 P8 1.559741 1_555
O23 P6 1.559741 1_555
O24 Si0 1.625831 1_555
O25 Si1 1.625831 1_555
O26 Si2 1.625831 1_555
O27 Si3 1.625831 1_555
O28 Si4 1.625831 1_555
O29 Si5 1.625831 1_555
O30 Si5 1.633878 1_555
O31 Si3 1.633878 1_555
O32 Si4 1.633878 1_555
O33 Si1 1.633878 1_555
O34 Si2 1.633878 1_555
O35 Si0 1.633878 1_555
O36 Si5 1.623619 1_555
O37 Si3 1.623628 1_555
O38 Si4 1.623624 1_555
O39 Si1 1.623627 1_555
O40 Si2 1.623619 1_555
O41 Si0 1.623624 1_555
O42 P6 1.583522 1_555
O43 P7 1.583531 1_555
O44 P8 1.583528 1_555
O45 P9 1.583531 1_555
O46 P10 1.583522 1_555
O47 P11 1.583528 1_555
O48 P5 1.502424 1_555
O48 Zn0 2.129494 1_555
O49 P3 1.502432 1_555
O49 Zn0 2.129494 1_555
O50 P4 1.502429 1_555
O50 Zn0 2.129494 1_555
O51 P1 1.502432 1_555
O51 Zn1 2.129494 1_555
O52 P2 1.502424 1_555
O52 Zn1 2.129494 1_555
O53 P0 1.502429 1_555
O53 Zn1 2.129494 1_555
O54 Si0 1.626137 1_555
O55 Si1 1.626119 1_655
O56 Si2 1.626126 1_545
O57 Si3 1.626119 1_545
O58 Si4 1.626137 1_555
O59 Si5 1.626126 1_655
O60 P11 1.559678 1_555
O61 P9 1.559661 1_455
O62 P10 1.559667 1_565
O63 P7 1.559661 1_565
O64 P8 1.559678 1_555
O65 P6 1.559667 1_455
O66 P0 1.559829 1_565
O67 P1 1.559838 1_555
O68 P2 1.559834 1_455
O69 P3 1.559838 1_555
O70 P4 1.559829 1_455
O71 P5 1.559834 1_565
