# generated using pymatgen
data_MgTl4(NiO3)4
_symmetry_space_group_name_H-M   'P 1'
_cell_length_a   5.35019680
_cell_length_b   5.59587722
_cell_length_c   8.69237455
_cell_angle_alpha   97.34557643
_cell_angle_beta   92.54016852
_cell_angle_gamma   87.71894465
_symmetry_Int_Tables_number   1
_chemical_formula_structural   MgTl4(NiO3)4
_chemical_formula_sum   'Mg1 Tl4 Ni4 O12'
_cell_volume   257.69891894
_cell_formula_units_Z   1
loop_
 _symmetry_equiv_pos_site_id
 _symmetry_equiv_pos_as_xyz
  1  'x, y, z'
loop_
 _atom_site_type_symbol
 _atom_site_label
 _atom_site_symmetry_multiplicity
 _atom_site_fract_x
 _atom_site_fract_y
 _atom_site_fract_z
 _atom_site_occupancy
  Mg  Mg0  1  0.03837500  0.80340600  0.39025400  1
  Tl  Tl0  1  0.52530700  0.60707600  0.20283200  1
  Tl  Tl1  1  0.03142500  0.94812100  0.75806400  1
  Tl  Tl2  1  0.48947000  0.46212100  0.74923600  1
  Tl  Tl3  1  0.01882400  0.14578100  0.18348200  1
  Ni  Ni0  1  0.51970600  0.02399500  0.96960200  1
  Ni  Ni1  1  0.51730500  0.95914200  0.51834700  1
  Ni  Ni2  1  0.98072600  0.41809500  0.53757500  1
  Ni  Ni3  1  0.00553400  0.53720500  0.98292100  1
  O  O0  1  0.83606400  0.12740100  0.43371300  1
  O  O1  1  0.69676100  0.32175500  0.04270600  1
  O  O2  1  0.24843900  0.21504500  0.60103200  1
  O  O3  1  0.72866000  0.64489300  0.44333800  1
  O  O4  1  0.79237200  0.83993600  0.06163000  1
  O  O5  1  0.33990400  0.95208400  0.30242700  1
  O  O6  1  0.20702900  0.20821100  0.94452700  1
  O  O7  1  0.63430800  0.03788200  0.74725800  1
  O  O8  1  0.88033700  0.53917600  0.75921300  1
  O  O9  1  0.31868000  0.73170900  0.93223500  1
  O  O10  1  0.11633100  0.52552300  0.21419900  1
  O  O11  1  0.22444400  0.70144500  0.57541000  1
loop_
_geom_bond_atom_site_label_1
_geom_bond_atom_site_label_2
_geom_bond_distance
_geom_bond_site_symmetry_2
Mg0 O11 1.988584 1_555
Mg0 O3 2.008711 1_455
Mg0 O5 2.063003 1_555
Mg0 O0 2.075162 1_465
Mg0 O10 2.080951 1_555
Ni0 O6 1.948476 1_555
Ni0 O4 1.953594 1_546
Ni0 O1 1.969516 1_556
Ni0 O9 1.977539 1_545
Ni0 O7 2.065076 1_555
Ni1 O7 2.057327 1_565
Ni1 O5 2.061827 1_555
Ni1 O2 2.073869 1_565
Ni1 O3 2.100000 1_555
Ni1 O0 2.179992 1_565
Ni1 O11 2.283029 1_555
Ni2 O2 1.899346 1_655
Ni2 O0 1.929498 1_555
Ni2 O3 2.032755 1_555
Ni2 O8 2.046499 1_555
Ni2 O11 2.077437 1_655
Ni3 O8 2.029661 1_455
Ni3 O4 2.063377 1_456
Ni3 O10 2.078962 1_556
Ni3 O6 2.092763 1_555
Ni3 O9 2.125775 1_555
Ni3 O1 2.201716 1_456
O0 Tl3 2.439564 1_655
O1 Tl0 2.180896 1_555
O1 Tl3 2.328586 1_655
O2 Tl2 2.184805 1_555
O2 Tl1 2.498437 1_545
O3 Tl0 2.302726 1_555
O4 Tl3 2.259793 1_665
O4 Tl0 2.441036 1_555
O5 Tl0 2.226435 1_555
O5 Tl3 2.275020 1_565
O6 Tl1 2.235766 1_545
O6 Tl3 2.418510 1_556
O7 Tl1 2.164416 1_645
O7 Tl2 2.465951 1_555
O8 Tl2 2.147736 1_555
O8 Tl1 2.458484 1_655
O9 Tl2 2.246459 1_555
O9 Tl1 2.497003 1_555
O9 Tl0 2.714528 1_556
O10 Tl3 2.188570 1_555
O10 Tl0 2.261858 1_555
O11 Tl1 2.228025 1_555
O11 Tl2 2.502689 1_555
