# generated using pymatgen
data_Na8ZrZn3Si3(SO8)3
_symmetry_space_group_name_H-M   'P 1'
_cell_length_a   9.22652318
_cell_length_b   9.22325206
_cell_length_c   22.30227159
_cell_angle_alpha   88.74494200
_cell_angle_beta   90.49975716
_cell_angle_gamma   119.05119008
_symmetry_Int_Tables_number   1
_chemical_formula_structural   Na8ZrZn3Si3(SO8)3
_chemical_formula_sum   'Na24 Zr3 Zn9 Si9 S9 O72'
_cell_volume   1658.70809757
_cell_formula_units_Z   3
loop_
 _symmetry_equiv_pos_site_id
 _symmetry_equiv_pos_as_xyz
  1  'x, y, z'
loop_
 _atom_site_type_symbol
 _atom_site_label
 _atom_site_symmetry_multiplicity
 _atom_site_fract_x
 _atom_site_fract_y
 _atom_site_fract_z
 _atom_site_occupancy
  Na  Na0  1  0.62661018  0.99490246  0.25690384  1
  Na  Na1  1  0.37290161  0.37251190  0.24443950  1
  Na  Na2  1  0.00338204  0.61980219  0.25094721  1
  Na  Na3  1  0.64982419  0.64867052  0.73102520  1
  Na  Na4  1  0.98001097  0.34544404  0.74914661  1
  Na  Na5  1  0.38764515  0.01709500  0.73934789  1
  Na  Na6  1  0.30628561  0.33579414  0.58317288  1
  Na  Na7  1  0.04009955  0.71212574  0.57211733  1
  Na  Na8  1  0.65497408  0.94660673  0.58428535  1
  Na  Na9  1  0.28597242  0.95675917  0.07506752  1
  Na  Na10  1  0.65965831  0.69258618  0.08600818  1
  Na  Na11  1  0.05003405  0.34754159  0.08191110  1
  Na  Na12  1  0.99032213  0.68149516  0.92020525  1
  Na  Na13  1  0.71045224  0.03985395  0.90466452  1
  Na  Na14  1  0.30592276  0.28315480  0.92329897  1
  Na  Na15  1  0.97205271  0.30261743  0.40917824  1
  Na  Na16  1  0.32157789  0.00693132  0.42175761  1
  Na  Na17  1  0.71188444  0.69222532  0.42662331  1
  Na  Na18  1  0.99041818  0.98393369  0.50014531  1
  Na  Na19  1  0.01665991  0.01196902  0.00087593  1
  Na  Na20  1  0.66709306  0.31409112  0.82790304  1
  Na  Na21  1  0.67977453  0.33568736  0.33259497  1
  Na  Na22  1  0.32251507  0.65456832  0.16170751  1
  Na  Na23  1  0.34845766  0.68039062  0.65695127  1
  Zr  Zr0  1  0.66650754  0.33536641  0.98342286  1
  Zr  Zr1  1  0.66010870  0.33069666  0.48284746  1
  Zr  Zr2  1  0.33524554  0.67870621  0.81709928  1
  Zn  Zn0  1  0.98829407  0.98453746  0.35235016  1
  Zn  Zn1  1  0.00387447  0.01929105  0.85130497  1
  Zn  Zn2  1  0.97680190  0.97492183  0.64303763  1
  Zn  Zn3  1  0.01437276  0.00069354  0.14322955  1
  Zn  Zn4  1  0.65264569  0.31447546  0.67325971  1
  Zn  Zn5  1  0.66811544  0.35484091  0.16734161  1
  Zn  Zn6  1  0.29578662  0.64986081  0.01701606  1
  Zn  Zn7  1  0.35338868  0.70432796  0.51457685  1
  Zn  Zn8  1  0.33178730  0.69374900  0.34064742  1
  Si  Si0  1  0.70841578  0.00124394  0.74869330  1
  Si  Si1  1  0.35628660  0.03065294  0.58705972  1
  Si  Si2  1  0.66019321  0.62553502  0.58559345  1
  Si  Si3  1  0.96456655  0.63473514  0.08779161  1
  Si  Si4  1  0.36475398  0.33832768  0.08603692  1
  Si  Si5  1  0.03328210  0.36554689  0.91843060  1
  Si  Si6  1  0.33080236  0.96748298  0.91960454  1
  Si  Si7  1  0.64201425  0.97079341  0.41501163  1
  Si  Si8  1  0.03378100  0.66286163  0.41558529  1
  S  S0  1  0.29723804  -0.00031852  0.24999903  1
  S  S1  1  0.70227076  0.70235008  0.24959370  1
  S  S2  1  0.99843124  0.28662172  0.24837852  1
  S  S3  1  0.30198288  0.30436585  0.75229596  1
  S  S4  1  0.00320772  0.70510121  0.75244787  1
  S  S5  1  0.96394200  0.33326931  0.58559969  1
  S  S6  1  0.66947157  0.03967950  0.08783437  1
  S  S7  1  0.62804687  0.66485368  0.91896328  1
  S  S8  1  0.33433235  0.37285711  0.41426567  1
  O  O0  1  0.21328271  0.01702118  0.30395781  1
  O  O1  1  0.79799485  0.78616500  0.30414561  1
  O  O2  1  0.99545380  0.19252157  0.30405425  1
  O  O3  1  0.22112250  0.20618689  0.80774256  1
  O  O4  1  0.99340186  0.78680835  0.80726965  1
  O  O5  1  0.81259397  0.01928098  0.81067286  1
  O  O6  1  0.79022095  0.96336410  0.69061840  1
  O  O7  1  0.20409871  0.22943196  0.69827200  1
  O  O8  1  0.02524050  0.80525570  0.69750149  1
  O  O9  1  0.78501643  0.80110101  0.19438691  1
  O  O10  1  0.00376504  0.19865502  0.19384849  1
  O  O11  1  0.20265663  0.99024802  0.19437193  1
  O  O12  1  0.88702634  0.35415379  0.64073591  1
  O  O13  1  0.47252174  0.10924511  0.64559387  1
  O  O14  1  0.65035160  0.51700012  0.64626422  1
  O  O15  1  0.88681050  0.51766886  0.14803386  1
  O  O16  1  0.64655789  0.11954368  0.14123342  1
  O  O17  1  0.46815636  0.35452463  0.14802802  1
  O  O18  1  0.46814869  0.31297155  0.02905638  1
  O  O19  1  0.84461470  0.52907864  0.02919600  1
  O  O20  1  0.68522545  0.14413456  0.03213465  1
  O  O21  1  0.45907198  0.15097381  0.52756112  1
  O  O22  1  0.67801717  0.52566105  0.52702180  1
  O  O23  1  0.85606727  0.31827193  0.53189816  1
  O  O24  1  0.55090101  0.68635533  0.97284831  1
  O  O25  1  0.14475774  0.44350975  0.97736470  1
  O  O26  1  0.31028712  0.85522047  0.97893057  1
  O  O27  1  0.56290037  0.84839468  0.47300789  1
  O  O28  1  0.31203083  0.44697837  0.46873709  1
  O  O29  1  0.15154270  0.68469489  0.47317528  1
  O  O30  1  0.10355985  0.61601755  0.35484239  1
  O  O31  1  0.52888864  0.89273936  0.35449131  1
  O  O32  1  0.35603692  0.47572182  0.35936756  1
  O  O33  1  0.13376401  0.48742067  0.85914761  1
  O  O34  1  0.36205883  0.87425289  0.86092047  1
  O  O35  1  0.52476363  0.64838297  0.86417489  1
  O  O36  1  0.01809281  0.83375988  0.41090454  1
  O  O37  1  0.83458346  0.00769676  0.40986198  1
  O  O38  1  0.19254244  0.20159880  0.40917110  1
  O  O39  1  0.00339063  0.17635271  0.91491260  1
  O  O40  1  0.16252417  0.98364936  0.91078978  1
  O  O41  1  0.79821092  0.80300920  0.91248977  1
  O  O42  1  0.97458480  0.17836698  0.58606293  1
  O  O43  1  0.17684161  0.02910216  0.58931586  1
  O  O44  1  0.82775029  0.80877595  0.58186423  1
  O  O45  1  0.96412995  0.81340580  0.08605405  1
  O  O46  1  0.82560806  0.03118547  0.08887444  1
  O  O47  1  0.18000518  0.17244507  0.08469558  1
  O  O48  1  0.68601423  0.16937013  0.74479692  1
  O  O49  1  0.47205756  0.32628330  0.75128172  1
  O  O50  1  0.85967577  0.53624049  0.75055387  1
  O  O51  1  0.69082209  0.53341988  0.25010700  1
  O  O52  1  0.84335012  0.30198052  0.25008883  1
  O  O53  1  0.46834588  0.14723027  0.24840660  1
  O  O54  1  0.63327121  0.50396824  0.91963891  1
  O  O55  1  0.84943545  0.35987435  0.91908494  1
  O  O56  1  0.50025117  0.15302028  0.92037980  1
  O  O57  1  0.65008993  0.15473466  0.42103210  1
  O  O58  1  0.49160848  0.35755758  0.41735393  1
  O  O59  1  0.84274362  0.50172747  0.42220597  1
  O  O60  1  0.35911577  0.51261183  0.07924408  1
  O  O61  1  0.15261511  0.66276285  0.08350855  1
  O  O62  1  0.52509036  0.87294223  0.08245115  1
  O  O63  1  0.33198983  0.84373286  0.58101944  1
  O  O64  1  0.48860957  0.63760676  0.58055421  1
  O  O65  1  0.12956612  0.47910062  0.57925252  1
  O  O66  1  0.31060669  0.84379843  0.25250766  1
  O  O67  1  0.53129836  0.68162931  0.25096881  1
  O  O68  1  0.14799323  0.45448174  0.24690481  1
  O  O69  1  0.31729618  0.47689067  0.75562981  1
  O  O70  1  0.16069677  0.68658918  0.75365976  1
  O  O71  1  0.51580616  0.82995728  0.75416705  1
loop_
_geom_bond_atom_site_label_1
_geom_bond_atom_site_label_2
_geom_bond_distance
_geom_bond_site_symmetry_2
Na0 O31 2.357314 1_555
Na0 O53 2.473466 1_565
Na0 O66 2.550966 1_555
Na0 O52 2.555319 1_565
Na0 O67 2.585826 1_555
Na0 O16 2.771868 1_565
Na1 O17 2.369276 1_555
Na1 O67 2.500697 1_555
Na1 O68 2.531440 1_555
Na1 O51 2.568399 1_555
Na1 O53 2.620749 1_555
Na1 O32 2.785293 1_555
Na2 O68 2.469276 1_555
Na2 O30 2.492972 1_555
Na2 O15 2.525827 1_455
Na2 O52 2.563550 1_455
Na2 O66 2.572636 1_555
Na2 O51 2.592289 1_455
Na3 O14 2.270418 1_555
Na3 O71 2.578372 1_555
Na3 O50 2.632356 1_555
Na3 O49 2.636921 1_555
Na3 O6 2.677480 1_555
Na3 O69 2.737671 1_555
Na4 O48 2.393501 1_555
Na4 O50 2.496199 1_555
Na4 O12 2.571091 1_555
Na4 O69 2.740585 1_655
Na4 O70 2.757943 1_655
Na4 O33 2.832251 1_655
Na4 O5 2.943110 1_555
Na4 O7 2.991604 1_655
Na5 O13 2.238733 1_555
Na5 O48 2.410912 1_555
Na5 O71 2.537122 1_545
Na5 O49 2.585026 1_555
Na5 O70 2.747505 1_545
Na5 O34 2.948809 1_545
Na6 O64 2.455398 1_555
Na6 O43 2.480235 1_555
Na6 O65 2.549253 1_555
Na6 O42 2.676270 1_455
Na6 O28 2.720836 1_555
Na6 O7 2.733914 1_555
Na7 O63 2.364782 1_555
Na7 O29 2.511411 1_555
Na7 O44 2.528370 1_455
Na7 O43 2.597022 1_565
Na7 O65 2.651739 1_555
Na7 O8 2.966895 1_555
Na8 O44 2.476459 1_555
Na8 O64 2.499011 1_555
Na8 O6 2.642353 1_555
Na8 O27 2.648699 1_555
Na8 O63 2.653168 1_555
Na8 O42 2.673320 1_565
Na9 O61 2.375622 1_555
Na9 O26 2.413469 1_554
Na9 O45 2.609885 1_455
Na9 O47 2.621210 1_565
Na9 O62 2.671456 1_555
Na9 O11 2.840466 1_555
Na10 O60 2.449664 1_555
Na10 O45 2.468447 1_555
Na10 O62 2.512631 1_555
Na10 O9 2.667353 1_555
Na10 O24 2.699178 1_554
Na10 O46 2.732148 1_565
Na11 O47 2.434156 1_555
Na11 O25 2.485479 1_554
Na11 O60 2.497267 1_555
Na11 O61 2.584834 1_555
Na11 O46 2.635061 1_455
Na11 O10 2.756693 1_555
Na12 O40 2.452537 1_655
Na12 O41 2.518544 1_555
Na12 O55 2.597620 1_555
Na12 O4 2.674979 1_555
Na12 O19 2.786385 1_556
Na12 O54 2.880171 1_555
Na12 O26 2.903192 1_655
Na13 O5 2.354543 1_555
Na13 O39 2.374769 1_655
Na13 O55 2.611210 1_555
Na13 O56 2.639601 1_555
Na13 O41 2.675197 1_545
Na14 O40 2.436608 1_545
Na14 O39 2.474949 1_555
Na14 O56 2.599061 1_555
Na14 O3 2.695083 1_555
Na14 O54 2.701801 1_555
Na14 O18 2.728770 1_556
Na14 O25 2.845659 1_555
Na15 O37 2.378216 1_555
Na15 O57 2.611057 1_555
Na15 O38 2.616779 1_655
Na15 O2 2.626877 1_555
Na15 O59 2.652857 1_555
Na15 O30 2.786054 1_655
Na16 O36 2.472230 1_545
Na16 O38 2.601535 1_555
Na16 O57 2.651933 1_555
Na16 O21 2.718573 1_555
Na16 O0 2.818339 1_555
Na16 O29 2.821913 1_545
Na16 O58 2.826764 1_555
Na17 O36 2.494872 1_655
Na17 O59 2.573798 1_555
Na17 O37 2.578413 1_565
Na17 O22 2.620436 1_555
Na17 O27 2.654694 1_555
Na17 O58 2.762099 1_555
Na17 O1 2.847601 1_555
Na18 O44 2.397500 1_555
Na18 O43 2.523440 1_665
Na18 O37 2.530974 1_565
Na18 O36 2.533370 1_655
Na18 O42 2.705327 1_565
Na18 O38 2.806480 1_665
Na19 O47 2.421219 1_555
Na19 O39 2.457259 1_554
Na19 O45 2.489833 1_445
Na19 O40 2.515472 1_544
Na19 O46 2.714656 1_455
Na19 O41 2.826132 1_444
Na20 O48 2.363851 1_555
Na20 O49 2.511057 1_555
Na20 O55 2.536159 1_555
Na20 O56 2.555486 1_555
Na20 O50 2.587299 1_555
Na20 O54 2.837077 1_555
Na21 O57 2.484337 1_555
Na21 O52 2.507887 1_555
Na21 O51 2.529140 1_555
Na21 O59 2.538822 1_555
Na21 O58 2.653706 1_555
Na21 O53 2.671721 1_555
Na22 O61 2.359284 1_555
Na22 O60 2.399250 1_555
Na22 O68 2.573457 1_555
Na22 O62 2.630612 1_555
Na22 O67 2.687755 1_555
Na22 O66 2.739338 1_555
Na23 O63 2.294909 1_555
Na23 O64 2.300944 1_555
Na23 O65 2.639474 1_555
Na23 O71 2.644216 1_555
Na23 O69 2.784755 1_555
Na23 O70 2.796971 1_555
O0 S0 1.489561 1_555
O0 Zn0 2.232638 1_445
O1 S1 1.489031 1_555
O1 Zn0 2.125918 1_555
O2 S2 1.491998 1_555
O2 Zn0 2.152213 1_545
O3 S3 1.488846 1_555
O3 Zn1 2.130276 1_555
O4 S4 1.476310 1_655
O4 Zn1 2.336878 1_665
O5 Si0 1.641309 1_555
O5 Zn1 1.976824 1_655
O6 Si0 1.631649 1_565
O6 Zn2 1.987373 1_555
O7 S3 1.468432 1_555
O8 S4 1.472651 1_555
O8 Zn2 2.170361 1_455
O9 S1 1.490076 1_555
O9 Zn3 2.309867 1_665
O10 S2 1.490887 1_455
O10 Zn3 2.209871 1_555
O11 S0 1.490074 1_565
O11 Zn3 2.109805 1_565
O12 S5 1.486995 1_555
O12 Zn4 2.140956 1_555
O13 Si1 1.625366 1_555
O13 Zn4 1.924529 1_555
O14 Si2 1.641869 1_555
O14 Zn4 1.959852 1_555
O15 Si3 1.639078 1_555
O15 Zn5 1.885778 1_555
O16 S6 1.483118 1_555
O16 Zn5 2.173134 1_555
O17 Si4 1.640598 1_555
O17 Zn5 1.889514 1_555
O18 Si4 1.682415 1_555
O18 Zr0 2.020913 1_554
O19 Si3 1.692751 1_555
O19 Zr0 2.033211 1_554
O20 S6 1.518932 1_555
O20 Zr0 2.128283 1_554
O21 Si1 1.681387 1_555
O21 Zr1 2.038748 1_555
O22 Si2 1.668993 1_555
O22 Zr1 2.004407 1_555
O23 S5 1.515563 1_555
O23 Zr1 2.154064 1_555
O24 S7 1.467190 1_555
O24 Zn6 2.424981 1_556
O25 Si5 1.613084 1_555
O25 Zn6 1.955152 1_556
O26 Si6 1.616340 1_555
O26 Zn6 2.003078 1_556
O27 Si7 1.622493 1_555
O27 Zn7 1.960757 1_555
O28 S8 1.470676 1_555
O28 Zn7 2.458578 1_555
O29 Si8 1.626421 1_555
O29 Zn7 2.000868 1_555
O30 Si8 1.657528 1_555
O30 Zn8 1.893117 1_555
O31 Si7 1.648555 1_555
O31 Zn8 1.882683 1_555
O32 S8 1.485980 1_555
O32 Zn8 2.160258 1_555
O33 Si5 1.677887 1_555
O33 Zr2 2.054405 1_555
O34 Si6 1.682918 1_555
O34 Zr2 1.977092 1_555
O35 S7 1.507137 1_555
O35 Zr2 2.160587 1_555
O36 Si8 1.652418 1_555
O36 Zn0 2.000100 1_455
O37 Si7 1.643286 1_545
O37 Zn0 2.009994 1_545
O38 S8 1.489219 1_555
O38 Zn0 2.360232 1_445
O39 Si5 1.632613 1_555
O39 Zn1 2.051181 1_555
O40 Si6 1.640044 1_555
O40 Zn1 2.103585 1_565
O41 S7 1.470533 1_555
O41 Zn1 2.385747 1_665
O42 S5 1.478691 1_555
O42 Zn2 2.251302 1_545
O43 Si1 1.649954 1_555
O43 Zn2 2.051418 1_445
O44 Si2 1.646777 1_555
O44 Zn2 2.028060 1_555
O45 Si3 1.649491 1_555
O45 Zn3 2.033050 1_665
O46 S6 1.480183 1_555
O46 Zn3 2.237380 1_655
O47 Si4 1.647920 1_555
O47 Zn3 2.035222 1_555
O48 Si0 1.661295 1_555
O48 Zn4 2.174729 1_555
O49 S3 1.481926 1_555
O49 Zn4 2.459884 1_555
O50 S4 1.476486 1_655
O51 S1 1.509411 1_555
O51 Zn5 2.440340 1_555
O52 S2 1.505630 1_555
O53 S0 1.502650 1_555
O54 S7 1.507629 1_555
O54 Zr0 2.212337 1_555
O55 Si5 1.671668 1_655
O55 Zr0 2.148519 1_555
O56 Si6 1.665983 1_545
O56 Zr0 2.172299 1_555
O57 Si7 1.669986 1_545
O57 Zr1 2.119712 1_555
O58 S8 1.525477 1_555
O58 Zr1 2.220470 1_555
O59 Si8 1.669788 1_655
O59 Zr1 2.126439 1_555
O60 Si4 1.637075 1_555
O60 Zn6 2.120655 1_555
O61 Si3 1.628653 1_455
O61 Zn6 2.037841 1_555
O62 S6 1.472994 1_565
O63 Si1 1.635518 1_565
O63 Zn7 2.055013 1_555
O64 Si2 1.642812 1_555
O64 Zn7 2.185029 1_555
O65 S5 1.470928 1_455
O65 Zn7 2.532773 1_555
O66 S0 1.501350 1_565
O66 Zn8 2.440148 1_555
O67 S1 1.494560 1_555
O68 S2 1.491968 1_455
O69 S3 1.531075 1_555
O69 Zr2 2.275973 1_555
O70 S4 1.543171 1_555
O70 Zr2 2.161059 1_555
O71 Si0 1.713942 1_565
O71 Zr2 2.095073 1_555
