# generated using pymatgen
data_LiCuS
_symmetry_space_group_name_H-M   'P 1'
_cell_length_a   3.93732315
_cell_length_b   4.23862431
_cell_length_c   5.71211380
_cell_angle_alpha   90.00000000
_cell_angle_beta   90.00000000
_cell_angle_gamma   90.00000000
_symmetry_Int_Tables_number   1
_chemical_formula_structural   LiCuS
_chemical_formula_sum   'Li2 Cu2 S2'
_cell_volume   95.32851683
_cell_formula_units_Z   2
loop_
 _symmetry_equiv_pos_site_id
 _symmetry_equiv_pos_as_xyz
  1  'x, y, z'
loop_
 _atom_site_type_symbol
 _atom_site_label
 _atom_site_symmetry_multiplicity
 _atom_site_fract_x
 _atom_site_fract_y
 _atom_site_fract_z
 _atom_site_occupancy
  Li  Li0  1  -0.00000000  0.69801662  0.92293859  1
  Li  Li1  1  0.50000000  0.30198338  0.42293859  1
  Cu  Cu0  1  0.00000000  0.86526690  0.38883033  1
  Cu  Cu1  1  0.50000000  0.13473310  0.88883033  1
  S  S0  1  -0.00000000  0.21383145  0.69601008  1
  S  S1  1  0.50000000  0.78616855  0.19601008  1
loop_
_geom_bond_atom_site_label_1
_geom_bond_atom_site_label_2
_geom_bond_distance
_geom_bond_site_symmetry_2
Li0 S0 2.427363 1_555
Li0 S1 2.539343 1_556
Li0 S1 2.539343 1_456
Li0 S0 2.541721 1_565
Li1 S1 2.427363 1_555
Li1 S0 2.539343 1_555
Li1 S0 2.539343 1_655
Li1 S1 2.541721 1_545
Cu0 S1 2.280601 1_555
Cu0 S1 2.280601 1_455
Cu0 S0 2.293816 1_565
Cu0 Li1 2.709257 1_465
Cu0 Li1 2.709257 1_565
Cu0 Li0 2.754030 1_554
Cu0 Li1 3.100640 1_455
Cu0 Li1 3.100640 1_555
Cu0 Li0 3.132167 1_555
Cu1 S0 2.280601 1_555
Cu1 S0 2.280601 1_655
Cu1 S1 2.293816 1_546
Cu1 Li0 2.709257 1_545
Cu1 Li0 2.709257 1_645
Cu1 Li1 2.754030 1_555
Cu1 Li0 3.100640 1_555
Cu1 Li0 3.100640 1_655
Cu1 Li1 3.132167 1_556
