# generated using pymatgen
data_U7Te12
_symmetry_space_group_name_H-M   'P 1'
_cell_length_a   12.63441857
_cell_length_b   12.59169238
_cell_length_c   4.27486038
_cell_angle_alpha   90.00000000
_cell_angle_beta   90.00000000
_cell_angle_gamma   120.04023350
_symmetry_Int_Tables_number   1
_chemical_formula_structural   U7Te12
_chemical_formula_sum   'U7 Te12'
_cell_volume   588.72939177
_cell_formula_units_Z   1
loop_
 _symmetry_equiv_pos_site_id
 _symmetry_equiv_pos_as_xyz
  1  'x, y, z'
loop_
 _atom_site_type_symbol
 _atom_site_label
 _atom_site_symmetry_multiplicity
 _atom_site_fract_x
 _atom_site_fract_y
 _atom_site_fract_z
 _atom_site_occupancy
  U  U0  1  0.38865603  0.48664219  -0.00000000  1
  U  U1  1  0.51484777  0.90392030  -0.00000000  1
  U  U2  1  0.09623240  0.61079606  -0.00000000  1
  U  U3  1  0.22409719  0.04290931  0.50000000  1
  U  U4  1  0.95766648  0.17859176  0.50000000  1
  U  U5  1  0.82116359  0.77822312  0.50000000  1
  U  U6  1  0.66695305  0.33360383  -0.00000000  1
  Te  Te0  1  0.41464786  0.08598958  -0.00000000  1
  Te  Te1  1  0.91590631  0.32668922  0.00000000  1
  Te  Te2  1  0.67180300  0.58784380  0.00000000  1
  Te  Te3  1  0.15545715  0.19329134  -0.00000000  1
  Te  Te4  1  0.80392217  0.96115986  -0.00000000  1
  Te  Te5  1  0.03788503  0.84401865  -0.00000000  1
  Te  Te6  1  0.52720663  0.72034758  0.50000000  1
  Te  Te7  1  0.88086203  0.54539302  0.50000000  1
  Te  Te8  1  0.66547530  0.11948933  0.50000000  1
  Te  Te9  1  0.45290633  0.33549402  0.50000000  1
  Te  Te10  1  0.19138100  0.47081064  0.50000000  1
  Te  Te11  1  0.27959569  0.80812041  0.50000000  1
loop_
_geom_bond_atom_site_label_1
_geom_bond_atom_site_label_2
_geom_bond_distance
_geom_bond_site_symmetry_2
Te0 U3 3.058000 1_554
Te0 U3 3.058000 1_555
Te0 U1 3.124795 1_545
Te0 U6 3.151469 1_555
Te1 U4 3.051155 1_554
Te1 U4 3.051155 1_555
Te1 U2 3.134978 1_655
Te1 U6 3.189857 1_555
Te2 U5 3.057292 1_555
Te2 U5 3.057292 1_554
Te2 U0 3.139648 1_555
Te2 U6 3.171080 1_555
Te3 U4 3.222517 1_454
Te3 U4 3.222517 1_455
Te3 U3 3.248141 1_554
Te3 U3 3.248141 1_555
Te3 U0 3.380616 1_555
Te4 U5 3.228697 1_555
Te4 U5 3.228697 1_554
Te4 U4 3.242362 1_564
Te4 U4 3.242362 1_565
Te4 U1 3.350091 1_555
Te5 U3 3.236733 1_565
Te5 U3 3.236733 1_564
Te5 U5 3.237467 1_454
Te5 U5 3.237467 1_455
Te5 U2 3.366743 1_555
Te6 U1 3.208949 1_556
Te6 U1 3.208949 1_555
Te6 U0 3.336926 1_556
Te6 U0 3.336926 1_555
Te6 U5 3.408055 1_555
Te7 U2 3.226060 1_656
Te7 U2 3.226060 1_655
Te7 U5 3.373110 1_555
Te7 U6 3.430513 1_556
Te7 U6 3.430513 1_555
Te8 U1 3.222767 1_545
Te8 U1 3.222767 1_546
Te8 U4 3.381058 1_555
Te8 U6 3.433267 1_556
Te8 U6 3.433267 1_555
Te9 U0 3.224379 1_556
Te9 U0 3.224379 1_555
Te9 U3 3.356588 1_555
Te9 U6 3.456466 1_556
Te9 U6 3.456466 1_555
Te10 U0 3.212976 1_556
Te10 U0 3.212976 1_555
Te10 U2 3.352948 1_555
Te10 U2 3.352948 1_556
Te10 U4 3.373418 1_455
Te11 U2 3.216516 1_556
Te11 U2 3.216516 1_555
Te11 U1 3.356840 1_556
Te11 U1 3.356840 1_555
Te11 U3 3.362651 1_565
