# generated using pymatgen
data_Na6Nb2Ga6Si5S7O48
_symmetry_space_group_name_H-M   'P 1'
_cell_length_a   17.47266892
_cell_length_b   8.81286699
_cell_length_c   22.40016546
_cell_angle_alpha   89.93761933
_cell_angle_beta   90.54679674
_cell_angle_gamma   120.34165068
_symmetry_Int_Tables_number   1
_chemical_formula_structural   Na6Nb2Ga6Si5S7O48
_chemical_formula_sum   'Na18 Nb6 Ga18 Si15 S21 O144'
_cell_volume   2976.65854754
_cell_formula_units_Z   3
loop_
 _symmetry_equiv_pos_site_id
 _symmetry_equiv_pos_as_xyz
  1  'x, y, z'
loop_
 _atom_site_type_symbol
 _atom_site_label
 _atom_site_symmetry_multiplicity
 _atom_site_fract_x
 _atom_site_fract_y
 _atom_site_fract_z
 _atom_site_occupancy
  Na  Na0  1  0.98740450  0.67225703  0.91135810  1
  Na  Na1  1  0.34831634  0.03527418  0.91453272  1
  Na  Na2  1  0.16741398  0.30433797  0.91146716  1
  Na  Na3  1  0.48703098  0.30347672  0.42015001  1
  Na  Na4  1  0.66667045  0.02814694  0.41571403  1
  Na  Na5  1  0.84626231  0.65884151  0.41828191  1
  Na  Na6  1  0.00103944  0.00737342  0.49528635  1
  Na  Na7  1  0.49453824  0.98861531  0.49676166  1
  Na  Na8  1  0.99498779  0.00512521  0.99482495  1
  Na  Na9  1  0.50050983  0.99382258  0.99322813  1
  Na  Na10  1  0.33811285  0.34529642  0.83333709  1
  Na  Na11  1  0.82892150  0.32293472  0.82469732  1
  Na  Na12  1  0.33013483  0.33705216  0.32817876  1
  Na  Na13  1  0.83630447  0.32741492  0.33829130  1
  Na  Na14  1  0.17246317  0.67340214  0.16368347  1
  Na  Na15  1  0.66536103  0.66962569  0.16820888  1
  Na  Na16  1  0.16782708  0.66276454  0.66719921  1
  Na  Na17  1  0.66422292  0.66257702  0.65917038  1
  Nb  Nb0  1  0.99804306  0.98725811  0.65047589  1
  Nb  Nb1  1  0.49901251  0.01469840  0.63921130  1
  Nb  Nb2  1  0.99855448  0.99375804  0.14314291  1
  Nb  Nb3  1  0.49725129  0.00831333  0.15038456  1
  Nb  Nb4  1  0.16449012  0.67225258  0.31095897  1
  Nb  Nb5  1  0.66212613  0.65370604  0.80833390  1
  Ga  Ga0  1  0.00422893  0.99093406  0.36021525  1
  Ga  Ga1  1  0.49874339  0.01261093  0.34747348  1
  Ga  Ga2  1  0.00149246  0.98561707  0.84448917  1
  Ga  Ga3  1  0.50330075  0.01673416  0.85699686  1
  Ga  Ga4  1  0.33966189  0.35300426  0.67548284  1
  Ga  Ga5  1  0.83366491  0.33118688  0.69464280  1
  Ga  Ga6  1  0.33442101  0.33633796  0.19609755  1
  Ga  Ga7  1  0.82813145  0.31387834  0.18139642  1
  Ga  Ga8  1  0.34051996  0.35259264  0.97123851  1
  Ga  Ga9  1  0.82959025  0.31222492  0.98338443  1
  Ga  Ga10  1  0.33710608  0.35080389  0.48935561  1
  Ga  Ga11  1  0.83821531  0.32404878  0.47305021  1
  Ga  Ga12  1  0.17414564  0.68960344  0.00655826  1
  Ga  Ga13  1  0.66682231  0.67239717  0.01961666  1
  Ga  Ga14  1  0.16659810  0.66207683  0.52069072  1
  Ga  Ga15  1  0.66513646  0.64358410  0.51301248  1
  Ga  Ga16  1  0.66805595  0.64904013  0.31928735  1
  Ga  Ga17  1  0.17337192  0.69341598  0.81545961  1
  Si  Si0  1  0.14291012  0.00992141  0.25330062  1
  Si  Si1  1  0.35747824  0.70827857  0.25489550  1
  Si  Si2  1  0.50535846  0.31143573  0.25479662  1
  Si  Si3  1  0.64323863  0.27258636  0.75278819  1
  Si  Si4  1  0.00500815  0.69747254  0.75406039  1
  Si  Si5  1  0.85886769  0.00766708  0.75507041  1
  Si  Si6  1  0.48237026  0.35643755  0.57927748  1
  Si  Si7  1  0.32384243  0.61538782  0.58293492  1
  Si  Si8  1  0.82485470  0.03505358  0.08186956  1
  Si  Si9  1  0.31232497  0.67295341  0.91244474  1
  Si  Si10  1  0.52623532  0.38059328  0.92274410  1
  Si  Si11  1  0.16348751  0.96165692  0.91798830  1
  Si  Si12  1  0.80877053  0.94376784  0.41447557  1
  Si  Si13  1  0.66374928  0.36364776  0.41649264  1
  Si  Si14  1  0.02487452  0.66811568  0.42308824  1
  S  S0  1  0.65067696  0.00666211  0.25000970  1
  S  S1  1  0.85372894  0.69675567  0.24803373  1
  S  S2  1  0.99436147  0.28406710  0.25021834  1
  S  S3  1  0.15179641  0.29544650  0.75038726  1
  S  S4  1  0.49405178  0.70769554  0.75107901  1
  S  S5  1  0.35415206  0.00821001  0.74887220  1
  S  S6  1  0.97585778  0.33228991  0.58419377  1
  S  S7  1  0.18954602  0.04512552  0.58334480  1
  S  S8  1  0.69341965  0.04701147  0.58328587  1
  S  S9  1  0.83275188  0.61625780  0.58305623  1
  S  S10  1  0.47560150  0.61870668  0.08400499  1
  S  S11  1  0.97863512  0.61534187  0.08265200  1
  S  S12  1  0.33000009  0.04411668  0.08252603  1
  S  S13  1  0.19086023  0.34330104  0.08272696  1
  S  S14  1  0.69021981  0.33580322  0.08301067  1
  S  S15  1  0.81128139  0.66015707  0.92034601  1
  S  S16  1  0.01802702  0.37655307  0.91882854  1
  S  S17  1  0.66892747  0.96135553  0.91751713  1
  S  S18  1  0.31109841  0.96071684  0.41908117  1
  S  S19  1  0.16995571  0.37654322  0.41793515  1
  S  S20  1  0.51710445  0.66267886  0.41608301  1
  O  O0  1  0.09426218  0.03573034  0.30887915  1
  O  O1  1  0.61095863  0.02872438  0.30474004  1
  O  O2  1  0.42012436  0.80662567  0.31094783  1
  O  O3  1  0.90663314  0.77311715  0.30254099  1
  O  O4  1  0.48869544  0.19162221  0.31306066  1
  O  O5  1  0.98134405  0.18242319  0.30401346  1
  O  O6  1  0.11107851  0.19271966  0.80607265  1
  O  O7  1  0.59799085  0.15725356  0.81058144  1
  O  O8  1  0.48446306  0.78569182  0.80567805  1
  O  O9  1  0.98855200  0.78179612  0.81351329  1
  O  O10  1  0.40628242  0.03457557  0.80440379  1
  O  O11  1  0.92140587  0.03569889  0.81194981  1
  O  O12  1  0.39939165  0.98593903  0.69531186  1
  O  O13  1  0.90440855  0.96932942  0.69491754  1
  O  O14  1  0.09171735  0.19748681  0.69714255  1
  O  O15  1  0.58136869  0.18887861  0.69313285  1
  O  O16  1  0.01900517  0.83626565  0.69596451  1
  O  O17  1  0.50624547  0.81182465  0.69686297  1
  O  O18  1  0.40439747  0.83869503  0.19444065  1
  O  O19  1  0.90056453  0.81385458  0.19393987  1
  O  O20  1  0.00534490  0.19768730  0.19553851  1
  O  O21  1  0.51912582  0.20234605  0.19500131  1
  O  O22  1  0.08127916  0.97300443  0.19233881  1
  O  O23  1  0.59284607  0.98803731  0.19575467  1
  O  O24  1  0.43646775  0.36917567  0.63969548  1
  O  O25  1  0.93410799  0.35282863  0.63746745  1
  O  O26  1  0.24171428  0.12852709  0.63811666  1
  O  O27  1  0.74605988  0.13643015  0.63689768  1
  O  O28  1  0.30608953  0.49847458  0.64225105  1
  O  O29  1  0.82559947  0.51476034  0.63637970  1
  O  O30  1  0.43347072  0.51367182  0.13727885  1
  O  O31  1  0.93352968  0.51384193  0.13642439  1
  O  O32  1  0.32178755  0.12846400  0.13615372  1
  O  O33  1  0.81245630  0.12127011  0.14191328  1
  O  O34  1  0.24396725  0.36322851  0.13627909  1
  O  O35  1  0.74337691  0.35880917  0.13794256  1
  O  O36  1  0.22445043  0.30827121  0.02754664  1
  O  O37  1  0.73133888  0.31283403  0.02859935  1
  O  O38  1  0.42160539  0.54282683  0.02886028  1
  O  O39  1  0.92578848  0.54276774  0.02693301  1
  O  O40  1  0.34304845  0.14252363  0.02701185  1
  O  O41  1  0.85139354  0.16167692  0.02433317  1
  O  O42  1  0.22855627  0.14911434  0.52841631  1
  O  O43  1  0.72771900  0.15189470  0.52793079  1
  O  O44  1  0.34784750  0.54445554  0.52377367  1
  O  O45  1  0.84568857  0.54441830  0.52715617  1
  O  O46  1  0.42195373  0.30404265  0.51850802  1
  O  O47  1  0.92227148  0.30022112  0.52893580  1
  O  O48  1  0.27522470  0.72277146  0.97287371  1
  O  O49  1  0.77208783  0.68584907  0.97420699  1
  O  O50  1  0.07501097  0.45775217  0.97368037  1
  O  O51  1  0.58760969  0.47718989  0.98000807  1
  O  O52  1  0.13116240  0.82403521  0.97470277  1
  O  O53  1  0.66169234  0.86285306  0.97245925  1
  O  O54  1  0.27133759  0.85673595  0.47255400  1
  O  O55  1  0.76615182  0.81445916  0.47286108  1
  O  O56  1  0.16040416  0.46128356  0.47155275  1
  O  O57  1  0.63201901  0.43696104  0.47175004  1
  O  O58  1  0.08825861  0.69638541  0.47893472  1
  O  O59  1  0.57328371  0.69497306  0.47018554  1
  O  O60  1  0.07281552  0.63947239  0.36236884  1
  O  O61  1  0.55621594  0.63089219  0.36230346  1
  O  O62  1  0.25728872  0.86728927  0.36354834  1
  O  O63  1  0.74234140  0.86269261  0.35586492  1
  O  O64  1  0.18259468  0.48513943  0.36296364  1
  O  O65  1  0.69043309  0.49317642  0.35928653  1
  O  O66  1  0.05653581  0.48463846  0.86536776  1
  O  O67  1  0.57439200  0.50659214  0.86317842  1
  O  O68  1  0.18892456  0.88032017  0.86220556  1
  O  O69  1  0.68283214  0.87948835  0.86377066  1
  O  O70  1  0.24125640  0.62027681  0.85725136  1
  O  O71  1  0.75748194  0.63632391  0.86537886  1
  O  O72  1  0.01360392  0.83906085  0.41510599  1
  O  O73  1  0.50884164  0.82135484  0.41081798  1
  O  O74  1  0.40087869  0.98307479  0.41358932  1
  O  O75  1  0.90732782  0.96496378  0.40503316  1
  O  O76  1  0.08693457  0.20416061  0.41244754  1
  O  O77  1  0.57775904  0.16026562  0.40814237  1
  O  O78  1  0.00746888  0.20031385  0.91476298  1
  O  O79  1  0.51353195  0.18612662  0.91466014  1
  O  O80  1  0.07775036  0.99360779  0.90873903  1
  O  O81  1  0.58747345  0.97084594  0.91289827  1
  O  O82  1  0.40963027  0.84745968  0.90375307  1
  O  O83  1  0.90128875  0.81690173  0.91464425  1
  O  O84  1  0.49201518  0.17331626  0.58731361  1
  O  O85  1  0.98758720  0.17272886  0.59017314  1
  O  O86  1  0.09909135  0.03078623  0.58817941  1
  O  O87  1  0.60002362  0.02188992  0.58962189  1
  O  O88  1  0.41477397  0.81364280  0.59384300  1
  O  O89  1  0.91680859  0.80139841  0.58912472  1
  O  O90  1  0.48739114  0.80176913  0.08993584  1
  O  O91  1  0.98808241  0.79810736  0.08750435  1
  O  O92  1  0.41298542  0.02472794  0.08868877  1
  O  O93  1  0.91500425  0.01293262  0.09218933  1
  O  O94  1  0.09716332  0.17808044  0.09030829  1
  O  O95  1  0.60099075  0.16882721  0.08761538  1
  O  O96  1  0.34292128  0.16248625  0.74125680  1
  O  O97  1  0.84516394  0.16960592  0.74326601  1
  O  O98  1  0.23779956  0.30317856  0.74405835  1
  O  O99  1  0.74122069  0.31096414  0.74304619  1
  O  O100  1  0.41789091  0.52520158  0.74556269  1
  O  O101  1  0.91644453  0.51686555  0.74062372  1
  O  O102  1  0.34498155  0.51975528  0.24321495  1
  O  O103  1  0.84625644  0.52252993  0.23786876  1
  O  O104  1  0.41663949  0.31383918  0.24035673  1
  O  O105  1  0.91940789  0.31657690  0.24199168  1
  O  O106  1  0.24018717  0.17010584  0.24263668  1
  O  O107  1  0.73801025  0.17468349  0.24411130  1
  O  O108  1  0.31788029  0.49539349  0.92178990  1
  O  O109  1  0.82209439  0.50066774  0.92470122  1
  O  O110  1  0.42705384  0.35400845  0.92318167  1
  O  O111  1  0.92923839  0.36691801  0.92482367  1
  O  O112  1  0.25114538  0.15298609  0.92933839  1
  O  O113  1  0.74859128  0.14523558  0.92080376  1
  O  O114  1  0.31785426  0.13519968  0.41932562  1
  O  O115  1  0.81755049  0.13600999  0.42321324  1
  O  O116  1  0.24833123  0.35233418  0.42190844  1
  O  O117  1  0.75153352  0.34682233  0.42736972  1
  O  O118  1  0.42752421  0.49903444  0.42093354  1
  O  O119  1  0.92604949  0.49656416  0.42373838  1
  O  O120  1  0.17688247  0.49551980  0.07766056  1
  O  O121  1  0.67809512  0.48805081  0.08023777  1
  O  O122  1  0.06741224  0.63668336  0.08012584  1
  O  O123  1  0.56503496  0.64046611  0.07915885  1
  O  O124  1  0.25116108  0.86173038  0.07876830  1
  O  O125  1  0.74124274  0.83620012  0.07516402  1
  O  O126  1  0.17627804  0.86714340  0.58018412  1
  O  O127  1  0.68339704  0.87232881  0.57832197  1
  O  O128  1  0.24126406  0.65099924  0.57590780  1
  O  O129  1  0.75622803  0.64385998  0.57995591  1
  O  O130  1  0.06519519  0.48969658  0.57917214  1
  O  O131  1  0.58130889  0.52609458  0.57478651  1
  O  O132  1  0.14900834  0.82568208  0.25892882  1
  O  O133  1  0.65945448  0.85167894  0.24975237  1
  O  O134  1  0.25974502  0.69335213  0.25916591  1
  O  O135  1  0.76799303  0.68796677  0.24914268  1
  O  O136  1  0.07901780  0.46053190  0.25299305  1
  O  O137  1  0.59422536  0.50373553  0.25709617  1
  O  O138  1  0.15781365  0.46630778  0.75129361  1
  O  O139  1  0.64958500  0.47084432  0.75906501  1
  O  O140  1  0.09440371  0.68538611  0.75701553  1
  O  O141  1  0.57876836  0.69527028  0.75536346  1
  O  O142  1  0.26810029  0.84135995  0.75129365  1
  O  O143  1  0.76144966  0.82620768  0.76169784  1
loop_
_geom_bond_atom_site_label_1
_geom_bond_atom_site_label_2
_geom_bond_distance
_geom_bond_site_symmetry_2
Na0 O111 2.367690 1_555
Na0 O9 2.390128 1_555
Na0 O83 2.415482 1_555
Na0 O80 2.449580 1_655
Na0 O109 2.514278 1_555
Na0 O52 2.579435 1_655
Na0 O66 2.701765 1_655
Na0 O39 2.822984 1_556
Na1 O82 2.396452 1_545
Na1 O112 2.420692 1_555
Na1 O110 2.431526 1_555
Na1 O79 2.494654 1_555
Na1 O68 2.663412 1_545
Na1 O10 2.676844 1_555
Na1 O40 2.710622 1_556
Na1 O48 2.719221 1_545
Na2 O108 2.305931 1_555
Na2 O80 2.370917 1_545
Na2 O112 2.457438 1_555
Na2 O78 2.464024 1_555
Na2 O6 2.548062 1_555
Na2 O70 2.699097 1_555
Na2 O36 2.769701 1_556
Na2 O50 2.937543 1_555
Na3 O118 2.421233 1_555
Na3 O74 2.441922 1_545
Na3 O57 2.464508 1_555
Na3 O46 2.490136 1_555
Na3 O77 2.491699 1_555
Na3 O114 2.550980 1_555
Na3 O4 2.600451 1_555
Na3 O61 2.822051 1_555
Na4 O115 2.311242 1_555
Na4 O77 2.370635 1_555
Na4 O73 2.419770 1_545
Na4 O117 2.437443 1_555
Na4 O1 2.661911 1_555
Na4 O43 2.724926 1_555
Na4 O63 2.767206 1_545
Na4 O59 2.821775 1_545
Na5 O75 2.366608 1_555
Na5 O117 2.397762 1_555
Na5 O119 2.452421 1_555
Na5 O72 2.527602 1_655
Na5 O45 2.636212 1_555
Na5 O65 2.685271 1_555
Na5 O55 2.703812 1_555
Na5 O3 2.796752 1_555
Na6 O72 2.411753 1_545
Na6 O76 2.473838 1_555
Na6 O75 2.495623 1_445
Na6 O86 2.623602 1_555
Na6 O85 2.656848 1_455
Na6 O89 2.689072 1_445
Na7 O74 2.452097 1_555
Na7 O77 2.483854 1_565
Na7 O73 2.515756 1_555
Na7 O84 2.616718 1_565
Na7 O88 2.632209 1_555
Na7 O87 2.681772 1_565
Na8 O78 2.417558 1_655
Na8 O83 2.421650 1_545
Na8 O80 2.453954 1_645
Na8 O93 2.621093 1_556
Na8 O94 2.696319 1_656
Na8 O91 2.725275 1_546
Na9 O79 2.373370 1_565
Na9 O81 2.439574 1_555
Na9 O82 2.465327 1_555
Na9 O95 2.670551 1_566
Na9 O90 2.686911 1_556
Na9 O92 2.733106 1_566
Na10 O100 2.476948 1_555
Na10 O110 2.508249 1_555
Na10 O108 2.508393 1_555
Na10 O98 2.546907 1_555
Na10 O96 2.646566 1_555
Na10 O112 2.694134 1_555
Na11 O99 2.342673 1_555
Na11 O97 2.374110 1_555
Na11 O101 2.492723 1_555
Na11 O113 2.624248 1_555
Na11 O111 2.737401 1_555
Na11 O109 2.772584 1_555
Na12 O102 2.421317 1_555
Na12 O106 2.432867 1_555
Na12 O104 2.562497 1_555
Na12 O116 2.592614 1_555
Na12 O118 2.595219 1_555
Na12 O114 2.644597 1_555
Na13 O119 2.435539 1_555
Na13 O115 2.453129 1_555
Na13 O117 2.552986 1_555
Na13 O107 2.610268 1_555
Na13 O105 2.640282 1_555
Na13 O103 2.782826 1_555
Na14 O124 2.449650 1_555
Na14 O120 2.511626 1_555
Na14 O122 2.512525 1_555
Na14 O134 2.568834 1_555
Na14 O132 2.664475 1_555
Na14 O136 2.673383 1_555
Na15 O137 2.419029 1_555
Na15 O133 2.469509 1_555
Na15 O135 2.484824 1_555
Na15 O125 2.517250 1_555
Na15 O123 2.568491 1_555
Na15 O121 2.620728 1_555
Na16 O128 2.454373 1_555
Na16 O140 2.458020 1_555
Na16 O142 2.500558 1_555
Na16 O138 2.503948 1_555
Na16 O130 2.570193 1_555
Na16 O126 2.606594 1_555
Na17 O131 2.304482 1_555
Na17 O129 2.466384 1_555
Na17 O127 2.487497 1_555
Na17 O141 2.729967 1_555
Na17 O139 2.737467 1_555
Na17 O143 2.774474 1_555
Nb0 O16 1.850795 1_655
Nb0 O13 1.860701 1_555
Nb0 O14 2.027831 1_665
Nb0 O89 2.050609 1_555
Nb0 O86 2.138530 1_665
Nb0 O85 2.195877 1_565
Nb1 O84 1.867318 1_555
Nb1 O15 1.903969 1_555
Nb1 O88 1.918134 1_545
Nb1 O12 2.066062 1_545
Nb1 O87 2.068130 1_555
Nb1 O17 2.258413 1_545
Nb2 O22 1.890328 1_655
Nb2 O93 1.918186 1_565
Nb2 O19 2.007633 1_555
Nb2 O94 2.053062 1_665
Nb2 O91 2.059459 1_555
Nb2 O20 2.099528 1_665
Nb3 O21 1.845291 1_555
Nb3 O18 1.848710 1_545
Nb3 O23 2.030622 1_545
Nb3 O92 2.067502 1_555
Nb3 O95 2.171942 1_555
Nb3 O90 2.204664 1_545
Nb4 O60 1.882113 1_555
Nb4 O132 1.902613 1_555
Nb4 O134 1.968343 1_555
Nb4 O62 2.030614 1_555
Nb4 O136 2.133248 1_555
Nb4 O64 2.166126 1_555
Nb5 O139 1.872312 1_555
Nb5 O67 1.888024 1_555
Nb5 O143 1.944184 1_555
Nb5 O141 2.041688 1_555
Nb5 O71 2.156162 1_555
Nb5 O69 2.213979 1_555
Ga0 O0 1.832761 1_565
Ga0 O72 1.882591 1_555
Ga0 O75 1.888744 1_455
Ga0 O76 2.053622 1_565
Ga0 O3 2.217652 1_455
Ga0 O5 2.293511 1_465
Ga1 O2 1.820498 1_545
Ga1 O4 1.840778 1_555
Ga1 O77 1.897160 1_555
Ga1 O1 2.129562 1_555
Ga1 O74 2.186983 1_545
Ga1 O73 2.275066 1_545
Ga2 O11 1.813286 1_465
Ga2 O9 1.829882 1_455
Ga2 O80 1.928851 1_555
Ga2 O6 2.057986 1_565
Ga2 O83 2.272239 1_455
Ga2 O78 2.423342 1_565
Ga3 O7 1.819873 1_555
Ga3 O82 1.887762 1_545
Ga3 O79 1.912873 1_555
Ga3 O81 2.111687 1_545
Ga3 O10 2.125321 1_555
Ga3 O8 2.212796 1_545
Ga4 O28 1.814151 1_555
Ga4 O24 1.818256 1_555
Ga4 O26 2.024554 1_555
Ga4 O100 2.122291 1_555
Ga4 O98 2.231876 1_555
Ga4 O96 2.254482 1_555
Ga5 O101 1.847860 1_555
Ga5 O97 1.880401 1_555
Ga5 O99 1.886409 1_555
Ga5 O27 2.067560 1_555
Ga5 O25 2.112087 1_555
Ga5 O29 2.136045 1_555
Ga6 O104 1.829244 1_555
Ga6 O102 1.859975 1_555
Ga6 O106 1.880535 1_555
Ga6 O30 2.116594 1_555
Ga6 O34 2.164898 1_555
Ga6 O32 2.190650 1_555
Ga7 O33 1.807608 1_555
Ga7 O35 1.965034 1_555
Ga7 O107 2.011168 1_555
Ga7 O31 2.065076 1_555
Ga7 O105 2.075308 1_555
Ga7 O103 2.119156 1_555
Ga8 O110 1.859306 1_555
Ga8 O108 1.859766 1_555
Ga8 O112 1.901120 1_555
Ga8 O38 2.013461 1_556
Ga8 O40 2.250928 1_556
Ga8 O36 2.259175 1_556
Ga9 O41 1.802255 1_556
Ga9 O113 1.999052 1_555
Ga9 O37 2.003859 1_556
Ga9 O111 2.044237 1_555
Ga9 O39 2.104179 1_556
Ga9 O109 2.171361 1_555
Ga10 O44 1.794071 1_555
Ga10 O46 1.841817 1_555
Ga10 O42 2.035813 1_555
Ga10 O118 2.123266 1_555
Ga10 O116 2.159898 1_555
Ga10 O114 2.352646 1_555
Ga11 O115 1.874732 1_555
Ga11 O119 1.886335 1_555
Ga11 O117 1.912669 1_555
Ga11 O47 2.011014 1_555
Ga11 O43 2.149983 1_555
Ga11 O45 2.236862 1_555
Ga12 O48 1.810343 1_554
Ga12 O52 1.834035 1_554
Ga12 O50 2.029995 1_554
Ga12 O124 2.151680 1_555
Ga12 O120 2.353683 1_555
Ga12 O122 2.364180 1_555
Ga13 O51 1.799070 1_554
Ga13 O125 1.843778 1_555
Ga13 O53 2.021742 1_554
Ga13 O49 2.060772 1_554
Ga13 O123 2.135407 1_555
Ga13 O121 2.198983 1_555
Ga14 O58 1.798048 1_555
Ga14 O128 1.827297 1_555
Ga14 O56 2.040365 1_555
Ga14 O54 2.077636 1_555
Ga14 O130 2.117484 1_555
Ga14 O126 2.182380 1_555
Ga15 O57 1.853071 1_555
Ga15 O55 1.879873 1_555
Ga15 O131 1.906707 1_555
Ga15 O59 2.098848 1_555
Ga15 O129 2.175411 1_555
Ga15 O127 2.377715 1_555
Ga16 O65 1.837307 1_555
Ga16 O63 1.848040 1_555
Ga16 O137 1.882892 1_555
Ga16 O61 2.119567 1_555
Ga16 O135 2.254242 1_555
Ga16 O133 2.428685 1_555
Ga17 O68 1.851902 1_555
Ga17 O70 1.857047 1_555
Ga17 O140 1.868096 1_555
Ga17 O142 2.089604 1_555
Ga17 O66 2.246525 1_555
Ga17 O138 2.365337 1_555
O0 Si0 1.593844 1_555
O1 S0 1.474958 1_555
O2 Si1 1.594828 1_555
O3 S1 1.466249 1_555
O4 Si2 1.611428 1_555
O5 S2 1.450260 1_555
O6 S3 1.498474 1_555
O7 Si3 1.593388 1_555
O8 S4 1.455485 1_555
O9 Si4 1.622909 1_655
O10 S5 1.481944 1_555
O11 Si5 1.606169 1_555
O12 S5 1.509346 1_565
O13 Si5 1.689963 1_565
O14 S3 1.527258 1_555
O15 Si3 1.633211 1_555
O16 Si4 1.717515 1_555
O17 S4 1.472205 1_555
O18 Si1 1.700815 1_555
O19 S1 1.538145 1_555
O20 S2 1.506877 1_455
O21 Si2 1.737471 1_555
O22 Si0 1.658056 1_565
O23 S0 1.527877 1_565
O24 Si6 1.612297 1_555
O25 S6 1.462686 1_555
O26 S7 1.476523 1_555
O27 S8 1.468965 1_555
O28 Si7 1.614072 1_555
O29 S9 1.459461 1_555
O30 S10 1.465856 1_555
O31 S11 1.475005 1_555
O32 S12 1.459176 1_555
O33 Si8 1.614723 1_555
O34 S13 1.464731 1_555
O35 S14 1.485374 1_555
O36 S13 1.471501 1_555
O37 S14 1.485555 1_555
O38 S10 1.485019 1_555
O39 S11 1.484100 1_555
O40 S12 1.467568 1_555
O41 Si8 1.614572 1_555
O42 S7 1.483514 1_555
O43 S8 1.484274 1_555
O44 Si7 1.612519 1_555
O45 S9 1.473624 1_555
O46 Si6 1.631579 1_555
O47 S6 1.483220 1_555
O48 Si9 1.658564 1_555
O49 S15 1.465909 1_555
O50 S16 1.507258 1_555
O51 Si10 1.604328 1_555
O52 Si11 1.649909 1_555
O53 S17 1.474444 1_555
O54 S18 1.458563 1_555
O55 Si12 1.649732 1_555
O56 S19 1.469617 1_555
O57 Si13 1.622851 1_555
O58 Si14 1.596560 1_555
O59 S20 1.486289 1_555
O60 Si14 1.688624 1_555
O61 S20 1.485455 1_555
O62 S18 1.518914 1_555
O63 Si12 1.648178 1_555
O64 S19 1.506675 1_555
O65 Si13 1.622655 1_555
O66 S16 1.469528 1_555
O67 Si10 1.671992 1_555
O68 Si11 1.614663 1_555
O69 S17 1.487810 1_555
O70 Si9 1.635712 1_555
O71 S15 1.490900 1_555
O72 Si14 1.624444 1_555
O73 S20 1.481059 1_555
O74 S18 1.485305 1_555
O75 Si12 1.651360 1_555
O76 S19 1.482507 1_555
O77 Si13 1.667226 1_555
O78 S16 1.471454 1_555
O79 Si10 1.623202 1_555
O80 Si11 1.669283 1_555
O81 S17 1.469927 1_555
O82 Si9 1.630234 1_555
O83 S15 1.485394 1_555
O84 Si6 1.714289 1_555
O85 S6 1.525628 1_555
O86 S7 1.525477 1_555
O87 S8 1.539976 1_555
O88 Si7 1.680969 1_555
O89 S9 1.553493 1_555
O90 S10 1.525457 1_555
O91 S11 1.537791 1_555
O92 S12 1.548264 1_555
O93 Si8 1.695801 1_555
O94 S13 1.557432 1_555
O95 S14 1.513808 1_555
O96 S5 1.478029 1_555
O97 Si5 1.583416 1_555
O98 S3 1.477652 1_555
O99 Si3 1.585860 1_555
O100 S4 1.485850 1_555
O101 Si4 1.588180 1_655
O102 Si1 1.584244 1_555
O103 S1 1.491337 1_555
O104 Si2 1.591115 1_555
O105 S2 1.485114 1_555
O106 Si0 1.587989 1_555
O107 S0 1.503053 1_555
O108 Si9 1.629182 1_555
O109 S15 1.512762 1_555
O110 Si10 1.627352 1_555
O111 S16 1.517521 1_655
O112 Si11 1.624176 1_545
O113 S17 1.512734 1_545
O114 S18 1.481583 1_545
O115 Si12 1.633932 1_545
O116 S19 1.490500 1_555
O117 Si13 1.629890 1_555
O118 S20 1.504618 1_555
O119 Si14 1.621877 1_655
O120 S13 1.483999 1_555
O121 S14 1.461419 1_555
O122 S11 1.466838 1_455
O123 S10 1.480152 1_555
O124 S12 1.499773 1_565
O125 Si8 1.624122 1_565
O126 S7 1.466834 1_565
O127 S8 1.463073 1_565
O128 Si7 1.630394 1_555
O129 S9 1.475995 1_555
O130 S6 1.479495 1_455
O131 Si6 1.620412 1_555
O132 Si0 1.684536 1_565
O133 S0 1.449400 1_565
O134 Si1 1.648848 1_555
O135 S1 1.460892 1_555
O136 S2 1.511531 1_455
O137 Si2 1.620430 1_555
O138 S3 1.455649 1_555
O139 Si3 1.699806 1_555
O140 Si4 1.619138 1_555
O141 S4 1.540549 1_555
O142 S5 1.481045 1_565
O143 Si5 1.652552 1_565
