# generated using pymatgen
data_Yb2Sn5Pt3
_symmetry_space_group_name_H-M   'P 1'
_cell_length_a   4.49334000
_cell_length_b   7.43751400
_cell_length_c   26.74316100
_cell_angle_alpha   90.00000000
_cell_angle_beta   90.00000000
_cell_angle_gamma   90.00000000
_symmetry_Int_Tables_number   1
_chemical_formula_structural   Yb2Sn5Pt3
_chemical_formula_sum   'Yb8 Sn20 Pt12'
_cell_volume   893.73716299
_cell_formula_units_Z   4
loop_
 _symmetry_equiv_pos_site_id
 _symmetry_equiv_pos_as_xyz
  1  'x, y, z'
loop_
 _atom_site_type_symbol
 _atom_site_label
 _atom_site_symmetry_multiplicity
 _atom_site_fract_x
 _atom_site_fract_y
 _atom_site_fract_z
 _atom_site_occupancy
  Yb  Yb0  1  0.75000000  0.25139400  0.92294200  1
  Yb  Yb1  1  0.75000000  0.28298900  0.22705200  1
  Yb  Yb2  1  0.25000000  0.21701100  0.72705200  1
  Yb  Yb3  1  0.75000000  0.78298900  0.27294800  1
  Yb  Yb4  1  0.75000000  0.75139400  0.57705800  1
  Yb  Yb5  1  0.25000000  0.74860600  0.07705800  1
  Yb  Yb6  1  0.25000000  0.71701100  0.77294800  1
  Yb  Yb7  1  0.25000000  0.24860600  0.42294200  1
  Sn  Sn0  1  0.75000000  0.21538100  0.63112000  1
  Sn  Sn1  1  0.75000000  0.87967700  0.70174100  1
  Sn  Sn2  1  0.75000000  0.46165200  0.04343100  1
  Sn  Sn3  1  0.25000000  0.59388500  0.65313600  1
  Sn  Sn4  1  0.75000000  0.90611500  0.15313600  1
  Sn  Sn5  1  0.25000000  0.03834800  0.54343100  1
  Sn  Sn6  1  0.25000000  0.78461900  0.36888000  1
  Sn  Sn7  1  0.25000000  0.46471200  0.54348000  1
  Sn  Sn8  1  0.25000000  0.53834800  0.95656900  1
  Sn  Sn9  1  0.25000000  0.28461900  0.13112000  1
  Sn  Sn10  1  0.25000000  0.96471200  0.95652000  1
  Sn  Sn11  1  0.25000000  0.62032300  0.20174100  1
  Sn  Sn12  1  0.75000000  0.37967700  0.79825900  1
  Sn  Sn13  1  0.25000000  0.12032300  0.29825900  1
  Sn  Sn14  1  0.75000000  0.03528800  0.04348000  1
  Sn  Sn15  1  0.75000000  0.71538100  0.86888000  1
  Sn  Sn16  1  0.75000000  0.53528800  0.45652000  1
  Sn  Sn17  1  0.75000000  0.96165200  0.45656900  1
  Sn  Sn18  1  0.75000000  0.40611500  0.34686400  1
  Sn  Sn19  1  0.25000000  0.09388500  0.84686400  1
  Pt  Pt0  1  0.25000000  0.00072900  0.20125100  1
  Pt  Pt1  1  0.25000000  0.96458900  0.64341300  1
  Pt  Pt2  1  0.75000000  0.49927100  0.70125100  1
  Pt  Pt3  1  0.75000000  0.03541100  0.35658700  1
  Pt  Pt4  1  0.75000000  0.25730300  0.52778100  1
  Pt  Pt5  1  0.75000000  0.75730300  0.97221900  1
  Pt  Pt6  1  0.75000000  0.99927100  0.79874900  1
  Pt  Pt7  1  0.25000000  0.24269700  0.02778100  1
  Pt  Pt8  1  0.75000000  0.53541100  0.14341300  1
  Pt  Pt9  1  0.25000000  0.46458900  0.85658700  1
  Pt  Pt10  1  0.25000000  0.74269700  0.47221900  1
  Pt  Pt11  1  0.25000000  0.50072900  0.29874900  1
loop_
_geom_bond_atom_site_label_1
_geom_bond_atom_site_label_2
_geom_bond_distance
_geom_bond_site_symmetry_2
Sn0 Yb2 3.410219 1_655
Sn0 Yb2 3.410219 1_555
Sn1 Yb6 3.183956 1_555
Sn1 Yb6 3.183956 1_655
Sn1 Yb2 3.435175 1_565
Sn1 Yb2 3.435175 1_665
Sn2 Yb5 3.226634 1_555
Sn2 Yb5 3.226634 1_655
Sn3 Sn7 3.085909 1_555
Sn3 Yb4 3.249514 1_455
Sn3 Yb4 3.249514 1_555
Sn3 Yb6 3.332445 1_555
Sn3 Yb2 3.429923 1_555
Sn4 Yb5 3.249514 1_555
Sn4 Yb5 3.249514 1_655
Sn4 Yb3 3.332445 1_555
Sn4 Yb1 3.429923 1_565
Sn5 Yb4 3.226634 1_445
Sn5 Yb4 3.226634 1_545
Sn6 Yb3 3.410219 1_555
Sn6 Yb3 3.410219 1_455
Sn7 Yb4 3.224931 1_455
Sn7 Yb4 3.224931 1_555
Sn8 Yb0 3.226634 1_455
Sn8 Yb0 3.226634 1_555
Sn9 Yb1 3.410219 1_455
Sn9 Yb1 3.410219 1_555
Sn10 Sn19 3.085909 1_565
Sn10 Yb0 3.224931 1_565
Sn10 Yb0 3.224931 1_465
Sn11 Yb3 3.183956 1_555
Sn11 Yb3 3.183956 1_455
Sn11 Yb1 3.435175 1_555
Sn11 Yb1 3.435175 1_455
Sn12 Yb2 3.183956 1_655
Sn12 Yb2 3.183956 1_555
Sn12 Yb6 3.435175 1_555
Sn12 Yb6 3.435175 1_655
Sn13 Yb1 3.183956 1_455
Sn13 Yb1 3.183956 1_555
Sn13 Yb3 3.435175 1_545
Sn13 Yb3 3.435175 1_445
Sn14 Sn4 3.085909 1_545
Sn14 Yb5 3.224931 1_645
Sn14 Yb5 3.224931 1_545
Sn15 Yb6 3.410219 1_555
Sn15 Yb6 3.410219 1_655
Sn16 Sn18 3.085909 1_555
Sn16 Yb7 3.224931 1_555
Sn16 Yb7 3.224931 1_655
Sn17 Yb7 3.226634 1_665
Sn17 Yb7 3.226634 1_565
Sn18 Yb7 3.249514 1_555
Sn18 Yb7 3.249514 1_655
Sn18 Yb1 3.332445 1_555
Sn18 Yb3 3.429923 1_555
Sn19 Yb0 3.249514 1_455
Sn19 Yb0 3.249514 1_555
Sn19 Yb2 3.332445 1_555
Sn19 Yb6 3.429923 1_545
Pt0 Sn4 2.682989 1_445
Pt0 Sn4 2.682989 1_545
Pt0 Sn13 2.742549 1_555
Pt0 Sn9 2.824138 1_555
Pt0 Sn11 2.829305 1_545
Pt0 Yb1 3.151308 1_555
Pt0 Yb1 3.151308 1_455
Pt0 Yb3 3.368466 1_545
Pt0 Yb3 3.368466 1_445
Pt1 Sn5 2.729530 1_565
Pt1 Sn3 2.769350 1_555
Pt1 Sn1 2.807058 1_555
Pt1 Sn1 2.807058 1_455
Pt1 Yb2 2.920231 1_565
Pt1 Sn0 2.938509 1_565
Pt1 Sn0 2.938509 1_465
Pt1 Yb4 3.272733 1_455
Pt1 Yb4 3.272733 1_555
Pt2 Sn3 2.682989 1_555
Pt2 Sn3 2.682989 1_655
Pt2 Sn12 2.742549 1_555
Pt2 Sn0 2.824138 1_555
Pt2 Sn1 2.829305 1_555
Pt2 Yb2 3.151308 1_555
Pt2 Yb2 3.151308 1_655
Pt2 Yb6 3.368466 1_555
Pt2 Yb6 3.368466 1_655
Pt3 Sn17 2.729530 1_545
Pt3 Sn18 2.769350 1_555
Pt3 Sn13 2.807058 1_555
Pt3 Sn13 2.807058 1_655
Pt3 Yb3 2.920231 1_545
Pt3 Sn6 2.938509 1_645
Pt3 Sn6 2.938509 1_545
Pt3 Yb7 3.272733 1_555
Pt3 Yb7 3.272733 1_655
Pt4 Sn7 2.757432 1_655
Pt4 Sn7 2.757432 1_555
Pt4 Sn0 2.781145 1_555
Pt4 Sn5 2.806180 1_655
Pt4 Sn5 2.806180 1_555
Pt4 Sn16 2.811848 1_555
Pt4 Sn17 2.908963 1_545
Pt5 Sn10 2.757432 1_555
Pt5 Sn10 2.757432 1_655
Pt5 Sn15 2.781145 1_555
Pt5 Sn8 2.806180 1_555
Pt5 Sn8 2.806180 1_655
Pt5 Sn14 2.811848 1_566
Pt5 Sn2 2.908963 1_556
Pt6 Sn19 2.682989 1_665
Pt6 Sn19 2.682989 1_565
Pt6 Sn1 2.742549 1_555
Pt6 Sn15 2.824138 1_555
Pt6 Sn12 2.829305 1_565
Pt6 Yb6 3.151308 1_555
Pt6 Yb6 3.151308 1_655
Pt6 Yb2 3.368466 1_665
Pt6 Yb2 3.368466 1_565
Pt7 Sn14 2.757432 1_555
Pt7 Sn14 2.757432 1_455
Pt7 Sn9 2.781145 1_555
Pt7 Sn2 2.806180 1_455
Pt7 Sn2 2.806180 1_555
Pt7 Sn10 2.811848 1_544
Pt7 Sn8 2.908963 1_554
Pt8 Sn2 2.729530 1_555
Pt8 Sn4 2.769350 1_555
Pt8 Sn11 2.807058 1_655
Pt8 Sn11 2.807058 1_555
Pt8 Yb1 2.920231 1_555
Pt8 Sn9 2.938509 1_655
Pt8 Sn9 2.938509 1_555
Pt8 Yb5 3.272733 1_555
Pt8 Yb5 3.272733 1_655
Pt9 Sn8 2.729530 1_555
Pt9 Sn19 2.769350 1_555
Pt9 Sn12 2.807058 1_555
Pt9 Sn12 2.807058 1_455
Pt9 Yb6 2.920231 1_555
Pt9 Sn15 2.938509 1_555
Pt9 Sn15 2.938509 1_455
Pt9 Yb0 3.272733 1_455
Pt9 Yb0 3.272733 1_555
Pt10 Sn16 2.757432 1_555
Pt10 Sn16 2.757432 1_455
Pt10 Sn6 2.781145 1_555
Pt10 Sn17 2.806180 1_455
Pt10 Sn17 2.806180 1_555
Pt10 Sn7 2.811848 1_555
Pt10 Sn5 2.908963 1_565
Pt11 Sn18 2.682989 1_455
Pt11 Sn18 2.682989 1_555
Pt11 Sn11 2.742549 1_555
Pt11 Sn6 2.824138 1_555
Pt11 Sn13 2.829305 1_555
Pt11 Yb3 3.151308 1_555
Pt11 Yb3 3.151308 1_455
Pt11 Yb1 3.368466 1_455
Pt11 Yb1 3.368466 1_555
