# generated using pymatgen
data_Be(B3H7)2
_symmetry_space_group_name_H-M   'P 1'
_cell_length_a   8.64038500
_cell_length_b   8.73668000
_cell_length_c   13.08332553
_cell_angle_alpha   56.00204844
_cell_angle_beta   90.00000000
_cell_angle_gamma   90.00000000
_symmetry_Int_Tables_number   1
_chemical_formula_structural   Be(B3H7)2
_chemical_formula_sum   'Be4 B24 H56'
_cell_volume   818.80852737
_cell_formula_units_Z   4
loop_
 _symmetry_equiv_pos_site_id
 _symmetry_equiv_pos_as_xyz
  1  'x, y, z'
loop_
 _atom_site_type_symbol
 _atom_site_label
 _atom_site_symmetry_multiplicity
 _atom_site_fract_x
 _atom_site_fract_y
 _atom_site_fract_z
 _atom_site_occupancy
  Be  Be0  1  0.16782700  0.52066100  0.82331700  1
  Be  Be1  1  0.66782700  0.47933900  0.67668300  1
  Be  Be2  1  0.83217300  0.47933900  0.17668300  1
  Be  Be3  1  0.33217300  0.52066100  0.32331700  1
  B  B0  1  0.24795800  0.60098700  0.42647400  1
  B  B1  1  0.74795800  0.39901300  0.07352600  1
  B  B2  1  0.75204200  0.39901300  0.57352600  1
  B  B3  1  0.25204200  0.60098700  0.92647400  1
  B  B4  1  0.23621300  0.84420900  0.34412800  1
  B  B5  1  0.73621300  0.15579100  0.15587200  1
  B  B6  1  0.76378700  0.15579100  0.65587200  1
  B  B7  1  0.26378700  0.84420900  0.84412800  1
  B  B8  1  0.31025500  0.94332200  0.19700900  1
  B  B9  1  0.81025500  0.05667800  0.30299100  1
  B  B10  1  0.68974500  0.05667800  0.80299100  1
  B  B11  1  0.18974500  0.94332200  0.69700900  1
  B  B12  1  0.37304000  0.76951900  0.17729300  1
  B  B13  1  0.87304000  0.23048100  0.32270700  1
  B  B14  1  0.62696000  0.23048100  0.82270700  1
  B  B15  1  0.12696000  0.76951900  0.67729300  1
  B  B16  1  0.39577200  0.74633800  0.32097100  1
  B  B17  1  0.89577200  0.25366200  0.17902900  1
  B  B18  1  0.60422800  0.25366200  0.67902900  1
  B  B19  1  0.10422800  0.74633800  0.82097100  1
  B  B20  1  0.09744800  0.29111500  0.85469100  1
  B  B21  1  0.59744800  0.70888500  0.64530900  1
  B  B22  1  0.90255200  0.70888500  0.14530900  1
  B  B23  1  0.40255200  0.29111500  0.35469100  1
  H  H0  1  0.45729300  0.29113100  0.26989500  1
  H  H1  1  0.95729300  0.70886900  0.23010500  1
  H  H2  1  0.54270700  0.70886900  0.73010500  1
  H  H3  1  0.04270700  0.29113100  0.76989500  1
  H  H4  1  0.39927600  0.14671400  0.45386800  1
  H  H5  1  0.89927600  0.85328600  0.04613200  1
  H  H6  1  0.60072400  0.85328600  0.54613200  1
  H  H7  1  0.10072400  0.14671400  0.95386800  1
  H  H8  1  0.26604000  0.35119200  0.32528500  1
  H  H9  1  0.76604000  0.64880800  0.17471500  1
  H  H10  1  0.73396000  0.64880800  0.67471500  1
  H  H11  1  0.23396000  0.35119200  0.82528500  1
  H  H12  1  0.47922100  0.40251700  0.36742000  1
  H  H13  1  0.97922100  0.59748300  0.13258000  1
  H  H14  1  0.52077900  0.59748300  0.63258000  1
  H  H15  1  0.02077900  0.40251700  0.86742000  1
  H  H16  1  0.17993300  0.50463500  0.39746800  1
  H  H17  1  0.67993300  0.49536500  0.10253200  1
  H  H18  1  0.82006700  0.49536500  0.60253200  1
  H  H19  1  0.32006700  0.50463500  0.89746800  1
  H  H20  1  0.26731700  0.90256000  0.11609700  1
  H  H21  1  0.12621200  0.71320400  0.39580400  1
  H  H22  1  0.87378800  0.28679600  0.60419600  1
  H  H23  1  0.37378800  0.71320400  0.89580400  1
  H  H24  1  0.16494600  0.94454500  0.23368000  1
  H  H25  1  0.66494600  0.05545500  0.26632000  1
  H  H26  1  0.83505400  0.05545500  0.76632000  1
  H  H27  1  0.33505400  0.94454500  0.73368000  1
  H  H28  1  0.97981000  0.75618800  0.85674700  1
  H  H29  1  0.47981000  0.24381200  0.64325300  1
  H  H30  1  0.02019000  0.24381200  0.14325300  1
  H  H31  1  0.52019000  0.75618800  0.35674700  1
  H  H32  1  0.02198400  0.80802400  0.60732000  1
  H  H33  1  0.52198400  0.19197600  0.89268000  1
  H  H34  1  0.97801600  0.19197600  0.39268000  1
  H  H35  1  0.47801600  0.80802400  0.10732000  1
  H  H36  1  0.14265800  0.09779600  0.63847000  1
  H  H37  1  0.64265800  0.90220400  0.86153000  1
  H  H38  1  0.85734200  0.90220400  0.36153000  1
  H  H39  1  0.35734200  0.09779600  0.13847000  1
  H  H40  1  0.27003500  0.92725300  0.89142100  1
  H  H41  1  0.77003500  0.07274700  0.60857900  1
  H  H42  1  0.72996500  0.07274700  0.10857900  1
  H  H43  1  0.22996500  0.92725300  0.39142100  1
  H  H44  1  0.23876000  0.51951600  0.03587000  1
  H  H45  1  0.73876000  0.48048400  0.46413000  1
  H  H46  1  0.76124000  0.48048400  0.96413000  1
  H  H47  1  0.26124000  0.51951600  0.53587000  1
  H  H48  1  0.21297800  0.65054400  0.68255000  1
  H  H49  1  0.71297800  0.34945600  0.81745000  1
  H  H50  1  0.78702200  0.34945600  0.31745000  1
  H  H51  1  0.28702200  0.65054400  0.18255000  1
  H  H52  1  0.23268300  0.90256000  0.61609700  1
  H  H53  1  0.73268300  0.09744000  0.88390300  1
  H  H54  1  0.76731700  0.09744000  0.38390300  1
  H  H55  1  0.62621200  0.28679600  0.10419600  1
loop_
_geom_bond_atom_site_label_1
_geom_bond_atom_site_label_2
_geom_bond_distance
_geom_bond_site_symmetry_2
Be0 H15 1.531860 1_555
Be0 H11 1.573757 1_555
Be0 H48 1.579416 1_555
Be0 H19 1.593481 1_555
Be1 H14 1.531860 1_555
Be1 H10 1.573757 1_555
Be1 H49 1.579416 1_555
Be1 H18 1.593481 1_555
Be2 H13 1.531860 1_555
Be2 H9 1.573757 1_555
Be2 H50 1.579416 1_555
Be2 H17 1.593481 1_555
Be3 H12 1.531860 1_555
Be3 H8 1.573757 1_555
Be3 H51 1.579416 1_555
Be3 H16 1.593481 1_555
B0 H47 1.195419 1_555
B0 H16 1.247141 1_555
B0 H21 1.337466 1_555
B1 H46 1.195419 1_554
B1 H17 1.247141 1_555
B1 H55 1.337466 1_555
B2 H45 1.195419 1_555
B2 H18 1.247141 1_555
B2 H22 1.337466 1_555
B3 H44 1.195419 1_556
B3 H19 1.247141 1_555
B3 H23 1.337466 1_555
B4 H43 1.189200 1_555
B4 H21 1.343527 1_555
B4 H24 1.348745 1_555
B5 H42 1.189200 1_555
B5 H55 1.343527 1_555
B5 H25 1.348745 1_555
B6 H41 1.189200 1_555
B6 H22 1.343527 1_555
B6 H26 1.348745 1_555
B7 H40 1.189200 1_555
B7 H23 1.343527 1_555
B7 H27 1.348745 1_555
B8 H39 1.190615 1_565
B8 H20 1.344134 1_555
B8 H24 1.346246 1_555
B9 H38 1.190615 1_545
B9 H54 1.344134 1_555
B9 H25 1.346246 1_555
B10 H37 1.190615 1_545
B10 H53 1.344134 1_555
B10 H26 1.346246 1_555
B11 H36 1.190615 1_565
B11 H52 1.344134 1_555
B11 H27 1.346246 1_555
B12 H35 1.195645 1_555
B12 H51 1.248045 1_555
B12 H20 1.336332 1_555
B13 H34 1.195645 1_555
B13 H50 1.248045 1_555
B13 H54 1.336332 1_555
B14 H33 1.195645 1_555
B14 H49 1.248045 1_555
B14 H53 1.336332 1_555
B15 H32 1.195645 1_555
B15 H48 1.248045 1_555
B15 H52 1.336332 1_555
B16 H31 1.194658 1_555
B17 H30 1.194658 1_655
B18 H29 1.194658 1_555
B19 H28 1.194658 1_455
B20 H7 1.202242 1_555
B20 H3 1.205960 1_555
B20 H11 1.260531 1_555
B20 H15 1.262982 1_555
B21 H6 1.202242 1_555
B21 H2 1.205960 1_555
B21 H10 1.260531 1_555
B21 H14 1.262982 1_555
B22 H5 1.202242 1_555
B22 H1 1.205960 1_555
B22 H9 1.260531 1_555
B22 H13 1.262982 1_555
B23 H4 1.202242 1_555
B23 H0 1.205960 1_555
B23 H8 1.260531 1_555
B23 H12 1.262982 1_555
