# generated using pymatgen
data_BaPr(CoO3)2
_symmetry_space_group_name_H-M   'P 1'
_cell_length_a   3.94100900
_cell_length_b   3.94585700
_cell_length_c   7.73220800
_cell_angle_alpha   90.00000000
_cell_angle_beta   90.00000000
_cell_angle_gamma   90.00000000
_symmetry_Int_Tables_number   1
_chemical_formula_structural   BaPr(CoO3)2
_chemical_formula_sum   'Ba1 Pr1 Co2 O6'
_cell_volume   120.24092180
_cell_formula_units_Z   1
loop_
 _symmetry_equiv_pos_site_id
 _symmetry_equiv_pos_as_xyz
  1  'x, y, z'
loop_
 _atom_site_type_symbol
 _atom_site_label
 _atom_site_symmetry_multiplicity
 _atom_site_fract_x
 _atom_site_fract_y
 _atom_site_fract_z
 _atom_site_occupancy
  Ba  Ba0  1  0.00000000  0.00000000  0.00046000  1
  Pr  Pr0  1  0.00000000  0.00000000  0.49756300  1
  Co  Co0  1  0.50000000  0.50000000  0.74729900  1
  Co  Co1  1  0.50000000  0.50000000  0.25135200  1
  O  O0  1  0.00000000  0.50000000  0.72456000  1
  O  O1  1  0.50000000  0.00000000  0.72442700  1
  O  O2  1  0.00000000  0.50000000  0.27398400  1
  O  O3  1  0.50000000  0.00000000  0.27311400  1
  O  O4  1  0.50000000  0.50000000  0.49449000  1
  O  O5  1  0.50000000  0.50000000  0.01275300  1
loop_
_geom_bond_atom_site_label_1
_geom_bond_atom_site_label_2
_geom_bond_distance
_geom_bond_site_symmetry_2
Ba0 O5 2.790048 1_455
Ba0 O5 2.790048 1_555
Ba0 O5 2.790048 1_445
Ba0 O5 2.790048 1_545
Ba0 O3 2.885735 1_455
Ba0 O3 2.885735 1_555
Ba0 O2 2.892307 1_555
Ba0 O2 2.892307 1_545
Ba0 O1 2.904878 1_554
Ba0 O1 2.904878 1_454
Ba0 O0 2.905768 1_554
Ba0 O0 2.905768 1_544
Co0 O4 1.954772 1_555
Co0 O0 1.978333 1_555
Co0 O0 1.978333 1_655
Co0 O1 1.980839 1_565
Co0 O1 1.980839 1_555
Co0 O5 2.052546 1_556
Co1 O5 1.844897 1_555
Co1 O4 1.879994 1_555
Co1 O2 1.978260 1_555
Co1 O2 1.978260 1_655
Co1 O3 1.980091 1_565
Co1 O3 1.980091 1_555
O0 Pr0 2.640669 1_555
O0 Pr0 2.640669 1_565
O1 Pr0 2.638174 1_655
O1 Pr0 2.638174 1_555
O2 Pr0 2.623177 1_565
O2 Pr0 2.623177 1_555
O3 Pr0 2.625795 1_655
O3 Pr0 2.625795 1_555
O4 Pr0 2.788530 1_665
O4 Pr0 2.788530 1_655
O4 Pr0 2.788530 1_565
O4 Pr0 2.788530 1_555
