# generated using pymatgen
data_LiNi3O4
_symmetry_space_group_name_H-M   'P 1'
_cell_length_a   5.79264735
_cell_length_b   5.81817241
_cell_length_c   5.84034172
_cell_angle_alpha   120.28878829
_cell_angle_beta   90.27300341
_cell_angle_gamma   60.01323706
_symmetry_Int_Tables_number   1
_chemical_formula_structural   LiNi3O4
_chemical_formula_sum   'Li2 Ni6 O8'
_cell_volume   138.93274606
_cell_formula_units_Z   2
loop_
 _symmetry_equiv_pos_site_id
 _symmetry_equiv_pos_as_xyz
  1  'x, y, z'
loop_
 _atom_site_type_symbol
 _atom_site_label
 _atom_site_symmetry_multiplicity
 _atom_site_fract_x
 _atom_site_fract_y
 _atom_site_fract_z
 _atom_site_occupancy
  Li  Li0  1  0.49999872  0.50000602  0.50000295  1
  Li  Li1  1  0.99999492  0.49999967  0.50000438  1
  Ni  Ni0  1  0.00000360  0.50000101  -0.00000241  1
  Ni  Ni1  1  0.49999586  0.00000579  -0.00000038  1
  Ni  Ni2  1  0.49999716  0.00000380  0.49999855  1
  Ni  Ni3  1  0.49999981  0.50000082  0.00000017  1
  Ni  Ni4  1  0.99999267  0.00000538  0.00000920  1
  Ni  Ni5  1  0.00000093  0.99999500  0.50000323  1
  O  O0  1  0.27429064  0.49870175  0.76140204  1
  O  O1  1  0.74933537  0.50119127  0.78291474  1
  O  O2  1  0.72570951  0.50129550  0.23859664  1
  O  O3  1  0.25066800  0.49880925  0.21708464  1
  O  O4  1  0.75504359  0.99069560  0.74533419  1
  O  O5  1  0.23107270  0.03682136  0.76907740  1
  O  O6  1  0.24496572  0.00929577  0.25465434  1
  O  O7  1  0.76893081  0.96317401  0.23091732  1
loop_
_geom_bond_atom_site_label_1
_geom_bond_atom_site_label_2
_geom_bond_distance
_geom_bond_site_symmetry_2
Li0 O2 2.020078 1_555
Li0 O0 2.020097 1_555
Li0 O1 2.189047 1_555
Li0 O3 2.189050 1_555
Li0 O5 2.204553 1_565
Li0 O7 2.204621 1_545
Li1 O4 2.015147 1_555
Li1 O6 2.015180 1_655
Li1 O2 2.198143 1_555
Li1 O0 2.198145 1_655
Li1 O1 2.199913 1_555
Li1 O3 2.200011 1_655
Ni0 O7 1.902123 1_455
Ni0 O5 1.902151 1_554
Ni0 O3 1.922789 1_555
Ni0 O1 1.922790 1_454
Ni0 O0 2.112995 1_554
Ni0 O2 2.113059 1_455
Ni1 O5 2.056523 1_554
Ni1 O7 2.056558 1_545
Ni1 O3 2.057141 1_555
Ni1 O1 2.057189 1_544
Ni1 O6 2.063333 1_555
Ni1 O4 2.063367 1_544
Ni2 O6 2.053455 1_555
Ni2 O4 2.053483 1_545
Ni2 O0 2.053682 1_555
Ni2 O2 2.053723 1_545
Ni2 O5 2.071818 1_555
Ni2 O7 2.071819 1_545
Ni3 O2 1.906094 1_555
Ni3 O0 1.906098 1_554
Ni3 O3 1.931266 1_555
Ni3 O1 1.931281 1_554
Ni3 O6 2.091530 1_565
Ni3 O4 2.091572 1_544
Ni4 O6 2.050337 1_655
Ni4 O4 2.050364 1_544
Ni4 O7 2.061913 1_545
Ni4 O5 2.062017 1_654
Ni4 O2 2.064467 1_555
Ni4 O0 2.064523 1_644
Ni5 O5 2.057691 1_565
Ni5 O7 2.057731 1_455
Ni5 O4 2.060007 1_455
Ni5 O6 2.060118 1_565
Ni5 O3 2.066845 1_555
Ni5 O1 2.066881 1_465
