# generated using pymatgen
data_Na6Nb4Zn2Si6(SO12)3
_symmetry_space_group_name_H-M   'P 1'
_cell_length_a   9.00242678
_cell_length_b   9.00242647
_cell_length_c   22.65985591
_cell_angle_alpha   90.00000000
_cell_angle_beta   90.00000000
_cell_angle_gamma   120.00000114
_symmetry_Int_Tables_number   1
_chemical_formula_structural   Na6Nb4Zn2Si6(SO12)3
_chemical_formula_sum   'Na12 Nb8 Zn4 Si12 S6 O72'
_cell_volume   1590.40213953
_cell_formula_units_Z   2
loop_
 _symmetry_equiv_pos_site_id
 _symmetry_equiv_pos_as_xyz
  1  'x, y, z'
loop_
 _atom_site_type_symbol
 _atom_site_label
 _atom_site_symmetry_multiplicity
 _atom_site_fract_x
 _atom_site_fract_y
 _atom_site_fract_z
 _atom_site_occupancy
  Na  Na0  1  0.96695368  0.67858655  0.91567429  1
  Na  Na1  1  0.71163187  0.03304632  0.91567429  1
  Na  Na2  1  0.32141345  0.28836813  0.91567429  1
  Na  Na3  1  0.96695368  0.28836813  0.41567429  1
  Na  Na4  1  0.32141345  0.03304632  0.41567429  1
  Na  Na5  1  0.71163187  0.67858655  0.41567429  1
  Na  Na6  1  -0.00000000  0.00000000  0.49370563  1
  Na  Na7  1  -0.00000000  0.00000000  0.99370563  1
  Na  Na8  1  0.66666700  0.33333300  0.82610566  1
  Na  Na9  1  0.66666700  0.33333300  0.32610566  1
  Na  Na10  1  0.33333300  0.66666700  0.16305328  1
  Na  Na11  1  0.33333300  0.66666700  0.66305328  1
  Nb  Nb0  1  -0.00000000  -0.00000000  0.63971768  1
  Nb  Nb1  1  -0.00000000  -0.00000000  0.13971768  1
  Nb  Nb2  1  0.66666700  0.33333300  0.98274724  1
  Nb  Nb3  1  0.66666700  0.33333300  0.48274724  1
  Nb  Nb4  1  0.33333300  0.66666700  0.02290225  1
  Nb  Nb5  1  0.33333300  0.66666700  0.52290225  1
  Nb  Nb6  1  0.33333300  0.66666700  0.31462601  1
  Nb  Nb7  1  0.33333300  0.66666700  0.81462601  1
  Zn  Zn0  1  -0.00000000  -0.00000000  0.35360069  1
  Zn  Zn1  1  -0.00000000  -0.00000000  0.85360069  1
  Zn  Zn2  1  0.66666700  0.33333300  0.67277423  1
  Zn  Zn3  1  0.66666700  0.33333300  0.17277423  1
  Si  Si0  1  0.95630711  0.33882344  0.58669329  1
  Si  Si1  1  0.38251734  0.04369289  0.58669329  1
  Si  Si2  1  0.66117656  0.61748266  0.58669329  1
  Si  Si3  1  0.95630711  0.61748266  0.08669329  1
  Si  Si4  1  0.66117656  0.04369289  0.08669329  1
  Si  Si5  1  0.38251734  0.33882344  0.08669329  1
  Si  Si6  1  0.62342747  0.66542974  0.91692142  1
  Si  Si7  1  0.04200127  0.37657253  0.91692142  1
  Si  Si8  1  0.33457026  0.95799873  0.91692142  1
  Si  Si9  1  0.62342747  0.95799873  0.41692142  1
  Si  Si10  1  0.33457026  0.37657253  0.41692142  1
  Si  Si11  1  0.04200127  0.66542974  0.41692142  1
  S  S0  1  0.29125090  0.00032504  0.25165566  1
  S  S1  1  0.70907413  0.70874910  0.25165566  1
  S  S2  1  0.99967496  0.29092587  0.25165566  1
  S  S3  1  0.29125090  0.29092587  0.75165566  1
  S  S4  1  0.99967496  0.70874910  0.75165566  1
  S  S5  1  0.70907413  0.00032504  0.75165566  1
  O  O0  1  0.21020373  0.01359436  0.30642128  1
  O  O1  1  0.80339063  0.78979627  0.30642128  1
  O  O2  1  0.98640564  0.19660937  0.30642128  1
  O  O3  1  0.21020373  0.19660937  0.80642128  1
  O  O4  1  0.98640564  0.78979627  0.80642128  1
  O  O5  1  0.80339063  0.01359436  0.80642128  1
  O  O6  1  0.79872937  0.97853163  0.69914697  1
  O  O7  1  0.17980227  0.20127063  0.69914697  1
  O  O8  1  0.02146837  0.82019773  0.69914697  1
  O  O9  1  0.79872937  0.82019773  0.19914697  1
  O  O10  1  0.02146837  0.20127063  0.19914697  1
  O  O11  1  0.17980227  0.97853163  0.19914697  1
  O  O12  1  0.88538670  0.37436121  0.64495879  1
  O  O13  1  0.48897551  0.11461330  0.64495879  1
  O  O14  1  0.62563879  0.51102449  0.64495879  1
  O  O15  1  0.88538670  0.51102449  0.14495879  1
  O  O16  1  0.62563879  0.11461330  0.14495879  1
  O  O17  1  0.48897551  0.37436121  0.14495879  1
  O  O18  1  0.46516459  0.30166578  0.02543490  1
  O  O19  1  0.83650219  0.53483541  0.02543490  1
  O  O20  1  0.69833422  0.16349781  0.02543490  1
  O  O21  1  0.46516459  0.16349781  0.52543490  1
  O  O22  1  0.69833422  0.53483541  0.52543490  1
  O  O23  1  0.83650219  0.30166578  0.52543490  1
  O  O24  1  0.52631398  0.69518351  0.97158868  1
  O  O25  1  0.16886853  0.47368602  0.97158868  1
  O  O26  1  0.30481649  0.83113147  0.97158868  1
  O  O27  1  0.52631398  0.83113147  0.47158868  1
  O  O28  1  0.30481649  0.47368602  0.47158868  1
  O  O29  1  0.16886853  0.69518351  0.47158868  1
  O  O30  1  0.13826855  0.63157449  0.35865269  1
  O  O31  1  0.49330493  0.86173145  0.35865269  1
  O  O32  1  0.36842551  0.50669507  0.35865269  1
  O  O33  1  0.13826855  0.50669507  0.85865269  1
  O  O34  1  0.36842551  0.86173145  0.85865269  1
  O  O35  1  0.49330493  0.63157449  0.85865269  1
  O  O36  1  0.02109254  0.83160812  0.41130508  1
  O  O37  1  0.81051559  0.97890746  0.41130508  1
  O  O38  1  0.16839188  0.18948441  0.41130508  1
  O  O39  1  0.02109254  0.18948441  0.91130508  1
  O  O40  1  0.16839188  0.97890746  0.91130508  1
  O  O41  1  0.81051559  0.83160812  0.91130508  1
  O  O42  1  0.97567493  0.16232551  0.59352774  1
  O  O43  1  0.18665058  0.02432507  0.59352774  1
  O  O44  1  0.83767449  0.81334942  0.59352774  1
  O  O45  1  0.97567493  0.81334942  0.09352774  1
  O  O46  1  0.83767449  0.02432507  0.09352774  1
  O  O47  1  0.18665058  0.16232551  0.09352774  1
  O  O48  1  0.68487081  0.14820388  0.74685843  1
  O  O49  1  0.46333407  0.31512919  0.74685843  1
  O  O50  1  0.85179612  0.53666593  0.74685843  1
  O  O51  1  0.68487081  0.53666593  0.24685843  1
  O  O52  1  0.85179612  0.31512919  0.24685843  1
  O  O53  1  0.46333407  0.14820388  0.24685843  1
  O  O54  1  0.63144739  0.48733783  0.92109398  1
  O  O55  1  0.85589144  0.36855261  0.92109398  1
  O  O56  1  0.51266217  0.14410856  0.92109398  1
  O  O57  1  0.63144739  0.14410856  0.42109398  1
  O  O58  1  0.51266217  0.36855261  0.42109398  1
  O  O59  1  0.85589144  0.48733783  0.42109398  1
  O  O60  1  0.34708917  0.49601742  0.07321587  1
  O  O61  1  0.14892725  0.65291083  0.07321587  1
  O  O62  1  0.50398258  0.85107275  0.07321587  1
  O  O63  1  0.34708917  0.85107275  0.57321587  1
  O  O64  1  0.50398258  0.65291083  0.57321587  1
  O  O65  1  0.14892725  0.49601742  0.57321587  1
  O  O66  1  0.30087817  0.83471989  0.25377373  1
  O  O67  1  0.53384072  0.69912183  0.25377373  1
  O  O68  1  0.16528011  0.46615928  0.25377373  1
  O  O69  1  0.30087817  0.46615928  0.75377373  1
  O  O70  1  0.16528011  0.69912183  0.75377373  1
  O  O71  1  0.53384072  0.83471989  0.75377373  1
loop_
_geom_bond_atom_site_label_1
_geom_bond_atom_site_label_2
_geom_bond_distance
_geom_bond_site_symmetry_2
Na0 O40 2.388526 1_655
Na0 O41 2.414729 1_555
Na0 O55 2.452379 1_555
Na0 O54 2.627128 1_555
Na0 O4 2.643207 1_555
Na0 O19 2.778502 1_556
Na0 O26 2.926689 1_655
Na0 O33 2.971392 1_655
Na1 O41 2.388533 1_545
Na1 O39 2.414737 1_655
Na1 O56 2.452362 1_555
Na1 O55 2.627126 1_555
Na1 O5 2.643210 1_555
Na1 O20 2.778497 1_556
Na1 O24 2.926689 1_545
Na1 O34 2.971392 1_545
Na2 O39 2.388524 1_555
Na2 O40 2.414737 1_545
Na2 O54 2.452376 1_555
Na2 O56 2.627143 1_555
Na2 O3 2.643208 1_555
Na2 O18 2.778505 1_556
Na2 O25 2.926689 1_555
Na2 O35 2.971392 1_555
Na3 O38 2.388533 1_655
Na3 O37 2.414737 1_545
Na3 O59 2.452362 1_555
Na3 O57 2.627127 1_555
Na3 O2 2.643210 1_555
Na3 O23 2.778498 1_555
Na3 O28 2.926689 1_655
Na3 O30 2.971392 1_655
Na4 O36 2.388526 1_545
Na4 O38 2.414729 1_555
Na4 O57 2.452379 1_555
Na4 O58 2.627128 1_555
Na4 O0 2.643207 1_555
Na4 O21 2.778502 1_555
Na4 O29 2.926689 1_545
Na4 O31 2.971392 1_545
Na5 O37 2.388524 1_555
Na5 O36 2.414737 1_655
Na5 O58 2.452376 1_555
Na5 O59 2.627143 1_555
Na5 O1 2.643208 1_555
Na5 O22 2.778505 1_555
Na5 O27 2.926689 1_555
Na5 O32 2.971392 1_555
Na6 O38 2.471507 1_555
Na6 O37 2.471507 1_445
Na6 O36 2.471507 1_545
Na6 O44 2.760411 1_445
Na6 O42 2.760411 1_455
Na6 O43 2.760411 1_555
Na7 O39 2.471507 1_555
Na7 O41 2.471507 1_445
Na7 O40 2.471507 1_545
Na7 O45 2.760411 1_446
Na7 O47 2.760411 1_556
Na7 O46 2.760411 1_456
Na8 O50 2.510422 1_555
Na8 O48 2.510422 1_555
Na8 O49 2.510422 1_555
Na8 O56 2.663678 1_555
Na8 O54 2.663678 1_555
Na8 O55 2.663678 1_555
Na9 O51 2.510422 1_555
Na9 O53 2.510422 1_555
Na9 O52 2.510422 1_555
Na9 O57 2.663678 1_555
Na9 O59 2.663678 1_555
Na9 O58 2.663678 1_555
Na10 O62 2.590322 1_555
Na10 O60 2.590322 1_555
Na10 O61 2.590322 1_555
Na10 O68 2.653706 1_555
Na10 O66 2.653706 1_555
Na10 O67 2.653706 1_555
Na11 O63 2.590322 1_555
Na11 O65 2.590322 1_555
Na11 O64 2.590322 1_555
Na11 O69 2.653706 1_555
Na11 O71 2.653706 1_555
Na11 O70 2.653706 1_555
Nb0 O44 1.897082 1_445
Nb0 O42 1.897082 1_455
Nb0 O43 1.897082 1_555
Nb0 O7 2.187173 1_555
Nb0 O6 2.187173 1_445
Nb0 O8 2.187173 1_545
Nb1 O45 1.897082 1_445
Nb1 O47 1.897082 1_555
Nb1 O46 1.897082 1_455
Nb1 O10 2.187173 1_555
Nb1 O9 2.187173 1_445
Nb1 O11 2.187173 1_545
Nb2 O19 1.946902 1_556
Nb2 O20 1.946902 1_556
Nb2 O18 1.946902 1_556
Nb2 O56 2.100957 1_555
Nb2 O54 2.100957 1_555
Nb2 O55 2.100957 1_555
Nb3 O22 1.946902 1_555
Nb3 O21 1.946902 1_555
Nb3 O23 1.946902 1_555
Nb3 O57 2.100957 1_555
Nb3 O59 2.100957 1_555
Nb3 O58 2.100957 1_555
Nb4 O62 1.966089 1_555
Nb4 O60 1.966089 1_555
Nb4 O61 1.966089 1_555
Nb4 O25 1.997528 1_554
Nb4 O26 1.997528 1_554
Nb4 O24 1.997528 1_554
Nb5 O63 1.966089 1_555
Nb5 O65 1.966089 1_555
Nb5 O64 1.966089 1_555
Nb5 O28 1.997528 1_555
Nb5 O27 1.997528 1_555
Nb5 O29 1.997528 1_555
Nb6 O32 1.903691 1_555
Nb6 O31 1.903691 1_555
Nb6 O30 1.903691 1_555
Nb6 O68 2.171999 1_555
Nb6 O66 2.171999 1_555
Nb6 O67 2.171999 1_555
Nb7 O35 1.903691 1_555
Nb7 O33 1.903691 1_555
Nb7 O34 1.903691 1_555
Nb7 O69 2.171999 1_555
Nb7 O71 2.171999 1_555
Nb7 O70 2.171999 1_555
O0 S0 1.474384 1_555
O0 Zn0 2.123036 1_555
O1 S1 1.474384 1_555
O1 Zn0 2.123036 1_665
O2 S2 1.474384 1_555
O2 Zn0 2.123036 1_655
O3 S3 1.474384 1_555
O3 Zn1 2.123036 1_555
O4 S4 1.474384 1_555
O4 Zn1 2.123036 1_665
O5 S5 1.474384 1_555
O5 Zn1 2.123036 1_655
O6 S5 1.504658 1_565
O7 S3 1.504658 1_555
O8 S4 1.504657 1_455
O9 S1 1.504658 1_555
O10 S2 1.504658 1_455
O11 S0 1.504657 1_565
O12 Si0 1.567609 1_555
O12 Zn2 1.919225 1_555
O13 Si1 1.567609 1_555
O13 Zn2 1.919225 1_555
O14 Si2 1.567609 1_555
O14 Zn2 1.919225 1_555
O15 Si3 1.567609 1_555
O15 Zn3 1.919225 1_555
O16 Si4 1.567609 1_555
O16 Zn3 1.919225 1_555
O17 Si5 1.567609 1_555
O17 Zn3 1.919225 1_555
O18 Si5 1.685584 1_555
O19 Si3 1.685584 1_555
O20 Si4 1.685584 1_555
O21 Si1 1.685584 1_555
O22 Si2 1.685584 1_555
O23 Si0 1.685584 1_555
O24 Si6 1.613925 1_555
O25 Si7 1.613925 1_555
O26 Si8 1.613925 1_555
O27 Si9 1.613925 1_555
O28 Si10 1.613925 1_555
O29 Si11 1.613925 1_555
O30 Si11 1.688621 1_555
O31 Si9 1.688621 1_555
O32 Si10 1.688621 1_555
O33 Si7 1.688621 1_555
O34 Si8 1.688621 1_555
O35 Si6 1.688621 1_555
O36 Si11 1.603515 1_555
O36 Zn0 2.081277 1_565
O37 Si9 1.603524 1_555
O37 Zn0 2.081277 1_665
O38 Si10 1.603521 1_555
O38 Zn0 2.081277 1_555
O39 Si7 1.603524 1_555
O39 Zn1 2.081277 1_555
O40 Si8 1.603515 1_555
O40 Zn1 2.081278 1_565
O41 Si6 1.603521 1_555
O41 Zn1 2.081277 1_665
O42 Si0 1.689987 1_555
O43 Si1 1.689996 1_555
O44 Si2 1.689992 1_555
O45 Si3 1.689996 1_555
O46 Si4 1.689987 1_555
O47 Si5 1.689992 1_555
O48 S5 1.456584 1_555
O48 Zn2 2.428112 1_555
O49 S3 1.456593 1_555
O49 Zn2 2.428112 1_555
O50 S4 1.456589 1_555
O50 Zn2 2.428112 1_555
O51 S1 1.456593 1_555
O51 Zn3 2.428112 1_555
O52 S2 1.456584 1_555
O52 Zn3 2.428112 1_555
O53 S0 1.456589 1_555
O53 Zn3 2.428112 1_555
O54 Si6 1.643273 1_555
O55 Si7 1.643255 1_655
O56 Si8 1.643263 1_545
O57 Si9 1.643255 1_545
O58 Si10 1.643273 1_555
O59 Si11 1.643263 1_655
O60 Si5 1.627549 1_555
O61 Si3 1.627531 1_455
O62 Si4 1.627537 1_565
O63 Si1 1.627531 1_565
O64 Si2 1.627549 1_555
O65 Si0 1.627537 1_455
O66 S0 1.536767 1_565
O67 S1 1.536776 1_555
O68 S2 1.536772 1_455
O69 S3 1.536776 1_555
O70 S4 1.536767 1_455
O71 S5 1.536772 1_565
