# generated using pymatgen
data_MgMn2O4
_symmetry_space_group_name_H-M   'P 1'
_cell_length_a   3.16527879
_cell_length_b   3.27986621
_cell_length_c   10.12029002
_cell_angle_alpha   90.24954311
_cell_angle_beta   81.99003417
_cell_angle_gamma   120.87767055
_symmetry_Int_Tables_number   1
_chemical_formula_structural   MgMn2O4
_chemical_formula_sum   'Mg1 Mn2 O4'
_cell_volume   89.01526278
_cell_formula_units_Z   1
loop_
 _symmetry_equiv_pos_site_id
 _symmetry_equiv_pos_as_xyz
  1  'x, y, z'
loop_
 _atom_site_type_symbol
 _atom_site_label
 _atom_site_symmetry_multiplicity
 _atom_site_fract_x
 _atom_site_fract_y
 _atom_site_fract_z
 _atom_site_occupancy
  Mg  Mg0  1  0.85362797  0.42421263  0.21226202  1
  Mn  Mn0  1  0.72807929  0.85872760  0.93509563  1
  Mn  Mn1  1  0.02673669  0.01908154  0.51463882  1
  O  O0  1  0.72448615  0.36312988  0.41231855  1
  O  O1  1  0.43958780  0.21526478  0.88781587  1
  O  O2  1  0.57432762  0.78462070  0.14563589  1
  O  O3  1  0.31962147  0.66829487  0.59848522  1
loop_
_geom_bond_atom_site_label_1
_geom_bond_atom_site_label_2
_geom_bond_distance
_geom_bond_site_symmetry_2
Mg0 O2 1.966308 1_655
Mg0 O2 1.969586 1_555
Mg0 O2 1.971582 1_545
Mg0 O0 1.998796 1_555
Mn0 O1 1.910961 1_555
Mn0 O1 1.911275 1_565
Mn0 O1 1.915688 1_665
Mn0 O2 2.104765 1_556
Mn1 O3 1.972161 1_445
Mn1 O0 2.009525 1_555
Mn1 O3 2.055659 1_545
Mn1 O3 2.071442 1_555
Mn1 O0 2.157614 1_455
Mn1 O0 2.181804 1_445
