# generated using pymatgen
data_VO2
_symmetry_space_group_name_H-M   'P 1'
_cell_length_a   2.93857800
_cell_length_b   4.96103615
_cell_length_c   10.05931600
_cell_angle_alpha   90.00034733
_cell_angle_beta   90.00000000
_cell_angle_gamma   107.22745411
_symmetry_Int_Tables_number   1
_chemical_formula_structural   VO2
_chemical_formula_sum   'V4 O8'
_cell_volume   140.06948583
_cell_formula_units_Z   4
loop_
 _symmetry_equiv_pos_site_id
 _symmetry_equiv_pos_as_xyz
  1  'x, y, z'
loop_
 _atom_site_type_symbol
 _atom_site_label
 _atom_site_symmetry_multiplicity
 _atom_site_fract_x
 _atom_site_fract_y
 _atom_site_fract_z
 _atom_site_occupancy
  V  V0  1  0.87556600  0.75113300  0.08534600  1
  V  V1  1  0.14126700  0.28253400  0.92636100  1
  V  V2  1  0.85882600  0.71765300  0.42629900  1
  V  V3  1  0.12448500  0.24896900  0.58536000  1
  O  O0  1  0.24223800  0.48447600  0.39326900  1
  O  O1  1  0.75496000  0.50992100  0.60003600  1
  O  O2  1  0.75775100  0.51550200  0.89327400  1
  O  O3  1  0.24496900  0.48993700  0.10010000  1
  O  O4  1  0.93269200  0.86538600  0.24853300  1
  O  O5  1  0.06732600  0.13465000  0.74855600  1
  O  O6  1  0.50313400  0.00626800  0.99643500  1
  O  O7  1  0.49678500  0.99357000  0.49643200  1
loop_
_geom_bond_atom_site_label_1
_geom_bond_atom_site_label_2
_geom_bond_distance
_geom_bond_site_symmetry_2
O0 V2 1.868155 1_555
O0 V2 1.868158 1_455
O0 V3 2.231402 1_555
O1 V3 1.926021 1_555
O1 V3 1.926026 1_655
O1 V2 2.005816 1_555
O2 V1 1.867676 1_555
O2 V1 1.867676 1_655
O2 V0 2.231518 1_556
O3 V0 1.926825 1_555
O3 V0 1.926829 1_455
O3 V1 2.005058 1_554
O4 V0 1.728517 1_555
O4 V2 1.920346 1_555
O5 V3 1.728707 1_555
O5 V1 1.920964 1_555
O6 V1 2.090307 1_555
O6 V1 2.090307 1_655
O6 V0 2.102451 1_546
O6 V0 2.102453 1_446
O7 V2 2.089466 1_555
O7 V2 2.089468 1_455
O7 V3 2.103237 1_565
O7 V3 2.103239 1_665
