# generated using pymatgen
data_MgMn2V4O12
_symmetry_space_group_name_H-M   'P 1'
_cell_length_a   7.12624350
_cell_length_b   7.12217606
_cell_length_c   5.78555183
_cell_angle_alpha   71.62665420
_cell_angle_beta   108.37110388
_cell_angle_gamma   100.09089560
_symmetry_Int_Tables_number   1
_chemical_formula_structural   MgMn2V4O12
_chemical_formula_sum   'Mg1 Mn2 V4 O12'
_cell_volume   263.53044650
_cell_formula_units_Z   1
loop_
 _symmetry_equiv_pos_site_id
 _symmetry_equiv_pos_as_xyz
  1  'x, y, z'
loop_
 _atom_site_type_symbol
 _atom_site_label
 _atom_site_symmetry_multiplicity
 _atom_site_fract_x
 _atom_site_fract_y
 _atom_site_fract_z
 _atom_site_occupancy
  Mg  Mg0  1  0.73788500  0.73830500  0.74981300  1
  Mn  Mn0  1  0.09260200  0.09265400  0.75006700  1
  Mn  Mn1  1  0.91509700  0.91559600  0.25007400  1
  V  V0  1  0.19017900  0.60557300  0.80016100  1
  V  V1  1  0.38327200  0.79468200  0.30540400  1
  V  V2  1  0.60633300  0.19207100  0.69994000  1
  V  V3  1  0.79540900  0.38434900  0.19477800  1
  O  O0  1  0.00892400  0.79425300  0.66244800  1
  O  O1  1  0.09302100  0.38032200  0.75893700  1
  O  O2  1  0.20691500  0.96491200  0.16967200  1
  O  O3  1  0.40132900  0.68715900  0.63742200  1
  O  O4  1  0.38063200  0.09712500  0.74042500  1
  O  O5  1  0.32123400  0.62078400  0.13108400  1
  O  O6  1  0.68831400  0.40393100  0.86208500  1
  O  O7  1  0.63117800  0.88000700  0.34149800  1
  O  O8  1  0.62125700  0.32223000  0.36848800  1
  O  O9  1  0.79326500  0.00909300  0.83792600  1
  O  O10  1  0.88121500  0.63200400  0.15981500  1
  O  O11  1  0.96490300  0.20717100  0.32996300  1
loop_
_geom_bond_atom_site_label_1
_geom_bond_atom_site_label_2
_geom_bond_distance
_geom_bond_site_symmetry_2
Mg0 O9 2.088396 1_565
Mg0 O0 2.088932 1_655
Mg0 O7 2.193396 1_555
Mg0 O10 2.203373 1_556
Mg0 O6 2.256716 1_555
Mg0 O3 2.273296 1_555
Mn0 O1 2.065032 1_555
Mn0 O4 2.065267 1_555
Mn0 O2 2.237314 1_546
Mn0 O11 2.239869 1_455
Mn0 O0 2.274609 1_545
Mn0 O9 2.282718 1_455
Mn1 O9 2.186252 1_564
Mn1 O0 2.187044 1_655
Mn1 O10 2.196611 1_555
Mn1 O7 2.201822 1_555
Mn1 O11 2.212573 1_565
Mn1 O2 2.217014 1_655
O0 V0 1.842176 1_555
O1 V0 1.690520 1_555
O2 V1 1.725600 1_555
O3 V1 1.801182 1_555
O3 V0 1.931324 1_555
O4 V2 1.689846 1_555
O5 V1 1.749597 1_555
O5 V0 1.875568 1_554
O6 V3 1.802473 1_556
O6 V2 1.932904 1_555
O7 V1 1.733542 1_555
O8 V3 1.749135 1_555
O8 V2 1.876517 1_555
O9 V2 1.841828 1_555
O10 V3 1.732355 1_555
O11 V3 1.726106 1_555
