# generated using pymatgen
data_K2Na2Sm2MgNb2O10
_symmetry_space_group_name_H-M   'P 1'
_cell_length_a   5.64756111
_cell_length_b   5.64756111
_cell_length_c   9.38970983
_cell_angle_alpha   90.00000000
_cell_angle_beta   90.00000000
_cell_angle_gamma   90.00000000
_symmetry_Int_Tables_number   1
_chemical_formula_structural   K2Na2Sm2MgNb2O10
_chemical_formula_sum   'K2 Na2 Sm2 Mg1 Nb2 O10'
_cell_volume   299.48429260
_cell_formula_units_Z   1
loop_
 _symmetry_equiv_pos_site_id
 _symmetry_equiv_pos_as_xyz
  1  'x, y, z'
loop_
 _atom_site_type_symbol
 _atom_site_label
 _atom_site_symmetry_multiplicity
 _atom_site_fract_x
 _atom_site_fract_y
 _atom_site_fract_z
 _atom_site_occupancy
  K  K0  1  0.25000000  0.75000000  0.94928402  1
  K  K1  1  0.75000000  0.25000000  0.94928402  1
  Na  Na0  1  0.75000000  0.75000000  0.15646565  1
  Na  Na1  1  0.25000000  0.25000000  0.76937591  1
  Sm  Sm0  1  0.75000000  0.25000000  0.52890763  1
  Sm  Sm1  1  0.25000000  0.75000000  0.52890763  1
  Mg  Mg0  1  0.75000000  0.75000000  0.40581475  1
  Nb  Nb0  1  0.25000000  0.25000000  0.28460611  1
  Nb  Nb1  1  0.75000000  0.75000000  0.72124861  1
  O  O0  1  0.75000000  0.75000000  0.93360695  1
  O  O1  1  0.50537041  0.99462959  0.68067465  1
  O  O2  1  0.01004266  0.48995734  0.35268066  1
  O  O3  1  0.50537041  0.50537041  0.68067465  1
  O  O4  1  0.99462959  0.50537041  0.68067465  1
  O  O5  1  0.99462959  0.99462959  0.68067465  1
  O  O6  1  0.01004266  0.01004266  0.35268066  1
  O  O7  1  0.48995734  0.48995734  0.35268066  1
  O  O8  1  0.25000000  0.25000000  0.08438948  1
  O  O9  1  0.48995734  0.01004266  0.35268066  1
loop_
_geom_bond_atom_site_label_1
_geom_bond_atom_site_label_2
_geom_bond_distance
_geom_bond_site_symmetry_2
K0 O0 2.827615 1_455
K0 O0 2.827615 1_555
K0 O8 3.095656 1_556
K0 O8 3.095656 1_566
K0 O5 3.217145 1_455
K0 O4 3.217145 1_455
K0 O3 3.217145 1_555
K0 O1 3.217145 1_555
K1 O0 2.827615 1_545
K1 O0 2.827615 1_555
K1 O8 3.095656 1_656
K1 O8 3.095656 1_556
K1 O5 3.217145 1_545
K1 O1 3.217145 1_545
K1 O3 3.217145 1_555
K1 O4 3.217145 1_555
Na0 O0 2.092579 1_554
Na0 O7 2.776339 1_555
Na0 O2 2.776339 1_655
Na0 O9 2.776339 1_565
Na0 O6 2.776339 1_665
Na1 O5 2.203108 1_445
Na1 O4 2.203108 1_455
Na1 O1 2.203108 1_545
Na1 O3 2.203108 1_555
Mg0 O9 2.136007 1_565
Mg0 O2 2.136007 1_655
Mg0 O7 2.136007 1_555
Mg0 O6 2.136007 1_665
Nb0 O8 1.879976 1_555
Nb0 O2 2.020289 1_555
Nb0 O6 2.020289 1_555
Nb0 O9 2.020289 1_555
Nb0 O7 2.020289 1_555
Nb1 O3 1.990619 1_555
Nb1 O1 1.990619 1_555
Nb1 O4 1.990619 1_555
Nb1 O5 1.990619 1_555
Nb1 O0 1.993983 1_555
O1 Sm0 2.453461 1_565
O1 Sm1 2.453461 1_555
O2 Sm0 2.594494 1_455
O2 Sm1 2.594494 1_555
O3 Sm1 2.453461 1_555
O3 Sm0 2.453461 1_555
O4 Sm1 2.453461 1_655
O4 Sm0 2.453461 1_555
O5 Sm0 2.453461 1_565
O5 Sm1 2.453461 1_655
O6 Sm1 2.594494 1_545
O6 Sm0 2.594494 1_455
O7 Sm0 2.594494 1_555
O7 Sm1 2.594494 1_555
O9 Sm1 2.594494 1_545
O9 Sm0 2.594494 1_555
