# generated using pymatgen
data_ZnGe3P2(SO6)4
_symmetry_space_group_name_H-M   'P 1'
_cell_length_a   8.38831879
_cell_length_b   8.41765570
_cell_length_c   21.76977145
_cell_angle_alpha   89.83942113
_cell_angle_beta   89.81686166
_cell_angle_gamma   120.01973326
_symmetry_Int_Tables_number   1
_chemical_formula_structural   ZnGe3P2(SO6)4
_chemical_formula_sum   'Zn3 Ge9 P6 S12 O72'
_cell_volume   1330.93352314
_cell_formula_units_Z   3
loop_
 _symmetry_equiv_pos_site_id
 _symmetry_equiv_pos_as_xyz
  1  'x, y, z'
loop_
 _atom_site_type_symbol
 _atom_site_label
 _atom_site_symmetry_multiplicity
 _atom_site_fract_x
 _atom_site_fract_y
 _atom_site_fract_z
 _atom_site_occupancy
  Zn  Zn0  1  0.99219736  0.00075646  0.35710076  1
  Zn  Zn1  1  0.67594633  0.33635959  0.68727753  1
  Zn  Zn2  1  0.66162599  0.33420477  0.18370378  1
  Ge  Ge0  1  0.00226312  0.00124002  0.86159560  1
  Ge  Ge1  1  0.99807533  0.00597073  0.64525022  1
  Ge  Ge2  1  0.00806516  0.00769790  0.14569163  1
  Ge  Ge3  1  0.65621284  0.32983302  0.97723713  1
  Ge  Ge4  1  0.67192540  0.32165440  0.47880402  1
  Ge  Ge5  1  0.33304337  0.66026449  0.01774306  1
  Ge  Ge6  1  0.33346286  0.66384916  0.51939447  1
  Ge  Ge7  1  0.34092051  0.67570232  0.31070380  1
  Ge  Ge8  1  0.33148636  0.66581740  0.81818842  1
  P  P0  1  0.96288815  0.33624039  0.58332659  1
  P  P1  1  0.37431054  0.33582773  0.08273598  1
  P  P2  1  0.62025952  0.66477396  0.91627534  1
  P  P3  1  0.04060380  0.37898897  0.91702757  1
  P  P4  1  0.33561842  0.95297761  0.91711417  1
  P  P5  1  0.61487102  0.95273247  0.41795983  1
  S  S0  1  0.28819348  -0.00435797  0.25172066  1
  S  S1  1  0.70956432  0.71146961  0.25034680  1
  S  S2  1  0.00508570  0.29785082  0.25127784  1
  S  S3  1  0.28483641  0.29092080  0.75186605  1
  S  S4  1  0.00703991  0.71970200  0.75183502  1
  S  S5  1  0.70881383  -0.00788718  0.75258008  1
  S  S6  1  0.37119546  0.03775215  0.58355459  1
  S  S7  1  0.66681402  0.62583685  0.58276515  1
  S  S8  1  0.96236348  0.62836610  0.08248862  1
  S  S9  1  0.66510653  0.03680094  0.08266549  1
  S  S10  1  0.34248699  0.38168196  0.41816311  1
  S  S11  1  0.04338112  0.66109818  0.41765804  1
  O  O0  1  0.20508452  0.02127018  0.30642920  1
  O  O1  1  0.81657214  0.79237643  0.30514424  1
  O  O2  1  0.97625526  0.18869275  0.30607492  1
  O  O3  1  0.19827133  0.17117571  0.80648052  1
  O  O4  1  0.97609623  0.80709277  0.80631481  1
  O  O5  1  0.82933892  0.02489657  0.80625448  1
  O  O6  1  0.78662697  0.95190702  0.69489649  1
  O  O7  1  0.16639842  0.21258906  0.69488546  1
  O  O8  1  0.04608147  0.83755756  0.69418279  1
  O  O9  1  0.78913022  0.83317460  0.19317272  1
  O  O10  1  0.04831191  0.21973434  0.19430381  1
  O  O11  1  0.16865179  0.95520100  0.19448312  1
  O  O12  1  0.89023772  0.37886729  0.64002301  1
  O  O13  1  0.48140305  0.11199458  0.63817826  1
  O  O14  1  0.62670776  0.51466935  0.63779180  1
  O  O15  1  0.89197430  0.51759982  0.13735322  1
  O  O16  1  0.62985786  0.10962554  0.13768979  1
  O  O17  1  0.48807673  0.37675664  0.13944464  1
  O  O18  1  0.45677983  0.29191427  0.02453657  1
  O  O19  1  0.84485753  0.54880314  0.02662456  1
  O  O20  1  0.70817726  0.15753540  0.02681153  1
  O  O21  1  0.44843971  0.15904096  0.52761613  1
  O  O22  1  0.70426702  0.54671473  0.52674025  1
  O  O23  1  0.83748590  0.29228262  0.52510951  1
  O  O24  1  0.54029090  0.71051393  0.97229759  1
  O  O25  1  0.16708545  0.45988185  0.97243053  1
  O  O26  1  0.29254753  0.82809506  0.97332399  1
  O  O27  1  0.52541947  0.83281403  0.47620910  1
  O  O28  1  0.30443486  0.46199307  0.47393497  1
  O  O29  1  0.15662254  0.69062321  0.47387432  1
  O  O30  1  0.12043854  0.61704697  0.36249128  1
  O  O31  1  0.48727674  0.86949109  0.36068060  1
  O  O32  1  0.38082897  0.50027286  0.36260091  1
  O  O33  1  0.11878584  0.50034410  0.85783725  1
  O  O34  1  0.37762407  0.87534922  0.85802209  1
  O  O35  1  0.49796848  0.62122944  0.85789055  1
  O  O36  1  0.02764019  0.82284606  0.41256127  1
  O  O37  1  0.80069336  0.97253523  0.41437280  1
  O  O38  1  0.18417508  0.20114036  0.41313703  1
  O  O39  1  0.02462221  0.19033839  0.90748593  1
  O  O40  1  0.16317087  0.97110239  0.90857769  1
  O  O41  1  0.80980825  0.83732271  0.90725365  1
  O  O42  1  0.98106454  0.16088517  0.59005707  1
  O  O43  1  0.18373066  0.01806145  0.58936601  1
  O  O44  1  0.83664420  0.81147535  0.58885105  1
  O  O45  1  0.97704182  0.81289037  0.08893596  1
  O  O46  1  0.83281375  0.01663311  0.08857793  1
  O  O47  1  0.18010115  0.15953624  0.08932762  1
  O  O48  1  0.68927323  0.15225152  0.74638956  1
  O  O49  1  0.46406902  0.30810744  0.74479056  1
  O  O50  1  0.84391486  0.54146449  0.74665514  1
  O  O51  1  0.68487517  0.53071027  0.24286056  1
  O  O52  1  0.84908725  0.32293072  0.24158274  1
  O  O53  1  0.47165380  0.14949864  0.24379863  1
  O  O54  1  0.64158369  0.49638188  0.92489336  1
  O  O55  1  0.85182897  0.35978248  0.92732476  1
  O  O56  1  0.50699233  0.14123823  0.92474963  1
  O  O57  1  0.61810487  0.13896046  0.42492340  1
  O  O58  1  0.51760911  0.37860565  0.42669971  1
  O  O59  1  0.85894005  0.49114898  0.42450927  1
  O  O60  1  0.35017513  0.50392882  0.07165076  1
  O  O61  1  0.14960164  0.65368393  0.07298927  1
  O  O62  1  0.50006460  0.85371821  0.07292298  1
  O  O63  1  0.34834170  0.85350858  0.57379963  1
  O  O64  1  0.50491274  0.65107426  0.57417751  1
  O  O65  1  0.15600390  0.50320804  0.57121260  1
  O  O66  1  0.29333602  0.81767538  0.25505224  1
  O  O67  1  0.52320640  0.70125559  0.25425352  1
  O  O68  1  0.18149405  0.48214319  0.25691811  1
  O  O69  1  0.29306292  0.47137642  0.75792871  1
  O  O70  1  0.17960421  0.71011932  0.75710213  1
  O  O71  1  0.52769369  0.81920786  0.75812486  1
loop_
_geom_bond_atom_site_label_1
_geom_bond_atom_site_label_2
_geom_bond_distance
_geom_bond_site_symmetry_2
Ge0 O41 1.803116 1_445
Ge0 O39 1.810615 1_555
Ge0 O40 1.811700 1_545
Ge0 O3 1.952843 1_555
Ge0 O4 1.954757 1_445
Ge0 O5 1.973331 1_455
Ge1 O42 1.828393 1_555
Ge1 O6 1.923155 1_545
Ge1 O43 1.935029 1_655
Ge1 O7 1.936297 1_655
Ge1 O44 1.955803 1_545
Ge1 O8 1.967771 1_645
Ge2 O47 1.831955 1_555
Ge2 O11 1.933956 1_545
Ge2 O10 1.956925 1_555
Ge2 O46 1.958180 1_455
Ge2 O45 1.967172 1_445
Ge2 O9 1.969551 1_445
Ge3 O18 1.847603 1_556
Ge3 O56 1.850310 1_555
Ge3 O54 1.855557 1_555
Ge3 O55 1.873467 1_555
Ge3 O20 2.021145 1_556
Ge3 O19 2.039839 1_556
Ge4 O57 1.806507 1_555
Ge4 O23 1.832246 1_555
Ge4 O59 1.905991 1_555
Ge4 O58 1.954311 1_555
Ge4 O21 1.982103 1_555
Ge4 O22 2.061626 1_555
Ge5 O60 1.819710 1_555
Ge5 O25 1.850603 1_554
Ge5 O24 1.852248 1_554
Ge5 O26 1.876413 1_554
Ge5 O61 1.928695 1_555
Ge5 O62 1.948475 1_555
Ge6 O27 1.786276 1_555
Ge6 O65 1.812054 1_555
Ge6 O28 1.876910 1_555
Ge6 O29 1.891011 1_555
Ge6 O64 1.915003 1_555
Ge6 O63 1.944041 1_555
Ge7 O31 1.834807 1_555
Ge7 O66 1.878192 1_555
Ge7 O67 1.884663 1_555
Ge7 O68 1.911698 1_555
Ge7 O30 2.001302 1_555
Ge7 O32 2.014164 1_555
Ge8 O34 1.827660 1_555
Ge8 O33 1.834470 1_555
Ge8 O35 1.835341 1_555
Ge8 O71 1.983970 1_555
Ge8 O69 1.997650 1_555
Ge8 O70 2.003532 1_555
O0 S0 1.448319 1_555
O0 Zn0 2.028156 1_455
O1 S1 1.446489 1_555
O1 Zn0 1.990619 1_565
O2 S2 1.447585 1_655
O2 Zn0 1.989285 1_555
O3 S3 1.487371 1_555
O4 S4 1.486312 1_655
O5 S5 1.481155 1_555
O6 S5 1.528298 1_565
O7 S3 1.522340 1_555
O8 S4 1.527079 1_555
O9 S1 1.532178 1_555
O10 S2 1.530522 1_555
O11 S0 1.530634 1_565
O12 P0 1.496673 1_555
O12 Zn1 1.939074 1_555
O13 S6 1.446498 1_555
O13 Zn1 2.076314 1_555
O14 S7 1.449134 1_555
O14 Zn1 2.048924 1_555
O15 S8 1.443240 1_555
O15 Zn2 2.031995 1_555
O16 S9 1.442673 1_555
O16 Zn2 2.038732 1_555
O17 P1 1.494795 1_555
O17 Zn2 1.924774 1_555
O18 P1 1.572687 1_555
O19 S8 1.500271 1_555
O20 S9 1.504907 1_555
O21 S6 1.507059 1_555
O22 S7 1.497098 1_555
O23 P0 1.572056 1_555
O24 P2 1.530181 1_555
O25 P3 1.527720 1_555
O26 P4 1.530657 1_555
O27 P5 1.555265 1_555
O28 S10 1.500359 1_555
O29 S11 1.494900 1_555
O30 S11 1.494989 1_555
O31 P5 1.566667 1_555
O32 S10 1.494163 1_555
O33 P3 1.565530 1_555
O34 P4 1.561483 1_555
O35 P2 1.561048 1_555
O36 S11 1.436197 1_555
O36 Zn0 2.055858 1_465
O37 P5 1.484153 1_555
O37 Zn0 1.948114 1_565
O38 S10 1.437905 1_555
O38 Zn0 2.057369 1_455
O39 P3 1.540086 1_555
O40 P4 1.540355 1_555
O41 P2 1.536852 1_555
O42 P0 1.564496 1_555
O43 S6 1.501363 1_555
O44 S7 1.504584 1_555
O45 S8 1.502482 1_555
O46 S9 1.504800 1_555
O47 P1 1.566854 1_555
O48 S5 1.443025 1_555
O48 Zn1 2.057507 1_555
O49 S3 1.444232 1_555
O49 Zn1 2.084258 1_555
O50 S4 1.443549 1_655
O50 Zn1 2.055975 1_555
O51 S1 1.439071 1_555
O51 Zn2 2.030616 1_555
O52 S2 1.442010 1_655
O52 Zn2 2.056857 1_555
O53 S0 1.441571 1_555
O53 Zn2 2.040699 1_555
O54 P2 1.526050 1_555
O55 P3 1.524873 1_655
O56 P4 1.526113 1_545
O57 P5 1.562020 1_545
O58 S10 1.494286 1_555
O59 S11 1.498385 1_655
O60 P1 1.544845 1_555
O61 S8 1.489216 1_455
O62 S9 1.485109 1_565
O63 S6 1.480456 1_565
O64 S7 1.488134 1_555
O65 P0 1.544707 1_455
O66 S0 1.521638 1_565
O67 S1 1.524119 1_555
O68 S2 1.522050 1_555
O69 S3 1.491938 1_555
O70 S4 1.494263 1_555
O71 S5 1.492123 1_565
