# generated using pymatgen
data_Li3Mo3(PO4)4
_symmetry_space_group_name_H-M   'P 1'
_cell_length_a   8.36939000
_cell_length_b   7.74527800
_cell_length_c   10.26701743
_cell_angle_alpha   88.01234466
_cell_angle_beta   90.00000000
_cell_angle_gamma   90.00000000
_symmetry_Int_Tables_number   1
_chemical_formula_structural   Li3Mo3(PO4)4
_chemical_formula_sum   'Li6 Mo6 P8 O32'
_cell_volume   665.14101952
_cell_formula_units_Z   2
loop_
 _symmetry_equiv_pos_site_id
 _symmetry_equiv_pos_as_xyz
  1  'x, y, z'
loop_
 _atom_site_type_symbol
 _atom_site_label
 _atom_site_symmetry_multiplicity
 _atom_site_fract_x
 _atom_site_fract_y
 _atom_site_fract_z
 _atom_site_occupancy
  Li  Li0  1  0.36856700  0.66391700  0.16849200  1
  Li  Li1  1  0.86856700  0.33608300  0.83150800  1
  Li  Li2  1  0.14108800  0.14100000  0.42421800  1
  Li  Li3  1  0.12988200  0.14433200  0.92137200  1
  Li  Li4  1  0.64108800  0.85900000  0.57578200  1
  Li  Li5  1  0.62988200  0.85566800  0.07862800  1
  Mo  Mo0  1  0.36606500  0.64066500  0.68263800  1
  Mo  Mo1  1  0.86606500  0.35933500  0.31736200  1
  Mo  Mo2  1  0.49057600  0.24538400  0.37464900  1
  Mo  Mo3  1  0.50200000  0.23543900  0.87680200  1
  Mo  Mo4  1  0.99057600  0.75461600  0.62535100  1
  Mo  Mo5  1  0.00200000  0.76456100  0.12319800  1
  P  P0  1  0.80032600  0.95302000  0.36054600  1
  P  P1  1  0.80665000  0.94889900  0.85892500  1
  P  P2  1  0.30665000  0.05110100  0.14107500  1
  P  P3  1  0.30032600  0.04698000  0.63945400  1
  P  P4  1  0.68555800  0.45887900  0.09926800  1
  P  P5  1  0.70331600  0.44483900  0.61096500  1
  P  P6  1  0.20331600  0.55516100  0.38903500  1
  P  P7  1  0.18555800  0.54112100  0.90073200  1
  O  O0  1  0.85395800  0.80512000  0.96257500  1
  O  O1  1  0.84892000  0.80788300  0.46078500  1
  O  O2  1  0.80764600  0.88492200  0.22099900  1
  O  O3  1  0.42345700  0.90278100  0.14637100  1
  O  O4  1  0.79693300  0.86161900  0.72305200  1
  O  O5  1  0.41922500  0.89250400  0.62560800  1
  O  O6  1  0.15050500  0.68249100  0.78636100  1
  O  O7  1  0.14833900  0.69301800  0.28838600  1
  O  O8  1  0.20311900  0.64190100  0.52742500  1
  O  O9  1  0.58668200  0.59988000  0.59965100  1
  O  O10  1  0.19833600  0.63434600  0.02929100  1
  O  O11  1  0.57181000  0.60705300  0.09862300  1
  O  O12  1  0.87253700  0.50717200  0.64463100  1
  O  O13  1  0.36214300  0.48233900  0.85105400  1
  O  O14  1  0.86214300  0.51766100  0.14894600  1
  O  O15  1  0.37253700  0.49282800  0.35536900  1
  O  O16  1  0.08668200  0.40012000  0.40034900  1
  O  O17  1  0.70311900  0.35809900  0.47257500  1
  O  O18  1  0.07181000  0.39294700  0.90137700  1
  O  O19  1  0.69833600  0.36565400  0.97070900  1
  O  O20  1  0.64833900  0.30698200  0.71161400  1
  O  O21  1  0.65050500  0.31750900  0.21363900  1
  O  O22  1  0.34892000  0.19211700  0.53921500  1
  O  O23  1  0.35395800  0.19488000  0.03742500  1
  O  O24  1  0.30764600  0.11507800  0.77900100  1
  O  O25  1  0.92345700  0.09721900  0.85362900  1
  O  O26  1  0.29693300  0.13838100  0.27694800  1
  O  O27  1  0.91922500  0.10749600  0.37439200  1
  O  O28  1  0.62943900  0.01167700  0.39713300  1
  O  O29  1  0.12943900  0.98832300  0.60286700  1
  O  O30  1  0.13292100  0.99583100  0.10177200  1
  O  O31  1  0.63292100  0.00416900  0.89822800  1
loop_
_geom_bond_atom_site_label_1
_geom_bond_atom_site_label_2
_geom_bond_distance
_geom_bond_site_symmetry_2
Li0 O11 1.903667 1_555
Li0 O3 1.912127 1_555
Li0 O10 2.036559 1_555
Li0 O7 2.232171 1_555
Li0 O15 2.293906 1_555
Li1 O18 1.903667 1_655
Li1 O25 1.912127 1_555
Li1 O19 2.036559 1_555
Li1 O20 2.232171 1_555
Li1 O12 2.293906 1_555
Li2 O27 1.945808 1_455
Li2 O26 1.997505 1_555
Li2 O16 2.064256 1_555
Li2 O22 2.146806 1_555
Li2 O29 2.149808 1_545
Li3 O25 1.902442 1_455
Li3 O18 1.989686 1_555
Li3 O24 2.103434 1_555
Li3 O30 2.146234 1_546
Li3 O23 2.263272 1_556
Li4 O5 1.945808 1_555
Li4 O4 1.997505 1_555
Li4 O9 2.064256 1_555
Li4 O1 2.146806 1_555
Li4 O28 2.149808 1_565
Li5 O3 1.902442 1_555
Li5 O11 1.989686 1_555
Li5 O2 2.103434 1_555
Li5 O31 2.146234 1_564
Li5 O0 2.263272 1_554
Mo0 O9 2.062453 1_555
Mo0 O5 2.065494 1_555
Mo0 O13 2.085099 1_555
Mo0 O8 2.097225 1_555
Mo0 O6 2.125498 1_555
Mo1 O16 2.062453 1_655
Mo1 O27 2.065494 1_555
Mo1 O14 2.085099 1_555
Mo1 O17 2.097225 1_555
Mo1 O21 2.125498 1_555
Mo2 O26 2.092203 1_555
Mo2 O22 2.093370 1_555
Mo2 O28 2.156748 1_555
Mo2 O15 2.159144 1_555
Mo2 O21 2.184565 1_555
Mo2 O17 2.235666 1_555
Mo3 O23 2.077863 1_556
Mo3 O31 2.104818 1_555
Mo3 O24 2.141999 1_555
Mo3 O20 2.149021 1_555
Mo3 O19 2.171256 1_555
Mo3 O13 2.249856 1_555
Mo4 O4 2.092203 1_555
Mo4 O1 2.093370 1_555
Mo4 O29 2.156748 1_655
Mo4 O12 2.159144 1_555
Mo4 O6 2.184565 1_655
Mo4 O8 2.235666 1_655
Mo5 O0 2.077863 1_454
Mo5 O30 2.104818 1_555
Mo5 O2 2.141999 1_455
Mo5 O7 2.149021 1_555
Mo5 O10 2.171256 1_555
Mo5 O14 2.249856 1_455
O0 P1 1.564339 1_555
O1 P0 1.551765 1_555
O2 P0 1.545019 1_555
O3 P2 1.507988 1_565
O4 P1 1.573236 1_555
O5 P3 1.566452 1_565
O6 P7 1.604573 1_555
O7 P6 1.530715 1_555
O8 P6 1.592605 1_555
O9 P5 1.548775 1_555
O10 P7 1.530063 1_554
O11 P4 1.490946 1_555
O12 P5 1.539471 1_555
O13 P7 1.633325 1_555
O14 P4 1.633325 1_555
O15 P6 1.539471 1_555
O16 P6 1.548775 1_555
O17 P5 1.592605 1_555
O18 P7 1.490946 1_555
O19 P4 1.530063 1_556
O20 P5 1.530715 1_555
O21 P4 1.604573 1_555
O22 P3 1.551765 1_555
O23 P2 1.564339 1_555
O24 P3 1.545019 1_555
O25 P1 1.507988 1_545
O26 P2 1.573236 1_555
O27 P0 1.566452 1_545
O28 P0 1.550766 1_545
O29 P3 1.550766 1_565
O30 P2 1.572324 1_565
O31 P1 1.572324 1_545
