# generated using pymatgen
data_Na3TaSi3GeO12
_symmetry_space_group_name_H-M   'P 1'
_cell_length_a   15.50318620
_cell_length_b   8.86548736
_cell_length_c   8.93172258
_cell_angle_alpha   90.00000000
_cell_angle_beta   124.93899391
_cell_angle_gamma   90.00000000
_symmetry_Int_Tables_number   1
_chemical_formula_structural   Na3TaSi3GeO12
_chemical_formula_sum   'Na12 Ta4 Si12 Ge4 O48'
_cell_volume   1006.34465645
_cell_formula_units_Z   4
loop_
 _symmetry_equiv_pos_site_id
 _symmetry_equiv_pos_as_xyz
  1  'x, y, z'
loop_
 _atom_site_type_symbol
 _atom_site_label
 _atom_site_symmetry_multiplicity
 _atom_site_fract_x
 _atom_site_fract_y
 _atom_site_fract_z
 _atom_site_occupancy
  Na  Na0  1  0.24948167  0.72444203  0.99247951  1
  Na  Na1  1  0.74948167  0.77555797  0.49247951  1
  Na  Na2  1  0.74948167  0.22444203  0.99247951  1
  Na  Na3  1  0.24948167  0.27555797  0.49247951  1
  Na  Na4  1  0.49707708  0.11773829  0.74352892  1
  Na  Na5  1  0.49707708  0.88226171  0.24352892  1
  Na  Na6  1  0.99707708  0.61773829  0.74352892  1
  Na  Na7  1  0.99707708  0.38226171  0.24352892  1
  Na  Na8  1  0.19297653  0.94666449  0.27865222  1
  Na  Na9  1  0.19297653  0.05333551  0.77865222  1
  Na  Na10  1  0.69297653  0.44666449  0.27865222  1
  Na  Na11  1  0.69297653  0.55333551  0.77865222  1
  Ta  Ta0  1  0.89164229  0.75403865  0.92934970  1
  Ta  Ta1  1  0.89164229  0.24596135  0.42934970  1
  Ta  Ta2  1  0.39164229  0.25403865  0.92934970  1
  Ta  Ta3  1  0.39164229  0.74596135  0.42934970  1
  Si  Si0  1  0.00469920  0.96168529  0.75834572  1
  Si  Si1  1  0.00469920  0.03831471  0.25834572  1
  Si  Si2  1  0.50469920  0.46168529  0.75834572  1
  Si  Si3  1  0.50469920  0.53831471  0.25834572  1
  Si  Si4  1  0.35445833  0.87898858  0.75901887  1
  Si  Si5  1  0.63983494  0.89817116  0.74819893  1
  Si  Si6  1  0.63983494  0.10182884  0.24819893  1
  Si  Si7  1  0.35445833  0.12101142  0.25901887  1
  Si  Si8  1  0.85445833  0.37898858  0.75901887  1
  Si  Si9  1  0.13983494  0.39817116  0.74819893  1
  Si  Si10  1  0.13983494  0.60182884  0.24819893  1
  Si  Si11  1  0.85445833  0.62101142  0.25901887  1
  Ge  Ge0  1  0.10486664  0.74817281  0.56591350  1
  Ge  Ge1  1  0.10486664  0.25182719  0.06591350  1
  Ge  Ge2  1  0.60486664  0.24817281  0.56591350  1
  Ge  Ge3  1  0.60486664  0.75182719  0.06591350  1
  O  O0  1  0.14310850  0.58093078  0.73441539  1
  O  O1  1  0.84722015  0.56650181  0.76640065  1
  O  O2  1  0.84722015  0.43349819  0.26640065  1
  O  O3  1  0.14310850  0.41906922  0.23441539  1
  O  O4  1  0.64310850  0.08093078  0.73441539  1
  O  O5  1  0.34722015  0.06650181  0.76640065  1
  O  O6  1  0.34722015  0.93349819  0.26640065  1
  O  O7  1  0.64310850  0.91906922  0.23441539  1
  O  O8  1  0.43653787  0.56995439  0.57848671  1
  O  O9  1  0.57944352  0.56447497  0.94135463  1
  O  O10  1  0.57944352  0.43552503  0.44135463  1
  O  O11  1  0.43653787  0.43004561  0.07848671  1
  O  O12  1  0.93653787  0.06995439  0.57848671  1
  O  O13  1  0.07944352  0.06447497  0.94135463  1
  O  O14  1  0.07944352  0.93552503  0.44135463  1
  O  O15  1  0.93653787  0.93004561  0.07848671  1
  O  O16  1  0.25078308  0.81123613  0.74004717  1
  O  O17  1  0.73896782  0.81362398  0.76219583  1
  O  O18  1  0.73896782  0.18637602  0.26219583  1
  O  O19  1  0.25078308  0.18876387  0.24004717  1
  O  O20  1  0.75078308  0.31123613  0.74004717  1
  O  O21  1  0.23896782  0.31362398  0.76219583  1
  O  O22  1  0.23896782  0.68637602  0.26219583  1
  O  O23  1  0.75078308  0.68876387  0.24004717  1
  O  O24  1  0.35468984  0.85430429  0.57682835  1
  O  O25  1  0.63354809  0.86145413  0.92055030  1
  O  O26  1  0.63354809  0.13854587  0.42055030  1
  O  O27  1  0.35468984  0.14569571  0.07682835  1
  O  O28  1  0.85468984  0.35430429  0.57682835  1
  O  O29  1  0.13354809  0.36145413  0.92055030  1
  O  O30  1  0.13354809  0.63854587  0.42055030  1
  O  O31  1  0.85468984  0.64569571  0.07682835  1
  O  O32  1  0.46162160  0.81483142  0.94282451  1
  O  O33  1  0.53420994  0.83052842  0.56033445  1
  O  O34  1  0.53420994  0.16947158  0.06033445  1
  O  O35  1  0.46162160  0.18516858  0.44282451  1
  O  O36  1  0.96162160  0.31483142  0.94282451  1
  O  O37  1  0.03420994  0.33052842  0.56033445  1
  O  O38  1  0.03420994  0.66947158  0.06033445  1
  O  O39  1  0.96162160  0.68516858  0.44282451  1
  O  O40  1  0.08622648  0.85411422  0.74449586  1
  O  O41  1  0.91860642  0.85141930  0.75657877  1
  O  O42  1  0.91860642  0.14858070  0.25657877  1
  O  O43  1  0.08622648  0.14588578  0.24449586  1
  O  O44  1  0.58622648  0.35411422  0.74449586  1
  O  O45  1  0.41860642  0.35141930  0.75657877  1
  O  O46  1  0.41860642  0.64858070  0.25657877  1
  O  O47  1  0.58622648  0.64588578  0.24449586  1
loop_
_geom_bond_atom_site_label_1
_geom_bond_atom_site_label_2
_geom_bond_distance
_geom_bond_site_symmetry_2
Na0 O0 2.301586 1_555
Na0 O16 2.393339 1_555
Na0 O46 2.409790 1_556
Na0 O40 2.492440 1_555
Na0 O22 2.528568 1_556
Na0 O6 2.733233 1_556
Na1 O7 2.301586 1_555
Na1 O23 2.393339 1_555
Na1 O41 2.409790 1_555
Na1 O47 2.492440 1_555
Na1 O17 2.528568 1_555
Na1 O1 2.733233 1_555
Na2 O4 2.301586 1_555
Na2 O20 2.393339 1_555
Na2 O42 2.409790 1_556
Na2 O44 2.492440 1_555
Na2 O18 2.528568 1_556
Na2 O2 2.733233 1_556
Na3 O3 2.301586 1_555
Na3 O19 2.393339 1_555
Na3 O45 2.409790 1_555
Na3 O43 2.492440 1_555
Na3 O21 2.528568 1_555
Na3 O5 2.733233 1_555
Na4 O4 2.334453 1_555
Na4 O45 2.438833 1_555
Na4 O35 2.486381 1_555
Na4 O5 2.487813 1_555
Na4 O44 2.507607 1_555
Na4 O34 2.585090 1_556
Na4 O25 2.882183 1_545
Na4 O24 2.963027 1_545
Na5 O7 2.334453 1_555
Na5 O46 2.438833 1_555
Na5 O32 2.486381 1_554
Na5 O6 2.487813 1_555
Na5 O47 2.507607 1_555
Na5 O33 2.585090 1_555
Na5 O26 2.882183 1_565
Na5 O27 2.963027 1_565
Na6 O0 2.334453 1_655
Na6 O41 2.438833 1_555
Na6 O39 2.486381 1_555
Na6 O1 2.487813 1_555
Na6 O40 2.507607 1_655
Na6 O38 2.585090 1_656
Na6 O29 2.882183 1_655
Na6 O28 2.963027 1_555
Na7 O3 2.334453 1_655
Na7 O42 2.438833 1_555
Na7 O36 2.486381 1_554
Na7 O2 2.487813 1_555
Na7 O43 2.507607 1_655
Na7 O37 2.585090 1_655
Na7 O30 2.882183 1_655
Na7 O31 2.963027 1_555
Na8 O43 2.317999 1_565
Na8 O19 2.425431 1_565
Na8 O22 2.444376 1_555
Na8 O6 2.458349 1_555
Na8 O24 2.529995 1_555
Na8 O13 2.681656 1_564
Na8 O14 2.854711 1_555
Na9 O40 2.317999 1_545
Na9 O16 2.425431 1_545
Na9 O21 2.444376 1_555
Na9 O5 2.458349 1_555
Na9 O27 2.529995 1_556
Na9 O14 2.681656 1_545
Na9 O13 2.854711 1_555
Na10 O47 2.317999 1_555
Na10 O23 2.425431 1_555
Na10 O18 2.444376 1_555
Na10 O2 2.458349 1_555
Na10 O28 2.529995 1_555
Na10 O9 2.681656 1_554
Na10 O10 2.854711 1_555
Na11 O44 2.317999 1_555
Na11 O20 2.425431 1_555
Na11 O17 2.444376 1_555
Na11 O1 2.458349 1_555
Na11 O31 2.529995 1_556
Na11 O10 2.681656 1_555
Na11 O9 2.854711 1_555
Ge0 O30 1.867955 1_555
Ge0 O14 1.910399 1_555
Ge0 O39 1.912045 1_455
Ge0 O0 1.947532 1_555
Ge0 O16 1.954228 1_555
Ge0 O40 2.009426 1_555
Ge1 O29 1.867955 1_554
Ge1 O13 1.910399 1_554
Ge1 O36 1.912045 1_454
Ge1 O3 1.947532 1_555
Ge1 O19 1.954228 1_555
Ge1 O43 2.009426 1_555
Ge2 O26 1.867955 1_555
Ge2 O10 1.910399 1_555
Ge2 O35 1.912045 1_555
Ge2 O4 1.947532 1_555
Ge2 O20 1.954228 1_555
Ge2 O44 2.009426 1_555
Ge3 O25 1.867955 1_554
Ge3 O9 1.910399 1_554
Ge3 O32 1.912045 1_554
Ge3 O7 1.947532 1_555
Ge3 O23 1.954228 1_555
Ge3 O47 2.009426 1_555
O0 Si9 1.627915 1_555
O1 Si8 1.670022 1_555
O1 Ta0 2.051514 1_555
O2 Si11 1.670022 1_555
O2 Ta1 2.051514 1_555
O3 Si10 1.627915 1_555
O4 Si5 1.627915 1_545
O5 Si4 1.670022 1_545
O5 Ta2 2.051514 1_555
O6 Si7 1.670022 1_565
O6 Ta3 2.051514 1_555
O7 Si6 1.627915 1_565
O8 Si2 1.635317 1_555
O8 Ta3 1.905693 1_555
O9 Si2 1.635703 1_555
O10 Si3 1.635703 1_555
O11 Si3 1.635317 1_555
O11 Ta2 1.905693 1_554
O12 Si0 1.635317 1_645
O12 Ta1 1.905693 1_555
O13 Si0 1.635703 1_545
O14 Si1 1.635703 1_565
O15 Si1 1.635317 1_665
O15 Ta0 1.905693 1_554
O16 Si4 1.631241 1_555
O17 Si5 1.649052 1_555
O17 Ta0 2.015641 1_555
O18 Si6 1.649052 1_555
O18 Ta1 2.015641 1_555
O19 Si7 1.631241 1_555
O20 Si8 1.631241 1_555
O21 Si9 1.649052 1_555
O21 Ta2 2.015641 1_555
O22 Si10 1.649052 1_555
O22 Ta3 2.015641 1_555
O23 Si11 1.631241 1_555
O24 Si4 1.643964 1_555
O24 Ta3 1.962204 1_555
O25 Si5 1.630046 1_555
O26 Si6 1.630046 1_555
O27 Si7 1.643964 1_555
O27 Ta2 1.962204 1_554
O28 Si8 1.643964 1_555
O28 Ta1 1.962204 1_555
O29 Si9 1.630046 1_555
O30 Si10 1.630046 1_555
O31 Si11 1.643964 1_555
O31 Ta0 1.962204 1_554
O32 Si4 1.629350 1_555
O33 Si5 1.646029 1_555
O33 Ta3 1.963213 1_555
O34 Si6 1.646029 1_555
O34 Ta2 1.963213 1_554
O35 Si7 1.629350 1_555
O36 Si8 1.629350 1_555
O37 Si9 1.646029 1_555
O37 Ta1 1.963213 1_455
O38 Si10 1.646029 1_555
O38 Ta0 1.963213 1_454
O39 Si11 1.629350 1_555
O40 Si0 1.643594 1_555
O41 Si0 1.647181 1_655
O41 Ta0 2.010037 1_555
O42 Si1 1.647181 1_655
O42 Ta1 2.010037 1_555
O43 Si1 1.643594 1_555
O44 Si2 1.643594 1_555
O45 Si2 1.647181 1_555
O45 Ta2 2.010037 1_555
O46 Si3 1.647181 1_555
O46 Ta3 2.010037 1_555
O47 Si3 1.643594 1_555
