# generated using pymatgen
data_Na3CaTi(PO4)3
_symmetry_space_group_name_H-M   'P 1'
_cell_length_a   15.84816757
_cell_length_b   9.18794490
_cell_length_c   8.99139299
_cell_angle_alpha   90.00000000
_cell_angle_beta   125.56664645
_cell_angle_gamma   90.00000000
_symmetry_Int_Tables_number   1
_chemical_formula_structural   Na3CaTi(PO4)3
_chemical_formula_sum   'Na12 Ca4 Ti4 P12 O48'
_cell_volume   1065.00015511
_cell_formula_units_Z   4
loop_
 _symmetry_equiv_pos_site_id
 _symmetry_equiv_pos_as_xyz
  1  'x, y, z'
loop_
 _atom_site_type_symbol
 _atom_site_label
 _atom_site_symmetry_multiplicity
 _atom_site_fract_x
 _atom_site_fract_y
 _atom_site_fract_z
 _atom_site_occupancy
  Na  Na0  1  0.25590558  0.72938705  0.99633210  1
  Na  Na1  1  0.75590558  0.77061295  0.49633210  1
  Na  Na2  1  0.75590558  0.22938705  0.99633210  1
  Na  Na3  1  0.25590558  0.27061295  0.49633210  1
  Na  Na4  1  0.50358526  0.10210506  0.74541036  1
  Na  Na5  1  0.50358526  0.89789494  0.24541036  1
  Na  Na6  1  0.00358526  0.60210506  0.74541036  1
  Na  Na7  1  0.00358526  0.39789494  0.24541036  1
  Na  Na8  1  0.18589342  0.93813525  0.30005379  1
  Na  Na9  1  0.18589342  0.06186475  0.80005379  1
  Na  Na10  1  0.68589342  0.43813525  0.30005379  1
  Na  Na11  1  0.68589342  0.56186475  0.80005379  1
  Ca  Ca0  1  0.10385068  0.74781892  0.56406778  1
  Ca  Ca1  1  0.10385068  0.25218108  0.06406778  1
  Ca  Ca2  1  0.60385068  0.24781892  0.56406778  1
  Ca  Ca3  1  0.60385068  0.75218108  0.06406778  1
  Ti  Ti0  1  0.89666363  0.75971377  0.94527688  1
  Ti  Ti1  1  0.89666363  0.24028623  0.44527688  1
  Ti  Ti2  1  0.39666363  0.25971377  0.94527688  1
  Ti  Ti3  1  0.39666363  0.74028623  0.44527688  1
  P  P0  1  0.98997738  0.95455043  0.75785589  1
  P  P1  1  0.98997738  0.04544957  0.25785589  1
  P  P2  1  0.48997738  0.45455043  0.75785589  1
  P  P3  1  0.48997738  0.54544957  0.25785589  1
  P  P4  1  0.35535989  0.91789599  0.75513330  1
  P  P5  1  0.65065660  0.87765038  0.74390858  1
  P  P6  1  0.65065660  0.12234962  0.24390858  1
  P  P7  1  0.35535989  0.08210401  0.25513330  1
  P  P8  1  0.85535989  0.41789599  0.75513330  1
  P  P9  1  0.15065660  0.37765038  0.74390858  1
  P  P10  1  0.15065660  0.62234962  0.24390858  1
  P  P11  1  0.85535989  0.58210401  0.25513330  1
  O  O0  1  0.15829519  0.54336182  0.74495308  1
  O  O1  1  0.85167872  0.58943640  0.74078199  1
  O  O2  1  0.85167872  0.41056360  0.24078199  1
  O  O3  1  0.15829519  0.45663818  0.24495308  1
  O  O4  1  0.65829519  0.04336182  0.74495308  1
  O  O5  1  0.35167872  0.08943640  0.74078199  1
  O  O6  1  0.35167872  0.91056360  0.24078199  1
  O  O7  1  0.65829519  0.95663818  0.24495308  1
  O  O8  1  0.43175355  0.57004719  0.59086027  1
  O  O9  1  0.55887331  0.53680681  0.93415854  1
  O  O10  1  0.55887331  0.46319319  0.43415854  1
  O  O11  1  0.43175355  0.42995281  0.09086027  1
  O  O12  1  0.93175355  0.07004719  0.59086027  1
  O  O13  1  0.05887331  0.03680681  0.93415854  1
  O  O14  1  0.05887331  0.96319319  0.43415854  1
  O  O15  1  0.93175355  0.92995281  0.09086027  1
  O  O16  1  0.26174550  0.86618867  0.74966521  1
  O  O17  1  0.73996119  0.80061993  0.74486308  1
  O  O18  1  0.73996119  0.19938007  0.24486308  1
  O  O19  1  0.26174550  0.13381133  0.24966521  1
  O  O20  1  0.76174550  0.36618867  0.74966521  1
  O  O21  1  0.23996119  0.30061993  0.74486308  1
  O  O22  1  0.23996119  0.69938007  0.24486308  1
  O  O23  1  0.76174550  0.63381133  0.24966521  1
  O  O24  1  0.35700069  0.86161547  0.58591780  1
  O  O25  1  0.65877603  0.82332769  0.90948310  1
  O  O26  1  0.65877603  0.17667231  0.40948310  1
  O  O27  1  0.35700069  0.13838453  0.08591780  1
  O  O28  1  0.85700069  0.36161547  0.58591780  1
  O  O29  1  0.15877603  0.32332769  0.90948310  1
  O  O30  1  0.15877603  0.67667231  0.40948310  1
  O  O31  1  0.85700069  0.63838453  0.08591780  1
  O  O32  1  0.45604010  0.87436643  0.93290700  1
  O  O33  1  0.54146727  0.81951441  0.56663588  1
  O  O34  1  0.54146727  0.18048559  0.06663588  1
  O  O35  1  0.45604010  0.12563357  0.43290700  1
  O  O36  1  0.95604010  0.37436643  0.93290700  1
  O  O37  1  0.04146727  0.31951441  0.56663588  1
  O  O38  1  0.04146727  0.68048559  0.06663588  1
  O  O39  1  0.95604010  0.62563357  0.43290700  1
  O  O40  1  0.05707441  0.84839464  0.73655519  1
  O  O41  1  0.90544161  0.86456102  0.75518019  1
  O  O42  1  0.90544161  0.13543898  0.25518019  1
  O  O43  1  0.05707441  0.15160536  0.23655519  1
  O  O44  1  0.55707441  0.34839464  0.73655519  1
  O  O45  1  0.40544161  0.36456102  0.75518019  1
  O  O46  1  0.40544161  0.63543898  0.25518019  1
  O  O47  1  0.55707441  0.65160536  0.23655519  1
loop_
_geom_bond_atom_site_label_1
_geom_bond_atom_site_label_2
_geom_bond_distance
_geom_bond_site_symmetry_2
Na0 O46 2.315567 1_556
Na0 O22 2.406316 1_556
Na0 O6 2.454568 1_556
Na0 O0 2.521039 1_555
Na0 O16 2.597346 1_555
Na0 O40 2.831732 1_555
Na1 O41 2.315567 1_555
Na1 O17 2.406316 1_555
Na1 O1 2.454568 1_555
Na1 O7 2.521039 1_555
Na1 O23 2.597346 1_555
Na1 O47 2.831732 1_555
Na2 O42 2.315567 1_556
Na2 O18 2.406316 1_556
Na2 O2 2.454568 1_556
Na2 O4 2.521039 1_555
Na2 O20 2.597346 1_555
Na2 O44 2.831732 1_555
Na3 O45 2.315567 1_555
Na3 O21 2.406316 1_555
Na3 O5 2.454568 1_555
Na3 O3 2.521039 1_555
Na3 O19 2.597346 1_555
Na3 O43 2.831732 1_555
Na4 O5 2.386316 1_555
Na4 O44 2.433958 1_555
Na4 O35 2.459012 1_555
Na4 O4 2.512909 1_555
Na4 O34 2.684021 1_556
Na5 O6 2.386316 1_555
Na5 O47 2.433958 1_555
Na5 O32 2.459012 1_554
Na5 O7 2.512909 1_555
Na5 O33 2.684021 1_555
Na6 O1 2.386316 1_455
Na6 O40 2.433958 1_555
Na6 O39 2.459012 1_455
Na6 O0 2.512909 1_555
Na6 O38 2.684021 1_556
Na7 O2 2.386316 1_455
Na7 O43 2.433958 1_555
Na7 O36 2.459012 1_454
Na7 O3 2.512909 1_555
Na7 O37 2.684021 1_555
Na8 O19 2.348665 1_565
Na8 O22 2.507455 1_555
Na8 O24 2.519149 1_555
Na8 O43 2.642884 1_565
Na8 O30 2.723193 1_555
Na8 O13 2.827283 1_564
Na8 O14 2.895327 1_555
Na9 O16 2.348665 1_545
Na9 O21 2.507455 1_555
Na9 O27 2.519149 1_556
Na9 O40 2.642884 1_545
Na9 O29 2.723193 1_555
Na9 O14 2.827283 1_545
Na9 O13 2.895327 1_555
Na10 O23 2.348665 1_555
Na10 O18 2.507455 1_555
Na10 O28 2.519149 1_555
Na10 O47 2.642884 1_555
Na10 O26 2.723193 1_555
Na10 O9 2.827283 1_554
Na10 O10 2.895327 1_555
Na11 O20 2.348665 1_555
Na11 O17 2.507455 1_555
Na11 O31 2.519149 1_556
Na11 O44 2.642884 1_555
Na11 O25 2.723193 1_555
Na11 O10 2.827283 1_555
Na11 O9 2.895327 1_555
Ca0 O30 2.127063 1_555
Ca0 O14 2.195390 1_555
Ca0 O39 2.219192 1_455
Ca0 O40 2.268533 1_555
Ca0 O0 2.299157 1_555
Ca0 O16 2.317670 1_555
Ca1 O29 2.127063 1_554
Ca1 O13 2.195390 1_554
Ca1 O36 2.219192 1_454
Ca1 O43 2.268533 1_555
Ca1 O3 2.299157 1_555
Ca1 O19 2.317670 1_555
Ca2 O26 2.127063 1_555
Ca2 O10 2.195390 1_555
Ca2 O35 2.219192 1_555
Ca2 O44 2.268533 1_555
Ca2 O4 2.299157 1_555
Ca2 O20 2.317670 1_555
Ca3 O25 2.127063 1_554
Ca3 O9 2.195390 1_554
Ca3 O32 2.219192 1_554
Ca3 O47 2.268533 1_555
Ca3 O7 2.299157 1_555
Ca3 O23 2.317670 1_555
O0 P9 1.526948 1_555
O1 P8 1.579684 1_555
O1 Ti0 2.193582 1_555
O2 P11 1.579684 1_555
O2 Ti1 2.193582 1_555
O3 P10 1.526948 1_555
O4 P5 1.526948 1_545
O5 P4 1.579684 1_545
O5 Ti2 2.193582 1_555
O6 P7 1.579684 1_565
O6 Ti3 2.193582 1_555
O7 P6 1.526948 1_565
O8 P2 1.618750 1_555
O8 Ti3 1.903278 1_555
O9 P2 1.504248 1_555
O10 P3 1.504248 1_555
O11 P3 1.618750 1_555
O11 Ti2 1.903278 1_554
O12 P0 1.618750 1_545
O12 Ti1 1.903278 1_555
O13 P0 1.504248 1_445
O14 P1 1.504248 1_465
O15 P1 1.618750 1_565
O15 Ti0 1.903278 1_554
O16 P4 1.531139 1_555
O17 P5 1.577964 1_555
O17 Ti0 2.085667 1_555
O18 P6 1.577964 1_555
O18 Ti1 2.085667 1_555
O19 P7 1.531139 1_555
O20 P8 1.531139 1_555
O21 P9 1.577964 1_555
O21 Ti2 2.085667 1_555
O22 P10 1.577964 1_555
O22 Ti3 2.085667 1_555
O23 P11 1.531139 1_555
O24 P4 1.621421 1_555
O24 Ti3 2.040004 1_555
O25 P5 1.503058 1_555
O26 P6 1.503058 1_555
O27 P7 1.621421 1_555
O27 Ti2 2.040004 1_554
O28 P8 1.621421 1_555
O28 Ti1 2.040004 1_555
O29 P9 1.503058 1_555
O30 P10 1.503058 1_555
O31 P11 1.621421 1_555
O31 Ti0 2.040004 1_554
O32 P4 1.514574 1_555
O33 P5 1.616093 1_555
O33 Ti3 2.018409 1_555
O34 P6 1.616093 1_555
O34 Ti2 2.018409 1_554
O35 P7 1.514574 1_555
O36 P8 1.514574 1_555
O37 P9 1.616093 1_555
O37 Ti1 2.018409 1_455
O38 P10 1.616093 1_555
O38 Ti0 2.018409 1_454
O39 P11 1.514574 1_555
O40 P0 1.534815 1_455
O41 P0 1.562564 1_555
O41 Ti0 2.036038 1_555
O42 P1 1.562564 1_555
O42 Ti1 2.036038 1_555
O43 P1 1.534815 1_455
O44 P2 1.534815 1_555
O45 P2 1.562564 1_555
O45 Ti2 2.036038 1_555
O46 P3 1.562564 1_555
O46 Ti3 2.036038 1_555
O47 P3 1.534815 1_555
