# generated using pymatgen
data_PbS
_symmetry_space_group_name_H-M   'P 1'
_cell_length_a   4.22192593
_cell_length_b   4.22192593
_cell_length_c   11.27537033
_cell_angle_alpha   90.00000000
_cell_angle_beta   90.00000000
_cell_angle_gamma   90.06397101
_symmetry_Int_Tables_number   1
_chemical_formula_structural   PbS
_chemical_formula_sum   'Pb2 S2'
_cell_volume   200.97950104
_cell_formula_units_Z   2
loop_
 _symmetry_equiv_pos_site_id
 _symmetry_equiv_pos_as_xyz
  1  'x, y, z'
loop_
 _atom_site_type_symbol
 _atom_site_label
 _atom_site_symmetry_multiplicity
 _atom_site_fract_x
 _atom_site_fract_y
 _atom_site_fract_z
 _atom_site_occupancy
  Pb  Pb0  1  0.25478113  0.24521887  0.37367476  1
  Pb  Pb1  1  0.75478113  0.74521887  0.62632524  1
  S  S0  1  0.76621887  0.73378113  0.39048923  1
  S  S1  1  0.26621887  0.23378113  0.60951077  1
loop_
_geom_bond_atom_site_label_1
_geom_bond_atom_site_label_2
_geom_bond_distance
_geom_bond_site_symmetry_2
Pb0 S1 2.660016 1_555
Pb0 S0 2.924840 1_455
Pb0 S0 2.990484 1_445
Pb0 S0 2.990484 1_555
Pb0 S0 3.061225 1_545
Pb1 S0 2.660016 1_555
Pb1 S1 2.924840 1_565
Pb1 S1 2.990484 1_665
Pb1 S1 2.990484 1_555
Pb1 S1 3.061225 1_655
