# generated using pymatgen
data_Na5Fe3F14
_symmetry_space_group_name_H-M   'P 1'
_cell_length_a   7.74013700
_cell_length_b   7.74013700
_cell_length_c   10.24011600
_cell_angle_alpha   90.00000000
_cell_angle_beta   90.00000000
_cell_angle_gamma   90.00000000
_symmetry_Int_Tables_number   1
_chemical_formula_structural   Na5Fe3F14
_chemical_formula_sum   'Na10 Fe6 F28'
_cell_volume   613.48249030
_cell_formula_units_Z   2
loop_
 _symmetry_equiv_pos_site_id
 _symmetry_equiv_pos_as_xyz
  1  'x, y, z'
loop_
 _atom_site_type_symbol
 _atom_site_label
 _atom_site_symmetry_multiplicity
 _atom_site_fract_x
 _atom_site_fract_y
 _atom_site_fract_z
 _atom_site_occupancy
  Na  Na0  1  0.50000000  0.50000000  0.00000000  1
  Na  Na1  1  0.00000000  0.00000000  0.50000000  1
  Na  Na2  1  0.26649400  0.73350600  0.74018100  1
  Na  Na3  1  0.73350600  0.26649400  0.74018100  1
  Na  Na4  1  0.73350600  0.26649400  0.25981900  1
  Na  Na5  1  0.23350600  0.23350600  0.24018100  1
  Na  Na6  1  0.76649400  0.76649400  0.24018100  1
  Na  Na7  1  0.23350600  0.23350600  0.75981900  1
  Na  Na8  1  0.76649400  0.76649400  0.75981900  1
  Na  Na9  1  0.26649400  0.73350600  0.25981900  1
  Fe  Fe0  1  0.50000000  0.50000000  0.50000000  1
  Fe  Fe1  1  0.00000000  0.00000000  0.00000000  1
  Fe  Fe2  1  0.50000000  0.00000000  0.50000000  1
  Fe  Fe3  1  0.50000000  0.00000000  0.00000000  1
  Fe  Fe4  1  0.00000000  0.50000000  0.00000000  1
  Fe  Fe5  1  0.00000000  0.50000000  0.50000000  1
  F  F0  1  0.00000000  0.00000000  0.81238900  1
  F  F1  1  0.50000000  0.50000000  0.31238900  1
  F  F2  1  0.50000000  0.50000000  0.68761100  1
  F  F3  1  0.00000000  0.00000000  0.18761100  1
  F  F4  1  0.49741400  0.74918100  0.50000000  1
  F  F5  1  0.50258600  0.25081900  0.50000000  1
  F  F6  1  0.74918100  0.49741400  0.50000000  1
  F  F7  1  0.24918100  0.00258600  0.00000000  1
  F  F8  1  0.75081900  0.99741400  0.00000000  1
  F  F9  1  0.00258600  0.24918100  0.00000000  1
  F  F10  1  0.99741400  0.75081900  0.00000000  1
  F  F11  1  0.25081900  0.50258600  0.50000000  1
  F  F12  1  0.00281700  0.68536200  0.62947300  1
  F  F13  1  0.99718300  0.31463800  0.62947300  1
  F  F14  1  0.68536200  0.00281700  0.37052700  1
  F  F15  1  0.18536200  0.49718300  0.12947300  1
  F  F16  1  0.99718300  0.31463800  0.37052700  1
  F  F17  1  0.18536200  0.49718300  0.87052700  1
  F  F18  1  0.81463800  0.50281700  0.87052700  1
  F  F19  1  0.49718300  0.18536200  0.12947300  1
  F  F20  1  0.50281700  0.81463800  0.12947300  1
  F  F21  1  0.00281700  0.68536200  0.37052700  1
  F  F22  1  0.31463800  0.99718300  0.62947300  1
  F  F23  1  0.68536200  0.00281700  0.62947300  1
  F  F24  1  0.31463800  0.99718300  0.37052700  1
  F  F25  1  0.50281700  0.81463800  0.87052700  1
  F  F26  1  0.49718300  0.18536200  0.87052700  1
  F  F27  1  0.81463800  0.50281700  0.12947300  1
loop_
_geom_bond_atom_site_label_1
_geom_bond_atom_site_label_2
_geom_bond_distance
_geom_bond_site_symmetry_2
F0 Fe1 1.921158 1_556
F0 Na7 2.612078 1_555
F0 Na8 2.612078 1_445
F1 Fe0 1.921158 1_555
F1 Na9 2.612078 1_555
F1 Na4 2.612078 1_555
F2 Fe0 1.921158 1_555
F2 Na2 2.612078 1_555
F2 Na3 2.612078 1_555
F3 Fe1 1.921158 1_555
F3 Na5 2.612078 1_555
F3 Na6 2.612078 1_445
F4 Fe0 1.928799 1_555
F4 Fe2 1.941477 1_565
F5 Fe0 1.928799 1_555
F5 Fe2 1.941477 1_555
F6 Fe0 1.928799 1_555
F6 Fe5 1.941477 1_655
F7 Fe1 1.928799 1_555
F7 Fe3 1.941477 1_555
F8 Fe1 1.928799 1_665
F8 Fe3 1.941477 1_565
F9 Fe1 1.928799 1_555
F9 Fe4 1.941477 1_555
F10 Fe1 1.928799 1_665
F10 Fe4 1.941477 1_655
F11 Fe0 1.928799 1_555
F11 Fe5 1.941477 1_555
F12 Fe5 1.953641 1_555
F12 Na8 2.349851 1_455
F12 Na2 2.364172 1_555
F12 Na1 2.772933 1_565
F13 Fe5 1.953641 1_655
F13 Na7 2.349851 1_655
F13 Na3 2.364172 1_555
F13 Na1 2.772933 1_655
F14 Fe2 1.953641 1_555
F14 Na6 2.349851 1_545
F14 Na4 2.364172 1_555
F14 Na1 2.772933 1_655
F15 Fe4 1.953641 1_555
F15 Na9 2.349851 1_555
F15 Na5 2.364172 1_555
F15 Na0 2.772933 1_555
F16 Fe5 1.953641 1_655
F16 Na5 2.349851 1_655
F16 Na4 2.364172 1_555
F16 Na1 2.772933 1_655
F17 Fe4 1.953641 1_556
F17 Na2 2.349851 1_555
F17 Na7 2.364172 1_555
F17 Na0 2.772933 1_556
F18 Fe4 1.953641 1_656
F18 Na3 2.349851 1_555
F18 Na8 2.364172 1_555
F18 Na0 2.772933 1_556
F19 Fe3 1.953641 1_555
F19 Na4 2.349851 1_555
F19 Na5 2.364172 1_555
F19 Na0 2.772933 1_555
F20 Fe3 1.953641 1_565
F20 Na9 2.349851 1_555
F20 Na6 2.364172 1_555
F20 Na0 2.772933 1_555
F21 Fe5 1.953641 1_555
F21 Na6 2.349851 1_455
F21 Na9 2.364172 1_555
F21 Na1 2.772933 1_565
F22 Fe2 1.953641 1_565
F22 Na7 2.349851 1_565
F22 Na2 2.364172 1_555
F22 Na1 2.772933 1_565
F23 Fe2 1.953641 1_555
F23 Na8 2.349851 1_545
F23 Na3 2.364172 1_555
F23 Na1 2.772933 1_655
F24 Fe2 1.953641 1_565
F24 Na5 2.349851 1_565
F24 Na9 2.364172 1_555
F24 Na1 2.772933 1_565
F25 Fe3 1.953641 1_566
F25 Na2 2.349851 1_555
F25 Na8 2.364172 1_555
F25 Na0 2.772933 1_556
F26 Fe3 1.953641 1_556
F26 Na3 2.349851 1_555
F26 Na7 2.364172 1_555
F26 Na0 2.772933 1_556
F27 Fe4 1.953641 1_655
F27 Na4 2.349851 1_555
F27 Na6 2.364172 1_555
F27 Na0 2.772933 1_555
