# generated using pymatgen
data_Li3V3(PO4)4
_symmetry_space_group_name_H-M   'P 1'
_cell_length_a   8.07245400
_cell_length_b   8.82876703
_cell_length_c   13.20032422
_cell_angle_alpha   85.10910428
_cell_angle_beta   89.81687038
_cell_angle_gamma   89.97238646
_symmetry_Int_Tables_number   1
_chemical_formula_structural   Li3V3(PO4)4
_chemical_formula_sum   'Li9 V9 P12 O48'
_cell_volume   937.35433342
_cell_formula_units_Z   3
loop_
 _symmetry_equiv_pos_site_id
 _symmetry_equiv_pos_as_xyz
  1  'x, y, z'
loop_
 _atom_site_type_symbol
 _atom_site_label
 _atom_site_symmetry_multiplicity
 _atom_site_fract_x
 _atom_site_fract_y
 _atom_site_fract_z
 _atom_site_occupancy
  Li  Li0  1  0.86192300  0.77197200  0.83677500  1
  Li  Li1  1  0.13862300  0.89671200  0.49821000  1
  Li  Li2  1  0.63770000  0.25906500  0.83704700  1
  Li  Li3  1  0.63223500  0.59424200  0.50592700  1
  Li  Li4  1  0.64066300  0.94115800  0.16808000  1
  Li  Li5  1  0.36613300  0.07490200  0.82594500  1
  Li  Li6  1  0.36565900  0.40492500  0.49913000  1
  Li  Li7  1  0.86804700  0.42714000  0.16700100  1
  Li  Li8  1  0.13321600  0.23762900  0.16373800  1
  V  V0  1  0.51429200  0.66788500  0.83274500  1
  V  V1  1  0.49058500  0.99626100  0.50127300  1
  V  V2  1  0.14371400  0.56137000  0.83023300  1
  V  V3  1  0.99538200  0.16226500  0.83275000  1
  V  V4  1  0.00180300  0.50531300  0.50419000  1
  V  V5  1  0.98786900  0.83816200  0.16790000  1
  V  V6  1  0.35843500  0.73019200  0.16551800  1
  V  V7  1  0.85182800  0.10081600  0.50150800  1
  V  V8  1  0.50645500  0.32688700  0.16276300  1
  P  P0  1  0.20416600  0.85203100  0.94274000  1
  P  P1  1  0.69597700  0.98209800  0.72384000  1
  P  P2  1  0.31676500  0.35182400  0.94884700  1
  P  P3  1  0.30654100  0.68531000  0.61152700  1
  P  P4  1  0.80646400  0.47760400  0.72053100  1
  P  P5  1  0.80031400  0.81109400  0.38843600  1
  P  P6  1  0.19003900  0.19074300  0.61328400  1
  P  P7  1  0.18314700  0.51975600  0.28332000  1
  P  P8  1  0.68257300  0.31403300  0.38317100  1
  P  P9  1  0.69480800  0.64470700  0.05350600  1
  P  P10  1  0.30249300  0.02011300  0.27988400  1
  P  P11  1  0.81229600  0.14932900  0.05225200  1
  O  O0  1  0.87489300  0.99414900  0.76683500  1
  O  O1  1  0.37849400  0.83820400  0.89703900  1
  O  O2  1  0.08207000  0.73609900  0.89966100  1
  O  O3  1  0.69537100  0.67849100  0.93588500  1
  O  O4  1  0.64899900  0.81276000  0.74256500  1
  O  O5  1  0.35796100  0.52476100  0.91799100  1
  O  O6  1  0.35836500  0.85511400  0.59127800  1
  O  O7  1  0.30407100  0.65447500  0.73425700  1
  O  O8  1  0.92876800  0.58765900  0.76823600  1
  O  O9  1  0.30567600  0.98879500  0.39698300  1
  O  O10  1  0.91984800  0.92858200  0.43485700  1
  O  O11  1  0.13533700  0.35097300  0.89664300  1
  O  O12  1  0.63226900  0.49756300  0.76810400  1
  O  O13  1  0.62719500  0.82228100  0.43650300  1
  O  O14  1  0.12773900  0.67693600  0.56943200  1
  O  O15  1  0.42921400  0.24269600  0.90247700  1
  O  O16  1  0.81213300  0.16898900  0.93316100  1
  O  O17  1  0.42675700  0.57482600  0.57253000  1
  O  O18  1  0.80956600  0.50916300  0.60341400  1
  O  O19  1  0.42190200  0.90249700  0.23316200  1
  O  O20  1  0.85933100  0.31128900  0.74786500  1
  O  O21  1  0.80306800  0.84325300  0.27165200  1
  O  O22  1  0.86786900  0.64903200  0.41682600  1
  O  O23  1  0.85886100  0.97821300  0.08270700  1
  O  O24  1  0.13974000  0.01396100  0.91983500  1
  O  O25  1  0.13550700  0.35850600  0.58657700  1
  O  O26  1  0.18509000  0.15882300  0.73064600  1
  O  O27  1  0.13863400  0.69187500  0.24686200  1
  O  O28  1  0.57400700  0.09120700  0.76232900  1
  O  O29  1  0.19260500  0.50329900  0.39991300  1
  O  O30  1  0.56985900  0.42506400  0.42784900  1
  O  O31  1  0.20132100  0.81450700  0.06289000  1
  O  O32  1  0.57208300  0.75592800  0.09949300  1
  O  O33  1  0.36311100  0.17348400  0.56591100  1
  O  O34  1  0.86219900  0.31163600  0.43727200  1
  O  O35  1  0.36437800  0.52047300  0.23098800  1
  O  O36  1  0.86788600  0.66093300  0.10071900  1
  O  O37  1  0.06689300  0.08185800  0.56508600  1
  O  O38  1  0.69881800  0.01455900  0.60100900  1
  O  O39  1  0.07076700  0.40765700  0.24009700  1
  O  O40  1  0.69442600  0.33526800  0.26654400  1
  O  O41  1  0.63724800  0.14117000  0.41432900  1
  O  O42  1  0.63735400  0.47857300  0.07986500  1
  O  O43  1  0.36924500  0.18188800  0.24977800  1
  O  O44  1  0.30890700  0.33014600  0.06581900  1
  O  O45  1  0.93209200  0.25899700  0.09349000  1
  O  O46  1  0.63330600  0.16000900  0.09731000  1
  O  O47  1  0.12862400  0.00784700  0.23325300  1
loop_
_geom_bond_atom_site_label_1
_geom_bond_atom_site_label_2
_geom_bond_distance
_geom_bond_site_symmetry_2
Li0 O2 1.977786 1_655
Li0 O8 2.001190 1_555
Li0 O3 2.001526 1_555
Li0 O0 2.098040 1_555
Li0 O4 2.137117 1_555
Li1 O10 1.966293 1_455
Li1 O37 2.007093 1_565
Li1 O9 2.017244 1_555
Li1 O14 2.084501 1_555
Li1 O6 2.174189 1_555
Li2 O15 1.889176 1_555
Li2 O28 1.920060 1_555
Li2 O16 2.015732 1_555
Li2 O20 2.166596 1_555
Li2 O12 2.222001 1_555
Li3 O17 1.875879 1_555
Li3 O30 1.952759 1_555
Li3 O18 2.028625 1_555
Li3 O13 2.140191 1_555
Li3 O22 2.263863 1_555
Li4 O19 1.978379 1_555
Li4 O32 2.014225 1_555
Li4 O21 2.035667 1_555
Li4 O46 2.074133 1_565
Li4 O23 2.098703 1_555
Li5 O28 1.874135 1_555
Li5 O15 1.932279 1_555
Li5 O26 2.029560 1_555
Li5 O1 2.218946 1_545
Li5 O24 2.244600 1_555
Li6 O30 1.896316 1_555
Li6 O17 1.919290 1_555
Li6 O29 2.058573 1_555
Li6 O33 2.155349 1_555
Li6 O25 2.204211 1_555
Li7 O39 1.902652 1_655
Li7 O45 1.911627 1_555
Li7 O40 2.038731 1_555
Li7 O36 2.172121 1_555
Li7 O42 2.218340 1_555
Li8 O45 1.873747 1_455
Li8 O39 1.943597 1_555
Li8 O44 2.039295 1_555
Li8 O47 2.154395 1_555
Li8 O43 2.253895 1_555
O0 P1 1.560478 1_555
O0 V3 2.033013 1_565
O1 P0 1.538235 1_555
O1 V0 2.095999 1_555
O2 P0 1.564045 1_555
O2 V2 1.924762 1_555
O3 P9 1.555844 1_556
O3 V0 2.008410 1_555
O4 P1 1.541754 1_555
O4 V0 1.992232 1_555
O5 P2 1.581535 1_555
O5 V0 2.050739 1_555
O5 V2 2.094284 1_555
O6 P3 1.557402 1_555
O6 V1 1.960714 1_555
O7 P3 1.619799 1_555
O7 V2 1.941491 1_555
O7 V0 2.150479 1_555
O8 P4 1.557124 1_555
O8 V2 1.926300 1_655
O9 P10 1.547193 1_565
O9 V1 2.038703 1_555
O10 P5 1.579763 1_555
O10 V7 1.900546 1_565
O11 P2 1.620875 1_555
O11 V2 1.986356 1_555
O11 V3 2.238527 1_455
O12 P4 1.554265 1_555
O12 V0 2.026948 1_555
O13 P5 1.539553 1_555
O13 V1 2.126683 1_555
O14 P3 1.552349 1_555
O14 V4 2.073808 1_555
O15 P2 1.491002 1_555
O16 P11 1.566820 1_556
O16 V3 1.987309 1_555
O17 P3 1.496575 1_555
O18 P4 1.547459 1_555
O18 V4 2.029633 1_655
O19 P10 1.578685 1_565
O19 V6 1.899808 1_555
O20 P4 1.542215 1_555
O20 V3 1.986927 1_555
O21 P5 1.543616 1_555
O21 V5 2.024981 1_555
O22 P5 1.547309 1_555
O22 V4 1.966222 1_655
O23 P11 1.575473 1_565
O23 V5 1.909770 1_555
O24 P0 1.527205 1_545
O24 V3 2.035745 1_455
O25 P6 1.556654 1_555
O25 V4 1.947665 1_555
O26 P6 1.551211 1_555
O26 V3 2.038741 1_455
O27 P7 1.595551 1_555
O27 V5 2.003182 1_455
O27 V6 2.083779 1_555
O28 P1 1.494941 1_545
O29 P7 1.535667 1_555
O29 V4 2.063486 1_555
O30 P8 1.493625 1_555
O31 P0 1.592456 1_554
O31 V6 1.958594 1_555
O31 V5 2.228863 1_455
O32 P9 1.552755 1_555
O32 V6 1.934605 1_555
O33 P6 1.541641 1_555
O33 V1 2.110821 1_545
O34 P8 1.617726 1_555
O34 V7 1.980138 1_555
O34 V4 2.289090 1_655
O35 P7 1.615659 1_555
O35 V6 1.976053 1_555
O35 V8 2.302510 1_555
O36 P9 1.543368 1_555
O36 V5 2.101530 1_555
O37 P6 1.557689 1_555
O37 V7 1.931706 1_455
O38 P1 1.622393 1_545
O38 V7 1.910680 1_555
O38 V1 2.153060 1_545
O39 P7 1.492808 1_555
O40 P8 1.537617 1_555
O40 V8 2.053135 1_555
O41 P8 1.588950 1_555
O41 V1 2.024368 1_545
O41 V7 2.096178 1_555
O42 P9 1.549243 1_555
O42 V8 1.962539 1_555
O43 P10 1.546237 1_555
O43 V8 1.981788 1_555
O44 P2 1.540713 1_554
O44 V8 2.046514 1_555
O45 P11 1.504367 1_555
O46 P11 1.566619 1_555
O46 V8 2.043457 1_555
O47 P10 1.541950 1_555
O47 V5 2.123174 1_445
