# generated using pymatgen
data_MgTe2Mo2W2(Se2S)2
_symmetry_space_group_name_H-M   'P 1'
_cell_length_a   6.67169400
_cell_length_b   6.67157865
_cell_length_c   74.13593806
_cell_angle_alpha   90.00243205
_cell_angle_beta   90.00204576
_cell_angle_gamma   119.99820670
_symmetry_Int_Tables_number   1
_chemical_formula_structural   MgTe2Mo2W2(Se2S)2
_chemical_formula_sum   'Mg8 Te16 Mo16 W16 Se32 S16'
_cell_volume   2857.80107075
_cell_formula_units_Z   8
loop_
 _symmetry_equiv_pos_site_id
 _symmetry_equiv_pos_as_xyz
  1  'x, y, z'
loop_
 _atom_site_type_symbol
 _atom_site_label
 _atom_site_symmetry_multiplicity
 _atom_site_fract_x
 _atom_site_fract_y
 _atom_site_fract_z
 _atom_site_occupancy
  Mg  Mg0_0  1  0.16822700  0.30278900  0.43382700  1
  Mg  Mg0_1  1  0.16822700  0.30278900  0.93382700  1
  Mg  Mg0_2  1  0.16822700  0.80278900  0.43382700  1
  Mg  Mg0_3  1  0.16822700  0.80278900  0.93382700  1
  Mg  Mg0_4  1  0.66822700  0.30278900  0.43382700  1
  Mg  Mg0_5  1  0.66822700  0.30278900  0.93382700  1
  Mg  Mg0_6  1  0.66822700  0.80278900  0.43382700  1
  Mg  Mg0_7  1  0.66822700  0.80278900  0.93382700  1
  Te  Te0_0  1  0.33323550  0.16650150  0.02124550  1
  Te  Te0_1  1  0.33323550  0.16650150  0.52124550  1
  Te  Te0_2  1  0.33323550  0.66650150  0.02124550  1
  Te  Te0_3  1  0.33323550  0.66650150  0.52124550  1
  Te  Te0_4  1  0.83323550  0.16650150  0.02124550  1
  Te  Te0_5  1  0.83323550  0.16650150  0.52124550  1
  Te  Te0_6  1  0.83323550  0.66650150  0.02124550  1
  Te  Te0_7  1  0.83323550  0.66650150  0.52124550  1
  Te  Te1_0  1  0.33329350  0.16658250  0.07243600  1
  Te  Te1_1  1  0.33329350  0.16658250  0.57243600  1
  Te  Te1_2  1  0.33329350  0.66658250  0.07243600  1
  Te  Te1_3  1  0.33329350  0.66658250  0.57243600  1
  Te  Te1_4  1  0.83329350  0.16658250  0.07243600  1
  Te  Te1_5  1  0.83329350  0.16658250  0.57243600  1
  Te  Te1_6  1  0.83329350  0.66658250  0.07243600  1
  Te  Te1_7  1  0.83329350  0.66658250  0.57243600  1
  Mo  Mo0_0  1  0.16659350  0.33321450  0.04681850  1
  Mo  Mo0_1  1  0.16659350  0.33321450  0.54681850  1
  Mo  Mo0_2  1  0.16659350  0.83321450  0.04681850  1
  Mo  Mo0_3  1  0.16659350  0.83321450  0.54681850  1
  Mo  Mo0_4  1  0.66659350  0.33321450  0.04681850  1
  Mo  Mo0_5  1  0.66659350  0.33321450  0.54681850  1
  Mo  Mo0_6  1  0.66659350  0.83321450  0.04681850  1
  Mo  Mo0_7  1  0.66659350  0.83321450  0.54681850  1
  Mo  Mo1_0  1  0.33335400  0.16658100  0.14100500  1
  Mo  Mo1_1  1  0.33335400  0.16658100  0.64100500  1
  Mo  Mo1_2  1  0.33335400  0.66658100  0.14100500  1
  Mo  Mo1_3  1  0.33335400  0.66658100  0.64100500  1
  Mo  Mo1_4  1  0.83335400  0.16658100  0.14100500  1
  Mo  Mo1_5  1  0.83335400  0.16658100  0.64100500  1
  Mo  Mo1_6  1  0.83335400  0.66658100  0.14100500  1
  Mo  Mo1_7  1  0.83335400  0.66658100  0.64100500  1
  W  W0_0  1  0.16661450  0.33327500  0.23481850  1
  W  W0_1  1  0.16661450  0.33327500  0.73481850  1
  W  W0_2  1  0.16661450  0.83327500  0.23481850  1
  W  W0_3  1  0.16661450  0.83327500  0.73481850  1
  W  W0_4  1  0.66661450  0.33327500  0.23481850  1
  W  W0_5  1  0.66661450  0.33327500  0.73481850  1
  W  W0_6  1  0.66661450  0.83327500  0.23481850  1
  W  W0_7  1  0.66661450  0.83327500  0.73481850  1
  W  W1_0  1  0.33322250  0.16655400  0.32894100  1
  W  W1_1  1  0.33322250  0.16655400  0.82894100  1
  W  W1_2  1  0.33322250  0.66655400  0.32894100  1
  W  W1_3  1  0.33322250  0.66655400  0.82894100  1
  W  W1_4  1  0.83322250  0.16655400  0.32894100  1
  W  W1_5  1  0.83322250  0.16655400  0.82894100  1
  W  W1_6  1  0.83322250  0.66655400  0.32894100  1
  W  W1_7  1  0.83322250  0.66655400  0.82894100  1
  Se  Se0_0  1  0.16660100  0.33327500  0.35155000  1
  Se  Se0_1  1  0.16660100  0.33327500  0.85155000  1
  Se  Se0_2  1  0.16660100  0.83327500  0.35155000  1
  Se  Se0_3  1  0.16660100  0.83327500  0.85155000  1
  Se  Se0_4  1  0.66660100  0.33327500  0.35155000  1
  Se  Se0_5  1  0.66660100  0.33327500  0.85155000  1
  Se  Se0_6  1  0.66660100  0.83327500  0.35155000  1
  Se  Se0_7  1  0.66660100  0.83327500  0.85155000  1
  Se  Se1_0  1  0.33326800  0.16660000  0.21218550  1
  Se  Se1_1  1  0.33326800  0.16660000  0.71218550  1
  Se  Se1_2  1  0.33326800  0.66660000  0.21218550  1
  Se  Se1_3  1  0.33326800  0.66660000  0.71218550  1
  Se  Se1_4  1  0.83326800  0.16660000  0.21218550  1
  Se  Se1_5  1  0.83326800  0.16660000  0.71218550  1
  Se  Se1_6  1  0.83326800  0.66660000  0.21218550  1
  Se  Se1_7  1  0.83326800  0.66660000  0.71218550  1
  Se  Se2_0  1  0.33330450  0.16661750  0.25742300  1
  Se  Se2_1  1  0.33330450  0.16661750  0.75742300  1
  Se  Se2_2  1  0.33330450  0.66661750  0.25742300  1
  Se  Se2_3  1  0.33330450  0.66661750  0.75742300  1
  Se  Se2_4  1  0.83330450  0.16661750  0.25742300  1
  Se  Se2_5  1  0.83330450  0.16661750  0.75742300  1
  Se  Se2_6  1  0.83330450  0.66661750  0.25742300  1
  Se  Se2_7  1  0.83330450  0.66661750  0.75742300  1
  Se  Se3_0  1  0.16650950  0.33317400  0.30629550  1
  Se  Se3_1  1  0.16650950  0.33317400  0.80629550  1
  Se  Se3_2  1  0.16650950  0.83317400  0.30629550  1
  Se  Se3_3  1  0.16650950  0.83317400  0.80629550  1
  Se  Se3_4  1  0.66650950  0.33317400  0.30629550  1
  Se  Se3_5  1  0.66650950  0.33317400  0.80629550  1
  Se  Se3_6  1  0.66650950  0.83317400  0.30629550  1
  Se  Se3_7  1  0.66650950  0.83317400  0.80629550  1
  S  S0_0  1  0.16669050  0.33324600  0.16146250  1
  S  S0_1  1  0.16669050  0.33324600  0.66146250  1
  S  S0_2  1  0.16669050  0.83324600  0.16146250  1
  S  S0_3  1  0.16669050  0.83324600  0.66146250  1
  S  S0_4  1  0.66669050  0.33324600  0.16146250  1
  S  S0_5  1  0.66669050  0.33324600  0.66146250  1
  S  S0_6  1  0.66669050  0.83324600  0.16146250  1
  S  S0_7  1  0.66669050  0.83324600  0.66146250  1
  S  S1_0  1  0.16664150  0.33321700  0.12052100  1
  S  S1_1  1  0.16664150  0.33321700  0.62052100  1
  S  S1_2  1  0.16664150  0.83321700  0.12052100  1
  S  S1_3  1  0.16664150  0.83321700  0.62052100  1
  S  S1_4  1  0.66664150  0.33321700  0.12052100  1
  S  S1_5  1  0.66664150  0.33321700  0.62052100  1
  S  S1_6  1  0.66664150  0.83321700  0.12052100  1
  S  S1_7  1  0.66664150  0.83321700  0.62052100  1
loop_
_geom_bond_atom_site_label_1
_geom_bond_atom_site_label_2
_geom_bond_distance
_geom_bond_site_symmetry_2
Mg0_0 Mg0_2 3.335789 1_555
Mg0_0 Mg0_2 3.335789 1_545
Mg0_0 Mg0_4 3.335847 1_455
Mg0_0 Mg0_4 3.335847 1_555
Mg0_0 Mg0_6 3.335909 1_555
Mg0_0 Mg0_6 3.335909 1_445
Mg0_1 Mg0_3 3.335789 1_555
Mg0_1 Mg0_3 3.335789 1_545
Mg0_1 Mg0_5 3.335847 1_555
Mg0_1 Mg0_5 3.335847 1_455
Mg0_1 Mg0_7 3.335909 1_555
Mg0_1 Mg0_7 3.335909 1_445
Mg0_2 Mg0_6 3.335847 1_555
Mg0_2 Mg0_6 3.335847 1_455
Mg0_2 Mg0_4 3.335909 1_455
Mg0_2 Mg0_4 3.335909 1_565
Mg0_3 Mg0_7 3.335847 1_455
Mg0_3 Mg0_7 3.335847 1_555
Mg0_3 Mg0_5 3.335909 1_455
Mg0_3 Mg0_5 3.335909 1_565
Mg0_4 Mg0_6 3.335789 1_545
Mg0_4 Mg0_6 3.335789 1_555
Mg0_5 Mg0_7 3.335789 1_555
Mg0_5 Mg0_7 3.335789 1_545
Mo0_0 Te0_2 2.702430 1_555
Mo0_0 Te0_4 2.702563 1_455
Mo0_0 Te0_0 2.702586 1_555
Mo0_0 Te1_0 2.704817 1_555
Mo0_0 Te1_4 2.704818 1_455
Mo0_0 Te1_2 2.704891 1_555
Mo0_1 Te0_3 2.702430 1_555
Mo0_1 Te0_5 2.702563 1_455
Mo0_1 Te0_1 2.702586 1_555
Mo0_1 Te1_1 2.704817 1_555
Mo0_1 Te1_5 2.704818 1_455
Mo0_1 Te1_3 2.704891 1_555
Mo0_2 Te0_0 2.702430 1_565
Mo0_2 Te0_6 2.702563 1_455
Mo0_2 Te0_2 2.702586 1_555
Mo0_2 Te1_2 2.704817 1_555
Mo0_2 Te1_6 2.704818 1_455
Mo0_2 Te1_0 2.704891 1_565
Mo0_3 Te0_1 2.702430 1_565
Mo0_3 Te0_7 2.702563 1_455
Mo0_3 Te0_3 2.702586 1_555
Mo0_3 Te1_3 2.704817 1_555
Mo0_3 Te1_7 2.704818 1_455
Mo0_3 Te1_1 2.704891 1_565
Mo0_4 Te0_6 2.702430 1_555
Mo0_4 Te0_0 2.702563 1_555
Mo0_4 Te0_4 2.702586 1_555
Mo0_4 Te1_4 2.704817 1_555
Mo0_4 Te1_0 2.704818 1_555
Mo0_4 Te1_6 2.704891 1_555
Mo0_5 Te0_7 2.702430 1_555
Mo0_5 Te0_1 2.702563 1_555
Mo0_5 Te0_5 2.702586 1_555
Mo0_5 Te1_5 2.704817 1_555
Mo0_5 Te1_1 2.704818 1_555
Mo0_5 Te1_7 2.704891 1_555
Mo0_6 Te0_4 2.702430 1_565
Mo0_6 Te0_2 2.702563 1_555
Mo0_6 Te0_6 2.702586 1_555
Mo0_6 Te1_6 2.704817 1_555
Mo0_6 Te1_2 2.704818 1_555
Mo0_6 Te1_4 2.704891 1_565
Mo0_7 Te0_5 2.702430 1_565
Mo0_7 Te0_3 2.702563 1_555
Mo0_7 Te0_7 2.702586 1_555
Mo0_7 Te1_7 2.704817 1_555
Mo0_7 Te1_3 2.704818 1_555
Mo0_7 Te1_5 2.704891 1_565
Mo1_0 S0_0 2.451370 1_555
Mo1_0 S0_4 2.451387 1_555
Mo1_0 S0_2 2.451515 1_545
Mo1_0 S1_4 2.452537 1_555
Mo1_0 S1_0 2.452686 1_555
Mo1_0 S1_2 2.452697 1_545
Mo1_1 S0_1 2.451370 1_555
Mo1_1 S0_5 2.451387 1_555
Mo1_1 S0_3 2.451515 1_545
Mo1_1 S1_5 2.452537 1_555
Mo1_1 S1_1 2.452686 1_555
Mo1_1 S1_3 2.452697 1_545
Mo1_2 S0_2 2.451370 1_555
Mo1_2 S0_6 2.451387 1_555
Mo1_2 S0_0 2.451515 1_555
Mo1_2 S1_6 2.452537 1_555
Mo1_2 S1_2 2.452686 1_555
Mo1_2 S1_0 2.452697 1_555
Mo1_3 S0_3 2.451370 1_555
Mo1_3 S0_7 2.451387 1_555
Mo1_3 S0_1 2.451515 1_555
Mo1_3 S1_7 2.452537 1_555
Mo1_3 S1_3 2.452686 1_555
Mo1_3 S1_1 2.452697 1_555
Mo1_4 S0_4 2.451370 1_555
Mo1_4 S0_0 2.451387 1_655
Mo1_4 S0_6 2.451515 1_545
Mo1_4 S1_0 2.452537 1_655
Mo1_4 S1_4 2.452686 1_555
Mo1_4 S1_6 2.452697 1_545
Mo1_5 S0_5 2.451370 1_555
Mo1_5 S0_1 2.451387 1_655
Mo1_5 S0_7 2.451515 1_545
Mo1_5 S1_1 2.452537 1_655
Mo1_5 S1_5 2.452686 1_555
Mo1_5 S1_7 2.452697 1_545
Mo1_6 S0_6 2.451370 1_555
Mo1_6 S0_2 2.451387 1_655
Mo1_6 S0_4 2.451515 1_555
Mo1_6 S1_2 2.452537 1_655
Mo1_6 S1_6 2.452686 1_555
Mo1_6 S1_4 2.452697 1_555
Mo1_7 S0_7 2.451370 1_555
Mo1_7 S0_3 2.451387 1_655
Mo1_7 S0_5 2.451515 1_555
Mo1_7 S1_3 2.452537 1_655
Mo1_7 S1_7 2.452686 1_555
Mo1_7 S1_5 2.452697 1_555
Se0_0 W1_2 2.553034 1_555
Se0_0 W1_0 2.553191 1_555
Se0_0 W1_4 2.553321 1_455
Se0_1 W1_3 2.553034 1_555
Se0_1 W1_1 2.553191 1_555
Se0_1 W1_5 2.553321 1_455
Se0_2 W1_0 2.553034 1_565
Se0_2 W1_2 2.553191 1_555
Se0_2 W1_6 2.553321 1_455
Se0_3 W1_1 2.553034 1_565
Se0_3 W1_3 2.553191 1_555
Se0_3 W1_7 2.553321 1_455
Se0_4 W1_6 2.553034 1_555
Se0_4 W1_4 2.553191 1_555
Se0_4 W1_0 2.553321 1_555
Se0_5 W1_7 2.553034 1_555
Se0_5 W1_5 2.553191 1_555
Se0_5 W1_1 2.553321 1_555
Se0_6 W1_4 2.553034 1_565
Se0_6 W1_6 2.553191 1_555
Se0_6 W1_2 2.553321 1_555
Se0_7 W1_5 2.553034 1_565
Se0_7 W1_7 2.553191 1_555
Se0_7 W1_3 2.553321 1_555
Se1_0 W0_0 2.554298 1_555
Se1_0 W0_4 2.554350 1_555
Se1_0 W0_2 2.554403 1_545
Se1_1 W0_1 2.554298 1_555
Se1_1 W0_5 2.554350 1_555
Se1_1 W0_3 2.554403 1_545
Se1_2 W0_2 2.554298 1_555
Se1_2 W0_6 2.554350 1_555
Se1_2 W0_0 2.554403 1_555
Se1_3 W0_3 2.554298 1_555
Se1_3 W0_7 2.554350 1_555
Se1_3 W0_1 2.554403 1_555
Se1_4 W0_4 2.554298 1_555
Se1_4 W0_0 2.554350 1_655
Se1_4 W0_6 2.554403 1_545
Se1_5 W0_5 2.554298 1_555
Se1_5 W0_1 2.554350 1_655
Se1_5 W0_7 2.554403 1_545
Se1_6 W0_6 2.554298 1_555
Se1_6 W0_2 2.554350 1_655
Se1_6 W0_4 2.554403 1_555
Se1_7 W0_7 2.554298 1_555
Se1_7 W0_3 2.554350 1_655
Se1_7 W0_5 2.554403 1_555
Se2_0 W0_2 2.552915 1_545
Se2_0 W0_4 2.552970 1_555
Se2_0 W0_0 2.553003 1_555
Se2_1 W0_3 2.552915 1_545
Se2_1 W0_5 2.552970 1_555
Se2_1 W0_1 2.553003 1_555
Se2_2 W0_0 2.552915 1_555
Se2_2 W0_6 2.552970 1_555
Se2_2 W0_2 2.553003 1_555
Se2_3 W0_1 2.552915 1_555
Se2_3 W0_7 2.552970 1_555
Se2_3 W0_3 2.553003 1_555
Se2_4 W0_6 2.552915 1_545
Se2_4 W0_0 2.552970 1_655
Se2_4 W0_4 2.553003 1_555
Se2_5 W0_7 2.552915 1_545
Se2_5 W0_1 2.552970 1_655
Se2_5 W0_5 2.553003 1_555
Se2_6 W0_4 2.552915 1_555
Se2_6 W0_2 2.552970 1_655
Se2_6 W0_6 2.553003 1_555
Se2_7 W0_5 2.552915 1_555
Se2_7 W0_3 2.552970 1_655
Se2_7 W0_7 2.553003 1_555
Se3_0 W1_4 2.554866 1_455
Se3_0 W1_0 2.554936 1_555
Se3_0 W1_2 2.555075 1_555
Se3_1 W1_5 2.554866 1_455
Se3_1 W1_1 2.554936 1_555
Se3_1 W1_3 2.555075 1_555
Se3_2 W1_6 2.554866 1_455
Se3_2 W1_2 2.554936 1_555
Se3_2 W1_0 2.555075 1_565
Se3_3 W1_7 2.554866 1_455
Se3_3 W1_3 2.554936 1_555
Se3_3 W1_1 2.555075 1_565
Se3_4 W1_0 2.554866 1_555
Se3_4 W1_4 2.554936 1_555
Se3_4 W1_6 2.555075 1_555
Se3_5 W1_1 2.554866 1_555
Se3_5 W1_5 2.554936 1_555
Se3_5 W1_7 2.555075 1_555
Se3_6 W1_2 2.554866 1_555
Se3_6 W1_6 2.554936 1_555
Se3_6 W1_4 2.555075 1_565
Se3_7 W1_3 2.554866 1_555
Se3_7 W1_7 2.554936 1_555
Se3_7 W1_5 2.555075 1_565
