# generated using pymatgen
data_Mg(WO3)4
_symmetry_space_group_name_H-M   'P 1'
_cell_length_a   3.90593629
_cell_length_b   7.63245589
_cell_length_c   7.73552628
_cell_angle_alpha   89.88586151
_cell_angle_beta   89.84577740
_cell_angle_gamma   91.37608730
_symmetry_Int_Tables_number   1
_chemical_formula_structural   Mg(WO3)4
_chemical_formula_sum   'Mg1 W4 O12'
_cell_volume   230.54279971
_cell_formula_units_Z   1
loop_
 _symmetry_equiv_pos_site_id
 _symmetry_equiv_pos_as_xyz
  1  'x, y, z'
loop_
 _atom_site_type_symbol
 _atom_site_label
 _atom_site_symmetry_multiplicity
 _atom_site_fract_x
 _atom_site_fract_y
 _atom_site_fract_z
 _atom_site_occupancy
  Mg  Mg0  1  0.44769500  0.54840200  0.74458700  1
  W  W0  1  0.00459400  0.25825300  0.00651700  1
  W  W1  1  0.97985800  0.75142300  0.49819500  1
  W  W2  1  0.97804500  0.76119100  0.00437000  1
  W  W3  1  0.03241700  0.25142800  0.49829600  1
  O  O0  1  0.99160000  0.49907000  0.44954300  1
  O  O1  1  0.00367500  0.99831200  0.94744300  1
  O  O2  1  0.00439100  0.99118200  0.54297600  1
  O  O3  1  0.00702400  0.50039400  0.05121500  1
  O  O4  1  0.48509900  0.73189500  0.97831100  1
  O  O5  1  0.97862100  0.79731200  0.23929400  1
  O  O6  1  0.52185300  0.24791000  0.50903600  1
  O  O7  1  0.48225600  0.71433800  0.53465200  1
  O  O8  1  0.02794800  0.20043400  0.24042300  1
  O  O9  1  0.97113800  0.67411400  0.75878900  1
  O  O10  1  0.06250500  0.32261600  0.75636300  1
  O  O11  1  0.52128400  0.25172300  0.98999000  1
loop_
_geom_bond_atom_site_label_1
_geom_bond_atom_site_label_2
_geom_bond_distance
_geom_bond_site_symmetry_2
Mg0 O7 2.059586 1_555
Mg0 O9 2.117217 1_455
Mg0 O9 2.240586 1_555
Mg0 O10 2.261808 1_555
Mg0 O4 2.291990 1_555
O0 W3 1.937045 1_655
O0 W1 1.964825 1_555
O1 W2 1.862057 1_456
O1 W0 2.036743 1_566
O2 W1 1.863378 1_455
O2 W3 2.015814 1_565
O3 W0 1.880678 1_555
O3 W2 2.028415 1_455
O4 W2 1.944080 1_556
O4 W2 2.008082 1_456
O5 W2 1.838596 1_555
O5 W1 2.032482 1_555
O6 W3 1.914564 1_555
O6 W3 1.995271 1_655
O7 W1 1.976751 1_555
O7 W1 2.009912 1_455
O8 W0 1.864561 1_555
O8 W3 2.033200 1_555
O9 W2 2.013885 1_556
O9 W1 2.099245 1_555
O10 W0 2.006369 1_556
O10 W3 2.072847 1_555
O11 W0 1.891914 1_656
O11 W0 2.023674 1_556
