# generated using pymatgen
data_Na2La3Nb5Si6(SO8)6
_symmetry_space_group_name_H-M   'P 1'
_cell_length_a   18.22797551
_cell_length_b   9.12733665
_cell_length_c   23.73947119
_cell_angle_alpha   89.73635044
_cell_angle_beta   90.05688643
_cell_angle_gamma   120.21119546
_symmetry_Int_Tables_number   1
_chemical_formula_structural   Na2La3Nb5Si6(SO8)6
_chemical_formula_sum   'Na6 La9 Nb15 Si18 S18 O144'
_cell_volume   3413.11475238
_cell_formula_units_Z   3
loop_
 _symmetry_equiv_pos_site_id
 _symmetry_equiv_pos_as_xyz
  1  'x, y, z'
loop_
 _atom_site_type_symbol
 _atom_site_label
 _atom_site_symmetry_multiplicity
 _atom_site_fract_x
 _atom_site_fract_y
 _atom_site_fract_z
 _atom_site_occupancy
  Na  Na0  1  0.98849801  0.95282495  0.50162435  1
  Na  Na1  1  0.50389086  0.99787024  0.99866158  1
  Na  Na2  1  0.33984859  0.29991382  0.83678714  1
  Na  Na3  1  0.83507337  0.34652938  0.83475472  1
  Na  Na4  1  0.31853521  0.30027007  0.33608076  1
  Na  Na5  1  0.83657703  0.34880046  0.34594539  1
  La  La0  1  0.00788593  -0.00006497  0.35334724  1
  La  La1  1  0.50225655  0.02601676  0.85096827  1
  La  La2  1  0.99857449  0.00587137  0.65864392  1
  La  La3  1  0.48859032  0.97012945  0.14869221  1
  La  La4  1  0.33488738  0.33522808  0.97358409  1
  La  La5  1  0.84076003  0.33276088  0.97457822  1
  La  La6  1  0.33827175  0.34359230  0.48001952  1
  La  La7  1  0.82855376  0.34188325  0.48126955  1
  La  La8  1  0.67582541  0.66636382  0.30471546  1
  Nb  Nb0  1  0.49004759  0.99103614  0.36174356  1
  Nb  Nb1  1  0.00582128  0.01005236  0.86289624  1
  Nb  Nb2  1  0.49841172  0.00127721  0.64956974  1
  Nb  Nb3  1  0.00742742  0.02346432  0.15189915  1
  Nb  Nb4  1  0.32219239  0.33271314  0.68890145  1
  Nb  Nb5  1  0.82639301  0.32729812  0.67691853  1
  Nb  Nb6  1  0.33943959  0.35847647  0.18895064  1
  Nb  Nb7  1  0.83441784  0.31793379  0.18158173  1
  Nb  Nb8  1  0.15549921  0.66493245  0.01650152  1
  Nb  Nb9  1  0.67204821  0.66717702  0.02236631  1
  Nb  Nb10  1  0.17607924  0.68214736  0.51954722  1
  Nb  Nb11  1  0.66772606  0.65222828  0.52579930  1
  Nb  Nb12  1  0.16201413  0.68009162  0.30549597  1
  Nb  Nb13  1  0.16850026  0.67330325  0.80749019  1
  Nb  Nb14  1  0.66452818  0.64110487  0.81118709  1
  Si  Si0  1  0.15263608  0.01207270  0.24578793  1
  Si  Si1  1  0.35058712  0.70209063  0.25760999  1
  Si  Si2  1  0.99666599  0.29212116  0.25340972  1
  Si  Si3  1  0.14730888  0.29439933  0.75592205  1
  Si  Si4  1  0.65058412  0.29204174  0.74769515  1
  Si  Si5  1  0.35335331  0.00894712  0.74791742  1
  Si  Si6  1  0.67834232  0.02251093  0.58309791  1
  Si  Si7  1  0.33355575  0.62970122  0.58553992  1
  Si  Si8  1  0.83672806  0.64020536  0.58099562  1
  Si  Si9  1  0.48679324  0.62268610  0.08009843  1
  Si  Si10  1  0.83768719  0.03506648  0.08277408  1
  Si  Si11  1  0.81006157  0.67287828  0.91336747  1
  Si  Si12  1  0.02937818  0.38369742  0.91137011  1
  Si  Si13  1  0.52843747  0.38499764  0.91842353  1
  Si  Si14  1  0.16227760  0.94364705  0.90999146  1
  Si  Si15  1  0.30334430  0.94986234  0.41082876  1
  Si  Si16  1  0.65840559  0.36833497  0.41534032  1
  Si  Si17  1  0.02827378  0.66660151  0.41644557  1
  S  S0  1  0.65741677  0.03628899  0.25154110  1
  S  S1  1  0.86042401  0.69666241  0.23929036  1
  S  S2  1  0.48543166  0.27878987  0.25105830  1
  S  S3  1  0.99477435  0.68620407  0.75465642  1
  S  S4  1  0.49680075  0.69417863  0.74810899  1
  S  S5  1  0.84649723  0.00970059  0.75677685  1
  S  S6  1  0.48201901  0.32953855  0.58656721  1
  S  S7  1  0.98874120  0.35352660  0.58443507  1
  S  S8  1  0.18745155  0.02892756  0.58459026  1
  S  S9  1  0.98341071  0.63694918  0.08540901  1
  S  S10  1  0.32072614  0.02006970  0.08040190  1
  S  S11  1  0.18710495  0.34394263  0.08657035  1
  S  S12  1  0.69155093  0.34643570  0.08344812  1
  S  S13  1  0.30255614  0.67766560  0.91811445  1
  S  S14  1  0.66170880  0.93056772  0.91679546  1
  S  S15  1  0.81196595  0.93958015  0.42444891  1
  S  S16  1  0.16404761  0.39255288  0.41843854  1
  S  S17  1  0.52592412  0.68564402  0.41364336  1
  O  O0  1  0.12664423  0.06903410  0.30241851  1
  O  O1  1  0.61557915  0.05920755  0.30090396  1
  O  O2  1  0.42473094  0.80750839  0.30619464  1
  O  O3  1  0.89902912  0.74664365  0.29515587  1
  O  O4  1  0.47559313  0.17127619  0.30090566  1
  O  O5  1  0.96309642  0.16703561  0.30585342  1
  O  O6  1  0.09296678  0.15079231  0.80539296  1
  O  O7  1  0.62580347  0.19001371  0.80585868  1
  O  O8  1  0.47234405  0.74614076  0.79971456  1
  O  O9  1  0.98274348  0.77484685  0.80262753  1
  O  O10  1  0.40619214  0.07043774  0.80543261  1
  O  O11  1  0.90759328  0.03658350  0.80254410  1
  O  O12  1  0.40695666  0.97986113  0.69825980  1
  O  O13  1  0.87063843  0.96081129  0.70415231  1
  O  O14  1  0.09959591  0.24327233  0.69735913  1
  O  O15  1  0.58191590  0.18700619  0.69826214  1
  O  O16  1  0.01395085  0.78270345  0.70199851  1
  O  O17  1  0.50975853  0.80789876  0.70019214  1
  O  O18  1  0.37694243  0.79951399  0.19887004  1
  O  O19  1  0.91508981  0.81584849  0.19498183  1
  O  O20  1  0.01111628  0.18906015  0.19954996  1
  O  O21  1  0.49973894  0.21336579  0.19894116  1
  O  O22  1  0.08626846  0.98537696  0.19444564  1
  O  O23  1  0.61125135  0.01250372  0.19902596  1
  O  O24  1  0.43838183  0.35877108  0.63360721  1
  O  O25  1  0.94022313  0.36450905  0.63534824  1
  O  O26  1  0.24050958  0.12431250  0.63491292  1
  O  O27  1  0.75339279  0.13370402  0.63605442  1
  O  O28  1  0.31533050  0.49070960  0.63885078  1
  O  O29  1  0.82784822  0.50233835  0.63322722  1
  O  O30  1  0.43113636  0.50213402  0.13896716  1
  O  O31  1  0.93893105  0.51138802  0.13205801  1
  O  O32  1  0.31241749  0.10415098  0.13086861  1
  O  O33  1  0.81694325  0.13737569  0.13665946  1
  O  O34  1  0.24593186  0.37382705  0.13517575  1
  O  O35  1  0.74600972  0.35926028  0.13364697  1
  O  O36  1  0.21391525  0.29409893  0.03619389  1
  O  O37  1  0.72678032  0.31577252  0.03242800  1
  O  O38  1  0.42282356  0.53468886  0.02925839  1
  O  O39  1  0.93389342  0.58301669  0.03347619  1
  O  O40  1  0.32992508  0.11655206  0.02875365  1
  O  O41  1  0.86785992  0.16648212  0.03207029  1
  O  O42  1  0.22359166  0.12873217  0.53304474  1
  O  O43  1  0.71213529  0.14580577  0.53087815  1
  O  O44  1  0.35860109  0.56066568  0.53156328  1
  O  O45  1  0.85633193  0.58223223  0.52335564  1
  O  O46  1  0.43357592  0.28568502  0.53403917  1
  O  O47  1  0.93755736  0.32050605  0.53374767  1
  O  O48  1  0.25231734  0.67506074  0.97030528  1
  O  O49  1  0.76484642  0.69125575  0.97061415  1
  O  O50  1  0.07706365  0.47522993  0.97366897  1
  O  O51  1  0.58920838  0.50276544  0.97080210  1
  O  O52  1  0.15348854  0.83007188  0.97030121  1
  O  O53  1  0.66750259  0.85190949  0.97094841  1
  O  O54  1  0.26334394  0.84749106  0.47194503  1
  O  O55  1  0.75465993  0.83453188  0.47328129  1
  O  O56  1  0.17147823  0.48731482  0.47267041  1
  O  O57  1  0.65060391  0.47244772  0.47243233  1
  O  O58  1  0.08769781  0.66901469  0.47265689  1
  O  O59  1  0.56840376  0.69037604  0.46671552  1
  O  O60  1  0.08052643  0.67553752  0.35736413  1
  O  O61  1  0.57076228  0.67972565  0.36319510  1
  O  O62  1  0.24906583  0.84589166  0.35695083  1
  O  O63  1  0.77186658  0.85688370  0.37091620  1
  O  O64  1  0.15940432  0.48244991  0.36891424  1
  O  O65  1  0.66702700  0.47805199  0.36012909  1
  O  O66  1  0.09004243  0.50348346  0.86174855  1
  O  O67  1  0.57968338  0.47879327  0.85723087  1
  O  O68  1  0.16831547  0.84172564  0.85657163  1
  O  O69  1  0.65828901  0.83007963  0.86673891  1
  O  O70  1  0.26483716  0.69824009  0.86590569  1
  O  O71  1  0.75181234  0.66163646  0.85680148  1
  O  O72  1  0.02569325  0.84123102  0.42138593  1
  O  O73  1  0.52330704  0.85146988  0.40951472  1
  O  O74  1  0.39681000  0.95358102  0.40332335  1
  O  O75  1  0.89335634  0.94437113  0.43174356  1
  O  O76  1  0.08676108  0.22447989  0.42475058  1
  O  O77  1  0.56632844  0.18520070  0.40335446  1
  O  O78  1  0.02544312  0.19759913  0.90676231  1
  O  O79  1  0.52219247  0.20259735  0.92466763  1
  O  O80  1  0.07100419  0.94173386  0.90528111  1
  O  O81  1  0.58336511  0.94064335  0.91991913  1
  O  O82  1  0.38840816  0.82310967  0.92524108  1
  O  O83  1  0.90132144  0.84945595  0.89859681  1
  O  O84  1  0.49983418  0.18942959  0.59942932  1
  O  O85  1  0.00476306  0.21240279  0.59278055  1
  O  O86  1  0.09981734  0.99087040  0.59174850  1
  O  O87  1  0.58871255  0.99632123  0.60850807  1
  O  O88  1  0.41070468  0.81428587  0.60713594  1
  O  O89  1  0.90599234  0.83223773  0.59437744  1
  O  O90  1  0.50809778  0.81626411  0.08550363  1
  O  O91  1  0.00329904  0.80823309  0.10082580  1
  O  O92  1  0.39417255  0.99289789  0.08333890  1
  O  O93  1  0.91431439  0.00543016  0.10696341  1
  O  O94  1  0.09970992  0.19675774  0.10115644  1
  O  O95  1  0.60356107  0.21036016  0.09180169  1
  O  O96  1  0.33764507  0.16373046  0.72581429  1
  O  O97  1  0.84367401  0.17013696  0.74788655  1
  O  O98  1  0.24322475  0.30803841  0.74508994  1
  O  O99  1  0.74569526  0.32478391  0.72779149  1
  O  O100  1  0.42366356  0.51620171  0.73354890  1
  O  O101  1  0.91858565  0.51433556  0.74829939  1
  O  O102  1  0.34735942  0.51280343  0.24394106  1
  O  O103  1  0.85008918  0.52785836  0.22666291  1
  O  O104  1  0.40249060  0.28192616  0.24555040  1
  O  O105  1  0.91765537  0.32020588  0.22801733  1
  O  O106  1  0.24440313  0.16872583  0.22301654  1
  O  O107  1  0.74506611  0.20063880  0.24420498  1
  O  O108  1  0.29959476  0.51461435  0.91567985  1
  O  O109  1  0.82005280  0.50869776  0.91220047  1
  O  O110  1  0.43963967  0.38107971  0.91105633  1
  O  O111  1  0.93724022  0.36204628  0.90802294  1
  O  O112  1  0.24135653  0.12987928  0.91032216  1
  O  O113  1  0.73829977  0.10082929  0.91201002  1
  O  O114  1  0.32131585  0.14038875  0.41174369  1
  O  O115  1  0.82093870  0.10706710  0.42473739  1
  O  O116  1  0.24072357  0.37499628  0.41474693  1
  O  O117  1  0.73374039  0.32731999  0.41542043  1
  O  O118  1  0.43741652  0.54431263  0.41197213  1
  O  O119  1  0.93806200  0.49546374  0.41305589  1
  O  O120  1  0.17784958  0.49444501  0.07808610  1
  O  O121  1  0.69479231  0.51298562  0.07921553  1
  O  O122  1  0.06699954  0.64035118  0.07604433  1
  O  O123  1  0.57762128  0.62575470  0.07152774  1
  O  O124  1  0.24151114  0.84654494  0.07341629  1
  O  O125  1  0.75150354  0.85643418  0.07086901  1
  O  O126  1  0.18942679  0.86717653  0.58016165  1
  O  O127  1  0.66912196  0.83592917  0.56958535  1
  O  O128  1  0.24858928  0.64330132  0.57105664  1
  O  O129  1  0.74160167  0.63056203  0.57423260  1
  O  O130  1  0.07102245  0.51605750  0.57970970  1
  O  O131  1  0.56600996  0.48774060  0.57735221  1
  O  O132  1  0.16206726  0.84298772  0.25389511  1
  O  O133  1  0.67710962  0.90052138  0.25871655  1
  O  O134  1  0.25544721  0.64885140  0.27624952  1
  O  O135  1  0.77698801  0.68510998  0.23521160  1
  O  O136  1  0.07832255  0.47800649  0.26217755  1
  O  O137  1  0.55266780  0.45573310  0.25876417  1
  O  O138  1  0.17274758  0.48671506  0.77306297  1
  O  O139  1  0.66340871  0.48619845  0.75690790  1
  O  O140  1  0.06972910  0.66091989  0.76460092  1
  O  O141  1  0.57333090  0.67851481  0.75600297  1
  O  O142  1  0.25893175  0.83974919  0.75901719  1
  O  O143  1  0.75824935  0.87195445  0.77109967  1
loop_
_geom_bond_atom_site_label_1
_geom_bond_atom_site_label_2
_geom_bond_distance
_geom_bond_site_symmetry_2
Na0 O75 2.372003 1_555
Na0 O72 2.416787 1_655
Na0 O89 2.576822 1_555
Na0 O86 2.846840 1_655
Na0 O76 2.860396 1_665
Na1 O79 2.456049 1_565
Na1 O81 2.577128 1_555
Na1 O82 2.579250 1_555
Na1 O90 2.664534 1_556
Na1 O92 2.821084 1_556
Na1 O95 2.904585 1_566
Na2 O110 2.369728 1_555
Na2 O112 2.420000 1_555
Na2 O98 2.822855 1_555
Na2 O96 2.909739 1_555
Na2 O10 2.994765 1_555
Na2 O100 3.027452 1_555
Na2 O108 3.061011 1_555
Na3 O109 2.465746 1_555
Na3 O111 2.498787 1_555
Na3 O101 2.550761 1_555
Na3 O97 2.674799 1_555
Na3 O113 2.737125 1_555
Na3 O99 2.968573 1_555
Na4 O114 2.325631 1_555
Na4 O116 2.637229 1_555
Na4 O104 2.693786 1_555
Na4 O102 2.785880 1_555
Na4 O118 2.841605 1_555
Na5 O119 2.296481 1_555
Na5 O117 2.430165 1_555
Na5 O115 2.788942 1_555
Na5 O107 2.862973 1_555
La0 O0 2.273704 1_555
La0 O72 2.294152 1_545
La0 O5 2.345084 1_455
La0 O76 2.490484 1_555
La0 O3 2.568600 1_445
La0 O75 2.648136 1_445
La1 O7 2.248668 1_555
La1 O10 2.259610 1_555
La1 O79 2.286040 1_555
La1 O81 2.571995 1_545
La1 O8 2.632278 1_545
La1 O82 2.637180 1_545
La2 O14 2.220400 1_655
La2 O89 2.238921 1_545
La2 O85 2.402125 1_655
La2 O13 2.410452 1_545
La2 O16 2.416941 1_645
La2 O86 2.491684 1_645
La3 O18 2.187242 1_555
La3 O90 2.207242 1_555
La3 O23 2.388541 1_565
La3 O92 2.400804 1_555
La3 O21 2.441918 1_565
La3 O95 2.525389 1_565
La4 O38 2.170641 1_556
La4 O110 2.284759 1_555
La4 O112 2.340938 1_555
La4 O40 2.345572 1_556
La4 O108 2.453934 1_555
La4 O36 2.526016 1_556
La5 O41 2.268086 1_556
La5 O111 2.277975 1_555
La5 O109 2.345418 1_555
La5 O37 2.430239 1_556
La5 O39 2.485284 1_556
La5 O113 2.494037 1_555
La6 O44 2.200603 1_555
La6 O114 2.369037 1_555
La6 O42 2.378463 1_555
La6 O46 2.419740 1_555
La6 O118 2.424560 1_555
La6 O116 2.479565 1_555
La7 O45 2.228992 1_555
La7 O117 2.283322 1_555
La7 O43 2.292722 1_555
La7 O119 2.396110 1_555
La7 O47 2.433296 1_555
La7 O115 2.478015 1_555
La8 O65 2.100633 1_555
La8 O63 2.348296 1_555
La8 O137 2.365730 1_555
La8 O133 2.385160 1_555
La8 O135 2.416184 1_555
La8 O61 2.419015 1_555
Nb0 O74 1.842586 1_555
Nb0 O77 1.892975 1_565
Nb0 O2 1.993142 1_555
Nb0 O73 2.009709 1_555
Nb0 O4 2.296799 1_565
Nb0 O1 2.504877 1_565
Nb1 O78 1.882053 1_555
Nb1 O80 1.884260 1_545
Nb1 O83 1.917573 1_445
Nb1 O6 1.992873 1_555
Nb1 O11 2.396934 1_455
Nb1 O9 2.439463 1_445
Nb2 O87 1.933931 1_545
Nb2 O88 1.936555 1_545
Nb2 O12 1.956296 1_545
Nb2 O15 1.986083 1_555
Nb2 O84 2.074407 1_555
Nb2 O17 2.224789 1_545
Nb3 O20 1.865993 1_555
Nb3 O22 1.924311 1_545
Nb3 O93 1.939746 1_455
Nb3 O94 2.022697 1_555
Nb3 O19 2.060498 1_445
Nb3 O91 2.282079 1_545
Nb4 O98 1.891217 1_555
Nb4 O96 1.910598 1_555
Nb4 O28 1.916372 1_555
Nb4 O100 2.060176 1_555
Nb4 O26 2.155486 1_555
Nb4 O24 2.400175 1_555
Nb5 O27 1.865730 1_555
Nb5 O29 1.889749 1_555
Nb5 O99 1.895277 1_555
Nb5 O25 2.164762 1_555
Nb5 O97 2.329529 1_555
Nb5 O101 2.396604 1_555
Nb6 O102 1.876450 1_555
Nb6 O106 1.903944 1_555
Nb6 O30 1.924839 1_555
Nb6 O104 2.100208 1_555
Nb6 O34 2.188343 1_555
Nb6 O32 2.531746 1_555
Nb7 O33 1.855236 1_555
Nb7 O105 1.866252 1_555
Nb7 O107 2.060171 1_555
Nb7 O103 2.089409 1_555
Nb7 O35 2.153667 1_555
Nb7 O31 2.174698 1_555
Nb8 O52 1.875221 1_554
Nb8 O50 1.896851 1_554
Nb8 O48 2.040705 1_554
Nb8 O122 2.070760 1_555
Nb8 O124 2.105309 1_555
Nb8 O120 2.310994 1_555
Nb9 O51 1.939917 1_554
Nb9 O123 1.952584 1_555
Nb9 O125 1.975995 1_555
Nb9 O49 2.011579 1_554
Nb9 O53 2.112168 1_554
Nb9 O121 2.131305 1_555
Nb10 O58 1.911066 1_555
Nb10 O54 1.912266 1_555
Nb10 O128 1.957628 1_555
Nb10 O56 2.067781 1_555
Nb10 O126 2.142445 1_555
Nb10 O130 2.251455 1_555
Nb11 O129 1.853988 1_555
Nb11 O127 1.966086 1_555
Nb11 O57 1.974338 1_555
Nb11 O55 2.040938 1_555
Nb11 O131 2.091804 1_555
Nb11 O59 2.447680 1_555
Nb12 O60 1.914469 1_555
Nb12 O132 1.921707 1_555
Nb12 O62 1.973987 1_555
Nb12 O134 1.989164 1_555
Nb12 O136 1.992358 1_555
Nb12 O64 2.326335 1_555
Nb13 O138 1.928721 1_555
Nb13 O68 1.934544 1_555
Nb13 O142 1.953662 1_555
Nb13 O66 1.965026 1_555
Nb13 O140 2.020768 1_555
Nb13 O70 2.157395 1_555
Nb14 O71 1.854029 1_555
Nb14 O67 1.861187 1_555
Nb14 O139 1.909855 1_555
Nb14 O143 2.150809 1_555
Nb14 O69 2.223914 1_555
Nb14 O141 2.271337 1_555
O0 Si0 1.599286 1_555
O1 S0 1.470763 1_555
O2 Si1 1.667645 1_555
O3 S1 1.463830 1_555
O4 S2 1.485962 1_555
O5 Si2 1.585325 1_555
O6 Si3 1.661324 1_555
O7 Si4 1.594947 1_555
O8 S4 1.464147 1_555
O9 S3 1.478888 1_555
O10 Si5 1.602292 1_555
O11 S5 1.485244 1_555
O12 Si5 1.637393 1_565
O13 S5 1.468773 1_565
O14 Si3 1.581801 1_555
O15 Si4 1.631791 1_555
O16 S3 1.463398 1_455
O17 S4 1.473109 1_555
O18 Si1 1.589343 1_555
O19 S1 1.477630 1_555
O20 Si2 1.688241 1_455
O21 S2 1.455854 1_555
O22 Si0 1.646689 1_565
O23 S0 1.458090 1_555
O24 S6 1.472752 1_555
O25 S7 1.531496 1_555
O26 S8 1.510092 1_555
O27 Si6 1.758697 1_555
O28 Si7 1.698047 1_555
O29 Si8 1.711199 1_555
O30 Si9 1.748781 1_555
O31 S9 1.500714 1_555
O32 S10 1.474117 1_555
O33 Si10 1.737428 1_555
O34 S11 1.503900 1_555
O35 S12 1.516982 1_555
O36 S11 1.451176 1_555
O37 S12 1.463973 1_555
O38 Si9 1.589026 1_555
O39 S9 1.460538 1_555
O40 S10 1.465883 1_555
O41 Si10 1.585622 1_555
O42 S8 1.465798 1_555
O43 Si6 1.572798 1_555
O44 Si7 1.595453 1_555
O45 Si8 1.574155 1_555
O46 S6 1.463429 1_555
O47 S7 1.458534 1_555
O48 S13 1.534378 1_555
O49 Si11 1.642485 1_555
O50 Si12 1.708443 1_555
O51 Si13 1.655264 1_555
O52 Si14 1.723303 1_555
O53 S14 1.498934 1_555
O54 Si15 1.677410 1_555
O55 S15 1.529236 1_555
O56 S16 1.521820 1_555
O57 Si16 1.705405 1_555
O58 Si17 1.711096 1_555
O59 S17 1.467549 1_555
O60 Si17 1.674644 1_555
O61 S17 1.467026 1_555
O62 Si15 1.605968 1_555
O63 S15 1.473353 1_555
O64 S16 1.457209 1_555
O65 Si16 1.604803 1_555
O66 Si12 1.606183 1_555
O67 Si13 1.703588 1_555
O68 Si14 1.612425 1_555
O69 S14 1.486459 1_555
O70 S13 1.473164 1_555
O71 Si11 1.682233 1_555
O72 Si17 1.622860 1_555
O73 S17 1.540779 1_555
O74 Si15 1.696411 1_555
O75 S15 1.472137 1_555
O76 S16 1.477774 1_555
O77 Si16 1.694699 1_555
O78 Si12 1.667744 1_555
O79 Si13 1.616671 1_555
O80 Si14 1.658679 1_555
O81 S14 1.478416 1_555
O82 S13 1.466531 1_555
O83 Si11 1.668983 1_555
O84 S6 1.499402 1_555
O85 S7 1.469632 1_455
O86 S8 1.463827 1_565
O87 Si6 1.642505 1_565
O88 Si7 1.643484 1_555
O89 Si8 1.595102 1_555
O90 Si9 1.612610 1_555
O91 S9 1.464279 1_455
O92 S10 1.480708 1_565
O93 Si10 1.652595 1_555
O94 S11 1.518378 1_555
O95 S12 1.465593 1_555
O96 Si5 1.659270 1_555
O97 S5 1.504827 1_555
O98 Si3 1.708777 1_555
O99 Si4 1.672466 1_555
O100 S4 1.536362 1_555
O101 S3 1.490496 1_555
O102 Si1 1.731037 1_555
O103 S1 1.487025 1_555
O104 S2 1.531903 1_555
O105 Si2 1.694596 1_555
O106 Si0 1.649960 1_555
O107 S0 1.555424 1_555
O108 S13 1.463217 1_555
O109 Si11 1.598304 1_555
O110 Si13 1.610276 1_555
O111 Si12 1.591199 1_655
O112 Si14 1.581602 1_545
O113 S14 1.480638 1_545
O114 Si15 1.599666 1_545
O115 S15 1.453349 1_545
O116 S16 1.487462 1_555
O117 Si16 1.594730 1_555
O118 S17 1.474562 1_555
O119 Si17 1.601980 1_655
O120 S11 1.478734 1_555
O121 S12 1.494216 1_555
O122 S9 1.524765 1_455
O123 Si9 1.654443 1_555
O124 S10 1.523597 1_565
O125 Si10 1.622275 1_565
O126 S8 1.498969 1_565
O127 Si6 1.657774 1_565
O128 Si7 1.650555 1_555
O129 Si8 1.698861 1_555
O130 S7 1.490775 1_455
O131 S6 1.499925 1_555
O132 Si0 1.646985 1_565
O133 S0 1.462557 1_565
O134 Si1 1.609618 1_555
O135 S1 1.473754 1_555
O136 Si2 1.611997 1_455
O137 S2 1.467690 1_555
O138 Si3 1.627528 1_555
O139 Si4 1.682110 1_555
O140 S3 1.513891 1_455
O141 S4 1.483746 1_555
O142 Si5 1.654948 1_565
O143 S5 1.498563 1_565
