# generated using pymatgen
data_LaNb5O14
_symmetry_space_group_name_H-M   'P 1'
_cell_length_a   3.92979900
_cell_length_b   12.66321000
_cell_length_c   20.45992900
_cell_angle_alpha   90.00000000
_cell_angle_beta   90.00000000
_cell_angle_gamma   90.00000000
_symmetry_Int_Tables_number   1
_chemical_formula_structural   LaNb5O14
_chemical_formula_sum   'La4 Nb20 O56'
_cell_volume   1018.16524686
_cell_formula_units_Z   4
loop_
 _symmetry_equiv_pos_site_id
 _symmetry_equiv_pos_as_xyz
  1  'x, y, z'
loop_
 _atom_site_type_symbol
 _atom_site_label
 _atom_site_symmetry_multiplicity
 _atom_site_fract_x
 _atom_site_fract_y
 _atom_site_fract_z
 _atom_site_occupancy
  La  La0  1  0.00404400  0.75000000  0.50000000  1
  La  La1  1  0.99595600  0.25000000  0.00000000  1
  La  La2  1  0.99595600  0.25000000  0.50000000  1
  La  La3  1  0.00404400  0.75000000  0.00000000  1
  Nb  Nb0  1  0.54872100  0.99963100  0.25000000  1
  Nb  Nb1  1  0.54872100  0.50036900  0.75000000  1
  Nb  Nb2  1  0.45127900  0.49963100  0.25000000  1
  Nb  Nb3  1  0.45127900  0.00036900  0.75000000  1
  Nb  Nb4  1  0.46638700  0.72563700  0.65576000  1
  Nb  Nb5  1  0.46638700  0.77436300  0.34424000  1
  Nb  Nb6  1  0.53361300  0.22563700  0.84424000  1
  Nb  Nb7  1  0.53361300  0.27436300  0.15576000  1
  Nb  Nb8  1  0.53361300  0.27436300  0.34424000  1
  Nb  Nb9  1  0.53361300  0.22563700  0.65576000  1
  Nb  Nb10  1  0.46638700  0.77436300  0.15576000  1
  Nb  Nb11  1  0.46638700  0.72563700  0.84424000  1
  Nb  Nb12  1  0.50092600  0.95827000  0.57717600  1
  Nb  Nb13  1  0.50092600  0.54173000  0.42282400  1
  Nb  Nb14  1  0.49907400  0.45827000  0.92282400  1
  Nb  Nb15  1  0.49907400  0.04173000  0.07717600  1
  Nb  Nb16  1  0.49907400  0.04173000  0.42282400  1
  Nb  Nb17  1  0.49907400  0.45827000  0.57717600  1
  Nb  Nb18  1  0.50092600  0.54173000  0.07717600  1
  Nb  Nb19  1  0.50092600  0.95827000  0.92282400  1
  O  O0  1  0.51533000  0.82469200  0.25000000  1
  O  O1  1  0.51533000  0.67530800  0.75000000  1
  O  O2  1  0.48467000  0.32469200  0.25000000  1
  O  O3  1  0.48467000  0.17530800  0.75000000  1
  O  O4  1  0.01271800  0.99596200  0.25000000  1
  O  O5  1  0.01271800  0.50403800  0.75000000  1
  O  O6  1  0.98728200  0.49596200  0.25000000  1
  O  O7  1  0.98728200  0.00403800  0.75000000  1
  O  O8  1  0.50746400  0.08746300  0.52695300  1
  O  O9  1  0.50746400  0.41253700  0.47304700  1
  O  O10  1  0.49253600  0.58746300  0.97304700  1
  O  O11  1  0.49253600  0.91253700  0.02695300  1
  O  O12  1  0.49253600  0.91253700  0.47304700  1
  O  O13  1  0.49253600  0.58746300  0.52695300  1
  O  O14  1  0.50746400  0.41253700  0.02695300  1
  O  O15  1  0.50746400  0.08746300  0.97304700  1
  O  O16  1  0.49733800  0.05787600  0.65383400  1
  O  O17  1  0.49733800  0.44212400  0.34616600  1
  O  O18  1  0.50266200  0.55787600  0.84616600  1
  O  O19  1  0.48069000  0.86982300  0.81446700  1
  O  O20  1  0.50266200  0.94212400  0.15383400  1
  O  O21  1  0.50266200  0.55787600  0.65383400  1
  O  O22  1  0.49733800  0.44212400  0.15383400  1
  O  O23  1  0.49733800  0.05787600  0.84616600  1
  O  O24  1  0.99716500  0.70909100  0.86227300  1
  O  O25  1  0.99716500  0.79090900  0.13772700  1
  O  O26  1  0.00283500  0.20909100  0.63772700  1
  O  O27  1  0.00283500  0.29090900  0.36227300  1
  O  O28  1  0.00283500  0.29090900  0.13772700  1
  O  O29  1  0.00283500  0.20909100  0.86227300  1
  O  O30  1  0.99716500  0.79090900  0.36227300  1
  O  O31  1  0.99716500  0.70909100  0.63772700  1
  O  O32  1  0.50585700  0.70906000  0.06680700  1
  O  O33  1  0.50585700  0.79094000  0.93319300  1
  O  O34  1  0.49414300  0.20906000  0.43319300  1
  O  O35  1  0.49414300  0.29094000  0.56680700  1
  O  O36  1  0.49414300  0.29094000  0.93319300  1
  O  O37  1  0.49414300  0.20906000  0.06680700  1
  O  O38  1  0.50585700  0.79094000  0.56680700  1
  O  O39  1  0.50585700  0.70906000  0.43319300  1
  O  O40  1  0.00057200  0.56616500  0.07357900  1
  O  O41  1  0.00057200  0.93383500  0.92642100  1
  O  O42  1  0.99942800  0.06616500  0.42642100  1
  O  O43  1  0.99942800  0.43383500  0.57357900  1
  O  O44  1  0.99942800  0.43383500  0.92642100  1
  O  O45  1  0.99942800  0.06616500  0.07357900  1
  O  O46  1  0.00057200  0.93383500  0.57357900  1
  O  O47  1  0.00057200  0.56616500  0.42642100  1
  O  O48  1  0.48069000  0.86982300  0.68553300  1
  O  O49  1  0.48069000  0.63017700  0.31446700  1
  O  O50  1  0.51931000  0.36982300  0.81446700  1
  O  O51  1  0.51931000  0.13017700  0.18553300  1
  O  O52  1  0.51931000  0.13017700  0.31446700  1
  O  O53  1  0.51931000  0.36982300  0.68553300  1
  O  O54  1  0.48069000  0.63017700  0.18553300  1
  O  O55  1  0.50266200  0.94212400  0.34616600  1
loop_
_geom_bond_atom_site_label_1
_geom_bond_atom_site_label_2
_geom_bond_distance
_geom_bond_site_symmetry_2
La0 O38 2.443354 1_455
La0 O39 2.443354 1_455
La0 O38 2.454786 1_555
La0 O39 2.454786 1_555
La0 O46 2.772326 1_555
La0 O47 2.772326 1_555
La0 O31 2.865235 1_455
La0 O30 2.865235 1_455
La0 O12 2.868032 1_555
La0 O13 2.868032 1_555
La0 O12 2.929344 1_455
La0 O13 2.929344 1_455
La1 O37 2.443354 1_655
La1 O36 2.443354 1_654
La1 O37 2.454786 1_555
La1 O36 2.454786 1_554
La1 O45 2.772326 1_555
La1 O44 2.772326 1_554
La1 O28 2.865235 1_655
La1 O29 2.865235 1_654
La1 O14 2.868032 1_555
La1 O15 2.868032 1_554
La1 O14 2.929344 1_655
La1 O15 2.929344 1_654
La2 O35 2.443354 1_655
La2 O34 2.443354 1_655
La2 O35 2.454786 1_555
La2 O34 2.454786 1_555
La2 O43 2.772326 1_555
La2 O42 2.772326 1_555
La2 O26 2.865235 1_655
La2 O27 2.865235 1_655
La2 O8 2.868032 1_555
La2 O9 2.868032 1_555
La2 O9 2.929344 1_655
La2 O8 2.929344 1_655
La3 O32 2.443354 1_455
La3 O33 2.443354 1_454
La3 O32 2.454786 1_555
La3 O33 2.454786 1_554
La3 O40 2.772326 1_555
La3 O41 2.772326 1_554
La3 O25 2.865235 1_455
La3 O24 2.865235 1_454
La3 O11 2.868032 1_555
La3 O10 2.868032 1_554
La3 O11 2.929344 1_455
La3 O10 2.929344 1_454
Nb0 O4 1.824007 1_655
Nb0 O55 2.105783 1_555
Nb0 O20 2.105783 1_555
Nb0 O4 2.106896 1_555
Nb0 O51 2.118003 1_565
Nb0 O52 2.118003 1_565
Nb0 O0 2.219172 1_555
Nb1 O5 1.824007 1_655
Nb1 O18 2.105783 1_555
Nb1 O21 2.105783 1_555
Nb1 O5 2.106896 1_555
Nb1 O50 2.118003 1_555
Nb1 O53 2.118003 1_555
Nb1 O1 2.219172 1_555
Nb2 O6 1.824007 1_455
Nb2 O17 2.105783 1_555
Nb2 O22 2.105783 1_555
Nb2 O6 2.106896 1_555
Nb2 O54 2.118003 1_555
Nb2 O49 2.118003 1_555
Nb2 O2 2.219172 1_555
Nb3 O7 1.824007 1_455
Nb3 O23 2.105783 1_555
Nb3 O16 2.105783 1_555
Nb3 O7 2.106896 1_555
Nb3 O19 2.118003 1_545
Nb3 O48 2.118003 1_545
Nb3 O3 2.219172 1_555
Nb4 O31 1.892134 1_455
Nb4 O48 1.925612 1_555
Nb4 O38 2.005043 1_555
Nb4 O1 2.039833 1_555
Nb4 O31 2.128568 1_555
Nb4 O21 2.129535 1_555
Nb5 O30 1.892134 1_455
Nb5 O49 1.925612 1_555
Nb5 O39 2.005043 1_555
Nb5 O0 2.039833 1_555
Nb5 O30 2.128568 1_555
Nb5 O55 2.129535 1_555
Nb6 O29 1.892134 1_655
Nb6 O50 1.925612 1_555
Nb6 O36 2.005043 1_555
Nb6 O3 2.039833 1_555
Nb6 O29 2.128568 1_555
Nb6 O23 2.129535 1_555
Nb7 O28 1.892134 1_655
Nb7 O51 1.925612 1_555
Nb7 O37 2.005043 1_555
Nb7 O2 2.039833 1_555
Nb7 O28 2.128568 1_555
Nb7 O22 2.129535 1_555
Nb8 O27 1.892134 1_655
Nb8 O52 1.925612 1_555
Nb8 O34 2.005043 1_555
Nb8 O2 2.039833 1_555
Nb8 O27 2.128568 1_555
Nb8 O17 2.129535 1_555
Nb9 O26 1.892134 1_655
Nb9 O53 1.925612 1_555
Nb9 O35 2.005043 1_555
Nb9 O3 2.039833 1_555
Nb9 O26 2.128568 1_555
Nb9 O16 2.129535 1_555
Nb10 O25 1.892134 1_455
Nb10 O54 1.925612 1_555
Nb10 O32 2.005043 1_555
Nb10 O0 2.039833 1_555
Nb10 O25 2.128568 1_555
Nb10 O20 2.129535 1_555
Nb11 O24 1.892134 1_455
Nb11 O19 1.925612 1_555
Nb11 O33 2.005043 1_555
Nb11 O1 2.039833 1_555
Nb11 O24 2.128568 1_555
Nb11 O18 2.129535 1_555
Nb12 O8 1.932104 1_565
Nb12 O46 1.989102 1_655
Nb12 O46 1.991848 1_555
Nb12 O16 2.012732 1_565
Nb12 O38 2.129617 1_555
Nb12 O12 2.208027 1_555
Nb12 O48 2.485108 1_555
Nb13 O9 1.932104 1_555
Nb13 O47 1.989102 1_655
Nb13 O47 1.991848 1_555
Nb13 O17 2.012732 1_555
Nb13 O39 2.129617 1_555
Nb13 O13 2.208027 1_555
Nb13 O49 2.485108 1_555
Nb14 O10 1.932104 1_555
Nb14 O44 1.989102 1_455
Nb14 O44 1.991848 1_555
Nb14 O18 2.012732 1_555
Nb14 O36 2.129617 1_555
Nb14 O14 2.208027 1_556
Nb14 O50 2.485108 1_555
Nb15 O11 1.932104 1_545
Nb15 O45 1.989102 1_455
Nb15 O45 1.991848 1_555
Nb15 O20 2.012732 1_545
Nb15 O37 2.129617 1_555
Nb15 O15 2.208027 1_554
Nb15 O51 2.485108 1_555
Nb16 O12 1.932104 1_545
Nb16 O42 1.989102 1_455
Nb16 O42 1.991848 1_555
Nb16 O55 2.012732 1_545
Nb16 O34 2.129617 1_555
Nb16 O8 2.208027 1_555
Nb16 O52 2.485108 1_555
Nb17 O13 1.932104 1_555
Nb17 O43 1.989102 1_455
Nb17 O43 1.991848 1_555
Nb17 O21 2.012732 1_555
Nb17 O35 2.129617 1_555
Nb17 O9 2.208027 1_555
Nb17 O53 2.485108 1_555
Nb18 O14 1.932104 1_555
Nb18 O40 1.989102 1_655
Nb18 O40 1.991848 1_555
Nb18 O22 2.012732 1_555
Nb18 O32 2.129617 1_555
Nb18 O10 2.208027 1_554
Nb18 O54 2.485108 1_555
Nb19 O15 1.932104 1_565
Nb19 O41 1.989102 1_655
Nb19 O41 1.991848 1_555
Nb19 O23 2.012732 1_565
Nb19 O33 2.129617 1_555
Nb19 O11 2.208027 1_556
Nb19 O19 2.485108 1_555
