# generated using pymatgen
data_Na2Sc2Nb6Si7S5O48
_symmetry_space_group_name_H-M   'P 1'
_cell_length_a   17.79190859
_cell_length_b   8.92330149
_cell_length_c   23.07691834
_cell_angle_alpha   90.01648568
_cell_angle_beta   89.97711416
_cell_angle_gamma   120.08934180
_symmetry_Int_Tables_number   1
_chemical_formula_structural   Na2Sc2Nb6Si7S5O48
_chemical_formula_sum   'Na6 Sc6 Nb18 Si21 S15 O144'
_cell_volume   3170.04062533
_cell_formula_units_Z   3
loop_
 _symmetry_equiv_pos_site_id
 _symmetry_equiv_pos_as_xyz
  1  'x, y, z'
loop_
 _atom_site_type_symbol
 _atom_site_label
 _atom_site_symmetry_multiplicity
 _atom_site_fract_x
 _atom_site_fract_y
 _atom_site_fract_z
 _atom_site_occupancy
  Na  Na0  1  0.99831779  0.00077700  0.49729503  1
  Na  Na1  1  0.49881602  0.00196407  0.99425572  1
  Na  Na2  1  0.33496169  0.32921646  0.83246820  1
  Na  Na3  1  0.82924668  0.33412877  0.83364427  1
  Na  Na4  1  0.33004100  0.32509529  0.33766902  1
  Na  Na5  1  0.83395682  0.34081199  0.33701841  1
  Sc  Sc0  1  0.99973963  0.98203249  0.35563273  1
  Sc  Sc1  1  0.49998096  0.01795139  0.85416141  1
  Sc  Sc2  1  0.99673935  0.01530843  0.64783539  1
  Sc  Sc3  1  0.49820061  0.98838025  0.15169440  1
  Sc  Sc4  1  0.83350427  0.32951309  0.97992580  1
  Sc  Sc5  1  0.33277808  0.33632313  0.47980627  1
  Nb  Nb0  1  0.50053477  0.99413239  0.35883142  1
  Nb  Nb1  1  0.00029329  0.00496149  0.85635559  1
  Nb  Nb2  1  0.49910456  0.00557151  0.64271203  1
  Nb  Nb3  1  0.99812115  0.99272180  0.14317686  1
  Nb  Nb4  1  0.32664200  0.33638301  0.68924951  1
  Nb  Nb5  1  0.83153592  0.31226237  0.68750257  1
  Nb  Nb6  1  0.32782191  0.34108507  0.19051929  1
  Nb  Nb7  1  0.82741636  0.31654332  0.19070382  1
  Nb  Nb8  1  0.32798412  0.33121889  0.97306596  1
  Nb  Nb9  1  0.83307848  0.32166967  0.47544991  1
  Nb  Nb10  1  0.17143273  0.67247066  0.02136273  1
  Nb  Nb11  1  0.67369788  0.66997057  0.01971296  1
  Nb  Nb12  1  0.16797118  0.66922001  0.52343028  1
  Nb  Nb13  1  0.67343632  0.66994885  0.52212240  1
  Nb  Nb14  1  0.16875437  0.68643440  0.31165839  1
  Nb  Nb15  1  0.67809538  0.67673771  0.30948841  1
  Nb  Nb16  1  0.17755028  0.67879486  0.80805461  1
  Nb  Nb17  1  0.66764802  0.64912602  0.80948611  1
  Si  Si0  1  0.14043541  0.99910164  0.25038796  1
  Si  Si1  1  0.63906498  0.99126447  0.25098096  1
  Si  Si2  1  0.35560748  0.71711486  0.25121543  1
  Si  Si3  1  0.85965293  0.71161629  0.24912292  1
  Si  Si4  1  0.13992801  0.28622195  0.75046086  1
  Si  Si5  1  0.64423213  0.28069120  0.74970787  1
  Si  Si6  1  0.36044563  0.00930516  0.74879208  1
  Si  Si7  1  0.85533961  0.99622440  0.75081772  1
  Si  Si8  1  0.97776881  0.33212316  0.58247820  1
  Si  Si9  1  0.68793889  0.04317093  0.58147071  1
  Si  Si10  1  0.33429164  0.62251526  0.58111274  1
  Si  Si11  1  0.83316365  0.04571585  0.08172701  1
  Si  Si12  1  0.18816339  0.33274194  0.08233977  1
  Si  Si13  1  0.31396365  0.67516327  0.91590990  1
  Si  Si14  1  0.81263017  0.66177056  0.91538899  1
  Si  Si15  1  0.52487202  0.38092008  0.91779932  1
  Si  Si16  1  0.16305224  0.94563547  0.91617583  1
  Si  Si17  1  0.31111032  0.96099692  0.41814805  1
  Si  Si18  1  0.81418327  0.95462555  0.41627183  1
  Si  Si19  1  0.66623934  0.38109821  0.41678393  1
  Si  Si20  1  0.02415229  0.66806615  0.41781148  1
  S  S0  1  0.00099141  0.28785733  0.24980348  1
  S  S1  1  0.50014898  0.28921826  0.25036458  1
  S  S2  1  0.00005523  0.71182247  0.75060089  1
  S  S3  1  0.50051410  0.71304060  0.74986037  1
  S  S4  1  0.47724790  0.33548930  0.58326650  1
  S  S5  1  0.18816915  0.04412767  0.58315345  1
  S  S6  1  0.83487807  0.61918092  0.58271783  1
  S  S7  1  0.47734239  0.62023738  0.08205560  1
  S  S8  1  0.97718995  0.61930055  0.08341630  1
  S  S9  1  0.33487607  0.04899083  0.08248096  1
  S  S10  1  0.68770136  0.33166913  0.08312116  1
  S  S11  1  0.02406611  0.38259103  0.91605896  1
  S  S12  1  0.66662497  0.95258754  0.91662951  1
  S  S13  1  0.16659933  0.38122476  0.41657465  1
  S  S14  1  0.52405269  0.66443621  0.41623420  1
  O  O0  1  0.10741481  0.04832429  0.30683260  1
  O  O1  1  0.59799969  0.03248935  0.30760275  1
  O  O2  1  0.41940233  0.80677635  0.30673807  1
  O  O3  1  0.91394190  0.78861453  0.30660079  1
  O  O4  1  0.48285880  0.17829656  0.30194935  1
  O  O5  1  0.98089475  0.18194565  0.30128845  1
  O  O6  1  0.09884563  0.16551104  0.80828854  1
  O  O7  1  0.60666754  0.16783053  0.80705084  1
  O  O8  1  0.48113868  0.77997368  0.80195173  1
  O  O9  1  0.98544884  0.79363938  0.80306420  1
  O  O10  1  0.41272663  0.03805264  0.80744800  1
  O  O11  1  0.91889910  0.03006542  0.80727093  1
  O  O12  1  0.40277104  0.97267315  0.69201610  1
  O  O13  1  0.89406355  0.96019691  0.69404428  1
  O  O14  1  0.08812536  0.20430264  0.69260179  1
  O  O15  1  0.58256215  0.19000456  0.69313458  1
  O  O16  1  0.01574827  0.81533955  0.69838945  1
  O  O17  1  0.51309414  0.81721713  0.69740742  1
  O  O18  1  0.39492939  0.82612345  0.19294851  1
  O  O19  1  0.90312777  0.83272781  0.19181931  1
  O  O20  1  0.01262264  0.20725562  0.19677850  1
  O  O21  1  0.51493551  0.21451991  0.19761850  1
  O  O22  1  0.08272122  0.97503600  0.19250273  1
  O  O23  1  0.58806366  0.97176909  0.19204270  1
  O  O24  1  0.43640747  0.35999226  0.63553282  1
  O  O25  1  0.93073896  0.36505730  0.63955738  1
  O  O26  1  0.24404981  0.12883992  0.63616929  1
  O  O27  1  0.75052884  0.13433207  0.63931457  1
  O  O28  1  0.32080110  0.49672270  0.63897998  1
  O  O29  1  0.81795112  0.51343523  0.63524665  1
  O  O30  1  0.43728523  0.51283261  0.13509916  1
  O  O31  1  0.93674711  0.51291962  0.13540230  1
  O  O32  1  0.32076217  0.12690267  0.13487706  1
  O  O33  1  0.81999049  0.14367971  0.13914057  1
  O  O34  1  0.25260655  0.36559328  0.13923379  1
  O  O35  1  0.74271353  0.36015809  0.13580374  1
  O  O36  1  0.23912862  0.30670703  0.02798066  1
  O  O37  1  0.72860042  0.30707026  0.03132866  1
  O  O38  1  0.42128112  0.53395875  0.03084998  1
  O  O39  1  0.92407430  0.54634087  0.03108869  1
  O  O40  1  0.34616614  0.15376676  0.03015266  1
  O  O41  1  0.84884306  0.16586259  0.02671238  1
  O  O42  1  0.22920915  0.15179434  0.53163973  1
  O  O43  1  0.73526011  0.16891013  0.52674196  1
  O  O44  1  0.35042178  0.53140700  0.52687419  1
  O  O45  1  0.84508670  0.53886809  0.52996713  1
  O  O46  1  0.42395700  0.30182589  0.53105193  1
  O  O47  1  0.91385040  0.31015054  0.52723985  1
  O  O48  1  0.26001089  0.68983603  0.97312193  1
  O  O49  1  0.76567559  0.69562815  0.97302618  1
  O  O50  1  0.07694520  0.46169958  0.96971380  1
  O  O51  1  0.58527294  0.48540017  0.97469453  1
  O  O52  1  0.15163987  0.82961840  0.97440056  1
  O  O53  1  0.65599998  0.84507968  0.97039113  1
  O  O54  1  0.26505121  0.83439412  0.47342795  1
  O  O55  1  0.76037036  0.83030725  0.47288644  1
  O  O56  1  0.15540387  0.46368571  0.46984076  1
  O  O57  1  0.65096372  0.47381421  0.47388389  1
  O  O58  1  0.08614786  0.68844400  0.47328310  1
  O  O59  1  0.57647173  0.69260466  0.46929252  1
  O  O60  1  0.06864600  0.63264477  0.35996602  1
  O  O61  1  0.56344343  0.63962239  0.36389633  1
  O  O62  1  0.24937241  0.86052248  0.36033987  1
  O  O63  1  0.75023974  0.86173296  0.36005965  1
  O  O64  1  0.18037753  0.48796760  0.36418015  1
  O  O65  1  0.67789335  0.50274163  0.36039087  1
  O  O66  1  0.06353648  0.48822033  0.86453583  1
  O  O67  1  0.56751810  0.50478380  0.86090590  1
  O  O68  1  0.17933873  0.85517142  0.86050287  1
  O  O69  1  0.68033827  0.87350560  0.86488788  1
  O  O70  1  0.24978308  0.63602240  0.86046425  1
  O  O71  1  0.74822602  0.63767185  0.86061596  1
  O  O72  1  0.01633024  0.83880622  0.41450971  1
  O  O73  1  0.51575322  0.82343056  0.41002832  1
  O  O74  1  0.40475641  0.97339623  0.40331125  1
  O  O75  1  0.90868408  0.98148123  0.41312080  1
  O  O76  1  0.08873133  0.20966451  0.41183794  1
  O  O77  1  0.58110412  0.19122759  0.40451076  1
  O  O78  1  0.01613822  0.20846335  0.91031135  1
  O  O79  1  0.51560737  0.19367246  0.91552313  1
  O  O80  1  0.08115722  0.97304906  0.90569013  1
  O  O81  1  0.58836124  0.96690846  0.91356617  1
  O  O82  1  0.40909185  0.83546901  0.91382776  1
  O  O83  1  0.90529773  0.83714465  0.90441705  1
  O  O84  1  0.48818273  0.18109257  0.59129674  1
  O  O85  1  0.98657316  0.16170196  0.58584568  1
  O  O86  1  0.10133604  0.01982878  0.59075194  1
  O  O87  1  0.59403754  0.02158695  0.59594879  1
  O  O88  1  0.41762431  0.81047308  0.59723689  1
  O  O89  1  0.91055949  0.79385675  0.58835084  1
  O  O90  1  0.48549081  0.79328917  0.08750595  1
  O  O91  1  0.98836298  0.79569314  0.09135229  1
  O  O92  1  0.41082729  0.02574159  0.08784185  1
  O  O93  1  0.91608730  0.02194312  0.09676248  1
  O  O94  1  0.09460882  0.16625154  0.09537071  1
  O  O95  1  0.60022582  0.18108432  0.09014053  1
  O  O96  1  0.34489693  0.17342527  0.73575376  1
  O  O97  1  0.84731491  0.17434823  0.74454701  1
  O  O98  1  0.24045026  0.31314259  0.74298075  1
  O  O99  1  0.74442394  0.32330701  0.73714985  1
  O  O100  1  0.42219358  0.53063438  0.74039813  1
  O  O101  1  0.92093380  0.53674682  0.74493342  1
  O  O102  1  0.34840927  0.52134384  0.24200343  1
  O  O103  1  0.84470625  0.51682486  0.23477886  1
  O  O104  1  0.42099477  0.30792486  0.24146542  1
  O  O105  1  0.92203933  0.31297673  0.23974694  1
  O  O106  1  0.24232711  0.16448064  0.23650166  1
  O  O107  1  0.73939775  0.16652348  0.24210168  1
  O  O108  1  0.31787709  0.49465500  0.92593300  1
  O  O109  1  0.82169578  0.49354044  0.92316858  1
  O  O110  1  0.42805183  0.36194629  0.92953621  1
  O  O111  1  0.93624718  0.35986672  0.92303241  1
  O  O112  1  0.25072377  0.13827250  0.92594940  1
  O  O113  1  0.74512983  0.12686834  0.92386851  1
  O  O114  1  0.32250773  0.15097064  0.42230739  1
  O  O115  1  0.81609340  0.13960703  0.42291066  1
  O  O116  1  0.24545913  0.36376195  0.42264636  1
  O  O117  1  0.75175703  0.36348424  0.42570218  1
  O  O118  1  0.43591003  0.51270127  0.42214894  1
  O  O119  1  0.92729368  0.49482373  0.42604958  1
  O  O120  1  0.17710197  0.50201103  0.07107207  1
  O  O121  1  0.68122063  0.49207122  0.07627648  1
  O  O122  1  0.06476505  0.63943729  0.07531166  1
  O  O123  1  0.56423417  0.63935148  0.07456367  1
  O  O124  1  0.25441537  0.87231804  0.07508558  1
  O  O125  1  0.74629730  0.85432464  0.07277499  1
  O  O126  1  0.18350460  0.87389250  0.57761866  1
  O  O127  1  0.67619261  0.85063468  0.57052010  1
  O  O128  1  0.24888592  0.64159075  0.57280868  1
  O  O129  1  0.75428973  0.63800057  0.57503876  1
  O  O130  1  0.07228413  0.50518726  0.57122561  1
  O  O131  1  0.56455837  0.49003414  0.57560568  1
  O  O132  1  0.15369484  0.83046055  0.25761700  1
  O  O133  1  0.65234027  0.82718525  0.26347785  1
  O  O134  1  0.25733858  0.67453191  0.26432729  1
  O  O135  1  0.76137463  0.68613769  0.25730174  1
  O  O136  1  0.07715522  0.46194950  0.25616845  1
  O  O137  1  0.57528109  0.46364395  0.25986928  1
  O  O138  1  0.15292094  0.47716163  0.76417895  1
  O  O139  1  0.65289496  0.47460184  0.75806835  1
  O  O140  1  0.07611781  0.68846614  0.76160579  1
  O  O141  1  0.57721173  0.69205749  0.75721075  1
  O  O142  1  0.26184792  0.83694910  0.75769994  1
  O  O143  1  0.75741427  0.83835571  0.76561633  1
loop_
_geom_bond_atom_site_label_1
_geom_bond_atom_site_label_2
_geom_bond_distance
_geom_bond_site_symmetry_2
Na0 O75 2.464362 1_545
Na0 O72 2.510725 1_645
Na0 O85 2.565218 1_555
Na0 O76 2.635192 1_655
Na0 O89 2.715040 1_545
Na0 O86 2.780331 1_655
Na1 O79 2.409504 1_555
Na1 O82 2.413124 1_545
Na1 O81 2.569119 1_545
Na1 O92 2.736800 1_556
Na1 O90 2.777327 1_546
Na1 O95 2.795672 1_556
Na2 O98 2.621741 1_555
Na2 O96 2.681300 1_555
Na2 O112 2.691118 1_555
Na2 O100 2.712193 1_555
Na2 O110 2.713625 1_555
Na2 O108 2.715042 1_555
Na3 O109 2.549378 1_555
Na3 O97 2.611710 1_555
Na3 O99 2.664945 1_555
Na3 O101 2.676389 1_555
Na3 O113 2.686962 1_555
Na3 O111 2.737991 1_555
Na4 O114 2.457608 1_555
Na4 O116 2.597529 1_555
Na4 O118 2.643943 1_555
Na4 O102 2.734054 1_555
Na4 O106 2.774589 1_555
Na4 O104 2.795799 1_555
Na5 O119 2.565225 1_555
Na5 O117 2.581127 1_555
Na5 O115 2.585098 1_555
Na5 O107 2.724770 1_555
Na5 O103 2.787585 1_555
Na5 O105 2.818446 1_555
Nb0 O74 1.916843 1_555
Nb0 O77 1.931698 1_565
Nb0 O2 1.975935 1_555
Nb0 O1 1.981229 1_565
Nb0 O73 2.050422 1_555
Nb0 O4 2.245524 1_565
Nb1 O11 1.938333 1_455
Nb1 O83 1.947009 1_445
Nb1 O6 1.959064 1_555
Nb1 O80 1.964554 1_545
Nb1 O78 2.100720 1_555
Nb1 O9 2.153496 1_445
Nb2 O88 1.924385 1_545
Nb2 O87 1.947933 1_555
Nb2 O12 1.952565 1_545
Nb2 O15 1.953778 1_555
Nb2 O84 2.050622 1_555
Nb2 O17 2.213807 1_545
Nb3 O93 1.930936 1_565
Nb3 O19 1.932549 1_555
Nb3 O22 1.955986 1_655
Nb3 O94 1.973811 1_665
Nb3 O91 2.060196 1_555
Nb3 O20 2.182891 1_665
Nb4 O28 1.885143 1_555
Nb4 O98 1.900501 1_555
Nb4 O96 1.961223 1_555
Nb4 O100 2.081732 1_555
Nb4 O26 2.088290 1_555
Nb4 O24 2.231741 1_555
Nb5 O27 1.881619 1_555
Nb5 O97 1.916741 1_555
Nb5 O25 1.930382 1_555
Nb5 O99 1.968804 1_555
Nb5 O101 2.259289 1_555
Nb5 O29 2.274123 1_555
Nb6 O106 1.875985 1_555
Nb6 O34 1.879957 1_555
Nb6 O102 1.881888 1_555
Nb6 O104 2.170581 1_555
Nb6 O30 2.187169 1_555
Nb6 O32 2.252845 1_555
Nb7 O107 1.883796 1_555
Nb7 O33 1.899326 1_555
Nb7 O103 1.941930 1_555
Nb7 O105 2.042405 1_555
Nb7 O35 2.148860 1_555
Nb7 O31 2.250464 1_555
Nb8 O108 1.899032 1_555
Nb8 O112 1.913932 1_555
Nb8 O110 1.939928 1_555
Nb8 O36 1.950617 1_556
Nb8 O38 2.189905 1_556
Nb8 O40 2.205143 1_556
Nb9 O47 1.911473 1_555
Nb9 O115 1.925501 1_555
Nb9 O119 1.974671 1_555
Nb9 O43 1.977017 1_555
Nb9 O117 2.023237 1_555
Nb9 O45 2.228988 1_555
Nb10 O48 1.871059 1_554
Nb10 O52 1.939386 1_554
Nb10 O120 1.947991 1_555
Nb10 O124 2.063287 1_555
Nb10 O50 2.148035 1_554
Nb10 O122 2.162401 1_555
Nb11 O49 1.874629 1_554
Nb11 O51 1.915503 1_554
Nb11 O125 1.934821 1_555
Nb11 O53 2.081072 1_554
Nb11 O121 2.110954 1_555
Nb11 O123 2.221386 1_555
Nb12 O58 1.933865 1_555
Nb12 O130 1.938594 1_555
Nb12 O128 1.946571 1_555
Nb12 O54 1.983420 1_555
Nb12 O126 2.113895 1_555
Nb12 O56 2.128572 1_555
Nb13 O55 1.873818 1_555
Nb13 O57 1.939004 1_555
Nb13 O127 1.941414 1_555
Nb13 O129 2.013622 1_555
Nb13 O131 2.175810 1_555
Nb13 O59 2.203406 1_555
Nb14 O62 1.870480 1_555
Nb14 O132 1.904009 1_555
Nb14 O60 1.946031 1_555
Nb14 O134 1.963350 1_555
Nb14 O64 2.239829 1_555
Nb14 O136 2.243919 1_555
Nb15 O135 1.877986 1_555
Nb15 O63 1.900013 1_555
Nb15 O133 1.938473 1_555
Nb15 O65 1.945750 1_555
Nb15 O137 2.187635 1_555
Nb15 O61 2.273327 1_555
Nb16 O142 1.862424 1_555
Nb16 O138 1.913949 1_555
Nb16 O70 1.937376 1_555
Nb16 O68 1.972740 1_555
Nb16 O140 2.137997 1_555
Nb16 O66 2.290396 1_555
Nb17 O139 1.868534 1_555
Nb17 O71 1.899030 1_555
Nb17 O143 1.929377 1_555
Nb17 O67 1.984734 1_555
Nb17 O141 2.193382 1_555
Nb17 O69 2.289072 1_555
O0 Si0 1.578786 1_545
O0 Sc0 2.037300 1_445
O1 Si1 1.626330 1_545
O2 Si2 1.630992 1_555
O3 Si3 1.580972 1_555
O3 Sc0 1.986921 1_555
O4 S1 1.478677 1_555
O5 S0 1.447106 1_655
O5 Sc0 2.338542 1_545
O6 Si4 1.638886 1_555
O7 Si5 1.592858 1_555
O7 Sc1 2.006820 1_555
O8 S3 1.458193 1_555
O8 Sc1 2.314844 1_565
O9 S2 1.501933 1_655
O10 Si6 1.588966 1_555
O10 Sc1 1.971022 1_555
O11 Si7 1.650982 1_545
O12 Si6 1.623694 1_565
O13 Si7 1.586087 1_555
O13 Sc2 1.952972 1_565
O14 Si4 1.578440 1_555
O14 Sc2 1.950869 1_455
O15 Si5 1.635058 1_555
O16 S2 1.457637 1_555
O16 Sc2 2.294790 1_465
O17 S3 1.473516 1_555
O18 Si2 1.600400 1_555
O18 Sc3 1.926287 1_555
O19 Si3 1.636087 1_555
O20 S0 1.485255 1_555
O21 S1 1.473171 1_555
O21 Sc3 2.163411 1_545
O22 Si0 1.632406 1_555
O23 Si1 1.595661 1_555
O23 Sc3 1.919405 1_555
O24 S4 1.479539 1_555
O25 Si8 1.663439 1_555
O26 S5 1.517748 1_555
O27 Si9 1.666106 1_555
O28 Si10 1.682655 1_555
O29 S6 1.471713 1_555
O30 S7 1.496641 1_555
O31 S8 1.474166 1_555
O32 S9 1.477414 1_555
O33 Si11 1.667047 1_555
O34 Si12 1.669827 1_555
O35 S10 1.500651 1_555
O36 Si12 1.630942 1_555
O37 S10 1.471574 1_555
O37 Sc4 2.134104 1_554
O38 S7 1.488079 1_555
O39 S8 1.469245 1_555
O39 Sc4 2.146668 1_554
O40 S9 1.478127 1_555
O41 Si11 1.593627 1_555
O41 Sc4 1.942534 1_554
O42 S5 1.471712 1_555
O42 Sc5 2.120048 1_555
O43 Si9 1.617285 1_555
O44 Si10 1.594688 1_555
O44 Sc5 1.939057 1_555
O45 S6 1.469116 1_555
O46 S4 1.468416 1_555
O46 Sc5 2.151147 1_555
O47 Si8 1.653515 1_555
O48 Si13 1.675302 1_555
O49 Si14 1.676390 1_555
O50 S11 1.500354 1_555
O51 Si15 1.656430 1_555
O52 Si16 1.645655 1_555
O53 S12 1.521157 1_555
O54 Si17 1.626931 1_555
O55 Si18 1.670050 1_555
O56 S13 1.496107 1_555
O57 Si19 1.649001 1_555
O58 Si20 1.639601 1_555
O59 S14 1.482524 1_555
O60 Si20 1.660821 1_555
O61 S14 1.467563 1_555
O62 Si17 1.674229 1_555
O63 Si18 1.648976 1_555
O64 S13 1.481748 1_555
O65 Si19 1.640038 1_555
O66 S11 1.459988 1_555
O67 Si15 1.637148 1_555
O68 Si16 1.618597 1_555
O69 S12 1.468042 1_555
O70 Si13 1.632200 1_555
O71 Si14 1.646472 1_555
O72 Si20 1.599720 1_555
O72 Sc0 1.986505 1_455
O73 S14 1.505117 1_555
O74 Si17 1.649310 1_555
O75 Si18 1.576565 1_555
O75 Sc0 2.091622 1_555
O76 S13 1.465716 1_555
O76 Sc0 2.256210 1_445
O77 Si19 1.634607 1_555
O78 S11 1.493955 1_555
O79 Si15 1.595469 1_555
O79 Sc1 2.025597 1_555
O80 Si16 1.612187 1_555
O81 S12 1.462458 1_555
O81 Sc1 2.297737 1_565
O82 Si13 1.576542 1_555
O82 Sc1 2.126407 1_565
O83 Si14 1.626097 1_555
O84 S4 1.496418 1_555
O85 Si8 1.606892 1_555
O85 Sc2 2.005939 1_555
O86 S5 1.458931 1_555
O86 Sc2 2.263397 1_455
O87 Si9 1.617671 1_555
O88 Si10 1.629840 1_555
O89 S6 1.468015 1_555
O89 Sc2 2.258824 1_565
O90 S7 1.482160 1_555
O90 Sc3 2.209059 1_555
O91 S8 1.495550 1_555
O92 S9 1.471615 1_555
O92 Sc3 2.284901 1_545
O93 Si11 1.629839 1_555
O94 Si12 1.608876 1_555
O95 S10 1.468684 1_555
O95 Sc3 2.266979 1_545
O96 Si6 1.648743 1_555
O97 Si7 1.671939 1_545
O98 Si4 1.689722 1_555
O99 Si5 1.651124 1_555
O100 S3 1.537709 1_555
O101 S2 1.494756 1_655
O102 Si2 1.699651 1_555
O103 Si3 1.654638 1_555
O104 S1 1.513052 1_555
O105 S0 1.547032 1_655
O106 Si0 1.698292 1_545
O107 Si1 1.695582 1_545
O108 Si13 1.662973 1_555
O109 Si14 1.598347 1_555
O109 Sc4 2.052230 1_555
O110 Si15 1.666326 1_555
O111 S11 1.480016 1_655
O111 Sc4 2.154186 1_555
O112 Si16 1.658407 1_545
O113 S12 1.489747 1_545
O113 Sc4 2.136575 1_555
O114 Si17 1.606005 1_545
O114 Sc5 2.055603 1_555
O115 Si18 1.640996 1_545
O116 S13 1.493956 1_555
O116 Sc5 2.143997 1_555
O117 Si19 1.619306 1_555
O118 S14 1.477186 1_555
O118 Sc5 2.172072 1_555
O119 Si20 1.650566 1_655
O120 Si12 1.638933 1_555
O121 S10 1.500846 1_555
O122 S8 1.487981 1_455
O123 S7 1.477977 1_555
O124 S9 1.516882 1_565
O125 Si11 1.643610 1_565
O126 S5 1.484666 1_565
O127 Si9 1.642873 1_565
O128 Si10 1.623043 1_555
O129 S6 1.535286 1_555
O130 Si8 1.635869 1_455
O131 S4 1.482579 1_555
O132 Si0 1.644431 1_555
O133 Si1 1.621627 1_555
O134 Si2 1.620589 1_555
O135 Si3 1.657081 1_555
O136 S0 1.469826 1_555
O137 S1 1.473561 1_555
O138 Si4 1.631395 1_555
O139 Si5 1.669556 1_555
O140 S2 1.490793 1_555
O141 S3 1.477279 1_555
O142 Si6 1.667223 1_565
O143 Si7 1.635676 1_555
