# generated using pymatgen
data_MgTiMnO4
_symmetry_space_group_name_H-M   'P 1'
_cell_length_a   5.68241233
_cell_length_b   5.68239982
_cell_length_c   5.68240082
_cell_angle_alpha   136.50739601
_cell_angle_beta   140.46540493
_cell_angle_gamma   60.21781060
_symmetry_Int_Tables_number   1
_chemical_formula_structural   MgTiMnO4
_chemical_formula_sum   'Mg1 Ti1 Mn1 O4'
_cell_volume   79.55533917
_cell_formula_units_Z   1
loop_
 _symmetry_equiv_pos_site_id
 _symmetry_equiv_pos_as_xyz
  1  'x, y, z'
loop_
 _atom_site_type_symbol
 _atom_site_label
 _atom_site_symmetry_multiplicity
 _atom_site_fract_x
 _atom_site_fract_y
 _atom_site_fract_z
 _atom_site_occupancy
  Mg  Mg0  1  0.54012112  0.54010018  0.00002094  1
  Ti  Ti0  1  0.75810759  0.25826931  0.49983728  1
  Mn  Mn0  1  0.96429166  0.96429951  0.99999315  1
  O  O0  1  0.55858203  0.05857788  0.50000314  1
  O  O1  1  0.28039577  0.28030668  0.00008909  1
  O  O2  1  0.97092429  0.47089643  0.50002786  1
  O  O3  1  0.74900655  0.74897901  0.00002754  1
loop_
_geom_bond_atom_site_label_1
_geom_bond_atom_site_label_2
_geom_bond_distance
_geom_bond_site_symmetry_2
Mg0 O2 2.038653 1_454
Mg0 O2 2.038698 1_555
Mg0 O3 2.053571 1_555
Mg0 O0 2.113136 1_565
Mg0 O0 2.113141 1_554
Mg0 O1 2.554133 1_555
Mn0 O2 2.106312 1_566
Mn0 O2 2.106316 1_555
Mn0 O3 2.116896 1_556
Mn0 O0 2.133603 1_565
Mn0 O0 2.133685 1_666
O0 Ti0 1.963246 1_555
O1 Ti0 1.933008 1_555
O1 Ti0 1.934929 1_454
O2 Ti0 2.090417 1_555
O3 Ti0 2.107294 1_565
O3 Ti0 2.107298 1_554
