# generated using pymatgen
data_Mn(PO3)4
_symmetry_space_group_name_H-M   'P 1'
_cell_length_a   7.46341946
_cell_length_b   7.46341946
_cell_length_c   10.04157746
_cell_angle_alpha   68.41448970
_cell_angle_beta   68.41448970
_cell_angle_gamma   66.39840334
_symmetry_Int_Tables_number   1
_chemical_formula_structural   Mn(PO3)4
_chemical_formula_sum   'Mn2 P8 O24'
_cell_volume   460.35957500
_cell_formula_units_Z   2
loop_
 _symmetry_equiv_pos_site_id
 _symmetry_equiv_pos_as_xyz
  1  'x, y, z'
loop_
 _atom_site_type_symbol
 _atom_site_label
 _atom_site_symmetry_multiplicity
 _atom_site_fract_x
 _atom_site_fract_y
 _atom_site_fract_z
 _atom_site_occupancy
  Mn  Mn0  1  0.50000000  0.00000000  0.00000000  1
  Mn  Mn1  1  0.00000000  0.50000000  0.50000000  1
  P  P0  1  0.75133000  0.26528400  0.47356100  1
  P  P1  1  0.73471600  0.24867000  0.02643900  1
  P  P2  1  0.69225700  0.66209800  0.81412400  1
  P  P3  1  0.26528400  0.75133000  0.97356100  1
  P  P4  1  0.24867000  0.73471600  0.52643900  1
  P  P5  1  0.33790200  0.30774300  0.68587600  1
  P  P6  1  0.66209800  0.69225700  0.31412400  1
  P  P7  1  0.30774300  0.33790200  0.18587600  1
  O  O0  1  0.66539500  0.46287100  0.34685300  1
  O  O1  1  0.19831300  0.34120100  0.34333000  1
  O  O2  1  0.80168700  0.65879900  0.65667000  1
  O  O3  1  0.82225800  0.33588200  0.56519800  1
  O  O4  1  0.33588200  0.82225800  0.06519800  1
  O  O5  1  0.46287100  0.66539500  0.84685300  1
  O  O6  1  0.30964700  0.16238200  0.14360800  1
  O  O7  1  0.20997800  0.54757400  0.07723800  1
  O  O8  1  0.54757400  0.20997800  0.57723800  1
  O  O9  1  0.09894400  0.88896400  0.90045900  1
  O  O10  1  0.33460500  0.53712900  0.65314700  1
  O  O11  1  0.34120100  0.19831300  0.84333000  1
  O  O12  1  0.83761800  0.69035300  0.35639200  1
  O  O13  1  0.11103600  0.90105600  0.59954100  1
  O  O14  1  0.88896400  0.09894400  0.40045900  1
  O  O15  1  0.66411800  0.17774200  0.93480200  1
  O  O16  1  0.65879900  0.80168700  0.15667000  1
  O  O17  1  0.17774200  0.66411800  0.43480200  1
  O  O18  1  0.90105600  0.11103600  0.09954100  1
  O  O19  1  0.45242600  0.79002200  0.42276200  1
  O  O20  1  0.79002200  0.45242600  0.92276200  1
  O  O21  1  0.69035300  0.83761800  0.85639200  1
  O  O22  1  0.53712900  0.33460500  0.15314700  1
  O  O23  1  0.16238200  0.30964700  0.64360800  1
loop_
_geom_bond_atom_site_label_1
_geom_bond_atom_site_label_2
_geom_bond_distance
_geom_bond_site_symmetry_2
Mn0 O15 1.939278 1_554
Mn0 O4 1.939278 1_545
Mn0 O6 1.991586 1_555
Mn0 O21 1.991586 1_544
Mn0 O11 2.079497 1_554
Mn0 O16 2.079497 1_545
Mn1 O17 1.939278 1_555
Mn1 O3 1.939278 1_455
Mn1 O23 1.991586 1_555
Mn1 O12 1.991586 1_455
Mn1 O1 2.079497 1_555
Mn1 O2 2.079497 1_455
O0 P6 1.611771 1_555
O0 P0 1.633224 1_555
O1 P7 1.493285 1_555
O2 P2 1.493285 1_555
O3 P0 1.530712 1_555
O4 P3 1.530712 1_554
O5 P2 1.611771 1_555
O5 P3 1.633224 1_555
O6 P7 1.512001 1_555
O7 P7 1.608284 1_555
O7 P3 1.608845 1_554
O8 P5 1.608284 1_555
O8 P0 1.608845 1_555
O9 P3 1.493256 1_555
O10 P5 1.611771 1_555
O10 P4 1.633224 1_555
O11 P5 1.493285 1_555
O12 P6 1.512001 1_555
O13 P4 1.493256 1_555
O14 P0 1.493256 1_555
O15 P1 1.530712 1_556
O16 P6 1.493285 1_555
O17 P4 1.530712 1_555
O18 P1 1.493256 1_555
O19 P6 1.608284 1_555
O19 P4 1.608845 1_555
O20 P2 1.608284 1_555
O20 P1 1.608845 1_556
O21 P2 1.512001 1_555
O22 P7 1.611771 1_555
O22 P1 1.633224 1_555
O23 P5 1.512001 1_555
