# generated using pymatgen
data_Na14Y4Zn4Si5S7O48
_symmetry_space_group_name_H-M   'P 1'
_cell_length_a   18.74811991
_cell_length_b   9.31551346
_cell_length_c   22.99054180
_cell_angle_alpha   90.12170995
_cell_angle_beta   90.76039118
_cell_angle_gamma   119.99472807
_symmetry_Int_Tables_number   1
_chemical_formula_structural   Na14Y4Zn4Si5S7O48
_chemical_formula_sum   'Na42 Y12 Zn12 Si15 S21 O144'
_cell_volume   3477.01822002
_cell_formula_units_Z   3
loop_
 _symmetry_equiv_pos_site_id
 _symmetry_equiv_pos_as_xyz
  1  'x, y, z'
loop_
 _atom_site_type_symbol
 _atom_site_label
 _atom_site_symmetry_multiplicity
 _atom_site_fract_x
 _atom_site_fract_y
 _atom_site_fract_z
 _atom_site_occupancy
  Na  Na0  1  0.80747326  0.99006184  0.25255805  1
  Na  Na1  1  0.18336140  0.34808402  0.25354068  1
  Na  Na2  1  0.68618874  0.36082096  0.25317390  1
  Na  Na3  1  0.00035865  0.64943005  0.24333461  1
  Na  Na4  1  0.51264361  0.65211166  0.24179238  1
  Na  Na5  1  0.31834337  0.62224981  0.75522915  1
  Na  Na6  1  0.01196671  0.37081840  0.74244676  1
  Na  Na7  1  0.49956623  0.36852075  0.74334748  1
  Na  Na8  1  0.18990259  0.02085261  0.75176012  1
  Na  Na9  1  0.66930985  0.99739206  0.75059087  1
  Na  Na10  1  0.14744356  0.32685228  0.58236217  1
  Na  Na11  1  0.65117154  0.31918133  0.58193174  1
  Na  Na12  1  0.33033224  0.98430821  0.59192292  1
  Na  Na13  1  0.83230242  0.99575882  0.58479458  1
  Na  Na14  1  0.15611663  0.99114397  0.07351457  1
  Na  Na15  1  0.64452257  0.96481440  0.07615460  1
  Na  Na16  1  0.33437757  0.67083267  0.07935442  1
  Na  Na17  1  0.82827180  0.67524203  0.08516887  1
  Na  Na18  1  0.48322259  0.68063598  0.91736209  1
  Na  Na19  1  0.99118122  0.68177882  0.91502300  1
  Na  Na20  1  0.34429024  0.03806434  0.90959655  1
  Na  Na21  1  0.84218757  0.03380793  0.91123918  1
  Na  Na22  1  0.17148772  0.28163395  0.91383141  1
  Na  Na23  1  0.66148765  0.27898858  0.91288752  1
  Na  Na24  1  0.49183836  0.30131391  0.41948560  1
  Na  Na25  1  0.98452804  0.29283552  0.43234949  1
  Na  Na26  1  0.16842675  0.05303863  0.42224996  1
  Na  Na27  1  0.67107311  0.06239058  0.41994173  1
  Na  Na28  1  0.34559437  0.65072531  0.41720509  1
  Na  Na29  1  0.84075458  0.64629935  0.41558577  1
  Na  Na30  1  0.01362323  0.02073854  0.50431106  1
  Na  Na31  1  0.51636779  0.00929281  0.49907810  1
  Na  Na32  1  0.01640929  0.02570982  0.99240069  1
  Na  Na33  1  0.51277982  0.00502614  0.99731451  1
  Na  Na34  1  0.32805090  0.33413194  0.82824185  1
  Na  Na35  1  0.81661638  0.32569415  0.83420257  1
  Na  Na36  1  0.32003856  0.30894625  0.33626041  1
  Na  Na37  1  0.81680476  0.32067089  0.33675405  1
  Na  Na38  1  0.16855941  0.66842897  0.16366615  1
  Na  Na39  1  0.65030431  0.64369265  0.16301653  1
  Na  Na40  1  0.15387962  0.65755226  0.66759580  1
  Na  Na41  1  0.65670696  0.66595246  0.67237969  1
  Y  Y0  1  0.00853527  0.01510256  0.64908897  1
  Y  Y1  1  0.50689474  0.99700797  0.65140225  1
  Y  Y2  1  0.00693597  0.00844759  0.14880796  1
  Y  Y3  1  0.50852772  0.00175565  0.14796559  1
  Y  Y4  1  0.82990098  0.33058281  0.68298563  1
  Y  Y5  1  0.33077937  0.32896938  0.18203665  1
  Y  Y6  1  0.16042918  0.65706590  0.01380968  1
  Y  Y7  1  0.65613578  0.65620365  0.01870299  1
  Y  Y8  1  0.15745877  0.66040470  0.52066990  1
  Y  Y9  1  0.66050654  0.66339837  0.51433269  1
  Y  Y10  1  0.17085430  0.67332204  0.31861625  1
  Y  Y11  1  0.66678814  0.66673874  0.81734574  1
  Zn  Zn0  1  0.01972029  0.03096317  0.34730651  1
  Zn  Zn1  1  0.52710340  0.04434498  0.34361230  1
  Zn  Zn2  1  0.02497744  0.00701855  0.84362827  1
  Zn  Zn3  1  0.52771248  0.98103764  0.83641435  1
  Zn  Zn4  1  0.32223116  0.33377631  0.68860208  1
  Zn  Zn5  1  0.80525674  0.29042012  0.17987489  1
  Zn  Zn6  1  0.32446129  0.33506914  0.99091022  1
  Zn  Zn7  1  0.81437353  0.30094885  0.98736994  1
  Zn  Zn8  1  0.31390764  0.33323316  0.49075321  1
  Zn  Zn9  1  0.82663071  0.31678605  0.49650469  1
  Zn  Zn10  1  0.66675771  0.66502709  0.32168055  1
  Zn  Zn11  1  0.17123172  0.67455080  0.82006894  1
  Si  Si0  1  0.15095547  0.99639019  0.25182083  1
  Si  Si1  1  0.65465866  0.99016663  0.25392217  1
  Si  Si2  1  0.15226072  0.31867818  0.75483346  1
  Si  Si3  1  0.65195068  0.30376937  0.75206388  1
  Si  Si4  1  0.49271602  0.68278072  0.75206486  1
  Si  Si5  1  0.97913916  0.32969797  0.58201693  1
  Si  Si6  1  0.19183374  0.04556514  0.58508940  1
  Si  Si7  1  0.68145107  0.03027904  0.57933835  1
  Si  Si8  1  0.47850879  0.62618572  0.08231749  1
  Si  Si9  1  0.18193246  0.33562936  0.08195017  1
  Si  Si10  1  0.68863488  0.34139524  0.08427546  1
  Si  Si11  1  0.16849595  0.96723056  0.91515831  1
  Si  Si12  1  0.66970140  0.97675265  0.91733727  1
  Si  Si13  1  0.16758017  0.36225108  0.41515756  1
  Si  Si14  1  0.66818658  0.36997169  0.41310903  1
  S  S0  1  0.35397787  0.70835324  0.25286247  1
  S  S1  1  0.85356340  0.70630253  0.25230846  1
  S  S2  1  0.99644233  0.29711625  0.25254101  1
  S  S3  1  0.50022205  0.29862151  0.25469802  1
  S  S4  1  0.00062017  0.70250950  0.75449535  1
  S  S5  1  0.35097017  0.99666686  0.75195395  1
  S  S6  1  0.85551392  0.00145200  0.75287260  1
  S  S7  1  0.47704321  0.33187378  0.58107733  1
  S  S8  1  0.33504679  0.63255988  0.58084083  1
  S  S9  1  0.83247507  0.63162755  0.57857529  1
  S  S10  1  0.97711495  0.61960279  0.08463671  1
  S  S11  1  0.33204771  0.03122336  0.07983654  1
  S  S12  1  0.83526831  0.04136589  0.08328972  1
  S  S13  1  0.31660705  0.67047669  0.91550526  1
  S  S14  1  0.82163494  0.67194010  0.91957436  1
  S  S15  1  0.01179345  0.36053782  0.91340751  1
  S  S16  1  0.51162852  0.35650493  0.91483756  1
  S  S17  1  0.32230034  0.97272342  0.41884554  1
  S  S18  1  0.81821916  0.96376911  0.41256760  1
  S  S19  1  0.01277709  0.66699738  0.41306387  1
  S  S20  1  0.51283417  0.66426056  0.41219900  1
  O  O0  1  0.10595617  0.01872828  0.30896455  1
  O  O1  1  0.61645479  0.03294093  0.31047049  1
  O  O2  1  0.40117811  0.79790899  0.30536299  1
  O  O3  1  0.90400106  0.79710632  0.30435127  1
  O  O4  1  0.48963421  0.20214194  0.30870560  1
  O  O5  1  0.98350175  0.19630862  0.30566887  1
  O  O6  1  0.11100318  0.20155781  0.81157778  1
  O  O7  1  0.60703119  0.19510637  0.81055909  1
  O  O8  1  0.47199455  0.75318048  0.81209543  1
  O  O9  1  0.98928120  0.77589437  0.80892542  1
  O  O10  1  0.40100181  0.01044911  0.80369088  1
  O  O11  1  0.90367755  0.00857331  0.80526639  1
  O  O12  1  0.39011614  0.97859962  0.69758395  1
  O  O13  1  0.89323791  0.98457857  0.69890920  1
  O  O14  1  0.09299718  0.23611293  0.69632780  1
  O  O15  1  0.59756039  0.22150579  0.69187011  1
  O  O16  1  0.00528524  0.80355960  0.70369080  1
  O  O17  1  0.51192627  0.81454186  0.69987322  1
  O  O18  1  0.39166186  0.80051005  0.19905634  1
  O  O19  1  0.89277018  0.80618721  0.19865923  1
  O  O20  1  0.00805076  0.21327660  0.20150835  1
  O  O21  1  0.50506895  0.20763531  0.20346871  1
  O  O22  1  0.09541273  0.97200697  0.19246233  1
  O  O23  1  0.59707856  0.95903234  0.19542150  1
  O  O24  1  0.44014704  0.34925340  0.63499469  1
  O  O25  1  0.93667633  0.34568005  0.64141038  1
  O  O26  1  0.25033752  0.13964579  0.64202608  1
  O  O27  1  0.73687411  0.11945823  0.63828486  1
  O  O28  1  0.32820595  0.53536384  0.63319289  1
  O  O29  1  0.82166786  0.52657900  0.62998691  1
  O  O30  1  0.43897966  0.53023210  0.14356540  1
  O  O31  1  0.94047758  0.52818777  0.13835842  1
  O  O32  1  0.32097096  0.11369872  0.13150015  1
  O  O33  1  0.83049721  0.12435881  0.13742255  1
  O  O34  1  0.23473139  0.35601527  0.14238119  1
  O  O35  1  0.74452402  0.37670526  0.14439818  1
  O  O36  1  0.22269182  0.30297685  0.02441305  1
  O  O37  1  0.72938463  0.31390942  0.02598755  1
  O  O38  1  0.42310184  0.52880458  0.02450020  1
  O  O39  1  0.93063126  0.53387254  0.03108483  1
  O  O40  1  0.34209451  0.12523247  0.02635171  1
  O  O41  1  0.84774508  0.14126483  0.03058267  1
  O  O42  1  0.22583893  0.14074203  0.52268844  1
  O  O43  1  0.72187943  0.13936974  0.52025183  1
  O  O44  1  0.34790712  0.56074308  0.52662880  1
  O  O45  1  0.84328149  0.55865657  0.52491095  1
  O  O46  1  0.43116115  0.32758077  0.52764802  1
  O  O47  1  0.92724647  0.32074396  0.52232892  1
  O  O48  1  0.27358534  0.68232275  0.96882378  1
  O  O49  1  0.78244410  0.69193127  0.97283951  1
  O  O50  1  0.06801178  0.43972217  0.96514163  1
  O  O51  1  0.56818417  0.43892447  0.96587323  1
  O  O52  1  0.15092246  0.85641809  0.97488551  1
  O  O53  1  0.66013310  0.86645452  0.97497592  1
  O  O54  1  0.28150763  0.87162085  0.47095882  1
  O  O55  1  0.77705861  0.86356906  0.46550755  1
  O  O56  1  0.15665681  0.45974763  0.47042414  1
  O  O57  1  0.65251726  0.45191797  0.47153759  1
  O  O58  1  0.06956313  0.69815496  0.46367790  1
  O  O59  1  0.56921414  0.69715639  0.46351166  1
  O  O60  1  0.05374814  0.64772017  0.36022527  1
  O  O61  1  0.55190093  0.64231065  0.35952981  1
  O  O62  1  0.26475567  0.89127108  0.36758938  1
  O  O63  1  0.76520273  0.88207782  0.36036809  1
  O  O64  1  0.18005712  0.46828866  0.35521599  1
  O  O65  1  0.67913500  0.48698285  0.35606166  1
  O  O66  1  0.05133050  0.46115970  0.86118567  1
  O  O67  1  0.55307840  0.45955904  0.86283043  1
  O  O68  1  0.17865460  0.86847361  0.85905673  1
  O  O69  1  0.68409624  0.89156658  0.85967252  1
  O  O70  1  0.26372789  0.64625538  0.86342458  1
  O  O71  1  0.76446545  0.63916001  0.86929012  1
  O  O72  1  0.00098515  0.81323356  0.40928107  1
  O  O73  1  0.49947453  0.80886389  0.40882793  1
  O  O74  1  0.40138394  0.97576965  0.41091445  1
  O  O75  1  0.89985112  0.97280209  0.40879597  1
  O  O76  1  0.08188630  0.17721991  0.41471159  1
  O  O77  1  0.58221691  0.18357832  0.41188320  1
  O  O78  1  0.99778154  0.18860635  0.91015870  1
  O  O79  1  0.49927020  0.18737904  0.91060698  1
  O  O80  1  0.08274465  0.98173650  0.91195645  1
  O  O81  1  0.58463140  0.98921368  0.91419065  1
  O  O82  1  0.39702144  0.82580400  0.91368985  1
  O  O83  1  0.90167858  0.82809609  0.91210541  1
  O  O84  1  0.47955479  0.17109419  0.58224771  1
  O  O85  1  0.98012317  0.15109741  0.58191714  1
  O  O86  1  0.10004044  0.02967834  0.58936074  1
  O  O87  1  0.59162582  0.02193613  0.58176170  1
  O  O88  1  0.40385487  0.80731565  0.58510484  1
  O  O89  1  0.90348368  0.80228738  0.58698009  1
  O  O90  1  0.48128785  0.80886435  0.08279603  1
  O  O91  1  0.97921611  0.78610719  0.08622365  1
  O  O92  1  0.40242896  0.00240629  0.08830427  1
  O  O93  1  0.90434791  0.00563875  0.08802680  1
  O  O94  1  0.09062404  0.16392279  0.08367900  1
  O  O95  1  0.59828954  0.17093244  0.08806780  1
  O  O96  1  0.34359517  0.14943053  0.74873504  1
  O  O97  1  0.85247293  0.16070275  0.75105191  1
  O  O98  1  0.24236898  0.32971638  0.74967851  1
  O  O99  1  0.74015900  0.30380853  0.75018696  1
  O  O100  1  0.41317932  0.49617765  0.74184496  1
  O  O101  1  0.92914257  0.52988357  0.75003355  1
  O  O102  1  0.34941947  0.54151381  0.25136887  1
  O  O103  1  0.84988423  0.54214824  0.24919098  1
  O  O104  1  0.42873540  0.32759447  0.25069748  1
  O  O105  1  0.92529708  0.32313078  0.24451182  1
  O  O106  1  0.24102665  0.16827747  0.25001206  1
  O  O107  1  0.74836995  0.15771603  0.24836656  1
  O  O108  1  0.32743713  0.52244201  0.91856792  1
  O  O109  1  0.83612055  0.52839615  0.92302087  1
  O  O110  1  0.43168878  0.35206834  0.92053411  1
  O  O111  1  0.93220000  0.35690513  0.92202682  1
  O  O112  1  0.25252710  0.15293738  0.91933933  1
  O  O113  1  0.75470591  0.16297569  0.91903059  1
  O  O114  1  0.33592217  0.14392707  0.42227824  1
  O  O115  1  0.82951694  0.13347044  0.41652500  1
  O  O116  1  0.25263739  0.34770568  0.41943006  1
  O  O117  1  0.75175955  0.35281311  0.41693070  1
  O  O118  1  0.43280803  0.50873171  0.42039228  1
  O  O119  1  0.93283876  0.51307716  0.41862897  1
  O  O120  1  0.18074018  0.51130766  0.07975936  1
  O  O121  1  0.68521551  0.51443264  0.08051181  1
  O  O122  1  0.06566912  0.65989402  0.08192906  1
  O  O123  1  0.57572502  0.67099804  0.08210553  1
  O  O124  1  0.25453404  0.86373269  0.07700274  1
  O  O125  1  0.75713890  0.87768194  0.07931659  1
  O  O126  1  0.18845152  0.86453633  0.58211224  1
  O  O127  1  0.68087354  0.85306148  0.57738520  1
  O  O128  1  0.25661608  0.63838820  0.57605392  1
  O  O129  1  0.75563915  0.64440866  0.57535637  1
  O  O130  1  0.07638934  0.48009432  0.58227685  1
  O  O131  1  0.56569469  0.47104766  0.57906749  1
  O  O132  1  0.15261737  0.82061995  0.25348640  1
  O  O133  1  0.66224606  0.82041992  0.26103303  1
  O  O134  1  0.26641558  0.67430063  0.25346793  1
  O  O135  1  0.76882390  0.68244369  0.25366209  1
  O  O136  1  0.07407265  0.46306648  0.25689786  1
  O  O137  1  0.57765352  0.46346368  0.25602978  1
  O  O138  1  0.16115362  0.50509984  0.76122010  1
  O  O139  1  0.65960608  0.48612077  0.75479078  1
  O  O140  1  0.07807300  0.69410462  0.75588407  1
  O  O141  1  0.57858600  0.67430822  0.75666329  1
  O  O142  1  0.26611298  0.84731322  0.75286975  1
  O  O143  1  0.76873460  0.86087557  0.75394256  1
loop_
_geom_bond_atom_site_label_1
_geom_bond_atom_site_label_2
_geom_bond_distance
_geom_bond_site_symmetry_2
Na0 O107 2.324736 1_565
Na0 O133 2.379484 1_555
Na0 O135 2.581118 1_555
Na0 O63 2.655017 1_555
Na0 O105 2.775097 1_565
Na0 O33 2.874484 1_565
Na1 O106 2.406928 1_555
Na1 O64 2.604618 1_555
Na1 O134 2.632174 1_555
Na1 O102 2.708767 1_555
Na1 O34 2.731147 1_555
Na1 O136 2.747666 1_555
Na2 O135 2.595238 1_555
Na2 O137 2.647210 1_555
Na2 O103 2.665566 1_555
Na2 O65 2.673191 1_555
Na2 O107 2.675611 1_555
Na2 O35 2.717434 1_555
Na2 O1 2.973864 1_555
Na3 O103 2.483405 1_455
Na3 O132 2.485030 1_555
Na3 O105 2.635342 1_455
Na3 O31 2.647547 1_455
Na3 O136 2.722285 1_555
Na3 O60 2.858128 1_555
Na3 O22 2.879164 1_555
Na4 O133 2.467371 1_555
Na4 O30 2.575818 1_555
Na4 O137 2.610428 1_555
Na4 O104 2.629019 1_555
Na4 O102 2.709426 1_555
Na4 O23 2.710996 1_555
Na4 O61 2.809344 1_555
Na5 O98 2.363059 1_555
Na5 O138 2.586625 1_555
Na5 O100 2.595383 1_555
Na5 O142 2.721991 1_555
Na5 O70 2.753207 1_555
Na5 O8 2.806326 1_555
Na5 O28 2.952100 1_555
Na6 O138 2.457964 1_555
Na6 O101 2.635123 1_455
Na6 O14 2.636264 1_555
Na6 O140 2.637251 1_555
Na6 O97 2.641418 1_455
Na6 O25 2.650143 1_455
Na6 O66 2.832115 1_555
Na7 O100 2.441890 1_555
Na7 O141 2.483480 1_555
Na7 O96 2.602903 1_555
Na7 O139 2.638820 1_555
Na7 O24 2.683890 1_555
Na7 O67 2.887540 1_555
Na8 O96 2.509410 1_555
Na8 O98 2.533848 1_555
Na8 O142 2.638977 1_545
Na8 O140 2.701004 1_545
Na8 O26 2.776188 1_555
Na8 O68 2.806055 1_545
Na9 O99 2.474213 1_565
Na9 O141 2.619259 1_555
Na9 O143 2.732134 1_555
Na9 O69 2.757403 1_555
Na9 O17 2.800427 1_555
Na9 O27 2.867627 1_565
Na10 O130 2.390338 1_555
Na10 O86 2.454621 1_555
Na10 O128 2.589062 1_555
Na10 O85 2.717543 1_455
Na10 O14 2.799867 1_555
Na10 O56 2.827891 1_555
Na11 O87 2.413032 1_555
Na11 O131 2.614996 1_555
Na11 O129 2.667328 1_555
Na11 O15 2.718350 1_555
Na11 O84 2.796098 1_555
Na11 O57 2.820459 1_555
Na11 O43 2.972187 1_555
Na11 O29 2.982171 1_555
Na12 O126 2.320980 1_555
Na12 O84 2.460676 1_565
Na12 O88 2.630593 1_555
Na12 O12 2.673577 1_555
Na12 O26 2.806904 1_565
Na12 O128 2.820632 1_555
Na12 O54 2.938242 1_555
Na13 O85 2.402996 1_565
Na13 O127 2.463519 1_555
Na13 O89 2.726736 1_555
Na13 O129 2.847921 1_555
Na13 O27 2.855651 1_565
Na13 O13 2.870472 1_555
Na13 O55 2.957249 1_555
Na14 O94 2.476853 1_565
Na14 O52 2.566355 1_554
Na14 O124 2.646855 1_555
Na14 O122 2.685947 1_555
Na14 O36 2.774301 1_565
Na14 O91 2.903014 1_455
Na14 O22 2.947419 1_555
Na14 O32 2.998212 1_565
Na15 O123 2.377043 1_555
Na15 O95 2.486202 1_565
Na15 O53 2.571640 1_554
Na15 O125 2.613721 1_555
Na15 O90 2.658503 1_555
Na15 O23 2.886203 1_555
Na16 O90 2.387161 1_555
Na16 O120 2.495240 1_555
Na16 O92 2.694593 1_565
Na16 O48 2.795391 1_554
Na16 O124 2.856658 1_555
Na16 O38 2.890836 1_555
Na16 O18 2.965897 1_555
Na16 O34 2.966882 1_555
Na17 O121 2.328828 1_555
Na17 O91 2.480230 1_555
Na17 O93 2.668157 1_565
Na17 O49 2.740093 1_554
Na17 O35 2.785789 1_555
Na17 O125 2.804256 1_555
Na17 O19 2.861131 1_555
Na18 O108 2.530169 1_555
Na18 O81 2.534427 1_555
Na18 O8 2.548280 1_555
Na18 O82 2.574820 1_555
Na18 O110 2.711683 1_555
Na18 O38 2.798687 1_556
Na19 O80 2.442906 1_655
Na19 O109 2.527606 1_555
Na19 O9 2.599583 1_555
Na19 O83 2.638602 1_555
Na19 O111 2.658645 1_555
Na19 O52 2.918831 1_655
Na19 O39 2.973077 1_556
Na20 O112 2.450494 1_555
Na20 O79 2.516921 1_555
Na20 O110 2.549139 1_555
Na20 O82 2.617018 1_545
Na20 O10 2.732135 1_555
Na20 O40 2.809526 1_556
Na20 O68 2.912127 1_545
Na21 O113 2.479914 1_555
Na21 O78 2.526997 1_555
Na21 O111 2.622146 1_555
Na21 O83 2.655790 1_545
Na21 O11 2.768255 1_555
Na21 O69 2.814146 1_545
Na21 O41 2.901316 1_556
Na22 O112 2.361876 1_555
Na22 O80 2.434131 1_545
Na22 O6 2.538690 1_555
Na22 O108 2.650515 1_555
Na22 O36 2.677085 1_556
Na22 O78 2.921404 1_455
Na23 O81 2.340172 1_545
Na23 O113 2.474829 1_555
Na23 O7 2.513641 1_555
Na23 O79 2.716792 1_555
Na23 O37 2.825231 1_556
Na23 O109 2.922927 1_555
Na24 O77 2.443292 1_555
Na24 O114 2.533525 1_555
Na24 O74 2.637808 1_545
Na24 O118 2.664044 1_555
Na24 O4 2.700164 1_555
Na24 O46 2.808650 1_555
Na24 O57 2.854235 1_555
Na25 O47 2.415813 1_555
Na25 O115 2.537328 1_555
Na25 O76 2.576705 1_655
Na25 O75 2.634331 1_545
Na25 O119 2.688955 1_555
Na25 O56 2.915531 1_655
Na25 O5 3.043257 1_555
Na26 O116 2.387906 1_555
Na26 O76 2.422942 1_555
Na26 O42 2.490970 1_555
Na26 O0 2.792577 1_555
Na26 O72 2.809741 1_545
Na26 O114 2.814159 1_555
Na27 O117 2.350352 1_555
Na27 O77 2.440704 1_555
Na27 O43 2.447803 1_555
Na27 O1 2.665690 1_555
Na27 O115 2.703411 1_555
Na27 O73 2.893424 1_545
Na28 O116 2.468253 1_555
Na28 O73 2.509367 1_555
Na28 O118 2.566757 1_555
Na28 O44 2.660021 1_555
Na28 O74 2.668844 1_555
Na28 O2 2.869670 1_555
Na29 O117 2.387526 1_555
Na29 O119 2.581643 1_555
Na29 O72 2.608677 1_655
Na29 O45 2.651500 1_555
Na29 O75 2.672108 1_555
Na29 O3 2.889603 1_555
Na29 O65 2.939680 1_555
Na30 O85 2.415706 1_455
Na30 O76 2.494716 1_555
Na30 O86 2.497103 1_555
Na30 O89 2.817184 1_445
Na30 O72 2.841898 1_545
Na30 O75 2.913844 1_445
Na31 O87 2.319466 1_555
Na31 O77 2.500835 1_555
Na31 O73 2.695631 1_545
Na31 O84 2.732628 1_555
Na31 O88 2.838960 1_545
Na31 O74 2.839258 1_545
Na32 O80 2.387925 1_545
Na32 O94 2.473338 1_556
Na32 O78 2.554266 1_455
Na32 O83 2.710073 1_445
Na32 O91 2.936870 1_446
Na32 O93 3.002312 1_456
Na33 O81 2.398753 1_545
Na33 O90 2.552919 1_546
Na33 O95 2.594658 1_556
Na33 O79 2.711972 1_555
Na33 O82 2.728834 1_545
Na33 O92 2.953217 1_556
Na34 O98 2.387708 1_555
Na34 O100 2.541534 1_555
Na34 O96 2.624635 1_555
Na34 O112 2.635241 1_555
Na34 O108 2.719405 1_555
Na34 O110 2.805341 1_555
Na35 O99 2.336638 1_555
Na35 O113 2.400389 1_555
Na35 O109 2.672528 1_555
Na35 O97 2.742885 1_555
Na35 O101 2.815158 1_555
Na35 O111 2.847565 1_555
Na36 O106 2.411127 1_555
Na36 O116 2.429143 1_555
Na36 O114 2.611063 1_555
Na36 O118 2.759875 1_555
Na36 O102 2.767586 1_555
Na36 O104 2.794027 1_555
Na37 O117 2.323132 1_555
Na37 O107 2.459715 1_555
Na37 O115 2.622763 1_555
Na37 O103 2.732293 1_555
Na37 O119 2.732528 1_555
Na37 O105 2.950127 1_555
Na38 O120 2.499929 1_555
Na38 O132 2.605996 1_555
Na38 O122 2.647354 1_555
Na38 O124 2.654529 1_555
Na38 O134 2.725805 1_555
Na38 O136 2.849920 1_555
Na39 O123 2.401791 1_555
Na39 O121 2.507491 1_555
Na39 O137 2.655747 1_555
Na39 O133 2.727786 1_555
Na39 O125 2.867213 1_555
Na39 O135 2.912491 1_555
Na40 O130 2.490046 1_555
Na40 O126 2.607821 1_555
Na40 O140 2.610249 1_555
Na40 O138 2.620586 1_555
Na40 O142 2.748215 1_555
Na40 O128 2.936140 1_555
Na41 O141 2.468730 1_555
Na41 O139 2.549690 1_555
Na41 O127 2.695547 1_555
Na41 O143 2.700479 1_555
Na41 O131 2.756644 1_555
Na41 O129 2.989362 1_555
O0 Si0 1.638540 1_545
O0 Zn0 1.904099 1_555
O1 Si1 1.633970 1_545
O1 Zn1 1.899872 1_555
O2 S0 1.471459 1_555
O2 Zn1 2.476794 1_565
O3 S1 1.485670 1_555
O3 Zn0 2.374110 1_665
O4 S3 1.490571 1_555
O4 Zn1 2.078653 1_555
O5 S2 1.489153 1_555
O5 Zn0 2.187383 1_655
O6 Si2 1.636963 1_555
O6 Zn2 1.882343 1_555
O7 Si3 1.651052 1_555
O7 Zn3 1.898662 1_545
O8 Si4 1.658585 1_555
O8 Zn3 1.916189 1_555
O9 S4 1.492380 1_655
O9 Zn2 2.063461 1_665
O10 S5 1.469854 1_545
O11 S6 1.477036 1_555
O11 Zn2 2.435067 1_655
O12 S5 1.508775 1_555
O12 Y1 2.374273 1_555
O13 S6 1.482476 1_565
O13 Y0 2.349018 1_665
O14 Si2 1.654329 1_555
O14 Y0 2.147314 1_555
O15 Si3 1.648924 1_555
O15 Y1 2.126978 1_545
O16 S4 1.477533 1_555
O16 Y0 2.314180 1_565
O17 Si4 1.628437 1_555
O17 Y1 2.074971 1_555
O18 S0 1.479080 1_555
O18 Y3 2.380246 1_565
O19 S1 1.507490 1_555
O19 Y2 2.342432 1_665
O20 S2 1.485508 1_455
O20 Y2 2.249193 1_555
O21 S3 1.479679 1_555
O21 Y3 2.329568 1_555
O22 Si0 1.650086 1_555
O22 Y2 2.096262 1_565
O23 Si1 1.644738 1_555
O23 Y3 2.172392 1_565
O24 S7 1.474845 1_555
O24 Zn4 2.486230 1_555
O25 Si5 1.633092 1_555
O25 Y4 2.170397 1_555
O26 Si6 1.637233 1_555
O26 Zn4 1.936522 1_555
O27 Si7 1.643531 1_555
O27 Y4 2.116662 1_555
O28 S8 1.475647 1_555
O28 Zn4 2.228327 1_555
O29 S9 1.486196 1_555
O29 Y4 2.264574 1_555
O30 Si8 1.643694 1_555
O30 Y5 2.159734 1_555
O31 S10 1.471254 1_555
O32 S11 1.485401 1_555
O32 Y5 2.240741 1_555
O33 S12 1.490844 1_555
O33 Zn5 2.075407 1_555
O34 Si9 1.649431 1_555
O34 Y5 2.132669 1_555
O35 Si10 1.652804 1_555
O35 Zn5 1.871096 1_555
O36 Si9 1.638234 1_555
O36 Zn6 1.947496 1_554
O37 Si10 1.632885 1_555
O37 Zn7 1.889746 1_554
O38 Si8 1.638579 1_555
O38 Zn6 1.972974 1_554
O39 S10 1.478029 1_555
O39 Zn7 2.381777 1_554
O40 S11 1.469771 1_555
O40 Zn6 2.289092 1_554
O41 S12 1.477764 1_555
O41 Zn7 2.124039 1_554
O42 Si6 1.647797 1_555
O42 Zn8 1.886317 1_555
O43 Si7 1.647914 1_555
O43 Zn9 1.916630 1_555
O44 S8 1.491590 1_555
O44 Zn8 2.050910 1_555
O45 S9 1.471763 1_555
O45 Zn9 2.210366 1_555
O46 S7 1.479117 1_555
O46 Zn8 2.370896 1_555
O47 Si5 1.649094 1_555
O47 Zn9 1.952649 1_555
O48 S13 1.509981 1_555
O48 Y6 2.277247 1_556
O49 S14 1.494624 1_555
O49 Y7 2.471835 1_556
O50 S15 1.501774 1_555
O50 Y6 2.187406 1_556
O51 S16 1.496551 1_555
O51 Y7 2.211429 1_556
O52 Si11 1.654598 1_555
O52 Y6 2.148269 1_556
O53 Si12 1.634538 1_555
O53 Y7 2.171627 1_556
O54 S17 1.488737 1_555
O54 Y8 2.468042 1_555
O55 S18 1.502566 1_555
O55 Y9 2.347758 1_555
O56 Si13 1.633781 1_555
O56 Y8 2.188818 1_555
O57 Si14 1.644336 1_555
O57 Y9 2.136439 1_555
O58 S19 1.492808 1_555
O58 Y8 2.253896 1_555
O59 S20 1.498134 1_555
O59 Y9 2.209103 1_555
O60 S19 1.503243 1_555
O60 Y10 2.307700 1_555
O61 S20 1.488876 1_555
O61 Zn10 2.243614 1_555
O62 S17 1.507411 1_555
O62 Y10 2.202965 1_555
O63 S18 1.488448 1_555
O63 Zn10 2.122118 1_555
O64 Si13 1.647088 1_555
O64 Y10 2.172172 1_555
O65 Si14 1.655280 1_555
O65 Zn10 1.953208 1_555
O66 S15 1.484328 1_555
O66 Zn11 2.344109 1_555
O67 S16 1.496250 1_555
O67 Y11 2.305884 1_555
O68 Si11 1.650117 1_555
O68 Zn11 1.955676 1_555
O69 Si12 1.636859 1_555
O69 Y11 2.177650 1_555
O70 S13 1.486985 1_555
O70 Zn11 2.117189 1_555
O71 S14 1.488924 1_555
O71 Y11 2.293333 1_555
O72 S19 1.487721 1_555
O72 Zn0 2.362332 1_565
O73 S20 1.490156 1_555
O73 Zn1 2.495363 1_565
O74 S17 1.482393 1_555
O75 S18 1.493873 1_555
O75 Zn0 2.492519 1_665
O76 Si13 1.668223 1_555
O76 Zn0 1.992883 1_555
O77 Si14 1.677481 1_555
O77 Zn1 1.954961 1_555
O78 S15 1.489329 1_655
O79 S16 1.476178 1_555
O80 Si11 1.680004 1_555
O80 Zn2 1.976763 1_565
O81 Si12 1.656654 1_555
O81 Zn3 2.051691 1_555
O82 S13 1.479578 1_555
O83 S14 1.490916 1_555
O84 S7 1.522114 1_555
O84 Y1 2.498172 1_545
O85 Si5 1.673052 1_555
O85 Y0 2.221438 1_655
O86 Si6 1.656236 1_555
O86 Y0 2.162776 1_555
O87 Si7 1.648281 1_555
O87 Y1 2.200251 1_545
O88 S8 1.490026 1_555
O88 Y1 2.382218 1_555
O89 S9 1.487552 1_555
O89 Y0 2.420249 1_665
O90 Si8 1.676314 1_555
O90 Y3 2.187507 1_565
O91 S10 1.532104 1_555
O91 Y2 2.349800 1_665
O92 S11 1.482785 1_555
O92 Y3 2.403716 1_555
O93 S12 1.492421 1_555
O93 Y2 2.351763 1_655
O94 Si9 1.659786 1_555
O94 Y2 2.144987 1_555
O95 Si10 1.647246 1_555
O95 Y3 2.151994 1_555
O96 S5 1.498879 1_545
O96 Zn4 2.388273 1_555
O97 S6 1.513456 1_555
O97 Y4 2.407246 1_555
O98 Si2 1.646281 1_555
O98 Zn4 2.052892 1_555
O99 Si3 1.654693 1_555
O99 Y4 2.220599 1_555
O100 Si4 1.642485 1_555
O100 Zn4 2.012973 1_555
O101 S4 1.494430 1_655
O101 Y4 2.396407 1_555
O102 S0 1.513571 1_555
O102 Y5 2.421393 1_555
O103 S1 1.497408 1_555
O104 S3 1.495344 1_555
O104 Y5 2.410673 1_555
O105 S2 1.479451 1_555
O106 Si0 1.647991 1_545
O106 Y5 2.252962 1_555
O107 Si1 1.674578 1_545
O107 Zn5 1.969732 1_555
O108 S13 1.492604 1_555
O108 Zn6 2.394456 1_555
O109 S14 1.493677 1_555
O109 Zn7 2.451485 1_555
O110 S16 1.486043 1_555
O110 Zn6 2.540362 1_555
O111 S15 1.491491 1_655
O111 Zn7 2.519611 1_555
O112 Si11 1.659591 1_545
O112 Zn6 2.246418 1_555
O113 Si12 1.668705 1_545
O113 Zn7 1.969544 1_555
O114 S17 1.485494 1_545
O114 Zn8 2.547891 1_555
O115 S18 1.488735 1_545
O115 Zn9 2.526239 1_555
O116 Si13 1.668201 1_555
O116 Zn8 2.032802 1_555
O117 Si14 1.653800 1_555
O117 Zn9 2.415645 1_555
O118 S20 1.490262 1_555
O118 Zn8 2.592648 1_555
O119 S19 1.475019 1_655
O120 Si9 1.648689 1_555
O120 Y6 2.190426 1_555
O121 Si10 1.647327 1_555
O121 Y7 2.183576 1_555
O122 S10 1.510264 1_455
O122 Y6 2.393752 1_555
O123 Si8 1.654010 1_555
O123 Y7 2.163718 1_555
O124 S11 1.510147 1_565
O124 Y6 2.335357 1_555
O125 S12 1.497216 1_565
O125 Y7 2.407479 1_555
O126 Si6 1.656819 1_565
O126 Y8 2.193431 1_555
O127 Si7 1.645999 1_565
O127 Y9 2.160714 1_555
O128 S8 1.500924 1_555
O128 Y8 2.332124 1_555
O129 S9 1.504483 1_555
O129 Y9 2.330405 1_555
O130 Si5 1.653125 1_455
O130 Y8 2.156909 1_555
O131 S7 1.514338 1_555
O131 Y9 2.341441 1_555
O132 Si0 1.653701 1_555
O132 Y10 2.169343 1_555
O133 Si1 1.665167 1_555
O133 Zn10 2.043181 1_555
O134 S0 1.508549 1_555
O134 Y10 2.346963 1_555
O135 S1 1.490856 1_555
O135 Zn10 2.429711 1_555
O136 S2 1.504662 1_455
O136 Y10 2.347018 1_555
O137 S3 1.495379 1_555
O137 Zn10 2.319327 1_555
O138 Si2 1.665521 1_555
O138 Zn11 2.010942 1_555
O139 Si3 1.632680 1_555
O139 Y11 2.162291 1_555
O140 S4 1.492710 1_555
O140 Zn11 2.347759 1_555
O141 Si4 1.652800 1_555
O141 Y11 2.177517 1_555
O142 S5 1.501699 1_555
O142 Zn11 2.315678 1_555
O143 S6 1.494473 1_565
O143 Y11 2.382781 1_555
