# generated using pymatgen
data_AlICl6
_symmetry_space_group_name_H-M   'P 1'
_cell_length_a   6.17403614
_cell_length_b   7.16285662
_cell_length_c   11.20051481
_cell_angle_alpha   90.00000000
_cell_angle_beta   90.00000000
_cell_angle_gamma   98.82599345
_symmetry_Int_Tables_number   1
_chemical_formula_structural   AlICl6
_chemical_formula_sum   'Al2 I2 Cl12'
_cell_volume   489.46335736
_cell_formula_units_Z   2
loop_
 _symmetry_equiv_pos_site_id
 _symmetry_equiv_pos_as_xyz
  1  'x, y, z'
loop_
 _atom_site_type_symbol
 _atom_site_label
 _atom_site_symmetry_multiplicity
 _atom_site_fract_x
 _atom_site_fract_y
 _atom_site_fract_z
 _atom_site_occupancy
  Al  Al0  1  0.58590895  0.51590414  0.09031948  1
  Al  Al1  1  0.41409105  0.48409586  0.59031948  1
  I  I0  1  0.99509931  0.80432898  0.74598048  1
  I  I1  1  0.00490069  0.19567102  0.24598048  1
  Cl  Cl0  1  0.30439163  0.54721570  0.77017463  1
  Cl  Cl1  1  0.69560837  0.45278430  0.27017463  1
  Cl  Cl2  1  0.27454845  0.00737061  0.20833498  1
  Cl  Cl3  1  0.72545155  0.99262939  0.70833498  1
  Cl  Cl4  1  0.78974507  0.98092765  0.37031814  1
  Cl  Cl5  1  0.21025493  0.01907235  0.87031814  1
  Cl  Cl6  1  0.69847991  0.80188736  0.04860040  1
  Cl  Cl7  1  0.30152009  0.19811264  0.54860040  1
  Cl  Cl8  1  0.22805349  0.48940841  0.09879607  1
  Cl  Cl9  1  0.77194651  0.51059159  0.59879607  1
  Cl  Cl10  1  0.31972886  0.68113714  0.46847882  1
  Cl  Cl11  1  0.68027114  0.31886286  0.96847882  1
loop_
_geom_bond_atom_site_label_1
_geom_bond_atom_site_label_2
_geom_bond_distance
_geom_bond_site_symmetry_2
Al0 Cl11 2.108573 1_554
Al0 Cl6 2.112032 1_555
Al0 Cl8 2.190402 1_555
Al0 Cl1 2.194354 1_555
Al1 Cl10 2.108573 1_555
Al1 Cl7 2.112032 1_555
Al1 Cl9 2.190402 1_555
Al1 Cl0 2.194354 1_555
Cl0 I0 2.861969 1_455
Cl1 I1 2.861969 1_655
Cl2 I1 2.336158 1_555
Cl3 I0 2.336158 1_555
Cl4 I1 2.333028 1_665
Cl5 I0 2.333028 1_445
Cl8 I1 2.855373 1_555
Cl9 I0 2.855373 1_555
