# generated using pymatgen
data_Ca2BN2Cl
_symmetry_space_group_name_H-M   'P 1'
_cell_length_a   3.92043600
_cell_length_b   9.04461000
_cell_length_c   11.73074200
_cell_angle_alpha   90.00000000
_cell_angle_beta   90.00000000
_cell_angle_gamma   90.00000000
_symmetry_Int_Tables_number   1
_chemical_formula_structural   Ca2BN2Cl
_chemical_formula_sum   'Ca8 B4 N8 Cl4'
_cell_volume   415.95820628
_cell_formula_units_Z   4
loop_
 _symmetry_equiv_pos_site_id
 _symmetry_equiv_pos_as_xyz
  1  'x, y, z'
loop_
 _atom_site_type_symbol
 _atom_site_label
 _atom_site_symmetry_multiplicity
 _atom_site_fract_x
 _atom_site_fract_y
 _atom_site_fract_z
 _atom_site_occupancy
  Ca  Ca0  1  0.25000000  0.89164200  0.59018800  1
  Ca  Ca1  1  0.25000000  0.60835800  0.09018800  1
  Ca  Ca2  1  0.75000000  0.39164200  0.90981200  1
  Ca  Ca3  1  0.75000000  0.10835800  0.40981200  1
  Ca  Ca4  1  0.75000000  0.94926500  0.82969600  1
  Ca  Ca5  1  0.25000000  0.05073500  0.17030400  1
  Ca  Ca6  1  0.25000000  0.44926500  0.67030400  1
  Ca  Ca7  1  0.75000000  0.55073500  0.32969600  1
  B  B0  1  0.75000000  0.31821500  0.16549500  1
  B  B1  1  0.25000000  0.68178500  0.83450500  1
  B  B2  1  0.25000000  0.81821500  0.33450500  1
  B  B3  1  0.75000000  0.18178500  0.66549500  1
  N  N0  1  0.75000000  0.31653700  0.71292700  1
  N  N1  1  0.25000000  0.68346300  0.28707300  1
  N  N2  1  0.25000000  0.81653700  0.78707300  1
  N  N3  1  0.75000000  0.45718300  0.12244100  1
  N  N4  1  0.75000000  0.04281700  0.62244100  1
  N  N5  1  0.25000000  0.95718300  0.37755900  1
  N  N6  1  0.25000000  0.54281700  0.87755900  1
  N  N7  1  0.75000000  0.18346300  0.21292700  1
  Cl  Cl0  1  0.75000000  0.84738200  0.06117000  1
  Cl  Cl1  1  0.25000000  0.34738200  0.43883000  1
  Cl  Cl2  1  0.25000000  0.15261800  0.93883000  1
  Cl  Cl3  1  0.75000000  0.65261800  0.56117000  1
loop_
_geom_bond_atom_site_label_1
_geom_bond_atom_site_label_2
_geom_bond_distance
_geom_bond_site_symmetry_2
Ca0 N2 2.407432 1_555
Ca0 N4 2.419745 1_565
Ca0 N4 2.419745 1_465
Ca0 N5 2.563770 1_555
Ca0 Cl3 2.938035 1_455
Ca0 Cl3 2.938035 1_555
Ca1 N1 2.407432 1_555
Ca1 N3 2.419745 1_555
Ca1 N3 2.419745 1_455
Ca1 N6 2.563770 1_554
Ca1 Cl0 2.938035 1_555
Ca1 Cl0 2.938035 1_455
Ca2 N0 2.407432 1_555
Ca2 N6 2.419745 1_655
Ca2 N6 2.419745 1_555
Ca2 N3 2.563770 1_556
Ca2 Cl2 2.938035 1_655
Ca2 Cl2 2.938035 1_555
Ca3 N7 2.407432 1_555
Ca3 N5 2.419745 1_645
Ca3 N5 2.419745 1_545
Ca3 N4 2.563770 1_555
Ca3 Cl1 2.938035 1_555
Ca3 Cl1 2.938035 1_655
Ca4 N2 2.352358 1_555
Ca4 N2 2.352358 1_655
Ca4 N4 2.574287 1_565
Ca4 Cl0 2.867462 1_556
Ca4 Cl2 2.977291 1_665
Ca4 Cl2 2.977291 1_565
Ca5 N7 2.352358 1_555
Ca5 N7 2.352358 1_455
Ca5 N5 2.574287 1_545
Ca5 Cl2 2.867462 1_554
Ca5 Cl0 2.977291 1_545
Ca5 Cl0 2.977291 1_445
Ca6 N0 2.352358 1_555
Ca6 N0 2.352358 1_455
Ca6 N6 2.574287 1_555
Ca6 Cl1 2.867462 1_555
Ca6 Cl3 2.977291 1_455
Ca6 Cl3 2.977291 1_555
Ca7 N1 2.352358 1_655
Ca7 N1 2.352358 1_555
Ca7 N3 2.574287 1_555
Ca7 Cl3 2.867462 1_555
Ca7 Cl1 2.977291 1_555
Ca7 Cl1 2.977291 1_655
B0 N7 1.339783 1_555
B0 N3 1.354587 1_555
B1 N2 1.339783 1_555
B1 N6 1.354587 1_555
B2 N1 1.339783 1_555
B2 N5 1.354587 1_555
B3 N0 1.339783 1_555
B3 N4 1.354587 1_555
