# generated using pymatgen
data_Ba(CoAs)2
_symmetry_space_group_name_H-M   'P 1'
_cell_length_a   4.00193572
_cell_length_b   4.00193565
_cell_length_c   6.81126126
_cell_angle_alpha   107.08401240
_cell_angle_beta   107.08401264
_cell_angle_gamma   89.99998740
_symmetry_Int_Tables_number   1
_chemical_formula_structural   Ba(CoAs)2
_chemical_formula_sum   'Ba1 Co2 As2'
_cell_volume   99.22565524
_cell_formula_units_Z   1
loop_
 _symmetry_equiv_pos_site_id
 _symmetry_equiv_pos_as_xyz
  1  'x, y, z'
loop_
 _atom_site_type_symbol
 _atom_site_label
 _atom_site_symmetry_multiplicity
 _atom_site_fract_x
 _atom_site_fract_y
 _atom_site_fract_z
 _atom_site_occupancy
  Ba  Ba0  1  -0.00000000  -0.00000000  -0.00000000  1
  Co  Co0  1  0.25000000  0.75000000  0.50000000  1
  Co  Co1  1  0.75000000  0.25000000  0.50000000  1
  As  As0  1  0.65708188  0.65708188  0.31416375  1
  As  As1  1  0.34291812  0.34291812  0.68583625  1
loop_
_geom_bond_atom_site_label_1
_geom_bond_atom_site_label_2
_geom_bond_distance
_geom_bond_site_symmetry_2
As0 Co1 2.308575 1_565
As0 Co0 2.308575 1_655
As0 Co1 2.308576 1_555
As0 Co0 2.308576 1_555
As0 Ba0 3.434582 1_655
As0 Ba0 3.434582 1_565
As0 Ba0 3.434582 1_555
As0 Ba0 3.434582 1_665
As1 Co0 2.308575 1_545
As1 Co1 2.308575 1_455
As1 Co0 2.308576 1_555
As1 Co1 2.308576 1_555
As1 Ba0 3.434582 1_566
As1 Ba0 3.434582 1_656
As1 Ba0 3.434582 1_666
As1 Ba0 3.434582 1_556
