# generated using pymatgen
data_Na4Mg(CoO3)2
_symmetry_space_group_name_H-M   'P 1'
_cell_length_a   6.32240485
_cell_length_b   5.99510988
_cell_length_c   6.10954643
_cell_angle_alpha   92.03060222
_cell_angle_beta   115.63022850
_cell_angle_gamma   58.12342912
_symmetry_Int_Tables_number   1
_chemical_formula_structural   Na4Mg(CoO3)2
_chemical_formula_sum   'Na4 Mg1 Co2 O6'
_cell_volume   171.57422163
_cell_formula_units_Z   1
loop_
 _symmetry_equiv_pos_site_id
 _symmetry_equiv_pos_as_xyz
  1  'x, y, z'
loop_
 _atom_site_type_symbol
 _atom_site_label
 _atom_site_symmetry_multiplicity
 _atom_site_fract_x
 _atom_site_fract_y
 _atom_site_fract_z
 _atom_site_occupancy
  Na  Na0  1  0.12309629  0.16451423  0.47651089  1
  Na  Na1  1  0.85118328  0.88037513  0.46393781  1
  Na  Na2  1  0.34794202  0.47453350  0.36461707  1
  Na  Na3  1  0.01201592  0.11778663  0.96149199  1
  Mg  Mg0  1  0.68890723  0.72653467  0.77210979  1
  Co  Co0  1  0.59026203  0.64068046  0.16147894  1
  Co  Co1  1  0.40124969  0.35330484  0.86113953  1
  O  O0  1  0.36258820  0.70742384  0.78956194  1
  O  O1  1  0.89271461  0.60046471  0.16369848  1
  O  O2  1  0.43063255  0.81991200  0.34972195  1
  O  O3  1  0.04906726  0.43770734  0.76688367  1
  O  O4  1  0.60058282  0.10684836  0.72091644  1
  O  O5  1  0.66225807  0.28241429  0.20745548  1
loop_
_geom_bond_atom_site_label_1
_geom_bond_atom_site_label_2
_geom_bond_distance
_geom_bond_site_symmetry_2
Na0 O5 2.335510 1_455
Na0 O2 2.365515 1_545
Na0 O3 2.398240 1_555
Na0 O4 2.548964 1_555
Na0 O1 2.555349 1_455
Na0 O0 2.635082 1_545
Na1 O5 2.302014 1_565
Na1 O1 2.445989 1_555
Na1 O0 2.554930 1_655
Na1 O4 2.558836 1_565
Na1 O3 2.621422 1_655
Na1 O2 2.661375 1_555
Na2 O1 2.252703 1_455
Na2 O5 2.313565 1_555
Na2 O4 2.400449 1_555
Na2 O2 2.401406 1_555
Na2 O0 2.893096 1_555
Na3 O2 2.386868 1_546
Na3 O4 2.407654 1_455
Na3 O3 2.454420 1_555
Na3 O0 2.853126 1_545
Mg0 O3 2.019643 1_655
Mg0 O4 2.040306 1_565
Mg0 O1 2.094727 1_556
Mg0 O0 2.172969 1_555
Mg0 O2 2.265093 1_555
Co0 O1 1.790472 1_555
Co0 O2 1.807496 1_555
Co0 O5 1.949071 1_555
Co0 O0 2.005414 1_554
Co1 O3 1.807472 1_555
Co1 O4 1.839280 1_555
Co1 O5 1.919090 1_556
Co1 O0 2.045305 1_555
