# generated using pymatgen
data_CeZnSbO
_symmetry_space_group_name_H-M   'P 1'
_cell_length_a   4.15766900
_cell_length_b   4.15766900
_cell_length_c   9.60321300
_cell_angle_alpha   90.00000000
_cell_angle_beta   90.00000000
_cell_angle_gamma   90.00000000
_symmetry_Int_Tables_number   1
_chemical_formula_structural   CeZnSbO
_chemical_formula_sum   'Ce2 Zn2 Sb2 O2'
_cell_volume   166.00317113
_cell_formula_units_Z   2
loop_
 _symmetry_equiv_pos_site_id
 _symmetry_equiv_pos_as_xyz
  1  'x, y, z'
loop_
 _atom_site_type_symbol
 _atom_site_label
 _atom_site_symmetry_multiplicity
 _atom_site_fract_x
 _atom_site_fract_y
 _atom_site_fract_z
 _atom_site_occupancy
  Ce  Ce0  1  0.00000000  0.50000000  0.37968900  1
  Ce  Ce1  1  0.50000000  0.00000000  0.62031100  1
  Zn  Zn0  1  0.00000000  0.00000000  0.00000000  1
  Zn  Zn1  1  0.50000000  0.50000000  0.00000000  1
  Sb  Sb0  1  0.50000000  0.00000000  0.18685400  1
  Sb  Sb1  1  0.00000000  0.50000000  0.81314600  1
  O  O0  1  0.50000000  0.50000000  0.50000000  1
  O  O1  1  0.00000000  0.00000000  0.50000000  1
loop_
_geom_bond_atom_site_label_1
_geom_bond_atom_site_label_2
_geom_bond_distance
_geom_bond_site_symmetry_2
Ce0 O1 2.378327 1_555
Ce0 O0 2.378327 1_555
Ce0 O1 2.378327 1_565
Ce0 O0 2.378327 1_455
Ce0 Sb0 3.474536 1_555
Ce0 Sb0 3.474536 1_455
Ce0 Sb0 3.474536 1_565
Ce0 Sb0 3.474536 1_465
Ce1 O1 2.378327 1_555
Ce1 O0 2.378327 1_545
Ce1 O0 2.378327 1_555
Ce1 O1 2.378327 1_655
Ce1 Sb1 3.474536 1_555
Ce1 Sb1 3.474536 1_545
Ce1 Sb1 3.474536 1_645
Ce1 Sb1 3.474536 1_655
Sb0 Zn0 2.746165 1_555
Sb0 Zn1 2.746165 1_555
Sb0 Zn1 2.746165 1_545
Sb0 Zn0 2.746165 1_655
Sb1 Zn1 2.746165 1_556
Sb1 Zn1 2.746165 1_456
Sb1 Zn0 2.746165 1_556
Sb1 Zn0 2.746165 1_566
