# generated using pymatgen
data_BaInCo4O7
_symmetry_space_group_name_H-M   'P 1'
_cell_length_a   6.29251179
_cell_length_b   6.29251179
_cell_length_c   10.31067500
_cell_angle_alpha   90.00000000
_cell_angle_beta   90.00000000
_cell_angle_gamma   119.99999776
_symmetry_Int_Tables_number   1
_chemical_formula_structural   BaInCo4O7
_chemical_formula_sum   'Ba2 In2 Co8 O14'
_cell_volume   353.56218958
_cell_formula_units_Z   2
loop_
 _symmetry_equiv_pos_site_id
 _symmetry_equiv_pos_as_xyz
  1  'x, y, z'
loop_
 _atom_site_type_symbol
 _atom_site_label
 _atom_site_symmetry_multiplicity
 _atom_site_fract_x
 _atom_site_fract_y
 _atom_site_fract_z
 _atom_site_occupancy
  Ba  Ba0  1  0.66666700  0.33333300  0.49533500  1
  Ba  Ba1  1  0.33333300  0.66666700  0.99533500  1
  In  In0  1  0.66666700  0.33333300  0.87512500  1
  In  In1  1  0.33333300  0.66666700  0.37512500  1
  Co  Co0  1  0.82980200  0.17019800  0.18639300  1
  Co  Co1  1  0.65960400  0.82980200  0.68639300  1
  Co  Co2  1  0.17019800  0.34039600  0.68639300  1
  Co  Co3  1  0.82980200  0.65960400  0.18639300  1
  Co  Co4  1  0.34039600  0.17019800  0.18639300  1
  Co  Co5  1  0.17019800  0.82980200  0.68639300  1
  Co  Co6  1  0.00000000  0.00000000  0.43896200  1
  Co  Co7  1  0.00000000  0.00000000  0.93896200  1
  O  O0  1  0.83196600  0.16803400  0.99913800  1
  O  O1  1  0.66393200  0.83196600  0.49913800  1
  O  O2  1  0.16803400  0.33606800  0.49913800  1
  O  O3  1  0.83196600  0.66393200  0.99913800  1
  O  O4  1  0.33606800  0.16803400  0.99913800  1
  O  O5  1  0.16803400  0.83196600  0.49913800  1
  O  O6  1  0.00000000  0.00000000  0.74824200  1
  O  O7  1  0.00000000  0.00000000  0.24824200  1
  O  O8  1  0.49938300  0.50061700  0.25414800  1
  O  O9  1  0.99876600  0.49938300  0.75414800  1
  O  O10  1  0.50061700  0.00123400  0.75414800  1
  O  O11  1  0.49938300  0.99876600  0.25414800  1
  O  O12  1  0.50061700  0.49938300  0.75414800  1
  O  O13  1  0.00123400  0.50061700  0.25414800  1
loop_
_geom_bond_atom_site_label_1
_geom_bond_atom_site_label_2
_geom_bond_distance
_geom_bond_site_symmetry_2
Ba0 O13 3.083551 1_655
Ba0 O11 3.083551 1_545
Ba0 O8 3.083555 1_555
Ba0 O1 3.146532 1_545
Ba0 O2 3.146532 1_655
Ba0 O5 3.146536 1_545
Ba0 O5 3.146536 1_655
Ba0 O2 3.146539 1_555
Ba0 O1 3.146539 1_555
Ba0 O9 3.224335 1_555
Ba0 O10 3.224335 1_555
Ba0 O12 3.224338 1_555
Ba1 O10 3.083551 1_565
Ba1 O9 3.083551 1_455
Ba1 O12 3.083555 1_555
Ba1 O3 3.146532 1_455
Ba1 O4 3.146532 1_565
Ba1 O0 3.146536 1_565
Ba1 O0 3.146536 1_455
Ba1 O4 3.146539 1_555
Ba1 O3 3.146539 1_555
Ba1 O11 3.224335 1_556
Ba1 O13 3.224335 1_556
Ba1 O8 3.224338 1_556
In0 O9 2.197986 1_555
In0 O10 2.197986 1_555
In0 O12 2.197991 1_555
In0 O0 2.209225 1_555
In0 O3 2.209230 1_555
In0 O4 2.209230 1_555
In1 O11 2.197986 1_555
In1 O13 2.197986 1_555
In1 O8 2.197991 1_555
In1 O5 2.209225 1_555
In1 O1 2.209230 1_555
In1 O2 2.209230 1_555
Co0 O0 1.930869 1_554
Co0 O13 1.931779 1_655
Co0 O11 1.931779 1_545
Co0 O7 1.961534 1_655
Co1 O1 1.930869 1_555
Co1 O10 1.931779 1_565
Co1 O12 1.931779 1_555
Co1 O6 1.961534 1_665
Co2 O2 1.930869 1_555
Co2 O9 1.931779 1_455
Co2 O12 1.931779 1_555
Co2 O6 1.961534 1_555
Co3 O3 1.930869 1_554
Co3 O13 1.931779 1_655
Co3 O8 1.931779 1_555
Co3 O7 1.961534 1_665
Co4 O4 1.930869 1_554
Co4 O11 1.931779 1_545
Co4 O8 1.931779 1_555
Co4 O7 1.961534 1_555
Co5 O5 1.930869 1_555
Co5 O10 1.931779 1_565
Co5 O9 1.931779 1_455
Co5 O6 1.961534 1_565
Co6 O5 1.933641 1_545
Co6 O2 1.933641 1_555
Co6 O1 1.933641 1_445
Co6 O7 1.966452 1_555
Co7 O0 1.933641 1_455
Co7 O4 1.933641 1_555
Co7 O3 1.933641 1_445
Co7 O6 1.966452 1_555
