# generated using pymatgen
data_Na3Ca4Ta8P15(SO24)3
_symmetry_space_group_name_H-M   'P 1'
_cell_length_a   8.88493371
_cell_length_b   8.87940450
_cell_length_c   23.05487046
_cell_angle_alpha   90.15275783
_cell_angle_beta   89.91241514
_cell_angle_gamma   119.87629619
_symmetry_Int_Tables_number   1
_chemical_formula_structural   Na3Ca4Ta8P15(SO24)3
_chemical_formula_sum   'Na3 Ca4 Ta8 P15 S3 O72'
_cell_volume   1577.13839454
_cell_formula_units_Z   1
loop_
 _symmetry_equiv_pos_site_id
 _symmetry_equiv_pos_as_xyz
  1  'x, y, z'
loop_
 _atom_site_type_symbol
 _atom_site_label
 _atom_site_symmetry_multiplicity
 _atom_site_fract_x
 _atom_site_fract_y
 _atom_site_fract_z
 _atom_site_occupancy
  Na  Na0  1  0.99885769  0.99216738  0.99126663  1
  Na  Na1  1  0.65882869  0.33214133  0.84152795  1
  Na  Na2  1  0.65768127  0.33519606  0.33904525  1
  Ca  Ca0  1  0.99840568  0.99430536  0.85389386  1
  Ca  Ca1  1  0.66096431  0.33178368  0.97877689  1
  Ca  Ca2  1  0.66398218  0.33302172  0.48567538  1
  Ca  Ca3  1  0.33439066  0.66469796  0.30279536  1
  Ta  Ta0  1  0.00386516  0.00572539  0.35547698  1
  Ta  Ta1  1  0.00245427  -0.00003478  0.65023552  1
  Ta  Ta2  1  0.00035284  0.99938416  0.14672361  1
  Ta  Ta3  1  0.66480440  0.33233348  0.68221482  1
  Ta  Ta4  1  0.66660293  0.33523881  0.18610134  1
  Ta  Ta5  1  0.33973869  0.67347087  0.02521881  1
  Ta  Ta6  1  0.33130196  0.65665666  0.52349681  1
  Ta  Ta7  1  0.34021069  0.67345767  0.80813129  1
  P  P0  1  0.28991853  0.01628643  0.24907559  1
  P  P1  1  0.72787348  0.71269212  0.24953366  1
  P  P2  1  0.98265735  0.27373775  0.24902749  1
  P  P3  1  0.29701241  0.29360360  0.75028047  1
  P  P4  1  0.99536094  0.70034302  0.74958829  1
  P  P5  1  0.70935129  0.00711897  0.74973834  1
  P  P6  1  0.96070784  0.32796172  0.58359451  1
  P  P7  1  0.36794904  0.03455427  0.58313309  1
  P  P8  1  0.67158833  0.63322996  0.58378800  1
  P  P9  1  0.95953852  0.62564820  0.08362944  1
  P  P10  1  0.66999187  0.04334757  0.08402591  1
  P  P11  1  0.37200802  0.33274550  0.08416888  1
  P  P12  1  0.61275727  0.66697248  0.91660540  1
  P  P13  1  0.33330244  0.94609440  0.91675943  1
  P  P14  1  0.33034366  0.37560368  0.41415880  1
  S  S0  1  0.05826941  0.39199214  0.91656200  1
  S  S1  1  0.62642215  0.95165385  0.41571023  1
  S  S2  1  0.04804071  0.67474309  0.41570462  1
  O  O0  1  0.19986874  0.04231001  0.30463138  1
  O  O1  1  0.84237861  0.80037995  0.30457954  1
  O  O2  1  0.95722601  0.15819282  0.30446794  1
  O  O3  1  0.23917017  0.18708844  0.80416881  1
  O  O4  1  0.94502876  0.75729407  0.80357388  1
  O  O5  1  0.81310491  0.05369883  0.80412462  1
  O  O6  1  0.80268887  0.97672300  0.69765890  1
  O  O7  1  0.17419218  0.19869882  0.69782532  1
  O  O8  1  0.02570794  0.82543122  0.69767701  1
  O  O9  1  0.82774230  0.82085354  0.19603675  1
  O  O10  1  0.99421879  0.17351740  0.19618743  1
  O  O11  1  0.17994887  0.00494659  0.19604427  1
  O  O12  1  0.86728985  0.36281044  0.63507718  1
  O  O13  1  0.49538150  0.12927305  0.63511550  1
  O  O14  1  0.63488865  0.50489567  0.63523118  1
  O  O15  1  0.86406183  0.50310624  0.13735763  1
  O  O16  1  0.64001995  0.13682139  0.13750724  1
  O  O17  1  0.49636989  0.36210888  0.13756623  1
  O  O18  1  0.42943934  0.28105538  0.03074441  1
  O  O19  1  0.85147560  0.56680007  0.03020736  1
  O  O20  1  0.71712630  0.14876554  0.03030718  1
  O  O21  1  0.42563577  0.14164863  0.52975075  1
  O  O22  1  0.71813341  0.57594270  0.52961559  1
  O  O23  1  0.85923982  0.28429335  0.52918833  1
  O  O24  1  0.50418702  0.66254616  0.97245195  1
  O  O25  1  0.15566337  0.48651158  0.97073391  1
  O  O26  1  0.33221610  0.83934252  0.97265496  1
  O  O27  1  0.53987510  0.84348613  0.46938257  1
  O  O28  1  0.30884771  0.47175890  0.47144374  1
  O  O29  1  0.15695350  0.69775484  0.46961430  1
  O  O30  1  0.12825601  0.65372130  0.36427224  1
  O  O31  1  0.52382578  0.87468464  0.36434069  1
  O  O32  1  0.34953322  0.48173180  0.36256099  1
  O  O33  1  0.15316031  0.48859414  0.86257208  1
  O  O34  1  0.32838055  0.83730256  0.86087740  1
  O  O35  1  0.50629844  0.66626738  0.86065337  1
  O  O36  1  0.03956296  0.84207977  0.40948939  1
  O  O37  1  0.80012734  0.95576629  0.40899495  1
  O  O38  1  0.15180367  0.19383606  0.40742712  1
  O  O39  1  0.05056661  0.22365560  0.91771157  1
  O  O40  1  0.16698680  0.95229949  0.92068852  1
  O  O41  1  0.78110877  0.83679271  0.92052260  1
  O  O42  1  0.99589026  0.18124922  0.60300110  1
  O  O43  1  0.18688893  0.00331994  0.60308821  1
  O  O44  1  0.81879427  0.81423102  0.60333177  1
  O  O45  1  0.99684521  0.81305783  0.09921841  1
  O  O46  1  0.81804808  0.00391379  0.09927010  1
  O  O47  1  0.18593224  0.18270699  0.09984493  1
  O  O48  1  0.67445135  0.15765417  0.73233820  1
  O  O49  1  0.48191713  0.32591150  0.73225298  1
  O  O50  1  0.84251817  0.51655059  0.73146672  1
  O  O51  1  0.71644223  0.53062459  0.24089105  1
  O  O52  1  0.81144848  0.28237379  0.24100380  1
  O  O53  1  0.46939164  0.18707388  0.24099132  1
  O  O54  1  0.61905019  0.50083717  0.91253296  1
  O  O55  1  0.89097663  0.38371621  0.91554241  1
  O  O56  1  0.50272024  0.11417335  0.91272950  1
  O  O57  1  0.66418713  0.13027061  0.42276659  1
  O  O58  1  0.47541682  0.33512316  0.42160331  1
  O  O59  1  0.87179015  0.53043452  0.42258188  1
  O  O60  1  0.35435388  0.49700209  0.07635054  1
  O  O61  1  0.14126120  0.64214597  0.07607678  1
  O  O62  1  0.50380087  0.85999460  0.07703348  1
  O  O63  1  0.35168539  0.85227841  0.57254019  1
  O  O64  1  0.50324561  0.64899004  0.57395866  1
  O  O65  1  0.14448046  0.49754347  0.57434504  1
  O  O66  1  0.30742492  0.85849228  0.25212405  1
  O  O67  1  0.55313771  0.69609374  0.25061677  1
  O  O68  1  0.13881930  0.44906360  0.25124653  1
  O  O69  1  0.31423940  0.47619698  0.75751971  1
  O  O70  1  0.15978256  0.68208140  0.75716815  1
  O  O71  1  0.52516747  0.84089869  0.75652938  1
loop_
_geom_bond_atom_site_label_1
_geom_bond_atom_site_label_2
_geom_bond_distance
_geom_bond_site_symmetry_2
Na0 O40 2.349642 1_655
Na0 O41 2.375925 1_555
Na0 O39 2.527291 1_665
Na1 O54 2.358190 1_555
Na1 O56 2.387447 1_555
Na1 O55 2.538000 1_555
Na2 O58 2.496962 1_555
Na2 O59 2.653546 1_555
Na2 O57 2.676530 1_555
Na2 O53 2.728115 1_555
Na2 O51 2.742154 1_555
Na2 O52 2.796235 1_555
Ca0 O4 2.234753 1_555
Ca0 O3 2.274951 1_665
Ca0 O5 2.275811 1_565
Ca0 O40 2.306673 1_655
Ca0 O41 2.314194 1_555
Ca0 O39 2.360651 1_665
Ca1 O18 2.223098 1_556
Ca1 O19 2.258258 1_556
Ca1 O20 2.263031 1_556
Ca1 O54 2.301159 1_555
Ca1 O56 2.305071 1_555
Ca1 O55 2.360107 1_555
Ca2 O21 2.195969 1_555
Ca2 O22 2.205964 1_555
Ca2 O23 2.226828 1_555
Ca2 O58 2.242361 1_555
Ca2 O57 2.309541 1_555
Ca2 O59 2.319186 1_555
Ca3 O67 2.181079 1_555
Ca3 O68 2.185741 1_555
Ca3 O32 2.187777 1_555
Ca3 O66 2.192152 1_555
Ca3 O30 2.277648 1_555
Ca3 O31 2.278039 1_555
O0 P0 1.585414 1_555
O0 Ta0 1.986103 1_555
O1 P1 1.568866 1_555
O1 Ta0 2.036560 1_665
O2 P2 1.585102 1_555
O2 Ta0 1.989075 1_655
O3 P3 1.490717 1_555
O4 P4 1.491662 1_555
O5 P5 1.487941 1_555
O6 P5 1.555777 1_565
O6 Ta1 2.004646 1_665
O7 P3 1.563948 1_555
O7 Ta1 1.989546 1_555
O8 P4 1.564118 1_455
O8 Ta1 1.992351 1_565
O9 P1 1.544307 1_555
O9 Ta2 1.933853 1_655
O10 P2 1.539947 1_555
O10 Ta2 1.941272 1_645
O11 P0 1.537731 1_555
O11 Ta2 1.941231 1_545
O12 P6 1.563448 1_555
O12 Ta3 2.000367 1_555
O13 P7 1.573423 1_555
O13 Ta3 1.996656 1_555
O14 P8 1.564396 1_555
O14 Ta3 2.001810 1_555
O15 P9 1.588187 1_555
O15 Ta4 1.990036 1_555
O16 P10 1.579190 1_555
O16 Ta4 1.997670 1_555
O17 P11 1.587404 1_555
O17 Ta4 1.990684 1_555
O18 P11 1.488792 1_555
O19 P9 1.487343 1_555
O20 P10 1.483056 1_555
O21 P7 1.483373 1_555
O22 P8 1.481294 1_555
O23 P6 1.479546 1_555
O24 P12 1.596409 1_555
O24 Ta5 1.938905 1_556
O25 S0 1.512345 1_555
O25 Ta5 2.073376 1_556
O26 P13 1.598940 1_555
O26 Ta5 1.936532 1_556
O27 S1 1.520726 1_555
O27 Ta6 2.164246 1_555
O28 P14 1.632595 1_555
O28 Ta6 1.959424 1_555
O29 S2 1.525860 1_555
O29 Ta6 2.155803 1_555
O30 S2 1.441392 1_555
O31 S1 1.441861 1_555
O32 P14 1.475633 1_555
O33 S0 1.509286 1_555
O33 Ta7 2.078123 1_555
O34 P13 1.595740 1_555
O34 Ta7 1.936216 1_555
O35 P12 1.598915 1_555
O35 Ta7 1.935897 1_555
O36 S2 1.531870 1_555
O36 Ta0 2.057348 1_565
O37 S1 1.533106 1_555
O37 Ta0 2.047453 1_665
O38 P14 1.610635 1_555
O38 Ta0 1.938816 1_555
O39 S0 1.462152 1_555
O40 P13 1.508485 1_555
O41 P12 1.507295 1_555
O42 P6 1.550551 1_555
O42 Ta1 1.970652 1_655
O43 P7 1.558987 1_555
O43 Ta1 1.952896 1_555
O44 P8 1.549337 1_555
O44 Ta1 1.966415 1_665
O45 P9 1.567122 1_555
O45 Ta2 1.968966 1_655
O46 P10 1.561262 1_555
O46 Ta2 1.972999 1_645
O47 P11 1.563722 1_555
O47 Ta2 1.966347 1_545
O48 P5 1.568411 1_555
O48 Ta3 1.972508 1_555
O49 P3 1.575774 1_555
O49 Ta3 1.968969 1_555
O50 P4 1.572326 1_555
O50 Ta3 1.969925 1_555
O51 P1 1.580614 1_555
O51 Ta4 2.006551 1_555
O52 P2 1.572016 1_555
O52 Ta4 2.022061 1_555
O53 P0 1.571208 1_555
O53 Ta4 2.026824 1_555
O54 P12 1.506493 1_555
O55 S0 1.451404 1_655
O56 P13 1.504671 1_545
O57 S1 1.457084 1_545
O58 P14 1.510851 1_555
O59 S2 1.456217 1_655
O60 P11 1.553617 1_555
O60 Ta5 2.018623 1_555
O61 P9 1.556384 1_455
O61 Ta5 2.017107 1_555
O62 P10 1.568837 1_565
O62 Ta5 1.970911 1_555
O63 P7 1.570054 1_565
O63 Ta6 2.001297 1_555
O64 P8 1.586767 1_555
O64 Ta6 1.949736 1_555
O65 P6 1.590633 1_455
O65 Ta6 1.947341 1_555
O66 P0 1.486587 1_565
O67 P1 1.484787 1_555
O68 P2 1.482964 1_455
O69 P3 1.559284 1_555
O69 Ta7 2.017420 1_555
O70 P4 1.558178 1_455
O70 Ta7 2.021090 1_555
O71 P5 1.573239 1_565
O71 Ta7 1.973752 1_555
