# generated using pymatgen
data_MgMn4(FeO4)2
_symmetry_space_group_name_H-M   'P 1'
_cell_length_a   6.82464219
_cell_length_b   6.82463049
_cell_length_c   6.82440487
_cell_angle_alpha   126.75157010
_cell_angle_beta   126.75850310
_cell_angle_gamma   78.65429027
_symmetry_Int_Tables_number   1
_chemical_formula_structural   MgMn4(FeO4)2
_chemical_formula_sum   'Mg1 Mn4 Fe2 O8'
_cell_volume   197.48571263
_cell_formula_units_Z   1
loop_
 _symmetry_equiv_pos_site_id
 _symmetry_equiv_pos_as_xyz
  1  'x, y, z'
loop_
 _atom_site_type_symbol
 _atom_site_label
 _atom_site_symmetry_multiplicity
 _atom_site_fract_x
 _atom_site_fract_y
 _atom_site_fract_z
 _atom_site_occupancy
  Mg  Mg0  1  0.50002700  0.50002100  0.00001800  1
  Mn  Mn0  1  0.92908500  0.67594400  0.25309900  1
  Mn  Mn1  1  0.32407400  0.57718300  0.25307300  1
  Mn  Mn2  1  0.32412500  0.07100000  0.74693300  1
  Mn  Mn3  1  0.42280800  0.67596800  0.74688200  1
  Fe  Fe0  1  0.00000900  0.00000600  0.99999700  1
  Fe  Fe1  1  0.74993300  0.24994000  0.50000600  1
  O  O0  1  0.59518400  0.36041800  0.23479600  1
  O  O1  1  0.63956200  0.87427900  0.23475100  1
  O  O2  1  0.12149200  0.37366600  0.25219200  1
  O  O3  1  0.63951800  0.40481100  0.76524900  1
  O  O4  1  0.62633900  0.87851300  0.74777300  1
  O  O5  1  0.12563100  0.36038700  0.76520900  1
  O  O6  1  0.13075100  0.87856500  0.25222300  1
  O  O7  1  0.12146200  0.86930000  0.74779700  1
loop_
_geom_bond_atom_site_label_1
_geom_bond_atom_site_label_2
_geom_bond_distance
_geom_bond_site_symmetry_2
Mg0 O1 2.057085 1_555
Mg0 O3 2.057110 1_554
Mg0 O0 2.057791 1_555
Mg0 O5 2.057821 1_554
Mn0 O6 2.138915 1_655
Mn0 O3 2.145995 1_554
Mn0 O1 2.146243 1_555
Mn0 O7 2.215382 1_655
Mn0 O2 2.215542 1_655
Mn1 O2 2.139205 1_555
Mn1 O5 2.145864 1_554
Mn1 O0 2.146117 1_555
Mn1 O4 2.215270 1_555
Mn1 O6 2.215549 1_555
Mn2 O7 2.139253 1_545
Mn2 O0 2.145834 1_556
Mn2 O5 2.146136 1_555
Mn2 O6 2.215343 1_545
Mn2 O4 2.215504 1_545
Mn3 O4 2.139032 1_555
Mn3 O1 2.146049 1_556
Mn3 O3 2.146259 1_555
Mn3 O2 2.215274 1_555
Mn3 O7 2.215467 1_555
Fe0 O6 2.005958 1_546
Fe0 O4 2.005959 1_445
Fe0 O7 2.006059 1_545
Fe0 O2 2.006061 1_556
Fe1 O1 1.997775 1_545
Fe1 O3 1.997797 1_555
Fe1 O0 1.997877 1_555
Fe1 O5 1.997902 1_655
