# generated using pymatgen
data_MgMn4CuO8
_symmetry_space_group_name_H-M   'P 1'
_cell_length_a   6.22019775
_cell_length_b   6.00530095
_cell_length_c   6.05478951
_cell_angle_alpha   84.47498921
_cell_angle_beta   58.33219610
_cell_angle_gamma   57.98056121
_symmetry_Int_Tables_number   1
_chemical_formula_structural   MgMn4CuO8
_chemical_formula_sum   'Mg1 Mn4 Cu1 O8'
_cell_volume   157.93073137
_cell_formula_units_Z   1
loop_
 _symmetry_equiv_pos_site_id
 _symmetry_equiv_pos_as_xyz
  1  'x, y, z'
loop_
 _atom_site_type_symbol
 _atom_site_label
 _atom_site_symmetry_multiplicity
 _atom_site_fract_x
 _atom_site_fract_y
 _atom_site_fract_z
 _atom_site_occupancy
  Mg  Mg0  1  0.50000000  0.50000000  0.50000000  1
  Mn  Mn0  1  0.00000000  0.50000000  0.50000000  1
  Mn  Mn1  1  0.00000000  0.00000000  0.00000000  1
  Mn  Mn2  1  0.50000000  0.00000000  0.00000000  1
  Mn  Mn3  1  0.00000000  0.50000000  0.00000000  1
  Cu  Cu0  1  0.50000000  0.50000000  0.00000000  1
  O  O0  1  0.44280800  0.27379800  0.79354200  1
  O  O1  1  0.98775200  0.28008200  0.79715500  1
  O  O2  1  0.47536600  0.76047100  0.78171900  1
  O  O3  1  0.01906000  0.72060900  0.74512400  1
  O  O4  1  0.98094000  0.27939100  0.25487600  1
  O  O5  1  0.52463400  0.23952900  0.21828100  1
  O  O6  1  0.01224800  0.71991800  0.20284500  1
  O  O7  1  0.55719200  0.72620200  0.20645800  1
loop_
_geom_bond_atom_site_label_1
_geom_bond_atom_site_label_2
_geom_bond_distance
_geom_bond_site_symmetry_2
Mg0 O3 2.102681 1_555
Mg0 O4 2.102681 1_555
Mg0 O7 2.124713 1_555
Mg0 O0 2.124713 1_555
Mg0 O5 2.316244 1_555
Mg0 O2 2.316244 1_555
Mn0 O6 2.119518 1_555
Mn0 O1 2.119518 1_455
Mn0 O4 2.168392 1_455
Mn0 O3 2.168392 1_555
Mn0 O2 2.293870 1_455
Mn0 O5 2.293870 1_555
Mn1 O1 1.976831 1_454
Mn1 O6 1.976831 1_545
Mn1 O5 2.076415 1_455
Mn1 O2 2.076415 1_544
Mn1 O4 2.303527 1_455
Mn1 O3 2.303527 1_544
Mn2 O7 1.960511 1_545
Mn2 O0 1.960511 1_554
Mn2 O2 2.156800 1_544
Mn2 O5 2.156800 1_555
Mn2 O4 2.267919 1_455
Mn2 O3 2.267919 1_644
Mn3 O3 1.931710 1_554
Mn3 O4 1.931710 1_455
Mn3 O7 1.933540 1_455
Mn3 O0 1.933540 1_554
Mn3 O6 1.943116 1_555
Mn3 O1 1.943116 1_454
Cu0 O2 1.943543 1_554
Cu0 O5 1.943543 1_555
Cu0 O1 2.146682 1_554
Cu0 O6 2.146682 1_555
Cu0 O7 2.200193 1_555
Cu0 O0 2.200193 1_554
