# generated using pymatgen
data_MgMn6(O2F)4
_symmetry_space_group_name_H-M   'P 1'
_cell_length_a   5.23224346
_cell_length_b   5.16110098
_cell_length_c   8.95883155
_cell_angle_alpha   93.58791502
_cell_angle_beta   87.16137918
_cell_angle_gamma   103.43861748
_symmetry_Int_Tables_number   1
_chemical_formula_structural   MgMn6(O2F)4
_chemical_formula_sum   'Mg1 Mn6 O8 F4'
_cell_volume   234.68774114
_cell_formula_units_Z   1
loop_
 _symmetry_equiv_pos_site_id
 _symmetry_equiv_pos_as_xyz
  1  'x, y, z'
loop_
 _atom_site_type_symbol
 _atom_site_label
 _atom_site_symmetry_multiplicity
 _atom_site_fract_x
 _atom_site_fract_y
 _atom_site_fract_z
 _atom_site_occupancy
  Mg  Mg0  1  0.00151657  0.50145976  0.32994390  1
  Mn  Mn0  1  0.99666633  0.01219662  0.00064463  1
  Mn  Mn1  1  0.99998672  0.00099034  0.33018362  1
  Mn  Mn2  1  0.00492784  0.98875567  0.65980942  1
  Mn  Mn3  1  0.49965894  0.50159961  0.83016032  1
  Mn  Mn4  1  0.49999013  0.50285864  0.15656482  1
  Mn  Mn5  1  0.50223345  0.49717706  0.50349545  1
  O  O0  1  0.12943625  0.82946921  0.48247480  1
  O  O1  1  0.32663545  0.28577598  0.99369910  1
  O  O2  1  0.29943485  0.32081708  0.33283693  1
  O  O3  1  0.30526554  0.30376972  0.66284322  1
  O  O4  1  0.69603389  0.69743426  0.99736427  1
  O  O5  1  0.70195056  0.68025207  0.32717113  1
  O  O6  1  0.67464224  0.71548177  0.66633260  1
  O  O7  1  0.87148198  0.17273824  0.17751369  1
  F  F0  1  0.18559747  0.75185882  0.17458550  1
  F  F1  1  0.15623852  0.82056235  0.83844515  1
  F  F2  1  0.81608916  0.25081332  0.48536587  1
  F  F3  1  0.84610211  0.17987849  0.82199159  1
loop_
_geom_bond_atom_site_label_1
_geom_bond_atom_site_label_2
_geom_bond_distance
_geom_bond_site_symmetry_2
Mg0 O2 1.995545 1_555
Mg0 O5 1.996962 1_455
Mg0 O0 2.110820 1_555
Mg0 O7 2.114621 1_455
Mn0 O7 1.900382 1_555
Mn0 O1 1.961005 1_654
Mn0 O4 1.981178 1_544
Mn1 O0 1.904004 1_645
Mn1 O7 1.904828 1_555
Mn1 O5 1.992841 1_545
Mn1 O2 1.994175 1_655
Mn2 O0 1.899261 1_555
Mn2 O6 1.961248 1_455
Mn2 O3 1.981067 1_565
Mn3 O3 1.949527 1_555
Mn3 O4 1.949714 1_555
Mn3 O6 1.952139 1_555
Mn3 O1 1.952192 1_555
Mn4 O4 1.910600 1_554
Mn4 O1 1.913383 1_554
Mn4 O5 1.956043 1_555
Mn4 O2 2.010231 1_555
Mn5 O3 1.910740 1_555
Mn5 O6 1.914050 1_555
Mn5 O2 1.956918 1_555
Mn5 O5 2.011081 1_555
F0 Mg0 2.012159 1_555
F0 Mn1 2.182105 1_465
F0 Mn4 2.305182 1_555
F0 Mn0 2.498572 1_465
F1 Mn0 1.967392 1_466
F1 Mn2 2.135483 1_555
F1 Mn3 2.700106 1_555
F2 Mg0 2.015384 1_655
F2 Mn1 2.177356 1_555
F2 Mn5 2.293055 1_555
F2 Mn2 2.507295 1_645
F3 Mn2 1.963853 1_645
F3 Mn0 2.132224 1_556
