# generated using pymatgen
data_Na2CaZn(SO4)3
_symmetry_space_group_name_H-M   'P 1'
_cell_length_a   9.07096038
_cell_length_b   9.02256911
_cell_length_c   23.15165868
_cell_angle_alpha   90.24173474
_cell_angle_beta   89.80754083
_cell_angle_gamma   119.97182886
_symmetry_Int_Tables_number   1
_chemical_formula_structural   Na2CaZn(SO4)3
_chemical_formula_sum   'Na12 Ca6 Zn6 S18 O72'
_cell_volume   1641.40263194
_cell_formula_units_Z   6
loop_
 _symmetry_equiv_pos_site_id
 _symmetry_equiv_pos_as_xyz
  1  'x, y, z'
loop_
 _atom_site_type_symbol
 _atom_site_label
 _atom_site_symmetry_multiplicity
 _atom_site_fract_x
 _atom_site_fract_y
 _atom_site_fract_z
 _atom_site_occupancy
  Na  Na0  1  0.36263768  0.36267609  0.25010526  1
  Na  Na1  1  0.64343815  0.64048346  0.74543802  1
  Na  Na2  1  0.02375245  0.69380471  0.58785250  1
  Na  Na3  1  0.30688242  0.97579194  0.08906341  1
  Na  Na4  1  0.68817540  0.02153893  0.91661223  1
  Na  Na5  1  0.97499857  0.30553038  0.41094633  1
  Na  Na6  1  0.99989950  0.99990891  0.49959113  1
  Na  Na7  1  0.99856219  0.00080002  0.00346078  1
  Na  Na8  1  0.66747662  0.33192780  0.83036914  1
  Na  Na9  1  0.66825192  0.33237807  0.32864400  1
  Na  Na10  1  0.33267031  0.66868727  0.17219057  1
  Na  Na11  1  0.33370763  0.66670901  0.66577160  1
  Ca  Ca0  1  0.01634520  0.00638370  0.84580766  1
  Ca  Ca1  1  0.67243793  0.34956408  0.98826325  1
  Ca  Ca2  1  0.65118798  0.32731303  0.48235011  1
  Ca  Ca3  1  0.32747778  0.65039477  0.02064023  1
  Ca  Ca4  1  0.34830765  0.67271833  0.51584362  1
  Ca  Ca5  1  0.31728270  0.65994611  0.81370707  1
  Zn  Zn0  1  0.99487542  0.98497849  0.34321772  1
  Zn  Zn1  1  0.00564994  0.01545423  0.65278850  1
  Zn  Zn2  1  0.98506324  0.99420630  0.15749541  1
  Zn  Zn3  1  0.66094995  0.31813895  0.67888050  1
  Zn  Zn4  1  0.68365208  0.34083728  0.18321845  1
  Zn  Zn5  1  0.33926430  0.68340018  0.31777887  1
  S  S0  1  0.29779217  0.00037027  0.24873199  1
  S  S1  1  0.69855301  0.69856934  0.25010071  1
  S  S2  1  0.00085191  0.29803151  0.25168169  1
  S  S3  1  0.31422557  0.30267871  0.74332918  1
  S  S4  1  0.98841630  0.69030338  0.74108777  1
  S  S5  1  0.70415423  0.00724738  0.74722479  1
  S  S6  1  0.96165191  0.32704488  0.58460231  1
  S  S7  1  0.35475185  0.03178711  0.58842861  1
  S  S8  1  0.67678054  0.64075186  0.59051347  1
  S  S9  1  0.96822059  0.64713939  0.09130286  1
  S  S10  1  0.67487059  0.03887196  0.08752978  1
  S  S11  1  0.35904629  0.32109907  0.09404887  1
  S  S12  1  0.63713142  0.66894626  0.91240744  1
  S  S13  1  0.02078216  0.35462623  0.91687683  1
  S  S14  1  0.33579130  0.97079955  0.92115957  1
  S  S15  1  0.64483718  0.96648637  0.40990619  1
  S  S16  1  0.32208483  0.36084127  0.40731678  1
  S  S17  1  0.03973105  0.67405801  0.41374745  1
  O  O0  1  0.20861055  0.02785446  0.29831021  1
  O  O1  1  0.79931882  0.77988181  0.30258798  1
  O  O2  1  0.97757614  0.20111083  0.30626847  1
  O  O3  1  0.23764515  0.21431063  0.79795401  1
  O  O4  1  0.96934469  0.77535766  0.79332247  1
  O  O5  1  0.78930802  0.02385403  0.80367547  1
  O  O6  1  0.80306535  0.98822232  0.69940467  1
  O  O7  1  0.20900444  0.21153537  0.69299975  1
  O  O8  1  0.00360301  0.79190917  0.68865843  1
  O  O9  1  0.77961305  0.79927151  0.19762698  1
  O  O10  1  0.02778607  0.20858547  0.20196480  1
  O  O11  1  0.20183887  0.97730303  0.19409084  1
  O  O12  1  0.86562178  0.34731293  0.63315920  1
  O  O13  1  0.45774948  0.11975353  0.63954024  1
  O  O14  1  0.66079691  0.54116023  0.64356786  1
  O  O15  1  0.87710122  0.54068546  0.14146169  1
  O  O16  1  0.65523742  0.13869332  0.13520913  1
  O  O17  1  0.46145035  0.33672371  0.14632421  1
  O  O18  1  0.44132883  0.30021322  0.04139862  1
  O  O19  1  0.88017370  0.57183929  0.03647571  1
  O  O20  1  0.69238463  0.12398639  0.03089799  1
  O  O21  1  0.43419127  0.12341785  0.53446176  1
  O  O22  1  0.69619923  0.55344565  0.53888224  1
  O  O23  1  0.87408465  0.30965379  0.52858661  1
  O  O24  1  0.54088025  0.67912168  0.96273574  1
  O  O25  1  0.11398448  0.44322988  0.96947359  1
  O  O26  1  0.32758404  0.88136663  0.97588949  1
  O  O27  1  0.56706331  0.87565449  0.46416354  1
  O  O28  1  0.30130681  0.44553922  0.45948871  1
  O  O29  1  0.12668978  0.69245563  0.47000347  1
  O  O30  1  0.13623715  0.65245389  0.36547942  1
  O  O31  1  0.54027184  0.87771806  0.35902887  1
  O  O32  1  0.33913849  0.46241694  0.35447227  1
  O  O33  1  0.10840638  0.44710204  0.86412126  1
  O  O34  1  0.34535534  0.87419349  0.87070842  1
  O  O35  1  0.54855098  0.66105273  0.85759594  1
  O  O36  1  0.01792589  0.82506346  0.40617974  1
  O  O37  1  0.81970018  0.98769725  0.40596242  1
  O  O38  1  0.16286609  0.18944996  0.40423873  1
  O  O39  1  0.99800296  0.17845281  0.91702553  1
  O  O40  1  0.18563461  0.99335992  0.91808910  1
  O  O41  1  0.80605307  0.82996631  0.91362322  1
  O  O42  1  0.98409573  0.17620210  0.59139744  1
  O  O43  1  0.17947513  0.00993777  0.59149438  1
  O  O44  1  0.83541464  0.81256864  0.59249441  1
  O  O45  1  0.98959320  0.82290829  0.09538701  1
  O  O46  1  0.82488255  0.01676193  0.09498690  1
  O  O47  1  0.18811856  0.16224439  0.09694693  1
  O  O48  1  0.68210460  0.15818757  0.74047577  1
  O  O49  1  0.48921143  0.32445396  0.74015302  1
  O  O50  1  0.83027905  0.51867075  0.73903524  1
  O  O51  1  0.67479037  0.52056290  0.24597888  1
  O  O52  1  0.84926638  0.31914180  0.24429198  1
  O  O53  1  0.46935955  0.16028884  0.24589475  1
  O  O54  1  0.65893644  0.51764567  0.91545082  1
  O  O55  1  0.84571405  0.33217398  0.91686268  1
  O  O56  1  0.49659545  0.14009857  0.92007781  1
  O  O57  1  0.66904408  0.14409064  0.41183167  1
  O  O58  1  0.47366397  0.34022562  0.41173534  1
  O  O59  1  0.87015849  0.51185397  0.41471482  1
  O  O60  1  0.33961418  0.47418564  0.09067194  1
  O  O61  1  0.14442822  0.67066476  0.09027798  1
  O  O62  1  0.51328251  0.86884615  0.08744677  1
  O  O63  1  0.33018841  0.85410263  0.58675101  1
  O  O64  1  0.52492540  0.66103285  0.58646346  1
  O  O65  1  0.13125648  0.48903372  0.58393217  1
  O  O66  1  0.31815970  0.84748870  0.25615266  1
  O  O67  1  0.52190197  0.67492067  0.25420266  1
  O  O68  1  0.16063960  0.47000570  0.25472967  1
  O  O69  1  0.33839418  0.48009978  0.74397231  1
  O  O70  1  0.14052357  0.67045461  0.74414217  1
  O  O71  1  0.53467697  0.84554681  0.74690590  1
loop_
_geom_bond_atom_site_label_1
_geom_bond_atom_site_label_2
_geom_bond_distance
_geom_bond_site_symmetry_2
Na0 O67 2.442355 1_555
Na0 O51 2.454612 1_555
Na0 O53 2.458706 1_555
Na0 O68 2.465221 1_555
Na0 O17 2.611838 1_555
Na0 O32 2.619829 1_555
Na0 O0 2.850355 1_555
Na0 O10 2.862063 1_555
Na1 O69 2.398167 1_555
Na1 O50 2.441398 1_555
Na1 O49 2.472881 1_555
Na1 O71 2.494142 1_555
Na1 O14 2.551644 1_555
Na1 O35 2.767372 1_555
Na1 O4 2.804578 1_555
Na1 O6 2.924901 1_555
Na2 O63 2.408737 1_555
Na2 O44 2.430085 1_455
Na2 O43 2.472114 1_565
Na2 O65 2.484109 1_555
Na2 O8 2.530808 1_555
Na2 O22 2.822812 1_455
Na2 O29 2.882733 1_555
Na2 O12 2.910027 1_455
Na3 O61 2.387139 1_555
Na3 O47 2.414711 1_565
Na3 O45 2.497983 1_455
Na3 O62 2.498411 1_555
Na3 O11 2.611076 1_555
Na3 O18 2.779306 1_565
Na3 O26 2.786407 1_554
Na3 O16 2.942055 1_565
Na4 O55 2.428082 1_555
Na4 O39 2.434658 1_555
Na4 O41 2.445581 1_545
Na4 O56 2.454880 1_555
Na4 O5 2.764728 1_555
Na4 O20 2.793108 1_556
Na4 O24 2.892101 1_545
Na4 O34 2.906331 1_545
Na5 O57 2.405246 1_555
Na5 O38 2.409415 1_655
Na5 O59 2.478784 1_555
Na5 O37 2.486632 1_545
Na5 O2 2.600714 1_555
Na5 O28 2.809700 1_655
Na5 O23 2.876380 1_555
Na5 O30 2.913458 1_655
Na6 O43 2.657655 1_665
Na6 O44 2.683051 1_555
Na6 O37 2.687859 1_555
Na6 O42 2.695456 1_565
Na6 O36 2.723776 1_655
Na6 O38 2.732627 1_665
Na7 O39 2.570798 1_554
Na7 O40 2.623121 1_644
Na7 O45 2.647525 1_545
Na7 O41 2.656904 1_544
Na7 O46 2.682263 1_555
Na7 O47 2.694196 1_655
Na8 O55 2.577209 1_555
Na8 O54 2.606660 1_555
Na8 O49 2.625715 1_555
Na8 O48 2.642854 1_555
Na8 O50 2.648392 1_555
Na8 O56 2.653302 1_555
Na9 O51 2.544646 1_555
Na9 O53 2.556410 1_555
Na9 O57 2.575890 1_555
Na9 O52 2.587767 1_555
Na9 O58 2.630994 1_555
Na9 O59 2.642233 1_555
Na10 O67 2.545435 1_555
Na10 O68 2.552273 1_555
Na10 O61 2.562198 1_555
Na10 O66 2.565634 1_555
Na10 O60 2.593689 1_555
Na10 O62 2.616665 1_555
Na11 O69 2.492431 1_555
Na11 O63 2.507402 1_555
Na11 O70 2.530078 1_555
Na11 O64 2.539507 1_555
Na11 O71 2.552190 1_555
Na11 O65 2.566829 1_555
Ca0 O3 2.239742 1_555
Ca0 O4 2.257739 1_445
Ca0 O40 2.317656 1_545
Ca0 O39 2.321892 1_455
Ca0 O5 2.357279 1_455
Ca0 O41 2.367414 1_445
Ca1 O19 2.244573 1_556
Ca1 O18 2.271792 1_556
Ca1 O54 2.316262 1_555
Ca1 O55 2.335471 1_555
Ca1 O20 2.352772 1_556
Ca1 O56 2.363848 1_555
Ca2 O21 2.258124 1_555
Ca2 O22 2.278427 1_555
Ca2 O58 2.342255 1_555
Ca2 O23 2.365827 1_555
Ca2 O57 2.380656 1_555
Ca2 O59 2.422039 1_555
Ca3 O25 2.242189 1_554
Ca3 O24 2.257372 1_554
Ca3 O60 2.316544 1_555
Ca3 O26 2.330773 1_554
Ca3 O61 2.381747 1_555
Ca3 O62 2.406316 1_555
Ca4 O27 2.256991 1_555
Ca4 O28 2.278923 1_555
Ca4 O64 2.332114 1_555
Ca4 O29 2.360697 1_555
Ca4 O63 2.375819 1_555
Ca4 O65 2.418464 1_555
Ca5 O33 2.238014 1_555
Ca5 O34 2.243217 1_555
Ca5 O70 2.311748 1_555
Ca5 O35 2.329536 1_555
Ca5 O69 2.358512 1_555
Ca5 O71 2.405559 1_555
O0 S0 1.491709 1_555
O0 Zn0 2.056683 1_445
O1 S1 1.476574 1_555
O1 Zn0 2.042689 1_555
O2 S2 1.493140 1_655
O2 Zn0 2.209047 1_545
O3 S3 1.472014 1_555
O4 S4 1.484826 1_555
O5 S5 1.488840 1_555
O6 S5 1.485185 1_565
O6 Zn1 2.034657 1_665
O7 S3 1.469733 1_555
O7 Zn1 2.033769 1_555
O8 S4 1.488240 1_455
O8 Zn1 2.175935 1_565
O9 S1 1.475759 1_555
O9 Zn2 2.038863 1_555
O10 S2 1.491019 1_555
O10 Zn2 2.046555 1_445
O11 S0 1.491771 1_565
O11 Zn2 2.218014 1_455
O12 S6 1.485544 1_555
O12 Zn3 2.034080 1_555
O13 S7 1.470264 1_555
O13 Zn3 2.032728 1_555
O14 S8 1.488326 1_555
O14 Zn3 2.175802 1_555
O15 S9 1.471050 1_555
O15 Zn4 2.026581 1_555
O16 S10 1.487255 1_555
O16 Zn4 2.035543 1_555
O17 S11 1.490885 1_555
O17 Zn4 2.174880 1_555
O18 S11 1.486908 1_555
O19 S9 1.472433 1_555
O20 S10 1.489705 1_555
O21 S7 1.473514 1_555
O22 S8 1.486498 1_555
O23 S6 1.489319 1_555
O24 S12 1.483483 1_555
O25 S13 1.469714 1_555
O26 S14 1.486654 1_555
O27 S15 1.473876 1_555
O28 S16 1.487632 1_555
O29 S17 1.490070 1_555
O30 S17 1.488348 1_555
O30 Zn5 2.040682 1_555
O31 S15 1.472782 1_555
O31 Zn5 2.028297 1_555
O32 S16 1.492378 1_555
O32 Zn5 2.170039 1_555
O33 S13 1.469407 1_555
O34 S14 1.482513 1_555
O35 S12 1.486578 1_555
O36 S17 1.482434 1_555
O36 Zn0 2.138120 1_455
O37 S15 1.502262 1_555
O37 Zn0 2.158439 1_555
O38 S16 1.500190 1_555
O38 Zn0 2.214726 1_445
O39 S13 1.497068 1_655
O40 S14 1.476312 1_555
O41 S12 1.495015 1_555
O42 S6 1.482348 1_555
O42 Zn1 2.112928 1_655
O43 S7 1.502653 1_555
O43 Zn1 2.136626 1_555
O44 S8 1.498983 1_555
O44 Zn1 2.202865 1_665
O45 S9 1.501075 1_555
O45 Zn2 2.121863 1_555
O46 S10 1.481331 1_555
O46 Zn2 2.135177 1_545
O47 S11 1.497501 1_555
O47 Zn2 2.206062 1_445
O48 S5 1.480968 1_555
O48 Zn3 2.109275 1_555
O49 S3 1.500415 1_555
O49 Zn3 2.124985 1_555
O50 S4 1.496115 1_555
O50 Zn3 2.188336 1_555
O51 S1 1.512613 1_555
O51 Zn4 2.203817 1_555
O52 S2 1.489892 1_655
O52 Zn4 2.145893 1_555
O53 S0 1.504899 1_555
O53 Zn4 2.318388 1_555
O54 S12 1.475915 1_555
O55 S13 1.497155 1_655
O56 S14 1.495141 1_545
O57 S15 1.505303 1_545
O58 S16 1.480622 1_555
O59 S17 1.503055 1_655
O60 S11 1.479613 1_555
O61 S9 1.503735 1_455
O62 S10 1.501718 1_565
O63 S7 1.504639 1_565
O64 S8 1.480730 1_555
O65 S6 1.502222 1_455
O66 S0 1.491037 1_565
O66 Zn5 2.137050 1_555
O67 S1 1.509884 1_555
O67 Zn5 2.241938 1_555
O68 S2 1.505361 1_555
O68 Zn5 2.310470 1_555
O69 S3 1.503329 1_555
O70 S4 1.479343 1_455
O71 S5 1.500325 1_565
