# generated using pymatgen
data_LiMo(PO3)4
_symmetry_space_group_name_H-M   'P 1'
_cell_length_a   9.88108437
_cell_length_b   9.88108437
_cell_length_c   11.34161440
_cell_angle_alpha   39.81604050
_cell_angle_beta   39.81604050
_cell_angle_gamma   50.58781291
_symmetry_Int_Tables_number   1
_chemical_formula_structural   LiMo(PO3)4
_chemical_formula_sum   'Li2 Mo2 P8 O24'
_cell_volume   451.29826763
_cell_formula_units_Z   2
loop_
 _symmetry_equiv_pos_site_id
 _symmetry_equiv_pos_as_xyz
  1  'x, y, z'
loop_
 _atom_site_type_symbol
 _atom_site_label
 _atom_site_symmetry_multiplicity
 _atom_site_fract_x
 _atom_site_fract_y
 _atom_site_fract_z
 _atom_site_occupancy
  Li  Li0  1  0.00000000  0.00000000  0.50000000  1
  Li  Li1  1  0.00000000  0.00000000  0.00000000  1
  Mo  Mo0  1  0.19614200  0.80385800  0.25000000  1
  Mo  Mo1  1  0.80385800  0.19614200  0.75000000  1
  P  P0  1  0.29590200  0.26544900  0.46250600  1
  P  P1  1  0.49080700  0.01387100  0.29896000  1
  P  P2  1  0.70409800  0.73455100  0.53749400  1
  P  P3  1  0.50919300  0.98612900  0.70104000  1
  P  P4  1  0.01387100  0.49080700  0.79896000  1
  P  P5  1  0.26544900  0.29590200  0.96250600  1
  P  P6  1  0.73455100  0.70409800  0.03749400  1
  P  P7  1  0.98612900  0.50919300  0.20104000  1
  O  O0  1  0.69846500  0.02500400  0.61700800  1
  O  O1  1  0.10845300  0.13469800  0.67170400  1
  O  O2  1  0.30153500  0.97499600  0.38299200  1
  O  O3  1  0.89154700  0.86530200  0.32829600  1
  O  O4  1  0.55112000  0.81322200  0.48012500  1
  O  O5  1  0.05496500  0.69566000  0.57254400  1
  O  O6  1  0.74830500  0.49830500  0.66083400  1
  O  O7  1  0.55382500  0.78564800  0.71586900  1
  O  O8  1  0.86530200  0.89154700  0.82829600  1
  O  O9  1  0.50169500  0.25169500  0.83916600  1
  O  O10  1  0.21435200  0.44617500  0.78413100  1
  O  O11  1  0.97499600  0.30153500  0.88299200  1
  O  O12  1  0.18677800  0.44888000  0.01987500  1
  O  O13  1  0.30434000  0.94503500  0.92745600  1
  O  O14  1  0.69566000  0.05496500  0.07254400  1
  O  O15  1  0.81322200  0.55112000  0.98012500  1
  O  O16  1  0.02500400  0.69846500  0.11700800  1
  O  O17  1  0.78564800  0.55382500  0.21586900  1
  O  O18  1  0.49830500  0.74830500  0.16083400  1
  O  O19  1  0.13469800  0.10845300  0.17170400  1
  O  O20  1  0.44617500  0.21435200  0.28413100  1
  O  O21  1  0.25169500  0.50169500  0.33916600  1
  O  O22  1  0.94503500  0.30434000  0.42745600  1
  O  O23  1  0.44888000  0.18677800  0.51987500  1
loop_
_geom_bond_atom_site_label_1
_geom_bond_atom_site_label_2
_geom_bond_distance
_geom_bond_site_symmetry_2
Li0 O0 2.048008 1_455
Li0 O2 2.048008 1_545
Li0 O22 2.197012 1_455
Li0 O5 2.197012 1_545
Li0 O8 2.202736 1_445
Li0 O19 2.202736 1_555
Li1 O16 2.048008 1_545
Li1 O11 2.048008 1_454
Li1 O13 2.197012 1_544
Li1 O14 2.197012 1_455
Li1 O3 2.202736 1_445
Li1 O1 2.202736 1_554
Mo0 O21 2.090857 1_555
Mo0 O18 2.090857 1_555
Mo0 O5 2.125426 1_555
Mo0 O13 2.125426 1_554
Mo0 O19 2.148910 1_565
Mo0 O3 2.148910 1_455
Mo1 O9 2.090857 1_555
Mo1 O6 2.090857 1_555
Mo1 O14 2.125426 1_556
Mo1 O22 2.125426 1_555
Mo1 O1 2.148910 1_655
Mo1 O8 2.148910 1_545
O0 P3 1.471467 1_545
O1 P0 1.519125 1_555
O2 P1 1.471467 1_565
O3 P2 1.519125 1_555
O4 P2 1.598243 1_555
O4 P1 1.621879 1_565
O5 P4 1.520899 1_555
O6 P2 1.491432 1_555
O7 P2 1.598425 1_555
O7 P3 1.624751 1_555
O8 P6 1.519125 1_556
O9 P5 1.491432 1_555
O10 P5 1.598425 1_555
O10 P4 1.624751 1_555
O11 P4 1.471467 1_655
O12 P5 1.598243 1_554
O12 P7 1.621879 1_455
O13 P3 1.520899 1_555
O14 P1 1.520899 1_555
O15 P6 1.598243 1_556
O15 P4 1.621879 1_655
O16 P7 1.471467 1_455
O17 P6 1.598425 1_555
O17 P7 1.624751 1_555
O18 P6 1.491432 1_555
O19 P5 1.519125 1_554
O20 P0 1.598425 1_555
O20 P1 1.624751 1_555
O21 P0 1.491432 1_555
O22 P7 1.520899 1_555
O23 P0 1.598243 1_555
O23 P3 1.621879 1_545
