# generated using pymatgen
data_Na2MgSiGe(SO6)2
_symmetry_space_group_name_H-M   'P 1'
_cell_length_a   8.77695973
_cell_length_b   8.72140305
_cell_length_c   22.06742456
_cell_angle_alpha   91.07737066
_cell_angle_beta   90.00000000
_cell_angle_gamma   120.21094773
_symmetry_Int_Tables_number   1
_chemical_formula_structural   Na2MgSiGe(SO6)2
_chemical_formula_sum   'Na12 Mg6 Si6 Ge6 S12 O72'
_cell_volume   1459.42854286
_cell_formula_units_Z   6
loop_
 _symmetry_equiv_pos_site_id
 _symmetry_equiv_pos_as_xyz
  1  'x, y, z'
loop_
 _atom_site_type_symbol
 _atom_site_label
 _atom_site_symmetry_multiplicity
 _atom_site_fract_x
 _atom_site_fract_y
 _atom_site_fract_z
 _atom_site_occupancy
  Na  Na0  1  0.99874788  0.63524764  0.24298972  1
  Na  Na1  1  0.63649976  0.63524764  0.74298972  1
  Na  Na2  1  0.65869050  0.95761417  0.57930617  1
  Na  Na3  1  0.29892467  0.95761417  0.07930617  1
  Na  Na4  1  0.69632445  0.03037512  0.91065769  1
  Na  Na5  1  0.33404967  0.03037512  0.41065769  1
  Na  Na6  1  0.98476395  0.99422165  0.49686353  1
  Na  Na7  1  0.00945770  0.99422165  0.99686353  1
  Na  Na8  1  0.66346409  0.31802399  0.83032262  1
  Na  Na9  1  0.65456090  0.31802399  0.33032262  1
  Na  Na10  1  0.32849644  0.65852392  0.16334979  1
  Na  Na11  1  0.33002649  0.65852392  0.66334979  1
  Mg  Mg0  1  0.99853106  0.00572109  0.35335698  1
  Mg  Mg1  1  0.00719003  0.00572109  0.85335698  1
  Mg  Mg2  1  0.66568837  0.32731092  0.68601428  1
  Mg  Mg3  1  0.66162354  0.32731092  0.18601428  1
  Mg  Mg4  1  0.32295847  0.66679710  0.02029121  1
  Mg  Mg5  1  0.34383763  0.66679710  0.52029121  1
  Si  Si0  1  0.29869110  0.00608198  0.25450672  1
  Si  Si1  1  0.70739088  0.00608198  0.75450672  1
  Si  Si2  1  0.66490025  0.61779587  0.58744581  1
  Si  Si3  1  0.95289662  0.61779587  0.08744581  1
  Si  Si4  1  0.33018971  0.96655456  0.92277756  1
  Si  Si5  1  0.63636385  0.96655456  0.42277756  1
  Ge  Ge0  1  0.98051851  0.97774689  0.65086349  1
  Ge  Ge1  1  0.99722838  0.97774689  0.15086349  1
  Ge  Ge2  1  0.66119349  0.33986896  0.98321601  1
  Ge  Ge3  1  0.67867647  0.33986896  0.48321601  1
  Ge  Ge4  1  0.34852586  0.69601498  0.31617514  1
  Ge  Ge5  1  0.34748813  0.69601498  0.81617514  1
  S  S0  1  0.70298809  0.71016550  0.25137591  1
  S  S1  1  0.00491195  0.28793097  0.25019007  1
  S  S2  1  0.28301901  0.28793097  0.75019007  1
  S  S3  1  0.00717741  0.71016550  0.75137591  1
  S  S4  1  0.96145918  0.33550282  0.58455061  1
  S  S5  1  0.36541984  0.04263223  0.58387355  1
  S  S6  1  0.67721339  0.04263223  0.08387355  1
  S  S7  1  0.37404464  0.33550282  0.08455061  1
  S  S8  1  0.61975502  0.65989136  0.91727106  1
  S  S9  1  0.04718063  0.38385733  0.91558881  1
  S  S10  1  0.33667569  0.38385733  0.41558881  1
  S  S11  1  0.04013534  0.65989136  0.41727106  1
  O  O0  1  0.20300146  0.01613163  0.31406854  1
  O  O1  1  0.81511680  0.79635984  0.30396154  1
  O  O2  1  0.97896143  0.18254529  0.30323775  1
  O  O3  1  0.20358386  0.18254529  0.80323775  1
  O  O4  1  0.98124304  0.79635984  0.80396154  1
  O  O5  1  0.81313017  0.01613163  0.81406854  1
  O  O6  1  0.79188298  0.95442039  0.69168171  1
  O  O7  1  0.17218460  0.20376209  0.69249561  1
  O  O8  1  0.04538866  0.82146403  0.69451119  1
  O  O9  1  0.77607537  0.82146403  0.19451119  1
  O  O10  1  0.03157749  0.20376209  0.19249561  1
  O  O11  1  0.16253741  0.95442039  0.19168171  1
  O  O12  1  0.87853994  0.35836047  0.63789779  1
  O  O13  1  0.48494763  0.12476382  0.63533035  1
  O  O14  1  0.64947406  0.51572831  0.64755217  1
  O  O15  1  0.86625524  0.51572831  0.14755217  1
  O  O16  1  0.63981720  0.12476382  0.13533035  1
  O  O17  1  0.47982153  0.35836047  0.13789779  1
  O  O18  1  0.44712124  0.28774757  0.02795418  1
  O  O19  1  0.82206754  0.52649650  0.02418290  1
  O  O20  1  0.70544396  0.14701363  0.02639743  1
  O  O21  1  0.44157066  0.14701363  0.52639743  1
  O  O22  1  0.70442996  0.52649650  0.52418290  1
  O  O23  1  0.84062733  0.28774757  0.52795418  1
  O  O24  1  0.53291466  0.68422925  0.96955865  1
  O  O25  1  0.15308308  0.46371241  0.97003398  1
  O  O26  1  0.31904530  0.86002767  0.98121487  1
  O  O27  1  0.54098138  0.86002767  0.48121487  1
  O  O28  1  0.31062832  0.46371241  0.47003398  1
  O  O29  1  0.15131360  0.68422925  0.46955865  1
  O  O30  1  0.11389964  0.62591504  0.35855045  1
  O  O31  1  0.49640671  0.88335260  0.36112279  1
  O  O32  1  0.36406891  0.49355715  0.35911406  1
  O  O33  1  0.12948723  0.49355715  0.85911406  1
  O  O34  1  0.38694489  0.88335260  0.86112279  1
  O  O35  1  0.51201440  0.62591504  0.85855045  1
  O  O36  1  0.02376648  0.81874866  0.41199507  1
  O  O37  1  0.82572435  0.99257015  0.41175703  1
  O  O38  1  0.18449950  0.20321862  0.40981151  1
  O  O39  1  0.01871912  0.20321862  0.90981151  1
  O  O40  1  0.16684580  0.99257015  0.91175703  1
  O  O41  1  0.79498218  0.81874866  0.91199507  1
  O  O42  1  0.97653362  0.17025261  0.58830998  1
  O  O43  1  0.19128370  0.03553693  0.59101470  1
  O  O44  1  0.85426264  0.82638961  0.58861889  1
  O  O45  1  0.97212697  0.82638961  0.08861889  1
  O  O46  1  0.84425324  0.03553693  0.09101470  1
  O  O47  1  0.19371899  0.17025261  0.08830998  1
  O  O48  1  0.67862301  0.16904639  0.74455371  1
  O  O49  1  0.46200824  0.31577496  0.74392677  1
  O  O50  1  0.84869235  0.53558174  0.74385623  1
  O  O51  1  0.68689039  0.53558174  0.24385623  1
  O  O52  1  0.85376772  0.31577496  0.24392677  1
  O  O53  1  0.49042438  0.16904639  0.24455371  1
  O  O54  1  0.63653940  0.49689912  0.92030060  1
  O  O55  1  0.86693386  0.36601168  0.91908997  1
  O  O56  1  0.52975162  0.16828556  0.92737560  1
  O  O57  1  0.63853494  0.16828556  0.42737560  1
  O  O58  1  0.49907882  0.36601168  0.41908997  1
  O  O59  1  0.86036072  0.49689912  0.42030060  1
  O  O60  1  0.35981497  0.49195284  0.07506397  1
  O  O61  1  0.15088848  0.65432215  0.08100136  1
  O  O62  1  0.52512180  0.86171467  0.07704995  1
  O  O63  1  0.33659187  0.86171467  0.57704995  1
  O  O64  1  0.50343267  0.65432215  0.58100136  1
  O  O65  1  0.13213687  0.49195284  0.57506397  1
  O  O66  1  0.30052650  0.80693673  0.25578504  1
  O  O67  1  0.52188206  0.68896595  0.25607576  1
  O  O68  1  0.17001027  0.46902490  0.25456116  1
  O  O69  1  0.29901363  0.46902490  0.75456116  1
  O  O70  1  0.16708289  0.68896595  0.75607576  1
  O  O71  1  0.50640922  0.80693673  0.75578504  1
loop_
_geom_bond_atom_site_label_1
_geom_bond_atom_site_label_2
_geom_bond_distance
_geom_bond_site_symmetry_2
Na0 O66 2.308723 1_655
Na0 O15 2.360487 1_555
Na0 O52 2.411836 1_555
Na0 O51 2.419551 1_555
Na0 O68 2.575510 1_655
Na0 O11 2.681146 1_655
Na0 O30 2.760769 1_655
Na0 O1 2.930934 1_555
Na1 O71 2.308731 1_555
Na1 O14 2.360489 1_555
Na1 O49 2.411836 1_555
Na1 O50 2.419559 1_555
Na1 O69 2.575518 1_555
Na1 O6 2.681146 1_555
Na1 O35 2.760773 1_555
Na1 O4 2.930934 1_555
Na2 O64 2.287206 1_555
Na2 O27 2.350135 1_555
Na2 O42 2.457795 1_565
Na2 O44 2.506863 1_555
Na2 O63 2.512587 1_555
Na2 O6 2.748156 1_555
Na2 O23 2.760389 1_565
Na2 O13 2.854542 1_565
Na3 O61 2.287206 1_555
Na3 O26 2.350130 1_554
Na3 O47 2.457801 1_565
Na3 O45 2.506871 1_455
Na3 O62 2.512570 1_555
Na3 O11 2.748160 1_555
Na3 O18 2.760389 1_565
Na3 O16 2.854542 1_565
Na4 O56 2.339485 1_555
Na4 O5 2.393293 1_555
Na4 O41 2.401592 1_545
Na4 O39 2.447035 1_655
Na4 O55 2.532555 1_555
Na4 O34 2.579881 1_545
Na4 O20 2.717513 1_556
Na4 O24 2.941141 1_545
Na5 O57 2.339500 1_555
Na5 O0 2.393289 1_555
Na5 O36 2.401585 1_545
Na5 O38 2.447028 1_555
Na5 O58 2.532555 1_555
Na5 O31 2.579881 1_545
Na5 O21 2.717516 1_555
Na5 O29 2.941141 1_545
Na6 O37 2.335517 1_555
Na6 O44 2.445098 1_555
Na6 O36 2.527082 1_655
Na6 O42 2.535655 1_565
Na6 O38 2.646105 1_665
Na6 O43 2.654560 1_665
Na7 O40 2.335517 1_555
Na7 O45 2.445098 1_456
Na7 O41 2.527082 1_455
Na7 O47 2.535655 1_566
Na7 O39 2.646105 1_565
Na7 O46 2.654560 1_466
Na8 O48 2.317255 1_555
Na8 O56 2.496492 1_555
Na8 O55 2.533488 1_555
Na8 O54 2.585854 1_555
Na8 O49 2.593332 1_555
Na8 O50 2.629792 1_555
Na9 O53 2.317255 1_555
Na9 O57 2.496492 1_555
Na9 O58 2.533488 1_555
Na9 O59 2.585854 1_555
Na9 O52 2.593332 1_555
Na9 O51 2.629792 1_555
Na10 O61 2.381946 1_555
Na10 O66 2.473249 1_555
Na10 O60 2.505410 1_555
Na10 O68 2.555236 1_555
Na10 O67 2.581576 1_555
Na10 O62 2.606651 1_555
Na11 O64 2.381946 1_555
Na11 O71 2.473249 1_555
Na11 O65 2.505410 1_555
Na11 O69 2.555236 1_555
Na11 O70 2.581576 1_555
Na11 O63 2.606651 1_555
Mg0 O37 1.950622 1_545
Mg0 O0 1.954378 1_655
Mg0 O2 1.990401 1_555
Mg0 O1 2.020075 1_545
Mg0 O38 2.067130 1_655
Mg0 O36 2.196669 1_645
Mg1 O40 1.950622 1_545
Mg1 O5 1.954378 1_455
Mg1 O3 1.990401 1_555
Mg1 O4 2.020075 1_445
Mg1 O39 2.067130 1_555
Mg1 O41 2.196669 1_445
Mg2 O14 1.930999 1_555
Mg2 O48 1.952337 1_555
Mg2 O13 1.998387 1_555
Mg2 O12 2.047581 1_555
Mg2 O50 2.117834 1_555
Mg2 O49 2.159405 1_555
Mg3 O15 1.930999 1_555
Mg3 O53 1.952337 1_555
Mg3 O16 1.998387 1_555
Mg3 O17 2.047581 1_555
Mg3 O51 2.117834 1_555
Mg3 O52 2.159405 1_555
Mg4 O26 1.922941 1_554
Mg4 O25 1.964337 1_554
Mg4 O61 1.981832 1_555
Mg4 O24 2.096845 1_554
Mg4 O60 2.111067 1_555
Mg4 O62 2.119298 1_555
Mg5 O27 1.922941 1_555
Mg5 O28 1.964337 1_555
Mg5 O64 1.981832 1_555
Mg5 O29 2.096845 1_555
Mg5 O65 2.111067 1_555
Mg5 O63 2.119298 1_555
Ge0 O6 1.806054 1_555
Ge0 O44 1.821241 1_555
Ge0 O8 1.984957 1_655
Ge0 O7 2.038205 1_665
Ge0 O43 2.122988 1_665
Ge0 O42 2.207200 1_565
Ge1 O11 1.806054 1_655
Ge1 O45 1.821241 1_555
Ge1 O9 1.984957 1_555
Ge1 O10 2.038205 1_665
Ge1 O46 2.122988 1_565
Ge1 O47 2.207200 1_665
Ge2 O19 1.758419 1_556
Ge2 O56 1.811630 1_555
Ge2 O18 1.966959 1_556
Ge2 O54 2.054205 1_555
Ge2 O20 2.146059 1_556
Ge2 O55 2.216551 1_555
Ge3 O22 1.758419 1_555
Ge3 O57 1.811630 1_555
Ge3 O23 1.966959 1_555
Ge3 O59 2.054205 1_555
Ge3 O21 2.146059 1_555
Ge3 O58 2.216551 1_555
Ge4 O31 1.772807 1_555
Ge4 O66 1.829735 1_555
Ge4 O67 2.041775 1_555
Ge4 O30 2.059959 1_555
Ge4 O32 2.083159 1_555
Ge4 O68 2.236055 1_555
Ge5 O34 1.772807 1_555
Ge5 O71 1.829735 1_555
Ge5 O70 2.041775 1_555
Ge5 O35 2.059959 1_555
Ge5 O33 2.083159 1_555
Ge5 O69 2.236055 1_555
O0 Si0 1.584420 1_555
O1 S0 1.450143 1_555
O2 S1 1.448030 1_655
O3 S2 1.448030 1_555
O4 S3 1.450143 1_655
O5 Si1 1.584420 1_555
O6 Si1 1.728521 1_565
O7 S2 1.533736 1_555
O8 S3 1.532172 1_555
O9 S0 1.532172 1_555
O10 S1 1.533736 1_555
O11 Si0 1.728521 1_565
O12 S4 1.446536 1_555
O13 S5 1.454731 1_555
O14 Si2 1.578976 1_555
O15 Si3 1.578976 1_555
O16 S6 1.454731 1_555
O17 S7 1.446536 1_555
O18 S7 1.547245 1_555
O19 Si3 1.714519 1_555
O20 S6 1.521599 1_555
O21 S5 1.521599 1_555
O22 Si2 1.714519 1_555
O23 S4 1.547245 1_555
O24 S8 1.452919 1_555
O25 S9 1.452443 1_555
O26 Si4 1.577750 1_555
O27 Si5 1.577750 1_555
O28 S10 1.452443 1_555
O29 S11 1.452919 1_555
O30 S11 1.537767 1_555
O31 Si5 1.718274 1_555
O32 S10 1.529588 1_555
O33 S9 1.529588 1_555
O34 Si4 1.718274 1_555
O35 S8 1.537767 1_555
O36 S11 1.469719 1_555
O37 Si5 1.579707 1_555
O38 S10 1.468671 1_555
O39 S9 1.468674 1_555
O40 Si4 1.579699 1_555
O41 S8 1.469724 1_555
O42 S4 1.515876 1_555
O43 S5 1.506590 1_555
O44 Si2 1.740103 1_555
O45 Si3 1.740107 1_555
O46 S6 1.506581 1_555
O47 S7 1.515881 1_555
O48 Si1 1.582693 1_555
O49 S2 1.470848 1_555
O50 S3 1.462821 1_655
O51 S0 1.462825 1_555
O52 S1 1.470839 1_655
O53 Si0 1.582698 1_555
O54 S8 1.503733 1_555
O55 S9 1.511832 1_655
O56 Si4 1.750898 1_545
O57 Si5 1.750890 1_545
O58 S10 1.511849 1_555
O59 S11 1.503723 1_655
O60 S7 1.450319 1_555
O61 Si3 1.608145 1_455
O62 S6 1.471608 1_565
O63 S5 1.471601 1_565
O64 Si2 1.608163 1_555
O65 S4 1.450309 1_455
O66 Si0 1.745743 1_565
O67 S0 1.508840 1_555
O68 S1 1.514800 1_555
O69 S2 1.514804 1_555
O70 S3 1.508831 1_555
O71 Si1 1.745748 1_565
