# generated using pymatgen
data_Na14Ti3Zn5(PO4)12
_symmetry_space_group_name_H-M   'P 1'
_cell_length_a   17.94926365
_cell_length_b   8.97461414
_cell_length_c   21.91473797
_cell_angle_alpha   90.04918785
_cell_angle_beta   89.92363499
_cell_angle_gamma   120.03503707
_symmetry_Int_Tables_number   1
_chemical_formula_structural   Na14Ti3Zn5(PO4)12
_chemical_formula_sum   'Na42 Ti9 Zn15 P36 O144'
_cell_volume   3056.15587223
_cell_formula_units_Z   3
loop_
 _symmetry_equiv_pos_site_id
 _symmetry_equiv_pos_as_xyz
  1  'x, y, z'
loop_
 _atom_site_type_symbol
 _atom_site_label
 _atom_site_symmetry_multiplicity
 _atom_site_fract_x
 _atom_site_fract_y
 _atom_site_fract_z
 _atom_site_occupancy
  Na  Na0  1  0.18520106  0.36206835  0.24717180  1
  Na  Na1  1  0.68560132  0.36269272  0.24723481  1
  Na  Na2  1  0.99461637  0.62874802  0.24761681  1
  Na  Na3  1  0.49482467  0.62842323  0.24689371  1
  Na  Na4  1  0.31851572  0.62858146  0.74726126  1
  Na  Na5  1  0.81926567  0.62976901  0.74770611  1
  Na  Na6  1  0.18503479  0.01102675  0.74727599  1
  Na  Na7  1  0.68544596  0.01030869  0.74708568  1
  Na  Na8  1  0.15523975  0.34205223  0.57988045  1
  Na  Na9  1  0.65555343  0.34266717  0.57978732  1
  Na  Na10  1  0.01542751  0.68879816  0.58039835  1
  Na  Na11  1  0.51538232  0.68827800  0.58024299  1
  Na  Na12  1  0.32841531  0.96798836  0.57997066  1
  Na  Na13  1  0.82865454  0.96778493  0.58017002  1
  Na  Na14  1  0.15422897  0.96782744  0.07971189  1
  Na  Na15  1  0.65365597  0.96490720  0.08160288  1
  Na  Na16  1  0.32850830  0.68780770  0.07973459  1
  Na  Na17  1  0.01843499  0.34487239  0.08181356  1
  Na  Na18  1  0.51685424  0.34338093  0.07924992  1
  Na  Na19  1  0.48172855  0.66945834  0.91759359  1
  Na  Na20  1  0.98544230  0.67607207  0.91414159  1
  Na  Na21  1  0.35300045  0.03788472  0.91707321  1
  Na  Na22  1  0.16581870  0.29184140  0.91745260  1
  Na  Na23  1  0.66353464  0.29769934  0.91447931  1
  Na  Na24  1  0.48126968  0.29434033  0.41719018  1
  Na  Na25  1  0.98129891  0.29429152  0.41709859  1
  Na  Na26  1  0.16571381  0.03846442  0.41760844  1
  Na  Na27  1  0.66579517  0.03852005  0.41764869  1
  Na  Na28  1  0.35316556  0.66706439  0.41755471  1
  Na  Na29  1  0.85322800  0.66717329  0.41756324  1
  Na  Na30  1  0.00009702  0.00008366  0.49603732  1
  Na  Na31  1  0.50002615  0.00013836  0.49583840  1
  Na  Na32  1  0.98879945  0.99104575  0.99523320  1
  Na  Na33  1  0.49953414  0.99955420  0.99595767  1
  Na  Na34  1  0.33907926  0.33409664  0.83079629  1
  Na  Na35  1  0.84066191  0.32528897  0.82867604  1
  Na  Na36  1  0.33277659  0.32131123  0.33077248  1
  Na  Na37  1  0.83307543  0.32149033  0.33100623  1
  Na  Na38  1  0.17138999  0.67711890  0.16450756  1
  Na  Na39  1  0.67718726  0.67756195  0.16195032  1
  Na  Na40  1  0.16123061  0.65726640  0.66432186  1
  Na  Na41  1  0.66150052  0.65754949  0.66447394  1
  Ti  Ti0  1  0.99970688  0.00252941  0.65061832  1
  Ti  Ti1  1  0.50010080  0.00245831  0.65063338  1
  Ti  Ti2  1  0.99599504  0.99519364  0.14890384  1
  Ti  Ti3  1  0.49923021  0.99917231  0.15009464  1
  Ti  Ti4  1  0.83358654  0.32937009  0.98192077  1
  Ti  Ti5  1  0.16885540  0.67159203  0.31475266  1
  Ti  Ti6  1  0.66900865  0.67205746  0.31473040  1
  Ti  Ti7  1  0.16284857  0.66123900  0.81520252  1
  Ti  Ti8  1  0.66679401  0.66486018  0.81566682  1
  Zn  Zn0  1  0.99937829  0.00132558  0.34697697  1
  Zn  Zn1  1  0.49949191  0.00131758  0.34716073  1
  Zn  Zn2  1  0.99640237  0.00140046  0.84922598  1
  Zn  Zn3  1  0.49943374  0.00091298  0.84703023  1
  Zn  Zn4  1  0.33667291  0.33369382  0.68183882  1
  Zn  Zn5  1  0.83691910  0.33412802  0.68157843  1
  Zn  Zn6  1  0.33272306  0.32601622  0.18164802  1
  Zn  Zn7  1  0.83297442  0.32813900  0.18266154  1
  Zn  Zn8  1  0.33311395  0.33220628  0.98625447  1
  Zn  Zn9  1  0.33391327  0.33353637  0.48610979  1
  Zn  Zn10  1  0.83397957  0.33369663  0.48610903  1
  Zn  Zn11  1  0.16688109  0.66700704  0.01461539  1
  Zn  Zn12  1  0.67069619  0.66802423  0.01575267  1
  Zn  Zn13  1  0.16642942  0.66648514  0.51469261  1
  Zn  Zn14  1  0.66654009  0.66643923  0.51469962  1
  P  P0  1  0.14663415  0.99871723  0.25069235  1
  P  P1  1  0.64768603  0.99942319  0.25171399  1
  P  P2  1  0.35220719  0.70796629  0.25170896  1
  P  P3  1  0.85228909  0.70874564  0.25197418  1
  P  P4  1  0.99957327  0.29423147  0.25175355  1
  P  P5  1  0.50009135  0.29532665  0.25182554  1
  P  P6  1  0.14550632  0.29473378  0.75247278  1
  P  P7  1  0.64637878  0.29694269  0.75200055  1
  P  P8  1  0.00046321  0.70533831  0.75194100  1
  P  P9  1  0.50077713  0.70492286  0.75212753  1
  P  P10  1  0.35183461  -0.00020364  0.75243441  1
  P  P11  1  0.85280513  0.00032164  0.75174888  1
  P  P12  1  0.48117692  0.33047549  0.58329228  1
  P  P13  1  0.98133468  0.33062990  0.58314619  1
  P  P14  1  0.18339793  0.03752819  0.58478690  1
  P  P15  1  0.68339396  0.03751421  0.58475544  1
  P  P16  1  0.33499096  0.63247058  0.58500284  1
  P  P17  1  0.83501269  0.63243752  0.58492410  1
  P  P18  1  0.48113670  0.63197991  0.08474041  1
  P  P19  1  0.97798398  0.62868267  0.08452479  1
  P  P20  1  0.33489791  0.03772503  0.08323049  1
  P  P21  1  0.83356554  0.04030411  0.08454794  1
  P  P22  1  0.18327674  0.32910096  0.08499017  1
  P  P23  1  0.68696668  0.33429204  0.08542494  1
  P  P24  1  0.31291690  0.66655112  0.91659721  1
  P  P25  1  0.81350305  0.66618481  0.91763764  1
  P  P26  1  0.01903431  0.37196056  0.91898886  1
  P  P27  1  0.52065351  0.37483661  0.91792498  1
  P  P28  1  0.16676120  0.96015087  0.91672825  1
  P  P29  1  0.66876109  0.96038795  0.91831099  1
  P  P30  1  0.31334507  0.95913438  0.41778045  1
  P  P31  1  0.81339587  0.95929351  0.41783924  1
  P  P32  1  0.16662858  0.37390605  0.41658145  1
  P  P33  1  0.66660394  0.37388633  0.41655744  1
  P  P34  1  0.02040677  0.66730510  0.41662376  1
  P  P35  1  0.52041897  0.66722147  0.41662795  1
  O  O0  1  0.10728527  0.02590526  0.30867075  1
  O  O1  1  0.60756756  0.02590466  0.30929527  1
  O  O2  1  0.40616256  0.78476197  0.30892909  1
  O  O3  1  0.90555938  0.78322246  0.30970454  1
  O  O4  1  0.48942875  0.19466027  0.30997247  1
  O  O5  1  0.98932292  0.19483501  0.31018775  1
  O  O6  1  0.10707849  0.18573045  0.80926430  1
  O  O7  1  0.60785848  0.18875179  0.80917558  1
  O  O8  1  0.48716076  0.78425557  0.80987357  1
  O  O9  1  0.98812158  0.78589683  0.80962358  1
  O  O10  1  0.40229096  0.02108948  0.81055366  1
  O  O11  1  0.90586299  0.02353663  0.80757703  1
  O  O12  1  0.39961652  0.97327891  0.69616470  1
  O  O13  1  0.89779501  0.97214559  0.69381878  1
  O  O14  1  0.08763021  0.20133814  0.69510520  1
  O  O15  1  0.58827236  0.20229538  0.69508902  1
  O  O16  1  0.01461621  0.82795423  0.69562054  1
  O  O17  1  0.51495904  0.82833598  0.69593030  1
  O  O18  1  0.39990472  0.82476572  0.19478246  1
  O  O19  1  0.90148125  0.82940282  0.19636273  1
  O  O20  1  0.01239897  0.19878323  0.19527194  1
  O  O21  1  0.51385220  0.20018525  0.19535325  1
  O  O22  1  0.08490424  0.96863688  0.19444250  1
  O  O23  1  0.58647186  0.97187949  0.19542168  1
  O  O24  1  0.43911664  0.36497339  0.63751359  1
  O  O25  1  0.93931432  0.36505864  0.63742382  1
  O  O26  1  0.23873808  0.11884475  0.64152231  1
  O  O27  1  0.73865641  0.11913647  0.64147996  1
  O  O28  1  0.31940866  0.52089294  0.64157721  1
  O  O29  1  0.81933198  0.52084964  0.64152733  1
  O  O30  1  0.43993357  0.52223272  0.14157395  1
  O  O31  1  0.93976609  0.52083552  0.14174718  1
  O  O32  1  0.31789387  0.12153239  0.13760534  1
  O  O33  1  0.81825877  0.12122799  0.14028622  1
  O  O34  1  0.23951334  0.36181131  0.14148534  1
  O  O35  1  0.73726248  0.35501635  0.14343939  1
  O  O36  1  0.21987520  0.29095370  0.02680805  1
  O  O37  1  0.73298227  0.30450681  0.02846651  1
  O  O38  1  0.42544243  0.55986011  0.02668905  1
  O  O39  1  0.92087532  0.53485763  0.02698968  1
  O  O40  1  0.35594754  0.14590907  0.02418159  1
  O  O41  1  0.84891461  0.16581784  0.02822312  1
  O  O42  1  0.22019833  0.14889590  0.52668212  1
  O  O43  1  0.71997861  0.14873942  0.52663726  1
  O  O44  1  0.35490223  0.56060043  0.52686918  1
  O  O45  1  0.85452016  0.55996026  0.52677892  1
  O  O46  1  0.42704040  0.28827042  0.52424187  1
  O  O47  1  0.92703247  0.28844829  0.52413172  1
  O  O48  1  0.27379496  0.69375886  0.97478009  1
  O  O49  1  0.77122036  0.68789230  0.97330306  1
  O  O50  1  0.07109239  0.45022754  0.97709925  1
  O  O51  1  0.57227588  0.45140552  0.97627053  1
  O  O52  1  0.15278651  0.85292570  0.97451020  1
  O  O53  1  0.65264352  0.85233458  0.97542568  1
  O  O54  1  0.27488952  0.85496930  0.47614316  1
  O  O55  1  0.77485758  0.85505129  0.47615255  1
  O  O56  1  0.15352949  0.45310182  0.47470226  1
  O  O57  1  0.65346564  0.45298813  0.47468478  1
  O  O58  1  0.07340625  0.69469803  0.47453676  1
  O  O59  1  0.57343810  0.69471056  0.47457963  1
  O  O60  1  0.07024371  0.64863917  0.35966271  1
  O  O61  1  0.57028152  0.64858344  0.35966943  1
  O  O62  1  0.25201315  0.85414664  0.36246545  1
  O  O63  1  0.75207467  0.85429068  0.36252335  1
  O  O64  1  0.17552416  0.49188383  0.35975695  1
  O  O65  1  0.67555539  0.49188494  0.35973068  1
  O  O66  1  0.06749880  0.49750010  0.86349586  1
  O  O67  1  0.57437773  0.49957814  0.86308466  1
  O  O68  1  0.17543618  0.85893021  0.85989373  1
  O  O69  1  0.68074293  0.86913376  0.86048515  1
  O  O70  1  0.25270154  0.64754302  0.86033998  1
  O  O71  1  0.75550150  0.63868613  0.85889683  1
  O  O72  1  0.01030205  0.82764138  0.41118002  1
  O  O73  1  0.51018782  0.82746391  0.41119478  1
  O  O74  1  0.40331098  0.97871242  0.41134066  1
  O  O75  1  0.90331501  0.97884300  0.41141620  1
  O  O76  1  0.08638960  0.19302525  0.41145555  1
  O  O77  1  0.58634361  0.19310430  0.41147525  1
  O  O78  1  0.01056502  0.19572669  0.91101088  1
  O  O79  1  0.51079778  0.19467630  0.91096751  1
  O  O80  1  0.08702182  0.98151941  0.91125091  1
  O  O81  1  0.59018443  0.98602757  0.91153755  1
  O  O82  1  0.40358932  0.82707265  0.91127736  1
  O  O83  1  0.90561999  0.81518338  0.91131491  1
  O  O84  1  0.48996395  0.16356719  0.59280224  1
  O  O85  1  0.99033117  0.16399381  0.59238244  1
  O  O86  1  0.09105286  0.01953591  0.59200001  1
  O  O87  1  0.59099996  0.01948688  0.59210142  1
  O  O88  1  0.41822417  0.81756494  0.59280027  1
  O  O89  1  0.91840804  0.81700815  0.59237658  1
  O  O90  1  0.49006365  0.81734908  0.09210426  1
  O  O91  1  0.98687432  0.81219125  0.08827926  1
  O  O92  1  0.41885065  0.02049199  0.09242121  1
  O  O93  1  0.91986425  0.03557353  0.08835046  1
  O  O94  1  0.09111229  0.16194230  0.09292560  1
  O  O95  1  0.59587354  0.16073084  0.08790806  1
  O  O96  1  0.33551384  0.15028289  0.74504117  1
  O  O97  1  0.83511058  0.14970168  0.74436241  1
  O  O98  1  0.23671349  0.32093401  0.74475873  1
  O  O99  1  0.73718129  0.32106976  0.74488484  1
  O  O100  1  0.42097391  0.52814223  0.74399005  1
  O  O101  1  0.92067694  0.52784169  0.74425762  1
  O  O102  1  0.33981645  0.52630657  0.24443061  1
  O  O103  1  0.84025702  0.52763493  0.24416727  1
  O  O104  1  0.42465232  0.32752713  0.24458098  1
  O  O105  1  0.92475156  0.32844016  0.24510835  1
  O  O106  1  0.23535906  0.15809847  0.24319923  1
  O  O107  1  0.73624899  0.15861483  0.24445421  1
  O  O108  1  0.31782472  0.49960029  0.91600550  1
  O  O109  1  0.81748631  0.49249991  0.92078690  1
  O  O110  1  0.43264740  0.36609981  0.91610103  1
  O  O111  1  0.93044054  0.36781812  0.92169260  1
  O  O112  1  0.25088009  0.13597846  0.91624660  1
  O  O113  1  0.75144476  0.14450902  0.92252918  1
  O  O114  1  0.31724124  0.13452847  0.41649421  1
  O  O115  1  0.81720278  0.13452555  0.41652620  1
  O  O116  1  0.25026662  0.36428951  0.41613664  1
  O  O117  1  0.75020730  0.36415107  0.41612517  1
  O  O118  1  0.43202360  0.49967718  0.41630612  1
  O  O119  1  0.93206303  0.49980306  0.41627911  1
  O  O120  1  0.17007011  0.48663572  0.08013264  1
  O  O121  1  0.66925148  0.48284628  0.07859143  1
  O  O122  1  0.06973426  0.65548472  0.07810227  1
  O  O123  1  0.57284176  0.65852928  0.08028611  1
  O  O124  1  0.25688525  0.85292815  0.07906810  1
  O  O125  1  0.75507698  0.86291348  0.07606544  1
  O  O126  1  0.17006712  0.85365732  0.58016292  1
  O  O127  1  0.66995447  0.85363321  0.58019285  1
  O  O128  1  0.25629390  0.65884267  0.58012636  1
  O  O129  1  0.75629327  0.65883740  0.58012813  1
  O  O130  1  0.07353746  0.48627270  0.57886136  1
  O  O131  1  0.57346959  0.48605821  0.57897056  1
  O  O132  1  0.15006065  0.82677199  0.25401752  1
  O  O133  1  0.65031800  0.82694994  0.25432777  1
  O  O134  1  0.26104223  0.69133825  0.25447948  1
  O  O135  1  0.76122567  0.69201997  0.25452012  1
  O  O136  1  0.08629562  0.47516317  0.25291619  1
  O  O137  1  0.58650154  0.47585566  0.25307435  1
  O  O138  1  0.15365446  0.47733030  0.75583864  1
  O  O139  1  0.65483565  0.47950286  0.75504067  1
  O  O140  1  0.08642485  0.69833198  0.75452337  1
  O  O141  1  0.58712648  0.70007662  0.75537734  1
  O  O142  1  0.26159329  0.82676676  0.75377907  1
  O  O143  1  0.76230757  0.82737375  0.75419465  1
loop_
_geom_bond_atom_site_label_1
_geom_bond_atom_site_label_2
_geom_bond_distance
_geom_bond_site_symmetry_2
Na0 O102 2.404762 1_555
Na0 O106 2.412124 1_555
Na0 O136 2.449618 1_555
Na0 O34 2.512144 1_555
Na0 O134 2.565930 1_555
Na0 O64 2.769735 1_555
Na0 O20 2.918545 1_555
Na0 O0 2.941493 1_555
Na1 O103 2.405787 1_555
Na1 O107 2.418896 1_555
Na1 O137 2.453449 1_555
Na1 O35 2.469146 1_555
Na1 O135 2.566538 1_555
Na1 O65 2.767278 1_555
Na1 O21 2.903260 1_555
Na1 O1 2.951485 1_555
Na2 O105 2.335806 1_555
Na2 O103 2.447278 1_555
Na2 O132 2.449409 1_655
Na2 O31 2.517509 1_555
Na2 O136 2.625392 1_655
Na2 O60 2.769362 1_655
Na2 O22 2.888155 1_655
Na2 O3 2.921972 1_555
Na3 O104 2.340160 1_555
Na3 O133 2.452216 1_555
Na3 O102 2.455948 1_555
Na3 O30 2.503680 1_555
Na3 O137 2.618654 1_555
Na3 O61 2.781732 1_555
Na3 O23 2.899076 1_555
Na3 O2 2.928425 1_555
Na4 O98 2.392444 1_555
Na4 O100 2.420493 1_555
Na4 O142 2.458905 1_555
Na4 O28 2.511952 1_555
Na4 O138 2.571445 1_555
Na4 O70 2.785339 1_555
Na4 O12 2.904554 1_555
Na4 O8 2.961738 1_555
Na5 O99 2.400789 1_555
Na5 O101 2.412925 1_555
Na5 O143 2.454515 1_555
Na5 O29 2.523321 1_555
Na5 O139 2.563191 1_555
Na5 O71 2.708844 1_555
Na5 O13 2.913585 1_555
Na5 O9 2.957521 1_555
Na6 O96 2.340988 1_555
Na6 O98 2.452870 1_555
Na6 O140 2.461928 1_545
Na6 O26 2.510130 1_555
Na6 O142 2.630398 1_545
Na6 O68 2.784443 1_545
Na6 O16 2.883170 1_545
Na6 O6 2.906739 1_555
Na7 O97 2.328227 1_555
Na7 O141 2.445523 1_545
Na7 O99 2.459767 1_555
Na7 O27 2.507264 1_555
Na7 O143 2.625151 1_545
Na7 O69 2.772362 1_545
Na7 O17 2.879467 1_545
Na7 O7 2.929060 1_555
Na8 O130 2.393042 1_555
Na8 O128 2.492142 1_555
Na8 O56 2.518288 1_555
Na8 O86 2.537328 1_555
Na8 O85 2.579480 1_455
Na8 O42 2.782065 1_555
Na8 O14 2.811916 1_555
Na8 O28 2.891304 1_555
Na9 O131 2.392751 1_555
Na9 O129 2.486941 1_555
Na9 O57 2.515578 1_555
Na9 O87 2.542456 1_555
Na9 O84 2.591339 1_555
Na9 O43 2.780407 1_555
Na9 O15 2.811505 1_555
Na9 O29 2.886290 1_555
Na10 O126 2.404643 1_555
Na10 O130 2.508044 1_555
Na10 O58 2.531105 1_555
Na10 O89 2.535660 1_455
Na10 O86 2.585325 1_565
Na10 O45 2.779012 1_455
Na10 O25 2.810318 1_455
Na10 O16 2.819315 1_555
Na11 O127 2.403790 1_555
Na11 O131 2.505103 1_555
Na11 O59 2.526802 1_555
Na11 O88 2.546970 1_555
Na11 O87 2.589633 1_565
Na11 O44 2.771452 1_555
Na11 O24 2.809545 1_555
Na11 O17 2.830475 1_555
Na12 O128 2.403756 1_555
Na12 O54 2.481012 1_555
Na12 O126 2.492324 1_555
Na12 O84 2.544482 1_565
Na12 O88 2.584654 1_555
Na12 O46 2.791772 1_565
Na12 O12 2.840289 1_555
Na12 O26 2.901046 1_565
Na13 O129 2.402016 1_555
Na13 O55 2.485185 1_555
Na13 O127 2.498485 1_555
Na13 O85 2.545510 1_565
Na13 O89 2.584956 1_555
Na13 O13 2.775629 1_555
Na13 O47 2.796666 1_565
Na13 O27 2.906446 1_565
Na14 O122 2.429652 1_555
Na14 O52 2.519637 1_554
Na14 O124 2.522040 1_555
Na14 O94 2.525118 1_565
Na14 O91 2.609280 1_455
Na14 O36 2.779150 1_565
Na14 O22 2.805484 1_555
Na14 O32 2.844764 1_565
Na15 O123 2.381731 1_555
Na15 O125 2.415347 1_555
Na15 O95 2.450968 1_565
Na15 O53 2.532377 1_554
Na15 O90 2.556353 1_555
Na15 O23 2.783335 1_555
Na15 O33 2.865107 1_565
Na15 O37 2.886135 1_565
Na16 O124 2.399194 1_555
Na16 O120 2.491444 1_555
Na16 O48 2.513220 1_554
Na16 O90 2.541780 1_555
Na16 O92 2.602764 1_565
Na16 O38 2.772988 1_555
Na16 O18 2.817127 1_555
Na16 O34 2.874932 1_555
Na17 O120 2.358230 1_555
Na17 O93 2.437153 1_455
Na17 O122 2.460891 1_555
Na17 O50 2.481273 1_554
Na17 O94 2.569385 1_555
Na17 O20 2.788481 1_555
Na17 O41 2.886436 1_455
Na17 O31 2.904586 1_455
Na18 O121 2.371047 1_555
Na18 O51 2.460651 1_554
Na18 O123 2.482848 1_555
Na18 O92 2.544046 1_555
Na18 O95 2.657702 1_555
Na18 O40 2.796490 1_555
Na18 O21 2.839757 1_555
Na18 O30 2.925377 1_555
Na19 O110 2.405877 1_555
Na19 O82 2.444189 1_555
Na19 O81 2.518410 1_555
Na19 O108 2.547708 1_555
Na19 O8 2.558641 1_555
Na19 O38 2.589769 1_556
Na20 O83 2.325146 1_555
Na20 O80 2.416511 1_655
Na20 O111 2.433439 1_555
Na20 O9 2.485205 1_555
Na20 O109 2.617457 1_555
Na20 O39 2.755470 1_556
Na20 O66 2.885312 1_655
Na20 O52 2.919955 1_655
Na21 O112 2.398059 1_555
Na21 O79 2.455548 1_555
Na21 O82 2.477744 1_545
Na21 O10 2.526268 1_555
Na21 O40 2.529301 1_556
Na21 O110 2.550554 1_555
Na22 O108 2.414323 1_555
Na22 O80 2.414931 1_545
Na22 O78 2.474702 1_555
Na22 O112 2.535001 1_555
Na22 O6 2.576324 1_555
Na22 O36 2.588177 1_556
Na23 O79 2.416540 1_555
Na23 O81 2.423812 1_545
Na23 O109 2.424034 1_555
Na23 O7 2.510841 1_555
Na23 O113 2.565915 1_555
Na23 O37 2.780177 1_556
Na23 O71 2.918507 1_555
Na23 O51 2.944923 1_555
Na24 O118 2.410072 1_555
Na24 O74 2.455659 1_545
Na24 O77 2.472382 1_555
Na24 O46 2.528881 1_555
Na24 O4 2.543464 1_555
Na24 O114 2.549209 1_555
Na25 O119 2.411409 1_555
Na25 O75 2.454070 1_545
Na25 O76 2.472793 1_655
Na25 O47 2.529101 1_555
Na25 O5 2.535929 1_555
Na25 O115 2.550259 1_555
Na26 O114 2.407021 1_555
Na26 O76 2.438741 1_555
Na26 O72 2.469462 1_545
Na26 O116 2.532286 1_555
Na26 O42 2.585378 1_555
Na26 O0 2.588408 1_555
Na27 O115 2.405087 1_555
Na27 O77 2.440933 1_555
Na27 O73 2.472534 1_545
Na27 O117 2.530759 1_555
Na27 O1 2.575124 1_555
Na27 O43 2.582274 1_555
Na28 O116 2.402468 1_555
Na28 O73 2.443977 1_555
Na28 O74 2.476221 1_555
Na28 O118 2.527716 1_555
Na28 O2 2.584539 1_555
Na28 O44 2.585872 1_555
Na29 O117 2.404573 1_555
Na29 O72 2.444811 1_655
Na29 O75 2.476536 1_555
Na29 O119 2.527236 1_555
Na29 O3 2.563797 1_555
Na29 O45 2.584825 1_555
Na30 O76 2.479152 1_555
Na30 O72 2.482894 1_545
Na30 O75 2.483857 1_445
Na30 O86 2.615652 1_555
Na30 O89 2.625430 1_445
Na30 O85 2.627620 1_455
Na31 O77 2.475781 1_555
Na31 O73 2.480469 1_545
Na31 O74 2.480587 1_545
Na31 O87 2.621371 1_555
Na31 O88 2.635355 1_545
Na31 O84 2.637807 1_555
Na32 O83 2.397003 1_555
Na32 O78 2.493810 1_665
Na32 O93 2.518286 1_566
Na32 O80 2.577745 1_655
Na32 O91 2.585625 1_556
Na32 O94 2.737438 1_666
Na33 O82 2.478042 1_555
Na33 O79 2.495319 1_565
Na33 O81 2.504835 1_555
Na33 O95 2.577476 1_566
Na33 O92 2.620130 1_566
Na33 O90 2.620898 1_556
Na34 O110 2.433614 1_555
Na34 O96 2.479224 1_555
Na34 O100 2.499606 1_555
Na34 O112 2.520786 1_555
Na34 O108 2.529684 1_555
Na34 O98 2.595497 1_555
Na35 O97 2.396978 1_555
Na35 O101 2.484931 1_555
Na35 O111 2.507868 1_555
Na35 O99 2.600345 1_555
Na35 O113 2.612099 1_555
Na35 O109 2.667801 1_555
Na36 O114 2.439847 1_555
Na36 O104 2.488019 1_555
Na36 O106 2.515219 1_555
Na36 O118 2.529533 1_555
Na36 O116 2.530806 1_555
Na36 O102 2.598760 1_555
Na37 O115 2.436081 1_555
Na37 O105 2.478783 1_555
Na37 O107 2.493152 1_555
Na37 O119 2.523356 1_555
Na37 O117 2.529829 1_555
Na37 O103 2.612975 1_555
Na38 O124 2.433891 1_555
Na38 O134 2.509160 1_555
Na38 O120 2.509212 1_555
Na38 O132 2.511268 1_555
Na38 O136 2.568764 1_555
Na38 O122 2.570309 1_555
Na39 O125 2.436067 1_555
Na39 O121 2.481376 1_555
Na39 O135 2.493863 1_555
Na39 O123 2.535355 1_555
Na39 O133 2.601615 1_555
Na39 O137 2.638592 1_555
Na40 O130 2.434127 1_555
Na40 O126 2.501630 1_555
Na40 O128 2.506727 1_555
Na40 O140 2.516596 1_555
Na40 O138 2.536445 1_555
Na40 O142 2.581387 1_555
Na41 O131 2.438233 1_555
Na41 O127 2.503748 1_555
Na41 O129 2.506733 1_555
Na41 O139 2.514014 1_555
Na41 O141 2.529426 1_555
Na41 O143 2.589695 1_555
O0 P0 1.530472 1_545
O0 Zn0 2.018177 1_455
O1 P1 1.528314 1_545
O1 Zn1 2.016909 1_555
O2 P2 1.522802 1_555
O2 Zn1 2.006789 1_565
O3 P3 1.524335 1_555
O3 Zn0 2.008875 1_565
O4 P5 1.518173 1_555
O4 Zn1 2.006043 1_555
O5 P4 1.518713 1_555
O5 Zn0 2.003791 1_555
O6 P6 1.518566 1_555
O6 Zn2 2.039129 1_455
O7 P7 1.522666 1_555
O7 Zn3 2.007830 1_555
O8 P9 1.529685 1_555
O8 Zn3 2.015267 1_565
O9 P8 1.525690 1_655
O9 Zn2 2.055623 1_565
O10 P10 1.519330 1_555
O10 Zn3 2.008010 1_555
O11 P11 1.500423 1_555
O11 Zn2 1.959845 1_555
O12 P10 1.585504 1_565
O12 Ti1 1.959609 1_565
O13 P11 1.590244 1_565
O13 Ti0 1.952760 1_565
O14 P6 1.578698 1_555
O14 Ti0 1.951119 1_455
O15 P7 1.574675 1_555
O15 Ti1 1.957051 1_555
O16 P8 1.587609 1_555
O16 Ti0 1.980404 1_465
O17 P9 1.589817 1_555
O17 Ti1 1.979662 1_565
O18 P2 1.577690 1_555
O18 Ti3 1.947297 1_555
O19 P3 1.574711 1_555
O19 Ti2 1.909094 1_555
O20 P4 1.585468 1_455
O20 Ti2 1.979075 1_445
O21 P5 1.590650 1_555
O21 Ti3 1.957224 1_545
O22 P0 1.588629 1_555
O22 Ti2 1.996222 1_455
O23 P1 1.587891 1_555
O23 Ti3 1.971636 1_555
O24 P12 1.519439 1_555
O24 Zn4 1.970405 1_555
O25 P13 1.519696 1_555
O25 Zn5 1.968836 1_555
O26 P14 1.530104 1_555
O26 Zn4 2.048594 1_555
O27 P15 1.529756 1_555
O27 Zn5 2.049478 1_555
O28 P16 1.529357 1_555
O28 Zn4 2.054627 1_555
O29 P17 1.529665 1_555
O29 Zn5 2.052072 1_555
O30 P18 1.529302 1_555
O30 Zn6 2.044806 1_555
O31 P19 1.521533 1_555
O31 Zn7 2.036805 1_555
O32 P20 1.518584 1_555
O32 Zn6 1.969494 1_555
O33 P21 1.514037 1_555
O33 Zn7 1.971569 1_555
O34 P22 1.531007 1_555
O34 Zn6 2.054117 1_555
O35 P23 1.516754 1_555
O35 Zn7 2.041447 1_555
O36 P22 1.548110 1_555
O36 Zn8 2.073791 1_554
O37 P23 1.590413 1_555
O37 Ti4 1.985749 1_554
O38 P18 1.546276 1_555
O38 Zn8 2.077790 1_554
O39 P19 1.577064 1_555
O39 Ti4 1.984888 1_554
O40 P20 1.547124 1_555
O40 Zn8 2.084099 1_554
O41 P21 1.599744 1_555
O41 Ti4 1.915039 1_554
O42 P14 1.547820 1_555
O42 Zn9 2.077113 1_555
O43 P15 1.547115 1_555
O43 Zn10 2.080565 1_555
O44 P16 1.547559 1_555
O44 Zn9 2.078873 1_555
O45 P17 1.547499 1_555
O45 Zn10 2.074139 1_555
O46 P12 1.548025 1_555
O46 Zn9 2.083643 1_555
O47 P13 1.548890 1_555
O47 Zn10 2.081385 1_555
O48 P24 1.532068 1_555
O48 Zn11 2.009245 1_556
O49 P25 1.499074 1_555
O49 Zn12 1.956161 1_556
O50 P26 1.527362 1_555
O50 Zn11 2.017317 1_556
O51 P27 1.526403 1_555
O51 Zn12 2.052324 1_556
O52 P28 1.533628 1_555
O52 Zn11 2.011515 1_556
O53 P29 1.520197 1_555
O53 Zn12 2.040084 1_556
O54 P30 1.529694 1_555
O54 Zn13 2.016561 1_555
O55 P31 1.529272 1_555
O55 Zn14 2.015556 1_555
O56 P32 1.532221 1_555
O56 Zn13 2.010666 1_555
O57 P33 1.532156 1_555
O57 Zn14 2.010315 1_555
O58 P34 1.531246 1_555
O58 Zn13 2.013435 1_555
O59 P35 1.532011 1_555
O59 Zn14 2.014639 1_555
O60 P34 1.591588 1_555
O60 Ti5 1.942859 1_555
O61 P35 1.591730 1_555
O61 Ti6 1.943326 1_555
O62 P30 1.591347 1_555
O62 Ti5 1.886431 1_555
O63 P31 1.591319 1_555
O63 Ti6 1.885458 1_555
O64 P32 1.590540 1_555
O64 Ti5 1.945378 1_555
O65 P33 1.590459 1_555
O65 Ti6 1.947875 1_555
O66 P26 1.588537 1_555
O66 Ti7 1.920619 1_555
O67 P27 1.595640 1_555
O67 Ti8 1.888555 1_555
O68 P28 1.593709 1_555
O68 Ti7 1.937622 1_555
O69 P29 1.580085 1_555
O69 Ti8 1.981501 1_555
O70 P24 1.592433 1_555
O70 Ti7 1.948741 1_555
O71 P25 1.596153 1_555
O71 Ti8 1.966399 1_555
O72 P34 1.542510 1_555
O72 Zn0 2.181336 1_465
O73 P35 1.542985 1_555
O73 Zn1 2.178270 1_565
O74 P30 1.540727 1_555
O74 Zn1 2.154797 1_565
O75 P31 1.539967 1_555
O75 Zn0 2.157254 1_565
O76 P32 1.543297 1_555
O76 Zn0 2.169709 1_455
O77 P33 1.542865 1_555
O77 Zn1 2.166780 1_555
O78 P26 1.521229 1_555
O78 Zn2 2.119560 1_455
O79 P27 1.543413 1_555
O79 Zn3 2.161094 1_555
O80 P28 1.541093 1_555
O80 Zn2 2.195889 1_465
O81 P29 1.545863 1_555
O81 Zn3 2.212222 1_565
O82 P24 1.546101 1_555
O82 Zn3 2.164824 1_565
O83 P25 1.525628 1_555
O83 Zn2 2.138102 1_565
O84 P12 1.596639 1_555
O84 Ti1 1.999252 1_555
O85 P13 1.595589 1_555
O85 Ti0 2.001192 1_555
O86 P14 1.590556 1_555
O86 Ti0 2.026322 1_455
O87 P15 1.591583 1_555
O87 Ti1 2.018882 1_555
O88 P16 1.592617 1_555
O88 Ti1 2.019822 1_565
O89 P17 1.590349 1_555
O89 Ti0 2.024790 1_565
O90 P18 1.597529 1_555
O90 Ti3 2.008256 1_555
O91 P19 1.575212 1_555
O91 Ti2 2.053528 1_555
O92 P20 1.602925 1_555
O92 Ti3 1.999301 1_545
O93 P21 1.572999 1_555
O93 Ti2 2.064214 1_545
O94 P22 1.591469 1_555
O94 Ti2 2.024639 1_445
O95 P23 1.597811 1_555
O95 Ti3 2.109003 1_545
O96 P10 1.527298 1_555
O96 Zn4 2.144258 1_555
O97 P11 1.533333 1_555
O97 Zn5 2.140954 1_555
O98 P6 1.542060 1_555
O98 Zn4 2.218456 1_555
O99 P7 1.540672 1_555
O99 Zn5 2.219680 1_555
O100 P9 1.525096 1_555
O100 Zn4 2.132633 1_555
O101 P8 1.527509 1_655
O101 Zn5 2.134090 1_555
O102 P2 1.539331 1_555
O102 Zn6 2.215273 1_555
O103 P3 1.538197 1_555
O103 Zn7 2.191220 1_555
O104 P5 1.527944 1_555
O104 Zn6 2.146767 1_555
O105 P4 1.527234 1_555
O105 Zn7 2.141977 1_555
O106 P0 1.525946 1_545
O106 Zn6 2.122600 1_555
O107 P1 1.523031 1_545
O107 Zn7 2.125033 1_555
O108 P24 1.544339 1_555
O108 Zn8 2.262750 1_555
O109 P25 1.597296 1_555
O109 Ti4 2.109433 1_555
O110 P27 1.542464 1_555
O110 Zn8 2.257730 1_555
O111 P26 1.572952 1_655
O111 Ti4 2.068226 1_555
O112 P28 1.544270 1_545
O112 Zn8 2.243451 1_555
O113 P29 1.576942 1_545
O113 Ti4 2.042803 1_555
O114 P30 1.540562 1_545
O114 Zn9 2.251310 1_555
O115 P31 1.539867 1_545
O115 Zn10 2.251393 1_555
O116 P32 1.546263 1_555
O116 Zn9 2.259092 1_555
O117 P33 1.546218 1_555
O117 Zn10 2.259670 1_555
O118 P35 1.546012 1_555
O118 Zn9 2.243358 1_555
O119 P34 1.545341 1_655
O119 Zn10 2.243448 1_555
O120 P22 1.549909 1_555
O120 Zn11 2.186810 1_555
O121 P23 1.525074 1_555
O121 Zn12 2.149342 1_555
O122 P19 1.546827 1_455
O122 Zn11 2.190940 1_555
O123 P18 1.543612 1_555
O123 Zn12 2.221726 1_555
O124 P20 1.547558 1_565
O124 Zn11 2.166251 1_555
O125 P21 1.519467 1_565
O125 Zn12 2.109410 1_555
O126 P14 1.547609 1_565
O126 Zn13 2.184227 1_555
O127 P15 1.546874 1_565
O127 Zn14 2.186127 1_555
O128 P16 1.548506 1_555
O128 Zn13 2.186278 1_555
O129 P17 1.548931 1_555
O129 Zn14 2.184550 1_555
O130 P13 1.544195 1_455
O130 Zn13 2.161358 1_555
O131 P12 1.545044 1_555
O131 Zn14 2.164633 1_555
O132 P0 1.576577 1_555
O132 Ti5 2.073551 1_555
O133 P1 1.573153 1_555
O133 Ti6 2.065992 1_555
O134 P2 1.568081 1_555
O134 Ti5 2.053076 1_555
O135 P3 1.565715 1_555
O135 Ti6 2.051990 1_555
O136 P4 1.590635 1_455
O136 Ti5 2.127486 1_555
O137 P5 1.586129 1_555
O137 Ti6 2.123723 1_555
O138 P6 1.572315 1_555
O138 Ti7 2.041590 1_555
O139 P7 1.569310 1_555
O139 Ti8 2.053791 1_555
O140 P8 1.576454 1_555
O140 Ti7 2.055128 1_555
O141 P9 1.573835 1_555
O141 Ti8 2.085315 1_555
O142 P10 1.586796 1_565
O142 Ti7 2.126375 1_555
O143 P11 1.589519 1_565
O143 Ti8 2.091722 1_555
