# generated using pymatgen
data_MgV2S4(N3Cl2)2
_symmetry_space_group_name_H-M   'P 1'
_cell_length_a   6.05981385
_cell_length_b   7.65738095
_cell_length_c   7.78241415
_cell_angle_alpha   92.37656842
_cell_angle_beta   99.79392382
_cell_angle_gamma   102.06567078
_symmetry_Int_Tables_number   1
_chemical_formula_structural   MgV2S4(N3Cl2)2
_chemical_formula_sum   'Mg1 V2 S4 N6 Cl4'
_cell_volume   346.88411672
_cell_formula_units_Z   1
loop_
 _symmetry_equiv_pos_site_id
 _symmetry_equiv_pos_as_xyz
  1  'x, y, z'
loop_
 _atom_site_type_symbol
 _atom_site_label
 _atom_site_symmetry_multiplicity
 _atom_site_fract_x
 _atom_site_fract_y
 _atom_site_fract_z
 _atom_site_occupancy
  Mg  Mg0  1  0.92147200  0.37510600  0.34629300  1
  V  V0  1  0.74844900  0.86653100  0.01297300  1
  V  V1  1  0.23047200  0.11639800  0.97919900  1
  S  S0  1  0.70178600  0.64197800  0.33427400  1
  S  S1  1  0.82035500  0.15221500  0.68704000  1
  S  S2  1  0.27852900  0.38605400  0.69306600  1
  S  S3  1  0.16696500  0.82229000  0.29898100  1
  N  N0  1  0.00405300  0.29983400  0.60511400  1
  N  N1  1  0.05566400  0.91076400  0.13611100  1
  N  N2  1  0.98943100  0.67413100  0.38078000  1
  N  N3  1  0.62972400  0.72042900  0.15458800  1
  N  N4  1  0.35328800  0.28421400  0.85343100  1
  N  N5  1  0.93740300  0.07652900  0.85740600  1
  Cl  Cl0  1  0.37682500  0.89309700  0.82894900  1
  Cl  Cl1  1  0.21152800  0.35606700  0.19097700  1
  Cl  Cl2  1  0.63392500  0.12244500  0.19731000  1
  Cl  Cl3  1  0.78388200  0.65191600  0.81069600  1
loop_
_geom_bond_atom_site_label_1
_geom_bond_atom_site_label_2
_geom_bond_distance
_geom_bond_site_symmetry_2
Mg0 N0 2.124572 1_655
Mg0 N2 2.236467 1_555
N0 S1 1.642741 1_455
N0 S2 1.669429 1_555
N1 S3 1.578573 1_555
N1 V0 1.897734 1_455
N1 V1 2.234947 1_564
N2 S3 1.622464 1_655
N2 S0 1.681811 1_555
N3 S0 1.574374 1_555
N3 V0 1.737638 1_555
N4 S2 1.551449 1_555
N4 V1 1.765083 1_555
N5 S1 1.585094 1_555
N5 V1 1.822701 1_655
N5 V0 2.286032 1_546
Cl0 V1 2.428693 1_565
Cl0 V0 2.506445 1_556
Cl1 Mg0 2.321005 1_455
Cl1 V1 2.449335 1_554
Cl2 Mg0 2.416805 1_555
Cl2 V0 2.655925 1_545
Cl2 V1 2.719375 1_554
Cl3 V0 2.296281 1_556
