# generated using pymatgen
data_Na5Al2In2P5SO24
_symmetry_space_group_name_H-M   'P 1'
_cell_length_a   8.79075846
_cell_length_b   8.77506431
_cell_length_c   22.14303013
_cell_angle_alpha   90.37838552
_cell_angle_beta   89.73442410
_cell_angle_gamma   119.95804467
_symmetry_Int_Tables_number   1
_chemical_formula_structural   Na5Al2In2P5SO24
_chemical_formula_sum   'Na15 Al6 In6 P15 S3 O72'
_cell_volume   1479.85035595
_cell_formula_units_Z   3
loop_
 _symmetry_equiv_pos_site_id
 _symmetry_equiv_pos_as_xyz
  1  'x, y, z'
loop_
 _atom_site_type_symbol
 _atom_site_label
 _atom_site_symmetry_multiplicity
 _atom_site_fract_x
 _atom_site_fract_y
 _atom_site_fract_z
 _atom_site_occupancy
  Na  Na0  1  0.63870474  0.00060594  0.25029402  1
  Na  Na1  1  0.99857291  0.36008468  0.74974121  1
  Na  Na2  1  0.36173931  0.99961247  0.75056223  1
  Na  Na3  1  0.03538240  0.70045702  0.58111083  1
  Na  Na4  1  0.66305894  0.96445295  0.58264011  1
  Na  Na5  1  0.30491350  0.97614481  0.08361161  1
  Na  Na6  1  0.02644608  0.33171679  0.08494200  1
  Na  Na7  1  0.97014096  0.66377239  0.91726748  1
  Na  Na8  1  0.69916778  0.67068382  0.41704669  1
  Na  Na9  1  0.01835849  0.01713008  0.49534899  1
  Na  Na10  1  0.99550617  0.00551421  0.00314179  1
  Na  Na11  1  0.65474538  0.32485680  0.83510463  1
  Na  Na12  1  0.68010131  0.33910633  0.33227368  1
  Na  Na13  1  0.33668608  0.65010108  0.16940756  1
  Na  Na14  1  0.34493065  0.65209735  0.66516074  1
  Al  Al0  1  0.98639989  0.99149347  0.34719047  1
  Al  Al1  1  0.99037913  0.99895902  0.15198415  1
  Al  Al2  1  0.67826958  0.35262322  0.18331961  1
  Al  Al3  1  0.67524727  0.32685018  0.47996871  1
  Al  Al4  1  0.33253906  0.66707360  0.02234070  1
  Al  Al5  1  0.32369093  0.65821476  0.31543142  1
  In  In0  1  0.00498309  0.01088975  0.85548962  1
  In  In1  1  0.00432723  0.00421983  0.64549936  1
  In  In2  1  0.66660233  0.34076630  0.68158017  1
  In  In3  1  0.66318245  0.32604122  0.98927153  1
  In  In4  1  0.32974243  0.66599962  0.50922870  1
  In  In5  1  0.33809766  0.66833218  0.81825368  1
  P  P0  1  0.70739080  0.70537558  0.25033849  1
  P  P1  1  0.00276110  0.29160343  0.25011983  1
  P  P2  1  0.29961575  0.29910168  0.75035617  1
  P  P3  1  0.99707041  0.70226956  0.75156069  1
  P  P4  1  0.70238086  0.99800185  0.74809345  1
  P  P5  1  0.96033800  0.33475672  0.57973080  1
  P  P6  1  0.37921564  0.04795378  0.57846070  1
  P  P7  1  0.66264720  0.62014384  0.57595618  1
  P  P8  1  0.96285548  0.63616822  0.08572067  1
  P  P9  1  0.66748524  0.03330435  0.08895531  1
  P  P10  1  0.37051983  0.33385018  0.08856177  1
  P  P11  1  0.04373485  0.37653617  0.92244084  1
  P  P12  1  0.33597915  0.95953715  0.92152201  1
  P  P13  1  0.63201193  0.96750494  0.41141604  1
  P  P14  1  0.03546674  0.66972520  0.41258918  1
  S  S0  1  0.28558122  -0.00082821  0.25065082  1
  S  S1  1  0.62223071  0.66586120  0.92227580  1
  S  S2  1  0.32693571  0.36214608  0.41117358  1
  O  O0  1  0.19600380  0.02143183  0.30338801  1
  O  O1  1  0.81709666  0.78615078  0.30790206  1
  O  O2  1  0.96596969  0.16330653  0.30270358  1
  O  O3  1  0.22037645  0.18614471  0.80666238  1
  O  O4  1  0.97791136  0.78562333  0.81009609  1
  O  O5  1  0.81838544  0.02804169  0.80306597  1
  O  O6  1  0.77771984  0.97633920  0.68814095  1
  O  O7  1  0.18619527  0.22007691  0.69412868  1
  O  O8  1  0.02438065  0.80955002  0.69385831  1
  O  O9  1  0.79876999  0.83457518  0.19777844  1
  O  O10  1  0.03129023  0.20889128  0.19227645  1
  O  O11  1  0.18259141  0.97451302  0.19465146  1
  O  O12  1  0.89401737  0.36358351  0.64097909  1
  O  O13  1  0.47204678  0.11132319  0.63990416  1
  O  O14  1  0.64084582  0.52855722  0.63600928  1
  O  O15  1  0.86824597  0.49908379  0.13592263  1
  O  O16  1  0.62863416  0.12534992  0.14264073  1
  O  O17  1  0.49704643  0.36315985  0.14075857  1
  O  O18  1  0.43110437  0.28076033  0.03096990  1
  O  O19  1  0.86168005  0.57445131  0.02609592  1
  O  O20  1  0.72253286  0.15201351  0.03296553  1
  O  O21  1  0.48370294  0.16461386  0.52547192  1
  O  O22  1  0.68150191  0.52313622  0.52046076  1
  O  O23  1  0.83901218  0.31685471  0.52725551  1
  O  O24  1  0.52456448  0.67808774  0.97433546  1
  O  O25  1  0.15901049  0.47924834  0.97702707  1
  O  O26  1  0.32243898  0.84174147  0.97549660  1
  O  O27  1  0.56855914  0.85230229  0.46908241  1
  O  O28  1  0.28860375  0.42441228  0.46841202  1
  O  O29  1  0.13240108  0.70691874  0.47345011  1
  O  O30  1  0.13839566  0.63989265  0.36199989  1
  O  O31  1  0.50644416  0.86724960  0.35806813  1
  O  O32  1  0.36202719  0.49132354  0.36193684  1
  O  O33  1  0.11578003  0.47152470  0.86177581  1
  O  O34  1  0.35397281  0.88701504  0.86005059  1
  O  O35  1  0.53525284  0.64604338  0.86410981  1
  O  O36  1  0.01115214  0.83221312  0.40204534  1
  O  O37  1  0.81699109  0.98678065  0.40187735  1
  O  O38  1  0.17433243  0.18583300  0.39982771  1
  O  O39  1  0.02395779  0.19278034  0.92284842  1
  O  O40  1  0.15918216  0.96058716  0.92242152  1
  O  O41  1  0.79904890  0.82687059  0.92223492  1
  O  O42  1  0.96677326  0.16298668  0.57949984  1
  O  O43  1  0.19331102  0.02395090  0.57889819  1
  O  O44  1  0.83486563  0.80340482  0.57733047  1
  O  O45  1  0.99384610  0.82282637  0.09920685  1
  O  O46  1  0.83004775  0.01187140  0.09888383  1
  O  O47  1  0.18262216  0.16941388  0.09846720  1
  O  O48  1  0.68373111  0.16469917  0.74726134  1
  O  O49  1  0.47975346  0.31245451  0.74696932  1
  O  O50  1  0.83850270  0.51536755  0.74963752  1
  O  O51  1  0.68891589  0.52200808  0.23982972  1
  O  O52  1  0.83201965  0.30669838  0.24199514  1
  O  O53  1  0.46574164  0.15612765  0.24616107  1
  O  O54  1  0.64826327  0.51171721  0.92523370  1
  O  O55  1  0.86247567  0.36599672  0.92497871  1
  O  O56  1  0.49468891  0.14538209  0.92388054  1
  O  O57  1  0.64651185  0.14891515  0.42126404  1
  O  O58  1  0.49133676  0.35369557  0.41693467  1
  O  O59  1  0.84733125  0.50356614  0.41937893  1
  O  O60  1  0.34741168  0.49714316  0.07913524  1
  O  O61  1  0.14869583  0.65161282  0.07908440  1
  O  O62  1  0.49744562  0.85372184  0.07815210  1
  O  O63  1  0.35799011  0.86086167  0.57478775  1
  O  O64  1  0.50627938  0.65269747  0.57270787  1
  O  O65  1  0.14279298  0.49970077  0.57465241  1
  O  O66  1  0.30831905  0.84028427  0.25640575  1
  O  O67  1  0.52175886  0.69074014  0.25839589  1
  O  O68  1  0.16675612  0.47631753  0.26039817  1
  O  O69  1  0.31377675  0.48016661  0.75437944  1
  O  O70  1  0.16482529  0.68518985  0.75254188  1
  O  O71  1  0.51653111  0.83797950  0.75199362  1
loop_
_geom_bond_atom_site_label_1
_geom_bond_atom_site_label_2
_geom_bond_distance
_geom_bond_site_symmetry_2
Na0 O52 2.362429 1_555
Na0 O67 2.386515 1_545
Na0 O53 2.501597 1_555
Na0 O66 2.520084 1_545
Na0 O16 2.649836 1_555
Na0 O31 2.658691 1_545
Na0 O9 2.732158 1_545
Na0 O2 2.751111 1_555
Na1 O50 2.398291 1_555
Na1 O48 2.421499 1_555
Na1 O69 2.425661 1_655
Na1 O70 2.472408 1_655
Na1 O12 2.587553 1_555
Na1 O33 2.675358 1_655
Na1 O7 2.780489 1_655
Na1 O5 2.794919 1_555
Na2 O49 2.403441 1_565
Na2 O71 2.406830 1_555
Na2 O70 2.416982 1_555
Na2 O48 2.453601 1_565
Na2 O34 2.611775 1_555
Na2 O13 2.639236 1_565
Na2 O3 2.785129 1_565
Na2 O8 2.867078 1_555
Na3 O44 2.350085 1_455
Na3 O65 2.381618 1_555
Na3 O43 2.460314 1_565
Na3 O63 2.460839 1_555
Na3 O29 2.519600 1_555
Na3 O8 2.686503 1_555
Na3 O12 2.899613 1_455
Na4 O42 2.350026 1_565
Na4 O63 2.369822 1_555
Na4 O64 2.379298 1_555
Na4 O6 2.529401 1_555
Na4 O44 2.533743 1_555
Na4 O27 2.674240 1_555
Na4 O13 2.865020 1_565
Na4 O23 2.952042 1_565
Na5 O45 2.393736 1_455
Na5 O62 2.417752 1_555
Na5 O47 2.439342 1_565
Na5 O61 2.469313 1_555
Na5 O18 2.608076 1_565
Na5 O11 2.676295 1_555
Na5 O26 2.699385 1_554
Na5 O16 2.794941 1_565
Na6 O47 2.442385 1_555
Na6 O60 2.448117 1_555
Na6 O61 2.458094 1_555
Na6 O46 2.473946 1_455
Na6 O20 2.597270 1_455
Na6 O10 2.625420 1_555
Na6 O25 2.693015 1_554
Na6 O15 2.714544 1_455
Na7 O40 2.287672 1_655
Na7 O55 2.299380 1_555
Na7 O54 2.458785 1_555
Na7 O41 2.543373 1_555
Na7 O19 2.566669 1_556
Na7 O4 2.595887 1_555
Na7 O33 2.847802 1_655
Na8 O36 2.399266 1_655
Na8 O59 2.399761 1_555
Na8 O58 2.449411 1_555
Na8 O37 2.453404 1_555
Na8 O22 2.603683 1_555
Na8 O1 2.627220 1_555
Na8 O27 2.641360 1_555
Na8 O32 2.845946 1_555
Na9 O43 2.392597 1_555
Na9 O42 2.419960 1_455
Na9 O44 2.532012 1_445
Na9 O38 2.555886 1_555
Na9 O36 2.599955 1_545
Na9 O37 2.654079 1_445
Na10 O39 2.355409 1_654
Na10 O41 2.436650 1_544
Na10 O40 2.440044 1_644
Na10 O46 2.581485 1_555
Na10 O47 2.618966 1_655
Na10 O45 2.667655 1_545
Na11 O49 2.458606 1_555
Na11 O56 2.475157 1_555
Na11 O48 2.478000 1_555
Na11 O50 2.510396 1_555
Na11 O54 2.593045 1_555
Na11 O55 2.605999 1_555
Na12 O59 2.415501 1_555
Na12 O52 2.491502 1_555
Na12 O57 2.510249 1_555
Na12 O58 2.542522 1_555
Na12 O51 2.586470 1_555
Na12 O53 2.595366 1_555
Na13 O60 2.428014 1_555
Na13 O67 2.469377 1_555
Na13 O68 2.520714 1_555
Na13 O62 2.602342 1_555
Na13 O61 2.604647 1_555
Na13 O66 2.631931 1_555
Na14 O69 2.423998 1_555
Na14 O71 2.482160 1_555
Na14 O64 2.483659 1_555
Na14 O65 2.566465 1_555
Na14 O70 2.599650 1_555
Na14 O63 2.685123 1_555
Al0 O1 1.879267 1_555
Al0 O2 1.888752 1_565
Al0 O37 1.899557 1_555
Al0 O36 1.950614 1_655
Al0 O0 1.976916 1_665
Al0 O38 2.043001 1_665
Al1 O9 1.876974 1_555
Al1 O46 1.886392 1_565
Al1 O10 1.907492 1_665
Al1 O45 1.943793 1_555
Al1 O47 1.994449 1_665
Al1 O11 2.042834 1_655
Al2 O15 1.843963 1_555
Al2 O17 1.896532 1_555
Al2 O51 1.902994 1_555
Al2 O16 2.022363 1_555
Al2 O52 2.060198 1_555
Al2 O53 2.278179 1_555
Al3 O23 1.821497 1_555
Al3 O21 1.867168 1_555
Al3 O22 1.912893 1_555
Al3 O57 1.942630 1_555
Al3 O59 2.039336 1_555
Al3 O58 2.241214 1_555
Al4 O25 1.879251 1_554
Al4 O26 1.894945 1_554
Al4 O24 1.952066 1_554
Al4 O62 1.982398 1_555
Al4 O61 1.993348 1_555
Al4 O60 2.010769 1_555
Al5 O30 1.862119 1_555
Al5 O68 1.930444 1_555
Al5 O32 1.958252 1_555
Al5 O31 1.971040 1_555
Al5 O67 2.048462 1_555
Al5 O66 2.126951 1_555
In0 O3 2.052804 1_555
In0 O5 2.080236 1_455
In0 O4 2.116733 1_445
In0 O39 2.122495 1_555
In0 O40 2.203109 1_545
In0 O41 2.270736 1_445
In1 O7 2.065896 1_555
In1 O6 2.102030 1_445
In1 O8 2.102966 1_545
In1 O43 2.158288 1_555
In1 O42 2.162510 1_455
In1 O44 2.228645 1_445
In2 O14 2.044926 1_555
In2 O13 2.093180 1_555
In2 O12 2.104970 1_555
In2 O49 2.105060 1_555
In2 O50 2.140162 1_555
In2 O48 2.188372 1_555
In3 O18 2.085755 1_556
In3 O20 2.088127 1_556
In3 O56 2.109045 1_555
In3 O55 2.142186 1_555
In3 O19 2.156893 1_556
In3 O54 2.219963 1_555
In4 O29 2.098728 1_555
In4 O27 2.108180 1_555
In4 O65 2.130657 1_555
In4 O64 2.145012 1_555
In4 O63 2.153918 1_555
In4 O28 2.157278 1_555
In5 O34 2.066088 1_555
In5 O33 2.089108 1_555
In5 O69 2.095682 1_555
In5 O35 2.104887 1_555
In5 O71 2.122405 1_555
In5 O70 2.169707 1_555
O0 S0 1.471050 1_555
O1 P0 1.540751 1_555
O2 P1 1.542067 1_655
O3 P2 1.529996 1_555
O4 P3 1.533577 1_555
O5 P4 1.526410 1_545
O6 P4 1.533410 1_555
O7 P2 1.527973 1_555
O8 P3 1.537437 1_455
O9 P0 1.544134 1_555
O10 P1 1.548143 1_555
O11 S0 1.488386 1_565
O12 P5 1.542289 1_555
O13 P6 1.540563 1_555
O14 P7 1.519476 1_555
O15 P8 1.544132 1_555
O16 P9 1.562446 1_555
O17 P10 1.536695 1_555
O18 P10 1.536430 1_555
O19 P8 1.532267 1_555
O20 P9 1.537656 1_555
O21 P6 1.528113 1_555
O22 P7 1.545103 1_555
O23 P5 1.534307 1_555
O24 S1 1.469244 1_555
O25 P11 1.544343 1_555
O26 P12 1.550213 1_555
O27 P13 1.552692 1_555
O28 S2 1.479611 1_555
O29 P14 1.541384 1_555
O30 P14 1.537979 1_555
O31 P13 1.554458 1_555
O32 S2 1.494220 1_555
O33 P11 1.542734 1_555
O34 P12 1.539439 1_555
O35 S1 1.465299 1_555
O36 P14 1.562837 1_555
O37 P13 1.562061 1_555
O38 S2 1.477006 1_555
O39 P11 1.533154 1_555
O40 P12 1.558836 1_555
O41 S1 1.489606 1_555
O42 P5 1.536299 1_555
O43 P6 1.539905 1_555
O44 P7 1.564372 1_555
O45 P8 1.547536 1_555
O46 P9 1.548473 1_555
O47 P10 1.574470 1_555
O48 P4 1.551399 1_545
O49 P2 1.529928 1_555
O50 P3 1.533324 1_555
O51 P0 1.550488 1_555
O52 P1 1.582445 1_655
O53 S0 1.495631 1_555
O54 S1 1.482130 1_555
O55 P11 1.550069 1_655
O56 P12 1.528379 1_545
O57 P13 1.546260 1_545
O58 S2 1.489721 1_555
O59 P14 1.573532 1_655
O60 P10 1.559842 1_555
O61 P8 1.576634 1_455
O62 P9 1.555848 1_565
O63 P6 1.558587 1_565
O64 P7 1.539361 1_555
O65 P5 1.536902 1_455
O66 S0 1.510310 1_565
O67 P0 1.580994 1_555
O68 P1 1.556208 1_555
O69 P2 1.532512 1_555
O70 P3 1.555228 1_455
O71 P4 1.535413 1_555
