# generated using pymatgen
data_MgPb2WO6
_symmetry_space_group_name_H-M   'P 1'
_cell_length_a   5.80099800
_cell_length_b   8.05258500
_cell_length_c   11.60754700
_cell_angle_alpha   90.00000000
_cell_angle_beta   90.00000000
_cell_angle_gamma   90.00000000
_symmetry_Int_Tables_number   1
_chemical_formula_structural   MgPb2WO6
_chemical_formula_sum   'Mg4 Pb8 W4 O24'
_cell_volume   542.22368520
_cell_formula_units_Z   4
loop_
 _symmetry_equiv_pos_site_id
 _symmetry_equiv_pos_as_xyz
  1  'x, y, z'
loop_
 _atom_site_type_symbol
 _atom_site_label
 _atom_site_symmetry_multiplicity
 _atom_site_fract_x
 _atom_site_fract_y
 _atom_site_fract_z
 _atom_site_occupancy
  Mg  Mg0  1  0.24433000  0.75000000  0.37972200  1
  Mg  Mg1  1  0.74433000  0.25000000  0.12027800  1
  Mg  Mg2  1  0.75567000  0.25000000  0.62027800  1
  Mg  Mg3  1  0.25567000  0.75000000  0.87972200  1
  Pb  Pb0  1  0.70873500  0.49470100  0.35466900  1
  Pb  Pb1  1  0.20873500  0.50529900  0.14533100  1
  Pb  Pb2  1  0.29126500  0.99470100  0.64533100  1
  Pb  Pb3  1  0.79126500  0.00529900  0.85466900  1
  Pb  Pb4  1  0.29126500  0.50529900  0.64533100  1
  Pb  Pb5  1  0.79126500  0.49470100  0.85466900  1
  Pb  Pb6  1  0.70873500  0.00529900  0.35466900  1
  Pb  Pb7  1  0.20873500  0.99470100  0.14533100  1
  W  W0  1  0.74601000  0.75000000  0.11660700  1
  W  W1  1  0.24601000  0.25000000  0.38339300  1
  W  W2  1  0.25399000  0.25000000  0.88339300  1
  W  W3  1  0.75399000  0.75000000  0.61660700  1
  O  O0  1  0.96264200  0.75000000  0.75146000  1
  O  O1  1  0.46264200  0.25000000  0.74854000  1
  O  O2  1  0.03735800  0.25000000  0.24854000  1
  O  O3  1  0.53735800  0.75000000  0.25146000  1
  O  O4  1  0.47740000  0.75000000  0.73550300  1
  O  O5  1  0.97740000  0.25000000  0.76449700  1
  O  O6  1  0.52260000  0.25000000  0.26449700  1
  O  O7  1  0.02260000  0.75000000  0.23550300  1
  O  O8  1  0.99539200  0.75000000  0.51026200  1
  O  O9  1  0.49539200  0.25000000  0.98973800  1
  O  O10  1  0.00460800  0.25000000  0.48973800  1
  O  O11  1  0.50460800  0.75000000  0.01026200  1
  O  O12  1  0.51499000  0.75000000  0.50132300  1
  O  O13  1  0.01499000  0.25000000  0.99867700  1
  O  O14  1  0.48501000  0.25000000  0.49867700  1
  O  O15  1  0.98501000  0.75000000  0.00132300  1
  O  O16  1  0.77086700  0.50834300  0.13389300  1
  O  O17  1  0.27086700  0.49165700  0.36610700  1
  O  O18  1  0.22913300  0.00834300  0.86610700  1
  O  O19  1  0.72913300  0.99165700  0.63389300  1
  O  O20  1  0.22913300  0.49165700  0.86610700  1
  O  O21  1  0.72913300  0.50834300  0.63389300  1
  O  O22  1  0.77086700  0.99165700  0.13389300  1
  O  O23  1  0.27086700  0.00834300  0.36610700  1
loop_
_geom_bond_atom_site_label_1
_geom_bond_atom_site_label_2
_geom_bond_distance
_geom_bond_site_symmetry_2
Mg0 O17 2.091995 1_555
Mg0 O23 2.091995 1_565
Mg0 O8 2.093173 1_455
Mg0 O7 2.111119 1_555
Mg0 O12 2.111282 1_555
Mg0 O3 2.259658 1_555
Mg1 O16 2.091995 1_555
Mg1 O22 2.091995 1_545
Mg1 O9 2.093173 1_554
Mg1 O6 2.111119 1_555
Mg1 O13 2.111282 1_654
Mg1 O2 2.259658 1_655
Mg2 O21 2.091995 1_555
Mg2 O19 2.091995 1_545
Mg2 O10 2.093173 1_655
Mg2 O5 2.111119 1_555
Mg2 O14 2.111282 1_555
Mg2 O1 2.259658 1_555
Mg3 O18 2.091995 1_565
Mg3 O20 2.091995 1_555
Mg3 O11 2.093173 1_556
Mg3 O4 2.111119 1_555
Mg3 O15 2.111282 1_456
Mg3 O0 2.259658 1_455
O0 W3 1.978698 1_555
O0 Pb3 2.578749 1_565
O0 Pb5 2.578749 1_555
O1 W2 1.978698 1_555
O1 Pb4 2.578749 1_555
O1 Pb2 2.578749 1_545
O2 W1 1.978698 1_555
O2 Pb1 2.578749 1_555
O2 Pb7 2.578749 1_545
O3 W0 1.978698 1_555
O3 Pb6 2.578749 1_565
O3 Pb0 2.578749 1_555
O4 W3 2.116380 1_555
O4 Pb2 2.478751 1_555
O4 Pb4 2.478751 1_555
O5 W2 2.116380 1_655
O5 Pb5 2.478751 1_555
O5 Pb3 2.478751 1_555
O6 W1 2.116380 1_555
O6 Pb6 2.478751 1_555
O6 Pb0 2.478751 1_555
O7 W0 2.116380 1_455
O7 Pb7 2.478751 1_555
O7 Pb1 2.478751 1_555
O8 W3 1.866761 1_555
O9 W2 1.866761 1_555
O10 W1 1.866761 1_555
O11 W0 1.866761 1_555
O12 W3 1.926888 1_555
O13 W2 1.926888 1_555
O14 W1 1.926888 1_555
O15 W0 1.926888 1_555
O16 W0 1.961588 1_555
O16 Pb1 2.543657 1_655
O16 Pb0 2.590220 1_555
O17 W1 1.961588 1_555
O17 Pb0 2.543657 1_555
O17 Pb1 2.590220 1_555
O18 W2 1.961588 1_555
O18 Pb3 2.543657 1_455
O18 Pb2 2.590220 1_545
O19 W3 1.961588 1_555
O19 Pb2 2.543657 1_555
O19 Pb3 2.590220 1_565
O20 W2 1.961588 1_555
O20 Pb5 2.543657 1_455
O20 Pb4 2.590220 1_555
O21 W3 1.961588 1_555
O21 Pb4 2.543657 1_555
O21 Pb5 2.590220 1_555
O22 W0 1.961588 1_555
O22 Pb7 2.543657 1_655
O22 Pb6 2.590220 1_565
O23 W1 1.961588 1_555
O23 Pb6 2.543657 1_555
O23 Pb7 2.590220 1_545
