# generated using pymatgen
data_Na14La4Ti4Si9(SO16)3
_symmetry_space_group_name_H-M   'P 1'
_cell_length_a   18.79391916
_cell_length_b   9.35051580
_cell_length_c   22.61161108
_cell_angle_alpha   89.97745315
_cell_angle_beta   89.43190277
_cell_angle_gamma   119.91472319
_symmetry_Int_Tables_number   1
_chemical_formula_structural   Na14La4Ti4Si9(SO16)3
_chemical_formula_sum   'Na42 La12 Ti12 Si27 S9 O144'
_cell_volume   3443.95942971
_cell_formula_units_Z   3
loop_
 _symmetry_equiv_pos_site_id
 _symmetry_equiv_pos_as_xyz
  1  'x, y, z'
loop_
 _atom_site_type_symbol
 _atom_site_label
 _atom_site_symmetry_multiplicity
 _atom_site_fract_x
 _atom_site_fract_y
 _atom_site_fract_z
 _atom_site_occupancy
  Na  Na0  1  0.82797423  0.02266670  0.25438413  1
  Na  Na1  1  0.17514499  0.35088544  0.25533785  1
  Na  Na2  1  0.69418464  0.36816286  0.24887447  1
  Na  Na3  1  0.00338195  0.63014048  0.24524685  1
  Na  Na4  1  0.49460083  0.63704878  0.24368580  1
  Na  Na5  1  0.32593101  0.63063256  0.74946503  1
  Na  Na6  1  0.99126770  0.34865327  0.73308649  1
  Na  Na7  1  0.50432482  0.37785123  0.74223352  1
  Na  Na8  1  0.19121468  0.01776563  0.74419101  1
  Na  Na9  1  0.68234696  0.00905158  0.74766413  1
  Na  Na10  1  0.14209758  0.31396917  0.58052904  1
  Na  Na11  1  0.65736274  0.32103127  0.58177936  1
  Na  Na12  1  0.33931101  0.99205970  0.59062079  1
  Na  Na13  1  0.83386591  0.97456906  0.58522521  1
  Na  Na14  1  0.15346702  0.99334091  0.08190169  1
  Na  Na15  1  0.64597723  0.96734142  0.07613144  1
  Na  Na16  1  0.33306036  0.68779363  0.08356764  1
  Na  Na17  1  0.83970370  0.68835887  0.09127602  1
  Na  Na18  1  0.47762799  0.67201484  0.91837607  1
  Na  Na19  1  0.97798049  0.67841595  0.92943865  1
  Na  Na20  1  0.34150118  0.02232056  0.90780251  1
  Na  Na21  1  0.84445162  0.02674076  0.90748627  1
  Na  Na22  1  0.17598705  0.29600991  0.91284458  1
  Na  Na23  1  0.66823904  0.28121478  0.91009196  1
  Na  Na24  1  0.48443699  0.29033182  0.43396469  1
  Na  Na25  1  0.97543908  0.27739236  0.42312223  1
  Na  Na26  1  0.16657212  0.05594205  0.41416176  1
  Na  Na27  1  0.67753373  0.05534184  0.42038376  1
  Na  Na28  1  0.34747578  0.66561347  0.41263553  1
  Na  Na29  1  0.84290838  0.66277627  0.42231337  1
  Na  Na30  1  0.99414115  0.98686033  0.50716584  1
  Na  Na31  1  0.50968197  0.01164318  0.51086172  1
  Na  Na32  1  0.00590883  0.00141792  0.00850979  1
  Na  Na33  1  0.50316988  0.99749713  0.00169804  1
  Na  Na34  1  0.32873082  0.33494984  0.82342357  1
  Na  Na35  1  0.81656347  0.32963641  0.82024304  1
  Na  Na36  1  0.31530425  0.29738716  0.33084694  1
  Na  Na37  1  0.82736436  0.32093938  0.33222132  1
  Na  Na38  1  0.15434153  0.65085337  0.16607565  1
  Na  Na39  1  0.66158463  0.65390480  0.16147252  1
  Na  Na40  1  0.16067207  0.66864253  0.66021428  1
  Na  Na41  1  0.65707046  0.66017866  0.66351565  1
  La  La0  1  0.00319617  0.00837009  0.34840473  1
  La  La1  1  0.49907926  0.00793980  0.34870872  1
  La  La2  1  0.99721592  0.99301802  0.84508653  1
  La  La3  1  0.50370964  0.99761537  0.84594332  1
  La  La4  1  0.33844465  0.33083101  0.67147224  1
  La  La5  1  0.83915248  0.34610344  0.17210026  1
  La  La6  1  0.33194909  0.33804504  0.99622980  1
  La  La7  1  0.82173310  0.33549678  0.98700902  1
  La  La8  1  0.32365285  0.31025585  0.48766405  1
  La  La9  1  0.83223579  0.33571528  0.49982146  1
  La  La10  1  0.67431674  0.67669656  0.31391054  1
  La  La11  1  0.17303299  0.66828390  0.81087766  1
  Ti  Ti0  1  0.99578018  0.00622028  0.64973270  1
  Ti  Ti1  1  0.51764761  0.02782133  0.66115763  1
  Ti  Ti2  1  0.01651551  0.00810109  0.16046741  1
  Ti  Ti3  1  0.50228161  0.99099443  0.15255727  1
  Ti  Ti4  1  0.82643669  0.32144082  0.67246237  1
  Ti  Ti5  1  0.32752779  0.35239704  0.17928700  1
  Ti  Ti6  1  0.17017725  0.67612295  0.01953301  1
  Ti  Ti7  1  0.66373161  0.65916921  0.01863659  1
  Ti  Ti8  1  0.16256227  0.66583239  0.51883799  1
  Ti  Ti9  1  0.68103559  0.66306793  0.52588298  1
  Ti  Ti10  1  0.17967806  0.67120203  0.30635652  1
  Ti  Ti11  1  0.68092434  0.69278568  0.80449273  1
  Si  Si0  1  0.16399543  0.00796045  0.25049174  1
  Si  Si1  1  0.64784925  0.99562444  0.24851924  1
  Si  Si2  1  0.35198125  0.69719015  0.24919974  1
  Si  Si3  1  0.85445753  0.70879870  0.24624567  1
  Si  Si4  1  0.00554009  0.30671280  0.25376133  1
  Si  Si5  1  0.14536780  0.29352250  0.74740906  1
  Si  Si6  1  0.66385996  0.32279857  0.75185923  1
  Si  Si7  1  0.50565176  0.70444395  0.75458552  1
  Si  Si8  1  0.35431566  0.00069564  0.74686317  1
  Si  Si9  1  0.85186405  0.02041169  0.74987710  1
  Si  Si10  1  0.49780953  0.32671109  0.58245685  1
  Si  Si11  1  0.98802907  0.33577375  0.58506940  1
  Si  Si12  1  0.16370285  -0.00004372  0.58410432  1
  Si  Si13  1  0.67392618  0.01148584  0.58369173  1
  Si  Si14  1  0.84164373  0.64761472  0.58179921  1
  Si  Si15  1  0.48814831  0.64308488  0.08591601  1
  Si  Si16  1  0.99778118  0.66799080  0.08224972  1
  Si  Si17  1  0.17465865  0.33828827  0.08401465  1
  Si  Si18  1  0.66248690  0.32587169  0.08459861  1
  Si  Si19  1  0.31665995  0.67104045  0.92279811  1
  Si  Si20  1  0.80193731  0.66377636  0.91450232  1
  Si  Si21  1  0.16710310  0.96210792  0.91787899  1
  Si  Si22  1  0.66752064  0.94328283  0.91664877  1
  Si  Si23  1  0.30166513  0.94147732  0.41525534  1
  Si  Si24  1  0.81662468  0.96529344  0.42360554  1
  Si  Si25  1  0.16822199  0.39216517  0.41645926  1
  Si  Si26  1  0.66796453  0.37072794  0.41855264  1
  S  S0  1  0.48858251  0.29461035  0.24233065  1
  S  S1  1  0.98953837  0.68303147  0.74405798  1
  S  S2  1  0.33024926  0.66129111  0.58034784  1
  S  S3  1  0.33462108  0.02028592  0.08375781  1
  S  S4  1  0.83061242  0.00042000  0.08032789  1
  S  S5  1  0.02211463  0.37632493  0.92414098  1
  S  S6  1  0.52882587  0.39274484  0.91635163  1
  S  S7  1  0.03001588  0.66212253  0.41457904  1
  S  S8  1  0.51949260  0.66586213  0.42087972  1
  O  O0  1  0.14161956  0.07412337  0.31086756  1
  O  O1  1  0.61371365  0.01577374  0.31315713  1
  O  O2  1  0.40416930  0.74766001  0.30983995  1
  O  O3  1  0.89488325  0.77980478  0.31073077  1
  O  O4  1  0.48030555  0.22551078  0.30347799  1
  O  O5  1  0.98684697  0.21792273  0.31865593  1
  O  O6  1  0.11485575  0.21600934  0.81476128  1
  O  O7  1  0.63655571  0.21389127  0.81300256  1
  O  O8  1  0.48654786  0.75189933  0.82011544  1
  O  O9  1  0.98309914  0.73615987  0.80582683  1
  O  O10  1  0.39213587  0.00709976  0.81237537  1
  O  O11  1  0.90144893  0.06270877  0.81233583  1
  O  O12  1  0.42009269  0.00838380  0.69520482  1
  O  O13  1  0.90845553  0.00291264  0.69809521  1
  O  O14  1  0.08259196  0.15040438  0.70037845  1
  O  O15  1  0.59380653  0.21113837  0.70073897  1
  O  O16  1  0.99168334  0.80188841  0.70077731  1
  O  O17  1  0.51707654  0.85711944  0.70972956  1
  O  O18  1  0.40575232  0.82187746  0.19525561  1
  O  O19  1  0.91897791  0.83063946  0.19308187  1
  O  O20  1  0.01710682  0.17878121  0.20757431  1
  O  O21  1  0.48969937  0.17931454  0.19843354  1
  O  O22  1  0.09407408  0.97912605  0.19928277  1
  O  O23  1  0.58510503  0.01234725  0.19906128  1
  O  O24  1  0.46263501  0.36654787  0.64218864  1
  O  O25  1  0.92882901  0.35107873  0.63671933  1
  O  O26  1  0.23223868  0.07177951  0.63683778  1
  O  O27  1  0.74927320  0.13752248  0.63114620  1
  O  O28  1  0.31581180  0.55766251  0.63380724  1
  O  O29  1  0.82304130  0.48540110  0.62349064  1
  O  O30  1  0.42676378  0.50556776  0.13668952  1
  O  O31  1  0.96424852  0.55893974  0.14234285  1
  O  O32  1  0.32434393  0.12681430  0.12729958  1
  O  O33  1  0.81533881  0.07288765  0.13381671  1
  O  O34  1  0.25139765  0.36658627  0.13141993  1
  O  O35  1  0.72989772  0.38705754  0.13769529  1
  O  O36  1  0.20151925  0.27942884  0.02381430  1
  O  O37  1  0.69712561  0.26162497  0.02888214  1
  O  O38  1  0.43701077  0.59553293  0.02461838  1
  O  O39  1  0.93066376  0.57990017  0.02816228  1
  O  O40  1  0.35053151  0.09674927  0.02356123  1
  O  O41  1  0.83918167  0.10272415  0.02727402  1
  O  O42  1  0.20068542  0.13176695  0.52774939  1
  O  O43  1  0.69770538  0.12170383  0.52302994  1
  O  O44  1  0.33878470  0.57654174  0.52715242  1
  O  O45  1  0.86358769  0.61076670  0.51608423  1
  O  O46  1  0.43004471  0.27690742  0.52860964  1
  O  O47  1  0.93756780  0.28284294  0.52366744  1
  O  O48  1  0.25372913  0.66029321  0.97832448  1
  O  O49  1  0.74595241  0.65067302  0.97409167  1
  O  O50  1  0.07519527  0.48332957  0.97237931  1
  O  O51  1  0.57228287  0.49332934  0.96901224  1
  O  O52  1  0.17365894  0.84094321  0.97069668  1
  O  O53  1  0.66723073  0.83849617  0.97669441  1
  O  O54  1  0.24574318  0.84165084  0.47412063  1
  O  O55  1  0.75575133  0.84481959  0.47862442  1
  O  O56  1  0.16851370  0.49789437  0.47565977  1
  O  O57  1  0.67676472  0.50303875  0.47189629  1
  O  O58  1  0.07277722  0.64906356  0.46754883  1
  O  O59  1  0.57255270  0.66505733  0.46808133  1
  O  O60  1  0.07296518  0.66457511  0.35891431  1
  O  O61  1  0.55016764  0.65396169  0.36102863  1
  O  O62  1  0.25193791  0.83717919  0.35578308  1
  O  O63  1  0.77093893  0.89460784  0.35991361  1
  O  O64  1  0.16903507  0.49524449  0.35562683  1
  O  O65  1  0.66311631  0.44290154  0.35329634  1
  O  O66  1  0.05367972  0.45467965  0.86560944  1
  O  O67  1  0.56962679  0.47632114  0.86048100  1
  O  O68  1  0.16640589  0.88323166  0.85318820  1
  O  O69  1  0.66908831  0.84229203  0.85659256  1
  O  O70  1  0.27002199  0.64865529  0.85991599  1
  O  O71  1  0.75169931  0.66746908  0.85575459  1
  O  O72  1  0.02778536  0.81961070  0.42024459  1
  O  O73  1  0.51252019  0.81884433  0.42530832  1
  O  O74  1  0.39128009  0.95326442  0.41893479  1
  O  O75  1  0.90308372  0.96098684  0.42793087  1
  O  O76  1  0.08790501  0.20753488  0.42215059  1
  O  O77  1  0.58060529  0.19406972  0.42874905  1
  O  O78  1  0.01807228  0.21281236  0.92815394  1
  O  O79  1  0.52649941  0.23070156  0.92235281  1
  O  O80  1  0.08102879  0.96702390  0.92746447  1
  O  O81  1  0.58710037  0.96702815  0.92238597  1
  O  O82  1  0.40178091  0.84883839  0.92873009  1
  O  O83  1  0.89179501  0.83141719  0.91890863  1
  O  O84  1  0.51051874  0.16456218  0.59228883  1
  O  O85  1  0.00033278  0.17450344  0.60105699  1
  O  O86  1  0.07536927  0.98926424  0.59834073  1
  O  O87  1  0.58658761  0.99383550  0.60558495  1
  O  O88  1  0.40326350  0.82737071  0.58533465  1
  O  O89  1  0.90906802  0.83156768  0.60288552  1
  O  O90  1  0.49953887  0.82956344  0.10117196  1
  O  O91  1  0.00988616  0.85529433  0.09082499  1
  O  O92  1  0.40086555  0.98410054  0.09706381  1
  O  O93  1  0.90374458  0.98076700  0.08517248  1
  O  O94  1  0.08761507  0.17957801  0.10431519  1
  O  O95  1  0.57108025  0.16343657  0.09872763  1
  O  O96  1  0.34131099  0.16118213  0.74463019  1
  O  O97  1  0.83440485  0.17379089  0.73609032  1
  O  O98  1  0.24000059  0.33027140  0.74034177  1
  O  O99  1  0.75021911  0.33313178  0.73055510  1
  O  O100  1  0.42539427  0.52697311  0.74008804  1
  O  O101  1  0.91909887  0.51361699  0.73678701  1
  O  O102  1  0.33447299  0.50420543  0.23587913  1
  O  O103  1  0.84110652  0.52210201  0.24357666  1
  O  O104  1  0.41851592  0.32425323  0.23445183  1
  O  O105  1  0.92534050  0.32309010  0.23961923  1
  O  O106  1  0.25141228  0.16805402  0.22604688  1
  O  O107  1  0.74145869  0.14840707  0.24067497  1
  O  O108  1  0.33024386  0.51061036  0.92583276  1
  O  O109  1  0.81099378  0.49726505  0.91247412  1
  O  O110  1  0.44333889  0.36536124  0.91790729  1
  O  O111  1  0.93774786  0.35235307  0.93001530  1
  O  O112  1  0.25173496  0.14277779  0.92142513  1
  O  O113  1  0.75256832  0.12506419  0.91473811  1
  O  O114  1  0.31008529  0.12519055  0.41205810  1
  O  O115  1  0.82884375  0.15122612  0.42709343  1
  O  O116  1  0.25321914  0.38098351  0.41381578  1
  O  O117  1  0.75102726  0.35434272  0.41928489  1
  O  O118  1  0.43434329  0.51852668  0.42539997  1
  O  O119  1  0.94549072  0.51709944  0.41437498  1
  O  O120  1  0.17582750  0.51434451  0.08111557  1
  O  O121  1  0.65333007  0.48854321  0.06970884  1
  O  O122  1  0.09030872  0.69115984  0.06911785  1
  O  O123  1  0.58177192  0.67377399  0.08146318  1
  O  O124  1  0.25477233  0.85571841  0.08351664  1
  O  O125  1  0.75568537  0.83006369  0.07566695  1
  O  O126  1  0.15295273  0.81766547  0.56936321  1
  O  O127  1  0.67693538  0.83978724  0.58158180  1
  O  O128  1  0.25525584  0.68051449  0.57612773  1
  O  O129  1  0.75303128  0.65125062  0.58128980  1
  O  O130  1  0.08250527  0.49234861  0.57966020  1
  O  O131  1  0.58911822  0.48826089  0.56872369  1
  O  O132  1  0.16017317  0.82927407  0.25530046  1
  O  O133  1  0.63835757  0.81451441  0.23763503  1
  O  O134  1  0.25897594  0.67342100  0.25275048  1
  O  O135  1  0.76684313  0.70555445  0.23657976  1
  O  O136  1  0.09053502  0.48978127  0.25233870  1
  O  O137  1  0.56719190  0.45632171  0.23731586  1
  O  O138  1  0.13802257  0.45925001  0.73658429  1
  O  O139  1  0.66036600  0.49495073  0.75573444  1
  O  O140  1  0.06783709  0.67662321  0.73836732  1
  O  O141  1  0.59085074  0.69216294  0.75267809  1
  O  O142  1  0.26692948  0.82877939  0.73574700  1
  O  O143  1  0.75968404  0.85053391  0.75311465  1
loop_
_geom_bond_atom_site_label_1
_geom_bond_atom_site_label_2
_geom_bond_distance
_geom_bond_site_symmetry_2
Na0 O107 2.457377 1_555
Na0 O105 2.492211 1_555
Na0 O135 2.624207 1_545
Na0 O63 2.635058 1_545
Na0 O33 2.798617 1_555
Na1 O136 2.506368 1_555
Na1 O134 2.615320 1_555
Na1 O102 2.628098 1_555
Na1 O0 2.650667 1_555
Na1 O64 2.670116 1_555
Na1 O106 2.800354 1_555
Na1 O20 2.806336 1_555
Na2 O103 2.395765 1_555
Na2 O35 2.578666 1_555
Na2 O65 2.604859 1_555
Na2 O107 2.619931 1_555
Na2 O135 2.754916 1_555
Na2 O137 2.901495 1_555
Na3 O31 2.438246 1_455
Na3 O105 2.492857 1_455
Na3 O136 2.565201 1_555
Na3 O132 2.596702 1_555
Na3 O103 2.693047 1_455
Na3 O60 2.840270 1_555
Na3 O22 3.008052 1_555
Na4 O133 2.364859 1_555
Na4 O104 2.545128 1_555
Na4 O102 2.629248 1_555
Na4 O137 2.652081 1_555
Na4 O30 2.736846 1_555
Na4 O2 2.810674 1_555
Na4 O61 2.836585 1_555
Na5 O98 2.453895 1_555
Na5 O100 2.505639 1_555
Na5 O142 2.610391 1_555
Na5 O28 2.687540 1_555
Na5 O70 2.737656 1_555
Na6 O138 2.417085 1_655
Na6 O25 2.490555 1_555
Na6 O101 2.512078 1_555
Na6 O97 2.560711 1_555
Na6 O140 2.663017 1_655
Na6 O13 2.916768 1_555
Na6 O11 2.940057 1_555
Na7 O24 2.386471 1_555
Na7 O100 2.492307 1_555
Na7 O141 2.564956 1_555
Na7 O139 2.589909 1_555
Na7 O96 2.701719 1_555
Na7 O67 2.905671 1_555
Na7 O15 2.953496 1_555
Na8 O96 2.446087 1_555
Na8 O26 2.513059 1_555
Na8 O98 2.590903 1_555
Na8 O68 2.695159 1_545
Na8 O142 2.772543 1_545
Na8 O140 2.863234 1_545
Na9 O97 2.490430 1_555
Na9 O143 2.544985 1_545
Na9 O141 2.581351 1_545
Na9 O99 2.663350 1_555
Na9 O17 2.838001 1_545
Na9 O69 2.856105 1_545
Na9 O7 2.865844 1_555
Na9 O27 2.896770 1_555
Na10 O85 2.350349 1_555
Na10 O130 2.429072 1_555
Na10 O86 2.672908 1_545
Na10 O42 2.717693 1_555
Na10 O56 2.819378 1_555
Na11 O84 2.402663 1_555
Na11 O131 2.486925 1_555
Na11 O43 2.684182 1_555
Na11 O129 2.688702 1_555
Na11 O87 2.710121 1_545
Na11 O29 2.869363 1_555
Na11 O15 2.903087 1_555
Na11 O57 2.926166 1_555
Na12 O88 2.381944 1_555
Na12 O128 2.551490 1_555
Na12 O26 2.674362 1_565
Na12 O46 2.717999 1_565
Na12 O12 2.785844 1_565
Na12 O84 2.789678 1_565
Na13 O89 2.416746 1_555
Na13 O127 2.567331 1_555
Na13 O129 2.622497 1_555
Na13 O85 2.756821 1_665
Na13 O55 2.780869 1_555
Na13 O13 2.872258 1_565
Na13 O27 2.883064 1_565
Na13 O47 2.895589 1_565
Na14 O91 2.345915 1_555
Na14 O122 2.477585 1_555
Na14 O94 2.637985 1_565
Na14 O36 2.694593 1_565
Na14 O124 2.779801 1_555
Na14 O22 2.846272 1_555
Na14 O32 2.998906 1_565
Na14 O52 3.003453 1_554
Na15 O123 2.387201 1_555
Na15 O90 2.446776 1_555
Na15 O37 2.641279 1_565
Na15 O53 2.670351 1_554
Na15 O125 2.922049 1_555
Na16 O92 2.424911 1_555
Na16 O120 2.566846 1_555
Na16 O124 2.633374 1_555
Na16 O90 2.755583 1_555
Na16 O48 2.764152 1_554
Na16 O34 2.813149 1_555
Na16 O38 2.822753 1_555
Na16 O18 2.859838 1_555
Na17 O93 2.378535 1_555
Na17 O125 2.543837 1_555
Na17 O19 2.717033 1_555
Na17 O35 2.730099 1_555
Na17 O39 2.769378 1_555
Na17 O91 2.772379 1_655
Na18 O8 2.321422 1_555
Na18 O108 2.408226 1_555
Na18 O81 2.488724 1_555
Na18 O38 2.506595 1_556
Na18 O110 2.606592 1_555
Na18 O82 2.676737 1_555
Na19 O39 2.400933 1_556
Na19 O80 2.412597 1_655
Na19 O83 2.654385 1_555
Na19 O111 2.750966 1_555
Na19 O109 2.754568 1_555
Na19 O9 2.838103 1_555
Na20 O10 2.382518 1_555
Na20 O82 2.445759 1_545
Na20 O112 2.468795 1_555
Na20 O40 2.693852 1_556
Na20 O110 2.808919 1_555
Na21 O113 2.330701 1_555
Na21 O11 2.341784 1_555
Na21 O83 2.412279 1_545
Na21 O111 2.701480 1_555
Na21 O41 2.813798 1_556
Na21 O78 2.874212 1_655
Na22 O6 2.448038 1_555
Na22 O112 2.481315 1_555
Na22 O36 2.578405 1_556
Na22 O108 2.594702 1_555
Na22 O78 2.685080 1_555
Na22 O80 2.696095 1_545
Na23 O7 2.285505 1_555
Na23 O109 2.424674 1_555
Na23 O79 2.475138 1_555
Na23 O81 2.560459 1_545
Na23 O113 2.639320 1_555
Na23 O37 2.769621 1_556
Na24 O46 2.338606 1_555
Na24 O77 2.389392 1_555
Na24 O118 2.735621 1_555
Na24 O74 2.761001 1_545
Na24 O114 2.890140 1_555
Na24 O4 3.006317 1_555
Na25 O47 2.383720 1_555
Na25 O115 2.396566 1_555
Na25 O5 2.458627 1_555
Na25 O76 2.504191 1_655
Na25 O75 2.568670 1_545
Na25 O119 2.576798 1_555
Na26 O0 2.409357 1_555
Na26 O72 2.439105 1_545
Na26 O114 2.439626 1_555
Na26 O76 2.512546 1_555
Na26 O116 2.636744 1_555
Na26 O42 2.662912 1_555
Na27 O43 2.387411 1_555
Na27 O117 2.423333 1_555
Na27 O115 2.525706 1_555
Na27 O1 2.658908 1_555
Na27 O77 2.717940 1_555
Na27 O73 2.770009 1_545
Na28 O116 2.349161 1_555
Na28 O74 2.393007 1_555
Na28 O2 2.502143 1_555
Na28 O118 2.624646 1_555
Na28 O44 2.698078 1_555
Na28 O73 2.709519 1_555
Na29 O45 2.255507 1_555
Na29 O75 2.434787 1_555
Na29 O117 2.517795 1_555
Na29 O3 2.720341 1_555
Na30 O75 2.417704 1_555
Na30 O86 2.570887 1_655
Na30 O89 2.638676 1_555
Na30 O76 2.713175 1_665
Na30 O85 2.720931 1_665
Na30 O72 2.769925 1_655
Na31 O84 2.327017 1_555
Na31 O77 2.411293 1_555
Na31 O88 2.509652 1_545
Na31 O87 2.646779 1_545
Na31 O73 2.663029 1_545
Na31 O74 2.907120 1_545
Na32 O91 2.332260 1_545
Na32 O80 2.420108 1_544
Na32 O93 2.508542 1_445
Na32 O78 2.607496 1_554
Na32 O94 2.709872 1_555
Na32 O83 2.814156 1_444
Na33 O82 2.389065 1_554
Na33 O81 2.485566 1_554
Na33 O95 2.633071 1_565
Na33 O79 2.682119 1_564
Na33 O90 2.723396 1_555
Na33 O92 2.835446 1_555
Na34 O96 2.499457 1_555
Na34 O98 2.510255 1_555
Na34 O100 2.598265 1_555
Na34 O112 2.751934 1_555
Na34 O108 2.831705 1_555
Na34 O110 2.960648 1_555
Na35 O99 2.399840 1_555
Na35 O97 2.516669 1_555
Na35 O101 2.617783 1_555
Na35 O109 2.641764 1_555
Na35 O113 2.705939 1_555
Na36 O114 2.410552 1_555
Na36 O116 2.521813 1_555
Na36 O106 2.670227 1_555
Na36 O102 2.786990 1_555
Na36 O104 2.829542 1_555
Na36 O0 2.906972 1_555
Na36 O118 3.055492 1_555
Na37 O117 2.534332 1_555
Na37 O107 2.639164 1_555
Na37 O103 2.669195 1_555
Na37 O115 2.676469 1_555
Na37 O105 2.768016 1_555
Na37 O119 2.786871 1_555
Na38 O136 2.379262 1_555
Na38 O120 2.446127 1_555
Na38 O132 2.586572 1_555
Na38 O122 2.626943 1_555
Na38 O124 2.652923 1_555
Na38 O134 2.723144 1_555
Na39 O123 2.426725 1_555
Na39 O133 2.460232 1_555
Na39 O135 2.478941 1_555
Na39 O137 2.483856 1_555
Na39 O121 2.547512 1_555
Na39 O125 2.574710 1_555
Na40 O130 2.415204 1_555
Na40 O138 2.479549 1_555
Na40 O142 2.496836 1_555
Na40 O140 2.498272 1_555
Na40 O126 2.527473 1_555
Na40 O128 2.554063 1_555
Na41 O127 2.398055 1_555
Na41 O141 2.454575 1_555
Na41 O129 2.607710 1_555
Na41 O131 2.611240 1_555
Na41 O139 2.614259 1_555
Na41 O143 2.765579 1_555
La0 O5 2.233789 1_455
La0 O3 2.265741 1_445
La0 O76 2.425114 1_555
La0 O75 2.463890 1_445
La0 O0 2.495350 1_555
La0 O72 2.606469 1_545
La1 O1 2.258618 1_555
La1 O2 2.362221 1_545
La1 O74 2.406221 1_545
La1 O4 2.455757 1_555
La1 O77 2.459648 1_555
La1 O73 2.577179 1_545
La2 O6 2.253145 1_665
La2 O11 2.325584 1_565
La2 O83 2.437502 1_555
La2 O9 2.449012 1_555
La2 O80 2.539604 1_655
La2 O78 2.668249 1_665
La3 O8 2.233738 1_555
La3 O10 2.279912 1_565
La3 O7 2.409121 1_565
La3 O81 2.454818 1_555
La3 O82 2.525452 1_555
La3 O79 2.646736 1_565
La4 O24 2.278012 1_555
La4 O96 2.310983 1_555
La4 O100 2.346153 1_555
La4 O26 2.382195 1_555
La4 O98 2.404437 1_555
La4 O28 2.512069 1_555
La5 O31 2.289439 1_555
La5 O103 2.294490 1_555
La5 O105 2.323228 1_555
La5 O107 2.397616 1_555
La5 O35 2.404936 1_555
La5 O33 2.518968 1_555
La6 O108 2.277941 1_555
La6 O36 2.308160 1_556
La6 O38 2.322111 1_556
La6 O112 2.403117 1_555
La6 O40 2.526585 1_556
La6 O110 2.641402 1_555
La7 O37 2.280346 1_556
La7 O109 2.340601 1_555
La7 O39 2.377528 1_556
La7 O113 2.392774 1_555
La7 O111 2.457847 1_555
La7 O41 2.527861 1_556
La8 O42 2.249016 1_555
La8 O114 2.356480 1_555
La8 O46 2.368730 1_555
La8 O116 2.427774 1_555
La8 O118 2.449754 1_555
La8 O44 2.525531 1_555
La9 O47 2.334756 1_555
La9 O115 2.361974 1_555
La9 O45 2.364419 1_555
La9 O43 2.366182 1_555
La9 O117 2.448669 1_555
La9 O119 2.730416 1_555
La10 O63 2.209049 1_555
La10 O65 2.269857 1_555
La10 O135 2.371819 1_555
La10 O133 2.445821 1_555
La10 O61 2.465795 1_555
La10 O137 2.689443 1_555
La11 O70 2.226977 1_555
La11 O68 2.284562 1_555
La11 O142 2.355706 1_555
La11 O138 2.411864 1_555
La11 O66 2.454947 1_555
La11 O140 2.611692 1_555
O0 Si0 1.634660 1_555
O1 Si1 1.638729 1_545
O2 Si2 1.621830 1_555
O3 Si3 1.632096 1_555
O4 S0 1.499380 1_555
O5 Si4 1.632111 1_655
O6 Si5 1.655526 1_555
O7 Si6 1.635662 1_555
O8 Si7 1.634082 1_555
O9 S1 1.506434 1_555
O10 Si8 1.637578 1_555
O11 Si9 1.636564 1_555
O12 Si8 1.667467 1_555
O12 Ti1 1.904403 1_555
O13 Si9 1.636442 1_555
O13 Ti0 1.950390 1_555
O14 Si5 1.662804 1_555
O14 Ti0 1.906643 1_455
O15 Si6 1.679188 1_555
O15 Ti1 1.835040 1_555
O16 S1 1.465674 1_555
O16 Ti0 2.199615 1_565
O17 Si7 1.673819 1_555
O17 Ti1 1.932706 1_565
O18 Si2 1.633290 1_555
O18 Ti3 1.956174 1_555
O19 Si3 1.674968 1_555
O19 Ti2 1.896289 1_665
O20 Si4 1.680702 1_555
O20 Ti2 1.914582 1_555
O21 S0 1.473401 1_555
O21 Ti3 2.155137 1_545
O22 Si0 1.678495 1_565
O22 Ti2 1.840513 1_565
O23 Si1 1.695748 1_545
O23 Ti3 1.814153 1_545
O24 Si10 1.621193 1_555
O25 Si11 1.659970 1_555
O25 Ti4 1.967282 1_555
O26 Si12 1.643224 1_555
O27 Si13 1.706483 1_555
O27 Ti4 1.863852 1_555
O28 S2 1.484616 1_555
O29 Si14 1.665826 1_555
O29 Ti4 1.917898 1_555
O30 Si15 1.671939 1_555
O30 Ti5 1.938144 1_555
O31 Si16 1.619949 1_555
O32 S3 1.479104 1_555
O32 Ti5 2.389998 1_555
O33 S4 1.480586 1_555
O34 Si17 1.717344 1_555
O34 Ti5 1.859077 1_555
O35 Si18 1.637553 1_555
O36 Si17 1.635470 1_555
O37 Si18 1.657192 1_555
O38 Si15 1.625774 1_555
O39 Si16 1.661444 1_555
O40 S3 1.493730 1_555
O41 S4 1.490549 1_555
O42 Si12 1.659122 1_555
O43 Si13 1.634211 1_555
O44 S2 1.491388 1_555
O45 Si14 1.620722 1_555
O46 Si10 1.661613 1_555
O47 Si11 1.621877 1_555
O48 Si19 1.684401 1_555
O48 Ti6 1.886479 1_556
O49 Si20 1.667566 1_555
O49 Ti7 1.870901 1_556
O50 S5 1.487578 1_555
O50 Ti6 2.098260 1_556
O51 S6 1.491134 1_555
O51 Ti7 1.999730 1_556
O52 Si21 1.692980 1_555
O52 Ti6 1.869623 1_556
O53 Si22 1.672413 1_555
O53 Ti7 1.898139 1_556
O54 Si23 1.655393 1_555
O54 Ti8 1.890217 1_555
O55 Si24 1.676534 1_555
O55 Ti9 1.894847 1_555
O56 Si25 1.662855 1_555
O56 Ti8 1.898900 1_555
O57 Si26 1.677462 1_555
O57 Ti9 1.902440 1_555
O58 S7 1.487341 1_555
O58 Ti8 1.997992 1_555
O59 S8 1.470443 1_555
O59 Ti9 2.440491 1_555
O60 S7 1.482461 1_555
O60 Ti10 2.295025 1_555
O61 S8 1.491601 1_555
O62 Si23 1.658246 1_555
O62 Ti10 1.852354 1_555
O63 Si24 1.645422 1_555
O64 Si25 1.674853 1_555
O64 Ti10 1.911562 1_555
O65 Si26 1.644446 1_555
O66 S5 1.480032 1_555
O67 S6 1.475470 1_555
O67 Ti11 2.407787 1_555
O68 Si21 1.635663 1_555
O69 Si22 1.662722 1_555
O69 Ti11 1.922986 1_555
O70 Si19 1.635769 1_555
O71 Si20 1.647603 1_555
O71 Ti11 1.874372 1_555
O72 S7 1.499440 1_555
O73 S8 1.503408 1_555
O74 Si23 1.635020 1_555
O75 Si24 1.649216 1_555
O76 Si25 1.634699 1_555
O77 Si26 1.662673 1_555
O78 S5 1.495166 1_555
O79 S6 1.499921 1_555
O80 Si21 1.653234 1_555
O81 Si22 1.637481 1_555
O82 Si19 1.640981 1_555
O83 Si20 1.637719 1_555
O84 Si10 1.663511 1_555
O84 Ti1 2.061838 1_555
O85 Si11 1.675447 1_455
O85 Ti0 1.886058 1_455
O86 Si12 1.641188 1_565
O86 Ti0 1.953233 1_465
O87 Si13 1.637140 1_565
O87 Ti1 1.933241 1_565
O88 S2 1.478188 1_555
O88 Ti1 2.670312 1_565
O89 Si14 1.621816 1_555
O89 Ti0 1.956004 1_565
O90 Si15 1.683699 1_555
O90 Ti3 1.885767 1_555
O91 Si16 1.661455 1_455
O91 Ti2 2.089240 1_565
O92 S3 1.477336 1_565
O92 Ti3 2.266378 1_555
O93 S4 1.479780 1_565
O93 Ti2 2.643379 1_665
O94 Si17 1.628589 1_555
O94 Ti2 1.948408 1_555
O95 Si18 1.657217 1_555
O95 Ti3 1.908148 1_545
O96 Si8 1.637127 1_555
O97 Si9 1.653106 1_555
O97 Ti4 2.051185 1_555
O98 Si5 1.640582 1_555
O99 Si6 1.644279 1_555
O99 Ti4 1.976929 1_555
O100 Si7 1.627883 1_555
O101 S1 1.483849 1_555
O101 Ti4 2.303977 1_555
O102 Si2 1.692747 1_555
O102 Ti5 1.867992 1_555
O103 Si3 1.636334 1_555
O104 S0 1.487031 1_555
O104 Ti5 2.245048 1_555
O105 Si4 1.623975 1_655
O106 Si0 1.665492 1_555
O106 Ti5 1.909079 1_555
O107 Si1 1.629179 1_545
O108 Si19 1.643911 1_555
O109 Si20 1.649073 1_555
O110 S6 1.495537 1_555
O111 S5 1.491062 1_655
O112 Si21 1.647053 1_545
O113 Si22 1.653652 1_545
O114 Si23 1.646113 1_545
O115 Si24 1.638235 1_545
O116 Si25 1.652569 1_555
O117 Si26 1.643097 1_555
O118 S8 1.505656 1_555
O119 S7 1.487932 1_655
O120 Si17 1.636651 1_555
O120 Ti6 2.097635 1_555
O121 Si18 1.648768 1_555
O121 Ti7 1.897435 1_555
O122 Si16 1.665238 1_455
O122 Ti6 1.925417 1_555
O123 Si15 1.637486 1_555
O123 Ti7 2.139162 1_555
O124 S3 1.522112 1_565
O124 Ti6 2.196691 1_555
O125 S4 1.515653 1_565
O125 Ti7 2.119991 1_555
O126 Si12 1.647902 1_565
O126 Ti8 1.899039 1_555
O127 Si13 1.635108 1_565
O127 Ti9 2.109343 1_555
O128 S2 1.511033 1_555
O128 Ti8 2.130285 1_555
O129 Si14 1.682741 1_555
O129 Ti9 1.896121 1_555
O130 Si11 1.647364 1_455
O130 Ti8 2.075917 1_555
O131 Si10 1.651246 1_555
O131 Ti9 1.934815 1_555
O132 Si0 1.639688 1_565
O132 Ti10 2.049211 1_555
O133 Si1 1.630989 1_555
O134 Si2 1.649496 1_555
O134 Ti10 1.903688 1_555
O135 Si3 1.648442 1_555
O136 Si4 1.659667 1_555
O136 Ti10 2.093775 1_555
O137 S0 1.500096 1_555
O138 Si5 1.641367 1_555
O139 Si6 1.645779 1_555
O139 Ti11 2.020875 1_555
O140 S1 1.506578 1_455
O141 Si7 1.661624 1_555
O141 Ti11 2.065891 1_555
O142 Si8 1.649169 1_565
O143 Si9 1.668064 1_565
O143 Ti11 1.871682 1_555
