# generated using pymatgen
data_GaH4NF4
_symmetry_space_group_name_H-M   'P 1'
_cell_length_a   7.35911003
_cell_length_b   7.35911003
_cell_length_c   7.35911003
_cell_angle_alpha   138.23961735
_cell_angle_beta   138.23961735
_cell_angle_gamma   60.53621107
_symmetry_Int_Tables_number   1
_chemical_formula_structural   GaH4NF4
_chemical_formula_sum   'Ga2 H8 N2 F8'
_cell_volume   174.90362468
_cell_formula_units_Z   2
loop_
 _symmetry_equiv_pos_site_id
 _symmetry_equiv_pos_as_xyz
  1  'x, y, z'
loop_
 _atom_site_type_symbol
 _atom_site_label
 _atom_site_symmetry_multiplicity
 _atom_site_fract_x
 _atom_site_fract_y
 _atom_site_fract_z
 _atom_site_occupancy
  Ga  Ga0  1  0.50000000  0.50000000  -0.00000000  1
  Ga  Ga1  1  -0.00000000  0.00000000  -0.00000000  1
  H  H0  1  0.81465127  0.09099718  0.50000000  1
  H  H1  1  0.18534873  0.90900282  0.50000000  1
  H  H2  1  0.40900282  0.68534873  0.50000000  1
  H  H3  1  0.68534873  0.18534873  0.27634491  1
  H  H4  1  0.90900282  0.40900282  0.72365509  1
  H  H5  1  0.09099718  0.59099718  0.27634491  1
  H  H6  1  0.31465127  0.81465127  0.72365509  1
  H  H7  1  0.59099718  0.31465127  0.50000000  1
  N  N0  1  0.75000000  0.25000000  0.50000000  1
  N  N1  1  0.25000000  0.75000000  0.50000000  1
  F  F0  1  0.18387611  0.68387611  0.86775322  1
  F  F1  1  0.85469337  0.85469337  -0.00000000  1
  F  F2  1  0.35469337  0.35469337  -0.00000000  1
  F  F3  1  0.14530663  0.14530663  0.00000000  1
  F  F4  1  0.31612389  0.18387611  0.50000000  1
  F  F5  1  0.68387611  0.81612389  0.50000000  1
  F  F6  1  0.81612389  0.31612389  0.13224678  1
  F  F7  1  0.64530663  0.64530663  0.00000000  1
loop_
_geom_bond_atom_site_label_1
_geom_bond_atom_site_label_2
_geom_bond_distance
_geom_bond_site_symmetry_2
H0 N0 1.023658 1_555
H1 N1 1.023658 1_555
H2 N1 1.023658 1_555
H3 N0 1.023665 1_555
H4 N0 1.023657 1_555
H5 N1 1.023657 1_555
H6 N1 1.023665 1_555
H7 N0 1.023658 1_555
F0 Ga0 1.918445 1_556
F0 Ga1 1.918445 1_566
F1 Ga1 1.847106 1_665
F2 Ga0 1.847106 1_555
F3 Ga1 1.847106 1_555
F4 Ga0 1.918446 1_556
F4 Ga1 1.918446 1_555
F5 Ga0 1.918446 1_555
F5 Ga1 1.918446 1_666
F6 Ga0 1.918445 1_555
F6 Ga1 1.918445 1_655
F7 Ga0 1.847106 1_555
