# generated using pymatgen
data_Li3Fe3(PO4)4
_symmetry_space_group_name_H-M   'P 1'
_cell_length_a   5.01886800
_cell_length_b   8.32760700
_cell_length_c   14.53809489
_cell_angle_alpha   79.95659548
_cell_angle_beta   90.00000000
_cell_angle_gamma   90.00000000
_symmetry_Int_Tables_number   1
_chemical_formula_structural   Li3Fe3(PO4)4
_chemical_formula_sum   'Li6 Fe6 P8 O32'
_cell_volume   598.31075963
_cell_formula_units_Z   2
loop_
 _symmetry_equiv_pos_site_id
 _symmetry_equiv_pos_as_xyz
  1  'x, y, z'
loop_
 _atom_site_type_symbol
 _atom_site_label
 _atom_site_symmetry_multiplicity
 _atom_site_fract_x
 _atom_site_fract_y
 _atom_site_fract_z
 _atom_site_occupancy
  Li  Li0  1  0.51451200  0.82653700  0.87815400  1
  Li  Li1  1  0.48548800  0.17346300  0.12184600  1
  Li  Li2  1  0.98548800  0.32653700  0.37815400  1
  Li  Li3  1  0.50000000  0.50000000  0.50000000  1
  Li  Li4  1  0.01451200  0.67346300  0.62184600  1
  Li  Li5  1  0.00000000  0.00000000  0.00000000  1
  Fe  Fe0  1  0.43496000  0.52058100  0.29308400  1
  Fe  Fe1  1  0.00000000  0.00000000  0.50000000  1
  Fe  Fe2  1  0.93496000  0.97941900  0.20691600  1
  Fe  Fe3  1  0.06504000  0.02058100  0.79308400  1
  Fe  Fe4  1  0.56504000  0.47941900  0.70691600  1
  Fe  Fe5  1  0.50000000  0.50000000  0.00000000  1
  P  P0  1  0.48791800  0.87675700  0.64940100  1
  P  P1  1  0.51696400  0.18471900  0.89261000  1
  P  P2  1  0.01696400  0.31528100  0.60739000  1
  P  P3  1  0.98303600  0.68471900  0.39261000  1
  P  P4  1  0.48303600  0.81528100  0.10739000  1
  P  P5  1  0.51208200  0.12324300  0.35059900  1
  P  P6  1  0.98791800  0.62324300  0.85059900  1
  P  P7  1  0.01208200  0.37675700  0.14940100  1
  O  O0  1  0.96378000  0.19114300  0.69774600  1
  O  O1  1  0.52681000  0.73852000  0.01956000  1
  O  O2  1  0.71157400  0.39479000  0.12749400  1
  O  O3  1  0.59349400  0.06949800  0.25678700  1
  O  O4  1  0.18121300  0.47564000  0.07211100  1
  O  O5  1  0.09066500  0.19111100  0.15713500  1
  O  O6  1  0.90933500  0.80888900  0.84286500  1
  O  O7  1  0.81878700  0.52436000  0.92788900  1
  O  O8  1  0.40650600  0.93050200  0.74321300  1
  O  O9  1  0.28842600  0.60521000  0.87250600  1
  O  O10  1  0.47319000  0.26148000  0.98044000  1
  O  O11  1  0.78842600  0.89479000  0.62749400  1
  O  O12  1  0.90650600  0.56949800  0.75678700  1
  O  O13  1  0.31878700  0.97564000  0.57211100  1
  O  O14  1  0.79335000  0.10556400  0.89040300  1
  O  O15  1  0.40933500  0.69111100  0.65713500  1
  O  O16  1  0.09349400  0.43050200  0.24321300  1
  O  O17  1  0.30420300  0.04342900  0.89773900  1
  O  O18  1  0.80420300  0.45657100  0.60226100  1
  O  O19  1  0.02681000  0.76148000  0.48044000  1
  O  O20  1  0.46378000  0.30885700  0.80225400  1
  O  O21  1  0.29335000  0.39443600  0.60959700  1
  O  O22  1  0.70665000  0.60556400  0.39040300  1
  O  O23  1  0.03622000  0.80885700  0.30225400  1
  O  O24  1  0.97319000  0.23852000  0.51956000  1
  O  O25  1  0.19579700  0.54342900  0.39773900  1
  O  O26  1  0.69579700  0.95657100  0.10226100  1
  O  O27  1  0.53622000  0.69114300  0.19774600  1
  O  O28  1  0.59066500  0.30888900  0.34286500  1
  O  O29  1  0.20665000  0.89443600  0.10959700  1
  O  O30  1  0.68121300  0.02436000  0.42788900  1
  O  O31  1  0.21157400  0.10521000  0.37250600  1
loop_
_geom_bond_atom_site_label_1
_geom_bond_atom_site_label_2
_geom_bond_distance
_geom_bond_site_symmetry_2
Li0 O6 2.058567 1_555
Li0 O1 2.059539 1_556
Li0 O8 2.073549 1_555
Li0 O17 2.153341 1_565
Li0 O9 2.178112 1_555
Li1 O5 2.058567 1_555
Li1 O10 2.059539 1_554
Li1 O3 2.073549 1_555
Li1 O26 2.153341 1_545
Li1 O2 2.178112 1_555
Li2 O28 2.058567 1_555
Li2 O24 2.059539 1_555
Li2 O16 2.073549 1_655
Li2 O25 2.153341 1_655
Li2 O31 2.178112 1_655
Li3 O21 1.974499 1_555
Li3 O22 1.974499 1_555
Li3 O18 2.117655 1_555
Li3 O25 2.117655 1_555
Li4 O15 2.058567 1_555
Li4 O19 2.059539 1_555
Li4 O12 2.073549 1_455
Li4 O18 2.153341 1_455
Li4 O11 2.178112 1_455
Li5 O14 1.974499 1_454
Li5 O29 1.974499 1_545
Li5 O26 2.117655 1_445
Li5 O17 2.117655 1_554
Fe0 O27 1.873545 1_555
Fe0 O28 1.948649 1_555
Fe0 O25 1.973037 1_555
Fe0 O16 2.053070 1_555
Fe0 O22 2.170524 1_555
Fe1 O13 1.904171 1_545
Fe1 O30 1.904171 1_455
Fe1 O19 2.059458 1_545
Fe1 O24 2.059458 1_455
Fe1 O31 2.182729 1_555
Fe1 O11 2.182729 1_445
Fe2 O23 1.873545 1_655
Fe2 O5 1.948649 1_665
Fe2 O26 1.973037 1_555
Fe2 O3 2.053070 1_565
Fe2 O29 2.170524 1_655
Fe3 O0 1.873545 1_455
Fe3 O6 1.948649 1_445
Fe3 O17 1.973037 1_555
Fe3 O8 2.053070 1_545
Fe3 O14 2.170524 1_455
Fe4 O20 1.873545 1_555
Fe4 O15 1.948649 1_555
Fe4 O18 1.973037 1_555
Fe4 O12 2.053070 1_555
Fe4 O21 2.170524 1_555
Fe5 O7 1.904171 1_554
Fe5 O4 1.904171 1_555
Fe5 O10 2.059458 1_554
Fe5 O1 2.059458 1_555
Fe5 O2 2.182729 1_555
Fe5 O9 2.182729 1_554
O0 P2 1.546559 1_655
O1 P4 1.540131 1_555
O2 P7 1.543373 1_655
O3 P5 1.562131 1_555
O4 P7 1.529211 1_555
O5 P7 1.580392 1_555
O6 P6 1.580392 1_555
O7 P6 1.529211 1_555
O8 P0 1.562131 1_555
O9 P6 1.543373 1_455
O10 P1 1.540131 1_555
O11 P0 1.543373 1_555
O12 P6 1.562131 1_555
O13 P0 1.529211 1_555
O14 P1 1.538533 1_555
O15 P0 1.580392 1_555
O16 P7 1.562131 1_555
O17 P1 1.581013 1_555
O18 P2 1.581013 1_655
O19 P3 1.540131 1_455
O20 P1 1.546559 1_555
O21 P2 1.538533 1_555
O22 P3 1.538533 1_555
O23 P3 1.546559 1_455
O24 P2 1.540131 1_655
O25 P3 1.581013 1_455
O26 P4 1.581013 1_555
O27 P4 1.546559 1_555
O28 P5 1.580392 1_555
O29 P4 1.538533 1_555
O30 P5 1.529211 1_555
O31 P5 1.543373 1_555
