# generated using pymatgen
data_NaNb4Si3(PO8)3
_symmetry_space_group_name_H-M   'P 1'
_cell_length_a   8.86619161
_cell_length_b   8.86276640
_cell_length_c   22.93470809
_cell_angle_alpha   90.06980430
_cell_angle_beta   90.14439340
_cell_angle_gamma   119.97550388
_symmetry_Int_Tables_number   1
_chemical_formula_structural   NaNb4Si3(PO8)3
_chemical_formula_sum   'Na3 Nb12 Si9 P9 O72'
_cell_volume   1561.11269917
_cell_formula_units_Z   3
loop_
 _symmetry_equiv_pos_site_id
 _symmetry_equiv_pos_as_xyz
  1  'x, y, z'
loop_
 _atom_site_type_symbol
 _atom_site_label
 _atom_site_symmetry_multiplicity
 _atom_site_fract_x
 _atom_site_fract_y
 _atom_site_fract_z
 _atom_site_occupancy
  Na  Na0  1  0.99979940  0.99803292  0.99922872  1
  Na  Na1  1  0.66652967  0.33226952  0.83575826  1
  Na  Na2  1  0.66663186  0.33243550  0.33153531  1
  Nb  Nb0  1  0.99572322  0.00193465  0.35826658  1
  Nb  Nb1  1  0.00261495  0.00384247  0.85626778  1
  Nb  Nb2  1  0.99812469  0.00280006  0.64482879  1
  Nb  Nb3  1  0.00410819  0.00448232  0.14448014  1
  Nb  Nb4  1  0.66458140  0.33269149  0.68995940  1
  Nb  Nb5  1  0.67213030  0.33842988  0.18646823  1
  Nb  Nb6  1  0.66119632  0.33678977  0.97764865  1
  Nb  Nb7  1  0.66932505  0.33445140  0.47731846  1
  Nb  Nb8  1  0.33454778  0.67020031  0.02397906  1
  Nb  Nb9  1  0.33534447  0.67185533  0.52241912  1
  Nb  Nb10  1  0.32911260  0.66910437  0.30864632  1
  Nb  Nb11  1  0.34213867  0.67114625  0.80968286  1
  Si  Si0  1  0.99757753  0.28570279  0.25043122  1
  Si  Si1  1  0.28400376  0.28687642  0.75018516  1
  Si  Si2  1  0.71508877  0.00024669  0.74991038  1
  Si  Si3  1  0.95482936  0.62197034  0.08264171  1
  Si  Si4  1  0.37940854  0.33459011  0.08355175  1
  Si  Si5  1  0.62004915  0.66902111  0.91707519  1
  Si  Si6  1  0.33406680  0.95207891  0.91674882  1
  Si  Si7  1  0.61605182  0.95041644  0.41652716  1
  Si  Si8  1  0.04954083  0.66835891  0.41635184  1
  P  P0  1  0.28651134  0.00329784  0.25056464  1
  P  P1  1  0.71466062  0.71453304  0.25039373  1
  P  P2  1  0.00129370  0.71616937  0.74989787  1
  P  P3  1  0.95361065  0.33413564  0.58356809  1
  P  P4  1  0.37983628  0.04795427  0.58338461  1
  P  P5  1  0.66687719  0.61943348  0.58345198  1
  P  P6  1  0.66752854  0.04844168  0.08287767  1
  P  P7  1  0.04812657  0.38339757  0.91660071  1
  P  P8  1  0.33401137  0.38405943  0.41643342  1
  O  O0  1  0.20047548  0.02932958  0.30472058  1
  O  O1  1  0.83057041  0.79870139  0.30498545  1
  O  O2  1  0.97154823  0.16358723  0.30700349  1
  O  O3  1  0.19850028  0.16227782  0.80644961  1
  O  O4  1  0.96492514  0.79564350  0.80392613  1
  O  O5  1  0.83700088  0.03323812  0.80650656  1
  O  O6  1  0.80690707  0.97188687  0.69205018  1
  O  O7  1  0.16556046  0.18951407  0.69222050  1
  O  O8  1  0.02585290  0.82735985  0.69472115  1
  O  O9  1  0.79943468  0.82545040  0.19601627  1
  O  O10  1  0.02591710  0.19235171  0.19343455  1
  O  O11  1  0.17248087  0.97116317  0.19558875  1
  O  O12  1  0.86612830  0.36226511  0.63708083  1
  O  O13  1  0.49754511  0.13540678  0.63729415  1
  O  O14  1  0.63909903  0.50349706  0.63710988  1
  O  O15  1  0.86152206  0.49919804  0.14043794  1
  O  O16  1  0.64037591  0.13392289  0.13824841  1
  O  O17  1  0.49952699  0.35851033  0.14091249  1
  O  O18  1  0.46927764  0.29848892  0.02681314  1
  O  O19  1  0.82993538  0.52707885  0.02659625  1
  O  O20  1  0.70029889  0.16218548  0.02895864  1
  O  O21  1  0.46797589  0.16265021  0.52935921  1
  O  O22  1  0.69352389  0.53026124  0.52924870  1
  O  O23  1  0.83606894  0.30514721  0.52918988  1
  O  O24  1  0.52902061  0.69642145  0.97407773  1
  O  O25  1  0.16037066  0.46344471  0.97159722  1
  O  O26  1  0.30268017  0.83281238  0.97421412  1
  O  O27  1  0.52678511  0.83112844  0.47443558  1
  O  O28  1  0.30549788  0.46626707  0.47174263  1
  O  O29  1  0.16812560  0.69218885  0.47418026  1
  O  O30  1  0.13727454  0.63214965  0.35976408  1
  O  O31  1  0.49658887  0.86171297  0.35961098  1
  O  O32  1  0.36775797  0.49703003  0.36228404  1
  O  O33  1  0.12908802  0.49238267  0.86151944  1
  O  O34  1  0.35957252  0.85970170  0.85902186  1
  O  O35  1  0.49872334  0.63471340  0.85905752  1
  O  O36  1  0.02783614  0.83635779  0.40516167  1
  O  O37  1  0.80869905  0.97491077  0.40694831  1
  O  O38  1  0.17575484  0.20056169  0.40715840  1
  O  O39  1  0.02782918  0.19813890  0.90959833  1
  O  O40  1  0.16350566  0.97645365  0.90886390  1
  O  O41  1  0.81381298  0.83828289  0.90841666  1
  O  O42  1  0.97122390  0.17077251  0.59201129  1
  O  O43  1  0.19843915  0.02437415  0.59288666  1
  O  O44  1  0.82857840  0.79921648  0.59257441  1
  O  O45  1  0.97108681  0.81163665  0.09273522  1
  O  O46  1  0.82862878  0.02513531  0.09203322  1
  O  O47  1  0.18680354  0.16050171  0.09168697  1
  O  O48  1  0.69504256  0.17352042  0.73946622  1
  O  O49  1  0.47924998  0.31050641  0.73944013  1
  O  O50  1  0.83613475  0.53169462  0.73990811  1
  O  O51  1  0.69224446  0.52922804  0.24347459  1
  O  O52  1  0.82560418  0.30682714  0.24340477  1
  O  O53  1  0.47017768  0.16263259  0.24288414  1
  O  O54  1  0.64370294  0.49675922  0.92323033  1
  O  O55  1  0.86288634  0.35678322  0.92413457  1
  O  O56  1  0.50773253  0.14444138  0.92395281  1
  O  O57  1  0.63921728  0.14485069  0.42693832  1
  O  O58  1  0.49593176  0.36017444  0.42627867  1
  O  O59  1  0.85409632  0.49765777  0.42678702  1
  O  O60  1  0.35830805  0.50214605  0.07290823  1
  O  O61  1  0.14342172  0.64081335  0.07351098  1
  O  O62  1  0.50634766  0.86757369  0.07548323  1
  O  O63  1  0.36237507  0.86637547  0.57429846  1
  O  O64  1  0.50441576  0.63698613  0.57354281  1
  O  O65  1  0.13498743  0.49287738  0.57321844  1
  O  O66  1  0.30585186  0.83958247  0.25886437  1
  O  O67  1  0.53317682  0.69342667  0.26038043  1
  O  O68  1  0.17051118  0.47569886  0.26059123  1
  O  O69  1  0.30252777  0.47506949  0.75937857  1
  O  O70  1  0.15736507  0.69097939  0.75870347  1
  O  O71  1  0.52290819  0.83349916  0.75834927  1
loop_
_geom_bond_atom_site_label_1
_geom_bond_atom_site_label_2
_geom_bond_distance
_geom_bond_site_symmetry_2
Na0 O41 2.589233 1_555
Na0 O40 2.594241 1_655
Na0 O47 2.628330 1_666
Na0 O45 2.642742 1_556
Na0 O39 2.646462 1_665
Na0 O46 2.696383 1_566
Na1 O54 2.545704 1_555
Na1 O56 2.554474 1_555
Na1 O55 2.605669 1_555
Na1 O48 2.696527 1_555
Na1 O49 2.708241 1_555
Na1 O50 2.754625 1_555
Na2 O52 2.540962 1_555
Na2 O51 2.605310 1_555
Na2 O53 2.605356 1_555
Na2 O57 2.686693 1_555
Na2 O59 2.687195 1_555
Na2 O58 2.731230 1_555
Nb0 O37 1.914855 1_545
Nb0 O2 1.946923 1_555
Nb0 O36 1.952202 1_645
Nb0 O38 2.020516 1_655
Nb0 O1 2.057138 1_545
Nb0 O0 2.105752 1_655
Nb1 O3 1.967357 1_555
Nb1 O40 1.971534 1_545
Nb1 O5 1.975092 1_455
Nb1 O41 1.986345 1_445
Nb1 O39 2.029806 1_555
Nb1 O4 2.081823 1_445
Nb2 O7 1.912137 1_655
Nb2 O6 1.915225 1_545
Nb2 O42 2.024410 1_555
Nb2 O8 2.042633 1_645
Nb2 O44 2.055934 1_545
Nb2 O43 2.069264 1_655
Nb3 O10 1.934675 1_555
Nb3 O47 1.943620 1_555
Nb3 O45 1.977010 1_445
Nb3 O11 2.030324 1_545
Nb3 O46 2.043688 1_455
Nb3 O9 2.084682 1_445
Nb4 O49 1.927081 1_555
Nb4 O48 1.932682 1_555
Nb4 O50 2.010509 1_555
Nb4 O13 2.026751 1_555
Nb4 O14 2.038793 1_555
Nb4 O12 2.067934 1_555
Nb5 O15 1.893707 1_555
Nb5 O17 1.931259 1_555
Nb5 O52 2.001995 1_555
Nb5 O16 2.017691 1_555
Nb5 O51 2.071892 1_555
Nb5 O53 2.129932 1_555
Nb6 O18 1.927557 1_556
Nb6 O19 1.951508 1_556
Nb6 O54 1.953171 1_555
Nb6 O56 1.985619 1_555
Nb6 O55 2.104860 1_555
Nb6 O20 2.106696 1_556
Nb7 O59 1.940335 1_555
Nb7 O57 1.943068 1_555
Nb7 O23 2.010949 1_555
Nb7 O22 2.024305 1_555
Nb7 O58 2.031611 1_555
Nb7 O21 2.056420 1_555
Nb8 O61 1.949171 1_555
Nb8 O60 1.959200 1_555
Nb8 O26 1.966931 1_554
Nb8 O24 1.986705 1_554
Nb8 O62 2.024549 1_555
Nb8 O25 2.084099 1_554
Nb9 O27 1.924495 1_555
Nb9 O29 1.927112 1_555
Nb9 O63 2.006485 1_555
Nb9 O64 2.042613 1_555
Nb9 O65 2.056300 1_555
Nb9 O28 2.062113 1_555
Nb10 O68 1.925937 1_555
Nb10 O30 1.956788 1_555
Nb10 O31 1.984593 1_555
Nb10 O66 1.985779 1_555
Nb10 O67 2.041141 1_555
Nb10 O32 2.116861 1_555
Nb11 O71 1.932472 1_555
Nb11 O35 1.937755 1_555
Nb11 O34 1.957907 1_555
Nb11 O69 1.964053 1_555
Nb11 O70 2.088143 1_555
Nb11 O33 2.125330 1_555
O0 P0 1.535492 1_555
O1 P1 1.550935 1_555
O2 Si0 1.631982 1_555
O3 Si1 1.622091 1_555
O4 P2 1.536998 1_655
O5 Si2 1.617055 1_555
O6 Si2 1.641933 1_565
O7 Si1 1.642978 1_555
O8 P2 1.552397 1_555
O9 P1 1.534933 1_555
O10 Si0 1.631921 1_455
O11 P0 1.548547 1_565
O12 P3 1.538605 1_555
O13 P4 1.549663 1_555
O14 P5 1.543576 1_555
O15 Si3 1.653771 1_555
O16 P6 1.557574 1_555
O17 Si4 1.635995 1_555
O18 Si4 1.639987 1_555
O19 Si3 1.626438 1_555
O20 P6 1.530374 1_555
O21 P4 1.547071 1_555
O22 P5 1.552888 1_555
O23 P3 1.559672 1_555
O24 Si5 1.618600 1_555
O25 P7 1.539685 1_555
O26 Si6 1.625748 1_555
O27 Si7 1.637253 1_555
O28 P8 1.545077 1_555
O29 Si8 1.636903 1_555
O30 Si8 1.626629 1_555
O31 Si7 1.613173 1_555
O32 P8 1.529659 1_555
O33 P7 1.535843 1_555
O34 Si6 1.630386 1_555
O35 Si5 1.638624 1_555
O36 Si8 1.614566 1_555
O37 Si7 1.626131 1_555
O38 P8 1.541527 1_555
O39 P7 1.567795 1_555
O40 Si6 1.640537 1_555
O41 Si5 1.633516 1_555
O42 P3 1.544220 1_555
O43 P4 1.530953 1_555
O44 P5 1.533957 1_555
O45 Si3 1.629965 1_555
O46 P6 1.555745 1_555
O47 Si4 1.643471 1_555
O48 Si2 1.649459 1_555
O49 Si1 1.655678 1_555
O50 P2 1.573179 1_655
O51 P1 1.560424 1_555
O52 Si0 1.634003 1_555
O53 P0 1.543090 1_555
O54 Si5 1.647754 1_555
O55 P7 1.548324 1_655
O56 Si6 1.636950 1_545
O57 Si7 1.647357 1_545
O58 P8 1.568105 1_555
O59 Si8 1.652929 1_655
O60 Si4 1.605647 1_555
O61 Si3 1.609491 1_455
O62 P6 1.532839 1_565
O63 P4 1.551539 1_565
O64 P5 1.540451 1_555
O65 P3 1.537433 1_455
O66 P0 1.555663 1_565
O67 P1 1.541995 1_555
O68 Si0 1.630334 1_455
O69 Si1 1.605801 1_555
O70 P2 1.520795 1_555
O71 Si2 1.615829 1_565
