# generated using pymatgen
data_MgScTl(MoO4)2
_symmetry_space_group_name_H-M   'P 1'
_cell_length_a   5.89524936
_cell_length_b   5.89524858
_cell_length_c   8.89126265
_cell_angle_alpha   90.00000000
_cell_angle_beta   90.00000000
_cell_angle_gamma   119.99999874
_symmetry_Int_Tables_number   1
_chemical_formula_structural   MgScTl(MoO4)2
_chemical_formula_sum   'Mg1 Sc1 Tl1 Mo2 O8'
_cell_volume   267.60756063
_cell_formula_units_Z   1
loop_
 _symmetry_equiv_pos_site_id
 _symmetry_equiv_pos_as_xyz
  1  'x, y, z'
loop_
 _atom_site_type_symbol
 _atom_site_label
 _atom_site_symmetry_multiplicity
 _atom_site_fract_x
 _atom_site_fract_y
 _atom_site_fract_z
 _atom_site_occupancy
  Mg  Mg0  1  -0.00000000  -0.00000000  0.27917467  1
  Sc  Sc0  1  -0.00000000  -0.00000000  0.99066079  1
  Tl  Tl0  1  -0.00000000  -0.00000000  0.60371033  1
  Mo  Mo0  1  0.66666700  0.33333300  0.22407659  1
  Mo  Mo1  1  0.33333300  0.66666700  0.76234985  1
  O  O0  1  0.84789713  0.15210287  0.14113161  1
  O  O1  1  0.84789713  0.69579426  0.14113161  1
  O  O2  1  0.30420574  0.15210287  0.14113161  1
  O  O3  1  0.67579277  0.83789638  0.82082559  1
  O  O4  1  0.33333300  0.66666700  0.56677412  1
  O  O5  1  0.66666700  0.33333300  0.42904906  1
  O  O6  1  0.16210362  0.83789638  0.82082559  1
  O  O7  1  0.16210362  0.32420723  0.82082559  1
loop_
_geom_bond_atom_site_label_1
_geom_bond_atom_site_label_2
_geom_bond_distance
_geom_bond_site_symmetry_2
Mg0 O1 1.979541 1_445
Mg0 O0 1.979541 1_455
Mg0 O2 1.979541 1_555
Mg0 Tl0 2.885532 1_555
Mo0 O5 1.822464 1_555
Mo0 O0 1.992059 1_555
Mo0 O1 1.992064 1_555
Mo0 O2 1.992064 1_555
Mo1 O4 1.738915 1_555
Mo1 O6 1.824069 1_555
Mo1 O7 1.824073 1_555
Mo1 O3 1.824074 1_555
O0 Sc0 2.049888 1_654
O1 Sc0 2.049888 1_664
O2 Sc0 2.049888 1_554
O3 Sc0 2.240536 1_665
O3 Tl0 2.542893 1_665
O6 Sc0 2.240536 1_565
O6 Tl0 2.542893 1_565
O7 Sc0 2.240535 1_555
O7 Tl0 2.542893 1_555
