# generated using pymatgen
data_Na4Zr2Ta2Si5SO24
_symmetry_space_group_name_H-M   'P 1'
_cell_length_a   9.02058654
_cell_length_b   9.04269629
_cell_length_c   22.93314449
_cell_angle_alpha   89.85871988
_cell_angle_beta   90.19876967
_cell_angle_gamma   119.86575922
_symmetry_Int_Tables_number   1
_chemical_formula_structural   Na4Zr2Ta2Si5SO24
_chemical_formula_sum   'Na12 Zr6 Ta6 Si15 S3 O72'
_cell_volume   1622.22119949
_cell_formula_units_Z   3
loop_
 _symmetry_equiv_pos_site_id
 _symmetry_equiv_pos_as_xyz
  1  'x, y, z'
loop_
 _atom_site_type_symbol
 _atom_site_label
 _atom_site_symmetry_multiplicity
 _atom_site_fract_x
 _atom_site_fract_y
 _atom_site_fract_z
 _atom_site_occupancy
  Na  Na0  1  0.64633673  0.00002711  0.25091529  1
  Na  Na1  1  0.99214758  0.35727744  0.74953404  1
  Na  Na2  1  0.29751088  0.33760467  0.58098281  1
  Na  Na3  1  0.66666736  0.96590828  0.57992920  1
  Na  Na4  1  0.02402645  0.33093678  0.08511109  1
  Na  Na5  1  0.95950388  0.66529376  0.91288886  1
  Na  Na6  1  0.99831278  0.00060281  0.49179231  1
  Na  Na7  1  0.97392640  0.99041857  0.00191803  1
  Na  Na8  1  0.64941196  0.33082937  0.83275020  1
  Na  Na9  1  0.65792776  0.34014897  0.33490270  1
  Na  Na10  1  0.32722866  0.67804502  0.16726513  1
  Na  Na11  1  0.32934934  0.67969958  0.66384263  1
  Zr  Zr0  1  0.00127107  0.00760284  0.35097700  1
  Zr  Zr1  1  0.99089163  0.00587987  0.85148775  1
  Zr  Zr2  1  0.99230584  0.98733972  0.15037755  1
  Zr  Zr3  1  0.68191620  0.34035481  0.97745319  1
  Zr  Zr4  1  0.34439419  0.67273879  0.02297889  1
  Zr  Zr5  1  0.33505557  0.66439905  0.52104092  1
  Ta  Ta0  1  0.99662232  0.99373532  0.64648496  1
  Ta  Ta1  1  0.66675466  0.33701506  0.68719314  1
  Ta  Ta2  1  0.67549156  0.33302958  0.18934063  1
  Ta  Ta3  1  0.65540002  0.32385843  0.47962457  1
  Ta  Ta4  1  0.34334781  0.66700423  0.31318166  1
  Ta  Ta5  1  0.33643499  0.65497037  0.80836372  1
  Si  Si0  1  0.29397313  -0.00005839  0.25096469  1
  Si  Si1  1  0.70872792  0.70164792  0.25202000  1
  Si  Si2  1  0.00992449  0.29996761  0.24755698  1
  Si  Si3  1  0.29068800  0.28227789  0.74878675  1
  Si  Si4  1  0.00154910  0.71099787  0.75179554  1
  Si  Si5  1  0.70218021  0.99756627  0.74694292  1
  Si  Si6  1  0.95216039  0.33276847  0.58458382  1
  Si  Si7  1  0.37630941  0.04669337  0.58516863  1
  Si  Si8  1  0.67585133  0.62182491  0.58209725  1
  Si  Si9  1  0.95902228  0.62845654  0.08301128  1
  Si  Si10  1  0.66715004  0.04256392  0.08483555  1
  Si  Si11  1  0.62365318  0.66487393  0.91589355  1
  Si  Si12  1  0.05109582  0.37763920  0.91713545  1
  Si  Si13  1  0.62740533  0.96037930  0.41823954  1
  Si  Si14  1  0.33509665  0.37372274  0.41862576  1
  S  S0  1  0.38012462  0.33108184  0.08389979  1
  S  S1  1  0.33397225  0.95140383  0.91418732  1
  S  S2  1  0.04010792  0.66085850  0.41672600  1
  O  O0  1  0.20942416  0.03412817  0.30725883  1
  O  O1  1  0.82582276  0.78551859  0.30845276  1
  O  O2  1  0.95626032  0.16608870  0.30145318  1
  O  O3  1  0.20468106  0.17026029  0.80583232  1
  O  O4  1  0.97126255  0.78738814  0.81092463  1
  O  O5  1  0.82973323  0.04422684  0.80251571  1
  O  O6  1  0.79624649  0.97072883  0.68951061  1
  O  O7  1  0.16561547  0.19849688  0.69136314  1
  O  O8  1  0.02443575  0.83717796  0.69581544  1
  O  O9  1  0.78203732  0.83013401  0.19594407  1
  O  O10  1  0.04019612  0.22391729  0.18779850  1
  O  O11  1  0.17502573  0.96559437  0.19376718  1
  O  O12  1  0.86106136  0.35244403  0.64301165  1
  O  O13  1  0.50263400  0.14633085  0.63973555  1
  O  O14  1  0.64680826  0.50056059  0.63854410  1
  O  O15  1  0.84519209  0.49874086  0.13683643  1
  O  O16  1  0.65048785  0.14139774  0.14276327  1
  O  O17  1  0.48152724  0.34705469  0.13638622  1
  O  O18  1  0.46193682  0.31728245  0.03051085  1
  O  O19  1  0.85065350  0.54268752  0.02233437  1
  O  O20  1  0.68446542  0.16176408  0.02834670  1
  O  O21  1  0.46582784  0.17007730  0.52708657  1
  O  O22  1  0.69715205  0.52577022  0.52558435  1
  O  O23  1  0.82463013  0.30052398  0.52877907  1
  O  O24  1  0.53307173  0.69216491  0.97277016  1
  O  O25  1  0.15422448  0.47424091  0.97599552  1
  O  O26  1  0.31216420  0.84999952  0.96771553  1
  O  O27  1  0.53098597  0.85301910  0.47697528  1
  O  O28  1  0.31292120  0.45963397  0.47829138  1
  O  O29  1  0.14174700  0.67944038  0.46993809  1
  O  O30  1  0.12575732  0.64237926  0.36458442  1
  O  O31  1  0.50571498  0.86351014  0.36079444  1
  O  O32  1  0.35163925  0.50062524  0.36377124  1
  O  O33  1  0.14780807  0.49997396  0.85889085  1
  O  O34  1  0.35364295  0.86703566  0.86197924  1
  O  O35  1  0.50506233  0.65649529  0.85871831  1
  O  O36  1  0.02002510  0.81115918  0.41272071  1
  O  O37  1  0.81350985  0.97715770  0.41341283  1
  O  O38  1  0.17364826  0.18358639  0.41250905  1
  O  O39  1  0.03180497  0.19035459  0.91298956  1
  O  O40  1  0.17611884  0.96193783  0.91020285  1
  O  O41  1  0.81934972  0.82426217  0.91193069  1
  O  O42  1  0.96443579  0.15604254  0.59112979  1
  O  O43  1  0.19306506  0.04120074  0.59248969  1
  O  O44  1  0.84098729  0.81373899  0.59036091  1
  O  O45  1  0.98225566  0.81710725  0.08743371  1
  O  O46  1  0.84794642  0.04290956  0.08748600  1
  O  O47  1  0.20661233  0.18254815  0.08742362  1
  O  O48  1  0.68895151  0.17004449  0.73908787  1
  O  O49  1  0.48336687  0.31649236  0.74008770  1
  O  O50  1  0.84094530  0.51732634  0.74010378  1
  O  O51  1  0.67483952  0.51044032  0.23891801  1
  O  O52  1  0.83421419  0.31639895  0.24070303  1
  O  O53  1  0.48979695  0.16242357  0.24023149  1
  O  O54  1  0.63369009  0.48920301  0.91636667  1
  O  O55  1  0.86288844  0.36858150  0.91630908  1
  O  O56  1  0.48505000  0.12271558  0.91886406  1
  O  O57  1  0.64268401  0.15123265  0.42461310  1
  O  O58  1  0.51667808  0.36916190  0.42321559  1
  O  O59  1  0.87020942  0.50247134  0.42161365  1
  O  O60  1  0.36172098  0.48695045  0.08167263  1
  O  O61  1  0.13820826  0.62312501  0.08261766  1
  O  O62  1  0.49752808  0.85435257  0.08327612  1
  O  O63  1  0.36575446  0.86374101  0.58086237  1
  O  O64  1  0.50503429  0.64208994  0.57964078  1
  O  O65  1  0.14516961  0.49333557  0.58093831  1
  O  O66  1  0.32719306  0.83712678  0.26103036  1
  O  O67  1  0.51835056  0.68627005  0.26134998  1
  O  O68  1  0.16737401  0.49016497  0.26219545  1
  O  O69  1  0.30130350  0.47186592  0.75615620  1
  O  O70  1  0.16875750  0.68280391  0.75659376  1
  O  O71  1  0.51418135  0.83014386  0.75634187  1
loop_
_geom_bond_atom_site_label_1
_geom_bond_atom_site_label_2
_geom_bond_distance
_geom_bond_site_symmetry_2
Na0 O67 2.485196 1_545
Na0 O53 2.504306 1_555
Na0 O52 2.506437 1_555
Na0 O66 2.508187 1_545
Na0 O2 2.686840 1_555
Na0 O9 2.709442 1_545
Na0 O16 2.779332 1_555
Na0 O31 2.816034 1_545
Na1 O48 2.406211 1_555
Na1 O50 2.442143 1_555
Na1 O69 2.448236 1_655
Na1 O70 2.561109 1_655
Na1 O12 2.701277 1_555
Na1 O5 2.738827 1_555
Na1 O33 2.848373 1_655
Na1 O7 2.924256 1_655
Na2 O43 2.371600 1_555
Na2 O65 2.408085 1_555
Na2 O64 2.439868 1_555
Na2 O28 2.572910 1_555
Na2 O42 2.620503 1_455
Na2 O7 2.814314 1_555
Na2 O21 2.905330 1_555
Na3 O42 2.373786 1_565
Na3 O63 2.392645 1_555
Na3 O64 2.539325 1_555
Na3 O44 2.563991 1_555
Na3 O27 2.619573 1_555
Na3 O6 2.759166 1_555
Na3 O23 2.874383 1_565
Na4 O46 2.277990 1_455
Na4 O61 2.309657 1_555
Na4 O10 2.574982 1_555
Na4 O47 2.591554 1_555
Na4 O60 2.645168 1_555
Na4 O25 2.794472 1_554
Na4 O20 2.955079 1_455
Na4 O15 2.961772 1_455
Na5 O41 2.339861 1_555
Na5 O55 2.373853 1_555
Na5 O40 2.407754 1_655
Na5 O54 2.553406 1_555
Na5 O4 2.563297 1_555
Na5 O19 2.722543 1_556
Na6 O37 2.384115 1_545
Na6 O38 2.438042 1_655
Na6 O36 2.571619 1_645
Na6 O44 2.755762 1_545
Na6 O42 2.776208 1_555
Na6 O43 2.808498 1_655
Na7 O46 2.434094 1_565
Na7 O41 2.523767 1_554
Na7 O45 2.531589 1_555
Na7 O39 2.598000 1_664
Na7 O47 2.761459 1_665
Na7 O40 2.883396 1_654
Na8 O54 2.442529 1_555
Na8 O49 2.561634 1_555
Na8 O55 2.611471 1_555
Na8 O56 2.619734 1_555
Na8 O48 2.718840 1_555
Na8 O50 2.729341 1_555
Na9 O58 2.479427 1_555
Na9 O57 2.630698 1_555
Na9 O59 2.639010 1_555
Na9 O51 2.644165 1_555
Na9 O53 2.676485 1_555
Na9 O52 2.758262 1_555
Na10 O61 2.461858 1_555
Na10 O62 2.485528 1_555
Na10 O66 2.590175 1_555
Na10 O68 2.696092 1_555
Na10 O67 2.735068 1_555
Na10 O60 2.737199 1_555
Na11 O63 2.437893 1_555
Na11 O65 2.533863 1_555
Na11 O70 2.585720 1_555
Na11 O71 2.619390 1_555
Na11 O64 2.630069 1_555
Na11 O69 2.754720 1_555
O0 Si0 1.608587 1_555
O0 Zr0 2.037566 1_555
O1 Si1 1.601035 1_555
O1 Zr0 2.079030 1_665
O2 Si2 1.625048 1_655
O2 Zr0 2.019144 1_655
O3 Si3 1.599146 1_555
O3 Zr1 2.043591 1_455
O4 Si4 1.608021 1_655
O4 Zr1 2.111826 1_565
O5 Si5 1.623308 1_545
O5 Zr1 1.995929 1_555
O6 Si5 1.651691 1_555
O6 Ta0 1.980107 1_555
O7 Si3 1.650585 1_555
O7 Ta0 1.999719 1_445
O8 Si4 1.659118 1_555
O8 Ta0 1.921167 1_455
O9 Si1 1.635341 1_555
O9 Zr2 2.007862 1_555
O10 Si2 1.618611 1_555
O10 Zr2 2.141438 1_445
O11 Si0 1.621323 1_565
O11 Zr2 2.013940 1_455
O12 Si6 1.629972 1_555
O12 Ta1 1.971376 1_555
O13 Si7 1.627701 1_555
O13 Ta1 1.950685 1_555
O14 Si8 1.629739 1_555
O14 Ta1 1.928656 1_555
O15 Si9 1.660131 1_555
O15 Ta2 1.938541 1_555
O16 Si10 1.651417 1_555
O16 Ta2 1.952660 1_555
O17 S0 1.472426 1_555
O17 Ta2 2.181222 1_555
O18 S0 1.469028 1_555
O18 Zr3 2.250527 1_554
O19 Si9 1.653551 1_555
O19 Zr3 1.987106 1_554
O20 Si10 1.640524 1_555
O20 Zr3 1.999576 1_554
O21 Si7 1.665527 1_555
O21 Ta3 1.918301 1_555
O22 Si8 1.626203 1_555
O22 Ta3 1.976938 1_555
O23 Si6 1.644330 1_555
O23 Ta3 1.988295 1_555
O24 Si11 1.624720 1_555
O24 Zr4 1.992049 1_556
O25 Si12 1.624298 1_555
O25 Zr4 2.062920 1_556
O26 S1 1.484227 1_555
O26 Zr4 2.170628 1_556
O27 Si13 1.635269 1_555
O27 Zr5 2.013886 1_555
O28 Si14 1.636384 1_555
O28 Zr5 2.017159 1_555
O29 S2 1.482510 1_555
O29 Zr5 2.157289 1_555
O30 S2 1.480097 1_555
O30 Ta4 2.207090 1_555
O31 Si13 1.657054 1_555
O31 Ta4 1.975205 1_555
O32 Si14 1.656890 1_555
O32 Ta4 1.928220 1_555
O33 Si12 1.675905 1_555
O33 Ta5 1.957765 1_555
O34 S1 1.479136 1_555
O34 Ta5 2.219716 1_555
O35 Si11 1.667161 1_555
O35 Ta5 1.901191 1_555
O36 S2 1.460465 1_555
O36 Zr0 2.339736 1_565
O37 Si13 1.612787 1_555
O37 Zr0 2.131935 1_665
O38 Si14 1.613308 1_555
O38 Zr0 2.114942 1_555
O39 Si12 1.616982 1_555
O39 Zr1 2.074387 1_455
O40 S1 1.476192 1_555
O40 Zr1 2.325028 1_465
O41 Si11 1.633510 1_555
O41 Zr1 2.117951 1_565
O42 Si6 1.662406 1_555
O42 Ta0 2.064614 1_545
O43 Si7 1.638013 1_555
O43 Ta0 2.027995 1_445
O44 Si8 1.640614 1_555
O44 Ta0 1.999713 1_555
O45 Si9 1.615233 1_555
O45 Zr2 2.081491 1_555
O46 Si10 1.630258 1_555
O46 Zr2 2.159532 1_545
O47 S0 1.472066 1_555
O47 Zr2 2.354926 1_445
O48 Si5 1.631895 1_545
O48 Ta1 2.006668 1_555
O49 Si3 1.619559 1_555
O49 Ta1 1.987349 1_555
O50 Si4 1.646379 1_655
O50 Ta1 2.011169 1_555
O51 Si1 1.627514 1_555
O51 Ta2 1.971002 1_555
O52 Si2 1.670852 1_655
O52 Ta2 1.913610 1_555
O53 Si0 1.660140 1_555
O53 Ta2 1.994740 1_555
O54 Si11 1.635518 1_555
O54 Zr3 2.129110 1_555
O55 Si12 1.658519 1_655
O55 Zr3 2.072558 1_555
O56 S1 1.471648 1_545
O56 Zr3 2.312557 1_555
O57 Si13 1.668250 1_545
O57 Ta3 1.967705 1_555
O58 Si14 1.661864 1_555
O58 Ta3 1.975832 1_555
O59 S2 1.492308 1_655
O59 Ta3 2.241341 1_555
O60 S0 1.499802 1_555
O60 Zr4 2.215317 1_555
O61 Si9 1.640959 1_455
O61 Zr4 2.171351 1_555
O62 Si10 1.626476 1_565
O62 Zr4 2.062998 1_555
O63 Si7 1.612347 1_565
O63 Zr5 2.172675 1_555
O64 Si8 1.640610 1_555
O64 Zr5 2.119002 1_555
O65 Si6 1.621477 1_455
O65 Zr5 2.140246 1_555
O66 Si0 1.657694 1_565
O66 Ta4 2.007783 1_555
O67 Si1 1.666991 1_555
O67 Ta4 1.916620 1_555
O68 Si2 1.629316 1_555
O68 Ta4 1.977975 1_555
O69 Si3 1.677698 1_555
O69 Ta5 1.939073 1_555
O70 Si4 1.653428 1_555
O70 Ta5 2.031237 1_555
O71 Si5 1.630445 1_555
O71 Ta5 1.994433 1_555
