# generated using pymatgen
data_MgMn6O7F5
_symmetry_space_group_name_H-M   'P 1'
_cell_length_a   5.31120060
_cell_length_b   7.70207053
_cell_length_c   5.82014242
_cell_angle_alpha   97.37276414
_cell_angle_beta   100.34714045
_cell_angle_gamma   82.93964847
_symmetry_Int_Tables_number   1
_chemical_formula_structural   MgMn6O7F5
_chemical_formula_sum   'Mg1 Mn6 O7 F5'
_cell_volume   231.05756352
_cell_formula_units_Z   1
loop_
 _symmetry_equiv_pos_site_id
 _symmetry_equiv_pos_as_xyz
  1  'x, y, z'
loop_
 _atom_site_type_symbol
 _atom_site_label
 _atom_site_symmetry_multiplicity
 _atom_site_fract_x
 _atom_site_fract_y
 _atom_site_fract_z
 _atom_site_occupancy
  Mg  Mg0  1  0.01058600  0.83685800  0.34994300  1
  Mn  Mn0  1  0.51702500  0.01834200  0.46954400  1
  Mn  Mn1  1  0.51097300  0.65778900  0.16554300  1
  Mn  Mn2  1  0.49568500  0.32762700  0.83803800  1
  Mn  Mn3  1  0.96061600  0.63751200  0.71915800  1
  Mn  Mn4  1  0.99598100  0.32305400  0.33011200  1
  Mn  Mn5  1  0.00837900  0.02026200  0.97166600  1
  O  O0  1  0.86595700  0.09083500  0.25739700  1
  O  O1  1  0.69702000  0.10124100  0.77570600  1
  O  O2  1  0.69787000  0.77852800  0.46232500  1
  O  O3  1  0.71208000  0.43032100  0.12085200  1
  O  O4  1  0.30915600  0.55745400  0.88793200  1
  O  O5  1  0.30442000  0.23610200  0.52827200  1
  O  O6  1  0.29774600  0.89149500  0.19663600  1
  F  F0  1  0.79226900  0.41492900  0.61452800  1
  F  F1  1  0.82348000  0.76919500  0.01358900  1
  F  F2  1  0.13838200  0.57587600  0.38686700  1
  F  F3  1  0.20983500  0.23806900  0.03119500  1
  F  F4  1  0.15254100  0.89450800  0.69319600  1
loop_
_geom_bond_atom_site_label_1
_geom_bond_atom_site_label_2
_geom_bond_distance
_geom_bond_site_symmetry_2
Mg0 O2 2.009311 1_455
Mg0 O6 2.010560 1_555
Mg0 O0 2.111658 1_465
Mn0 O5 1.931541 1_555
Mn0 O1 1.934659 1_555
Mn0 O2 1.973431 1_545
Mn0 O6 2.012635 1_545
Mn0 O0 2.554237 1_555
Mn1 O4 1.902049 1_554
Mn1 O3 1.949557 1_555
Mn1 O2 2.008107 1_555
Mn1 O6 2.011032 1_555
Mn2 O4 1.933785 1_555
Mn2 O1 1.958064 1_555
Mn2 O3 1.966132 1_556
Mn2 O5 1.992792 1_555
Mn3 O4 1.998389 1_655
Mn3 O2 2.157832 1_555
Mn4 O5 1.926689 1_655
Mn4 O3 1.931797 1_555
Mn4 O0 1.964527 1_555
Mn5 O1 1.917282 1_455
Mn5 O0 1.937011 1_456
Mn5 O6 2.072619 1_546
F0 Mn3 2.005637 1_555
F0 Mn4 2.136832 1_555
F0 Mn2 2.417984 1_555
F1 Mg0 2.063516 1_655
F1 Mn3 2.077594 1_554
F1 Mn1 2.312030 1_555
F1 Mn5 2.331794 1_664
F2 Mg0 2.066510 1_555
F2 Mn4 2.140127 1_455
F2 Mn3 2.273144 1_455
F2 Mn1 2.721137 1_555
F3 Mn5 2.058645 1_554
F3 Mn4 2.231601 1_455
F3 Mn2 2.261449 1_554
F4 Mn5 2.002934 1_565
F4 Mg0 2.017496 1_555
F4 Mn3 2.368131 1_455
