# generated using pymatgen
data_LiSn(PO3)3
_symmetry_space_group_name_H-M   'P 1'
_cell_length_a   6.62331521
_cell_length_b   6.62331521
_cell_length_c   10.01616700
_cell_angle_alpha   90.00000000
_cell_angle_beta   90.00000000
_cell_angle_gamma   119.99999210
_symmetry_Int_Tables_number   1
_chemical_formula_structural   LiSn(PO3)3
_chemical_formula_sum   'Li2 Sn2 P6 O18'
_cell_volume   380.52489181
_cell_formula_units_Z   2
loop_
 _symmetry_equiv_pos_site_id
 _symmetry_equiv_pos_as_xyz
  1  'x, y, z'
loop_
 _atom_site_type_symbol
 _atom_site_label
 _atom_site_symmetry_multiplicity
 _atom_site_fract_x
 _atom_site_fract_y
 _atom_site_fract_z
 _atom_site_occupancy
  Li  Li0  1  0.00000000  0.00000000  0.00000000  1
  Li  Li1  1  0.00000000  0.00000000  0.50000000  1
  Sn  Sn0  1  0.66666700  0.33333300  0.00000000  1
  Sn  Sn1  1  0.66666700  0.33333300  0.50000000  1
  P  P0  1  0.60559000  0.91464700  0.75000000  1
  P  P1  1  0.60559000  0.69094200  0.25000000  1
  P  P2  1  0.08535300  0.39441000  0.25000000  1
  P  P3  1  0.30905800  0.39441000  0.75000000  1
  P  P4  1  0.08535300  0.69094200  0.75000000  1
  P  P5  1  0.30905800  0.91464700  0.25000000  1
  O  O0  1  0.35282300  0.45732900  0.25000000  1
  O  O1  1  0.54267100  0.64717700  0.75000000  1
  O  O2  1  0.35282300  0.89549400  0.75000000  1
  O  O3  1  0.54267100  0.89549400  0.25000000  1
  O  O4  1  0.72423700  0.02709900  0.62049500  1
  O  O5  1  0.72423700  0.02709900  0.87950500  1
  O  O6  1  0.10450600  0.64717700  0.25000000  1
  O  O7  1  0.97290100  0.27576300  0.37950500  1
  O  O8  1  0.97290100  0.27576300  0.12049500  1
  O  O9  1  0.72423700  0.69713800  0.12049500  1
  O  O10  1  0.72423700  0.69713800  0.37950500  1
  O  O11  1  0.10450600  0.45732900  0.75000000  1
  O  O12  1  0.97290100  0.69713800  0.87950500  1
  O  O13  1  0.97290100  0.69713800  0.62049500  1
  O  O14  1  0.30286200  0.27576300  0.62049500  1
  O  O15  1  0.30286200  0.27576300  0.87950500  1
  O  O16  1  0.30286200  0.02709900  0.37950500  1
  O  O17  1  0.30286200  0.02709900  0.12049500  1
loop_
_geom_bond_atom_site_label_1
_geom_bond_atom_site_label_2
_geom_bond_distance
_geom_bond_site_symmetry_2
Li0 O5 2.269938 1_454
Li0 O8 2.269938 1_455
Li0 O17 2.269938 1_555
Li0 O12 2.269938 1_444
Li0 O15 2.269938 1_554
Li0 O9 2.269938 1_445
Li1 O4 2.269938 1_455
Li1 O7 2.269938 1_455
Li1 O16 2.269938 1_555
Li1 O13 2.269938 1_445
Li1 O14 2.269938 1_555
Li1 O10 2.269938 1_445
O0 P2 1.604293 1_555
O0 P1 1.614467 1_555
O1 P0 1.604293 1_555
O1 P3 1.614467 1_555
O2 P4 1.604295 1_555
O2 P0 1.614470 1_555
O3 P1 1.604299 1_555
O3 P5 1.614463 1_555
O4 P0 1.506506 1_545
O4 Sn1 2.547416 1_555
O5 P0 1.506506 1_545
O5 Sn0 2.547416 1_556
O6 P5 1.604295 1_555
O6 P2 1.614470 1_555
O7 P2 1.506506 1_655
O7 Sn1 2.547416 1_555
O8 P2 1.506506 1_655
O8 Sn0 2.547416 1_555
O9 P1 1.506504 1_555
O9 Sn0 2.547421 1_555
O10 P1 1.506504 1_555
O10 Sn1 2.547421 1_555
O11 P3 1.604299 1_555
O11 P4 1.614463 1_555
O12 P4 1.506508 1_655
O12 Sn0 2.547420 1_556
O13 P4 1.506508 1_655
O13 Sn1 2.547420 1_555
O14 P3 1.506504 1_555
O14 Sn1 2.547421 1_555
O15 P3 1.506504 1_555
O15 Sn0 2.547421 1_556
O16 P5 1.506508 1_545
O16 Sn1 2.547420 1_555
O17 P5 1.506508 1_545
O17 Sn0 2.547420 1_555
