# generated using pymatgen
data_Na2ZrNbSi2PO12
_symmetry_space_group_name_H-M   'P 1'
_cell_length_a   9.04306918
_cell_length_b   9.04306887
_cell_length_c   23.02105434
_cell_angle_alpha   90.08605292
_cell_angle_beta   89.91394709
_cell_angle_gamma   119.70299720
_symmetry_Int_Tables_number   1
_chemical_formula_structural   Na2ZrNbSi2PO12
_chemical_formula_sum   'Na12 Zr6 Nb6 Si12 P6 O72'
_cell_volume   1635.23008632
_cell_formula_units_Z   6
loop_
 _symmetry_equiv_pos_site_id
 _symmetry_equiv_pos_as_xyz
  1  'x, y, z'
loop_
 _atom_site_type_symbol
 _atom_site_label
 _atom_site_symmetry_multiplicity
 _atom_site_fract_x
 _atom_site_fract_y
 _atom_site_fract_z
 _atom_site_occupancy
  Na  Na0  1  0.99398639  0.63003370  0.25057496  1
  Na  Na1  1  0.36996630  0.00601361  0.75057496  1
  Na  Na2  1  0.66065339  0.96336670  0.58390796  1
  Na  Na3  1  0.03663330  0.33934661  0.08390796  1
  Na  Na4  1  0.32731939  0.29670070  0.91724196  1
  Na  Na5  1  0.70329930  0.67268061  0.41724196  1
  Na  Na6  1  0.01435450  0.00328925  0.49870221  1
  Na  Na7  1  0.99671075  0.98564550  0.99870221  1
  Na  Na8  1  0.68102150  0.33662225  0.83203521  1
  Na  Na9  1  0.66337775  0.31897850  0.33203521  1
  Na  Na10  1  0.34768750  0.66995625  0.16536921  1
  Na  Na11  1  0.33004375  0.65231250  0.66536921  1
  Zr  Zr0  1  0.99735625  0.00273747  0.35338258  1
  Zr  Zr1  1  0.99726253  0.00264375  0.85338258  1
  Zr  Zr2  1  0.66402325  0.33607047  0.68671558  1
  Zr  Zr3  1  0.66392953  0.33597675  0.18671558  1
  Zr  Zr4  1  0.33068925  0.66940447  0.02004958  1
  Zr  Zr5  1  0.33059553  0.66931075  0.52004958  1
  Nb  Nb0  1  0.00074555  0.99931555  0.64657595  1
  Nb  Nb1  1  0.00068445  0.99925445  0.14657595  1
  Nb  Nb2  1  0.66741255  0.33264855  0.97990895  1
  Nb  Nb3  1  0.66735145  0.33258745  0.47990895  1
  Nb  Nb4  1  0.33407855  0.66598255  0.31324295  1
  Nb  Nb5  1  0.33401745  0.66592145  0.81324295  1
  Si  Si0  1  0.70722877  0.71249247  0.25088209  1
  Si  Si1  1  0.00200079  0.29224979  0.24944957  1
  Si  Si2  1  0.28750753  0.29277123  0.75088209  1
  Si  Si3  1  0.70775021  0.99799921  0.74944957  1
  Si  Si4  1  0.37389577  0.04582547  0.58421509  1
  Si  Si5  1  0.66866779  0.62558279  0.58278257  1
  Si  Si6  1  0.95417453  0.62610423  0.08421509  1
  Si  Si7  1  0.37441721  0.33133221  0.08278257  1
  Si  Si8  1  0.04056177  0.37915947  0.91754909  1
  Si  Si9  1  0.33533379  0.95891679  0.91611657  1
  Si  Si10  1  0.62084053  0.95943823  0.41754909  1
  Si  Si11  1  0.04108321  0.66466621  0.41611657  1
  P  P0  1  0.28878637  -0.00148715  0.25039540  1
  P  P1  1  0.00148715  0.71121363  0.75039540  1
  P  P2  1  0.95545337  0.33184585  0.58372840  1
  P  P3  1  0.66815415  0.04454663  0.08372840  1
  P  P4  1  0.62211937  0.66517985  0.91706240  1
  P  P5  1  0.33482015  0.37788063  0.41706240  1
  O  O0  1  0.20635194  0.02337358  0.30439472  1
  O  O1  1  0.82584231  0.79276401  0.30806594  1
  O  O2  1  0.97767110  0.17618653  0.30530529  1
  O  O3  1  0.20723599  0.17415769  0.80806594  1
  O  O4  1  0.97662642  0.79364806  0.80439472  1
  O  O5  1  0.82381347  0.02232890  0.80530529  1
  O  O6  1  0.80025984  0.97101005  0.69075163  1
  O  O7  1  0.16308641  0.19035795  0.69418077  1
  O  O8  1  0.03090517  0.82887363  0.69595296  1
  O  O9  1  0.80964205  0.83691359  0.19418077  1
  O  O10  1  0.02898995  0.19974016  0.19075163  1
  O  O11  1  0.17112637  0.96909483  0.19595296  1
  O  O12  1  0.87301894  0.35670658  0.63772772  1
  O  O13  1  0.49250931  0.12609701  0.64139894  1
  O  O14  1  0.64433810  0.50951953  0.63863829  1
  O  O15  1  0.87390299  0.50749069  0.14139894  1
  O  O16  1  0.64329342  0.12698106  0.13772772  1
  O  O17  1  0.49048047  0.35566190  0.13863829  1
  O  O18  1  0.46692684  0.30434305  0.02408463  1
  O  O19  1  0.82975341  0.52369095  0.02751377  1
  O  O20  1  0.69757217  0.16220663  0.02928596  1
  O  O21  1  0.47630905  0.17024659  0.52751377  1
  O  O22  1  0.69565695  0.53307316  0.52408463  1
  O  O23  1  0.83779337  0.30242783  0.52928596  1
  O  O24  1  0.53968494  0.69004058  0.97106172  1
  O  O25  1  0.15917531  0.45943101  0.97473294  1
  O  O26  1  0.31100410  0.84285353  0.97197229  1
  O  O27  1  0.54056899  0.84082469  0.47473294  1
  O  O28  1  0.30995942  0.46031506  0.47106172  1
  O  O29  1  0.15714647  0.68899590  0.47197229  1
  O  O30  1  0.13359284  0.63767705  0.35741863  1
  O  O31  1  0.49641941  0.85702495  0.36084777  1
  O  O32  1  0.36423817  0.49554063  0.36261996  1
  O  O33  1  0.14297505  0.50358059  0.86084777  1
  O  O34  1  0.36232295  0.86640716  0.85741863  1
  O  O35  1  0.50445937  0.63576183  0.86261996  1
  O  O36  1  0.01131470  0.82701457  0.41127355  1
  O  O37  1  0.80706322  0.97432434  0.41039882  1
  O  O38  1  0.18292919  0.19970101  0.41011661  1
  O  O39  1  0.02567566  0.19293678  0.91039882  1
  O  O40  1  0.17298543  0.98868530  0.91127355  1
  O  O41  1  0.80029899  0.81707081  0.91011661  1
  O  O42  1  0.96246507  0.16245017  0.58858735  1
  O  O43  1  0.18505004  0.02869051  0.59070433  1
  O  O44  1  0.83934615  0.81806631  0.59030526  1
  O  O45  1  0.97130949  0.81494996  0.09070433  1
  O  O46  1  0.83754983  0.03753493  0.08858735  1
  O  O47  1  0.18193369  0.16065385  0.09030526  1
  O  O48  1  0.67798170  0.16034757  0.74460655  1
  O  O49  1  0.47373022  0.30765734  0.74373182  1
  O  O50  1  0.84959619  0.53303401  0.74344961  1
  O  O51  1  0.69234266  0.52626978  0.24373182  1
  O  O52  1  0.83965243  0.32201830  0.24460655  1
  O  O53  1  0.46696599  0.15040381  0.24344961  1
  O  O54  1  0.62913207  0.49578317  0.92192035  1
  O  O55  1  0.85171704  0.36202351  0.92403733  1
  O  O56  1  0.50601315  0.15139931  0.92363826  1
  O  O57  1  0.63797649  0.14828296  0.42403733  1
  O  O58  1  0.50421683  0.37086793  0.42192035  1
  O  O59  1  0.84860069  0.49398685  0.42363826  1
  O  O60  1  0.34464770  0.49368157  0.07794055  1
  O  O61  1  0.14039622  0.64099134  0.07706582  1
  O  O62  1  0.51626219  0.86636801  0.07678361  1
  O  O63  1  0.35900866  0.85960378  0.57706582  1
  O  O64  1  0.50631843  0.65535230  0.57794055  1
  O  O65  1  0.13363199  0.48373781  0.57678361  1
  O  O66  1  0.29579807  0.82911717  0.25525435  1
  O  O67  1  0.51838304  0.69535751  0.25737133  1
  O  O68  1  0.17267915  0.48473331  0.25697226  1
  O  O69  1  0.30464249  0.48161696  0.75737133  1
  O  O70  1  0.17088283  0.70420193  0.75525435  1
  O  O71  1  0.51526669  0.82732085  0.75697226  1
loop_
_geom_bond_atom_site_label_1
_geom_bond_atom_site_label_2
_geom_bond_distance
_geom_bond_site_symmetry_2
Na0 O51 2.410473 1_555
Na0 O66 2.415103 1_655
Na0 O52 2.423247 1_555
Na0 O68 2.542615 1_655
Na0 O15 2.744347 1_555
Na0 O30 2.751517 1_655
Na0 O1 2.904278 1_555
Na0 O11 2.947303 1_655
Na1 O49 2.410473 1_555
Na1 O70 2.415103 1_545
Na1 O48 2.423247 1_555
Na1 O71 2.542615 1_545
Na1 O13 2.744347 1_555
Na1 O34 2.751517 1_545
Na1 O3 2.904278 1_555
Na1 O8 2.947303 1_545
Na2 O63 2.410481 1_555
Na2 O42 2.415103 1_565
Na2 O64 2.423238 1_555
Na2 O44 2.542615 1_555
Na2 O27 2.744326 1_555
Na2 O6 2.751517 1_555
Na2 O13 2.904278 1_565
Na2 O23 2.947303 1_565
Na3 O61 2.410481 1_555
Na3 O46 2.415103 1_455
Na3 O60 2.423238 1_555
Na3 O47 2.542615 1_555
Na3 O25 2.744326 1_554
Na3 O10 2.751517 1_555
Na3 O15 2.904278 1_455
Na3 O20 2.947303 1_455
Na4 O39 2.410473 1_555
Na4 O54 2.415107 1_555
Na4 O40 2.423247 1_545
Na4 O56 2.542629 1_555
Na4 O3 2.744347 1_555
Na4 O18 2.751503 1_556
Na4 O25 2.904278 1_555
Na4 O35 2.947303 1_555
Na5 O37 2.410473 1_555
Na5 O58 2.415107 1_555
Na5 O36 2.423247 1_655
Na5 O59 2.542629 1_555
Na5 O1 2.744347 1_555
Na5 O22 2.751503 1_555
Na5 O27 2.904278 1_555
Na5 O32 2.947303 1_555
Na6 O36 2.557315 1_545
Na6 O43 2.564827 1_555
Na6 O38 2.637382 1_555
Na6 O44 2.670363 1_445
Na6 O42 2.689056 1_455
Na6 O37 2.690396 1_445
Na7 O40 2.557315 1_655
Na7 O45 2.564827 1_556
Na7 O41 2.637382 1_555
Na7 O47 2.670363 1_666
Na7 O46 2.689056 1_566
Na7 O39 2.690396 1_665
Na8 O48 2.557315 1_555
Na8 O55 2.564827 1_555
Na8 O50 2.637382 1_555
Na8 O56 2.670363 1_555
Na8 O54 2.689056 1_555
Na8 O49 2.690396 1_555
Na9 O52 2.557315 1_555
Na9 O57 2.564827 1_555
Na9 O53 2.637382 1_555
Na9 O59 2.670363 1_555
Na9 O58 2.689056 1_555
Na9 O51 2.690396 1_555
Na10 O60 2.557315 1_555
Na10 O67 2.564827 1_555
Na10 O62 2.637382 1_555
Na10 O68 2.670363 1_555
Na10 O66 2.689056 1_555
Na10 O61 2.690396 1_555
Na11 O64 2.557315 1_555
Na11 O69 2.564827 1_555
Na11 O65 2.637382 1_555
Na11 O71 2.670363 1_555
Na11 O70 2.689056 1_555
Na11 O63 2.690396 1_555
Nb0 O7 1.956164 1_565
Nb0 O6 1.980425 1_455
Nb0 O43 2.014593 1_565
Nb0 O44 2.030613 1_455
Nb0 O8 2.040819 1_555
Nb0 O42 2.142820 1_465
Nb1 O9 1.956164 1_455
Nb1 O10 1.980425 1_565
Nb1 O45 2.014593 1_455
Nb1 O47 2.030613 1_565
Nb1 O11 2.040819 1_555
Nb1 O46 2.142820 1_465
Nb2 O19 1.956164 1_556
Nb2 O18 1.980425 1_556
Nb2 O55 2.014593 1_555
Nb2 O56 2.030613 1_555
Nb2 O20 2.040819 1_556
Nb2 O54 2.142820 1_555
Nb3 O21 1.956164 1_555
Nb3 O22 1.980425 1_555
Nb3 O57 2.014593 1_555
Nb3 O59 2.030613 1_555
Nb3 O23 2.040819 1_555
Nb3 O58 2.142820 1_555
Nb4 O31 1.956164 1_555
Nb4 O30 1.980425 1_555
Nb4 O67 2.014593 1_555
Nb4 O68 2.030613 1_555
Nb4 O32 2.040819 1_555
Nb4 O66 2.142820 1_555
Nb5 O33 1.956164 1_555
Nb5 O34 1.980425 1_555
Nb5 O69 2.014593 1_555
Nb5 O71 2.030613 1_555
Nb5 O35 2.040819 1_555
Nb5 O70 2.142820 1_555
O0 P0 1.521206 1_555
O0 Zr0 2.126809 1_455
O1 Si0 1.624873 1_555
O1 Zr0 2.044447 1_565
O2 Si1 1.605549 1_655
O2 Zr0 1.999854 1_555
O3 Si2 1.624873 1_555
O3 Zr1 2.044447 1_455
O4 P1 1.521206 1_655
O4 Zr1 2.126809 1_565
O5 Si3 1.605550 1_545
O5 Zr1 1.999854 1_555
O6 Si3 1.668339 1_555
O7 Si2 1.672024 1_555
O8 P1 1.579934 1_555
O9 Si0 1.672024 1_555
O10 Si1 1.668339 1_555
O11 P0 1.579934 1_565
O12 P2 1.521206 1_555
O12 Zr2 2.126809 1_555
O13 Si4 1.624873 1_555
O13 Zr2 2.044447 1_555
O14 Si5 1.605549 1_555
O14 Zr2 1.999854 1_555
O15 Si6 1.624873 1_555
O15 Zr3 2.044447 1_555
O16 P3 1.521206 1_555
O16 Zr3 2.126809 1_555
O17 Si7 1.605550 1_555
O17 Zr3 1.999854 1_555
O18 Si7 1.668339 1_555
O19 Si6 1.672024 1_555
O20 P3 1.579934 1_555
O21 Si4 1.672024 1_555
O22 Si5 1.668339 1_555
O23 P2 1.579934 1_555
O24 P4 1.521206 1_555
O24 Zr4 2.126809 1_556
O25 Si8 1.624873 1_555
O25 Zr4 2.044447 1_556
O26 Si9 1.605549 1_555
O26 Zr4 1.999854 1_556
O27 Si10 1.624873 1_555
O27 Zr5 2.044447 1_555
O28 P5 1.521206 1_555
O28 Zr5 2.126809 1_555
O29 Si11 1.605550 1_555
O29 Zr5 1.999854 1_555
O30 Si11 1.668339 1_555
O31 Si10 1.672024 1_555
O32 P5 1.579934 1_555
O33 Si8 1.672024 1_555
O34 Si9 1.668339 1_555
O35 P4 1.579934 1_555
O36 Si11 1.622511 1_555
O36 Zr0 2.126701 1_465
O37 Si10 1.629641 1_555
O37 Zr0 2.075135 1_565
O38 P5 1.521537 1_555
O38 Zr0 2.175308 1_455
O39 Si8 1.629641 1_555
O39 Zr1 2.075135 1_455
O40 Si9 1.622511 1_555
O40 Zr1 2.126701 1_465
O41 P4 1.521537 1_555
O41 Zr1 2.175308 1_565
O42 P2 1.568411 1_555
O43 Si4 1.643102 1_555
O44 Si5 1.667193 1_555
O45 Si6 1.643102 1_555
O46 P3 1.568411 1_555
O47 Si7 1.667193 1_555
O48 Si3 1.622511 1_545
O48 Zr2 2.126701 1_555
O49 Si2 1.629641 1_555
O49 Zr2 2.075135 1_555
O50 P1 1.521537 1_655
O50 Zr2 2.175308 1_555
O51 Si0 1.629641 1_555
O51 Zr3 2.075135 1_555
O52 Si1 1.622511 1_655
O52 Zr3 2.126701 1_555
O53 P0 1.521537 1_555
O53 Zr3 2.175308 1_555
O54 P4 1.568423 1_555
O55 Si8 1.643087 1_655
O56 Si9 1.667189 1_545
O57 Si10 1.643087 1_545
O58 P5 1.568423 1_555
O59 Si11 1.667189 1_655
O60 Si7 1.622524 1_555
O60 Zr4 2.126701 1_555
O61 Si6 1.629626 1_455
O61 Zr4 2.075135 1_555
O62 P3 1.521533 1_565
O62 Zr4 2.175308 1_555
O63 Si4 1.629626 1_565
O63 Zr5 2.075135 1_555
O64 Si5 1.622524 1_555
O64 Zr5 2.126701 1_555
O65 P2 1.521533 1_455
O65 Zr5 2.175308 1_555
O66 P0 1.568411 1_565
O67 Si0 1.643102 1_555
O68 Si1 1.667193 1_555
O69 Si2 1.643102 1_555
O70 P1 1.568411 1_555
O71 Si3 1.667193 1_555
