# generated using pymatgen
data_AlVMoO7
_symmetry_space_group_name_H-M   'P 1'
_cell_length_a   5.45149900
_cell_length_b   8.30497500
_cell_length_c   12.96197200
_cell_angle_alpha   90.00000000
_cell_angle_beta   90.00000000
_cell_angle_gamma   90.00000000
_symmetry_Int_Tables_number   1
_chemical_formula_structural   AlVMoO7
_chemical_formula_sum   'Al4 V4 Mo4 O28'
_cell_volume   586.84761672
_cell_formula_units_Z   4
loop_
 _symmetry_equiv_pos_site_id
 _symmetry_equiv_pos_as_xyz
  1  'x, y, z'
loop_
 _atom_site_type_symbol
 _atom_site_label
 _atom_site_symmetry_multiplicity
 _atom_site_fract_x
 _atom_site_fract_y
 _atom_site_fract_z
 _atom_site_occupancy
  Al  Al0  1  0.75000000  0.23400500  0.11227700  1
  Al  Al1  1  0.25000000  0.76599500  0.88772300  1
  Al  Al2  1  0.25000000  0.73400500  0.38772300  1
  Al  Al3  1  0.75000000  0.26599500  0.61227700  1
  V  V0  1  0.25000000  0.43251400  0.98544200  1
  V  V1  1  0.75000000  0.56748600  0.01455800  1
  V  V2  1  0.75000000  0.93251400  0.51455800  1
  V  V3  1  0.25000000  0.06748600  0.48544200  1
  Mo  Mo0  1  0.75000000  0.04501000  0.85509400  1
  Mo  Mo1  1  0.25000000  0.95499000  0.14490600  1
  Mo  Mo2  1  0.25000000  0.54501000  0.64490600  1
  Mo  Mo3  1  0.75000000  0.45499000  0.35509400  1
  O  O0  1  0.25000000  0.28382300  0.90523800  1
  O  O1  1  0.75000000  0.71617700  0.09476200  1
  O  O2  1  0.75000000  0.78382300  0.59476200  1
  O  O3  1  0.25000000  0.21617700  0.40523800  1
  O  O4  1  0.02225000  0.59887700  0.93056600  1
  O  O5  1  0.52225000  0.40112300  0.06943400  1
  O  O6  1  0.97775000  0.09887700  0.56943400  1
  O  O7  1  0.47775000  0.90112300  0.43056600  1
  O  O8  1  0.97775000  0.40112300  0.06943400  1
  O  O9  1  0.47775000  0.59887700  0.93056600  1
  O  O10  1  0.02225000  0.90112300  0.43056600  1
  O  O11  1  0.52225000  0.09887700  0.56943400  1
  O  O12  1  0.49111800  0.58589400  0.35132900  1
  O  O13  1  0.99111800  0.41410600  0.64867100  1
  O  O14  1  0.50888200  0.08589400  0.14867100  1
  O  O15  1  0.00888200  0.91410600  0.85132900  1
  O  O16  1  0.50888200  0.41410600  0.64867100  1
  O  O17  1  0.00888200  0.58589400  0.35132900  1
  O  O18  1  0.49111800  0.91410600  0.85132900  1
  O  O19  1  0.99111800  0.08589400  0.14867100  1
  O  O20  1  0.75000000  0.34438800  0.47350800  1
  O  O21  1  0.25000000  0.65561200  0.52649200  1
  O  O22  1  0.25000000  0.84438800  0.02649200  1
  O  O23  1  0.75000000  0.15561200  0.97350800  1
  O  O24  1  0.75000000  0.32226000  0.24611900  1
  O  O25  1  0.25000000  0.67774000  0.75388100  1
  O  O26  1  0.25000000  0.82226000  0.25388100  1
  O  O27  1  0.75000000  0.17774000  0.74611900  1
loop_
_geom_bond_atom_site_label_1
_geom_bond_atom_site_label_2
_geom_bond_distance
_geom_bond_site_symmetry_2
Al0 O14 1.861013 1_555
Al0 O19 1.861013 1_555
Al0 O24 1.883335 1_555
Al0 O23 1.912920 1_554
Al0 O8 1.943246 1_555
Al0 O5 1.943246 1_555
Al1 O18 1.861013 1_555
Al1 O15 1.861013 1_555
Al1 O25 1.883335 1_555
Al1 O22 1.912920 1_556
Al1 O9 1.943246 1_555
Al1 O4 1.943246 1_555
Al2 O12 1.861013 1_555
Al2 O17 1.861013 1_555
Al2 O26 1.883335 1_555
Al2 O21 1.912920 1_555
Al2 O7 1.943246 1_555
Al2 O10 1.943246 1_555
Al3 O16 1.861013 1_555
Al3 O13 1.861013 1_555
Al3 O27 1.883335 1_555
Al3 O20 1.912920 1_555
Al3 O11 1.943246 1_555
Al3 O6 1.943246 1_555
Mo0 O18 1.782145 1_545
Mo0 O15 1.782145 1_645
Mo0 O23 1.788737 1_555
Mo0 O27 1.791745 1_555
Mo1 O14 1.782145 1_565
Mo1 O19 1.782145 1_465
Mo1 O22 1.788737 1_555
Mo1 O26 1.791745 1_555
Mo2 O13 1.782145 1_455
Mo2 O16 1.782145 1_555
Mo2 O21 1.788737 1_555
Mo2 O25 1.791745 1_555
Mo3 O12 1.782145 1_555
Mo3 O17 1.782145 1_655
Mo3 O20 1.788737 1_555
Mo3 O24 1.791745 1_555
O0 V0 1.614215 1_555
O1 V1 1.614215 1_555
O2 V2 1.614215 1_555
O3 V3 1.614215 1_555
O4 V1 1.859032 1_456
O4 V0 1.989070 1_555
O5 V0 1.859032 1_554
O5 V1 1.989070 1_555
O6 V3 1.859032 1_655
O6 V2 1.989070 1_545
O7 V2 1.859032 1_555
O7 V3 1.989070 1_565
O8 V0 1.859032 1_654
O8 V1 1.989070 1_555
O9 V1 1.859032 1_556
O9 V0 1.989070 1_555
O10 V2 1.859032 1_455
O10 V3 1.989070 1_565
O11 V3 1.859032 1_555
O11 V2 1.989070 1_545
