# generated using pymatgen
data_Li2TiPO4F
_symmetry_space_group_name_H-M   'P 1'
_cell_length_a   5.41647200
_cell_length_b   5.48043817
_cell_length_c   7.35265276
_cell_angle_alpha   105.68198698
_cell_angle_beta   105.95451302
_cell_angle_gamma   95.86381282
_symmetry_Int_Tables_number   1
_chemical_formula_structural   Li2TiPO4F
_chemical_formula_sum   'Li4 Ti2 P2 O8 F2'
_cell_volume   198.33710735
_cell_formula_units_Z   2
loop_
 _symmetry_equiv_pos_site_id
 _symmetry_equiv_pos_as_xyz
  1  'x, y, z'
loop_
 _atom_site_type_symbol
 _atom_site_label
 _atom_site_symmetry_multiplicity
 _atom_site_fract_x
 _atom_site_fract_y
 _atom_site_fract_z
 _atom_site_occupancy
  Li  Li0  1  0.42339500  0.76662600  0.84851200  1
  Li  Li1  1  0.87447400  0.53866900  0.15170700  1
  Li  Li2  1  0.00943400  0.50445500  0.52113800  1
  Li  Li3  1  0.54674800  0.18720700  0.15962500  1
  Ti  Ti0  1  0.99857700  0.00210400  0.99739900  1
  Ti  Ti1  1  0.00731200  0.01338000  0.50306100  1
  P  P0  1  0.62476700  0.33925400  0.75567500  1
  P  P1  1  0.37902900  0.66294500  0.23770100  1
  O  O0  1  0.21630600  0.73044200  0.38287100  1
  O  O1  1  0.77237400  0.26812400  0.60336600  1
  O  O2  1  0.67515400  0.68000000  0.34043400  1
  O  O3  1  0.34857300  0.85336000  0.11070400  1
  O  O4  1  0.65482200  0.15628600  0.89040700  1
  O  O5  1  0.74096300  0.62036800  0.90229400  1
  O  O6  1  0.33283200  0.33516200  0.65306700  1
  O  O7  1  0.26517400  0.38109800  0.10143200  1
  F  F0  1  0.90884200  0.20514000  0.27038000  1
  F  F1  1  0.08959100  0.82749900  0.72881500  1
loop_
_geom_bond_atom_site_label_1
_geom_bond_atom_site_label_2
_geom_bond_distance
_geom_bond_site_symmetry_2
Li0 O5 1.958760 1_555
Li0 O3 2.019931 1_556
Li0 O4 2.260914 1_565
Li0 O6 2.331437 1_555
Li1 O5 1.966575 1_554
Li1 O2 2.025948 1_555
Li1 O0 2.080447 1_655
Li1 O4 2.357057 1_554
Li1 O7 2.447781 1_655
Li2 O1 2.049900 1_455
Li2 O6 2.180510 1_555
Li2 O0 2.201441 1_555
Li2 O2 2.386136 1_455
Li3 O3 1.913062 1_545
Li3 O7 1.963781 1_555
Li3 O4 2.183030 1_554
O0 P1 1.556709 1_555
O0 Ti1 2.152828 1_565
O1 P0 1.537920 1_555
O1 Ti1 2.105876 1_655
O2 P1 1.554707 1_555
O2 Ti1 2.229230 1_665
O3 P1 1.570163 1_555
O3 Ti0 2.183362 1_464
O4 P0 1.579577 1_555
O4 Ti0 2.162234 1_555
O5 P0 1.569344 1_555
O5 Ti0 2.211124 1_565
O6 P0 1.548495 1_555
O6 Ti1 2.163171 1_555
O7 P1 1.548919 1_555
O7 Ti0 2.214831 1_454
F0 Li3 1.886457 1_555
F0 Li2 2.004295 1_655
F0 Ti1 2.213752 1_655
F0 Ti0 2.223162 1_554
F0 Li1 2.231508 1_555
F1 Li0 1.887340 1_555
F1 Li2 1.916140 1_555
F1 Ti1 2.142855 1_565
F1 Ti0 2.160688 1_465
