# generated using pymatgen
data_MgFe4(CuO4)2
_symmetry_space_group_name_H-M   'P 1'
_cell_length_a   6.46982500
_cell_length_b   5.99340365
_cell_length_c   5.86480656
_cell_angle_alpha   60.70726564
_cell_angle_beta   63.04803643
_cell_angle_gamma   58.89567640
_symmetry_Int_Tables_number   1
_chemical_formula_structural   MgFe4(CuO4)2
_chemical_formula_sum   'Mg1 Fe4 Cu2 O8'
_cell_volume   163.58590896
_cell_formula_units_Z   1
loop_
 _symmetry_equiv_pos_site_id
 _symmetry_equiv_pos_as_xyz
  1  'x, y, z'
loop_
 _atom_site_type_symbol
 _atom_site_label
 _atom_site_symmetry_multiplicity
 _atom_site_fract_x
 _atom_site_fract_y
 _atom_site_fract_z
 _atom_site_occupancy
  Mg  Mg0  1  0.62500000  0.12500000  0.12500000  1
  Fe  Fe0  1  0.10361600  0.97376900  0.96130700  1
  Fe  Fe1  1  0.14638400  0.27623100  0.28869300  1
  Fe  Fe2  1  0.12500000  0.62500000  0.62500000  1
  Fe  Fe3  1  0.62500000  0.12500000  0.62500000  1
  Cu  Cu0  1  0.62500000  0.62500000  0.12500000  1
  Cu  Cu1  1  0.62500000  0.62500000  0.62500000  1
  O  O0  1  0.34584900  0.36021300  0.38929200  1
  O  O1  1  0.34355100  0.88000500  0.38822200  1
  O  O2  1  0.34584900  0.36021300  0.90464700  1
  O  O3  1  0.79565200  0.40457500  0.39988600  1
  O  O4  1  0.45434800  0.84542500  0.85011400  1
  O  O5  1  0.90644900  0.36999500  0.86177800  1
  O  O6  1  0.90415100  0.88978700  0.34535300  1
  O  O7  1  0.90415100  0.88978700  0.86070800  1
loop_
_geom_bond_atom_site_label_1
_geom_bond_atom_site_label_2
_geom_bond_distance
_geom_bond_site_symmetry_2
Mg0 O2 2.149823 1_554
Mg0 O6 2.149823 1_545
Mg0 O7 2.149826 1_544
Mg0 O0 2.149826 1_555
Mg0 O5 2.418926 1_554
Mg0 O1 2.418926 1_545
Fe0 O4 1.874071 1_555
Fe0 O5 1.948346 1_465
Fe0 O6 1.979582 1_456
Fe0 O7 1.979583 1_455
Fe1 O3 1.874071 1_455
Fe1 O1 1.948346 1_545
Fe1 O2 1.979582 1_554
Fe1 O0 1.979583 1_555
Fe2 O0 2.117661 1_555
Fe2 O7 2.117661 1_455
Fe2 O2 2.117665 1_555
Fe2 O6 2.117665 1_455
Fe2 O1 2.153982 1_555
Fe2 O5 2.153982 1_455
Fe3 O4 2.048180 1_545
Fe3 O3 2.048180 1_555
Fe3 O0 2.210387 1_555
Fe3 O7 2.210387 1_545
Fe3 O6 2.210391 1_545
Fe3 O2 2.210391 1_555
Cu0 O4 1.893599 1_554
Cu0 O3 1.893599 1_555
Cu0 O5 2.218098 1_554
Cu0 O1 2.218098 1_555
Cu0 O0 2.489881 1_555
Cu0 O7 2.489881 1_554
Cu1 O3 1.893603 1_555
Cu1 O4 1.893603 1_555
Cu1 O1 2.218098 1_555
Cu1 O5 2.218098 1_555
Cu1 O2 2.489881 1_555
Cu1 O6 2.489881 1_555
