# generated using pymatgen
data_MgTe4Mo3W(SeS)2
_symmetry_space_group_name_H-M   'P 1'
_cell_length_a   3.39290703
_cell_length_b   3.39405787
_cell_length_c   46.09899210
_cell_angle_alpha   90.00799290
_cell_angle_beta   89.99514850
_cell_angle_gamma   120.00185330
_symmetry_Int_Tables_number   1
_chemical_formula_structural   MgTe4Mo3W(SeS)2
_chemical_formula_sum   'Mg1 Te4 Mo3 W1 Se2 S2'
_cell_volume   459.73243950
_cell_formula_units_Z   1
loop_
 _symmetry_equiv_pos_site_id
 _symmetry_equiv_pos_as_xyz
  1  'x, y, z'
loop_
 _atom_site_type_symbol
 _atom_site_label
 _atom_site_symmetry_multiplicity
 _atom_site_fract_x
 _atom_site_fract_y
 _atom_site_fract_z
 _atom_site_occupancy
  Mg  Mg0  1  0.99998500  0.99998500  0.18396300  1
  Te  Te0  1  0.33329100  0.66650100  0.32985400  1
  Te  Te1  1  0.33335800  0.66678800  0.69831000  1
  Te  Te2  1  0.33334400  0.66651500  0.24820600  1
  Te  Te3  1  0.33345600  0.66680200  0.61657200  1
  Mo  Mo0  1  0.33331900  0.66678700  0.08541000  1
  Mo  Mo1  1  0.33339600  0.66670000  0.46964100  1
  Mo  Mo2  1  0.66655900  0.33308700  0.28926800  1
  W  W0  1  0.66665300  0.33337500  0.65745100  1
  Se  Se0  1  0.66664100  0.33340100  0.04971100  1
  Se  Se1  1  0.66658800  0.33339700  0.12162200  1
  S  S0  1  0.66673500  0.33332600  0.43704600  1
  S  S1  1  0.66667500  0.33333500  0.50225000  1
loop_
_geom_bond_atom_site_label_1
_geom_bond_atom_site_label_2
_geom_bond_distance
_geom_bond_site_symmetry_2
Te1 W0 2.717626 1_455
Te1 W0 2.717712 1_555
Te1 W0 2.717984 1_565
Te3 W0 2.718289 1_565
Te3 W0 2.718426 1_455
Te3 W0 2.718525 1_555
Mo0 Se0 2.558449 1_455
Mo0 Se0 2.558628 1_555
Mo0 Se0 2.558933 1_565
Mo0 Se1 2.573799 1_455
Mo0 Se1 2.573914 1_565
Mo0 Se1 2.574119 1_555
Mo1 S0 2.468798 1_455
Mo1 S0 2.469051 1_555
Mo1 S1 2.469289 1_455
Mo1 S0 2.469357 1_565
Mo1 S1 2.469503 1_565
Mo1 S1 2.469592 1_555
Mo2 Te0 2.708951 1_555
Mo2 Te0 2.708976 1_655
Mo2 Te0 2.709275 1_545
Mo2 Te2 2.724141 1_545
Mo2 Te2 2.724243 1_655
Mo2 Te2 2.724421 1_555
