# generated using pymatgen
data_MgMn2FeWO6
_symmetry_space_group_name_H-M   'P 1'
_cell_length_a   5.46619134
_cell_length_b   5.40850982
_cell_length_c   6.03845426
_cell_angle_alpha   63.35863176
_cell_angle_beta   65.10376885
_cell_angle_gamma   60.45998480
_symmetry_Int_Tables_number   1
_chemical_formula_structural   MgMn2FeWO6
_chemical_formula_sum   'Mg1 Mn2 Fe1 W1 O6'
_cell_volume   134.16021993
_cell_formula_units_Z   1
loop_
 _symmetry_equiv_pos_site_id
 _symmetry_equiv_pos_as_xyz
  1  'x, y, z'
loop_
 _atom_site_type_symbol
 _atom_site_label
 _atom_site_symmetry_multiplicity
 _atom_site_fract_x
 _atom_site_fract_y
 _atom_site_fract_z
 _atom_site_occupancy
  Mg  Mg0  1  0.15577964  0.14703878  0.54949736  1
  Mn  Mn0  1  0.76332037  0.76790948  0.68776249  1
  Mn  Mn1  1  0.34585751  0.33060683  0.98759477  1
  Fe  Fe0  1  0.54694450  0.55019551  0.35473302  1
  W  W0  1  0.96952176  0.96797515  0.09125893  1
  O  O0  1  0.19626378  0.92670333  0.31944444  1
  O  O1  1  0.90749603  0.57188124  0.34009986  1
  O  O2  1  0.55718079  0.19401391  0.32995230  1
  O  O3  1  0.05877667  0.34305702  0.83387945  1
  O  O4  1  0.34664071  0.75911556  0.83104399  1
  O  O5  1  0.76606923  0.05535419  0.83080439  1
loop_
_geom_bond_atom_site_label_1
_geom_bond_atom_site_label_2
_geom_bond_distance
_geom_bond_site_symmetry_2
Mg0 O0 2.089167 1_545
Mg0 O2 2.105909 1_555
Mg0 O1 2.117711 1_455
Mg0 O4 2.125288 1_545
Mg0 O3 2.160029 1_555
Mg0 O5 2.215580 1_455
Mn0 O4 2.085491 1_555
Mn0 O3 2.094994 1_655
Mn0 O5 2.097962 1_565
Mn0 O1 2.435487 1_555
Mn0 O2 2.504547 1_565
Mn0 O0 2.672881 1_655
Mn1 O4 2.075205 1_555
Mn1 O3 2.096359 1_555
Mn1 O5 2.109463 1_555
Mn1 O0 2.431514 1_546
Mn1 O2 2.439947 1_556
Mn1 O1 2.662478 1_456
Fe0 O2 1.970219 1_555
Fe0 O0 1.993061 1_555
Fe0 O1 1.994443 1_555
O0 W0 2.091358 1_455
O1 W0 2.088679 1_555
O2 W0 2.186362 1_545
O3 W0 2.068542 1_446
O4 W0 2.136097 1_456
O5 W0 2.054621 1_546
