# generated using pymatgen
data_Mg(SiO2)6
_symmetry_space_group_name_H-M   'P 1'
_cell_length_a   5.25203907
_cell_length_b   7.39589652
_cell_length_c   7.43963383
_cell_angle_alpha   79.06099576
_cell_angle_beta   69.33049003
_cell_angle_gamma   69.20261000
_symmetry_Int_Tables_number   1
_chemical_formula_structural   Mg(SiO2)6
_chemical_formula_sum   'Mg1 Si6 O12'
_cell_volume   252.07624079
_cell_formula_units_Z   1
loop_
 _symmetry_equiv_pos_site_id
 _symmetry_equiv_pos_as_xyz
  1  'x, y, z'
loop_
 _atom_site_type_symbol
 _atom_site_label
 _atom_site_symmetry_multiplicity
 _atom_site_fract_x
 _atom_site_fract_y
 _atom_site_fract_z
 _atom_site_occupancy
  Mg  Mg0  1  0.43393653  0.25000000  0.75000000  1
  Si  Si0  1  0.40663545  0.35763956  0.30258111  1
  Si  Si1  1  0.06685612  0.14236044  0.19741889  1
  Si  Si2  1  0.60720415  0.65939472  0.66281667  1
  Si  Si3  1  0.92941454  0.84060528  0.83718333  1
  Si  Si4  1  0.95873221  0.25000000  0.75000000  1
  Si  Si5  1  0.99204609  0.75000000  0.25000000  1
  O  O0  1  0.66134975  0.42869750  0.74180152  1
  O  O1  1  0.83184978  0.07130250  0.75819848  1
  O  O2  1  0.28159882  0.56790349  0.19131048  1
  O  O3  1  0.04081179  0.93209651  0.30868952  1
  O  O4  1  0.40884469  0.37963050  0.50822100  1
  O  O5  1  0.29669619  0.12036950  0.99177900  1
  O  O6  1  0.26705829  0.75816551  0.72486874  1
  O  O7  1  0.75009153  0.74183449  0.77513126  1
  O  O8  1  0.74295724  0.25986834  0.17149320  1
  O  O9  1  0.17431978  0.24013166  0.32850680  1
  O  O10  1  0.87224094  0.81456046  0.06555370  1
  O  O11  1  0.75235510  0.68543954  0.43444630  1
loop_
_geom_bond_atom_site_label_1
_geom_bond_atom_site_label_2
_geom_bond_distance
_geom_bond_site_symmetry_2
Mg0 O5 1.896087 1_555
Mg0 O4 1.896087 1_555
Mg0 O0 2.053268 1_555
Mg0 O1 2.053272 1_555
O0 Si2 1.652338 1_555
O0 Si4 1.661520 1_555
O1 Si3 1.652337 1_545
O1 Si4 1.661516 1_555
O2 Si5 1.617746 1_455
O2 Si0 1.644636 1_555
O3 Si5 1.617743 1_455
O3 Si1 1.644637 1_565
O4 Si0 1.573355 1_555
O5 Si1 1.573355 1_556
O6 Si2 1.599137 1_555
O6 Si3 1.610624 1_455
O7 Si3 1.599137 1_555
O7 Si2 1.610615 1_555
O8 Si0 1.654863 1_555
O8 Si1 1.674660 1_655
O9 Si1 1.654867 1_555
O9 Si0 1.674656 1_555
O10 Si3 1.603295 1_554
O10 Si5 1.629231 1_555
O11 Si2 1.603294 1_555
O11 Si5 1.629231 1_555
