# generated using pymatgen
data_Sm2Mg(CuO2)4
_symmetry_space_group_name_H-M   'P 1'
_cell_length_a   5.74019532
_cell_length_b   5.73816027
_cell_length_c   7.03211551
_cell_angle_alpha   114.18864930
_cell_angle_beta   114.03937071
_cell_angle_gamma   89.98198494
_symmetry_Int_Tables_number   1
_chemical_formula_structural   Sm2Mg(CuO2)4
_chemical_formula_sum   'Sm2 Mg1 Cu4 O8'
_cell_volume   189.06476914
_cell_formula_units_Z   1
loop_
 _symmetry_equiv_pos_site_id
 _symmetry_equiv_pos_as_xyz
  1  'x, y, z'
loop_
 _atom_site_type_symbol
 _atom_site_label
 _atom_site_symmetry_multiplicity
 _atom_site_fract_x
 _atom_site_fract_y
 _atom_site_fract_z
 _atom_site_occupancy
  Sm  Sm0  1  0.87526900  0.12476800  0.75009100  1
  Sm  Sm1  1  0.12468700  0.87535700  0.25006600  1
  Mg  Mg0  1  0.37566600  0.62371100  0.74984200  1
  Cu  Cu0  1  0.51446100  0.06382300  0.07639500  1
  Cu  Cu1  1  0.56280600  0.51331800  0.07765000  1
  Cu  Cu2  1  0.93578300  0.43831800  0.42383800  1
  Cu  Cu3  1  0.48648700  0.48531400  0.42200300  1
  O  O0  1  0.72723500  0.52922400  0.90235600  1
  O  O1  1  0.17505500  0.87213900  0.90138200  1
  O  O2  1  0.26970600  0.47232800  0.11938000  1
  O  O3  1  0.84980900  0.14812600  0.12007100  1
  O  O4  1  0.52752100  0.15000600  0.37952000  1
  O  O5  1  0.85247000  0.73058200  0.38084600  1
  O  O6  1  0.12707900  0.27290000  0.59785900  1
  O  O7  1  0.47096700  0.82508500  0.59870100  1
loop_
_geom_bond_atom_site_label_1
_geom_bond_atom_site_label_2
_geom_bond_distance
_geom_bond_site_symmetry_2
Mg0 O6 2.055930 1_555
Mg0 O0 2.056523 1_555
Mg0 O7 2.060253 1_555
Mg0 O1 2.060981 1_555
Cu0 O3 1.852287 1_555
Cu0 O1 1.859754 1_544
Cu0 O4 1.949337 1_555
Cu1 O2 1.852332 1_555
Cu1 O0 1.859807 1_554
Cu1 O5 1.949239 1_555
Cu2 O5 1.851978 1_555
Cu2 O6 1.860297 1_655
Cu2 O3 1.950919 1_555
Cu3 O4 1.852756 1_555
Cu3 O7 1.859540 1_555
Cu3 O2 1.948163 1_555
O0 Sm0 2.440991 1_555
O0 Sm1 2.570352 1_656
O1 Sm0 2.442383 1_465
O1 Sm1 2.576168 1_556
O2 Sm1 2.401299 1_555
O2 Sm0 2.610723 1_454
O3 Sm1 2.402274 1_645
O3 Sm0 2.613884 1_554
O4 Sm1 2.402281 1_545
O4 Sm0 2.620559 1_555
O5 Sm1 2.403177 1_655
O5 Sm0 2.604968 1_565
O6 Sm0 2.442322 1_455
O6 Sm1 2.566346 1_545
O7 Sm0 2.442501 1_565
O7 Sm1 2.579469 1_555
