# generated using pymatgen
data_Mg2Al2Se5
_symmetry_space_group_name_H-M   'P 1'
_cell_length_a   3.88728656
_cell_length_b   3.88728628
_cell_length_c   16.33597408
_cell_angle_alpha   90.00000000
_cell_angle_beta   90.00000000
_cell_angle_gamma   120.00001090
_symmetry_Int_Tables_number   1
_chemical_formula_structural   Mg2Al2Se5
_chemical_formula_sum   'Mg2 Al2 Se5'
_cell_volume   213.78080195
_cell_formula_units_Z   1
loop_
 _symmetry_equiv_pos_site_id
 _symmetry_equiv_pos_as_xyz
  1  'x, y, z'
loop_
 _atom_site_type_symbol
 _atom_site_label
 _atom_site_symmetry_multiplicity
 _atom_site_fract_x
 _atom_site_fract_y
 _atom_site_fract_z
 _atom_site_occupancy
  Mg  Mg0  1  0.33333300  0.66666700  0.59683117  1
  Mg  Mg1  1  0.66666700  0.33333300  0.40316883  1
  Al  Al0  1  0.33333300  0.66666700  0.17597300  1
  Al  Al1  1  0.66666700  0.33333300  0.82402700  1
  Se  Se0  1  0.66666700  0.33333300  0.11174943  1
  Se  Se1  1  0.33333300  0.66666700  0.88825057  1
  Se  Se2  1  0.66666700  0.33333300  0.68405651  1
  Se  Se3  1  0.33333300  0.66666700  0.31594349  1
  Se  Se4  1  -0.00000000  -0.00000000  0.50000000  1
loop_
_geom_bond_atom_site_label_1
_geom_bond_atom_site_label_2
_geom_bond_distance
_geom_bond_site_symmetry_2
Mg0 Se2 2.658450 1_565
Mg0 Se2 2.658450 1_455
Mg0 Se2 2.658456 1_555
Mg0 Se4 2.745757 1_565
Mg0 Se4 2.745759 1_555
Mg0 Se4 2.745759 1_665
Mg1 Se3 2.658450 1_545
Mg1 Se3 2.658450 1_655
Mg1 Se3 2.658456 1_555
Mg1 Se4 2.745757 1_655
Mg1 Se4 2.745759 1_665
Mg1 Se4 2.745759 1_555
Al0 Se3 2.286554 1_555
Al0 Se0 2.477441 1_565
Al0 Se0 2.477441 1_455
Al0 Se0 2.477447 1_555
Al1 Se2 2.286554 1_555
Al1 Se1 2.477441 1_545
Al1 Se1 2.477441 1_655
Al1 Se1 2.477447 1_555
