# generated using pymatgen
data_Na2CaZrSi(SO6)2
_symmetry_space_group_name_H-M   'P 1'
_cell_length_a   9.20301638
_cell_length_b   9.23639702
_cell_length_c   23.48314170
_cell_angle_alpha   90.34333258
_cell_angle_beta   90.00000000
_cell_angle_gamma   119.88052059
_symmetry_Int_Tables_number   1
_chemical_formula_structural   Na2CaZrSi(SO6)2
_chemical_formula_sum   'Na12 Ca6 Zr6 Si6 S12 O72'
_cell_volume   1730.73612664
_cell_formula_units_Z   6
loop_
 _symmetry_equiv_pos_site_id
 _symmetry_equiv_pos_as_xyz
  1  'x, y, z'
loop_
 _atom_site_type_symbol
 _atom_site_label
 _atom_site_symmetry_multiplicity
 _atom_site_fract_x
 _atom_site_fract_y
 _atom_site_fract_z
 _atom_site_occupancy
  Na  Na0  1  0.99797438  0.63544791  0.23832878  1
  Na  Na1  1  0.63747353  0.63544791  0.73832878  1
  Na  Na2  1  0.65069965  0.95439282  0.57378284  1
  Na  Na3  1  0.30369417  0.95439282  0.07378284  1
  Na  Na4  1  0.69260828  0.02563685  0.90615705  1
  Na  Na5  1  0.33302757  0.02563685  0.40615705  1
  Na  Na6  1  0.96880358  0.98776661  0.49260287  1
  Na  Na7  1  0.01896303  0.98776661  0.99260287  1
  Na  Na8  1  0.65504905  0.29853746  0.82647358  1
  Na  Na9  1  0.64348941  0.29853746  0.32647358  1
  Na  Na10  1  0.31681663  0.65512168  0.15996499  1
  Na  Na11  1  0.33830405  0.65512168  0.65996499  1
  Ca  Ca0  1  0.99365771  0.00710106  0.35147798  1
  Ca  Ca1  1  0.01344336  0.00710106  0.85147798  1
  Ca  Ca2  1  0.66273448  0.32617243  0.68415286  1
  Ca  Ca3  1  0.66343896  0.32617243  0.18415286  1
  Ca  Ca4  1  0.32188263  0.66239107  0.01760402  1
  Ca  Ca5  1  0.34050744  0.66239107  0.51760402  1
  Zr  Zr0  1  0.98602614  0.98884252  0.64964588  1
  Zr  Zr1  1  0.00281638  0.98884252  0.14964588  1
  Zr  Zr2  1  0.67388154  0.34530248  0.98271171  1
  Zr  Zr3  1  0.67142195  0.34530248  0.48271171  1
  Zr  Zr4  1  0.34858622  0.68937195  0.31581746  1
  Zr  Zr5  1  0.34078473  0.68937195  0.81581746  1
  Si  Si0  1  0.29907263  0.99875134  0.25566154  1
  Si  Si1  1  0.69967871  0.99875134  0.75566154  1
  Si  Si2  1  0.66779070  0.63335055  0.58984245  1
  Si  Si3  1  0.96556085  0.63335055  0.08984245  1
  Si  Si4  1  0.34129035  0.97711410  0.92350759  1
  Si  Si5  1  0.63582275  0.97711410  0.42350759  1
  S  S0  1  0.70209481  0.70866869  0.25012504  1
  S  S1  1  0.00860061  0.30209972  0.24974348  1
  S  S2  1  0.29349911  0.30209972  0.74974348  1
  S  S3  1  0.00657389  0.70866869  0.75012504  1
  S  S4  1  0.95704306  0.32591971  0.58382033  1
  S  S5  1  0.36487367  0.04230706  0.58137022  1
  S  S6  1  0.67743439  0.04230706  0.08137022  1
  S  S7  1  0.36887765  0.32591971  0.08382033  1
  S  S8  1  0.62255809  0.65963156  0.91607647  1
  S  S9  1  0.03215346  0.37365336  0.91663711  1
  S  S10  1  0.34149890  0.37365336  0.41663711  1
  S  S11  1  0.03707247  0.65963156  0.41607647  1
  O  O0  1  0.20980255  0.00013930  0.31377991  1
  O  O1  1  0.80106445  0.78819582  0.30089762  1
  O  O2  1  0.98662296  0.20538537  0.30082573  1
  O  O3  1  0.21876241  0.20538537  0.80082573  1
  O  O4  1  0.98713137  0.78819582  0.80089762  1
  O  O5  1  0.79033674  0.00013930  0.81377991  1
  O  O6  1  0.80297298  0.97214357  0.69854300  1
  O  O7  1  0.19218923  0.21196325  0.69794432  1
  O  O8  1  0.03205417  0.81612903  0.69854992  1
  O  O9  1  0.78407485  0.81612903  0.19854992  1
  O  O10  1  0.01977402  0.21196325  0.19794432  1
  O  O11  1  0.16917059  0.97214357  0.19854300  1
  O  O12  1  0.88039676  0.34446506  0.63513825  1
  O  O13  1  0.47334764  0.11919423  0.63104042  1
  O  O14  1  0.66126167  0.54577139  0.64875117  1
  O  O15  1  0.88451072  0.54577139  0.14875117  1
  O  O16  1  0.64584759  0.11919423  0.13104042  1
  O  O17  1  0.46406930  0.34446506  0.13513825  1
  O  O18  1  0.45456584  0.29998041  0.03233158  1
  O  O19  1  0.84139855  0.52402425  0.03395690  1
  O  O20  1  0.69376213  0.14560808  0.02898212  1
  O  O21  1  0.45184695  0.14560808  0.52898212  1
  O  O22  1  0.68262670  0.52402425  0.53395690  1
  O  O23  1  0.84541557  0.29998041  0.53233158  1
  O  O24  1  0.53873760  0.67671484  0.96608011  1
  O  O25  1  0.12839754  0.44636219  0.96831146  1
  O  O26  1  0.33550007  0.88075987  0.98047291  1
  O  O27  1  0.54525880  0.88075987  0.48047291  1
  O  O28  1  0.31796366  0.44636219  0.46831146  1
  O  O29  1  0.13797624  0.67671484  0.46608011  1
  O  O30  1  0.11779140  0.63597958  0.36307233  1
  O  O31  1  0.50397588  0.86837791  0.36630535  1
  O  O32  1  0.35696497  0.47477970  0.36533366  1
  O  O33  1  0.11781373  0.47477970  0.86533366  1
  O  O34  1  0.36440102  0.86837791  0.86630535  1
  O  O35  1  0.51818718  0.63597958  0.86307233  1
  O  O36  1  0.02019257  0.80916940  0.41094646  1
  O  O37  1  0.82003057  0.00387921  0.41647173  1
  O  O38  1  0.20425756  0.19867536  0.41135990  1
  O  O39  1  0.99441779  0.19867536  0.91135990  1
  O  O40  1  0.18384864  0.00387921  0.91647173  1
  O  O41  1  0.78897683  0.80916940  0.91094646  1
  O  O42  1  0.96344827  0.16473494  0.58706667  1
  O  O43  1  0.20127568  0.03636735  0.58753068  1
  O  O44  1  0.84717954  0.82589167  0.58897108  1
  O  O45  1  0.97871212  0.82589167  0.08897108  1
  O  O46  1  0.83509167  0.03636735  0.08753068  1
  O  O47  1  0.20128666  0.16473494  0.08706667  1
  O  O48  1  0.66521566  0.15057610  0.74817344  1
  O  O49  1  0.46792084  0.33580480  0.74517580  1
  O  O50  1  0.85690162  0.54317578  0.74329325  1
  O  O51  1  0.68627515  0.54317578  0.24329325  1
  O  O52  1  0.86788497  0.33580480  0.24517580  1
  O  O53  1  0.48536143  0.15057610  0.24817344  1
  O  O54  1  0.63936422  0.50561180  0.92050239  1
  O  O55  1  0.86193727  0.36412410  0.92110234  1
  O  O56  1  0.52722526  0.15722234  0.92373848  1
  O  O57  1  0.62999807  0.15722234  0.42373848  1
  O  O58  1  0.50218782  0.36412410  0.42110234  1
  O  O59  1  0.86624859  0.50561180  0.42050239  1
  O  O60  1  0.34449841  0.46879986  0.07593038  1
  O  O61  1  0.15809121  0.67463866  0.08469819  1
  O  O62  1  0.53298012  0.87193798  0.07524150  1
  O  O63  1  0.33895686  0.87193798  0.57524150  1
  O  O64  1  0.51654644  0.67463866  0.58469819  1
  O  O65  1  0.12430046  0.46879986  0.57593038  1
  O  O66  1  0.29532696  0.81008829  0.25585803  1
  O  O67  1  0.53024552  0.69036437  0.25460843  1
  O  O68  1  0.16806061  0.47008323  0.25351025  1
  O  O69  1  0.30202162  0.47008323  0.75351025  1
  O  O70  1  0.16011786  0.69036437  0.75460843  1
  O  O71  1  0.51476033  0.81008829  0.75585803  1
loop_
_geom_bond_atom_site_label_1
_geom_bond_atom_site_label_2
_geom_bond_distance
_geom_bond_site_symmetry_2
Na0 O15 2.306242 1_555
Na0 O52 2.413044 1_555
Na0 O66 2.419473 1_655
Na0 O51 2.556150 1_555
Na0 O68 2.701638 1_655
Na0 O11 2.859940 1_655
Na1 O14 2.306244 1_555
Na1 O49 2.413043 1_555
Na1 O71 2.419481 1_555
Na1 O50 2.556159 1_555
Na1 O69 2.701646 1_555
Na1 O6 2.859940 1_555
Na2 O64 2.257419 1_555
Na2 O27 2.351625 1_555
Na2 O42 2.564589 1_565
Na2 O63 2.575934 1_555
Na2 O44 2.636093 1_555
Na3 O61 2.257420 1_555
Na3 O26 2.351620 1_554
Na3 O47 2.564596 1_565
Na3 O62 2.575917 1_555
Na3 O45 2.636101 1_455
Na4 O5 2.403162 1_555
Na4 O56 2.408585 1_555
Na4 O39 2.420461 1_555
Na4 O41 2.562465 1_545
Na4 O55 2.731016 1_555
Na4 O34 2.778714 1_545
Na5 O0 2.403158 1_555
Na5 O57 2.408601 1_555
Na5 O38 2.420453 1_555
Na5 O36 2.562458 1_545
Na5 O58 2.731016 1_555
Na5 O31 2.778714 1_545
Na6 O37 2.301996 1_565
Na6 O44 2.642474 1_555
Na6 O36 2.713161 1_655
Na6 O42 2.762586 1_565
Na6 O38 2.822892 1_665
Na6 O43 2.962966 1_665
Na7 O40 2.301996 1_565
Na7 O45 2.642474 1_456
Na7 O41 2.713161 1_455
Na7 O47 2.762586 1_566
Na7 O39 2.822892 1_465
Na7 O46 2.962966 1_466
Na8 O48 2.314014 1_555
Na8 O56 2.609670 1_555
Na8 O49 2.706946 1_555
Na8 O55 2.786554 1_555
Na8 O50 2.870999 1_555
Na8 O54 2.962954 1_555
Na9 O53 2.314014 1_555
Na9 O57 2.609670 1_555
Na9 O52 2.706946 1_555
Na9 O58 2.786554 1_555
Na9 O51 2.870999 1_555
Na9 O59 2.962954 1_555
Na10 O61 2.357233 1_555
Na10 O60 2.704990 1_555
Na10 O68 2.708230 1_555
Na10 O66 2.720693 1_555
Na10 O62 2.829243 1_555
Na10 O67 2.873654 1_555
Na11 O64 2.357233 1_555
Na11 O65 2.704990 1_555
Na11 O69 2.708230 1_555
Na11 O71 2.720693 1_555
Na11 O63 2.829243 1_555
Na11 O70 2.873654 1_555
Ca0 O37 2.199267 1_555
Ca0 O0 2.207137 1_655
Ca0 O2 2.217529 1_555
Ca0 O1 2.245199 1_545
Ca0 O38 2.327650 1_655
Ca0 O36 2.414025 1_645
Ca1 O40 2.199267 1_555
Ca1 O5 2.207137 1_455
Ca1 O3 2.217528 1_555
Ca1 O4 2.245199 1_445
Ca1 O39 2.327650 1_455
Ca1 O41 2.414025 1_445
Ca2 O14 2.202937 1_555
Ca2 O13 2.213505 1_555
Ca2 O48 2.226512 1_555
Ca2 O12 2.243012 1_555
Ca2 O49 2.330930 1_555
Ca2 O50 2.353126 1_555
Ca3 O15 2.202937 1_555
Ca3 O16 2.213504 1_555
Ca3 O53 2.226512 1_555
Ca3 O17 2.243012 1_555
Ca3 O52 2.330930 1_555
Ca3 O51 2.353126 1_555
Ca4 O26 2.147856 1_554
Ca4 O25 2.219038 1_554
Ca4 O61 2.221532 1_555
Ca4 O24 2.281053 1_554
Ca4 O60 2.348782 1_555
Ca4 O62 2.360998 1_555
Ca5 O27 2.147856 1_555
Ca5 O28 2.219039 1_555
Ca5 O64 2.221531 1_555
Ca5 O29 2.281053 1_555
Ca5 O65 2.348782 1_555
Ca5 O63 2.360998 1_555
O0 Si0 1.596272 1_545
O1 S0 1.453826 1_555
O2 S1 1.452814 1_655
O3 S2 1.452814 1_555
O4 S3 1.453826 1_655
O5 Si1 1.596272 1_545
O6 Si1 1.729754 1_555
O6 Zr0 1.980790 1_555
O7 S2 1.502165 1_555
O7 Zr0 2.282394 1_445
O8 S3 1.513113 1_555
O8 Zr0 2.176783 1_455
O9 S0 1.513113 1_555
O9 Zr1 2.176783 1_655
O10 S1 1.502165 1_555
O10 Zr1 2.282394 1_545
O11 Si0 1.729754 1_555
O11 Zr1 1.980790 1_555
O12 S4 1.448134 1_555
O13 S5 1.464621 1_555
O14 Si2 1.592679 1_555
O15 Si3 1.592679 1_555
O16 S6 1.464621 1_555
O17 S7 1.448134 1_555
O18 S7 1.525130 1_555
O18 Zr2 2.184213 1_554
O19 Si3 1.697675 1_555
O19 Zr2 1.997585 1_554
O20 S6 1.522380 1_555
O20 Zr2 2.230785 1_554
O21 S5 1.522380 1_555
O21 Zr3 2.230785 1_555
O22 Si2 1.697675 1_555
O22 Zr3 1.997585 1_555
O23 S4 1.525130 1_555
O23 Zr3 2.184213 1_555
O24 S8 1.455287 1_555
O25 S9 1.451071 1_555
O26 Si4 1.597311 1_555
O27 Si5 1.597311 1_555
O28 S10 1.451071 1_555
O29 S11 1.455287 1_555
O30 S11 1.518976 1_555
O30 Zr4 2.224615 1_555
O31 Si5 1.747858 1_555
O31 Zr4 1.950644 1_555
O32 S10 1.491703 1_555
O32 Zr4 2.338056 1_555
O33 S9 1.491703 1_555
O33 Zr5 2.338056 1_555
O34 Si4 1.747858 1_555
O34 Zr5 1.950644 1_555
O35 S8 1.518976 1_555
O35 Zr5 2.224615 1_555
O36 S11 1.470413 1_555
O37 Si5 1.595386 1_545
O38 S10 1.478618 1_555
O39 S9 1.478620 1_655
O40 Si4 1.595377 1_545
O41 S8 1.470418 1_555
O42 S4 1.521353 1_555
O42 Zr0 2.281906 1_545
O43 S5 1.486119 1_555
O43 Zr0 2.320728 1_445
O44 Si2 1.721535 1_555
O44 Zr0 1.996561 1_555
O45 Si3 1.721540 1_555
O45 Zr1 1.996561 1_655
O46 S6 1.486110 1_555
O46 Zr1 2.320728 1_645
O47 S7 1.521358 1_555
O47 Zr1 2.281906 1_545
O48 Si1 1.595026 1_545
O49 S2 1.479051 1_555
O50 S3 1.469265 1_655
O51 S0 1.469268 1_555
O52 S1 1.479042 1_655
O53 Si0 1.595032 1_545
O54 S8 1.509796 1_555
O54 Zr2 2.218569 1_555
O55 S9 1.528203 1_655
O55 Zr2 2.195879 1_555
O56 Si4 1.690882 1_545
O56 Zr2 2.095787 1_555
O57 Si5 1.690872 1_545
O57 Zr3 2.095787 1_555
O58 S10 1.528221 1_555
O58 Zr3 2.195879 1_555
O59 S11 1.509786 1_655
O59 Zr3 2.218569 1_555
O60 S7 1.457471 1_555
O61 Si3 1.620741 1_455
O62 S6 1.475516 1_565
O63 S5 1.475509 1_565
O64 Si2 1.620759 1_555
O65 S4 1.457460 1_455
O66 Si0 1.725686 1_555
O66 Zr4 2.007322 1_555
O67 S0 1.508213 1_555
O67 Zr4 2.201362 1_555
O68 S1 1.516051 1_555
O68 Zr4 2.369613 1_555
O69 S2 1.516055 1_555
O69 Zr5 2.369613 1_555
O70 S3 1.508204 1_555
O70 Zr5 2.201362 1_555
O71 Si1 1.725691 1_555
O71 Zr5 2.007322 1_555
