# generated using pymatgen
data_Na6CaGe7(PO4)12
_symmetry_space_group_name_H-M   'P 1'
_cell_length_a   17.02531663
_cell_length_b   8.50363975
_cell_length_c   21.86208530
_cell_angle_alpha   90.04552708
_cell_angle_beta   89.93103939
_cell_angle_gamma   119.95864371
_symmetry_Int_Tables_number   1
_chemical_formula_structural   Na6CaGe7(PO4)12
_chemical_formula_sum   'Na18 Ca3 Ge21 P36 O144'
_cell_volume   2742.22304182
_cell_formula_units_Z   3
loop_
 _symmetry_equiv_pos_site_id
 _symmetry_equiv_pos_as_xyz
  1  'x, y, z'
loop_
 _atom_site_type_symbol
 _atom_site_label
 _atom_site_symmetry_multiplicity
 _atom_site_fract_x
 _atom_site_fract_y
 _atom_site_fract_z
 _atom_site_occupancy
  Na  Na0  1  0.68546384  0.36749064  0.24802368  1
  Na  Na1  1  0.99783401  0.62918600  0.24804159  1
  Na  Na2  1  0.99506764  0.36515227  0.74596921  1
  Na  Na3  1  0.49515502  0.36536820  0.74584503  1
  Na  Na4  1  0.18755558  0.00626195  0.74595607  1
  Na  Na5  1  0.68764644  0.00636624  0.74606255  1
  Na  Na6  1  0.99973952  0.99980656  0.49936372  1
  Na  Na7  1  0.50029097  0.00006038  0.49912297  1
  Na  Na8  1  -0.00001038  0.00027061  0.00046756  1
  Na  Na9  1  0.49986401  0.99952984  0.00100091  1
  Na  Na10  1  0.33272405  0.34208745  0.83439919  1
  Na  Na11  1  0.83275284  0.34194761  0.83483668  1
  Na  Na12  1  0.33336255  0.33449722  0.33429625  1
  Na  Na13  1  0.83280479  0.32184100  0.33459877  1
  Na  Na14  1  0.16946196  0.66565526  0.16530344  1
  Na  Na15  1  0.66871074  0.67912526  0.16433416  1
  Na  Na16  1  0.17137572  0.66491478  0.66076245  1
  Na  Na17  1  0.67141305  0.66498869  0.66076408  1
  Ca  Ca0  1  0.33307136  0.34035622  0.68108393  1
  Ca  Ca1  1  0.83312862  0.34046387  0.68112629  1
  Ca  Ca2  1  0.83305053  0.32416595  0.18323708  1
  Ge  Ge0  1  0.00379203  0.00463159  0.35622978  1
  Ge  Ge1  1  0.49540676  0.99498305  0.35483171  1
  Ge  Ge2  1  0.99954222  0.99898470  0.85761103  1
  Ge  Ge3  1  0.49967549  0.99900199  0.85758378  1
  Ge  Ge4  1  0.99873023  0.99779938  0.64295270  1
  Ge  Ge5  1  0.49886214  0.99798628  0.64292620  1
  Ge  Ge6  1  0.99926153  0.00217587  0.14525862  1
  Ge  Ge7  1  0.49984030  0.99815839  0.14595011  1
  Ge  Ge8  1  0.33348797  0.33560674  0.18583253  1
  Ge  Ge9  1  0.33336289  0.33295858  0.98104393  1
  Ge  Ge10  1  0.83355804  0.33321820  0.98248160  1
  Ge  Ge11  1  0.33366048  0.33427054  0.48196788  1
  Ge  Ge12  1  0.83323620  0.33370111  0.48170095  1
  Ge  Ge13  1  0.16862358  0.66886712  0.01938217  1
  Ge  Ge14  1  0.66542448  0.66445781  0.01777384  1
  Ge  Ge15  1  0.16670850  0.66675874  0.51579819  1
  Ge  Ge16  1  0.66659804  0.66724514  0.51563234  1
  Ge  Ge17  1  0.17095823  0.66612933  0.31413897  1
  Ge  Ge18  1  0.66532581  0.67245611  0.31582273  1
  Ge  Ge19  1  0.16854401  0.66575254  0.81621653  1
  Ge  Ge20  1  0.66907822  0.66571085  0.81615803  1
  P  P0  1  0.14555475  0.00438814  0.24984929  1
  P  P1  1  0.63648645  0.98685908  0.25362077  1
  P  P2  1  0.35692285  0.71351202  0.24959312  1
  P  P3  1  0.85639873  0.72758023  0.25347558  1
  P  P4  1  0.00597870  0.28690655  0.25371758  1
  P  P5  1  0.49714906  0.28423284  0.25016225  1
  P  P6  1  0.13951714  0.28675340  0.75402354  1
  P  P7  1  0.63958439  0.28688905  0.75398790  1
  P  P8  1  0.00207773  0.72084287  0.75412407  1
  P  P9  1  0.50208891  0.72086759  0.75415970  1
  P  P10  1  0.35668303  0.98553346  0.75332419  1
  P  P11  1  0.85668041  0.98571779  0.75322578  1
  P  P12  1  0.48467554  0.33642978  0.58146327  1
  P  P13  1  0.98459955  0.33648250  0.58149620  1
  P  P14  1  0.18371435  0.03124614  0.58161591  1
  P  P15  1  0.68372599  0.03133057  0.58169854  1
  P  P16  1  0.33155541  0.63260196  0.58005128  1
  P  P17  1  0.83139757  0.63216108  0.57996366  1
  P  P18  1  0.47628958  0.61993133  0.08319976  1
  P  P19  1  0.98489894  0.63396930  0.08179322  1
  P  P20  1  0.33365639  0.04746968  0.08351580  1
  P  P21  1  0.83188040  0.03049687  0.08003310  1
  P  P22  1  0.19049221  0.33479086  0.08321005  1
  P  P23  1  0.68267944  0.33323475  0.08193293  1
  P  P24  1  0.31075200  0.66553535  0.91812009  1
  P  P25  1  0.81110104  0.66435993  0.91731916  1
  P  P26  1  0.02224486  0.37895174  0.91756971  1
  P  P27  1  0.52111701  0.37807476  0.91665825  1
  P  P28  1  0.16793093  0.95723541  0.91702437  1
  P  P29  1  0.66720671  0.95625729  0.91728319  1
  P  P30  1  0.31030617  0.95645345  0.41578656  1
  P  P31  1  0.81170246  0.95783791  0.41650473  1
  P  P32  1  0.16833357  0.37836178  0.41662725  1
  P  P33  1  0.66651870  0.37693558  0.41519682  1
  P  P34  1  0.02219927  0.66504587  0.41516002  1
  P  P35  1  0.52081148  0.66471963  0.41661653  1
  O  O0  1  0.10584437  0.03805211  0.30832066  1
  O  O1  1  0.59138639  0.02451449  0.30914876  1
  O  O2  1  0.41385461  0.79078559  0.30801423  1
  O  O3  1  0.91984745  0.81337939  0.30904719  1
  O  O4  1  0.47892952  0.16667831  0.30780997  1
  O  O5  1  0.99177881  0.17034224  0.31062086  1
  O  O6  1  0.09506251  0.16735888  0.81099771  1
  O  O7  1  0.59508083  0.16753120  0.81103222  1
  O  O8  1  0.48925788  0.80887448  0.81172491  1
  O  O9  1  0.98969361  0.80940190  0.81161884  1
  O  O10  1  0.41654304  0.02322884  0.81044508  1
  O  O11  1  0.91663534  0.02345634  0.81024558  1
  O  O12  1  0.39795699  0.95815110  0.69384343  1
  O  O13  1  0.89793749  0.95812689  0.69374002  1
  O  O14  1  0.08030285  0.20691221  0.69531714  1
  O  O15  1  0.58021463  0.20689094  0.69531944  1
  O  O16  1  0.02167874  0.83884245  0.69529303  1
  O  O17  1  0.52156735  0.83883908  0.69538286  1
  O  O18  1  0.39710360  0.83330923  0.19207843  1
  O  O19  1  0.89748960  0.83667954  0.19351849  1
  O  O20  1  0.02076069  0.20571652  0.19374203  1
  O  O21  1  0.52024489  0.20488372  0.19316845  1
  O  O22  1  0.08222944  0.95765414  0.19329076  1
  O  O23  1  0.58139330  0.95751384  0.19351481  1
  O  O24  1  0.45840172  0.37821152  0.64263618  1
  O  O25  1  0.95843680  0.37813578  0.64267526  1
  O  O26  1  0.23107007  0.08325330  0.64266675  1
  O  O27  1  0.73106702  0.08369458  0.64269826  1
  O  O28  1  0.30850541  0.53383456  0.63952347  1
  O  O29  1  0.80852437  0.53372825  0.63940017  1
  O  O30  1  0.43584395  0.50002179  0.14079100  1
  O  O31  1  0.95748103  0.53730307  0.14219291  1
  O  O32  1  0.31444006  0.12964669  0.14087008  1
  O  O33  1  0.80874796  0.08448042  0.13897134  1
  O  O34  1  0.25021174  0.37318330  0.14072263  1
  O  O35  1  0.73129113  0.37684726  0.14226850  1
  O  O36  1  0.23066468  0.29468127  0.02557053  1
  O  O37  1  0.72956097  0.29608467  0.02648397  1
  O  O38  1  0.41620900  0.53853660  0.02559581  1
  O  O39  1  0.91964441  0.54098268  0.02643515  1
  O  O40  1  0.35269058  0.16631310  0.02551580  1
  O  O41  1  0.85180298  0.15992937  0.02386739  1
  O  O42  1  0.23065696  0.16417297  0.52693332  1
  O  O43  1  0.73043398  0.16424162  0.52696834  1
  O  O44  1  0.35179915  0.54226146  0.52442176  1
  O  O45  1  0.85185031  0.54199686  0.52420977  1
  O  O46  1  0.41814475  0.29743212  0.52691419  1
  O  O47  1  0.91826680  0.29786846  0.52688910  1
  O  O48  1  0.26939259  0.70488555  0.97471114  1
  O  O49  1  0.76812083  0.70220033  0.97249503  1
  O  O50  1  0.08491600  0.46426462  0.97290160  1
  O  O51  1  0.58229411  0.46443984  0.97214643  1
  O  O52  1  0.15051723  0.83462840  0.97246804  1
  O  O53  1  0.64720701  0.83137753  0.97270762  1
  O  O54  1  0.26927583  0.83491042  0.47163201  1
  O  O55  1  0.76898317  0.83547872  0.47211636  1
  O  O56  1  0.14877392  0.46182754  0.47230552  1
  O  O57  1  0.64856358  0.46340893  0.47078890  1
  O  O58  1  0.08321546  0.70287501  0.47084893  1
  O  O59  1  0.58209400  0.70350352  0.47229094  1
  O  O60  1  0.06280861  0.63069402  0.35582537  1
  O  O61  1  0.56149032  0.62551943  0.35886403  1
  O  O62  1  0.25136027  0.87493354  0.35764021  1
  O  O63  1  0.75151291  0.87680047  0.35867686  1
  O  O64  1  0.18689386  0.49641127  0.35857685  1
  O  O65  1  0.68458988  0.49386255  0.35581849  1
  O  O66  1  0.06185640  0.49463637  0.85801853  1
  O  O67  1  0.56125592  0.49395111  0.85752522  1
  O  O68  1  0.18573276  0.87783426  0.85739583  1
  O  O69  1  0.68513493  0.87649783  0.85773281  1
  O  O70  1  0.25123760  0.62723234  0.86020245  1
  O  O71  1  0.75192080  0.62604132  0.85894872  1
  O  O72  1  0.01347173  0.83811335  0.40902425  1
  O  O73  1  0.51109226  0.83584978  0.40988348  1
  O  O74  1  0.40532464  0.97315810  0.40909339  1
  O  O75  1  0.90665786  0.97624067  0.41001237  1
  O  O76  1  0.08243621  0.18768116  0.41081141  1
  O  O77  1  0.58005828  0.18767710  0.40855092  1
  O  O78  1  0.01221831  0.18805304  0.91115532  1
  O  O79  1  0.51171634  0.18771403  0.91117668  1
  O  O80  1  0.08221414  0.97579118  0.91142287  1
  O  O81  1  0.58143578  0.97511038  0.91142532  1
  O  O82  1  0.40551494  0.83704711  0.91172567  1
  O  O83  1  0.90607657  0.83632098  0.91100270  1
  O  O84  1  0.49065588  0.15945790  0.58634089  1
  O  O85  1  0.99079897  0.15965494  0.58637611  1
  O  O86  1  0.08933858  0.01959087  0.58670967  1
  O  O87  1  0.58930209  0.01968568  0.58676574  1
  O  O88  1  0.42038179  0.82102400  0.58580962  1
  O  O89  1  0.92032754  0.82076805  0.58575141  1
  O  O90  1  0.48455833  0.80924505  0.09071727  1
  O  O91  1  0.99291187  0.82465138  0.08641535  1
  O  O92  1  0.41861507  0.02762823  0.09122859  1
  O  O93  1  0.92117248  0.02013280  0.08552283  1
  O  O94  1  0.09570188  0.16515203  0.09110180  1
  O  O95  1  0.58798587  0.15496493  0.08654285  1
  O  O96  1  0.34405789  0.15045876  0.75192872  1
  O  O97  1  0.84397758  0.15045639  0.75185732  1
  O  O98  1  0.23183667  0.30504135  0.75310297  1
  O  O99  1  0.73177230  0.30509924  0.75310282  1
  O  O100  1  0.42315238  0.53076726  0.75372555  1
  O  O101  1  0.92326008  0.53088716  0.75375160  1
  O  O102  1  0.34678804  0.52230777  0.24186981  1
  O  O103  1  0.84437220  0.53789299  0.25213309  1
  O  O104  1  0.41287278  0.30564386  0.24201068  1
  O  O105  1  0.92581281  0.31688962  0.25370712  1
  O  O106  1  0.24000534  0.17463565  0.24172147  1
  O  O107  1  0.72908513  0.15472533  0.25333293  1
  O  O108  1  0.31981956  0.49431481  0.92496843  1
  O  O109  1  0.82066184  0.49343606  0.92458843  1
  O  O110  1  0.42667741  0.36075665  0.92375706  1
  O  O111  1  0.92770013  0.36168990  0.92419263  1
  O  O112  1  0.25359044  0.14683302  0.92383740  1
  O  O113  1  0.75278869  0.14529575  0.92420323  1
  O  O114  1  0.32067571  0.14659548  0.42368389  1
  O  O115  1  0.82065015  0.14767725  0.42443304  1
  O  O116  1  0.25342100  0.35867282  0.42390735  1
  O  O117  1  0.75223941  0.35895929  0.42302426  1
  O  O118  1  0.42637828  0.49223059  0.42379842  1
  O  O119  1  0.92749064  0.49466227  0.42302859  1
  O  O120  1  0.18133804  0.50638196  0.07523616  1
  O  O121  1  0.67057424  0.49907516  0.06969697  1
  O  O122  1  0.07953386  0.65265351  0.07030252  1
  O  O123  1  0.57119176  0.64127589  0.07501976  1
  O  O124  1  0.24882332  0.85745656  0.07558094  1
  O  O125  1  0.74764693  0.84017963  0.06876287  1
  O  O126  1  0.17191921  0.84250924  0.56889310  1
  O  O127  1  0.67197358  0.84249770  0.56925224  1
  O  O128  1  0.24939641  0.65821405  0.56807488  1
  O  O129  1  0.74910215  0.65733712  0.56796230  1
  O  O130  1  0.07879617  0.50235698  0.56904649  1
  O  O131  1  0.57888037  0.50175456  0.56890518  1
  O  O132  1  0.15314304  0.82876446  0.25660550  1
  O  O133  1  0.64305622  0.81202600  0.25903195  1
  O  O134  1  0.26235943  0.69709665  0.25683559  1
  O  O135  1  0.75977285  0.70606782  0.25842123  1
  O  O136  1  0.09393658  0.48079406  0.25760285  1
  O  O137  1  0.58522210  0.47259837  0.25748822  1
  O  O138  1  0.14506009  0.47567811  0.75943481  1
  O  O139  1  0.64486688  0.47559144  0.75934246  1
  O  O140  1  0.09207813  0.70775048  0.75860250  1
  O  O141  1  0.59200916  0.70783791  0.75867710  1
  O  O142  1  0.26077466  0.81258334  0.75854684  1
  O  O143  1  0.76070156  0.81291033  0.75835634  1
loop_
_geom_bond_atom_site_label_1
_geom_bond_atom_site_label_2
_geom_bond_distance
_geom_bond_site_symmetry_2
Na0 O107 2.276196 1_555
Na0 O137 2.297103 1_555
Na0 O103 2.347825 1_555
Na0 O35 2.427860 1_555
Na0 O135 2.510654 1_555
Na0 O65 2.592402 1_555
Na0 O21 2.717248 1_555
Na0 O1 2.862322 1_555
Na1 O105 2.306357 1_555
Na1 O103 2.326118 1_555
Na1 O132 2.329335 1_655
Na1 O31 2.429455 1_555
Na1 O136 2.525152 1_655
Na1 O60 2.601624 1_655
Na1 O22 2.700354 1_655
Na1 O3 2.839809 1_555
Na2 O138 2.257321 1_655
Na2 O101 2.286874 1_555
Na2 O97 2.296924 1_555
Na2 O25 2.360773 1_555
Na2 O140 2.546715 1_655
Na2 O14 2.662106 1_655
Na2 O66 2.694072 1_655
Na2 O11 2.885724 1_555
Na3 O139 2.253383 1_555
Na3 O100 2.287310 1_555
Na3 O96 2.297680 1_555
Na3 O24 2.359382 1_555
Na3 O141 2.546088 1_555
Na3 O15 2.660146 1_555
Na3 O67 2.682663 1_555
Na3 O10 2.891978 1_555
Na4 O140 2.245291 1_545
Na4 O98 2.265966 1_555
Na4 O96 2.314658 1_555
Na4 O26 2.364422 1_555
Na4 O142 2.528696 1_545
Na4 O68 2.664476 1_545
Na4 O16 2.686753 1_545
Na4 O6 2.919655 1_555
Na5 O141 2.245750 1_545
Na5 O99 2.266033 1_555
Na5 O97 2.311895 1_555
Na5 O27 2.366060 1_555
Na5 O143 2.524005 1_545
Na5 O69 2.671790 1_545
Na5 O17 2.689618 1_545
Na5 O7 2.920273 1_555
Na6 O89 2.378095 1_555
Na6 O85 2.385650 1_565
Na6 O86 2.398318 1_665
Na6 O76 2.456491 1_665
Na6 O75 2.461102 1_555
Na6 O72 2.482243 1_655
Na7 O88 2.385389 1_545
Na7 O84 2.391055 1_555
Na7 O87 2.397826 1_555
Na7 O73 2.457894 1_545
Na7 O77 2.478923 1_555
Na7 O74 2.485549 1_545
Na8 O93 2.346643 1_455
Na8 O91 2.366345 1_445
Na8 O80 2.465064 1_544
Na8 O78 2.465283 1_554
Na8 O83 2.470330 1_444
Na8 O94 2.503768 1_555
Na9 O95 2.348956 1_565
Na9 O82 2.466828 1_554
Na9 O81 2.467317 1_554
Na9 O90 2.473038 1_555
Na9 O79 2.477770 1_564
Na9 O92 2.486842 1_565
Na10 O100 2.363486 1_555
Na10 O98 2.382094 1_555
Na10 O108 2.433808 1_555
Na10 O110 2.480652 1_555
Na10 O112 2.481904 1_555
Na10 O96 2.500381 1_555
Na11 O101 2.371401 1_555
Na11 O99 2.390670 1_555
Na11 O109 2.410763 1_555
Na11 O113 2.488371 1_555
Na11 O111 2.488676 1_555
Na11 O97 2.506861 1_555
Na12 O116 2.450526 1_555
Na12 O118 2.453054 1_555
Na12 O114 2.465344 1_555
Na12 O104 2.507501 1_555
Na12 O106 2.513117 1_555
Na12 O102 2.515011 1_555
Na13 O105 2.386713 1_555
Na13 O115 2.406443 1_555
Na13 O107 2.406542 1_555
Na13 O119 2.476455 1_555
Na13 O117 2.478556 1_555
Na13 O103 2.511489 1_555
Na14 O120 2.453731 1_555
Na14 O124 2.476103 1_555
Na14 O134 2.482284 1_555
Na14 O136 2.485214 1_555
Na14 O132 2.522776 1_555
Na14 O122 2.551111 1_555
Na15 O123 2.479092 1_555
Na15 O125 2.491354 1_555
Na15 O133 2.498240 1_555
Na15 O135 2.517793 1_555
Na15 O121 2.582472 1_555
Na15 O137 2.599573 1_555
Na16 O128 2.437765 1_555
Na16 O130 2.498554 1_555
Na16 O126 2.511076 1_555
Na16 O142 2.560901 1_555
Na16 O138 2.593611 1_555
Na16 O140 2.648321 1_555
Na17 O129 2.439098 1_555
Na17 O131 2.502153 1_555
Na17 O127 2.504301 1_555
Na17 O143 2.557152 1_555
Na17 O139 2.592093 1_555
Na17 O141 2.650698 1_555
Ca0 O28 2.097128 1_555
Ca0 O24 2.161779 1_555
Ca0 O26 2.170191 1_555
Ca0 O98 2.239888 1_555
Ca0 O100 2.239984 1_555
Ca0 O96 2.312532 1_555
Ca1 O29 2.097480 1_555
Ca1 O25 2.161999 1_555
Ca1 O27 2.168868 1_555
Ca1 O101 2.240050 1_555
Ca1 O99 2.240584 1_555
Ca1 O97 2.310549 1_555
Ca2 O33 2.101794 1_555
Ca2 O31 2.177437 1_555
Ca2 O35 2.187219 1_555
Ca2 O105 2.230507 1_555
Ca2 O107 2.237699 1_555
Ca2 O103 2.292475 1_555
Ge0 O5 1.819976 1_455
Ge0 O3 1.852299 1_445
Ge0 O76 1.886515 1_555
Ge0 O72 1.897509 1_545
Ge0 O0 1.923419 1_555
Ge0 O75 1.942334 1_445
Ge1 O1 1.821364 1_565
Ge1 O74 1.872309 1_555
Ge1 O2 1.892945 1_555
Ge1 O4 1.918155 1_565
Ge1 O73 1.927514 1_555
Ge1 O77 1.945189 1_565
Ge2 O9 1.834659 1_555
Ge2 O11 1.845314 1_565
Ge2 O6 1.845542 1_665
Ge2 O83 1.899402 1_555
Ge2 O78 1.911243 1_665
Ge2 O80 1.919797 1_655
Ge3 O8 1.833582 1_555
Ge3 O7 1.844277 1_565
Ge3 O10 1.844663 1_565
Ge3 O81 1.910822 1_555
Ge3 O79 1.912855 1_565
Ge3 O82 1.913289 1_555
Ge4 O89 1.898935 1_555
Ge4 O85 1.905573 1_565
Ge4 O86 1.906895 1_665
Ge4 O13 1.925923 1_555
Ge4 O16 1.954514 1_655
Ge4 O14 1.983804 1_665
Ge5 O88 1.897864 1_555
Ge5 O87 1.903794 1_565
Ge5 O84 1.905251 1_565
Ge5 O12 1.928723 1_555
Ge5 O17 1.955029 1_555
Ge5 O15 1.982254 1_565
Ge6 O20 1.902245 1_655
Ge6 O19 1.912720 1_545
Ge6 O93 1.924479 1_555
Ge6 O94 1.934857 1_655
Ge6 O22 1.944130 1_645
Ge6 O91 1.944162 1_545
Ge7 O18 1.894898 1_555
Ge7 O23 1.900513 1_555
Ge7 O21 1.914324 1_565
Ge7 O90 1.920072 1_555
Ge7 O95 1.927802 1_565
Ge7 O92 1.938285 1_565
Ge8 O30 1.877730 1_555
Ge8 O34 1.881807 1_555
Ge8 O32 1.889340 1_555
Ge8 O102 1.926459 1_555
Ge8 O106 1.929205 1_555
Ge8 O104 1.936090 1_555
Ge9 O40 1.878932 1_556
Ge9 O38 1.879397 1_556
Ge9 O36 1.881139 1_556
Ge9 O108 1.938583 1_555
Ge9 O112 1.941086 1_555
Ge9 O110 1.941394 1_555
Ge10 O41 1.883222 1_556
Ge10 O37 1.896858 1_556
Ge10 O39 1.899314 1_556
Ge10 O109 1.951543 1_555
Ge10 O111 1.964554 1_555
Ge10 O113 1.968297 1_555
Ge11 O44 1.880848 1_555
Ge11 O46 1.893806 1_555
Ge11 O42 1.897003 1_555
Ge11 O118 1.947693 1_555
Ge11 O116 1.951460 1_555
Ge11 O114 1.965839 1_555
Ge12 O45 1.881211 1_555
Ge12 O43 1.896942 1_555
Ge12 O47 1.899750 1_555
Ge12 O115 1.942861 1_555
Ge12 O117 1.973282 1_555
Ge12 O119 1.974344 1_555
Ge13 O122 1.829267 1_555
Ge13 O48 1.860794 1_554
Ge13 O52 1.889684 1_554
Ge13 O50 1.901309 1_554
Ge13 O120 1.936255 1_555
Ge13 O124 1.938984 1_555
Ge14 O125 1.829490 1_555
Ge14 O121 1.843911 1_555
Ge14 O51 1.867505 1_554
Ge14 O53 1.877317 1_554
Ge14 O49 1.890980 1_554
Ge14 O123 1.964371 1_555
Ge15 O128 1.843769 1_555
Ge15 O126 1.858469 1_555
Ge15 O130 1.859673 1_555
Ge15 O56 1.871048 1_555
Ge15 O58 1.876301 1_555
Ge15 O54 1.878988 1_555
Ge16 O129 1.846948 1_555
Ge16 O127 1.861381 1_555
Ge16 O131 1.861865 1_555
Ge16 O55 1.870232 1_555
Ge16 O59 1.873380 1_555
Ge16 O57 1.877866 1_555
Ge17 O64 1.869291 1_555
Ge17 O62 1.871879 1_555
Ge17 O134 1.909685 1_555
Ge17 O136 1.915155 1_555
Ge17 O60 1.937508 1_555
Ge17 O132 2.002338 1_555
Ge18 O61 1.860603 1_555
Ge18 O63 1.872035 1_555
Ge18 O133 1.883284 1_555
Ge18 O65 1.918030 1_555
Ge18 O135 1.943922 1_555
Ge18 O137 2.015085 1_555
Ge19 O70 1.865076 1_555
Ge19 O66 1.900044 1_555
Ge19 O68 1.902512 1_555
Ge19 O142 1.911500 1_555
Ge19 O138 1.914661 1_555
Ge19 O140 1.969236 1_555
Ge20 O71 1.859328 1_555
Ge20 O69 1.903252 1_555
Ge20 O67 1.908211 1_555
Ge20 O143 1.909093 1_555
Ge20 O139 1.912836 1_555
Ge20 O141 1.975683 1_555
O0 P0 1.537445 1_555
O1 P1 1.551937 1_545
O2 P2 1.538855 1_555
O3 P3 1.545908 1_555
O4 P5 1.541176 1_555
O5 P4 1.533122 1_655
O6 P6 1.545111 1_555
O7 P7 1.546353 1_555
O8 P9 1.533860 1_555
O9 P8 1.532303 1_655
O10 P10 1.541752 1_545
O11 P11 1.540819 1_545
O12 P10 1.549103 1_555
O13 P11 1.549711 1_555
O14 P6 1.562900 1_555
O15 P7 1.563505 1_555
O16 P8 1.561742 1_555
O17 P9 1.560865 1_555
O18 P2 1.546199 1_555
O19 P3 1.555567 1_555
O20 P4 1.559015 1_555
O21 P5 1.557213 1_555
O22 P0 1.556827 1_565
O23 P1 1.561235 1_555
O24 P12 1.507123 1_555
O25 P13 1.506044 1_555
O26 P14 1.507506 1_555
O27 P15 1.506500 1_555
O28 P16 1.490373 1_555
O29 P17 1.488521 1_555
O30 P18 1.548491 1_555
O31 P19 1.501412 1_555
O32 P20 1.547109 1_555
O33 P21 1.484760 1_555
O34 P22 1.546664 1_555
O35 P23 1.502574 1_555
O36 P22 1.549920 1_555
O37 P23 1.566933 1_555
O38 P18 1.551106 1_555
O39 P19 1.564782 1_555
O40 P20 1.551811 1_555
O41 P21 1.569234 1_555
O42 P14 1.563073 1_555
O43 P15 1.563216 1_555
O44 P16 1.565244 1_555
O45 P17 1.568111 1_555
O46 P12 1.562899 1_555
O47 P13 1.562273 1_555
O48 P24 1.539819 1_555
O49 P25 1.525285 1_555
O50 P26 1.535154 1_555
O51 P27 1.527560 1_555
O52 P28 1.528584 1_555
O53 P29 1.533544 1_555
O54 P30 1.525015 1_555
O55 P31 1.527683 1_555
O56 P32 1.526451 1_555
O57 P33 1.527566 1_555
O58 P34 1.527594 1_555
O59 P35 1.528915 1_555
O60 P34 1.563641 1_555
O61 P35 1.553289 1_555
O62 P30 1.552580 1_555
O63 P31 1.555548 1_555
O64 P32 1.549979 1_555
O65 P33 1.569717 1_555
O66 P26 1.566798 1_555
O67 P27 1.560954 1_555
O68 P28 1.564983 1_555
O69 P29 1.566053 1_555
O70 P24 1.552046 1_555
O71 P25 1.557023 1_555
O72 P34 1.557161 1_555
O73 P35 1.551657 1_555
O74 P30 1.558384 1_555
O75 P31 1.550803 1_555
O76 P32 1.554300 1_555
O77 P33 1.553103 1_555
O78 P26 1.551434 1_555
O79 P27 1.549625 1_555
O80 P28 1.549213 1_555
O81 P29 1.552036 1_555
O82 P24 1.548973 1_555
O83 P25 1.552499 1_555
O84 P12 1.561983 1_555
O85 P13 1.562806 1_555
O86 P14 1.563487 1_555
O87 P15 1.564303 1_555
O88 P16 1.565319 1_555
O89 P17 1.567025 1_555
O90 P18 1.552981 1_555
O91 P19 1.561057 1_555
O92 P20 1.547091 1_555
O93 P21 1.570837 1_555
O94 P22 1.545890 1_555
O95 P23 1.570450 1_555
O96 P10 1.521580 1_545
O97 P11 1.520788 1_545
O98 P6 1.500283 1_555
O99 P7 1.498320 1_555
O100 P9 1.499881 1_555
O101 P8 1.498374 1_655
O102 P2 1.556075 1_555
O103 P3 1.521425 1_555
O104 P5 1.544419 1_555
O105 P4 1.508435 1_655
O106 P0 1.545291 1_555
O107 P1 1.508477 1_545
O108 P24 1.546310 1_555
O109 P25 1.549537 1_555
O110 P27 1.547238 1_555
O111 P26 1.548220 1_655
O112 P28 1.549274 1_545
O113 P29 1.546235 1_545
O114 P30 1.545921 1_545
O115 P31 1.553480 1_545
O116 P32 1.547501 1_555
O117 P33 1.551135 1_555
O118 P35 1.550955 1_555
O119 P34 1.547655 1_655
O120 P22 1.552866 1_555
O121 P23 1.547205 1_555
O122 P19 1.558108 1_455
O123 P18 1.543372 1_555
O124 P20 1.547998 1_565
O125 P21 1.555225 1_565
O126 P14 1.539834 1_565
O127 P15 1.539839 1_565
O128 P16 1.542019 1_555
O129 P17 1.542184 1_555
O130 P13 1.541398 1_455
O131 P12 1.540055 1_555
O132 P0 1.569066 1_565
O133 P1 1.550236 1_555
O134 P2 1.552911 1_555
O135 P3 1.565408 1_555
O136 P4 1.581859 1_555
O137 P5 1.562414 1_555
O138 P6 1.565950 1_555
O139 P7 1.565984 1_555
O140 P8 1.593938 1_555
O141 P9 1.592339 1_555
O142 P10 1.563210 1_555
O143 P11 1.563248 1_555
