# generated using pymatgen
data_Rb2SeO4
_symmetry_space_group_name_H-M   'P 1'
_cell_length_a   6.18968883
_cell_length_b   6.18986616
_cell_length_c   8.41772896
_cell_angle_alpha   90.01092356
_cell_angle_beta   90.01390954
_cell_angle_gamma   118.22074452
_symmetry_Int_Tables_number   1
_chemical_formula_structural   Rb2SeO4
_chemical_formula_sum   'Rb4 Se2 O8'
_cell_volume   284.17514952
_cell_formula_units_Z   2
loop_
 _symmetry_equiv_pos_site_id
 _symmetry_equiv_pos_as_xyz
  1  'x, y, z'
loop_
 _atom_site_type_symbol
 _atom_site_label
 _atom_site_symmetry_multiplicity
 _atom_site_fract_x
 _atom_site_fract_y
 _atom_site_fract_z
 _atom_site_occupancy
  Rb  Rb0  1  0.99409559  0.99392314  0.49487740  1
  Rb  Rb1  1  0.99390766  0.99407864  0.99486709  1
  Rb  Rb2  1  0.29453110  0.67817107  0.24466066  1
  Rb  Rb3  1  0.67813645  0.29448313  0.74459720  1
  Se  Se0  1  0.35162140  0.65367839  0.74460447  1
  Se  Se1  1  0.65370435  0.35163748  0.24459773  1
  O  O0  1  0.20964153  0.34907979  0.74466351  1
  O  O1  1  0.65253386  0.75325566  0.74485605  1
  O  O2  1  0.27644611  0.75822380  0.90430964  1
  O  O3  1  0.27683994  0.75795696  0.58461503  1
  O  O4  1  0.75793958  0.27691158  0.08461105  1
  O  O5  1  0.75824077  0.27644361  0.40428214  1
  O  O6  1  0.34912184  0.20970407  0.24467194  1
  O  O7  1  0.75323083  0.65244567  0.24486609  1
loop_
_geom_bond_atom_site_label_1
_geom_bond_atom_site_label_2
_geom_bond_distance
_geom_bond_site_symmetry_2
O0 Se0 1.661358 1_555
O0 Rb0 2.873486 1_445
O0 Rb1 2.876741 1_445
O0 Rb3 3.074099 1_555
O0 Rb3 3.144179 1_455
O1 Se0 1.662315 1_555
O1 Rb1 2.851955 1_555
O1 Rb0 2.853339 1_555
O1 Rb3 2.918021 1_555
O1 Rb3 3.278165 1_565
O2 Se0 1.651460 1_555
O2 Rb1 2.861053 1_455
O2 Rb2 2.918739 1_556
O2 Rb3 3.347481 1_565
O3 Se0 1.651424 1_555
O3 Rb0 2.860783 1_455
O3 Rb2 2.914731 1_555
O3 Rb3 3.347792 1_565
O4 Se1 1.651149 1_555
O4 Rb1 2.861328 1_544
O4 Rb3 2.915122 1_554
O4 Rb2 3.348157 1_655
O5 Se1 1.651291 1_555
O5 Rb0 2.861008 1_545
O5 Rb3 2.918497 1_555
O5 Rb2 3.347335 1_655
O6 Se1 1.661224 1_555
O6 Rb1 2.873783 1_444
O6 Rb0 2.876870 1_445
O6 Rb2 3.073983 1_555
O6 Rb2 3.144463 1_545
O7 Se1 1.661809 1_555
O7 Rb0 2.852364 1_555
O7 Rb1 2.853691 1_554
O7 Rb2 2.917882 1_555
O7 Rb2 3.278187 1_655
