# generated using pymatgen
data_Na6Y2In2Si3(SO8)3
_symmetry_space_group_name_H-M   'P 1'
_cell_length_a   9.33083236
_cell_length_b   9.32937017
_cell_length_c   23.07298235
_cell_angle_alpha   90.07557097
_cell_angle_beta   89.82498079
_cell_angle_gamma   120.04596240
_symmetry_Int_Tables_number   1
_chemical_formula_structural   Na6Y2In2Si3(SO8)3
_chemical_formula_sum   'Na18 Y6 In6 Si9 S9 O72'
_cell_volume   1738.61615195
_cell_formula_units_Z   3
loop_
 _symmetry_equiv_pos_site_id
 _symmetry_equiv_pos_as_xyz
  1  'x, y, z'
loop_
 _atom_site_type_symbol
 _atom_site_label
 _atom_site_symmetry_multiplicity
 _atom_site_fract_x
 _atom_site_fract_y
 _atom_site_fract_z
 _atom_site_occupancy
  Na  Na0  1  0.63469097  0.01438532  0.26063508  1
  Na  Na1  1  0.33920960  0.33923351  0.25372663  1
  Na  Na2  1  0.65427525  0.65783170  0.73462981  1
  Na  Na3  1  0.98691657  0.36818892  0.74731366  1
  Na  Na4  1  0.01037437  0.67796094  0.59482580  1
  Na  Na5  1  0.67987833  0.97209287  0.58069496  1
  Na  Na6  1  0.31536984  0.96784929  0.09897316  1
  Na  Na7  1  0.02335813  0.31746958  0.08102769  1
  Na  Na8  1  0.96937678  0.65384306  0.89583284  1
  Na  Na9  1  0.71495119  0.04846075  0.90691158  1
  Na  Na10  1  0.95011083  0.28582474  0.42716977  1
  Na  Na11  1  0.34676488  0.02686698  0.41068282  1
  Na  Na12  1  0.96219392  0.99282232  0.50748134  1
  Na  Na13  1  0.98910593  0.01718120  0.99680357  1
  Na  Na14  1  0.66395841  0.32046232  0.82355623  1
  Na  Na15  1  0.67756821  0.32134900  0.33205166  1
  Na  Na16  1  0.32327363  0.67391006  0.17178402  1
  Na  Na17  1  0.33272332  0.66535686  0.66431417  1
  Y  Y0  1  0.98445358  0.99285293  0.34979726  1
  Y  Y1  1  0.99344880  0.00016884  0.65231423  1
  Y  Y2  1  0.67609553  0.34024366  0.68305743  1
  Y  Y3  1  0.66761331  0.31948935  0.18289417  1
  Y  Y4  1  0.66728898  0.33704723  0.48762549  1
  Y  Y5  1  0.32723638  0.67840323  0.31286049  1
  In  In0  1  0.00029324  0.01132153  0.84606066  1
  In  In1  1  0.99213688  0.00107654  0.15146753  1
  In  In2  1  0.68316428  0.32826639  0.98394552  1
  In  In3  1  0.33646137  0.65950946  0.01380282  1
  In  In4  1  0.35379445  0.66373668  0.52060436  1
  In  In5  1  0.32168019  0.67051724  0.81467054  1
  Si  Si0  1  0.29214829  0.99890931  0.24584517  1
  Si  Si1  1  0.00409826  0.30264433  0.24576917  1
  Si  Si2  1  0.99992928  0.70192257  0.75463191  1
  Si  Si3  1  0.68986694  0.99646092  0.75635519  1
  Si  Si4  1  0.98157364  0.34137593  0.57974987  1
  Si  Si5  1  0.66577148  0.64017410  0.58769580  1
  Si  Si6  1  0.66369896  0.01684221  0.07996572  1
  Si  Si7  1  0.04124897  0.36841499  0.91991951  1
  Si  Si8  1  0.63273068  0.97017856  0.41736982  1
  S  S0  1  0.69543391  0.69606274  0.24686848  1
  S  S1  1  0.30204439  0.30223027  0.75496634  1
  S  S2  1  0.36254734  0.02893200  0.58046988  1
  S  S3  1  0.96866671  0.63937032  0.07897843  1
  S  S4  1  0.37328063  0.33355850  0.08001023  1
  S  S5  1  0.63685775  0.66120840  0.91867447  1
  S  S6  1  0.33481403  0.96902222  0.92162796  1
  S  S7  1  0.33184974  0.36556152  0.41303368  1
  S  S8  1  0.03619109  0.66705025  0.42021851  1
  O  O0  1  0.19698395  0.00484500  0.30462327  1
  O  O1  1  0.79490715  0.77260516  0.29955961  1
  O  O2  1  0.97554215  0.18024029  0.30100406  1
  O  O3  1  0.22930143  0.20891160  0.80958872  1
  O  O4  1  0.99585137  0.79934678  0.81496004  1
  O  O5  1  0.80442000  0.03579782  0.81574637  1
  O  O6  1  0.78393484  0.97243654  0.70039077  1
  O  O7  1  0.19717467  0.21567326  0.70427107  1
  O  O8  1  0.01535481  0.80793523  0.69704788  1
  O  O9  1  0.77521061  0.79763618  0.19442603  1
  O  O10  1  0.02611132  0.22331302  0.18424448  1
  O  O11  1  0.18784168  0.98028145  0.18535760  1
  O  O12  1  0.89029230  0.36759312  0.63712094  1
  O  O13  1  0.47345981  0.12638545  0.62836567  1
  O  O14  1  0.65177471  0.54341171  0.64795482  1
  O  O15  1  0.87305487  0.53469031  0.12874393  1
  O  O16  1  0.62814149  0.10407087  0.13591168  1
  O  O17  1  0.46020686  0.34718027  0.13503067  1
  O  O18  1  0.47234881  0.33197576  0.02963929  1
  O  O19  1  0.87786654  0.56751816  0.02374277  1
  O  O20  1  0.70443889  0.13904650  0.02251242  1
  O  O21  1  0.43234479  0.11302392  0.52389193  1
  O  O22  1  0.67004295  0.53313022  0.53259845  1
  O  O23  1  0.86534978  0.30987594  0.52168457  1
  O  O24  1  0.55633737  0.68784303  0.97046056  1
  O  O25  1  0.13451730  0.44687506  0.98268840  1
  O  O26  1  0.31402125  0.87196083  0.97589266  1
  O  O27  1  0.52829826  0.86771196  0.47522437  1
  O  O28  1  0.30952298  0.45072979  0.46392412  1
  O  O29  1  0.13033127  0.67944103  0.47310426  1
  O  O30  1  0.11977371  0.64702398  0.36834613  1
  O  O31  1  0.53468266  0.88005051  0.35710410  1
  O  O32  1  0.34357836  0.45515150  0.35865793  1
  O  O33  1  0.13600646  0.49611491  0.86637875  1
  O  O34  1  0.36883935  0.88927517  0.87150170  1
  O  O35  1  0.54272283  0.64345803  0.86529709  1
  O  O36  1  0.02812844  0.82216611  0.41539430  1
  O  O37  1  0.82241205  0.99975910  0.42046228  1
  O  O38  1  0.18123906  0.19512257  0.41246625  1
  O  O39  1  0.01108048  0.17788886  0.91481333  1
  O  O40  1  0.18148840  0.97773678  0.91515421  1
  O  O41  1  0.80790898  0.81117396  0.91683621  1
  O  O42  1  0.99734466  0.17593779  0.58521821  1
  O  O43  1  0.19413469  0.00585563  0.58632335  1
  O  O44  1  0.84057041  0.81965763  0.58468963  1
  O  O45  1  0.00045899  0.81191804  0.08314776  1
  O  O46  1  0.83681309  0.00780899  0.08538745  1
  O  O47  1  0.20979764  0.17464496  0.07804219  1
  O  O48  1  0.66773231  0.15814866  0.74913505  1
  O  O49  1  0.47025421  0.32730768  0.74950554  1
  O  O50  1  0.82536679  0.52048637  0.75512091  1
  O  O51  1  0.66821182  0.52658430  0.24171831  1
  O  O52  1  0.83663377  0.31904645  0.24595068  1
  O  O53  1  0.47086769  0.17747079  0.24569811  1
  O  O54  1  0.65599796  0.51166501  0.92518419  1
  O  O55  1  0.85299349  0.35514345  0.91876681  1
  O  O56  1  0.48385131  0.13913680  0.92526124  1
  O  O57  1  0.64492827  0.15529915  0.41514875  1
  O  O58  1  0.47908389  0.34448153  0.41732516  1
  O  O59  1  0.86670450  0.51881959  0.42019985  1
  O  O60  1  0.34119440  0.47507139  0.07802669  1
  O  O61  1  0.13290960  0.64477195  0.07968888  1
  O  O62  1  0.48716767  0.83711819  0.07440403  1
  O  O63  1  0.34914344  0.86252725  0.58175511  1
  O  O64  1  0.51430648  0.68288771  0.58653886  1
  O  O65  1  0.15604425  0.52044221  0.57532039  1
  O  O66  1  0.33942603  0.85103985  0.24585190  1
  O  O67  1  0.53062058  0.68447188  0.25174658  1
  O  O68  1  0.17835616  0.47807344  0.25072791  1
  O  O69  1  0.31171693  0.46760004  0.75684878  1
  O  O70  1  0.15055940  0.65719705  0.75393022  1
  O  O71  1  0.51814533  0.81463681  0.76154841  1
loop_
_geom_bond_atom_site_label_1
_geom_bond_atom_site_label_2
_geom_bond_distance
_geom_bond_site_symmetry_2
Na0 O66 2.414354 1_545
Na0 O31 2.493854 1_545
Na0 O52 2.525764 1_555
Na0 O53 2.665318 1_555
Na0 O67 2.732211 1_545
Na0 O2 2.909157 1_555
Na0 O16 3.007298 1_555
Na1 O53 2.382308 1_555
Na1 O68 2.425473 1_555
Na1 O32 2.642413 1_555
Na1 O51 2.679326 1_555
Na1 O67 2.793789 1_555
Na1 O17 2.945893 1_555
Na1 O0 2.954101 1_555
Na1 O10 3.022391 1_555
Na2 O14 2.260342 1_555
Na2 O71 2.448014 1_555
Na2 O50 2.543340 1_555
Na2 O6 2.673351 1_555
Na2 O49 2.696612 1_555
Na2 O69 2.817980 1_555
Na3 O70 2.345692 1_655
Na3 O50 2.542809 1_555
Na3 O48 2.620478 1_555
Na3 O69 2.698575 1_655
Na3 O12 2.699261 1_555
Na4 O65 2.490852 1_555
Na4 O44 2.532405 1_455
Na4 O8 2.640463 1_555
Na4 O43 2.661454 1_565
Na4 O12 2.709949 1_455
Na4 O63 2.755513 1_555
Na5 O64 2.347394 1_555
Na5 O44 2.532900 1_555
Na5 O42 2.600470 1_565
Na5 O63 2.722092 1_555
Na5 O27 2.739764 1_555
Na5 O6 2.929704 1_555
Na6 O11 2.350566 1_555
Na6 O62 2.515746 1_555
Na6 O45 2.570663 1_555
Na6 O47 2.614228 1_565
Na6 O61 2.654011 1_555
Na6 O16 2.675243 1_565
Na6 O26 2.974447 1_554
Na7 O46 2.519922 1_455
Na7 O25 2.533870 1_554
Na7 O10 2.544093 1_555
Na7 O60 2.567944 1_555
Na7 O47 2.669604 1_555
Na7 O61 2.691517 1_555
Na7 O20 2.916717 1_455
Na8 O4 2.248033 1_555
Na8 O55 2.488946 1_555
Na8 O41 2.620567 1_555
Na8 O54 2.621948 1_555
Na8 O40 2.694383 1_655
Na8 O33 2.706756 1_655
Na9 O5 2.285338 1_555
Na9 O39 2.405740 1_655
Na9 O55 2.495950 1_555
Na9 O56 2.713840 1_555
Na9 O41 2.762382 1_545
Na9 O20 2.813103 1_556
Na9 O34 2.917685 1_545
Na10 O37 2.319893 1_545
Na10 O23 2.365873 1_555
Na10 O57 2.490013 1_555
Na10 O59 2.655598 1_555
Na10 O38 2.702659 1_655
Na11 O57 2.418620 1_555
Na11 O58 2.581570 1_555
Na11 O36 2.609838 1_545
Na11 O38 2.697851 1_555
Na11 O21 2.733333 1_555
Na11 O0 2.777737 1_555
Na12 O44 2.287046 1_555
Na12 O42 2.382758 1_565
Na12 O37 2.416076 1_555
Na12 O43 2.787059 1_665
Na12 O36 2.896849 1_655
Na12 O38 2.943851 1_665
Na13 O39 2.359230 1_655
Na13 O46 2.462265 1_556
Na13 O41 2.590831 1_545
Na13 O47 2.626592 1_656
Na13 O40 2.746966 1_645
Na13 O45 2.803887 1_646
Na14 O48 2.299774 1_555
Na14 O50 2.328670 1_555
Na14 O49 2.514916 1_555
Na14 O55 2.737164 1_555
Na14 O56 2.886550 1_555
Na14 O54 2.967560 1_555
Na15 O57 2.387558 1_555
Na15 O52 2.482692 1_555
Na15 O53 2.629704 1_555
Na15 O59 2.720531 1_555
Na15 O58 2.779306 1_555
Na15 O51 2.863028 1_555
Na16 O66 2.327829 1_555
Na16 O68 2.450313 1_555
Na16 O67 2.643332 1_555
Na16 O61 2.698560 1_555
Na16 O62 2.713240 1_555
Na16 O60 2.906314 1_555
Na17 O64 2.412974 1_555
Na17 O65 2.557984 1_555
Na17 O63 2.600185 1_555
Na17 O70 2.649473 1_555
Na17 O71 2.751139 1_555
Na17 O69 2.765211 1_555
In0 O5 2.075538 1_455
In0 O4 2.083716 1_445
In0 O3 2.172768 1_555
In0 O39 2.186145 1_555
In0 O41 2.451386 1_445
In0 O40 2.458934 1_545
In1 O10 2.076117 1_655
In1 O11 2.085081 1_645
In1 O46 2.129302 1_555
In1 O9 2.197136 1_545
In1 O45 2.394638 1_645
In1 O47 2.511958 1_655
In2 O20 2.074531 1_556
In2 O55 2.103364 1_555
In2 O18 2.244448 1_556
In2 O19 2.251643 1_556
In2 O56 2.264607 1_555
In2 O54 2.296187 1_555
In3 O25 2.064599 1_554
In3 O62 2.085837 1_555
In3 O24 2.173524 1_554
In3 O26 2.271276 1_554
In3 O60 2.289495 1_555
In3 O61 2.378793 1_555
In4 O27 2.064179 1_555
In4 O65 2.075022 1_555
In4 O64 2.081987 1_555
In4 O28 2.237048 1_555
In4 O63 2.346366 1_555
In4 O29 2.427045 1_555
In5 O71 2.047698 1_555
In5 O33 2.059603 1_555
In5 O70 2.084106 1_555
In5 O34 2.274945 1_555
In5 O69 2.278194 1_555
In5 O35 2.493801 1_555
O0 Si0 1.634769 1_545
O0 Y0 2.190214 1_445
O1 S0 1.479979 1_555
O1 Y0 2.249619 1_555
O2 Si1 1.642041 1_655
O2 Y0 2.117051 1_545
O3 S1 1.487595 1_555
O4 Si2 1.672141 1_555
O5 Si3 1.664270 1_545
O6 Si3 1.636255 1_555
O6 Y1 2.144812 1_565
O7 S1 1.480203 1_555
O7 Y1 2.296355 1_455
O8 Si2 1.619851 1_455
O8 Y1 2.167187 1_465
O9 S0 1.485713 1_555
O10 Si1 1.659149 1_555
O11 Si0 1.662382 1_555
O12 Si4 1.654805 1_555
O12 Y2 2.158731 1_555
O13 S2 1.476819 1_555
O13 Y2 2.319130 1_555
O14 Si5 1.627639 1_555
O14 Y2 2.176243 1_555
O15 S3 1.480654 1_555
O15 Y3 2.324761 1_555
O16 Si6 1.644258 1_555
O16 Y3 2.145974 1_555
O17 S4 1.479278 1_555
O17 Y3 2.355013 1_555
O18 S4 1.487447 1_555
O19 S3 1.492318 1_555
O20 Si6 1.663878 1_555
O21 S2 1.493190 1_555
O21 Y4 2.297700 1_555
O22 Si5 1.628249 1_555
O22 Y4 2.090917 1_555
O23 Si4 1.657114 1_555
O23 Y4 2.139088 1_555
O24 S5 1.494859 1_555
O25 Si7 1.660614 1_555
O26 S6 1.500272 1_555
O27 Si8 1.645564 1_555
O28 S7 1.488379 1_555
O29 S8 1.475947 1_555
O30 S8 1.488360 1_555
O30 Y5 2.211411 1_555
O31 Si8 1.646777 1_555
O31 Y5 2.165277 1_555
O32 S7 1.481535 1_555
O32 Y5 2.408880 1_555
O33 Si7 1.633876 1_555
O34 S6 1.491299 1_555
O35 S5 1.475170 1_555
O36 S8 1.490551 1_555
O36 Y0 2.377503 1_455
O37 Si8 1.650864 1_555
O37 Y0 2.242952 1_555
O38 S7 1.505274 1_555
O38 Y0 2.358505 1_445
O39 Si7 1.658670 1_555
O40 S6 1.481050 1_555
O41 S5 1.506733 1_555
O42 Si4 1.627216 1_555
O42 Y1 2.243569 1_555
O43 S2 1.481210 1_555
O43 Y1 2.389761 1_455
O44 Si5 1.653363 1_555
O44 Y1 2.215060 1_565
O45 S3 1.486659 1_455
O46 Si6 1.664188 1_555
O47 S4 1.504179 1_555
O48 Si3 1.630542 1_545
O48 Y2 2.256080 1_555
O49 S1 1.471467 1_555
O49 Y2 2.409251 1_555
O50 Si2 1.660537 1_555
O50 Y2 2.278952 1_555
O51 S0 1.475167 1_555
O51 Y3 2.357404 1_555
O52 Si1 1.644536 1_655
O52 Y3 2.150480 1_555
O53 Si0 1.665574 1_545
O53 Y3 2.185991 1_555
O54 S5 1.500371 1_555
O55 Si7 1.698262 1_655
O56 S6 1.499980 1_545
O57 Si8 1.673820 1_545
O57 Y4 2.314173 1_555
O58 S7 1.485696 1_555
O58 Y4 2.420622 1_555
O59 S8 1.491098 1_655
O59 Y4 2.363843 1_555
O60 S4 1.493581 1_555
O61 S3 1.508061 1_455
O62 Si6 1.666157 1_565
O63 S2 1.494086 1_565
O64 Si5 1.649586 1_555
O65 Si4 1.651527 1_455
O66 Si0 1.645332 1_555
O66 Y5 2.195309 1_555
O67 S0 1.490563 1_555
O67 Y5 2.338639 1_555
O68 Si1 1.634407 1_555
O68 Y5 2.209783 1_555
O69 S1 1.500221 1_555
O70 Si2 1.654367 1_455
O71 Si3 1.654321 1_555
