# generated using pymatgen
data_NaAsSe2
_symmetry_space_group_name_H-M   'P 1'
_cell_length_a   5.81843369
_cell_length_b   11.89600455
_cell_length_c   24.28358532
_cell_angle_alpha   90.00000000
_cell_angle_beta   90.00000000
_cell_angle_gamma   90.00000000
_symmetry_Int_Tables_number   1
_chemical_formula_structural   NaAsSe2
_chemical_formula_sum   'Na16 As16 Se32'
_cell_volume   1680.81540134
_cell_formula_units_Z   16
loop_
 _symmetry_equiv_pos_site_id
 _symmetry_equiv_pos_as_xyz
  1  'x, y, z'
loop_
 _atom_site_type_symbol
 _atom_site_label
 _atom_site_symmetry_multiplicity
 _atom_site_fract_x
 _atom_site_fract_y
 _atom_site_fract_z
 _atom_site_occupancy
  Na  Na0  1  0.70591549  0.12360156  0.74769659  1
  Na  Na1  1  0.23807796  0.37300874  0.49832478  1
  Na  Na2  1  0.76192204  0.12699126  0.99832478  1
  Na  Na3  1  0.26192204  0.87300874  0.50167522  1
  Na  Na4  1  0.26192204  0.37300874  0.99832478  1
  Na  Na5  1  0.76192204  0.62699126  0.50167522  1
  Na  Na6  1  0.23807796  0.87300874  0.00167522  1
  Na  Na7  1  0.73807796  0.12699126  0.49832478  1
  Na  Na8  1  0.70591549  0.62360156  0.75230341  1
  Na  Na9  1  0.20591549  0.37639844  0.74769659  1
  Na  Na10  1  0.79408451  0.12360156  0.24769659  1
  Na  Na11  1  0.29408451  0.87639844  0.25230341  1
  Na  Na12  1  0.29408451  0.37639844  0.24769659  1
  Na  Na13  1  0.79408451  0.62360156  0.25230341  1
  Na  Na14  1  0.20591549  0.87639844  0.75230341  1
  Na  Na15  1  0.73807796  0.62699126  0.00167522  1
  As  As0  1  0.29056120  0.64441365  0.61193282  1
  As  As1  1  0.70943880  0.85558635  0.11193282  1
  As  As2  1  0.20943880  0.14441365  0.38806718  1
  As  As3  1  0.20943880  0.64441365  0.11193282  1
  As  As4  1  0.70943880  0.35558635  0.38806718  1
  As  As5  1  0.29056120  0.14441365  0.88806718  1
  As  As6  1  0.79056120  0.85558635  0.61193282  1
  As  As7  1  0.76854915  0.35510913  0.13899717  1
  As  As8  1  0.26854915  0.64489087  0.36100283  1
  As  As9  1  0.73145085  0.85510913  0.86100283  1
  As  As10  1  0.23145085  0.14489087  0.63899717  1
  As  As11  1  0.23145085  0.64489087  0.86100283  1
  As  As12  1  0.73145085  0.35510913  0.63899717  1
  As  As13  1  0.26854915  0.14489087  0.13899717  1
  As  As14  1  0.79056120  0.35558635  0.88806718  1
  As  As15  1  0.76854915  0.85510913  0.36100283  1
  Se  Se0  1  0.21124415  0.84532583  0.62822418  1
  Se  Se1  1  0.26182213  0.12378024  0.98313676  1
  Se  Se2  1  0.73817787  0.37621976  0.48313676  1
  Se  Se3  1  0.23817787  0.62378024  0.01686324  1
  Se  Se4  1  0.23817787  0.12378024  0.48313676  1
  Se  Se5  1  0.73817787  0.87621976  0.01686324  1
  Se  Se6  1  0.26182213  0.62378024  0.51686324  1
  Se  Se7  1  0.76182213  0.37621976  0.98313676  1
  Se  Se8  1  0.70633329  0.87406938  0.76575019  1
  Se  Se9  1  0.20633329  0.12593062  0.73424981  1
  Se  Se10  1  0.79366671  0.37406938  0.23424981  1
  Se  Se11  1  0.29366671  0.62593062  0.26575019  1
  Se  Se12  1  0.29366671  0.12593062  0.23424981  1
  Se  Se13  1  0.79366671  0.87406938  0.26575019  1
  Se  Se14  1  0.20633329  0.62593062  0.76575019  1
  Se  Se15  1  0.70633329  0.37406938  0.73424981  1
  Se  Se16  1  0.71124415  0.15467417  0.87177582  1
  Se  Se17  1  0.78875585  0.65467417  0.12822418  1
  Se  Se18  1  0.28875585  0.34532583  0.37177582  1
  Se  Se19  1  0.28875585  0.84532583  0.12822418  1
  Se  Se20  1  0.78875585  0.15467417  0.37177582  1
  Se  Se21  1  0.21124415  0.34532583  0.87177582  1
  Se  Se22  1  0.71124415  0.65467417  0.62822418  1
  Se  Se23  1  0.65171438  0.15451973  0.62196480  1
  Se  Se24  1  0.15171438  0.84548027  0.87803520  1
  Se  Se25  1  0.84828562  0.65451973  0.37803520  1
  Se  Se26  1  0.34828562  0.34548027  0.12196480  1
  Se  Se27  1  0.34828562  0.84548027  0.37803520  1
  Se  Se28  1  0.84828562  0.15451973  0.12196480  1
  Se  Se29  1  0.15171438  0.34548027  0.62196480  1
  Se  Se30  1  0.65171438  0.65451973  0.87803520  1
  Se  Se31  1  0.76182213  0.87621976  0.51686324  1
loop_
_geom_bond_atom_site_label_1
_geom_bond_atom_site_label_2
_geom_bond_distance
_geom_bond_site_symmetry_2
Na0 Se9 2.925200 1_555
Na0 Se9 2.930032 1_655
Na0 Se15 2.997407 1_555
Na0 Se8 3.000636 1_545
Na0 Se16 3.035836 1_555
Na0 Se23 3.091420 1_555
Na1 Se2 2.932175 1_455
Na1 Se2 2.933328 1_555
Na1 Se4 2.987676 1_555
Na1 Se6 3.020117 1_555
Na1 Se29 3.061747 1_555
Na1 Se18 3.104691 1_555
Na2 Se1 2.932175 1_655
Na2 Se1 2.933328 1_555
Na2 Se7 2.987676 1_555
Na2 Se5 3.020117 1_546
Na2 Se28 3.061747 1_556
Na2 Se16 3.104691 1_555
Na3 Se31 2.932175 1_555
Na3 Se31 2.933328 1_455
Na3 Se6 2.987676 1_555
Na3 Se4 3.020117 1_565
Na3 Se27 3.061747 1_555
Na3 Se0 3.104691 1_555
Na4 Se7 2.932175 1_555
Na4 Se7 2.933328 1_455
Na4 Se1 2.987676 1_555
Na4 Se3 3.020117 1_556
Na4 Se26 3.061747 1_556
Na4 Se21 3.104691 1_555
Na5 Se6 2.932175 1_655
Na5 Se6 2.933328 1_555
Na5 Se31 2.987676 1_555
Na5 Se2 3.020117 1_555
Na5 Se25 3.061747 1_555
Na5 Se22 3.104691 1_555
Na6 Se5 2.932175 1_455
Na6 Se5 2.933328 1_555
Na6 Se3 2.987676 1_555
Na6 Se1 3.020117 1_564
Na6 Se24 3.061747 1_554
Na6 Se19 3.104691 1_555
Na7 Se4 2.932175 1_555
Na7 Se4 2.933328 1_655
Na7 Se2 2.987676 1_555
Na7 Se31 3.020117 1_545
Na7 Se23 3.061747 1_555
Na7 Se20 3.104691 1_555
Na8 Se14 2.925200 1_555
Na8 Se14 2.930032 1_655
Na8 Se8 2.997407 1_555
Na8 Se15 3.000636 1_555
Na8 Se22 3.035836 1_555
Na8 Se30 3.091420 1_555
Na9 Se15 2.925200 1_455
Na9 Se15 2.930032 1_555
Na9 Se9 2.997407 1_555
Na9 Se14 3.000636 1_555
Na9 Se21 3.035836 1_555
Na9 Se29 3.091420 1_555
Na10 Se12 2.925200 1_655
Na10 Se12 2.930032 1_555
Na10 Se10 2.997407 1_555
Na10 Se13 3.000636 1_545
Na10 Se20 3.035836 1_555
Na10 Se28 3.091420 1_555
Na11 Se13 2.925200 1_555
Na11 Se13 2.930032 1_455
Na11 Se11 2.997407 1_555
Na11 Se12 3.000636 1_565
Na11 Se19 3.035836 1_555
Na11 Se27 3.091420 1_555
Na12 Se10 2.925200 1_555
Na12 Se10 2.930032 1_455
Na12 Se12 2.997407 1_555
Na12 Se11 3.000636 1_555
Na12 Se18 3.035836 1_555
Na12 Se26 3.091420 1_555
Na13 Se11 2.925200 1_655
Na13 Se11 2.930032 1_555
Na13 Se13 2.997407 1_555
Na13 Se10 3.000636 1_555
Na13 Se17 3.035836 1_555
Na13 Se25 3.091420 1_555
Na14 Se8 2.925200 1_455
Na14 Se8 2.930032 1_555
Na14 Se14 2.997407 1_555
Na14 Se9 3.000636 1_565
Na14 Se0 3.035836 1_555
Na14 Se24 3.091420 1_555
Na15 Se3 2.932175 1_555
Na15 Se3 2.933328 1_655
Na15 Se5 2.987676 1_555
Na15 Se7 3.020117 1_554
Na15 Se30 3.061747 1_554
Na15 Se17 3.104691 1_555
As0 Se6 2.327656 1_555
As0 Se0 2.466139 1_555
As0 Se22 2.482483 1_555
As1 Se5 2.327656 1_555
As1 Se17 2.466139 1_555
As1 Se19 2.482483 1_555
As2 Se4 2.327656 1_555
As2 Se18 2.466139 1_555
As2 Se20 2.482483 1_455
As3 Se3 2.327656 1_555
As3 Se19 2.466139 1_555
As3 Se17 2.482483 1_455
As4 Se2 2.327656 1_555
As4 Se20 2.466139 1_555
As4 Se18 2.482483 1_555
As5 Se1 2.327656 1_555
As5 Se21 2.466139 1_555
As5 Se16 2.482483 1_555
As6 Se31 2.327656 1_555
As6 Se22 2.466139 1_555
As6 Se0 2.482483 1_655
As7 Se10 2.328637 1_555
As7 Se28 2.465831 1_555
As7 Se26 2.482653 1_555
As8 Se11 2.328637 1_555
As8 Se27 2.465831 1_555
As8 Se25 2.482653 1_455
As9 Se8 2.328637 1_555
As9 Se30 2.465831 1_555
As9 Se24 2.482653 1_655
As10 Se9 2.328637 1_555
As10 Se29 2.465831 1_555
As10 Se23 2.482653 1_555
As11 Se14 2.328637 1_555
As11 Se24 2.465831 1_555
As11 Se30 2.482653 1_555
As12 Se15 2.328637 1_555
As12 Se23 2.465831 1_555
As12 Se29 2.482653 1_655
As13 Se12 2.328637 1_555
As13 Se26 2.465831 1_555
As13 Se28 2.482653 1_455
As14 Se7 2.327656 1_555
As14 Se16 2.466139 1_555
As14 Se21 2.482483 1_655
As15 Se13 2.328637 1_555
As15 Se25 2.465831 1_555
As15 Se27 2.482653 1_555
