# generated using pymatgen
data_EuAl9Co2
_symmetry_space_group_name_H-M   'P 1'
_cell_length_a   7.80898135
_cell_length_b   7.80905128
_cell_length_c   3.87869199
_cell_angle_alpha   90.00000000
_cell_angle_beta   90.00000000
_cell_angle_gamma   120.00030019
_symmetry_Int_Tables_number   1
_chemical_formula_structural   EuAl9Co2
_chemical_formula_sum   'Eu1 Al9 Co2'
_cell_volume   204.83646480
_cell_formula_units_Z   1
loop_
 _symmetry_equiv_pos_site_id
 _symmetry_equiv_pos_as_xyz
  1  'x, y, z'
loop_
 _atom_site_type_symbol
 _atom_site_label
 _atom_site_symmetry_multiplicity
 _atom_site_fract_x
 _atom_site_fract_y
 _atom_site_fract_z
 _atom_site_occupancy
  Eu  Eu0  1  -0.00000000  -0.00000000  0.00000000  1
  Al  Al0  1  0.78585087  0.57169773  0.50000000  1
  Al  Al1  1  0.21414913  0.78584787  0.50000000  1
  Al  Al2  1  0.57169873  0.78584987  0.50000000  1
  Al  Al3  1  0.50000000  -0.00000000  0.00000000  1
  Al  Al4  1  0.50000000  0.50000000  0.00000000  1
  Al  Al5  1  -0.00000000  0.50000000  0.00000000  1
  Al  Al6  1  0.21414913  0.42830227  0.50000000  1
  Al  Al7  1  0.78585087  0.21415213  0.50000000  1
  Al  Al8  1  0.42830127  0.21415013  0.50000000  1
  Co  Co0  1  0.66666900  0.33333400  0.00000000  1
  Co  Co1  1  0.33333100  0.66666600  0.00000000  1
loop_
_geom_bond_atom_site_label_1
_geom_bond_atom_site_label_2
_geom_bond_distance
_geom_bond_site_symmetry_2
Al0 Co0 2.521833 1_555
Al0 Co0 2.521833 1_556
Al0 Eu0 3.485821 1_665
Al0 Eu0 3.485821 1_666
Al1 Co1 2.521833 1_556
Al1 Co1 2.521833 1_555
Al1 Eu0 3.485815 1_565
Al1 Eu0 3.485815 1_566
Al2 Co1 2.521841 1_555
Al2 Co1 2.521841 1_556
Al2 Eu0 3.485794 1_665
Al2 Eu0 3.485794 1_666
Al3 Co0 2.254277 1_555
Al3 Co1 2.254277 1_545
Al4 Co1 2.254284 1_555
Al4 Co0 2.254284 1_555
Al5 Co0 2.254236 1_455
Al5 Co1 2.254236 1_555
Al6 Co1 2.521833 1_556
Al6 Co1 2.521833 1_555
Al6 Eu0 3.485821 1_556
Al6 Eu0 3.485821 1_555
Al7 Co0 2.521833 1_555
Al7 Co0 2.521833 1_556
Al7 Eu0 3.485815 1_655
Al7 Eu0 3.485815 1_656
Al8 Co0 2.521841 1_555
Al8 Co0 2.521841 1_556
Al8 Eu0 3.485794 1_555
Al8 Eu0 3.485794 1_556
