# generated using pymatgen
data_NdAgPb
_symmetry_space_group_name_H-M   'P 1'
_cell_length_a   4.85684341
_cell_length_b   4.85684341
_cell_length_c   7.72721690
_cell_angle_alpha   90.00000000
_cell_angle_beta   90.00000000
_cell_angle_gamma   119.99999773
_symmetry_Int_Tables_number   1
_chemical_formula_structural   NdAgPb
_chemical_formula_sum   'Nd2 Ag2 Pb2'
_cell_volume   157.85631058
_cell_formula_units_Z   2
loop_
 _symmetry_equiv_pos_site_id
 _symmetry_equiv_pos_as_xyz
  1  'x, y, z'
loop_
 _atom_site_type_symbol
 _atom_site_label
 _atom_site_symmetry_multiplicity
 _atom_site_fract_x
 _atom_site_fract_y
 _atom_site_fract_z
 _atom_site_occupancy
  Nd  Nd0  1  -0.00000000  0.00000000  0.01126111  1
  Nd  Nd1  1  -0.00000000  -0.00000000  0.51126111  1
  Ag  Ag0  1  0.66666700  0.33333300  0.32141320  1
  Ag  Ag1  1  0.33333300  0.66666700  0.82141320  1
  Pb  Pb0  1  0.33333300  0.66666700  0.23082569  1
  Pb  Pb1  1  0.66666700  0.33333300  0.73082569  1
loop_
_geom_bond_atom_site_label_1
_geom_bond_atom_site_label_2
_geom_bond_distance
_geom_bond_site_symmetry_2
Nd0 Pb0 3.277421 1_545
Nd0 Pb0 3.277425 1_555
Nd0 Pb0 3.277425 1_445
Nd0 Pb1 3.543838 1_454
Nd0 Pb1 3.543841 1_444
Nd0 Pb1 3.543841 1_554
Nd1 Pb1 3.277421 1_455
Nd1 Pb1 3.277425 1_445
Nd1 Pb1 3.277425 1_555
Nd1 Pb0 3.543838 1_545
Nd1 Pb0 3.543841 1_445
Nd1 Pb0 3.543841 1_555
Ag0 Pb0 2.890146 1_545
Ag0 Pb0 2.890146 1_655
Ag0 Pb0 2.890154 1_555
Ag0 Pb1 3.163619 1_555
Ag0 Nd1 3.164654 1_655
Ag0 Nd1 3.164658 1_555
Ag0 Nd1 3.164658 1_665
Ag0 Nd0 3.688728 1_655
Ag0 Nd0 3.688731 1_665
Ag0 Nd0 3.688731 1_555
Ag1 Pb1 2.890146 1_455
Ag1 Pb1 2.890146 1_565
Ag1 Pb1 2.890154 1_555
Ag1 Pb0 3.163619 1_556
Ag1 Nd0 3.164654 1_566
Ag1 Nd0 3.164658 1_556
Ag1 Nd0 3.164658 1_666
Ag1 Nd1 3.688728 1_565
Ag1 Nd1 3.688731 1_555
Ag1 Nd1 3.688731 1_665
