# generated using pymatgen
data_Ni2Mo4C
_symmetry_space_group_name_H-M   'P 1'
_cell_length_a   7.94738031
_cell_length_b   7.94737952
_cell_length_c   7.94738148
_cell_angle_alpha   60.00223193
_cell_angle_beta   60.00220361
_cell_angle_gamma   60.00223531
_symmetry_Int_Tables_number   1
_chemical_formula_structural   Ni2Mo4C
_chemical_formula_sum   'Ni8 Mo16 C4'
_cell_volume   354.95958275
_cell_formula_units_Z   4
loop_
 _symmetry_equiv_pos_site_id
 _symmetry_equiv_pos_as_xyz
  1  'x, y, z'
loop_
 _atom_site_type_symbol
 _atom_site_label
 _atom_site_symmetry_multiplicity
 _atom_site_fract_x
 _atom_site_fract_y
 _atom_site_fract_z
 _atom_site_occupancy
  Ni  Ni0  1  0.91770745  0.91771825  0.24686300  1
  Ni  Ni1  1  0.33228386  0.33229598  0.33229142  1
  Ni  Ni2  1  0.24686089  0.91771736  0.91771203  1
  Ni  Ni3  1  0.33228043  0.00313879  0.33228791  1
  Ni  Ni4  1  0.00313599  0.33228876  0.33228558  1
  Ni  Ni5  1  0.33228033  0.33229122  0.00313700  1
  Ni  Ni6  1  0.91770454  0.91771369  0.91770985  1
  Ni  Ni7  1  0.91770967  0.24686380  0.91771527  1
  Mo  Mo0  1  0.12499804  0.12500549  0.12500242  1
  Mo  Mo1  1  0.68961240  0.31039454  0.31038916  1
  Mo  Mo2  1  0.93960154  0.93961283  0.56039285  1
  Mo  Mo3  1  0.68961397  0.68960241  0.31039144  1
  Mo  Mo4  1  0.68961185  0.31039352  0.68960548  1
  Mo  Mo5  1  0.31039011  0.68960520  0.31039658  1
  Mo  Mo6  1  0.56039703  0.93960812  0.56038980  1
  Mo  Mo7  1  0.56039730  0.93960849  0.93960431  1
  Mo  Mo8  1  0.93960383  0.56038961  0.56039451  1
  Mo  Mo9  1  0.93960440  0.56038992  0.93961094  1
  Mo  Mo10  1  0.31038692  0.31039854  0.68960825  1
  Mo  Mo11  1  0.56039872  0.56038666  0.93960661  1
  Mo  Mo12  1  0.62501387  0.12499746  0.12499388  1
  Mo  Mo13  1  0.12499664  0.12500448  0.62499666  1
  Mo  Mo14  1  0.12500186  0.62498471  0.12500603  1
  Mo  Mo15  1  0.31038926  0.68960475  0.68960950  1
  C  C0  1  0.62500494  0.62499545  0.62499938  1
  C  C1  1  0.62500501  0.62499553  0.12500094  1
  C  C2  1  0.12500460  0.62499611  0.62500013  1
  C  C3  1  0.62500454  0.12499834  0.62499907  1
loop_
_geom_bond_atom_site_label_1
_geom_bond_atom_site_label_2
_geom_bond_distance
_geom_bond_site_symmetry_2
Ni0 Ni6 2.615935 1_554
Ni0 Ni7 2.615942 1_564
Ni0 Ni2 2.615985 1_654
Ni1 Ni4 2.615915 1_555
Ni1 Ni5 2.615949 1_555
Ni1 Ni3 2.615965 1_555
Ni2 Ni6 2.615954 1_455
Ni2 Ni7 2.615959 1_465
Ni3 Ni4 2.615946 1_555
Ni3 Ni5 2.615982 1_555
Ni4 Ni5 2.615939 1_555
Ni6 Ni7 2.615923 1_565
Mo0 Ni4 2.426619 1_555
Mo0 Ni3 2.426620 1_555
Mo0 Ni5 2.426622 1_555
Mo0 Ni7 2.426688 1_454
Mo0 Ni2 2.426696 1_544
Mo0 Ni0 2.426697 1_445
Mo1 Ni4 2.677025 1_655
Mo1 Ni1 2.677117 1_555
Mo1 Ni7 2.878120 1_554
Mo1 Ni0 2.878122 1_545
Mo2 Ni6 2.677052 1_555
Mo2 Ni0 2.677066 1_555
Mo2 Ni3 2.878138 1_665
Mo2 Ni4 2.878146 1_665
Mo3 Ni4 2.677118 1_655
Mo3 Ni3 2.677257 1_565
Mo3 Ni0 2.878084 1_555
Mo3 Ni6 2.878174 1_554
Mo4 Ni4 2.677153 1_655
Mo4 Ni5 2.677230 1_556
Mo4 Ni7 2.878069 1_555
Mo4 Ni6 2.878154 1_545
Mo5 Ni1 2.677016 1_555
Mo5 Ni3 2.677064 1_565
Mo5 Ni2 2.878189 1_554
Mo5 Ni0 2.878189 1_455
Mo6 Ni0 2.677119 1_555
Mo6 Ni2 2.677205 1_555
Mo6 Ni3 2.878140 1_565
Mo6 Ni1 2.878229 1_565
Mo7 Ni6 2.676998 1_555
Mo7 Ni2 2.677094 1_555
Mo7 Ni3 2.878184 1_566
Mo7 Ni5 2.878186 1_566
Mo8 Ni7 2.677163 1_555
Mo8 Ni0 2.677218 1_555
Mo8 Ni4 2.878074 1_655
Mo8 Ni1 2.878152 1_655
Mo9 Ni7 2.677044 1_555
Mo9 Ni6 2.677088 1_555
Mo9 Ni5 2.878119 1_656
Mo9 Ni4 2.878129 1_656
Mo10 Ni5 2.677046 1_556
Mo10 Ni1 2.677057 1_555
Mo10 Ni2 2.878154 1_545
Mo10 Ni7 2.878155 1_455
Mo11 Ni7 2.677109 1_555
Mo11 Ni2 2.677249 1_555
Mo11 Ni5 2.878108 1_556
Mo11 Ni1 2.878197 1_556
Mo12 Ni0 2.426618 1_545
Mo12 Ni7 2.426619 1_554
Mo12 Ni6 2.426657 1_544
Mo12 Ni5 2.426825 1_555
Mo12 Ni3 2.426831 1_555
Mo12 Ni1 2.426865 1_555
Mo13 Ni4 2.426695 1_555
Mo13 Ni3 2.426701 1_555
Mo13 Ni1 2.426736 1_555
Mo13 Ni7 2.426738 1_455
Mo13 Ni2 2.426739 1_545
Mo13 Ni6 2.426771 1_445
Mo14 Ni5 2.426616 1_555
Mo14 Ni4 2.426618 1_555
Mo14 Ni1 2.426652 1_555
Mo14 Ni0 2.426825 1_455
Mo14 Ni2 2.426828 1_554
Mo14 Ni6 2.426853 1_454
Mo15 Ni5 2.677137 1_556
Mo15 Ni3 2.677195 1_565
Mo15 Ni2 2.878125 1_555
Mo15 Ni6 2.878209 1_455
C0 Mo8 2.115361 1_555
C0 Mo4 2.115380 1_555
C0 Mo11 2.115416 1_555
C0 Mo3 2.115419 1_555
C0 Mo6 2.115452 1_555
C0 Mo15 2.115471 1_555
C1 Mo3 2.115343 1_555
C1 Mo11 2.115367 1_554
C1 Mo9 2.115397 1_554
C1 Mo1 2.115404 1_555
C1 Mo7 2.115487 1_554
C1 Mo5 2.115495 1_555
C2 Mo15 2.115311 1_555
C2 Mo10 2.115374 1_555
C2 Mo8 2.115398 1_455
C2 Mo5 2.115413 1_555
C2 Mo9 2.115480 1_455
C2 Mo2 2.115519 1_455
C3 Mo6 2.115346 1_545
C3 Mo4 2.115365 1_555
C3 Mo2 2.115376 1_545
C3 Mo7 2.115430 1_545
C3 Mo1 2.115468 1_555
C3 Mo10 2.115519 1_555
