# generated using pymatgen
data_Y2(SO4)3
_symmetry_space_group_name_H-M   'P 1'
_cell_length_a   9.28783642
_cell_length_b   9.28783609
_cell_length_c   23.78846544
_cell_angle_alpha   90.00000000
_cell_angle_beta   90.00000000
_cell_angle_gamma   120.00000119
_symmetry_Int_Tables_number   1
_chemical_formula_structural   Y2(SO4)3
_chemical_formula_sum   'Y12 S18 O72'
_cell_volume   1777.15846215
_cell_formula_units_Z   6
loop_
 _symmetry_equiv_pos_site_id
 _symmetry_equiv_pos_as_xyz
  1  'x, y, z'
loop_
 _atom_site_type_symbol
 _atom_site_label
 _atom_site_symmetry_multiplicity
 _atom_site_fract_x
 _atom_site_fract_y
 _atom_site_fract_z
 _atom_site_occupancy
  Y  Y0  1  -0.00000000  -0.00000000  0.35487550  1
  Y  Y1  1  -0.00000000  -0.00000000  0.85487550  1
  Y  Y2  1  -0.00000000  -0.00000000  0.64512450  1
  Y  Y3  1  -0.00000000  -0.00000000  0.14512450  1
  Y  Y4  1  0.66666700  0.33333300  0.68820850  1
  Y  Y5  1  0.66666700  0.33333300  0.18820850  1
  Y  Y6  1  0.66666700  0.33333300  0.97845750  1
  Y  Y7  1  0.66666700  0.33333300  0.47845750  1
  Y  Y8  1  0.33333300  0.66666700  0.02154250  1
  Y  Y9  1  0.33333300  0.66666700  0.52154250  1
  Y  Y10  1  0.33333300  0.66666700  0.31179150  1
  Y  Y11  1  0.33333300  0.66666700  0.81179150  1
  S  S0  1  0.29070132  -0.00000000  0.25000000  1
  S  S1  1  0.70929868  0.70929868  0.25000000  1
  S  S2  1  0.00000000  0.29070132  0.25000000  1
  S  S3  1  0.29070132  0.29070132  0.75000000  1
  S  S4  1  1.00000000  0.70929868  0.75000000  1
  S  S5  1  0.70929868  -0.00000000  0.75000000  1
  S  S6  1  0.95736832  0.33333300  0.58333300  1
  S  S7  1  0.37596568  0.04263168  0.58333300  1
  S  S8  1  0.66666700  0.62403432  0.58333300  1
  S  S9  1  0.95736832  0.62403432  0.08333300  1
  S  S10  1  0.66666700  0.04263168  0.08333300  1
  S  S11  1  0.37596568  0.33333300  0.08333300  1
  S  S12  1  0.62403432  0.66666700  0.91666700  1
  S  S13  1  0.04263168  0.37596568  0.91666700  1
  S  S14  1  0.33333300  0.95736832  0.91666700  1
  S  S15  1  0.62403432  0.95736832  0.41666700  1
  S  S16  1  0.33333300  0.37596568  0.41666700  1
  S  S17  1  0.04263168  0.66666700  0.41666700  1
  O  O0  1  0.21245328  0.02640275  0.30027614  1
  O  O1  1  0.81394947  0.78754672  0.30027614  1
  O  O2  1  0.97359725  0.18605053  0.30027614  1
  O  O3  1  0.21245328  0.18605053  0.80027614  1
  O  O4  1  0.97359725  0.78754672  0.80027614  1
  O  O5  1  0.81394947  0.02640275  0.80027614  1
  O  O6  1  0.78754672  0.97359725  0.69972386  1
  O  O7  1  0.18605053  0.21245328  0.69972386  1
  O  O8  1  0.02640275  0.81394947  0.69972386  1
  O  O9  1  0.78754672  0.81394947  0.19972386  1
  O  O10  1  0.02640275  0.21245328  0.19972386  1
  O  O11  1  0.18605053  0.97359725  0.19972386  1
  O  O12  1  0.87912028  0.35973575  0.63360914  1
  O  O13  1  0.48061647  0.12087972  0.63360914  1
  O  O14  1  0.64026425  0.51938353  0.63360914  1
  O  O15  1  0.87912028  0.51938353  0.13360914  1
  O  O16  1  0.64026425  0.12087972  0.13360914  1
  O  O17  1  0.48061647  0.35973575  0.13360914  1
  O  O18  1  0.45421372  0.30693025  0.03305686  1
  O  O19  1  0.85271753  0.54578628  0.03305686  1
  O  O20  1  0.69306975  0.14728247  0.03305686  1
  O  O21  1  0.45421372  0.14728247  0.53305686  1
  O  O22  1  0.69306975  0.54578628  0.53305686  1
  O  O23  1  0.85271753  0.30693025  0.53305686  1
  O  O24  1  0.54578628  0.69306975  0.96694314  1
  O  O25  1  0.14728247  0.45421372  0.96694314  1
  O  O26  1  0.30693025  0.85271753  0.96694314  1
  O  O27  1  0.54578628  0.85271753  0.46694314  1
  O  O28  1  0.30693025  0.45421372  0.46694314  1
  O  O29  1  0.14728247  0.69306975  0.46694314  1
  O  O30  1  0.12087972  0.64026425  0.36639086  1
  O  O31  1  0.51938353  0.87912028  0.36639086  1
  O  O32  1  0.35973575  0.48061647  0.36639086  1
  O  O33  1  0.12087972  0.48061647  0.86639086  1
  O  O34  1  0.35973575  0.87912028  0.86639086  1
  O  O35  1  0.51938353  0.64026425  0.86639086  1
  O  O36  1  0.02415021  0.81459585  0.40843845  1
  O  O37  1  0.79044564  0.97584979  0.40843845  1
  O  O38  1  0.18540415  0.20955436  0.40843845  1
  O  O39  1  0.02415021  0.20955436  0.90843845  1
  O  O40  1  0.18540415  0.97584979  0.90843845  1
  O  O41  1  0.79044564  0.81459585  0.90843845  1
  O  O42  1  0.97584979  0.18540415  0.59156155  1
  O  O43  1  0.20955436  0.02415021  0.59156155  1
  O  O44  1  0.81459585  0.79044564  0.59156155  1
  O  O45  1  0.97584979  0.79044564  0.09156155  1
  O  O46  1  0.81459585  0.02415021  0.09156155  1
  O  O47  1  0.20955436  0.18540415  0.09156155  1
  O  O48  1  0.69081721  0.14792885  0.74177145  1
  O  O49  1  0.45711264  0.30918279  0.74177145  1
  O  O50  1  0.85207115  0.54288736  0.74177145  1
  O  O51  1  0.69081721  0.54288736  0.24177145  1
  O  O52  1  0.85207115  0.30918279  0.24177145  1
  O  O53  1  0.45711264  0.14792885  0.24177145  1
  O  O54  1  0.64251679  0.51873715  0.92489455  1
  O  O55  1  0.87622136  0.35748321  0.92489455  1
  O  O56  1  0.48126285  0.12377864  0.92489455  1
  O  O57  1  0.64251679  0.12377864  0.42489455  1
  O  O58  1  0.48126285  0.35748321  0.42489455  1
  O  O59  1  0.87622136  0.51873715  0.42489455  1
  O  O60  1  0.35748321  0.48126285  0.07510545  1
  O  O61  1  0.12377864  0.64251679  0.07510545  1
  O  O62  1  0.51873715  0.87622136  0.07510545  1
  O  O63  1  0.35748321  0.87622136  0.57510545  1
  O  O64  1  0.51873715  0.64251679  0.57510545  1
  O  O65  1  0.12377864  0.48126285  0.57510545  1
  O  O66  1  0.30918279  0.85207115  0.25822855  1
  O  O67  1  0.54288736  0.69081721  0.25822855  1
  O  O68  1  0.14792885  0.45711264  0.25822855  1
  O  O69  1  0.30918279  0.45711264  0.75822855  1
  O  O70  1  0.14792885  0.69081721  0.75822855  1
  O  O71  1  0.54288736  0.85207115  0.75822855  1
loop_
_geom_bond_atom_site_label_1
_geom_bond_atom_site_label_2
_geom_bond_distance
_geom_bond_site_symmetry_2
O0 S0 1.482202 1_555
O0 Y0 2.270873 1_555
O1 S1 1.482202 1_555
O1 Y0 2.270873 1_665
O2 S2 1.482202 1_655
O2 Y0 2.270873 1_655
O3 S3 1.482202 1_555
O3 Y1 2.270873 1_555
O4 S4 1.482202 1_555
O4 Y1 2.270873 1_665
O5 S5 1.482202 1_555
O5 Y1 2.270873 1_655
O6 S5 1.482202 1_565
O6 Y2 2.270873 1_665
O7 S3 1.482202 1_555
O7 Y2 2.270873 1_555
O8 S4 1.482202 1_455
O8 Y2 2.270873 1_565
O9 S1 1.482202 1_555
O9 Y3 2.270873 1_665
O10 S2 1.482202 1_555
O10 Y3 2.270873 1_555
O11 S0 1.482202 1_565
O11 Y3 2.270873 1_565
O12 S6 1.482202 1_555
O12 Y4 2.270873 1_555
O13 S7 1.482202 1_555
O13 Y4 2.270873 1_555
O14 S8 1.482202 1_555
O14 Y4 2.270873 1_555
O15 S9 1.482202 1_555
O15 Y5 2.270873 1_555
O16 S10 1.482202 1_555
O16 Y5 2.270873 1_555
O17 S11 1.482202 1_555
O17 Y5 2.270873 1_555
O18 S11 1.482202 1_555
O18 Y6 2.270873 1_554
O19 S9 1.482202 1_555
O19 Y6 2.270873 1_554
O20 S10 1.482202 1_555
O20 Y6 2.270873 1_554
O21 S7 1.482202 1_555
O21 Y7 2.270873 1_555
O22 S8 1.482202 1_555
O22 Y7 2.270873 1_555
O23 S6 1.482202 1_555
O23 Y7 2.270873 1_555
O24 S12 1.482202 1_555
O24 Y8 2.270873 1_556
O25 S13 1.482202 1_555
O25 Y8 2.270873 1_556
O26 S14 1.482202 1_555
O26 Y8 2.270873 1_556
O27 S15 1.482202 1_555
O27 Y9 2.270873 1_555
O28 S16 1.482202 1_555
O28 Y9 2.270873 1_555
O29 S17 1.482202 1_555
O29 Y9 2.270873 1_555
O30 S17 1.482202 1_555
O30 Y10 2.270873 1_555
O31 S15 1.482202 1_555
O31 Y10 2.270873 1_555
O32 S16 1.482202 1_555
O32 Y10 2.270873 1_555
O33 S13 1.482202 1_555
O33 Y11 2.270873 1_555
O34 S14 1.482202 1_555
O34 Y11 2.270873 1_555
O35 S12 1.482202 1_555
O35 Y11 2.270873 1_555
O36 S17 1.480314 1_555
O36 Y0 2.241739 1_565
O37 S15 1.480323 1_555
O37 Y0 2.241739 1_665
O38 S16 1.480319 1_555
O38 Y0 2.241739 1_555
O39 S13 1.480323 1_555
O39 Y1 2.241739 1_555
O40 S14 1.480314 1_555
O40 Y1 2.241739 1_565
O41 S12 1.480319 1_555
O41 Y1 2.241739 1_665
O42 S6 1.480314 1_555
O42 Y2 2.241739 1_655
O43 S7 1.480323 1_555
O43 Y2 2.241739 1_555
O44 S8 1.480319 1_555
O44 Y2 2.241739 1_665
O45 S9 1.480323 1_555
O45 Y3 2.241739 1_665
O46 S10 1.480314 1_555
O46 Y3 2.241739 1_655
O47 S11 1.480319 1_555
O47 Y3 2.241739 1_555
O48 S5 1.480314 1_555
O48 Y4 2.241739 1_555
O49 S3 1.480323 1_555
O49 Y4 2.241739 1_555
O50 S4 1.480319 1_555
O50 Y4 2.241739 1_555
O51 S1 1.480323 1_555
O51 Y5 2.241739 1_555
O52 S2 1.480314 1_655
O52 Y5 2.241739 1_555
O53 S0 1.480319 1_555
O53 Y5 2.241739 1_555
O54 S12 1.480325 1_555
O54 Y6 2.241739 1_555
O55 S13 1.480307 1_655
O55 Y6 2.241739 1_555
O56 S14 1.480315 1_545
O56 Y6 2.241739 1_555
O57 S15 1.480307 1_545
O57 Y7 2.241739 1_555
O58 S16 1.480325 1_555
O58 Y7 2.241739 1_555
O59 S17 1.480315 1_655
O59 Y7 2.241739 1_555
O60 S11 1.480325 1_555
O60 Y8 2.241739 1_555
O61 S9 1.480307 1_455
O61 Y8 2.241739 1_555
O62 S10 1.480315 1_565
O62 Y8 2.241739 1_555
O63 S7 1.480307 1_565
O63 Y9 2.241739 1_555
O64 S8 1.480325 1_555
O64 Y9 2.241739 1_555
O65 S6 1.480315 1_455
O65 Y9 2.241739 1_555
O66 S0 1.480314 1_565
O66 Y10 2.241739 1_555
O67 S1 1.480323 1_555
O67 Y10 2.241739 1_555
O68 S2 1.480319 1_555
O68 Y10 2.241739 1_555
O69 S3 1.480323 1_555
O69 Y11 2.241739 1_555
O70 S4 1.480314 1_455
O70 Y11 2.241739 1_555
O71 S5 1.480319 1_565
O71 Y11 2.241739 1_555
