# generated using pymatgen
data_CsGaP3HO10
_symmetry_space_group_name_H-M   'P 1'
_cell_length_a   6.20563857
_cell_length_b   6.27872729
_cell_length_c   6.27872681
_cell_angle_alpha   87.76064383
_cell_angle_beta   74.36163500
_cell_angle_gamma   74.36164599
_symmetry_Int_Tables_number   1
_chemical_formula_structural   CsGaP3HO10
_chemical_formula_sum   'Cs1 Ga1 P3 H1 O10'
_cell_volume   226.71549077
_cell_formula_units_Z   1
loop_
 _symmetry_equiv_pos_site_id
 _symmetry_equiv_pos_as_xyz
  1  'x, y, z'
loop_
 _atom_site_type_symbol
 _atom_site_label
 _atom_site_symmetry_multiplicity
 _atom_site_fract_x
 _atom_site_fract_y
 _atom_site_fract_z
 _atom_site_occupancy
  Cs  Cs0  1  0.50000000  0.94573852  0.05426148  1
  Ga  Ga0  1  0.00000000  0.61001449  0.38998551  1
  P  P0  1  0.10449210  0.51028600  0.85471410  1
  P  P1  1  0.89550790  0.14528590  0.48971400  1
  P  P2  1  0.50000000  0.51263513  0.48736487  1
  H  H0  1  0.00000000  0.19771822  0.80228178  1
  O  O0  1  0.14022641  0.26189190  0.86098608  1
  O  O1  1  0.85977359  0.13901392  0.73810810  1
  O  O2  1  0.66098034  0.65722143  0.44673987  1
  O  O3  1  0.33901966  0.55326013  0.34277857  1
  O  O4  1  0.05017124  0.28882795  0.37898302  1
  O  O5  1  0.94982876  0.62101698  0.71117205  1
  O  O6  1  0.96591591  0.92470737  0.37364397  1
  O  O7  1  0.03408409  0.62635603  0.07529263  1
  O  O8  1  0.63888325  0.26017642  0.45486137  1
  O  O9  1  0.36111675  0.54513863  0.73982358  1
loop_
_geom_bond_atom_site_label_1
_geom_bond_atom_site_label_2
_geom_bond_distance
_geom_bond_site_symmetry_2
Cs0 O1 3.046430 1_564
Cs0 O0 3.046430 1_564
Cs0 O3 3.217899 1_555
Cs0 O2 3.217899 1_555
Cs0 O5 3.259221 1_554
Cs0 O4 3.259221 1_565
Cs0 O6 3.414027 1_455
Cs0 O7 3.414027 1_655
Cs0 O8 3.666225 1_565
Cs0 O9 3.666225 1_554
Ga0 O7 1.931288 1_555
Ga0 O6 1.931288 1_455
Ga0 O5 1.956871 1_455
Ga0 O4 1.956871 1_555
Ga0 O2 1.977078 1_455
Ga0 O3 1.977078 1_555
H0 O0 1.195412 1_555
H0 O1 1.195412 1_455
O0 P0 1.515429 1_555
O1 P1 1.515429 1_555
O2 P2 1.490178 1_555
O3 P2 1.490178 1_555
O4 P1 1.508132 1_455
O5 P0 1.508132 1_655
O6 P1 1.490327 1_565
O7 P0 1.490327 1_554
O8 P2 1.578283 1_555
O8 P1 1.631127 1_555
O9 P2 1.578282 1_555
O9 P0 1.631127 1_555
