# generated using pymatgen
data_Tl2PSe3
_symmetry_space_group_name_H-M   'P 1'
_cell_length_a   9.13486585
_cell_length_b   12.40008698
_cell_length_c   12.61369734
_cell_angle_alpha   80.36876611
_cell_angle_beta   90.00000000
_cell_angle_gamma   90.00000000
_symmetry_Int_Tables_number   1
_chemical_formula_structural   Tl2PSe3
_chemical_formula_sum   'Tl16 P8 Se24'
_cell_volume   1408.65412602
_cell_formula_units_Z   8
loop_
 _symmetry_equiv_pos_site_id
 _symmetry_equiv_pos_as_xyz
  1  'x, y, z'
loop_
 _atom_site_type_symbol
 _atom_site_label
 _atom_site_symmetry_multiplicity
 _atom_site_fract_x
 _atom_site_fract_y
 _atom_site_fract_z
 _atom_site_occupancy
  Tl  Tl0  1  0.85045398  0.52480300  0.68662233  1
  Tl  Tl1  1  0.35045398  0.47519700  0.81337767  1
  Tl  Tl2  1  0.14954602  0.47519700  0.31337767  1
  Tl  Tl3  1  0.64954602  0.52480300  0.18662233  1
  Tl  Tl4  1  0.68189228  0.80030092  0.25376735  1
  Tl  Tl5  1  0.18189228  0.19969908  0.24623265  1
  Tl  Tl6  1  0.31810772  0.19969908  0.74623265  1
  Tl  Tl7  1  0.81810772  0.80030092  0.75376735  1
  Tl  Tl8  1  0.60849008  0.09744847  0.57018401  1
  Tl  Tl9  1  0.10849008  0.90255153  0.92981599  1
  Tl  Tl10  1  0.39150992  0.90255153  0.42981599  1
  Tl  Tl11  1  0.89150992  0.09744847  0.07018401  1
  Tl  Tl12  1  0.53853000  0.29472045  0.05034406  1
  Tl  Tl13  1  0.03853000  0.70527955  0.44965594  1
  Tl  Tl14  1  0.46147000  0.70527955  0.94965594  1
  Tl  Tl15  1  0.96147000  0.29472045  0.55034406  1
  P  P0  1  0.42655028  0.00446121  0.07207086  1
  P  P1  1  0.92655028  0.99553879  0.42792914  1
  P  P2  1  0.57344972  0.99553879  0.92792914  1
  P  P3  1  0.07344972  0.00446121  0.57207086  1
  P  P4  1  0.57806576  0.43364570  0.48273729  1
  P  P5  1  0.07806576  0.56635430  0.01726271  1
  P  P6  1  0.42193424  0.56635430  0.51726271  1
  P  P7  1  0.92193424  0.43364570  0.98273729  1
  Se  Se0  1  0.56609604  0.05466571  0.19723823  1
  Se  Se1  1  0.06609604  0.94533429  0.30276177  1
  Se  Se2  1  0.43390396  0.94533429  0.80276177  1
  Se  Se3  1  0.93390396  0.05466571  0.69723823  1
  Se  Se4  1  0.47472585  0.34174830  0.37079642  1
  Se  Se5  1  0.97472585  0.65825170  0.12920358  1
  Se  Se6  1  0.52527415  0.65825170  0.62920358  1
  Se  Se7  1  0.02527415  0.34174830  0.87079642  1
  Se  Se8  1  0.83439716  0.15865879  0.37768958  1
  Se  Se9  1  0.33439716  0.84134121  0.12231042  1
  Se  Se10  1  0.16560284  0.84134121  0.62231042  1
  Se  Se11  1  0.66560284  0.15865879  0.87768958  1
  Se  Se12  1  0.12207104  0.66356685  0.85744692  1
  Se  Se13  1  0.62207104  0.33643315  0.64255308  1
  Se  Se14  1  0.87792896  0.33643315  0.14255308  1
  Se  Se15  1  0.37792896  0.66356685  0.35744692  1
  Se  Se16  1  0.76334424  0.87045229  0.48911410  1
  Se  Se17  1  0.26334424  0.12954771  0.01088590  1
  Se  Se18  1  0.23665576  0.12954771  0.51088590  1
  Se  Se19  1  0.73665576  0.87045229  0.98911410  1
  Se  Se20  1  0.72388458  0.51907481  0.91537139  1
  Se  Se21  1  0.22388458  0.48092519  0.58462861  1
  Se  Se22  1  0.27611542  0.48092519  0.08462861  1
  Se  Se23  1  0.77611542  0.51907481  0.41537139  1
loop_
_geom_bond_atom_site_label_1
_geom_bond_atom_site_label_2
_geom_bond_distance
_geom_bond_site_symmetry_2
P0 Se9 2.184637 1_545
P0 Se17 2.196272 1_555
P0 Se0 2.198651 1_555
P0 P2 2.277273 1_544
P1 Se8 2.184637 1_565
P1 Se16 2.196272 1_555
P1 Se1 2.198651 1_655
P1 P3 2.277273 1_665
P2 Se11 2.184637 1_565
P2 Se19 2.196272 1_555
P2 Se2 2.198651 1_555
P3 Se10 2.184637 1_545
P3 Se18 2.196272 1_555
P3 Se3 2.198651 1_455
P4 Se4 2.172965 1_555
P4 Se23 2.194555 1_555
P4 Se13 2.205741 1_555
P4 P6 2.274117 1_555
P5 Se5 2.172965 1_455
P5 Se22 2.194555 1_555
P5 Se12 2.205741 1_554
P5 P7 2.274117 1_454
P6 Se6 2.172965 1_555
P6 Se21 2.194555 1_555
P6 Se15 2.205741 1_555
P7 Se7 2.172965 1_655
P7 Se20 2.194555 1_555
P7 Se14 2.205741 1_556
Se0 Tl12 3.242185 1_555
Se0 Tl4 3.289895 1_545
Se1 Tl13 3.242185 1_555
Se1 Tl5 3.289895 1_565
Se2 Tl14 3.242185 1_555
Se2 Tl6 3.289895 1_565
Se3 Tl15 3.242185 1_555
Se3 Tl7 3.289895 1_545
Se8 Tl8 3.180175 1_555
Se8 Tl15 3.188472 1_555
Se9 Tl9 3.180175 1_554
Se9 Tl14 3.188472 1_554
Se10 Tl10 3.180175 1_555
Se10 Tl13 3.188472 1_555
Se11 Tl11 3.180175 1_556
Se11 Tl12 3.188472 1_556
Se12 Tl9 3.245885 1_555
Se12 Tl1 3.248364 1_555
Se12 Tl14 3.381404 1_555
Se12 Tl7 3.398966 1_455
Se13 Tl8 3.245885 1_555
Se13 Tl0 3.248364 1_555
Se13 Tl15 3.381404 1_555
Se13 Tl6 3.398966 1_555
Se14 Tl11 3.245885 1_555
Se14 Tl3 3.248364 1_555
Se14 Tl12 3.381404 1_555
Se14 Tl5 3.398966 1_655
Se15 Tl10 3.245885 1_555
Se15 Tl2 3.248364 1_555
Se15 Tl13 3.381404 1_555
Se15 Tl4 3.398966 1_555
Se16 Tl4 3.314654 1_555
Se16 Tl13 3.332098 1_655
Se16 Tl7 3.343535 1_555
Se17 Tl5 3.314654 1_555
Se17 Tl12 3.332098 1_555
Se17 Tl6 3.343535 1_554
Se18 Tl6 3.314654 1_555
Se18 Tl15 3.332098 1_455
Se18 Tl5 3.343535 1_555
Se19 Tl7 3.314654 1_555
Se19 Tl14 3.332098 1_555
Se19 Tl4 3.343535 1_556
Se20 Tl0 3.098164 1_555
Se20 Tl14 3.405672 1_555
Se20 Tl12 3.452558 1_556
Se21 Tl1 3.098164 1_555
Se21 Tl15 3.405672 1_455
Se21 Tl13 3.452558 1_555
Se22 Tl2 3.098164 1_555
Se22 Tl12 3.405672 1_555
Se22 Tl14 3.452558 1_554
Se23 Tl3 3.098164 1_555
Se23 Tl13 3.405672 1_655
Se23 Tl15 3.452558 1_555
