# generated using pymatgen
data_Li2FeP2O7
_symmetry_space_group_name_H-M   'P 1'
_cell_length_a   7.58546180
_cell_length_b   7.58557432
_cell_length_c   11.16595950
_cell_angle_alpha   89.69738016
_cell_angle_beta   89.69693773
_cell_angle_gamma   115.63712020
_symmetry_Int_Tables_number   1
_chemical_formula_structural   Li2FeP2O7
_chemical_formula_sum   'Li8 Fe4 P8 O28'
_cell_volume   579.21010451
_cell_formula_units_Z   4
loop_
 _symmetry_equiv_pos_site_id
 _symmetry_equiv_pos_as_xyz
  1  'x, y, z'
loop_
 _atom_site_type_symbol
 _atom_site_label
 _atom_site_symmetry_multiplicity
 _atom_site_fract_x
 _atom_site_fract_y
 _atom_site_fract_z
 _atom_site_occupancy
  Li  Li0  1  0.28472400  0.71527200  0.00000400  1
  Li  Li1  1  0.28474000  0.71526700  0.49999700  1
  Li  Li2  1  0.71526900  0.28472500  0.50000500  1
  Li  Li3  1  0.71526300  0.28474000  0.00000100  1
  Li  Li4  1  0.71437300  0.28562300  0.24999600  1
  Li  Li5  1  0.71436800  0.28564200  0.75000900  1
  Li  Li6  1  0.28563600  0.71436900  0.25000200  1
  Li  Li7  1  0.28562200  0.71437000  0.75000200  1
  Fe  Fe0  1  0.30604400  0.30605200  0.62103000  1
  Fe  Fe1  1  0.69393100  0.69393700  0.37896500  1
  Fe  Fe2  1  0.30605100  0.30604000  0.12097800  1
  Fe  Fe3  1  0.69395500  0.69393900  0.87897300  1
  P  P0  1  0.90877800  0.68606000  0.12770300  1
  P  P1  1  0.90878400  0.68606900  0.62770200  1
  P  P2  1  0.09122200  0.31393500  0.37229700  1
  P  P3  1  0.09122600  0.31394800  0.87230000  1
  P  P4  1  0.31394500  0.09122800  0.37229700  1
  P  P5  1  0.31392900  0.09121700  0.87229900  1
  P  P6  1  0.68605300  0.90877200  0.12770300  1
  P  P7  1  0.68606200  0.90878000  0.62770400  1
  O  O0  1  0.10391600  0.10391700  0.37396300  1
  O  O1  1  0.10390800  0.10391500  0.87396700  1
  O  O2  1  0.89608600  0.89608500  0.12603700  1
  O  O3  1  0.89608800  0.89608800  0.62603900  1
  O  O4  1  0.26527700  0.87670200  0.37426200  1
  O  O5  1  0.26526900  0.87668600  0.87426800  1
  O  O6  1  0.87668900  0.26527100  0.37426100  1
  O  O7  1  0.87669700  0.26527800  0.87427100  1
  O  O8  1  0.12331300  0.73473000  0.12574800  1
  O  O9  1  0.12331500  0.73473200  0.62572400  1
  O  O10  1  0.73472200  0.12330200  0.12571800  1
  O  O11  1  0.73472700  0.12330700  0.62575400  1
  O  O12  1  0.19923700  0.42133800  0.25680800  1
  O  O13  1  0.19923000  0.42133000  0.75680500  1
  O  O14  1  0.80075300  0.57865400  0.24319000  1
  O  O15  1  0.80080100  0.57868500  0.74320500  1
  O  O16  1  0.57867700  0.80078900  0.24320500  1
  O  O17  1  0.57865100  0.80075500  0.74318900  1
  O  O18  1  0.42133600  0.19923600  0.25680500  1
  O  O19  1  0.42133100  0.19922200  0.75680700  1
  O  O20  1  0.79763400  0.57542000  0.01521000  1
  O  O21  1  0.79761000  0.57540400  0.51522800  1
  O  O22  1  0.57539300  0.79758800  0.01523000  1
  O  O23  1  0.57542400  0.79764200  0.51521200  1
  O  O24  1  0.20237000  0.42458900  0.48478500  1
  O  O25  1  0.20239100  0.42459500  0.98478100  1
  O  O26  1  0.42458800  0.20238400  0.48478200  1
  O  O27  1  0.42459200  0.20237000  0.98478200  1
loop_
_geom_bond_atom_site_label_1
_geom_bond_atom_site_label_2
_geom_bond_distance
_geom_bond_site_symmetry_2
Li0 O5 1.905908 1_554
Li0 O8 1.905947 1_555
Li0 O22 2.023347 1_555
Li0 O25 2.023413 1_554
Li1 O9 1.905898 1_555
Li1 O4 1.906028 1_555
Li1 O24 2.023363 1_555
Li1 O23 2.023372 1_555
Li2 O6 1.905982 1_555
Li2 O11 1.906043 1_555
Li2 O26 2.023400 1_555
Li2 O21 2.023418 1_555
Li3 O10 1.905885 1_555
Li3 O7 1.905960 1_554
Li3 O27 2.023288 1_554
Li3 O20 2.023374 1_555
Li4 O6 1.909279 1_555
Li4 O10 1.909407 1_555
Li4 O14 2.028137 1_555
Li4 O18 2.028140 1_555
Li5 O11 1.909319 1_555
Li5 O7 1.909354 1_555
Li5 O19 2.028099 1_555
Li5 O15 2.028163 1_555
Li6 O8 1.909250 1_555
Li6 O4 1.909349 1_555
Li6 O12 2.028116 1_555
Li6 O16 2.028128 1_555
Li7 O5 1.909294 1_555
Li7 O9 1.909365 1_555
Li7 O17 2.028086 1_555
Li7 O13 2.028188 1_555
Fe0 O13 2.081750 1_555
Fe0 O19 2.081884 1_555
Fe0 O24 2.086010 1_555
Fe0 O26 2.086029 1_555
Fe1 O16 2.081692 1_555
Fe1 O14 2.081807 1_555
Fe1 O23 2.086015 1_555
Fe1 O21 2.086160 1_555
Fe2 O18 2.082170 1_555
Fe2 O12 2.082287 1_555
Fe2 O27 2.085601 1_554
Fe2 O25 2.085640 1_554
Fe3 O15 2.081723 1_555
Fe3 O17 2.081957 1_555
Fe3 O20 2.085886 1_556
Fe3 O22 2.086101 1_556
O0 P2 1.637088 1_555
O0 P4 1.637130 1_555
O1 P5 1.637102 1_555
O1 P3 1.637158 1_555
O2 P0 1.637134 1_555
O2 P6 1.637153 1_555
O3 P1 1.637103 1_555
O3 P7 1.637118 1_555
O4 P4 1.504848 1_565
O5 P5 1.504898 1_565
O6 P2 1.504881 1_655
O7 P3 1.504842 1_655
O8 P0 1.504885 1_455
O9 P1 1.504869 1_455
O10 P6 1.504877 1_545
O11 P7 1.504859 1_545
O12 P2 1.548578 1_555
O13 P3 1.548562 1_555
O14 P0 1.548589 1_555
O15 P1 1.548593 1_555
O16 P6 1.548566 1_555
O17 P7 1.548581 1_555
O18 P4 1.548563 1_555
O19 P5 1.548581 1_555
O20 P0 1.550152 1_555
O21 P1 1.550109 1_555
O22 P6 1.550112 1_555
O23 P7 1.550124 1_555
O24 P2 1.550149 1_555
O25 P3 1.550109 1_555
O26 P4 1.550115 1_555
O27 P5 1.550136 1_555
