# generated using pymatgen
data_Na8Zn3Ge(PO4)6
_symmetry_space_group_name_H-M   'P 1'
_cell_length_a   8.99018067
_cell_length_b   8.99018037
_cell_length_c   21.90615616
_cell_angle_alpha   90.00000000
_cell_angle_beta   90.00000000
_cell_angle_gamma   120.00000116
_symmetry_Int_Tables_number   1
_chemical_formula_structural   Na8Zn3Ge(PO4)6
_chemical_formula_sum   'Na24 Zn9 Ge3 P18 O72'
_cell_volume   1533.32292973
_cell_formula_units_Z   3
loop_
 _symmetry_equiv_pos_site_id
 _symmetry_equiv_pos_as_xyz
  1  'x, y, z'
loop_
 _atom_site_type_symbol
 _atom_site_label
 _atom_site_symmetry_multiplicity
 _atom_site_fract_x
 _atom_site_fract_y
 _atom_site_fract_z
 _atom_site_occupancy
  Na  Na0  1  0.63317250  0.99998844  0.25225326  1
  Na  Na1  1  0.36681594  0.36682750  0.25225326  1
  Na  Na2  1  0.00001156  0.63318406  0.25225326  1
  Na  Na3  1  0.64521744  0.63496776  0.74349086  1
  Na  Na4  1  0.98975032  0.35478256  0.74349086  1
  Na  Na5  1  0.36503224  0.01024968  0.74349086  1
  Na  Na6  1  0.29299479  0.33488154  0.58112045  1
  Na  Na7  1  0.04188775  0.70700521  0.58112045  1
  Na  Na8  1  0.66511846  0.95811225  0.58112045  1
  Na  Na9  1  0.29205407  0.95961003  0.08986529  1
  Na  Na10  1  0.66755696  0.70794593  0.08986529  1
  Na  Na11  1  0.04038997  0.33244304  0.08986529  1
  Na  Na12  1  0.96948963  0.67660668  0.91551206  1
  Na  Na13  1  0.70711604  0.03051037  0.91551206  1
  Na  Na14  1  0.32339332  0.29288396  0.91551206  1
  Na  Na15  1  0.97905805  0.30171829  0.40970332  1
  Na  Na16  1  0.32265924  0.02094195  0.40970332  1
  Na  Na17  1  0.69828171  0.67734076  0.40970332  1
  Na  Na18  1  0.00000000  -0.00000000  0.49736788  1
  Na  Na19  1  0.00000000  -0.00000000  0.00336206  1
  Na  Na20  1  0.66666700  0.33333300  0.82941627  1
  Na  Na21  1  0.66666700  0.33333300  0.32841015  1
  Na  Na22  1  0.33333300  0.66666700  0.17162281  1
  Na  Na23  1  0.33333300  0.66666700  0.65980756  1
  Zn  Zn0  1  0.00000000  -0.00000000  0.34475033  1
  Zn  Zn1  1  0.00000000  -0.00000000  0.84552483  1
  Zn  Zn2  1  0.00000000  -0.00000000  0.65099381  1
  Zn  Zn3  1  0.00000000  -0.00000000  0.15755297  1
  Zn  Zn4  1  0.66666700  0.33333300  0.68016835  1
  Zn  Zn5  1  0.66666700  0.33333300  0.18418028  1
  Zn  Zn6  1  0.33333300  0.66666700  0.01736863  1
  Zn  Zn7  1  0.33333300  0.66666700  0.51146323  1
  Zn  Zn8  1  0.33333300  0.66666700  0.31978219  1
  Ge  Ge0  1  0.66666700  0.33333300  0.98484652  1
  Ge  Ge1  1  0.66666700  0.33333300  0.48335563  1
  Ge  Ge2  1  0.33333300  0.66666700  0.81699712  1
  P  P0  1  0.29756764  0.99819248  0.24973138  1
  P  P1  1  0.70062484  0.70243236  0.24973138  1
  P  P2  1  0.00180752  0.29937516  0.24973138  1
  P  P3  1  0.29646543  0.30513990  0.75342954  1
  P  P4  1  0.00867447  0.70353457  0.75342954  1
  P  P5  1  0.69486010  0.99132553  0.75342954  1
  P  P6  1  0.95688548  0.33298777  0.58384749  1
  P  P7  1  0.37610328  0.04311452  0.58384749  1
  P  P8  1  0.66701223  0.62389672  0.58384749  1
  P  P9  1  0.95641393  0.62229606  0.08125874  1
  P  P10  1  0.66588313  0.04358607  0.08125874  1
  P  P11  1  0.37770394  0.33411687  0.08125874  1
  P  P12  1  0.62369349  0.66135075  0.91783479  1
  P  P13  1  0.03765627  0.37630651  0.91783479  1
  P  P14  1  0.33864925  0.96234373  0.91783479  1
  P  P15  1  0.63160135  0.97251588  0.42031579  1
  P  P16  1  0.34091354  0.36839865  0.42031579  1
  P  P17  1  0.02748412  0.65908646  0.42031579  1
  O  O0  1  0.21365626  0.02480098  0.30715830  1
  O  O1  1  0.81114472  0.78634374  0.30715830  1
  O  O2  1  0.97519902  0.18885528  0.30715830  1
  O  O3  1  0.21682843  0.19585685  0.81079706  1
  O  O4  1  0.97902843  0.78317157  0.81079706  1
  O  O5  1  0.80414315  0.02097157  0.81079706  1
  O  O6  1  0.77038456  0.95362333  0.69602621  1
  O  O7  1  0.18323877  0.22961544  0.69602621  1
  O  O8  1  0.04637667  0.81676123  0.69602621  1
  O  O9  1  0.78032086  0.81013200  0.19081814  1
  O  O10  1  0.02981115  0.21967914  0.19081814  1
  O  O11  1  0.18986800  0.97018885  0.19081814  1
  O  O12  1  0.88058123  0.36027396  0.64273933  1
  O  O13  1  0.47969373  0.11941877  0.64273933  1
  O  O14  1  0.63972604  0.52030627  0.64273933  1
  O  O15  1  0.87381930  0.51231708  0.13733329  1
  O  O16  1  0.63849877  0.12618070  0.13733329  1
  O  O17  1  0.48768292  0.36150123  0.13733329  1
  O  O18  1  0.46592136  0.30361694  0.02072514  1
  O  O19  1  0.83769658  0.53407864  0.02072514  1
  O  O20  1  0.69638306  0.16230342  0.02072514  1
  O  O21  1  0.46946699  0.16364299  0.52690006  1
  O  O22  1  0.69417700  0.53053301  0.52690006  1
  O  O23  1  0.83635701  0.30582300  0.52690006  1
  O  O24  1  0.54566737  0.69227594  0.97415780  1
  O  O25  1  0.14660757  0.45433263  0.97415780  1
  O  O26  1  0.30772406  0.85339243  0.97415780  1
  O  O27  1  0.55234238  0.86257605  0.47771712  1
  O  O28  1  0.31023267  0.44765762  0.47771712  1
  O  O29  1  0.13742395  0.68976733  0.47771712  1
  O  O30  1  0.10341385  0.62092286  0.36331911  1
  O  O31  1  0.51750800  0.89658615  0.36331911  1
  O  O32  1  0.37907714  0.48249200  0.36331911  1
  O  O33  1  0.12462860  0.49740974  0.85971610  1
  O  O34  1  0.37278014  0.87537140  0.85971610  1
  O  O35  1  0.50259026  0.62721986  0.85971610  1
  O  O36  1  0.00127210  0.81580712  0.41458454  1
  O  O37  1  0.81453502  0.99872790  0.41458454  1
  O  O38  1  0.18419288  0.18546498  0.41458454  1
  O  O39  1  0.01168230  0.19457587  0.91015860  1
  O  O40  1  0.18289357  0.98831770  0.91015860  1
  O  O41  1  0.80542413  0.81710643  0.91015860  1
  O  O42  1  0.96903317  0.16633045  0.58475266  1
  O  O43  1  0.19729728  0.03096683  0.58475266  1
  O  O44  1  0.83366955  0.80270272  0.58475266  1
  O  O45  1  0.97021668  0.80068810  0.08070880  1
  O  O46  1  0.83047143  0.02978332  0.08070880  1
  O  O47  1  0.19931190  0.16952857  0.08070880  1
  O  O48  1  0.66852543  0.14820220  0.74827825  1
  O  O49  1  0.47967777  0.33147457  0.74827825  1
  O  O50  1  0.85179780  0.52032223  0.74827825  1
  O  O51  1  0.68300349  0.52152400  0.24671119  1
  O  O52  1  0.83852152  0.31699651  0.24671119  1
  O  O53  1  0.47847600  0.16147848  0.24671119  1
  O  O54  1  0.63581948  0.48973876  0.91967857  1
  O  O55  1  0.85392028  0.36418052  0.91967857  1
  O  O56  1  0.51026124  0.14607972  0.91967857  1
  O  O57  1  0.64648842  0.15795169  0.42617764  1
  O  O58  1  0.51146427  0.35351158  0.42617764  1
  O  O59  1  0.84204831  0.48853573  0.42617764  1
  O  O60  1  0.36015364  0.49601134  0.07564359  1
  O  O61  1  0.13585670  0.63984636  0.07564359  1
  O  O62  1  0.50398866  0.86414330  0.07564359  1
  O  O63  1  0.35610087  0.86260350  0.57808454  1
  O  O64  1  0.50650163  0.64389913  0.57808454  1
  O  O65  1  0.13739650  0.49349837  0.57808454  1
  O  O66  1  0.31473199  0.83470625  0.25424200  1
  O  O67  1  0.51997326  0.68526801  0.25424200  1
  O  O68  1  0.16529375  0.48002674  0.25424200  1
  O  O69  1  0.31023670  0.49026303  0.75955213  1
  O  O70  1  0.18002533  0.68976330  0.75955213  1
  O  O71  1  0.50973697  0.81997467  0.75955213  1
loop_
_geom_bond_atom_site_label_1
_geom_bond_atom_site_label_2
_geom_bond_distance
_geom_bond_site_symmetry_2
Na0 O53 2.464922 1_565
Na0 O66 2.480272 1_555
Na0 O67 2.482664 1_555
Na0 O52 2.506752 1_565
Na0 O31 2.626483 1_555
Na0 O16 2.751839 1_565
Na0 O2 2.926355 1_565
Na0 O9 2.955083 1_555
Na1 O51 2.464930 1_555
Na1 O67 2.480272 1_555
Na1 O68 2.482672 1_555
Na1 O53 2.506759 1_555
Na1 O32 2.626484 1_555
Na1 O17 2.751843 1_555
Na1 O0 2.926355 1_555
Na1 O10 2.955083 1_555
Na2 O52 2.464930 1_455
Na2 O68 2.480264 1_555
Na2 O66 2.482665 1_555
Na2 O51 2.506750 1_455
Na2 O30 2.626481 1_555
Na2 O15 2.751841 1_455
Na2 O1 2.926355 1_455
Na2 O11 2.955083 1_555
Na3 O49 2.368489 1_555
Na3 O14 2.425974 1_555
Na3 O71 2.529725 1_555
Na3 O50 2.537058 1_555
Na3 O69 2.639654 1_555
Na3 O6 2.707512 1_555
Na3 O35 2.835851 1_555
Na4 O50 2.368481 1_555
Na4 O12 2.425970 1_555
Na4 O69 2.529717 1_655
Na4 O48 2.537051 1_555
Na4 O70 2.639653 1_655
Na4 O7 2.707512 1_655
Na4 O33 2.835849 1_655
Na5 O48 2.368489 1_555
Na5 O13 2.425972 1_555
Na5 O70 2.529718 1_545
Na5 O49 2.537049 1_555
Na5 O71 2.639646 1_545
Na5 O8 2.707512 1_545
Na5 O34 2.835847 1_545
Na6 O43 2.420957 1_555
Na6 O65 2.447334 1_555
Na6 O28 2.454757 1_555
Na6 O64 2.464595 1_555
Na6 O42 2.524222 1_455
Na6 O7 2.696561 1_555
Na7 O44 2.420966 1_455
Na7 O63 2.447318 1_555
Na7 O29 2.454751 1_555
Na7 O65 2.464582 1_555
Na7 O43 2.524222 1_565
Na7 O8 2.696562 1_555
Na8 O42 2.420959 1_565
Na8 O64 2.447318 1_555
Na8 O27 2.454755 1_555
Na8 O63 2.464599 1_555
Na8 O44 2.524214 1_555
Na8 O6 2.696559 1_555
Na9 O11 2.414758 1_555
Na9 O47 2.422900 1_565
Na9 O62 2.469662 1_555
Na9 O61 2.509228 1_555
Na9 O45 2.513817 1_455
Na9 O26 2.736964 1_554
Na9 O16 2.891435 1_565
Na10 O9 2.414756 1_555
Na10 O45 2.422891 1_555
Na10 O60 2.469676 1_555
Na10 O62 2.509243 1_555
Na10 O46 2.513817 1_565
Na10 O24 2.736970 1_554
Na10 O17 2.891435 1_555
Na11 O10 2.414754 1_555
Na11 O46 2.422893 1_455
Na11 O61 2.469679 1_555
Na11 O60 2.509228 1_555
Na11 O47 2.513809 1_555
Na11 O25 2.736968 1_554
Na11 O15 2.891435 1_455
Na12 O41 2.376521 1_555
Na12 O55 2.461448 1_555
Na12 O4 2.470835 1_555
Na12 O40 2.484200 1_655
Na12 O54 2.605698 1_555
Na12 O19 2.615279 1_556
Na12 O33 2.877761 1_655
Na12 O26 2.930872 1_655
Na13 O39 2.376529 1_655
Na13 O56 2.461431 1_555
Na13 O5 2.470838 1_555
Na13 O41 2.484207 1_545
Na13 O55 2.605697 1_555
Na13 O20 2.615274 1_556
Na13 O34 2.877761 1_545
Na13 O24 2.930872 1_545
Na14 O40 2.376529 1_545
Na14 O54 2.461445 1_555
Na14 O3 2.470836 1_555
Na14 O39 2.484198 1_555
Na14 O56 2.605713 1_555
Na14 O18 2.615283 1_556
Na14 O35 2.877761 1_555
Na14 O25 2.930872 1_555
Na15 O37 2.364325 1_545
Na15 O2 2.457987 1_555
Na15 O38 2.536190 1_655
Na15 O59 2.556749 1_555
Na15 O57 2.622151 1_555
Na15 O30 2.703568 1_655
Na15 O23 2.878496 1_555
Na15 O28 2.983185 1_655
Na16 O38 2.364317 1_555
Na16 O0 2.457983 1_555
Na16 O36 2.536183 1_545
Na16 O57 2.556765 1_555
Na16 O58 2.622152 1_555
Na16 O31 2.703568 1_545
Na16 O21 2.878500 1_555
Na16 O29 2.983184 1_545
Na17 O36 2.364325 1_655
Na17 O1 2.457985 1_555
Na17 O37 2.536182 1_555
Na17 O58 2.556763 1_555
Na17 O59 2.622167 1_555
Na17 O32 2.703568 1_555
Na17 O22 2.878504 1_555
Na17 O27 2.983185 1_555
Na18 O38 2.459638 1_555
Na18 O36 2.459638 1_545
Na18 O37 2.459638 1_445
Na18 O44 2.528687 1_445
Na18 O42 2.528687 1_455
Na18 O43 2.528687 1_555
Na19 O46 2.381917 1_455
Na19 O47 2.381917 1_555
Na19 O45 2.381917 1_445
Na19 O39 2.656299 1_554
Na19 O41 2.656299 1_444
Na19 O40 2.656299 1_544
Na20 O50 2.440780 1_555
Na20 O48 2.440780 1_555
Na20 O49 2.440780 1_555
Na20 O56 2.520662 1_555
Na20 O54 2.520662 1_555
Na20 O55 2.520662 1_555
Na21 O51 2.416315 1_555
Na21 O53 2.416315 1_555
Na21 O52 2.416315 1_555
Na21 O57 2.611477 1_555
Na21 O59 2.611477 1_555
Na21 O58 2.611477 1_555
Na22 O68 2.416287 1_555
Na22 O66 2.416287 1_555
Na22 O67 2.416287 1_555
Na22 O62 2.683762 1_555
Na22 O60 2.683762 1_555
Na22 O61 2.683762 1_555
Na23 O63 2.447281 1_555
Na23 O65 2.447282 1_555
Na23 O64 2.447282 1_555
Na23 O69 2.646360 1_555
Na23 O71 2.646360 1_555
Na23 O70 2.646360 1_555
Ge0 O19 1.861196 1_556
Ge0 O20 1.861196 1_556
Ge0 O18 1.861196 1_556
Ge0 O56 2.117075 1_555
Ge0 O54 2.117075 1_555
Ge0 O55 2.117075 1_555
Ge1 O22 1.917200 1_555
Ge1 O21 1.917200 1_555
Ge1 O23 1.917200 1_555
Ge1 O57 1.949814 1_555
Ge1 O59 1.949814 1_555
Ge1 O58 1.949814 1_555
Ge2 O69 1.952556 1_555
Ge2 O71 1.952556 1_555
Ge2 O70 1.952556 1_555
Ge2 O34 1.963815 1_555
Ge2 O33 1.963815 1_555
Ge2 O35 1.963815 1_555
O0 P0 1.545749 1_545
O0 Zn0 1.997271 1_555
O1 P1 1.545749 1_555
O1 Zn0 1.997271 1_665
O2 P2 1.545749 1_655
O2 Zn0 1.997271 1_655
O3 P3 1.534190 1_555
O3 Zn1 2.011627 1_555
O4 P4 1.534190 1_655
O4 Zn1 2.011627 1_665
O5 P5 1.534190 1_545
O5 Zn1 2.011627 1_655
O6 P5 1.545092 1_555
O6 Zn2 2.132508 1_665
O7 P3 1.545092 1_555
O7 Zn2 2.132508 1_555
O8 P4 1.545092 1_555
O8 Zn2 2.132508 1_565
O9 P1 1.556489 1_555
O9 Zn3 1.993488 1_665
O10 P2 1.556489 1_555
O10 Zn3 1.993488 1_555
O11 P0 1.556489 1_555
O11 Zn3 1.993488 1_565
O12 P6 1.537328 1_555
O12 Zn4 1.990872 1_555
O13 P7 1.537328 1_555
O13 Zn4 1.990872 1_555
O14 P8 1.537328 1_555
O14 Zn4 1.990872 1_555
O15 P9 1.517793 1_555
O15 Zn5 2.028294 1_555
O16 P10 1.517793 1_555
O16 Zn5 2.028294 1_555
O17 P11 1.517793 1_555
O17 Zn5 2.028294 1_555
O18 P11 1.637093 1_555
O19 P9 1.637093 1_555
O20 P10 1.637093 1_555
O21 P7 1.589151 1_555
O22 P8 1.589151 1_555
O23 P6 1.589151 1_555
O24 P12 1.512182 1_555
O24 Zn6 2.038020 1_556
O25 P13 1.512182 1_555
O25 Zn6 2.038020 1_556
O26 P14 1.512182 1_555
O26 Zn6 2.038020 1_556
O27 P15 1.536722 1_555
O27 Zn7 2.014303 1_555
O28 P16 1.536722 1_555
O28 Zn7 2.014303 1_555
O29 P17 1.536722 1_555
O29 Zn7 2.014303 1_555
O30 P17 1.541701 1_555
O30 Zn8 2.121606 1_555
O31 P15 1.541701 1_555
O31 Zn8 2.121606 1_555
O32 P16 1.541701 1_555
O32 Zn8 2.121606 1_555
O33 P13 1.601987 1_555
O34 P14 1.601987 1_555
O35 P12 1.601988 1_555
O36 P17 1.545460 1_555
O36 Zn0 2.258639 1_565
O37 P15 1.545468 1_555
O37 Zn0 2.258639 1_665
O38 P16 1.545465 1_555
O38 Zn0 2.258639 1_555
O39 P13 1.539665 1_555
O39 Zn1 2.211781 1_555
O40 P14 1.539657 1_555
O40 Zn1 2.211781 1_565
O41 P12 1.539662 1_555
O41 Zn1 2.211781 1_665
O42 P6 1.555888 1_555
O42 Zn2 2.198979 1_655
O43 P7 1.555897 1_555
O43 Zn2 2.198979 1_555
O44 P8 1.555893 1_555
O44 Zn2 2.198979 1_665
O45 P9 1.545520 1_555
O45 Zn3 2.374098 1_665
O46 P10 1.545511 1_555
O46 Zn3 2.374098 1_655
O47 P11 1.545516 1_555
O47 Zn3 2.374098 1_555
O48 P5 1.546537 1_545
O48 Zn4 2.241500 1_555
O49 P3 1.546546 1_555
O49 Zn4 2.241500 1_555
O50 P4 1.546543 1_655
O50 Zn4 2.241500 1_555
O51 P1 1.554669 1_555
O51 Zn5 2.124124 1_555
O52 P2 1.554660 1_655
O52 Zn5 2.124124 1_555
O53 P0 1.554665 1_545
O53 Zn5 2.124124 1_555
O54 P12 1.600627 1_555
O55 P13 1.600610 1_655
O56 P14 1.600618 1_545
O57 P15 1.609506 1_545
O58 P16 1.609523 1_555
O59 P17 1.609513 1_655
O60 P11 1.545326 1_555
O60 Zn6 2.100376 1_555
O61 P9 1.545309 1_455
O61 Zn6 2.100376 1_555
O62 P10 1.545316 1_565
O62 Zn6 2.100376 1_555
O63 P7 1.545968 1_565
O63 Zn7 2.216785 1_555
O64 P8 1.545985 1_555
O64 Zn7 2.216785 1_555
O65 P6 1.545975 1_455
O65 Zn7 2.216785 1_555
O66 P0 1.555829 1_555
O66 Zn8 2.150384 1_555
O67 P1 1.555837 1_555
O67 Zn8 2.150384 1_555
O68 P2 1.555834 1_555
O68 Zn8 2.150384 1_555
O69 P3 1.611561 1_555
O70 P4 1.611552 1_555
O71 P5 1.611557 1_555
