# generated using pymatgen
data_MgAg2(HgO2)2
_symmetry_space_group_name_H-M   'P 1'
_cell_length_a   3.66787754
_cell_length_b   9.63436380
_cell_length_c   5.51783955
_cell_angle_alpha   122.75942131
_cell_angle_beta   81.34711740
_cell_angle_gamma   85.67720108
_symmetry_Int_Tables_number   1
_chemical_formula_structural   MgAg2(HgO2)2
_chemical_formula_sum   'Mg1 Ag2 Hg2 O4'
_cell_volume   159.19973250
_cell_formula_units_Z   1
loop_
 _symmetry_equiv_pos_site_id
 _symmetry_equiv_pos_as_xyz
  1  'x, y, z'
loop_
 _atom_site_type_symbol
 _atom_site_label
 _atom_site_symmetry_multiplicity
 _atom_site_fract_x
 _atom_site_fract_y
 _atom_site_fract_z
 _atom_site_occupancy
  Mg  Mg0  1  0.24237231  0.34458994  0.36083263  1
  Ag  Ag0  1  0.47785379  -0.01603577  0.47674555  1
  Ag  Ag1  1  0.92451752  0.46746692  0.01309826  1
  Hg  Hg0  1  0.50736264  0.68584102  0.69913428  1
  Hg  Hg1  1  0.94621680  0.01999300  0.00552699  1
  O  O0  1  0.26034128  0.12994401  0.33416832  1
  O  O1  1  0.77999957  0.84776972  0.60910733  1
  O  O2  1  0.08682919  0.56260530  0.75609894  1
  O  O3  1  0.77450690  0.33976985  0.20957371  1
loop_
_geom_bond_atom_site_label_1
_geom_bond_atom_site_label_2
_geom_bond_distance
_geom_bond_site_symmetry_2
Mg0 O0 1.987405 1_555
Mg0 O3 1.990607 1_555
Mg0 O2 1.995328 1_555
Mg0 O3 2.011142 1_455
Ag0 O0 2.109643 1_555
Ag0 O1 2.131849 1_545
Ag1 O3 2.087499 1_555
Ag1 O2 2.107239 1_654
Hg0 O2 2.102796 1_555
Hg0 O1 2.145932 1_555
Hg0 O2 2.500066 1_655
Hg1 O0 2.114660 1_655
Hg1 O1 2.129640 1_544
Hg1 O0 2.624119 1_555
