# generated using pymatgen
data_Na7CaSi3Sn3(PO8)3
_symmetry_space_group_name_H-M   'P 1'
_cell_length_a   9.16069960
_cell_length_b   9.16972465
_cell_length_c   22.57665855
_cell_angle_alpha   89.73871864
_cell_angle_beta   90.19940593
_cell_angle_gamma   119.92700664
_symmetry_Int_Tables_number   1
_chemical_formula_structural   Na7CaSi3Sn3(PO8)3
_chemical_formula_sum   'Na21 Ca3 Si9 Sn9 P9 O72'
_cell_volume   1643.57400677
_cell_formula_units_Z   3
loop_
 _symmetry_equiv_pos_site_id
 _symmetry_equiv_pos_as_xyz
  1  'x, y, z'
loop_
 _atom_site_type_symbol
 _atom_site_label
 _atom_site_symmetry_multiplicity
 _atom_site_fract_x
 _atom_site_fract_y
 _atom_site_fract_z
 _atom_site_occupancy
  Na  Na0  1  0.63770906  0.00984834  0.24657961  1
  Na  Na1  1  0.37358927  0.36319666  0.24693570  1
  Na  Na2  1  0.99062183  0.63072263  0.25073295  1
  Na  Na3  1  0.63728754  0.62268630  0.75003314  1
  Na  Na4  1  0.98934836  0.37308559  0.74613670  1
  Na  Na5  1  0.37289324  0.00702199  0.74581538  1
  Na  Na6  1  0.02830239  0.68900553  0.58357861  1
  Na  Na7  1  0.66882636  0.97677069  0.57795415  1
  Na  Na8  1  0.31527651  0.97854542  0.08347767  1
  Na  Na9  1  0.65811509  0.68873603  0.08240022  1
  Na  Na10  1  0.02590546  0.33182854  0.07888022  1
  Na  Na11  1  0.33400828  0.30348661  0.91907498  1
  Na  Na12  1  0.96847484  0.28827587  0.41751756  1
  Na  Na13  1  0.31932757  0.03073300  0.41626552  1
  Na  Na14  1  0.71252150  0.67942254  0.41579432  1
  Na  Na15  1  0.00871191  0.01088226  0.49471365  1
  Na  Na16  1  0.98370293  0.99327363  0.99726464  1
  Na  Na17  1  0.68897161  0.34767155  0.83591563  1
  Na  Na18  1  0.66623284  0.33327777  0.33541266  1
  Na  Na19  1  0.34030327  0.66806969  0.16388100  1
  Na  Na20  1  0.32276878  0.64956558  0.66337779  1
  Ca  Ca0  1  0.99869505  0.00054415  0.35388961  1
  Ca  Ca1  1  0.66976329  0.33727107  0.68257451  1
  Ca  Ca2  1  0.66520285  0.33070071  0.17751178  1
  Si  Si0  1  0.00816945  0.71558979  0.75206883  1
  Si  Si1  1  0.97268506  0.33407283  0.58542798  1
  Si  Si2  1  0.66319582  0.02980409  0.08372759  1
  Si  Si3  1  0.36543074  0.33473873  0.08262658  1
  Si  Si4  1  0.63020148  0.66496446  0.91643804  1
  Si  Si5  1  0.03261266  0.36983679  0.91537290  1
  Si  Si6  1  0.61904347  0.96131416  0.41927220  1
  Si  Si7  1  0.34284210  0.37805373  0.41772099  1
  Si  Si8  1  0.03786405  0.65916779  0.41885425  1
  Sn  Sn0  1  0.99222417  0.99540537  0.85637843  1
  Sn  Sn1  1  0.00555860  0.00308994  0.64764025  1
  Sn  Sn2  1  0.00012472  0.00300897  0.14889547  1
  Sn  Sn3  1  0.67075792  0.33284020  0.98074896  1
  Sn  Sn4  1  0.66838878  0.33106973  0.48283922  1
  Sn  Sn5  1  0.33562476  0.66488869  0.01294838  1
  Sn  Sn6  1  0.33068636  0.66009257  0.51744378  1
  Sn  Sn7  1  0.33377421  0.66492146  0.31892360  1
  Sn  Sn8  1  0.32876834  0.66449638  0.81806819  1
  P  P0  1  0.29410486  0.99105912  0.25082269  1
  P  P1  1  0.69775709  0.70455785  0.25059389  1
  P  P2  1  0.00897234  0.30583803  0.25066364  1
  P  P3  1  0.28398208  0.29156700  0.75357801  1
  P  P4  1  0.70636649  0.99181925  0.75134279  1
  P  P5  1  0.36540715  0.03220174  0.58353122  1
  P  P6  1  0.66600896  0.63509137  0.58461598  1
  P  P7  1  0.96859984  0.63523139  0.08287843  1
  P  P8  1  0.33539157  0.96270256  0.91596656  1
  O  O0  1  0.21276216  0.01204946  0.30531458  1
  O  O1  1  0.79895906  0.78423518  0.30560200  1
  O  O2  1  0.98376542  0.20246062  0.30551231  1
  O  O3  1  0.20226015  0.18635301  0.81021206  1
  O  O4  1  0.97995570  0.81429794  0.80626921  1
  O  O5  1  0.82506941  0.02809189  0.80476555  1
  O  O6  1  0.78348466  0.96155596  0.69380556  1
  O  O7  1  0.16907402  0.20976695  0.69834719  1
  O  O8  1  0.04209466  0.82870683  0.69006005  1
  O  O9  1  0.78520660  0.81589672  0.19295816  1
  O  O10  1  0.03440571  0.21981183  0.19325675  1
  O  O11  1  0.18180629  0.96469263  0.19298734  1
  O  O12  1  0.90392781  0.37261409  0.64480151  1
  O  O13  1  0.46463406  0.10364710  0.63990129  1
  O  O14  1  0.63853162  0.54068227  0.64173091  1
  O  O15  1  0.91172353  0.53653020  0.14000710  1
  O  O16  1  0.62067237  0.08584592  0.14512830  1
  O  O17  1  0.47281436  0.38202727  0.14228870  1
  O  O18  1  0.45468531  0.29504952  0.02558966  1
  O  O19  1  0.84228134  0.54958813  0.03087700  1
  O  O20  1  0.71234239  0.17082964  0.03060101  1
  O  O21  1  0.45074097  0.14362308  0.52771351  1
  O  O22  1  0.69594619  0.54862562  0.52975210  1
  O  O23  1  0.84252737  0.29413895  0.52779262  1
  O  O24  1  0.54603658  0.69299978  0.97565942  1
  O  O25  1  0.15348045  0.45595265  0.97332323  1
  O  O26  1  0.30713615  0.85364770  0.97177959  1
  O  O27  1  0.53309062  0.84581153  0.47782771  1
  O  O28  1  0.30458674  0.46722023  0.47199898  1
  O  O29  1  0.15626918  0.69430373  0.47690824  1
  O  O30  1  0.11676452  0.62198774  0.35774060  1
  O  O31  1  0.50476568  0.88086861  0.35796199  1
  O  O32  1  0.38137487  0.49120376  0.35544224  1
  O  O33  1  0.11599398  0.48199119  0.85520869  1
  O  O34  1  0.36165195  0.88269073  0.85945714  1
  O  O35  1  0.50838011  0.62982086  0.85759973  1
  O  O36  1  0.01219922  0.81940348  0.41695857  1
  O  O37  1  0.80487424  0.98602330  0.41804464  1
  O  O38  1  0.18279295  0.19249622  0.41610287  1
  O  O39  1  0.03193227  0.18850812  0.91207337  1
  O  O40  1  0.17995860  0.98841921  0.91188372  1
  O  O41  1  0.81676515  0.83179517  0.91328818  1
  O  O42  1  0.97582117  0.15362182  0.58842322  1
  O  O43  1  0.18256176  0.00618974  0.58522649  1
  O  O44  1  0.83405633  0.81237862  0.58649681  1
  O  O45  1  0.98424509  0.81385549  0.08797036  1
  O  O46  1  0.83360238  0.00730387  0.08748692  1
  O  O47  1  0.17827272  0.15774733  0.08756787  1
  O  O48  1  0.67741022  0.14143018  0.74758786  1
  O  O49  1  0.45775947  0.30840222  0.74898253  1
  O  O50  1  0.84410152  0.53018972  0.75200176  1
  O  O51  1  0.67560657  0.52798968  0.24533590  1
  O  O52  1  0.85762442  0.33307769  0.24452922  1
  O  O53  1  0.47085609  0.14540570  0.24570963  1
  O  O54  1  0.63302871  0.48648971  0.92187890  1
  O  O55  1  0.84642037  0.34965273  0.92146144  1
  O  O56  1  0.49259386  0.14056763  0.92112542  1
  O  O57  1  0.62571167  0.14474056  0.42213485  1
  O  O58  1  0.51960901  0.37229592  0.42439710  1
  O  O59  1  0.85368773  0.48361764  0.42316898  1
  O  O60  1  0.33172306  0.49529577  0.07422375  1
  O  O61  1  0.14786756  0.66207382  0.07081648  1
  O  O62  1  0.49368362  0.84344263  0.07249507  1
  O  O63  1  0.34843083  0.85377833  0.57763221  1
  O  O64  1  0.51759473  0.67106541  0.57710724  1
  O  O65  1  0.15792440  0.50588530  0.57787086  1
  O  O66  1  0.30296250  0.82276948  0.25168448  1
  O  O67  1  0.52124024  0.69726549  0.25092473  1
  O  O68  1  0.17848297  0.48160909  0.25162448  1
  O  O69  1  0.30162785  0.47149459  0.75519093  1
  O  O70  1  0.18681147  0.70595808  0.75541874  1
  O  O71  1  0.53182134  0.82412781  0.75721854  1
loop_
_geom_bond_atom_site_label_1
_geom_bond_atom_site_label_2
_geom_bond_distance
_geom_bond_site_symmetry_2
Na0 O53 2.403560 1_555
Na0 O16 2.418170 1_555
Na0 O67 2.512051 1_545
Na0 O52 2.624316 1_555
Na0 O66 2.666716 1_545
Na0 O31 2.786108 1_545
Na1 O51 2.401663 1_555
Na1 O17 2.508475 1_555
Na1 O68 2.514642 1_555
Na1 O53 2.561105 1_555
Na1 O67 2.662506 1_555
Na1 O32 2.706557 1_555
Na2 O52 2.374355 1_555
Na2 O66 2.502151 1_655
Na2 O51 2.552646 1_555
Na2 O15 2.627114 1_555
Na2 O68 2.679372 1_655
Na2 O30 2.692458 1_655
Na2 O11 2.961962 1_655
Na2 O1 3.015939 1_555
Na3 O50 2.431698 1_555
Na3 O71 2.481184 1_555
Na3 O49 2.506363 1_555
Na3 O14 2.563124 1_555
Na3 O69 2.671696 1_555
Na3 O35 2.719346 1_555
Na4 O50 2.403915 1_555
Na4 O12 2.414678 1_555
Na4 O69 2.541956 1_655
Na4 O48 2.573402 1_555
Na4 O70 2.669617 1_655
Na4 O33 2.693248 1_655
Na5 O48 2.423130 1_555
Na5 O70 2.423978 1_545
Na5 O49 2.470732 1_555
Na5 O13 2.541808 1_555
Na5 O71 2.725483 1_545
Na5 O34 2.784058 1_545
Na5 O8 2.913639 1_545
Na6 O65 2.497739 1_555
Na6 O43 2.521361 1_565
Na6 O44 2.541783 1_455
Na6 O63 2.545740 1_555
Na6 O29 2.671711 1_555
Na6 O8 2.701972 1_555
Na6 O12 2.881299 1_455
Na6 O22 2.912292 1_455
Na7 O64 2.429628 1_555
Na7 O42 2.458246 1_565
Na7 O63 2.565847 1_555
Na7 O27 2.571662 1_555
Na7 O44 2.621556 1_555
Na7 O23 2.765069 1_565
Na7 O6 2.843854 1_555
Na8 O62 2.508614 1_555
Na8 O47 2.518704 1_565
Na8 O61 2.533552 1_555
Na8 O45 2.630233 1_455
Na8 O11 2.736214 1_555
Na8 O26 2.759775 1_554
Na8 O16 2.823294 1_565
Na8 O18 2.835639 1_565
Na9 O46 2.539075 1_565
Na9 O62 2.541331 1_555
Na9 O60 2.612976 1_555
Na9 O45 2.614641 1_555
Na9 O24 2.623934 1_554
Na9 O9 2.756270 1_555
Na9 O17 2.799489 1_555
Na9 O19 2.828868 1_555
Na10 O60 2.432466 1_555
Na10 O47 2.598690 1_555
Na10 O46 2.600560 1_455
Na10 O25 2.647256 1_554
Na10 O61 2.659373 1_555
Na10 O20 2.716647 1_455
Na10 O10 2.789858 1_555
Na10 O15 2.917989 1_455
Na11 O54 2.395127 1_555
Na11 O39 2.425180 1_555
Na11 O40 2.509830 1_545
Na11 O56 2.551246 1_555
Na11 O18 2.660080 1_556
Na11 O3 2.713086 1_555
Na11 O25 2.919969 1_555
Na11 O35 2.939463 1_555
Na12 O37 2.404807 1_545
Na12 O59 2.492568 1_555
Na12 O38 2.519553 1_655
Na12 O2 2.676523 1_555
Na12 O57 2.734940 1_555
Na12 O23 2.759619 1_555
Na12 O28 2.938821 1_655
Na12 O30 2.976230 1_655
Na13 O38 2.369755 1_555
Na13 O57 2.461497 1_555
Na13 O36 2.496244 1_545
Na13 O0 2.660243 1_555
Na13 O58 2.734727 1_555
Na13 O21 2.758791 1_555
Na13 O31 2.977950 1_545
Na13 O29 3.000079 1_545
Na14 O36 2.380868 1_655
Na14 O58 2.474584 1_555
Na14 O37 2.500054 1_555
Na14 O1 2.640509 1_555
Na14 O59 2.690038 1_555
Na14 O22 2.806001 1_555
Na15 O38 2.410216 1_555
Na15 O37 2.468049 1_445
Na15 O36 2.499991 1_545
Na15 O42 2.589038 1_455
Na15 O43 2.599789 1_555
Na15 O44 2.692536 1_445
Na16 O41 2.423149 1_555
Na16 O46 2.500935 1_566
Na16 O39 2.506930 1_665
Na16 O45 2.622542 1_556
Na16 O47 2.632210 1_666
Na16 O40 2.656062 1_655
Na17 O55 2.401152 1_555
Na17 O50 2.454866 1_555
Na17 O54 2.515927 1_555
Na17 O56 2.669370 1_555
Na17 O48 2.719826 1_555
Na17 O49 2.772074 1_555
Na18 O57 2.508760 1_555
Na18 O59 2.532544 1_555
Na18 O58 2.544199 1_555
Na18 O51 2.673201 1_555
Na18 O53 2.683773 1_555
Na18 O52 2.704135 1_555
Na19 O67 2.494035 1_555
Na19 O68 2.550610 1_555
Na19 O60 2.552894 1_555
Na19 O62 2.559767 1_555
Na19 O66 2.563863 1_555
Na19 O61 2.720988 1_555
Na20 O65 2.400129 1_555
Na20 O69 2.580073 1_555
Na20 O64 2.585986 1_555
Na20 O70 2.609021 1_555
Na20 O63 2.615373 1_555
Na20 O71 2.768073 1_555
Ca0 O1 2.203455 1_545
Ca0 O0 2.206087 1_655
Ca0 O2 2.207465 1_555
Ca0 O38 2.226944 1_655
Ca0 O36 2.232474 1_645
Ca0 O37 2.246860 1_545
Ca1 O12 2.179524 1_555
Ca1 O14 2.219495 1_555
Ca1 O13 2.244576 1_555
Ca1 O50 2.307756 1_555
Ca1 O48 2.342005 1_555
Ca1 O49 2.365021 1_555
Ca2 O17 2.185055 1_555
Ca2 O16 2.200248 1_555
Ca2 O15 2.263842 1_555
Ca2 O52 2.310910 1_555
Ca2 O53 2.324676 1_555
Ca2 O51 2.340681 1_555
O0 P0 1.502483 1_545
O1 P1 1.503333 1_555
O2 P2 1.502723 1_655
O3 P3 1.549462 1_555
O3 Sn0 2.118966 1_445
O4 Si0 1.621459 1_655
O4 Sn0 1.969880 1_555
O5 P4 1.543183 1_545
O5 Sn0 2.057842 1_545
O6 P4 1.571234 1_555
O6 Sn1 2.146625 1_665
O7 P3 1.561112 1_555
O7 Sn1 2.078771 1_555
O8 Si0 1.673463 1_555
O8 Sn1 2.025825 1_565
O9 P1 1.598855 1_555
O9 Sn2 2.106456 1_665
O10 P2 1.597221 1_555
O10 Sn2 2.108779 1_555
O11 P0 1.602196 1_555
O11 Sn2 2.110239 1_565
O12 Si1 1.597110 1_555
O13 P5 1.510116 1_555
O14 P6 1.500058 1_555
O15 P7 1.509184 1_555
O16 Si2 1.596069 1_555
O17 Si3 1.593904 1_555
O18 Si3 1.663632 1_555
O18 Sn3 2.095047 1_554
O19 P7 1.557657 1_555
O19 Sn3 2.142901 1_554
O20 Si2 1.649932 1_555
O20 Sn3 2.040901 1_554
O21 P5 1.562434 1_555
O21 Sn4 2.129500 1_555
O22 P6 1.570467 1_555
O22 Sn4 2.163364 1_555
O23 Si1 1.675353 1_555
O23 Sn4 2.052823 1_555
O24 Si4 1.629800 1_555
O24 Sn5 2.001015 1_556
O25 Si5 1.639565 1_555
O25 Sn5 2.017565 1_556
O26 P8 1.545087 1_555
O26 Sn5 2.088601 1_556
O27 Si6 1.628421 1_555
O27 Sn6 1.996259 1_555
O28 Si7 1.609661 1_555
O28 Sn6 1.957203 1_555
O29 Si8 1.625861 1_555
O29 Sn6 1.994033 1_555
O30 Si8 1.673154 1_555
O30 Sn7 2.025599 1_555
O31 Si6 1.668749 1_555
O31 Sn7 2.015665 1_555
O32 Si7 1.674156 1_555
O32 Sn7 2.021376 1_555
O33 Si5 1.642183 1_555
O33 Sn8 2.011670 1_555
O34 P8 1.552610 1_555
O34 Sn8 2.093020 1_555
O35 Si4 1.657878 1_555
O35 Sn8 2.028321 1_555
O36 Si8 1.600013 1_555
O37 Si6 1.601711 1_555
O38 Si7 1.599099 1_555
O39 Si5 1.661643 1_555
O39 Sn0 2.055044 1_445
O40 P8 1.557383 1_555
O40 Sn0 2.150874 1_455
O41 Si4 1.630127 1_555
O41 Sn0 2.018857 1_555
O42 Si1 1.670264 1_555
O42 Sn1 2.030450 1_655
O43 P5 1.570247 1_555
O43 Sn1 2.141280 1_555
O44 P6 1.586681 1_555
O44 Sn1 2.167386 1_665
O45 P7 1.576056 1_555
O45 Sn2 2.165680 1_665
O46 Si2 1.675384 1_555
O46 Sn2 2.072538 1_655
O47 Si3 1.676071 1_555
O47 Sn2 2.069047 1_555
O48 P4 1.523654 1_545
O49 P3 1.524666 1_555
O50 Si0 1.612345 1_655
O51 P1 1.533123 1_555
O52 P2 1.532225 1_655
O53 P0 1.533421 1_545
O54 Si4 1.653644 1_555
O54 Sn3 2.082453 1_555
O55 Si5 1.627516 1_655
O55 Sn3 2.042170 1_555
O56 P8 1.550642 1_545
O56 Sn3 2.172416 1_555
O57 Si6 1.653898 1_545
O57 Sn4 2.074009 1_555
O58 Si7 1.652635 1_555
O58 Sn4 2.058736 1_555
O59 Si8 1.654428 1_655
O59 Sn4 2.069406 1_555
O60 Si3 1.658178 1_555
O60 Sn5 2.063666 1_555
O61 P7 1.559103 1_455
O61 Sn5 2.153350 1_555
O62 Si2 1.658121 1_565
O62 Sn5 2.055630 1_555
O63 P5 1.570570 1_565
O63 Sn6 2.181663 1_555
O64 P6 1.559291 1_555
O64 Sn6 2.137636 1_555
O65 Si1 1.650085 1_455
O65 Sn6 2.032200 1_555
O66 P0 1.585241 1_555
O66 Sn7 2.205392 1_555
O67 P1 1.584760 1_555
O67 Sn7 2.213581 1_555
O68 P2 1.585046 1_555
O68 Sn7 2.186334 1_555
O69 P3 1.576064 1_555
O69 Sn8 2.188715 1_555
O70 Si0 1.683716 1_555
O70 Sn8 2.076495 1_555
O71 P4 1.576415 1_555
O71 Sn8 2.184626 1_555
