# generated using pymatgen
data_Ba2Mg(NiO3)2
_symmetry_space_group_name_H-M   'P 1'
_cell_length_a   6.27683497
_cell_length_b   5.50512603
_cell_length_c   5.45517349
_cell_angle_alpha   89.99999651
_cell_angle_beta   109.22258284
_cell_angle_gamma   116.00995067
_symmetry_Int_Tables_number   1
_chemical_formula_structural   Ba2Mg(NiO3)2
_chemical_formula_sum   'Ba2 Mg1 Ni2 O6'
_cell_volume   157.63293465
_cell_formula_units_Z   1
loop_
 _symmetry_equiv_pos_site_id
 _symmetry_equiv_pos_as_xyz
  1  'x, y, z'
loop_
 _atom_site_type_symbol
 _atom_site_label
 _atom_site_symmetry_multiplicity
 _atom_site_fract_x
 _atom_site_fract_y
 _atom_site_fract_z
 _atom_site_occupancy
  Ba  Ba0  1  0.65664000  0.32832100  0.79521600  1
  Ba  Ba1  1  0.44953100  0.72476500  0.16560600  1
  Mg  Mg0  1  0.12311100  0.56155500  0.52548500  1
  Ni  Ni0  1  0.04403700  0.02201900  0.50460200  1
  Ni  Ni1  1  0.02029300  0.01014700  0.01493700  1
  O  O0  1  0.91895200  0.20135200  0.24280400  1
  O  O1  1  0.51459300  0.75729700  0.67713500  1
  O  O2  1  0.09041600  0.27901600  0.76757000  1
  O  O3  1  0.91895100  0.71759900  0.24280400  1
  O  O4  1  0.09041600  0.81140000  0.76757000  1
  O  O5  1  0.33972500  0.16986300  0.32627100  1
loop_
_geom_bond_atom_site_label_1
_geom_bond_atom_site_label_2
_geom_bond_distance
_geom_bond_site_symmetry_2
Ba0 O5 2.527740 1_555
Ba0 O3 2.742878 1_556
Ba0 O0 2.742886 1_556
Ba0 O1 2.873225 1_555
Ba0 O1 2.873230 1_545
Ba0 O4 2.903147 1_655
Ba0 O2 2.903153 1_655
Ba1 O1 2.677889 1_555
Ba1 O2 2.782665 1_554
Ba1 O4 2.782668 1_554
Ba1 O1 2.819905 1_554
Ba1 O3 2.854029 1_555
Ba1 O0 2.854035 1_565
Ba1 O5 3.020962 1_555
Ba1 O5 3.020972 1_565
Mg0 O2 2.025821 1_555
Mg0 O4 2.025825 1_555
Mg0 O1 2.054944 1_555
Mg0 O0 2.102945 1_455
Mg0 O3 2.102948 1_455
Ni0 O2 1.872988 1_555
Ni0 O4 1.872992 1_545
Ni0 O0 1.890029 1_455
Ni0 O3 1.890035 1_445
Ni0 O5 2.217556 1_555
Ni1 O5 1.972108 1_555
Ni1 O2 2.006308 1_554
Ni1 O4 2.006311 1_544
Ni1 O0 2.041004 1_455
Ni1 O3 2.041012 1_445
