# generated using pymatgen
data_Sr2Mg(AgO2)2
_symmetry_space_group_name_H-M   'P 1'
_cell_length_a   6.03416351
_cell_length_b   6.27144702
_cell_length_c   6.01614948
_cell_angle_alpha   65.95032240
_cell_angle_beta   88.79690702
_cell_angle_gamma   122.23204903
_symmetry_Int_Tables_number   1
_chemical_formula_structural   Sr2Mg(AgO2)2
_chemical_formula_sum   'Sr2 Mg1 Ag2 O4'
_cell_volume   167.28473658
_cell_formula_units_Z   1
loop_
 _symmetry_equiv_pos_site_id
 _symmetry_equiv_pos_as_xyz
  1  'x, y, z'
loop_
 _atom_site_type_symbol
 _atom_site_label
 _atom_site_symmetry_multiplicity
 _atom_site_fract_x
 _atom_site_fract_y
 _atom_site_fract_z
 _atom_site_occupancy
  Sr  Sr0  1  0.46937426  0.75785545  0.78835714  1
  Sr  Sr1  1  0.61187997  0.25886614  0.14573492  1
  Mg  Mg0  1  0.23492052  0.25725532  0.52296321  1
  Ag  Ag0  1  0.99622892  0.56363870  0.49926343  1
  Ag  Ag1  1  0.95156726  0.95263785  0.06965043  1
  O  O0  1  0.35197587  0.30384827  0.82560163  1
  O  O1  1  0.88669735  0.21124139  0.45110050  1
  O  O2  1  0.54461006  0.58907045  0.20127121  1
  O  O3  1  0.22655579  0.92701543  0.54367653  1
loop_
_geom_bond_atom_site_label_1
_geom_bond_atom_site_label_2
_geom_bond_distance
_geom_bond_site_symmetry_2
Mg0 O3 1.996329 1_545
Mg0 O2 1.996385 1_555
Mg0 O0 2.041268 1_555
Mg0 O1 2.044116 1_455
Ag0 O3 2.080806 1_655
Ag0 O1 2.092114 1_555
Ag1 O2 2.080928 1_555
Ag1 O0 2.093636 1_664
O0 Sr0 2.445576 1_555
O0 Sr1 2.530702 1_556
O1 Sr0 2.447117 1_545
O1 Sr1 2.534404 1_555
O2 Sr0 2.431941 1_554
O2 Sr1 2.453522 1_555
O3 Sr0 2.432077 1_555
O3 Sr1 2.452048 1_565
