# generated using pymatgen
data_Na14Ga4Si9Ge4(SO16)3
_symmetry_space_group_name_H-M   'P 1'
_cell_length_a   17.66587152
_cell_length_b   8.83307961
_cell_length_c   21.84239505
_cell_angle_alpha   90.09599887
_cell_angle_beta   89.30588148
_cell_angle_gamma   120.06386155
_symmetry_Int_Tables_number   1
_chemical_formula_structural   Na14Ga4Si9Ge4(SO16)3
_chemical_formula_sum   'Na42 Ga12 Si27 Ge12 S9 O144'
_cell_volume   2949.58422221
_cell_formula_units_Z   3
loop_
 _symmetry_equiv_pos_site_id
 _symmetry_equiv_pos_as_xyz
  1  'x, y, z'
loop_
 _atom_site_type_symbol
 _atom_site_label
 _atom_site_symmetry_multiplicity
 _atom_site_fract_x
 _atom_site_fract_y
 _atom_site_fract_z
 _atom_site_occupancy
  Na  Na0  1  0.81805434  0.00513480  0.25271866  1
  Na  Na1  1  0.17934386  0.36208064  0.25261633  1
  Na  Na2  1  0.68847338  0.37050923  0.25246450  1
  Na  Na3  1  0.99805783  0.62992590  0.24841802  1
  Na  Na4  1  0.50124110  0.63922506  0.25066355  1
  Na  Na5  1  0.31774299  0.62970862  0.75064589  1
  Na  Na6  1  0.99921543  0.36125889  0.74646243  1
  Na  Na7  1  0.49889019  0.36697146  0.74624992  1
  Na  Na8  1  0.18753085  0.00646416  0.74987762  1
  Na  Na9  1  0.68239639  0.00001412  0.74957270  1
  Na  Na10  1  0.14870862  0.32780420  0.58261232  1
  Na  Na11  1  0.65149085  0.33294144  0.58250031  1
  Na  Na12  1  0.33518095  0.97757336  0.58518625  1
  Na  Na13  1  0.83347087  0.96856871  0.58281498  1
  Na  Na14  1  0.14746978  0.96648888  0.08161825  1
  Na  Na15  1  0.65106790  0.97115603  0.08146814  1
  Na  Na16  1  0.33311413  0.69476914  0.08229328  1
  Na  Na17  1  0.83515985  0.69358832  0.08522648  1
  Na  Na18  1  0.48150067  0.67421232  0.91517633  1
  Na  Na19  1  0.98140755  0.67264642  0.91925761  1
  Na  Na20  1  0.34846715  0.02880748  0.91197126  1
  Na  Na21  1  0.84807314  0.02852022  0.91332667  1
  Na  Na22  1  0.16925825  0.29622806  0.91274942  1
  Na  Na23  1  0.66767903  0.29281011  0.91316835  1
  Na  Na24  1  0.48300866  0.29445446  0.42172525  1
  Na  Na25  1  0.97963476  0.28774372  0.41817170  1
  Na  Na26  1  0.16750256  0.04288237  0.41547447  1
  Na  Na27  1  0.67151212  0.04448972  0.41655104  1
  Na  Na28  1  0.34856079  0.66721672  0.41559758  1
  Na  Na29  1  0.84806204  0.66586455  0.41789623  1
  Na  Na30  1  0.99882893  0.99678669  0.50105047  1
  Na  Na31  1  0.50321614  0.00584037  0.50213016  1
  Na  Na32  1  0.00148781  0.99849365  0.00102847  1
  Na  Na33  1  0.50209366  0.00072501  0.99852385  1
  Na  Na34  1  0.33094699  0.33399280  0.82954156  1
  Na  Na35  1  0.82778194  0.33301237  0.83054754  1
  Na  Na36  1  0.32833533  0.32240978  0.33436030  1
  Na  Na37  1  0.83070393  0.32778537  0.33295467  1
  Na  Na38  1  0.16209971  0.66014845  0.16785305  1
  Na  Na39  1  0.66565938  0.66171818  0.16763326  1
  Na  Na40  1  0.16415538  0.66825632  0.66654325  1
  Na  Na41  1  0.66541856  0.66495873  0.66570307  1
  Ga  Ga0  1  0.99925299  0.01278991  0.34894802  1
  Ga  Ga1  1  0.50102517  0.00324219  0.35247409  1
  Ga  Ga2  1  0.99954728  0.99520267  0.84880206  1
  Ga  Ga3  1  0.50031695  0.98756923  0.84666679  1
  Ga  Ga4  1  0.33559682  0.32115161  0.68760429  1
  Ga  Ga5  1  0.83613688  0.35023096  0.18824106  1
  Ga  Ga6  1  0.32437179  0.34097846  0.98195516  1
  Ga  Ga7  1  0.82326375  0.34283903  0.98323740  1
  Ga  Ga8  1  0.32489384  0.30583341  0.48345129  1
  Ga  Ga9  1  0.82599737  0.32286100  0.48636527  1
  Ga  Ga10  1  0.68198765  0.68646981  0.31597108  1
  Ga  Ga11  1  0.18106977  0.67728385  0.81308745  1
  Si  Si0  1  0.15005640  0.00072289  0.25110450  1
  Si  Si1  1  0.64597904  0.99674218  0.25169725  1
  Si  Si2  1  0.35886254  0.72032556  0.24956416  1
  Si  Si3  1  0.85801422  0.71622170  0.25026985  1
  Si  Si4  1  -0.00004261  0.29207247  0.24951519  1
  Si  Si5  1  0.14312905  0.28889307  0.74960235  1
  Si  Si6  1  0.65003040  0.29877432  0.75197182  1
  Si  Si7  1  0.50003068  0.70774975  0.74957634  1
  Si  Si8  1  0.35839802  0.00068496  0.75013872  1
  Si  Si9  1  0.85888797  0.00518534  0.74930007  1
  Si  Si10  1  0.47955298  0.33783076  0.58260757  1
  Si  Si11  1  0.97827212  0.34327112  0.58276636  1
  Si  Si12  1  0.18345529  0.03350736  0.58488323  1
  Si  Si13  1  0.68108906  0.02965827  0.58321836  1
  Si  Si14  1  0.83951753  0.62302524  0.58371124  1
  Si  Si15  1  0.47801152  0.61375142  0.08291859  1
  Si  Si16  1  0.97971840  0.62137549  0.08250754  1
  Si  Si17  1  0.18121293  0.33215275  0.08345141  1
  Si  Si18  1  0.68191216  0.33284864  0.08537777  1
  Si  Si19  1  0.31242198  0.66968824  0.91821747  1
  Si  Si20  1  0.80955398  0.66897563  0.91534240  1
  Si  Si21  1  0.16736971  0.95585567  0.91652773  1
  Si  Si22  1  0.66798550  0.95429279  0.91716558  1
  Si  Si23  1  0.30928305  0.95017344  0.41555422  1
  Si  Si24  1  0.81313174  0.96075058  0.41872186  1
  Si  Si25  1  0.16799950  0.38150958  0.41697779  1
  Si  Si26  1  0.66689603  0.37855432  0.41585002  1
  Ge  Ge0  1  0.99760743  0.01053035  0.64253472  1
  Ge  Ge1  1  0.50908453  0.01714589  0.65253627  1
  Ge  Ge2  1  0.00850023  0.00140860  0.15322547  1
  Ge  Ge3  1  0.50520828  0.98421469  0.14840792  1
  Ge  Ge4  1  0.82582541  0.31836855  0.68047746  1
  Ge  Ge5  1  0.32822552  0.35014611  0.18496282  1
  Ge  Ge6  1  0.16181450  0.66071368  0.01812459  1
  Ge  Ge7  1  0.66396317  0.66188098  0.01865394  1
  Ge  Ge8  1  0.16325906  0.66573788  0.51921425  1
  Ge  Ge9  1  0.67360846  0.66004290  0.52538041  1
  Ge  Ge10  1  0.17713113  0.67498563  0.30882939  1
  Ge  Ge11  1  0.67887191  0.68195401  0.80709857  1
  S  S0  1  0.49625665  0.28526540  0.24829062  1
  S  S1  1  0.99744125  0.70717521  0.74930351  1
  S  S2  1  0.33547052  0.62479566  0.58259723  1
  S  S3  1  0.33654706  0.05022658  0.08384869  1
  S  S4  1  0.83558732  0.04605216  0.08253389  1
  S  S5  1  0.02152329  0.37851796  0.91680152  1
  S  S6  1  0.52209586  0.37885423  0.91728256  1
  S  S7  1  0.02350745  0.66679899  0.41583585  1
  S  S8  1  0.52208607  0.66532770  0.41709738  1
  O  O0  1  0.11000146  0.04852482  0.31022125  1
  O  O1  1  0.60276735  0.04179113  0.30984941  1
  O  O2  1  0.41902649  0.79373624  0.30933629  1
  O  O3  1  0.91933047  0.79688107  0.31008958  1
  O  O4  1  0.48154426  0.18277437  0.30550651  1
  O  O5  1  0.97872319  0.17584197  0.31114830  1
  O  O6  1  0.10379822  0.16631086  0.81124608  1
  O  O7  1  0.60821957  0.17292398  0.81200240  1
  O  O8  1  0.47776948  0.77867027  0.81229332  1
  O  O9  1  0.98314619  0.78046839  0.80756085  1
  O  O10  1  0.41750109  0.03977750  0.81134984  1
  O  O11  1  0.91685140  0.04581327  0.81108629  1
  O  O12  1  0.40230642  0.95904915  0.68922782  1
  O  O13  1  0.90174735  0.96731415  0.68914787  1
  O  O14  1  0.07925028  0.19811780  0.69022871  1
  O  O15  1  0.58672926  0.21843046  0.69148257  1
  O  O16  1  0.01577339  0.82285072  0.69663406  1
  O  O17  1  0.52293138  0.84602206  0.69246867  1
  O  O18  1  0.40147843  0.83988621  0.18703871  1
  O  O19  1  0.90179053  0.84431990  0.18840308  1
  O  O20  1  0.02384655  0.20196670  0.19150565  1
  O  O21  1  0.51403974  0.20391920  0.19441464  1
  O  O22  1  0.08839658  0.95752037  0.18979044  1
  O  O23  1  0.58307373  0.95464110  0.19029573  1
  O  O24  1  0.43827103  0.37101269  0.64358715  1
  O  O25  1  0.93425939  0.37119819  0.64553349  1
  O  O26  1  0.24761219  0.11587692  0.64299085  1
  O  O27  1  0.74660703  0.11376165  0.64294143  1
  O  O28  1  0.31753270  0.51589316  0.63721712  1
  O  O29  1  0.81369365  0.48828043  0.64228942  1
  O  O30  1  0.43285599  0.49413966  0.14524737  1
  O  O31  1  0.93914744  0.50561649  0.14322500  1
  O  O32  1  0.31856451  0.12958703  0.13814721  1
  O  O33  1  0.81751760  0.11934519  0.13715578  1
  O  O34  1  0.24821345  0.37960587  0.14234231  1
  O  O35  1  0.74569044  0.37542793  0.14311182  1
  O  O36  1  0.22146215  0.28185995  0.02500517  1
  O  O37  1  0.71758011  0.27873557  0.02437170  1
  O  O38  1  0.41693128  0.53424848  0.02368798  1
  O  O39  1  0.91925072  0.54031835  0.02132785  1
  O  O40  1  0.34967344  0.15125340  0.02715047  1
  O  O41  1  0.84756991  0.14933825  0.02622904  1
  O  O42  1  0.21978063  0.15750075  0.52353456  1
  O  O43  1  0.71963585  0.15705994  0.52391532  1
  O  O44  1  0.34750759  0.54566001  0.52612517  1
  O  O45  1  0.85412778  0.54487138  0.52051081  1
  O  O46  1  0.41822272  0.29441751  0.52158009  1
  O  O47  1  0.91850534  0.29767231  0.52280241  1
  O  O48  1  0.26409726  0.70352949  0.97899507  1
  O  O49  1  0.76615622  0.70577510  0.97773118  1
  O  O50  1  0.07857680  0.45661357  0.97181193  1
  O  O51  1  0.57886496  0.45792305  0.97251643  1
  O  O52  1  0.14767175  0.82772924  0.97766963  1
  O  O53  1  0.64740001  0.82551094  0.97844004  1
  O  O54  1  0.26540530  0.82498372  0.47705450  1
  O  O55  1  0.76458485  0.82623501  0.47734260  1
  O  O56  1  0.14797307  0.47088795  0.47746257  1
  O  O57  1  0.64607344  0.46640024  0.47617616  1
  O  O58  1  0.07966104  0.70089374  0.47100194  1
  O  O59  1  0.57800598  0.69767345  0.47040833  1
  O  O60  1  0.06307040  0.63495065  0.36023290  1
  O  O61  1  0.55844250  0.63208565  0.36010543  1
  O  O62  1  0.24303892  0.86229443  0.35774800  1
  O  O63  1  0.75191686  0.88844794  0.35796348  1
  O  O64  1  0.18585738  0.50716894  0.35591430  1
  O  O65  1  0.68032859  0.49508179  0.35403621  1
  O  O66  1  0.05944735  0.48712866  0.86181916  1
  O  O67  1  0.55972605  0.48832271  0.86223399  1
  O  O68  1  0.18255605  0.86600674  0.85597303  1
  O  O69  1  0.68527631  0.86210220  0.85717143  1
  O  O70  1  0.24911633  0.61759793  0.85935448  1
  O  O71  1  0.74205871  0.62366052  0.85876882  1
  O  O72  1  0.01580449  0.82506031  0.41238201  1
  O  O73  1  0.51275056  0.82415967  0.41290084  1
  O  O74  1  0.40603235  0.96817529  0.41005976  1
  O  O75  1  0.90768830  0.96784157  0.41442792  1
  O  O76  1  0.08214470  0.18614488  0.41333500  1
  O  O77  1  0.57820094  0.18247955  0.41257747  1
  O  O78  1  0.01363611  0.20328644  0.91413258  1
  O  O79  1  0.51417247  0.20471888  0.91411065  1
  O  O80  1  0.08002705  0.97677261  0.91360314  1
  O  O81  1  0.58229069  0.97814195  0.91424918  1
  O  O82  1  0.40748690  0.84840130  0.91569106  1
  O  O83  1  0.90698021  0.84430091  0.91047805  1
  O  O84  1  0.48782226  0.15622023  0.58988657  1
  O  O85  1  0.98942748  0.16696504  0.58876207  1
  O  O86  1  0.08778789  0.01990773  0.59342992  1
  O  O87  1  0.58654058  0.02293524  0.59224977  1
  O  O88  1  0.41160237  0.80265554  0.58635454  1
  O  O89  1  0.92133554  0.82321303  0.59177843  1
  O  O90  1  0.48612983  0.81175153  0.08943297  1
  O  O91  1  0.98891767  0.81982735  0.08936606  1
  O  O92  1  0.41301998  0.02541307  0.08899394  1
  O  O93  1  0.91161916  0.02045853  0.08616599  1
  O  O94  1  0.08685690  0.15169798  0.09192185  1
  O  O95  1  0.58325736  0.15252184  0.09387397  1
  O  O96  1  0.34588944  0.17043351  0.74741235  1
  O  O97  1  0.84744561  0.18116641  0.74265845  1
  O  O98  1  0.24086567  0.31546978  0.74175496  1
  O  O99  1  0.74496274  0.30759880  0.74241859  1
  O  O100  1  0.41323702  0.51720619  0.74283099  1
  O  O101  1  0.92005177  0.53106960  0.74552547  1
  O  O102  1  0.34841362  0.52028357  0.24317900  1
  O  O103  1  0.84583869  0.52157479  0.24658095  1
  O  O104  1  0.41796622  0.30545270  0.24316055  1
  O  O105  1  0.91344581  0.30899426  0.24221479  1
  O  O106  1  0.24750280  0.18158787  0.23882746  1
  O  O107  1  0.74178956  0.16714932  0.24155104  1
  O  O108  1  0.32405232  0.49683292  0.92195509  1
  O  O109  1  0.82134131  0.49609829  0.91959491  1
  O  O110  1  0.43400905  0.35821775  0.92483406  1
  O  O111  1  0.93350851  0.35731548  0.92428011  1
  O  O112  1  0.25774900  0.14650118  0.92372157  1
  O  O113  1  0.75851182  0.14557528  0.92331556  1
  O  O114  1  0.32134561  0.14661098  0.41903796  1
  O  O115  1  0.82511840  0.15663159  0.42345315  1
  O  O116  1  0.25821617  0.37101224  0.42244357  1
  O  O117  1  0.75518134  0.36365524  0.42030539  1
  O  O118  1  0.43274309  0.50973083  0.42284723  1
  O  O119  1  0.93653858  0.50967898  0.42098061  1
  O  O120  1  0.17995188  0.51638711  0.07513811  1
  O  O121  1  0.67830983  0.51538926  0.07425911  1
  O  O122  1  0.08151034  0.65381966  0.07562673  1
  O  O123  1  0.57916877  0.65059188  0.07783641  1
  O  O124  1  0.25550357  0.87094747  0.08093751  1
  O  O125  1  0.75329824  0.86463860  0.07872064  1
  O  O126  1  0.17998976  0.84320244  0.57407566  1
  O  O127  1  0.67807587  0.84250627  0.57531694  1
  O  O128  1  0.25343220  0.64162284  0.57867480  1
  O  O129  1  0.74943510  0.64129530  0.58011431  1
  O  O130  1  0.08025432  0.51091347  0.57739317  1
  O  O131  1  0.57929376  0.50708113  0.57559268  1
  O  O132  1  0.15311478  0.81896098  0.25729976  1
  O  O133  1  0.64913448  0.81424994  0.25588284  1
  O  O134  1  0.25922728  0.68629826  0.25227678  1
  O  O135  1  0.75975933  0.69420239  0.25076558  1
  O  O136  1  0.08885484  0.48870195  0.25720983  1
  O  O137  1  0.57489774  0.46186238  0.25263986  1
  O  O138  1  0.14796216  0.48050552  0.75556897  1
  O  O139  1  0.65191514  0.48637371  0.75864730  1
  O  O140  1  0.07708400  0.68874342  0.75504768  1
  O  O141  1  0.58882112  0.68950297  0.75802011  1
  O  O142  1  0.25997584  0.82545722  0.75067856  1
  O  O143  1  0.75977152  0.83460371  0.75288227  1
loop_
_geom_bond_atom_site_label_1
_geom_bond_atom_site_label_2
_geom_bond_distance
_geom_bond_site_symmetry_2
Na0 O105 2.357397 1_555
Na0 O135 2.402577 1_545
Na0 O107 2.421491 1_555
Na0 O63 2.539335 1_545
Na0 O133 2.589754 1_545
Na0 O33 2.721757 1_555
Na0 O5 2.784226 1_555
Na0 O19 2.868420 1_545
Na1 O136 2.367181 1_555
Na1 O106 2.448539 1_555
Na1 O134 2.478646 1_555
Na1 O64 2.568133 1_555
Na1 O102 2.592348 1_555
Na1 O34 2.654678 1_555
Na1 O0 2.707351 1_555
Na1 O20 2.741873 1_555
Na2 O103 2.408454 1_555
Na2 O107 2.420518 1_555
Na2 O135 2.480715 1_555
Na2 O65 2.509235 1_555
Na2 O137 2.509742 1_555
Na2 O35 2.574196 1_555
Na2 O1 2.802824 1_555
Na2 O21 2.968836 1_555
Na3 O103 2.360644 1_555
Na3 O132 2.399619 1_655
Na3 O105 2.459047 1_555
Na3 O136 2.485733 1_655
Na3 O31 2.544124 1_555
Na3 O60 2.702297 1_655
Na3 O22 2.809991 1_655
Na3 O3 2.815424 1_555
Na4 O133 2.277891 1_555
Na4 O102 2.363845 1_555
Na4 O137 2.488674 1_555
Na4 O104 2.557694 1_555
Na4 O61 2.619609 1_555
Na4 O30 2.628657 1_555
Na4 O23 2.742537 1_555
Na4 O2 2.747660 1_555
Na5 O100 2.352595 1_555
Na5 O142 2.408111 1_555
Na5 O98 2.411281 1_555
Na5 O138 2.603189 1_555
Na5 O70 2.630673 1_555
Na5 O28 2.671543 1_555
Na5 O8 2.809942 1_555
Na5 O12 2.846833 1_555
Na6 O138 2.300617 1_655
Na6 O97 2.336158 1_555
Na6 O101 2.511689 1_555
Na6 O140 2.512507 1_655
Na6 O25 2.519386 1_555
Na6 O14 2.752766 1_655
Na6 O66 2.754509 1_655
Na6 O11 2.788315 1_555
Na7 O96 2.370063 1_555
Na7 O139 2.377760 1_555
Na7 O100 2.463964 1_555
Na7 O141 2.485789 1_555
Na7 O24 2.504634 1_555
Na7 O15 2.747763 1_555
Na7 O67 2.761270 1_555
Na7 O10 2.871031 1_555
Na8 O98 2.406268 1_555
Na8 O96 2.421535 1_555
Na8 O140 2.491034 1_545
Na8 O142 2.499064 1_545
Na8 O26 2.535939 1_555
Na8 O68 2.610112 1_545
Na8 O6 2.831360 1_555
Na8 O16 2.887581 1_545
Na9 O99 2.369852 1_555
Na9 O141 2.396048 1_545
Na9 O143 2.451970 1_545
Na9 O97 2.529888 1_555
Na9 O27 2.553970 1_555
Na9 O69 2.661703 1_545
Na9 O17 2.753563 1_545
Na9 O7 2.804338 1_555
Na10 O86 2.382033 1_555
Na10 O85 2.437267 1_455
Na10 O128 2.443911 1_555
Na10 O130 2.460720 1_555
Na10 O14 2.621832 1_555
Na10 O56 2.626666 1_555
Na10 O42 2.711287 1_555
Na10 O28 2.862276 1_555
Na11 O129 2.385708 1_555
Na11 O87 2.389194 1_555
Na11 O131 2.446747 1_555
Na11 O84 2.508003 1_555
Na11 O15 2.604055 1_555
Na11 O57 2.630565 1_555
Na11 O43 2.707430 1_555
Na11 O29 2.818570 1_555
Na12 O84 2.348355 1_565
Na12 O126 2.395581 1_555
Na12 O88 2.510262 1_555
Na12 O128 2.573233 1_555
Na12 O12 2.618825 1_555
Na12 O54 2.703647 1_555
Na12 O26 2.705682 1_565
Na12 O46 2.786587 1_565
Na13 O127 2.397992 1_555
Na13 O85 2.418467 1_565
Na13 O89 2.470053 1_555
Na13 O129 2.503191 1_555
Na13 O55 2.625686 1_555
Na13 O13 2.632606 1_555
Na13 O27 2.764363 1_565
Na13 O47 2.831118 1_565
Na14 O94 2.371007 1_565
Na14 O122 2.404310 1_555
Na14 O91 2.430216 1_455
Na14 O124 2.442921 1_555
Na14 O22 2.556546 1_555
Na14 O52 2.579198 1_554
Na14 O36 2.705897 1_565
Na14 O32 2.908160 1_565
Na15 O125 2.418702 1_555
Na15 O95 2.447126 1_565
Na15 O123 2.456742 1_555
Na15 O90 2.526032 1_555
Na15 O53 2.575614 1_554
Na15 O23 2.621243 1_555
Na15 O37 2.663590 1_565
Na15 O33 2.839758 1_565
Na16 O120 2.359246 1_555
Na16 O90 2.368582 1_555
Na16 O92 2.533151 1_565
Na16 O124 2.537976 1_555
Na16 O48 2.597135 1_554
Na16 O18 2.615752 1_555
Na16 O34 2.738779 1_555
Na16 O38 2.809453 1_555
Na17 O91 2.366557 1_555
Na17 O121 2.420277 1_555
Na17 O93 2.500850 1_565
Na17 O125 2.566963 1_555
Na17 O19 2.592496 1_555
Na17 O49 2.685541 1_554
Na17 O35 2.740029 1_555
Na17 O39 2.818901 1_555
Na18 O81 2.363891 1_555
Na18 O108 2.416136 1_555
Na18 O8 2.444816 1_555
Na18 O82 2.468267 1_555
Na18 O110 2.488094 1_555
Na18 O38 2.641704 1_556
Na18 O67 2.858567 1_555
Na18 O53 2.907311 1_555
Na19 O80 2.360884 1_655
Na19 O109 2.451374 1_555
Na19 O83 2.463540 1_555
Na19 O111 2.474575 1_555
Na19 O39 2.491168 1_556
Na19 O9 2.614752 1_555
Na19 O52 2.860962 1_655
Na19 O66 2.893908 1_655
Na20 O82 2.302226 1_545
Na20 O112 2.318069 1_555
Na20 O10 2.478796 1_555
Na20 O110 2.535935 1_555
Na20 O79 2.536050 1_555
Na20 O40 2.732864 1_556
Na20 O68 2.830646 1_545
Na20 O48 2.879328 1_545
Na21 O113 2.291266 1_555
Na21 O83 2.330106 1_545
Na21 O11 2.497227 1_555
Na21 O111 2.526772 1_555
Na21 O78 2.532838 1_655
Na21 O41 2.687114 1_556
Na21 O69 2.789276 1_545
Na21 O49 2.833903 1_545
Na22 O108 2.411510 1_555
Na22 O78 2.443302 1_555
Na22 O80 2.447533 1_545
Na22 O6 2.508704 1_555
Na22 O112 2.516347 1_555
Na22 O36 2.655502 1_556
Na22 O70 2.714290 1_555
Na22 O50 2.907798 1_555
Na23 O109 2.395319 1_555
Na23 O81 2.408337 1_545
Na23 O79 2.417521 1_555
Na23 O7 2.457939 1_555
Na23 O113 2.532962 1_555
Na23 O37 2.618218 1_556
Na23 O71 2.793809 1_555
Na23 O51 2.916552 1_555
Na24 O77 2.346034 1_555
Na24 O46 2.450732 1_555
Na24 O118 2.469038 1_555
Na24 O114 2.476318 1_555
Na24 O74 2.509889 1_545
Na24 O4 2.717609 1_555
Na24 O57 2.777218 1_555
Na24 O61 2.910269 1_555
Na25 O115 2.372986 1_555
Na25 O76 2.391520 1_655
Na25 O119 2.433164 1_555
Na25 O75 2.451561 1_545
Na25 O5 2.533591 1_555
Na25 O47 2.535999 1_555
Na25 O56 2.898981 1_655
Na25 O60 2.935747 1_655
Na26 O72 2.392916 1_545
Na26 O114 2.396202 1_555
Na26 O76 2.406482 1_555
Na26 O116 2.518468 1_555
Na26 O0 2.535224 1_555
Na26 O42 2.560644 1_555
Na26 O62 2.828459 1_545
Na26 O58 2.876515 1_545
Na27 O115 2.384063 1_555
Na27 O117 2.442644 1_555
Na27 O73 2.489197 1_545
Na27 O77 2.495478 1_555
Na27 O43 2.530701 1_555
Na27 O1 2.635640 1_555
Na27 O63 2.732514 1_545
Na27 O59 2.896909 1_545
Na28 O116 2.286224 1_555
Na28 O74 2.325155 1_555
Na28 O118 2.500203 1_555
Na28 O73 2.511146 1_555
Na28 O2 2.594307 1_555
Na28 O44 2.639906 1_555
Na28 O54 2.810527 1_555
Na28 O64 2.823641 1_555
Na29 O75 2.326772 1_555
Na29 O117 2.330412 1_555
Na29 O45 2.511160 1_555
Na29 O119 2.552295 1_555
Na29 O72 2.567102 1_655
Na29 O3 2.635669 1_555
Na29 O55 2.812089 1_555
Na29 O65 2.935309 1_555
Na30 O75 2.428434 1_555
Na30 O89 2.448158 1_555
Na30 O76 2.471951 1_665
Na30 O85 2.488048 1_565
Na30 O86 2.517297 1_665
Na30 O72 2.563907 1_655
Na31 O84 2.419361 1_555
Na31 O77 2.427328 1_555
Na31 O87 2.431213 1_555
Na31 O88 2.500690 1_545
Na31 O74 2.571305 1_545
Na31 O73 2.579665 1_545
Na32 O80 2.410323 1_554
Na32 O91 2.431383 1_455
Na32 O94 2.462925 1_565
Na32 O93 2.500432 1_465
Na32 O83 2.519318 1_454
Na32 O78 2.556069 1_564
Na33 O81 2.377838 1_545
Na33 O82 2.385184 1_545
Na33 O79 2.511627 1_555
Na33 O95 2.515550 1_556
Na33 O90 2.516864 1_546
Na33 O92 2.587585 1_556
Na34 O96 2.395193 1_555
Na34 O100 2.430195 1_555
Na34 O98 2.459250 1_555
Na34 O108 2.513582 1_555
Na34 O112 2.539271 1_555
Na34 O110 2.718997 1_555
Na35 O99 2.373630 1_555
Na35 O109 2.453703 1_555
Na35 O97 2.459062 1_555
Na35 O101 2.499346 1_555
Na35 O113 2.503129 1_555
Na35 O111 2.723169 1_555
Na36 O114 2.378956 1_555
Na36 O116 2.427471 1_555
Na36 O106 2.494871 1_555
Na36 O102 2.553561 1_555
Na36 O104 2.580304 1_555
Na36 O118 2.625502 1_555
Na37 O117 2.424976 1_555
Na37 O115 2.461403 1_555
Na37 O103 2.470008 1_555
Na37 O105 2.502831 1_555
Na37 O107 2.509961 1_555
Na37 O119 2.615496 1_555
Na38 O136 2.400514 1_555
Na38 O132 2.452857 1_555
Na38 O134 2.464955 1_555
Na38 O122 2.465227 1_555
Na38 O120 2.488021 1_555
Na38 O124 2.579040 1_555
Na39 O135 2.395080 1_555
Na39 O133 2.447003 1_555
Na39 O123 2.472398 1_555
Na39 O121 2.479869 1_555
Na39 O137 2.497530 1_555
Na39 O125 2.557293 1_555
Na40 O142 2.425390 1_555
Na40 O130 2.432525 1_555
Na40 O126 2.471670 1_555
Na40 O138 2.476973 1_555
Na40 O140 2.518238 1_555
Na40 O128 2.554056 1_555
Na41 O129 2.446182 1_555
Na41 O127 2.460798 1_555
Na41 O131 2.463950 1_555
Na41 O141 2.484024 1_555
Na41 O143 2.492903 1_555
Na41 O139 2.507718 1_555
Ga0 O5 1.849900 1_555
Ga0 O3 1.917489 1_545
Ga0 O0 1.996240 1_655
Ga0 O75 2.030303 1_545
Ga0 O76 2.064703 1_655
Ga0 O72 2.293095 1_645
Ga1 O1 1.886954 1_555
Ga1 O2 1.937054 1_545
Ga1 O74 1.980786 1_545
Ga1 O77 1.990612 1_555
Ga1 O4 2.060709 1_555
Ga1 O73 2.151538 1_545
Ga2 O6 1.878221 1_665
Ga2 O11 1.922878 1_565
Ga2 O9 1.985721 1_555
Ga2 O83 2.008575 1_555
Ga2 O80 2.081508 1_655
Ga2 O78 2.240087 1_665
Ga3 O8 1.842117 1_555
Ga3 O10 1.911196 1_565
Ga3 O7 1.931242 1_565
Ga3 O82 2.097617 1_555
Ga3 O81 2.110951 1_555
Ga3 O79 2.331956 1_565
Ga4 O24 1.888673 1_555
Ga4 O96 1.940646 1_555
Ga4 O26 1.964753 1_555
Ga4 O100 1.997151 1_555
Ga4 O98 2.017475 1_555
Ga4 O28 2.199303 1_555
Ga5 O31 1.902857 1_555
Ga5 O103 1.919053 1_555
Ga5 O105 1.981567 1_555
Ga5 O35 1.992340 1_555
Ga5 O107 2.001949 1_555
Ga5 O33 2.200385 1_555
Ga6 O36 1.863065 1_556
Ga6 O108 1.904417 1_555
Ga6 O38 1.911303 1_556
Ga6 O112 1.989294 1_555
Ga6 O40 2.179344 1_556
Ga6 O110 2.231092 1_555
Ga7 O37 1.874942 1_556
Ga7 O39 1.917306 1_556
Ga7 O109 1.954405 1_555
Ga7 O113 2.022197 1_555
Ga7 O41 2.176705 1_556
Ga7 O111 2.271121 1_555
Ga8 O42 1.859608 1_555
Ga8 O46 1.903213 1_555
Ga8 O114 1.966881 1_555
Ga8 O116 2.052982 1_555
Ga8 O44 2.161143 1_555
Ga8 O118 2.266018 1_555
Ga9 O43 1.886172 1_555
Ga9 O45 1.917428 1_555
Ga9 O47 1.936506 1_555
Ga9 O115 2.003847 1_555
Ga9 O117 2.067373 1_555
Ga9 O119 2.299522 1_555
Ga10 O63 1.834147 1_555
Ga10 O65 1.872047 1_555
Ga10 O135 1.944131 1_555
Ga10 O133 2.003278 1_555
Ga10 O61 2.196274 1_555
Ga10 O137 2.392143 1_555
Ga11 O70 1.846748 1_555
Ga11 O68 1.899619 1_555
Ga11 O142 1.909529 1_555
Ga11 O138 1.983327 1_555
Ga11 O66 2.214798 1_555
Ga11 O140 2.288035 1_555
Ge0 O13 1.833562 1_545
Ge0 O85 1.875999 1_555
Ge0 O86 1.876689 1_655
Ge0 O14 1.883397 1_655
Ge0 O89 1.891716 1_545
Ge0 O16 2.190060 1_645
Ge1 O15 1.829207 1_555
Ge1 O12 1.859769 1_545
Ge1 O17 1.866933 1_545
Ge1 O87 1.869590 1_555
Ge1 O84 2.000791 1_555
Ge1 O88 2.329589 1_545
Ge2 O22 1.832182 1_545
Ge2 O19 1.848543 1_445
Ge2 O20 1.852110 1_555
Ge2 O94 1.895070 1_555
Ge2 O91 2.021407 1_445
Ge2 O93 2.335183 1_455
Ge3 O23 1.785728 1_555
Ge3 O18 1.822281 1_555
Ge3 O95 1.855396 1_565
Ge3 O90 1.892919 1_555
Ge3 O21 2.119966 1_565
Ge3 O92 2.261737 1_565
Ge4 O29 1.823466 1_555
Ge4 O27 1.840041 1_555
Ge4 O25 1.881467 1_555
Ge4 O99 1.922912 1_555
Ge4 O97 1.985230 1_555
Ge4 O101 2.287867 1_555
Ge5 O34 1.825789 1_555
Ge5 O30 1.842862 1_555
Ge5 O102 1.862850 1_555
Ge5 O106 1.863468 1_555
Ge5 O32 2.129489 1_555
Ge5 O104 2.227701 1_555
Ge6 O52 1.843540 1_554
Ge6 O48 1.848630 1_554
Ge6 O122 1.861259 1_555
Ge6 O120 1.924307 1_555
Ge6 O50 1.951814 1_554
Ge6 O124 2.244370 1_555
Ge7 O53 1.838590 1_554
Ge7 O49 1.862595 1_554
Ge7 O121 1.885482 1_555
Ge7 O123 1.930995 1_555
Ge7 O51 1.959154 1_554
Ge7 O125 2.151731 1_555
Ge8 O56 1.844423 1_555
Ge8 O54 1.871831 1_555
Ge8 O126 1.875796 1_555
Ge8 O130 1.893874 1_555
Ge8 O58 1.970963 1_555
Ge8 O128 2.158887 1_555
Ge9 O55 1.854559 1_555
Ge9 O57 1.868217 1_555
Ge9 O131 1.873403 1_555
Ge9 O129 1.874243 1_555
Ge9 O127 1.913714 1_555
Ge9 O59 2.239987 1_555
Ge10 O62 1.824517 1_555
Ge10 O134 1.857684 1_555
Ge10 O64 1.875286 1_555
Ge10 O132 1.902927 1_555
Ge10 O136 1.968788 1_555
Ge10 O60 2.162964 1_555
Ge11 O143 1.815641 1_555
Ge11 O71 1.842075 1_555
Ge11 O139 1.874321 1_555
Ge11 O69 1.886242 1_555
Ge11 O141 1.957595 1_555
Ge11 O67 2.268136 1_555
O0 Si0 1.619170 1_555
O1 Si1 1.622838 1_545
O2 Si2 1.610865 1_555
O3 Si3 1.626683 1_555
O4 S0 1.486318 1_555
O5 Si4 1.616661 1_655
O6 Si5 1.642112 1_555
O7 Si6 1.630750 1_555
O8 Si7 1.629292 1_555
O9 S1 1.501790 1_555
O10 Si8 1.633402 1_555
O11 Si9 1.631655 1_555
O12 Si8 1.663186 1_565
O13 Si9 1.624691 1_565
O14 Si5 1.650339 1_555
O15 Si6 1.654489 1_555
O16 S1 1.461420 1_455
O17 Si7 1.645949 1_555
O18 Si2 1.652443 1_555
O19 Si3 1.675558 1_555
O20 Si4 1.654462 1_555
O21 S0 1.488011 1_555
O22 Si0 1.656163 1_565
O23 Si1 1.671021 1_555
O24 Si10 1.606594 1_555
O25 Si11 1.646270 1_555
O26 Si12 1.621841 1_555
O27 Si13 1.662851 1_555
O28 S2 1.462307 1_555
O29 Si14 1.645828 1_555
O30 Si15 1.655332 1_555
O31 Si16 1.601657 1_555
O32 S3 1.486654 1_555
O33 S4 1.462771 1_555
O34 Si17 1.664112 1_555
O35 Si18 1.615368 1_555
O36 Si17 1.620257 1_555
O37 Si18 1.637191 1_555
O38 Si15 1.613319 1_555
O39 Si16 1.644543 1_555
O40 S3 1.474185 1_555
O41 S4 1.481083 1_555
O42 Si12 1.639163 1_555
O43 Si13 1.619781 1_555
O44 S2 1.481555 1_555
O45 Si14 1.617257 1_555
O46 Si10 1.647658 1_555
O47 Si11 1.611870 1_555
O48 Si19 1.675524 1_555
O49 Si20 1.665329 1_555
O50 S5 1.505129 1_555
O51 S6 1.507899 1_555
O52 Si21 1.668739 1_555
O53 Si22 1.672227 1_555
O54 Si23 1.658037 1_555
O55 Si24 1.656588 1_555
O56 Si25 1.660985 1_555
O57 Si26 1.656645 1_555
O58 S7 1.501702 1_555
O59 S8 1.468812 1_555
O60 S7 1.489269 1_555
O61 S8 1.488863 1_555
O62 Si23 1.639708 1_555
O63 Si24 1.636613 1_555
O64 Si25 1.659641 1_555
O65 Si26 1.640387 1_555
O66 S5 1.466933 1_555
O67 S6 1.470762 1_555
O68 Si21 1.628645 1_555
O69 Si22 1.646077 1_555
O70 Si19 1.622575 1_555
O71 Si20 1.632409 1_555
O72 S7 1.472966 1_555
O73 S8 1.495514 1_555
O74 Si23 1.638204 1_555
O75 Si24 1.641472 1_555
O76 Si25 1.632403 1_555
O77 Si26 1.656249 1_555
O78 S5 1.484054 1_555
O79 S6 1.474606 1_555
O80 Si21 1.645320 1_555
O81 Si22 1.631613 1_555
O82 Si19 1.630100 1_555
O83 Si20 1.642388 1_555
O84 Si10 1.690038 1_555
O85 Si11 1.670345 1_555
O86 Si12 1.641512 1_555
O87 Si13 1.650744 1_555
O88 S2 1.472749 1_555
O89 Si14 1.640530 1_555
O90 Si15 1.687599 1_555
O91 Si16 1.684025 1_555
O92 S3 1.478581 1_555
O93 S4 1.472543 1_555
O94 Si17 1.638565 1_555
O95 Si18 1.679515 1_555
O96 Si8 1.622705 1_555
O97 Si9 1.671683 1_555
O98 Si5 1.628650 1_555
O99 Si6 1.650078 1_555
O100 Si7 1.620019 1_555
O101 S1 1.472136 1_555
O102 Si2 1.687829 1_555
O103 Si3 1.624280 1_555
O104 S0 1.485985 1_555
O105 Si4 1.618129 1_655
O106 Si0 1.680006 1_555
O107 Si1 1.618341 1_545
O108 Si19 1.641727 1_555
O109 Si20 1.644195 1_555
O110 S6 1.480423 1_555
O111 S5 1.477000 1_655
O112 Si21 1.649553 1_545
O113 Si22 1.651520 1_545
O114 Si23 1.640556 1_545
O115 Si24 1.637701 1_545
O116 Si25 1.647914 1_555
O117 Si26 1.633594 1_555
O118 S8 1.489359 1_555
O119 S7 1.469416 1_655
O120 Si17 1.648991 1_555
O121 Si18 1.663534 1_555
O122 Si16 1.677991 1_455
O123 Si15 1.650565 1_555
O124 S3 1.513880 1_565
O125 S4 1.535099 1_565
O126 Si12 1.667655 1_565
O127 Si13 1.636017 1_565
O128 S2 1.532554 1_555
O129 Si14 1.680806 1_555
O130 Si11 1.665777 1_455
O131 Si10 1.648671 1_555
O132 Si0 1.639126 1_565
O133 Si1 1.643337 1_555
O134 Si2 1.630776 1_555
O135 Si3 1.646846 1_555
O136 Si4 1.668447 1_555
O137 S0 1.484508 1_555
O138 Si5 1.656402 1_555
O139 Si6 1.646910 1_555
O140 S1 1.501877 1_455
O141 Si7 1.667568 1_555
O142 Si8 1.649891 1_565
O143 Si9 1.641967 1_565
