# generated using pymatgen
data_MgCu6OF11
_symmetry_space_group_name_H-M   'P 1'
_cell_length_a   5.42251115
_cell_length_b   4.98036413
_cell_length_c   8.70994043
_cell_angle_alpha   90.99375930
_cell_angle_beta   93.04080100
_cell_angle_gamma   90.01895951
_symmetry_Int_Tables_number   1
_chemical_formula_structural   MgCu6OF11
_chemical_formula_sum   'Mg1 Cu6 O1 F11'
_cell_volume   234.85464526
_cell_formula_units_Z   1
loop_
 _symmetry_equiv_pos_site_id
 _symmetry_equiv_pos_as_xyz
  1  'x, y, z'
loop_
 _atom_site_type_symbol
 _atom_site_label
 _atom_site_symmetry_multiplicity
 _atom_site_fract_x
 _atom_site_fract_y
 _atom_site_fract_z
 _atom_site_occupancy
  Mg  Mg0  1  0.81491200  0.50030200  0.83087400  1
  Cu  Cu0  1  0.96802800  0.99937700  0.00851400  1
  Cu  Cu1  1  0.37610400  0.56022500  0.09020700  1
  Cu  Cu2  1  0.34685800  0.98195200  0.32845300  1
  Cu  Cu3  1  0.82436800  0.50090500  0.32275500  1
  Cu  Cu4  1  0.21934600  0.48156900  0.62205100  1
  Cu  Cu5  1  0.69156100  0.00734100  0.63674400  1
  O  O0  1  0.54178900  0.69041900  0.26006900  1
  F  F0  1  0.26396100  0.18327900  0.08808800  1
  F  F1  1  0.03892500  0.77950900  0.24874100  1
  F  F2  1  0.78075300  0.32820500  0.03148500  1
  F  F3  1  0.12497000  0.29375500  0.39837100  1
  F  F4  1  0.63647900  0.20252100  0.40324300  1
  F  F5  1  0.38811100  0.81372100  0.57197800  1
  F  F6  1  0.88736300  0.67383900  0.62284400  1
  F  F7  1  0.51958800  0.32797700  0.72579500  1
  F  F8  1  0.14095300  0.66974300  0.92018800  1
  F  F9  1  0.99782400  0.20422200  0.73097500  1
  F  F10  1  0.67560500  0.82891600  0.90862500  1
loop_
_geom_bond_atom_site_label_1
_geom_bond_atom_site_label_2
_geom_bond_distance
_geom_bond_site_symmetry_2
Cu0 F0 1.937346 1_665
Cu0 F2 1.940250 1_565
Cu0 F10 1.954262 1_554
Cu0 F8 2.049394 1_654
Cu0 F1 2.391498 1_655
Cu1 O0 1.800504 1_555
Cu1 F0 1.972647 1_555
Cu1 F8 1.986073 1_554
Cu1 F1 2.580530 1_555
Cu2 O0 1.902101 1_555
Cu2 F4 1.990719 1_565
Cu2 F1 2.034287 1_555
Cu2 F3 2.067891 1_565
Cu2 F5 2.294009 1_555
Cu2 F0 2.358752 1_565
Cu3 O0 1.861971 1_555
Cu3 F1 1.950383 1_655
Cu3 F4 1.961828 1_555
Cu3 F3 2.016403 1_655
Cu4 F5 1.957178 1_555
Cu4 F7 1.980141 1_555
Cu4 F6 2.039579 1_455
Cu4 F9 2.101473 1_455
Cu4 F3 2.182467 1_555
Cu5 F5 1.958886 1_545
Cu5 F6 1.977010 1_545
Cu5 F7 2.013952 1_555
Cu5 F9 2.054131 1_555
Cu5 F4 2.274798 1_555
Cu5 F10 2.549423 1_545
F2 Mg0 1.976920 1_554
F6 Mg0 2.077023 1_555
F7 Mg0 1.988731 1_555
F8 Mg0 2.067197 1_455
F9 Mg0 1.990798 1_555
F10 Mg0 1.929868 1_555
