# generated using pymatgen
data_SrAgO2
_symmetry_space_group_name_H-M   'P 1'
_cell_length_a   5.38370957
_cell_length_b   5.38370957
_cell_length_c   5.38370957
_cell_angle_alpha   113.01514255
_cell_angle_beta   113.01514255
_cell_angle_gamma   102.59459719
_symmetry_Int_Tables_number   1
_chemical_formula_structural   SrAgO2
_chemical_formula_sum   'Sr2 Ag2 O4'
_cell_volume   118.84600211
_cell_formula_units_Z   2
loop_
 _symmetry_equiv_pos_site_id
 _symmetry_equiv_pos_as_xyz
  1  'x, y, z'
loop_
 _atom_site_type_symbol
 _atom_site_label
 _atom_site_symmetry_multiplicity
 _atom_site_fract_x
 _atom_site_fract_y
 _atom_site_fract_z
 _atom_site_occupancy
  Sr  Sr0  1  0.25000000  0.75000000  0.50000000  1
  Sr  Sr1  1  0.75000000  0.25000000  0.50000000  1
  Ag  Ag0  1  0.50000000  0.50000000  0.00000000  1
  Ag  Ag1  1  0.00000000  -0.00000000  0.00000000  1
  O  O0  1  0.24928737  0.25071263  0.50000000  1
  O  O1  1  0.74928737  0.24928737  -0.00142626  1
  O  O2  1  0.75071263  0.74928737  0.50000000  1
  O  O3  1  0.25071263  0.75071263  0.00142626  1
loop_
_geom_bond_atom_site_label_1
_geom_bond_atom_site_label_2
_geom_bond_distance
_geom_bond_site_symmetry_2
Ag0 O0 2.100735 1_554
Ag0 O2 2.100735 1_555
Ag0 O3 2.100735 1_555
Ag0 O1 2.100735 1_555
Ag1 O2 2.100735 1_444
Ag1 O0 2.100735 1_555
Ag1 O1 2.100735 1_455
Ag1 O3 2.100735 1_545
O0 Sr0 2.687184 1_555
O0 Sr1 2.687184 1_455
O0 Sr0 2.696531 1_545
O0 Sr1 2.696531 1_555
O1 Sr1 2.687179 1_554
O1 Sr0 2.687183 1_544
O1 Sr0 2.696532 1_655
O1 Sr1 2.696536 1_555
O2 Sr1 2.687184 1_555
O2 Sr0 2.687184 1_655
O2 Sr1 2.696531 1_565
O2 Sr0 2.696531 1_555
O3 Sr0 2.687179 1_555
O3 Sr1 2.687183 1_565
O3 Sr1 2.696532 1_454
O3 Sr0 2.696536 1_554
