# generated using pymatgen
data_YNbSi(SO6)2
_symmetry_space_group_name_H-M   'P 1'
_cell_length_a   9.14919732
_cell_length_b   9.15385756
_cell_length_c   23.24752585
_cell_angle_alpha   90.22959928
_cell_angle_beta   90.00000000
_cell_angle_gamma   119.98316051
_symmetry_Int_Tables_number   1
_chemical_formula_structural   YNbSi(SO6)2
_chemical_formula_sum   'Y6 Nb6 Si6 S12 O72'
_cell_volume   1686.41142584
_cell_formula_units_Z   6
loop_
 _symmetry_equiv_pos_site_id
 _symmetry_equiv_pos_as_xyz
  1  'x, y, z'
loop_
 _atom_site_type_symbol
 _atom_site_label
 _atom_site_symmetry_multiplicity
 _atom_site_fract_x
 _atom_site_fract_y
 _atom_site_fract_z
 _atom_site_occupancy
  Y  Y0  1  0.99596942  0.00746487  0.36072057  1
  Y  Y1  1  0.01149546  0.00746487  0.86072057  1
  Y  Y2  1  0.66841847  0.33490948  0.69378131  1
  Y  Y3  1  0.66649201  0.33490948  0.19378131  1
  Y  Y4  1  0.32842741  0.66800491  0.02732509  1
  Y  Y5  1  0.33957650  0.66800491  0.52732509  1
  Nb  Nb0  1  0.00822302  0.01816555  0.64331662  1
  Nb  Nb1  1  0.00994253  0.01816555  0.14331662  1
  Nb  Nb2  1  0.65198099  0.32918881  0.97647951  1
  Nb  Nb3  1  0.67720882  0.32918881  0.47647951  1
  Nb  Nb4  1  0.33992456  0.67254904  0.31015559  1
  Nb  Nb5  1  0.33262348  0.67254904  0.81015559  1
  Si  Si0  1  0.01555531  0.29690589  0.25136100  1
  Si  Si1  1  0.28135058  0.29690589  0.75136100  1
  Si  Si2  1  0.94777508  0.32471838  0.58424475  1
  Si  Si3  1  0.37694430  0.32471838  0.08424475  1
  Si  Si4  1  0.34509956  0.95576508  0.91760582  1
  Si  Si5  1  0.61066452  0.95576508  0.41760582  1
  S  S0  1  0.27569950  0.98037313  0.24980598  1
  S  S1  1  0.70759984  0.72243830  0.25034913  1
  S  S2  1  0.01483845  0.72243830  0.75034913  1
  S  S3  1  0.70467363  0.98037313  0.74980598  1
  S  S4  1  0.37212780  0.05690253  0.58243499  1
  S  S5  1  0.68721981  0.62831313  0.58393933  1
  S  S6  1  0.94109432  0.62831313  0.08393933  1
  S  S7  1  0.68477573  0.05690253  0.08243499  1
  S  S8  1  0.60900338  0.65113112  0.91592192  1
  S  S9  1  0.03797095  0.39343283  0.91585943  1
  S  S10  1  0.35546088  0.39343283  0.41585943  1
  S  S11  1  0.04212674  0.65113112  0.41592192  1
  O  O0  1  0.20412287  0.00679477  0.30175515  1
  O  O1  1  0.80848992  0.79319513  0.30210882  1
  O  O2  1  0.99353121  0.17858833  0.30350658  1
  O  O3  1  0.18505712  0.17858833  0.80350658  1
  O  O4  1  0.98470521  0.79319513  0.80210882  1
  O  O5  1  0.80267190  0.00679477  0.80175515  1
  O  O6  1  0.78625722  0.95154163  0.69801304  1
  O  O7  1  0.15089023  0.19077109  0.69274351  1
  O  O8  1  0.04365174  0.82794870  0.69863727  1
  O  O9  1  0.78429696  0.82794870  0.19863727  1
  O  O10  1  0.03988087  0.19077109  0.19274351  1
  O  O11  1  0.16528442  0.95154163  0.19801304  1
  O  O12  1  0.85681519  0.34107952  0.63909986  1
  O  O13  1  0.47198699  0.12957335  0.63415226  1
  O  O14  1  0.65423126  0.52286086  0.63457683  1
  O  O15  1  0.86863060  0.52286086  0.13457683  1
  O  O16  1  0.65758736  0.12957335  0.13415226  1
  O  O17  1  0.48426532  0.34107952  0.13909986  1
  O  O18  1  0.47984353  0.29822011  0.02637578  1
  O  O19  1  0.83583925  0.54560836  0.03126768  1
  O  O20  1  0.71593151  0.16681680  0.03094567  1
  O  O21  1  0.45088629  0.16681680  0.53094567  1
  O  O22  1  0.70977011  0.54560836  0.53126768  1
  O  O23  1  0.81837757  0.29822011  0.52637578  1
  O  O24  1  0.53602600  0.67588714  0.96780245  1
  O  O25  1  0.14569917  0.46221542  0.96640533  1
  O  O26  1  0.33153220  0.85294354  0.97331295  1
  O  O27  1  0.52141034  0.85294354  0.47331295  1
  O  O28  1  0.31651526  0.46221542  0.46640533  1
  O  O29  1  0.13986015  0.67588714  0.46780245  1
  O  O30  1  0.12094113  0.61845301  0.36414019  1
  O  O31  1  0.48398407  0.85670335  0.36056280  1
  O  O32  1  0.37772696  0.50196158  0.36385327  1
  O  O33  1  0.12423362  0.50196158  0.86385327  1
  O  O34  1  0.37271827  0.85670335  0.86056280  1
  O  O35  1  0.49751088  0.61845301  0.86414019  1
  O  O36  1  0.01437592  0.79204912  0.40572138  1
  O  O37  1  0.79797085  0.99504393  0.40845074  1
  O  O38  1  0.22105137  0.21966452  0.40581673  1
  O  O39  1  -0.00138685  0.21966452  0.90581673  1
  O  O40  1  0.19707308  0.99504393  0.90845074  1
  O  O41  1  0.77767320  0.79204912  0.90572138  1
  O  O42  1  0.95148919  0.14029990  0.59414003  1
  O  O43  1  0.19844667  0.04160826  0.59069555  1
  O  O44  1  0.84570908  0.79477970  0.59397069  1
  O  O45  1  0.94907062  0.79477970  0.09397069  1
  O  O46  1  0.84316159  0.04160826  0.09069555  1
  O  O47  1  0.18881071  0.14029990  0.09414003  1
  O  O48  1  0.67065459  0.11785203  0.74048286  1
  O  O49  1  0.46453894  0.33148181  0.73757686  1
  O  O50  1  0.87832516  0.54944530  0.74234589  1
  O  O51  1  0.67112114  0.54944530  0.24234589  1
  O  O52  1  0.86694387  0.33148181  0.23757686  1
  O  O53  1  0.44719844  0.11785203  0.24048286  1
  O  O54  1  0.62631899  0.49393722  0.92363739  1
  O  O55  1  0.87468457  0.39197779  0.92542467  1
  O  O56  1  0.52647883  0.14750322  0.92842611  1
  O  O57  1  0.62102539  0.14750322  0.42842611  1
  O  O58  1  0.51729422  0.39197779  0.42542467  1
  O  O59  1  0.86761922  0.49393722  0.42363739  1
  O  O60  1  0.33303406  0.46636028  0.07052618  1
  O  O61  1  0.11309600  0.65981617  0.07557107  1
  O  O62  1  0.54634850  0.88553406  0.07369061  1
  O  O63  1  0.33918456  0.88553406  0.57369061  1
  O  O64  1  0.54671917  0.65981617  0.57557107  1
  O  O65  1  0.13332521  0.46636028  0.57052618  1
  O  O66  1  0.28478676  0.81851806  0.25744144  1
  O  O67  1  0.53564461  0.71063742  0.25948822  1
  O  O68  1  0.19231260  0.48206545  0.26403313  1
  O  O69  1  0.28975185  0.48206545  0.76403313  1
  O  O70  1  0.17499181  0.71063742  0.75948822  1
  O  O71  1  0.53373029  0.81851806  0.75744144  1
loop_
_geom_bond_atom_site_label_1
_geom_bond_atom_site_label_2
_geom_bond_distance
_geom_bond_site_symmetry_2
Nb0 O42 1.848407 1_455
Nb0 O7 1.855979 1_555
Nb0 O43 2.049470 1_555
Nb0 O44 2.156501 1_445
Nb0 O6 2.209367 1_445
Nb0 O8 2.317962 1_545
Nb1 O47 1.848407 1_555
Nb1 O10 1.855979 1_555
Nb1 O46 2.049470 1_455
Nb1 O45 2.156501 1_445
Nb1 O11 2.209367 1_545
Nb1 O9 2.317962 1_445
Nb2 O56 1.846299 1_555
Nb2 O18 1.860820 1_556
Nb2 O54 2.051164 1_555
Nb2 O55 2.173863 1_555
Nb2 O19 2.241782 1_556
Nb2 O20 2.244788 1_556
Nb3 O57 1.846299 1_555
Nb3 O23 1.860820 1_555
Nb3 O59 2.051163 1_555
Nb3 O58 2.173863 1_555
Nb3 O22 2.241782 1_555
Nb3 O21 2.244788 1_555
Nb4 O68 1.909271 1_555
Nb4 O31 1.927575 1_555
Nb4 O67 2.023563 1_555
Nb4 O66 2.056328 1_555
Nb4 O32 2.161429 1_555
Nb4 O30 2.201755 1_555
Nb5 O69 1.909271 1_555
Nb5 O34 1.927575 1_555
Nb5 O70 2.023563 1_555
Nb5 O71 2.056328 1_555
Nb5 O33 2.161429 1_555
Nb5 O35 2.201755 1_555
O0 S0 1.449768 1_545
O0 Y0 2.348961 1_455
O1 S1 1.454526 1_555
O1 Y0 2.293869 1_565
O2 Si0 1.573399 1_655
O2 Y0 2.067602 1_555
O3 Si1 1.573399 1_555
O3 Y1 2.067602 1_555
O4 S2 1.454525 1_655
O4 Y1 2.293869 1_665
O5 S3 1.449768 1_545
O5 Y1 2.348961 1_655
O6 S3 1.506953 1_555
O7 Si1 1.748118 1_555
O8 S2 1.484036 1_555
O9 S1 1.484036 1_555
O10 Si0 1.748118 1_555
O11 S0 1.506953 1_555
O12 Si2 1.569809 1_555
O12 Y2 2.119788 1_555
O13 S4 1.452203 1_555
O13 Y2 2.299411 1_555
O14 S5 1.458284 1_555
O14 Y2 2.261293 1_555
O15 S6 1.458284 1_555
O15 Y3 2.261293 1_555
O16 S7 1.452203 1_555
O16 Y3 2.299411 1_555
O17 Si3 1.569809 1_555
O17 Y3 2.119788 1_555
O18 Si3 1.726454 1_555
O19 S6 1.504583 1_555
O20 S7 1.499792 1_555
O21 S4 1.499792 1_555
O22 S5 1.504583 1_555
O23 Si2 1.726454 1_555
O24 S8 1.449433 1_555
O24 Y4 2.321934 1_556
O25 S9 1.456874 1_555
O25 Y4 2.276000 1_556
O26 Si4 1.572084 1_555
O26 Y4 2.100559 1_556
O27 Si5 1.572084 1_555
O27 Y5 2.100559 1_555
O28 S10 1.456874 1_555
O28 Y5 2.276000 1_555
O29 S11 1.449433 1_555
O29 Y5 2.321934 1_555
O30 S11 1.507076 1_555
O31 Si5 1.692360 1_555
O32 S10 1.515757 1_555
O33 S9 1.515757 1_555
O34 Si4 1.692360 1_555
O35 S8 1.507076 1_555
O36 S11 1.454115 1_555
O36 Y0 2.315076 1_465
O37 Si5 1.579909 1_555
O37 Y0 2.078687 1_565
O38 S10 1.462487 1_555
O38 Y0 2.258003 1_455
O39 S9 1.462490 1_555
O39 Y1 2.258003 1_555
O40 Si4 1.579900 1_555
O40 Y1 2.078687 1_565
O41 S8 1.454121 1_555
O41 Y1 2.315076 1_665
O42 Si2 1.721726 1_555
O43 S4 1.536033 1_555
O44 S5 1.505890 1_555
O45 S6 1.505894 1_555
O46 S7 1.536024 1_555
O47 Si3 1.721731 1_555
O48 S3 1.456454 1_545
O48 Y2 2.277036 1_555
O49 Si1 1.575608 1_555
O49 Y2 2.111592 1_555
O50 S2 1.457064 1_655
O50 Y2 2.243252 1_555
O51 S1 1.457067 1_555
O51 Y3 2.243252 1_555
O52 Si0 1.575599 1_655
O52 Y3 2.111592 1_555
O53 S0 1.456459 1_545
O53 Y3 2.277036 1_555
O54 S8 1.535482 1_555
O55 S9 1.503867 1_655
O56 Si4 1.727133 1_545
O57 Si5 1.727125 1_545
O58 S10 1.503885 1_555
O59 S11 1.535472 1_655
O60 Si3 1.571032 1_555
O60 Y4 2.123704 1_555
O61 S6 1.464356 1_455
O61 Y4 2.235623 1_555
O62 S7 1.455276 1_565
O62 Y4 2.262030 1_555
O63 S4 1.455270 1_565
O63 Y5 2.262030 1_555
O64 S5 1.464374 1_555
O64 Y5 2.235623 1_555
O65 Si2 1.571019 1_455
O65 Y5 2.123704 1_555
O66 S0 1.535832 1_555
O67 S1 1.536963 1_555
O68 Si0 1.682627 1_555
O69 Si1 1.682631 1_555
O70 S2 1.536954 1_555
O71 S3 1.535837 1_555
