# generated using pymatgen
data_Na9Ca11Nb(SO4)18
_symmetry_space_group_name_H-M   'P 1'
_cell_length_a   9.23898874
_cell_length_b   9.24306960
_cell_length_c   23.93880891
_cell_angle_alpha   89.89147278
_cell_angle_beta   90.14907351
_cell_angle_gamma   120.01689520
_symmetry_Int_Tables_number   1
_chemical_formula_structural   Na9Ca11Nb(SO4)18
_chemical_formula_sum   'Na9 Ca11 Nb1 S18 O72'
_cell_volume   1770.10201472
_cell_formula_units_Z   1
loop_
 _symmetry_equiv_pos_site_id
 _symmetry_equiv_pos_as_xyz
  1  'x, y, z'
loop_
 _atom_site_type_symbol
 _atom_site_label
 _atom_site_symmetry_multiplicity
 _atom_site_fract_x
 _atom_site_fract_y
 _atom_site_fract_z
 _atom_site_occupancy
  Na  Na0  1  0.35645048  0.35566389  0.25756990  1
  Na  Na1  1  0.30744052  0.97556391  0.09292877  1
  Na  Na2  1  0.97775655  0.30789534  0.42311009  1
  Na  Na3  1  0.99831854  0.97420472  0.50522210  1
  Na  Na4  1  0.97715398  0.99913212  0.01089661  1
  Na  Na5  1  0.66623105  0.33265616  0.82897142  1
  Na  Na6  1  0.66857575  0.33496694  0.34069259  1
  Na  Na7  1  0.33359398  0.66678485  0.17527198  1
  Na  Na8  1  0.33317754  0.66609665  0.64409979  1
  Ca  Ca0  1  0.99216524  0.98264836  0.34990598  1
  Ca  Ca1  1  0.00175317  0.99981335  0.85010697  1
  Ca  Ca2  1  0.00026366  0.00240483  0.65004820  1
  Ca  Ca3  1  0.98156682  0.99278024  0.15238381  1
  Ca  Ca4  1  0.66688974  0.33286724  0.67941899  1
  Ca  Ca5  1  0.68587471  0.34275166  0.18339891  1
  Ca  Ca6  1  0.67279592  0.34153335  0.97884816  1
  Ca  Ca7  1  0.65513761  0.33252529  0.48810804  1
  Ca  Ca8  1  0.33242690  0.65480144  0.01933809  1
  Ca  Ca9  1  0.34254876  0.67455159  0.51509596  1
  Ca  Ca10  1  0.34116074  0.68558666  0.31981837  1
  Nb  Nb0  1  0.33349778  0.66717727  0.81578848  1
  S  S0  1  0.30339065  0.00296974  0.24427641  1
  S  S1  1  0.68515849  0.68720132  0.24930671  1
  S  S2  1  0.00675964  0.30527865  0.25331628  1
  S  S3  1  0.30692373  0.31369861  0.75547984  1
  S  S4  1  0.00590343  0.69408916  0.75541369  1
  S  S5  1  0.68884337  0.99518173  0.75545775  1
  S  S6  1  0.97291763  0.33260652  0.58190017  1
  S  S7  1  0.35796504  0.02533842  0.58610247  1
  S  S8  1  0.66731165  0.64077818  0.58589124  1
  S  S9  1  0.97367327  0.64435962  0.08036347  1
  S  S10  1  0.66458746  0.03601146  0.07991859  1
  S  S11  1  0.36599403  0.32564023  0.08436893  1
  S  S12  1  0.62073860  0.66216846  0.91275989  1
  S  S13  1  0.04009160  0.37778537  0.91220628  1
  S  S14  1  0.33830927  0.95611088  0.91454926  1
  S  S15  1  0.64617791  0.98144056  0.41692623  1
  S  S16  1  0.33106672  0.36373761  0.41174050  1
  S  S17  1  0.02746221  0.65961666  0.41740377  1
  O  O0  1  0.20468806  0.01230028  0.29131672  1
  O  O1  1  0.77910679  0.77549493  0.29945706  1
  O  O2  1  0.99724000  0.21518134  0.30563696  1
  O  O3  1  0.22537331  0.21063653  0.80469074  1
  O  O4  1  0.98474930  0.77550987  0.80461233  1
  O  O5  1  0.79249225  0.01557202  0.80444275  1
  O  O6  1  0.74845857  0.95587277  0.70460562  1
  O  O7  1  0.20692050  0.25268104  0.70472338  1
  O  O8  1  0.04411537  0.79350160  0.70466280  1
  O  O9  1  0.77069793  0.77755535  0.19788444  1
  O  O10  1  0.01560136  0.21117157  0.20425567  1
  O  O11  1  0.21680746  0.99008395  0.19004324  1
  O  O12  1  0.87882148  0.33977933  0.63101659  1
  O  O13  1  0.45052759  0.11280998  0.63746280  1
  O  O14  1  0.66166551  0.54773007  0.63715362  1
  O  O15  1  0.88890738  0.55193453  0.13116274  1
  O  O16  1  0.65664170  0.12347813  0.13041151  1
  O  O17  1  0.45445526  0.33417767  0.13701317  1
  O  O18  1  0.46089654  0.31839749  0.03536410  1
  O  O19  1  0.88177509  0.55627363  0.02937684  1
  O  O20  1  0.67603606  0.13119719  0.02871337  1
  O  O21  1  0.44544450  0.11971266  0.53550494  1
  O  O22  1  0.67290298  0.55324377  0.53510394  1
  O  O23  1  0.88517912  0.32552979  0.52884488  1
  O  O24  1  0.54009782  0.67078858  0.96391904  1
  O  O25  1  0.12992154  0.45852358  0.96335868  1
  O  O26  1  0.33013598  0.86905645  0.96649428  1
  O  O27  1  0.55763240  0.88602929  0.46681264  1
  O  O28  1  0.31996741  0.46169684  0.45869823  1
  O  O29  1  0.12477957  0.66971856  0.46757011  1
  O  O30  1  0.11390031  0.65106144  0.36623476  1
  O  O31  1  0.55485419  0.89790688  0.36530431  1
  O  O32  1  0.34362338  0.45045457  0.35759198  1
  O  O33  1  0.14740536  0.48608229  0.86245780  1
  O  O34  1  0.34095492  0.84639813  0.86541672  1
  O  O35  1  0.51192151  0.65972240  0.86294507  1
  O  O36  1  0.00197983  0.80572754  0.41559147  1
  O  O37  1  0.81852840  0.00349294  0.41638033  1
  O  O38  1  0.17252873  0.19832050  0.41202709  1
  O  O39  1  0.02149332  0.21113627  0.90701247  1
  O  O40  1  0.18880304  0.97126038  0.90757197  1
  O  O41  1  0.78676168  0.81082521  0.90730803  1
  O  O42  1  0.98931993  0.18060339  0.58590853  1
  O  O43  1  0.18786113  0.00615994  0.58744772  1
  O  O44  1  0.81880900  0.81016776  0.58742863  1
  O  O45  1  0.99464304  0.81655282  0.08070731  1
  O  O46  1  0.80974564  0.00821621  0.08212700  1
  O  O47  1  0.19903093  0.16699742  0.08378784  1
  O  O48  1  0.65713845  0.13556655  0.75048754  1
  O  O49  1  0.47974132  0.34780420  0.75059221  1
  O  O50  1  0.86749182  0.52112610  0.75048724  1
  O  O51  1  0.66128593  0.51425608  0.24945221  1
  O  O52  1  0.86080289  0.33011493  0.24948150  1
  O  O53  1  0.46804181  0.16184111  0.24514296  1
  O  O54  1  0.62720073  0.50627090  0.90843499  1
  O  O55  1  0.87792273  0.37178948  0.90764726  1
  O  O56  1  0.49320493  0.11868023  0.90939836  1
  O  O57  1  0.66987869  0.15440060  0.41799576  1
  O  O58  1  0.47712077  0.33911334  0.41698126  1
  O  O59  1  0.86176669  0.50093492  0.41885276  1
  O  O60  1  0.34044613  0.47141424  0.08115234  1
  O  O61  1  0.14791154  0.67069280  0.08036010  1
  O  O62  1  0.50546264  0.87069485  0.07893488  1
  O  O63  1  0.34081067  0.85660847  0.58432248  1
  O  O64  1  0.51613387  0.65893124  0.58406652  1
  O  O65  1  0.14248288  0.48344502  0.58163837  1
  O  O66  1  0.32865013  0.85718922  0.24901640  1
  O  O67  1  0.51258634  0.66477224  0.24949318  1
  O  O68  1  0.16542804  0.47122620  0.25273580  1
  O  O69  1  0.32271935  0.48885910  0.76681393  1
  O  O70  1  0.16559842  0.67844532  0.76718881  1
  O  O71  1  0.51261592  0.83737891  0.76735622  1
loop_
_geom_bond_atom_site_label_1
_geom_bond_atom_site_label_2
_geom_bond_distance
_geom_bond_site_symmetry_2
Na0 O51 2.447389 1_555
Na0 O68 2.480647 1_555
Na0 O67 2.481359 1_555
Na0 O53 2.492503 1_555
Na0 O32 2.574529 1_555
Na0 O0 2.869688 1_555
Na1 O47 2.439779 1_565
Na1 O61 2.459499 1_555
Na1 O62 2.485488 1_555
Na1 O11 2.499530 1_555
Na1 O45 2.518939 1_455
Na2 O37 2.442493 1_555
Na2 O57 2.465783 1_555
Na2 O38 2.482205 1_655
Na2 O59 2.500845 1_555
Na2 O23 2.705042 1_555
Na2 O28 2.869949 1_655
Na2 O2 2.973411 1_555
Na3 O44 2.532189 1_555
Na3 O43 2.548564 1_665
Na3 O36 2.663778 1_655
Na3 O42 2.747866 1_565
Na3 O37 2.790151 1_565
Na3 O38 2.919646 1_665
Na4 O46 2.334756 1_565
Na4 O45 2.434681 1_555
Na4 O47 2.542393 1_665
Na5 O48 2.591265 1_555
Na5 O49 2.594671 1_555
Na5 O55 2.603629 1_555
Na5 O50 2.605206 1_555
Na5 O54 2.630191 1_555
Na5 O56 2.648080 1_555
Na6 O57 2.493686 1_555
Na6 O59 2.508785 1_555
Na6 O58 2.559380 1_555
Na6 O51 2.760190 1_555
Na6 O52 2.832662 1_555
Na6 O53 2.872416 1_555
Na7 O67 2.430507 1_555
Na7 O66 2.511672 1_555
Na7 O68 2.512461 1_555
Na7 O61 2.854478 1_555
Na7 O62 2.898364 1_555
Na7 O60 2.910680 1_555
Na8 O63 2.240598 1_555
Na8 O64 2.247653 1_555
Na8 O65 2.282531 1_555
Ca0 O1 2.285805 1_555
Ca0 O36 2.300613 1_655
Ca0 O0 2.317769 1_665
Ca0 O37 2.338086 1_565
Ca0 O2 2.373950 1_565
Ca0 O38 2.374234 1_665
Ca1 O4 2.278368 1_455
Ca1 O3 2.285470 1_565
Ca1 O5 2.285655 1_465
Ca1 O39 2.314439 1_565
Ca1 O40 2.321881 1_555
Ca1 O41 2.324964 1_455
Ca2 O43 2.281250 1_555
Ca2 O44 2.287251 1_445
Ca2 O42 2.288436 1_455
Ca2 O7 2.507863 1_555
Ca2 O6 2.513077 1_445
Ca2 O8 2.524330 1_545
Ca3 O9 2.250473 1_555
Ca3 O10 2.255658 1_665
Ca3 O46 2.362380 1_565
Ca3 O11 2.362389 1_655
Ca3 O45 2.412581 1_555
Ca3 O47 2.469094 1_665
Ca4 O14 2.249053 1_555
Ca4 O12 2.250983 1_555
Ca4 O13 2.251918 1_555
Ca4 O48 2.460272 1_555
Ca4 O50 2.474952 1_555
Ca4 O49 2.483289 1_555
Ca5 O15 2.279271 1_555
Ca5 O16 2.291280 1_555
Ca5 O52 2.302826 1_555
Ca5 O51 2.331639 1_555
Ca5 O17 2.372584 1_555
Ca5 O53 2.381242 1_555
Ca6 O20 2.292341 1_556
Ca6 O19 2.300721 1_556
Ca6 O18 2.302755 1_556
Ca6 O54 2.442463 1_555
Ca6 O55 2.461664 1_555
Ca6 O56 2.517776 1_555
Ca7 O21 2.258350 1_555
Ca7 O22 2.264378 1_555
Ca7 O23 2.366171 1_555
Ca7 O58 2.386027 1_555
Ca7 O57 2.404639 1_555
Ca7 O59 2.418601 1_555
Ca8 O60 2.276837 1_555
Ca8 O25 2.277663 1_554
Ca8 O24 2.278597 1_554
Ca8 O61 2.307795 1_555
Ca8 O62 2.319561 1_555
Ca8 O26 2.356885 1_554
Ca9 O27 2.285331 1_555
Ca9 O29 2.289706 1_555
Ca9 O28 2.309760 1_555
Ca9 O64 2.352847 1_555
Ca9 O63 2.369811 1_555
Ca9 O65 2.410859 1_555
Ca10 O31 2.248398 1_555
Ca10 O30 2.255099 1_555
Ca10 O66 2.360962 1_555
Ca10 O32 2.362950 1_555
Ca10 O67 2.387378 1_555
Ca10 O68 2.433223 1_555
Nb0 O70 1.980522 1_555
Nb0 O69 1.985826 1_555
Nb0 O71 1.988987 1_555
Nb0 O34 2.013254 1_555
Nb0 O35 2.024888 1_555
Nb0 O33 2.032132 1_555
O0 S0 1.480370 1_555
O1 S1 1.466384 1_555
O2 S2 1.480991 1_655
O3 S3 1.464653 1_555
O4 S4 1.464035 1_655
O5 S5 1.463575 1_545
O6 S5 1.456941 1_555
O7 S3 1.457215 1_555
O8 S4 1.455482 1_555
O9 S1 1.475869 1_555
O10 S2 1.489326 1_555
O11 S0 1.496487 1_565
O12 S6 1.485237 1_555
O13 S7 1.484326 1_555
O14 S8 1.483165 1_555
O15 S9 1.467520 1_555
O16 S10 1.477699 1_555
O17 S11 1.480841 1_555
O18 S11 1.487900 1_555
O19 S9 1.476577 1_555
O20 S10 1.480303 1_555
O21 S7 1.475456 1_555
O22 S8 1.476922 1_555
O23 S6 1.488754 1_555
O24 S12 1.458014 1_555
O25 S13 1.457286 1_555
O26 S14 1.461289 1_555
O27 S15 1.467111 1_555
O28 S16 1.480313 1_555
O29 S17 1.473143 1_555
O30 S17 1.487648 1_555
O31 S15 1.477012 1_555
O32 S16 1.496660 1_555
O33 S13 1.553048 1_555
O34 S14 1.562631 1_555
O35 S12 1.550631 1_555
O36 S17 1.482915 1_555
O37 S15 1.500880 1_545
O38 S16 1.497518 1_555
O39 S13 1.467468 1_555
O40 S14 1.465499 1_555
O41 S12 1.466116 1_555
O42 S6 1.489484 1_555
O43 S7 1.491260 1_555
O44 S8 1.489696 1_555
O45 S9 1.504095 1_555
O46 S10 1.487177 1_555
O47 S11 1.505575 1_555
O48 S5 1.470785 1_545
O49 S3 1.469569 1_555
O50 S4 1.469541 1_655
O51 S1 1.500411 1_555
O52 S2 1.479378 1_655
O53 S0 1.495279 1_555
O54 S12 1.475587 1_555
O55 S13 1.475096 1_655
O56 S14 1.473038 1_545
O57 S15 1.501422 1_545
O58 S16 1.481451 1_555
O59 S17 1.499859 1_655
O60 S11 1.481499 1_555
O61 S9 1.502875 1_455
O62 S10 1.499718 1_565
O63 S7 1.487329 1_565
O64 S8 1.488304 1_555
O65 S6 1.487565 1_455
O66 S0 1.482190 1_565
O67 S1 1.501470 1_555
O68 S2 1.500744 1_555
O69 S3 1.575185 1_555
O70 S4 1.577454 1_555
O71 S5 1.576174 1_555
