# generated using pymatgen
data_ThCoSn
_symmetry_space_group_name_H-M   'P 1'
_cell_length_a   7.34355300
_cell_length_b   7.34355248
_cell_length_c   4.05039608
_cell_angle_alpha   90.00000000
_cell_angle_beta   90.00000000
_cell_angle_gamma   120.00000235
_symmetry_Int_Tables_number   1
_chemical_formula_structural   ThCoSn
_chemical_formula_sum   'Th3 Co3 Sn3'
_cell_volume   189.16489857
_cell_formula_units_Z   3
loop_
 _symmetry_equiv_pos_site_id
 _symmetry_equiv_pos_as_xyz
  1  'x, y, z'
loop_
 _atom_site_type_symbol
 _atom_site_label
 _atom_site_symmetry_multiplicity
 _atom_site_fract_x
 _atom_site_fract_y
 _atom_site_fract_z
 _atom_site_occupancy
  Th  Th0  1  -0.00000000  0.58577897  0.50000000  1
  Th  Th1  1  0.41422103  0.41422103  0.50000000  1
  Th  Th2  1  0.58577897  0.00000000  0.50000000  1
  Co  Co0  1  0.33333300  0.66666700  -0.00000000  1
  Co  Co1  1  -0.00000000  0.00000000  0.50000000  1
  Co  Co2  1  0.66666700  0.33333300  -0.00000000  1
  Sn  Sn0  1  0.75235731  0.75235731  0.00000000  1
  Sn  Sn1  1  0.00000000  0.24764269  -0.00000000  1
  Sn  Sn2  1  0.24764269  0.00000000  0.00000000  1
loop_
_geom_bond_atom_site_label_1
_geom_bond_atom_site_label_2
_geom_bond_distance
_geom_bond_site_symmetry_2
Co0 Sn2 2.815725 1_565
Co0 Sn1 2.815729 1_555
Co0 Sn0 2.815732 1_555
Co0 Th0 2.998699 1_554
Co0 Th0 2.998699 1_555
Co0 Th2 2.998701 1_564
Co0 Th2 2.998701 1_565
Co0 Th1 2.998704 1_554
Co0 Th1 2.998704 1_555
Co1 Sn0 2.721883 1_446
Co1 Sn0 2.721883 1_445
Co1 Sn1 2.721883 1_556
Co1 Sn1 2.721883 1_555
Co1 Sn2 2.721884 1_555
Co1 Sn2 2.721884 1_556
Co1 Th0 3.041854 1_545
Co1 Th1 3.041854 1_555
Co1 Th2 3.041854 1_455
Co2 Sn1 2.815725 1_655
Co2 Sn2 2.815729 1_555
Co2 Sn0 2.815732 1_555
Co2 Th2 2.998699 1_555
Co2 Th2 2.998699 1_554
Co2 Th0 2.998701 1_655
Co2 Th0 2.998701 1_654
Co2 Th1 2.998704 1_554
Co2 Th1 2.998704 1_555
Sn0 Sn1 3.149868 1_665
Sn0 Sn2 3.149868 1_665
Sn0 Th1 3.204266 1_554
Sn0 Th1 3.204266 1_555
Sn0 Th2 3.336117 1_565
Sn0 Th2 3.336117 1_564
Sn0 Th0 3.336117 1_654
Sn0 Th0 3.336117 1_655
Sn1 Sn2 3.149868 1_555
Sn1 Th0 3.204266 1_555
Sn1 Th0 3.204266 1_554
Sn1 Th2 3.336117 1_454
Sn1 Th2 3.336117 1_455
Sn1 Th1 3.336117 1_554
Sn1 Th1 3.336117 1_555
Sn2 Th2 3.204266 1_555
Sn2 Th2 3.204266 1_554
Sn2 Th0 3.336117 1_544
Sn2 Th0 3.336117 1_545
Sn2 Th1 3.336117 1_555
Sn2 Th1 3.336117 1_554
