# generated using pymatgen
data_FeGe
_symmetry_space_group_name_H-M   'P 1'
_cell_length_a   4.99762036
_cell_length_b   4.99758431
_cell_length_c   4.11576135
_cell_angle_alpha   90.00000000
_cell_angle_beta   90.00000000
_cell_angle_gamma   119.99677804
_symmetry_Int_Tables_number   1
_chemical_formula_structural   FeGe
_chemical_formula_sum   'Fe3 Ge3'
_cell_volume   89.02629652
_cell_formula_units_Z   3
loop_
 _symmetry_equiv_pos_site_id
 _symmetry_equiv_pos_as_xyz
  1  'x, y, z'
loop_
 _atom_site_type_symbol
 _atom_site_label
 _atom_site_symmetry_multiplicity
 _atom_site_fract_x
 _atom_site_fract_y
 _atom_site_fract_z
 _atom_site_occupancy
  Fe  Fe0  1  0.50000000  0.00000000  -0.00000000  1
  Fe  Fe1  1  0.50000000  0.50000000  -0.00000000  1
  Fe  Fe2  1  -0.00000000  0.50000000  -0.00000000  1
  Ge  Ge0  1  -0.00000000  0.00000000  -0.00000000  1
  Ge  Ge1  1  0.33330824  0.66667302  0.50000000  1
  Ge  Ge2  1  0.66669176  0.33332698  0.50000000  1
loop_
_geom_bond_atom_site_label_1
_geom_bond_atom_site_label_2
_geom_bond_distance
_geom_bond_site_symmetry_2
Fe0 Fe1 2.498792 1_545
Fe0 Fe1 2.498792 1_555
Fe0 Ge0 2.498810 1_655
Fe0 Ge0 2.498810 1_555
Fe0 Fe2 2.498923 1_655
Fe0 Fe2 2.498923 1_545
Fe0 Ge2 2.513215 1_555
Fe0 Ge2 2.513215 1_554
Fe0 Ge1 2.513215 1_545
Fe0 Ge1 2.513215 1_544
Fe1 Fe2 2.498810 1_555
Fe1 Fe2 2.498810 1_655
Fe1 Ge0 2.498923 1_665
Fe1 Ge0 2.498923 1_555
Fe1 Ge1 2.513272 1_554
Fe1 Ge2 2.513272 1_555
Fe1 Ge2 2.513272 1_554
Fe1 Ge1 2.513272 1_555
Fe2 Ge0 2.498792 1_565
Fe2 Ge0 2.498792 1_555
Fe2 Ge2 2.513174 1_454
Fe2 Ge1 2.513174 1_555
Fe2 Ge2 2.513174 1_455
Fe2 Ge1 2.513174 1_554
