# generated using pymatgen
data_YMgMo(WO4)2
_symmetry_space_group_name_H-M   'P 1'
_cell_length_a   5.31320958
_cell_length_b   6.30622556
_cell_length_c   6.92186662
_cell_angle_alpha   113.73520350
_cell_angle_beta   117.81187688
_cell_angle_gamma   91.65687643
_symmetry_Int_Tables_number   1
_chemical_formula_structural   YMgMo(WO4)2
_chemical_formula_sum   'Y1 Mg1 Mo1 W2 O8'
_cell_volume   180.93238656
_cell_formula_units_Z   1
loop_
 _symmetry_equiv_pos_site_id
 _symmetry_equiv_pos_as_xyz
  1  'x, y, z'
loop_
 _atom_site_type_symbol
 _atom_site_label
 _atom_site_symmetry_multiplicity
 _atom_site_fract_x
 _atom_site_fract_y
 _atom_site_fract_z
 _atom_site_occupancy
  Y  Y0  1  0.56449000  0.63940400  0.07565100  1
  Mg  Mg0  1  0.88600900  0.84026200  0.63061600  1
  Mo  Mo0  1  0.14325300  0.26605700  0.12819400  1
  W  W0  1  0.87539600  0.35678400  0.58186500  1
  W  W1  1  0.37823200  0.07279900  0.59577800  1
  O  O0  1  0.14772000  0.68560400  0.81849600  1
  O  O1  1  0.59631600  0.50438200  0.35191500  1
  O  O2  1  0.20184200  0.23027300  0.81949500  1
  O  O3  1  0.59052000  0.99721200  0.40208800  1
  O  O4  1  0.70481200  0.00554100  0.83384300  1
  O  O5  1  0.05757500  0.79371800  0.39274000  1
  O  O6  1  0.08362500  0.22859400  0.39833200  1
  O  O7  1  0.65370800  0.41203400  0.77819200  1
loop_
_geom_bond_atom_site_label_1
_geom_bond_atom_site_label_2
_geom_bond_distance
_geom_bond_site_symmetry_2
Mg0 O0 1.997018 1_655
Mg0 O4 2.033104 1_565
Mg0 O1 2.080484 1_555
Mg0 O5 2.157595 1_655
Mg0 O3 2.231487 1_555
Mg0 O2 2.387448 1_665
Mo0 O6 2.134630 1_555
Mo0 O1 2.211391 1_555
Mo0 O4 2.220821 1_454
Mo0 O2 2.224908 1_554
O0 W0 1.989235 1_455
O0 Y0 2.221148 1_556
O1 W0 2.160705 1_555
O1 Y0 2.329747 1_555
O2 W1 2.105375 1_555
O2 W0 2.196507 1_455
O2 Y0 2.520924 1_556
O3 W1 2.055393 1_565
O3 W0 2.180290 1_565
O3 Y0 2.408751 1_555
O4 W1 1.960420 1_555
O5 W1 1.891123 1_565
O5 Y0 2.322807 1_455
O6 W0 2.006978 1_455
O6 W1 2.111141 1_555
O7 W1 2.057441 1_555
O7 W0 2.119374 1_555
O7 Y0 2.256864 1_556
