# generated using pymatgen
data_MgV2(FeO2)4
_symmetry_space_group_name_H-M   'P 1'
_cell_length_a   6.80859726
_cell_length_b   6.02088664
_cell_length_c   6.79486148
_cell_angle_alpha   63.70156093
_cell_angle_beta   52.02536458
_cell_angle_gamma   63.75867350
_symmetry_Int_Tables_number   1
_chemical_formula_structural   MgV2(FeO2)4
_chemical_formula_sum   'Mg1 V2 Fe4 O8'
_cell_volume   191.09905210
_cell_formula_units_Z   1
loop_
 _symmetry_equiv_pos_site_id
 _symmetry_equiv_pos_as_xyz
  1  'x, y, z'
loop_
 _atom_site_type_symbol
 _atom_site_label
 _atom_site_symmetry_multiplicity
 _atom_site_fract_x
 _atom_site_fract_y
 _atom_site_fract_z
 _atom_site_occupancy
  Mg  Mg0  1  0.75444200  0.75087200  0.74381400  1
  V  V0  1  0.19071000  0.58290500  0.64348000  1
  V  V1  1  0.64287200  0.58500600  0.18711600  1
  Fe  Fe0  1  0.00266700  0.99913700  0.99905900  1
  Fe  Fe1  1  0.24211400  0.25546800  0.24695000  1
  Fe  Fe2  1  0.58487800  0.17199300  0.58810000  1
  Fe  Fe3  1  0.58487800  0.65502900  0.58810000  1
  O  O0  1  0.36966800  0.37643300  0.37277500  1
  O  O1  1  0.36966800  0.88112400  0.37277500  1
  O  O2  1  0.36968100  0.37958900  0.87114000  1
  O  O3  1  0.86617800  0.37982800  0.37416600  1
  O  O4  1  0.39462900  0.87736900  0.85063200  1
  O  O5  1  0.89033500  0.39682900  0.88633300  1
  O  O6  1  0.84694300  0.88191600  0.38922500  1
  O  O7  1  0.89033500  0.82650300  0.88633300  1
loop_
_geom_bond_atom_site_label_1
_geom_bond_atom_site_label_2
_geom_bond_distance
_geom_bond_site_symmetry_2
Mg0 O6 1.926620 1_555
Mg0 O4 1.939115 1_555
Mg0 O7 1.966516 1_555
Mg0 O5 1.966517 1_555
Fe0 O6 2.048255 1_456
Fe0 O4 2.071095 1_555
Fe0 O7 2.093178 1_455
Fe0 O5 2.093179 1_465
Fe1 O2 1.996804 1_554
Fe1 O3 2.003818 1_455
Fe1 O0 2.010094 1_555
Fe1 O1 2.010094 1_545
Fe2 O4 2.095510 1_545
Fe2 O6 2.104378 1_545
Fe2 O3 2.104410 1_555
Fe2 O2 2.109652 1_555
Fe2 O0 2.291368 1_555
Fe3 O4 2.095505 1_555
Fe3 O6 2.104378 1_555
Fe3 O3 2.104410 1_555
Fe3 O2 2.109656 1_555
Fe3 O1 2.291368 1_555
O0 V0 2.083756 1_555
O0 V1 2.098262 1_555
O1 V0 2.083757 1_555
O1 V1 2.098262 1_555
O2 V0 2.167716 1_555
O3 V1 2.186085 1_555
O5 V0 2.096583 1_655
O5 V1 2.103703 1_556
O7 V0 2.096583 1_655
O7 V1 2.103703 1_556
