# generated using pymatgen
data_Na21Mg4Nb8Si15(PO24)3
_symmetry_space_group_name_H-M   'P 1'
_cell_length_a   9.11742126
_cell_length_b   9.13786996
_cell_length_c   22.30598983
_cell_angle_alpha   89.96460352
_cell_angle_beta   90.02279658
_cell_angle_gamma   120.04277951
_symmetry_Int_Tables_number   1
_chemical_formula_structural   Na21Mg4Nb8Si15(PO24)3
_chemical_formula_sum   'Na21 Mg4 Nb8 Si15 P3 O72'
_cell_volume   1608.72446387
_cell_formula_units_Z   1
loop_
 _symmetry_equiv_pos_site_id
 _symmetry_equiv_pos_as_xyz
  1  'x, y, z'
loop_
 _atom_site_type_symbol
 _atom_site_label
 _atom_site_symmetry_multiplicity
 _atom_site_fract_x
 _atom_site_fract_y
 _atom_site_fract_z
 _atom_site_occupancy
  Na  Na0  1  0.63912542  0.01971082  0.23970577  1
  Na  Na1  1  0.37748300  0.35528453  0.24240853  1
  Na  Na2  1  0.98513181  0.62632749  0.23935646  1
  Na  Na3  1  0.63813495  0.62083129  0.74279346  1
  Na  Na4  1  0.97926451  0.35557450  0.74534000  1
  Na  Na5  1  0.38284637  0.02559798  0.74618497  1
  Na  Na6  1  0.31347072  0.33809500  0.58905417  1
  Na  Na7  1  0.66406559  0.97535198  0.58880205  1
  Na  Na8  1  0.31529397  0.97467702  0.08610704  1
  Na  Na9  1  0.96657089  0.68370694  0.91239223  1
  Na  Na10  1  0.71945145  0.03432159  0.90877665  1
  Na  Na11  1  0.31484632  0.27717968  0.90910612  1
  Na  Na12  1  0.96400786  0.28024943  0.41147281  1
  Na  Na13  1  0.31488714  0.03708065  0.40805202  1
  Na  Na14  1  0.71675805  0.68361672  0.41128321  1
  Na  Na15  1  0.00142279  0.99111282  0.49530359  1
  Na  Na16  1  0.99126138  0.00134409  0.99290309  1
  Na  Na17  1  0.66035658  0.32674799  0.82566705  1
  Na  Na18  1  0.66058878  0.32801789  0.32570348  1
  Na  Na19  1  0.33426276  0.65467754  0.16045190  1
  Na  Na20  1  0.32110889  0.66754817  0.66674114  1
  Mg  Mg0  1  0.00245785  0.00183439  0.35336042  1
  Mg  Mg1  1  0.00164942  0.00256797  0.85337391  1
  Mg  Mg2  1  0.66453840  0.33109264  0.68407134  1
  Mg  Mg3  1  0.66376721  0.33104565  0.18185024  1
  Nb  Nb0  1  0.99826834  0.00061088  0.64659322  1
  Nb  Nb1  1  0.00145697  0.99770260  0.14255789  1
  Nb  Nb2  1  0.66748875  0.33214458  0.98201707  1
  Nb  Nb3  1  0.66601993  0.33380762  0.48098276  1
  Nb  Nb4  1  0.33321921  0.66386010  0.02158706  1
  Nb  Nb5  1  0.33084187  0.66613852  0.52107874  1
  Nb  Nb6  1  0.33245989  0.66946871  0.31222624  1
  Nb  Nb7  1  0.33699272  0.66577814  0.81259533  1
  Si  Si0  1  0.29424977  0.00274199  0.25361519  1
  Si  Si1  1  0.29368747  0.29285604  0.75383763  1
  Si  Si2  1  0.70705488  0.00185041  0.75415457  1
  Si  Si3  1  0.95896003  0.33640293  0.58713458  1
  Si  Si4  1  0.37267767  0.03925653  0.58587872  1
  Si  Si5  1  0.66985565  0.62665784  0.58550831  1
  Si  Si6  1  0.95711830  0.62109980  0.08750369  1
  Si  Si7  1  0.66782517  0.04128715  0.08654412  1
  Si  Si8  1  0.37733640  0.33774662  0.08744830  1
  Si  Si9  1  0.62476714  0.66324500  0.91752663  1
  Si  Si10  1  0.03947860  0.37685704  0.91634454  1
  Si  Si11  1  0.33518230  0.95895099  0.91739334  1
  Si  Si12  1  0.62462553  0.96005830  0.41712728  1
  Si  Si13  1  0.33558488  0.37610888  0.41624935  1
  Si  Si14  1  0.03848151  0.66283794  0.41626218  1
  P  P0  1  0.71101302  0.71266439  0.25333898  1
  P  P1  1  0.00210005  0.28862954  0.25301712  1
  P  P2  1  0.00127733  0.71186901  0.75279246  1
  O  O0  1  0.20681570  0.02279182  0.31280473  1
  O  O1  1  0.80739840  0.79330858  0.31088052  1
  O  O2  1  0.97898273  0.19036810  0.31079497  1
  O  O3  1  0.20956854  0.18047560  0.81219495  1
  O  O4  1  0.98063525  0.79042737  0.81027254  1
  O  O5  1  0.81566848  0.01950487  0.81254951  1
  O  O6  1  0.80248497  0.97198352  0.69294089  1
  O  O7  1  0.16845395  0.19371723  0.69297943  1
  O  O8  1  0.02434785  0.83165113  0.69726715  1
  O  O9  1  0.80250247  0.82988364  0.19808064  1
  O  O10  1  0.02494912  0.19422953  0.19823846  1
  O  O11  1  0.16922720  0.97311661  0.19384242  1
  O  O12  1  0.88193522  0.36203150  0.64689828  1
  O  O13  1  0.48798845  0.11181414  0.64404492  1
  O  O14  1  0.62386583  0.50917583  0.64304372  1
  O  O15  1  0.88112993  0.51886071  0.14770148  1
  O  O16  1  0.62404058  0.11302072  0.14483845  1
  O  O17  1  0.47731319  0.36193293  0.14820166  1
  O  O18  1  0.47037343  0.30300482  0.02849959  1
  O  O19  1  0.83649021  0.52573955  0.02750370  1
  O  O20  1  0.69286080  0.16261689  0.02654922  1
  O  O21  1  0.46925237  0.16501150  0.52604476  1
  O  O22  1  0.69139909  0.52890698  0.52495663  1
  O  O23  1  0.83404264  0.30577677  0.52709706  1
  O  O24  1  0.51918800  0.68583261  0.97230900  1
  O  O25  1  0.16379068  0.48616211  0.97185089  1
  O  O26  1  0.31749333  0.84185864  0.97535313  1
  O  O27  1  0.52631327  0.84046316  0.47491371  1
  O  O28  1  0.32134004  0.47894364  0.47422686  1
  O  O29  1  0.16505450  0.68161098  0.47164315  1
  O  O30  1  0.13375297  0.63417369  0.35658339  1
  O  O31  1  0.49727186  0.86210035  0.35822944  1
  O  O32  1  0.36451606  0.50072786  0.35732539  1
  O  O33  1  0.13212090  0.49865697  0.85610051  1
  O  O34  1  0.36428554  0.86279699  0.85797776  1
  O  O35  1  0.50063883  0.63342794  0.85698559  1
  O  O36  1  0.01732501  0.82612375  0.41526356  1
  O  O37  1  0.80913519  0.97991759  0.41377626  1
  O  O38  1  0.16881970  0.19273422  0.41593054  1
  O  O39  1  0.02128374  0.19328405  0.91666755  1
  O  O40  1  0.16862059  0.97645088  0.91566343  1
  O  O41  1  0.80980099  0.82654451  0.91519731  1
  O  O42  1  0.97362749  0.16078791  0.58800497  1
  O  O43  1  0.18786683  0.03011139  0.58818597  1
  O  O44  1  0.83579700  0.81871676  0.58750735  1
  O  O45  1  0.97796005  0.81509757  0.08991859  1
  O  O46  1  0.83838138  0.02290556  0.09138159  1
  O  O47  1  0.18829378  0.15851760  0.09010021  1
  O  O48  1  0.68097960  0.16327603  0.74791667  1
  O  O49  1  0.48455848  0.32741708  0.74642238  1
  O  O50  1  0.84999754  0.53526420  0.74473008  1
  O  O51  1  0.68598245  0.53375047  0.24761460  1
  O  O52  1  0.85224197  0.32044134  0.24639753  1
  O  O53  1  0.48565134  0.16161654  0.24863736  1
  O  O54  1  0.62884742  0.48550056  0.92214109  1
  O  O55  1  0.85474498  0.36909557  0.92096336  1
  O  O56  1  0.51216625  0.14413975  0.92095149  1
  O  O57  1  0.63062911  0.14325962  0.42079267  1
  O  O58  1  0.51236074  0.36737574  0.41998985  1
  O  O59  1  0.85611685  0.48493132  0.42061846  1
  O  O60  1  0.34543491  0.49620299  0.07558557  1
  O  O61  1  0.15361032  0.66262833  0.07709742  1
  O  O62  1  0.50053981  0.85352925  0.07487798  1
  O  O63  1  0.35132774  0.85136989  0.57424017  1
  O  O64  1  0.50452741  0.65498390  0.57510861  1
  O  O65  1  0.15542342  0.49158659  0.57640266  1
  O  O66  1  0.30319001  0.81970897  0.25345123  1
  O  O67  1  0.52878708  0.69845516  0.25360926  1
  O  O68  1  0.17387643  0.46759092  0.25366539  1
  O  O69  1  0.29492501  0.47867510  0.75289157  1
  O  O70  1  0.17171223  0.70556253  0.75224785  1
  O  O71  1  0.51658827  0.82151580  0.75274894  1
loop_
_geom_bond_atom_site_label_1
_geom_bond_atom_site_label_2
_geom_bond_distance
_geom_bond_site_symmetry_2
Na0 O16 2.310587 1_555
Na0 O53 2.344469 1_555
Na0 O52 2.450154 1_555
Na0 O67 2.601542 1_545
Na0 O66 2.685217 1_545
Na0 O9 2.946201 1_545
Na0 O31 2.978170 1_545
Na1 O17 2.279019 1_555
Na1 O53 2.423009 1_555
Na1 O51 2.447743 1_555
Na1 O68 2.543728 1_555
Na1 O67 2.732798 1_555
Na2 O15 2.260940 1_555
Na2 O51 2.424577 1_555
Na2 O52 2.431896 1_555
Na2 O66 2.549453 1_655
Na2 O68 2.768681 1_655
Na2 O11 2.926014 1_655
Na2 O30 2.928979 1_655
Na3 O49 2.323064 1_555
Na3 O50 2.420055 1_555
Na3 O14 2.424518 1_555
Na3 O71 2.583775 1_555
Na3 O69 2.731316 1_555
Na3 O35 2.867097 1_555
Na4 O12 2.379785 1_555
Na4 O48 2.387923 1_555
Na4 O50 2.454182 1_555
Na4 O69 2.516926 1_655
Na4 O70 2.777081 1_655
Na4 O33 2.816463 1_655
Na5 O48 2.355575 1_555
Na5 O49 2.430138 1_555
Na5 O13 2.444127 1_555
Na5 O70 2.576658 1_545
Na5 O71 2.694912 1_545
Na5 O34 2.864212 1_545
Na6 O43 2.450543 1_555
Na6 O65 2.479158 1_555
Na6 O64 2.542601 1_555
Na6 O7 2.667324 1_555
Na6 O42 2.683203 1_455
Na6 O14 2.733659 1_555
Na6 O28 2.850565 1_555
Na6 O21 2.957681 1_555
Na7 O42 2.459445 1_565
Na7 O63 2.506881 1_555
Na7 O64 2.552693 1_555
Na7 O44 2.597136 1_555
Na7 O6 2.650678 1_555
Na7 O13 2.767400 1_565
Na7 O27 2.828699 1_555
Na7 O23 2.953651 1_565
Na8 O62 2.452284 1_555
Na8 O47 2.473616 1_565
Na8 O61 2.477073 1_555
Na8 O45 2.665029 1_455
Na8 O11 2.744515 1_555
Na8 O26 2.757676 1_554
Na8 O16 2.770265 1_565
Na8 O18 2.898414 1_565
Na9 O41 2.370390 1_555
Na9 O40 2.370801 1_655
Na9 O4 2.455294 1_555
Na9 O55 2.530919 1_555
Na9 O54 2.687907 1_555
Na9 O19 2.892552 1_556
Na10 O5 2.348595 1_555
Na10 O39 2.389866 1_655
Na10 O41 2.422710 1_545
Na10 O56 2.559735 1_555
Na10 O55 2.678820 1_555
Na10 O20 2.936559 1_556
Na11 O3 2.350864 1_555
Na11 O40 2.383630 1_545
Na11 O39 2.392831 1_555
Na11 O54 2.539197 1_555
Na11 O56 2.640735 1_555
Na12 O38 2.373066 1_655
Na12 O37 2.376525 1_545
Na12 O2 2.418940 1_555
Na12 O59 2.519990 1_555
Na12 O57 2.653199 1_555
Na12 O23 2.896598 1_555
Na13 O0 2.317681 1_555
Na13 O38 2.392631 1_555
Na13 O36 2.421904 1_545
Na13 O57 2.551928 1_555
Na13 O58 2.642253 1_555
Na14 O36 2.374903 1_655
Na14 O37 2.400025 1_555
Na14 O1 2.423357 1_555
Na14 O58 2.543369 1_555
Na14 O59 2.695028 1_555
Na14 O22 2.854832 1_555
Na15 O36 2.388301 1_555
Na15 O38 2.457845 1_565
Na15 O37 2.491844 1_455
Na15 O44 2.570706 1_455
Na15 O43 2.588563 1_565
Na15 O42 2.672408 1_465
Na16 O39 2.357726 1_655
Na16 O41 2.376548 1_545
Na16 O40 2.450723 1_645
Na16 O46 2.661760 1_556
Na16 O45 2.717198 1_546
Na16 O47 2.721727 1_656
Na17 O48 2.357804 1_555
Na17 O49 2.387708 1_555
Na17 O50 2.564950 1_555
Na17 O56 2.620637 1_555
Na17 O55 2.668460 1_555
Na17 O54 2.690626 1_555
Na18 O53 2.320299 1_555
Na18 O51 2.486431 1_555
Na18 O52 2.512218 1_555
Na18 O58 2.620858 1_555
Na18 O57 2.637825 1_555
Na18 O59 2.675390 1_555
Na19 O60 2.417068 1_555
Na19 O61 2.508465 1_555
Na19 O62 2.546248 1_555
Na19 O68 2.622787 1_555
Na19 O67 2.628913 1_555
Na19 O66 2.662679 1_555
Na20 O70 2.467896 1_555
Na20 O69 2.512418 1_555
Na20 O71 2.515230 1_555
Na20 O65 2.549008 1_555
Na20 O63 2.586024 1_555
Na20 O64 2.680072 1_555
Mg0 O0 1.992602 1_555
Mg0 O2 2.069384 1_455
Mg0 O1 2.073474 1_445
Mg0 O37 2.147348 1_445
Mg0 O38 2.154897 1_555
Mg0 O36 2.172111 1_545
Mg1 O5 1.997462 1_455
Mg1 O3 1.998493 1_555
Mg1 O4 2.085458 1_445
Mg1 O40 2.160255 1_545
Mg1 O41 2.174984 1_445
Mg1 O39 2.180115 1_555
Mg2 O12 2.033743 1_555
Mg2 O13 2.043208 1_555
Mg2 O14 2.055545 1_555
Mg2 O49 2.138868 1_555
Mg2 O48 2.151629 1_555
Mg2 O50 2.239027 1_555
Mg3 O17 2.003021 1_555
Mg3 O15 2.011748 1_555
Mg3 O16 2.015248 1_555
Mg3 O53 2.176044 1_555
Mg3 O52 2.280326 1_555
Mg3 O51 2.291588 1_555
Nb0 O7 1.962493 1_655
Nb0 O6 1.963970 1_545
Nb0 O8 2.020676 1_645
Nb0 O42 2.056061 1_555
Nb0 O44 2.056658 1_545
Nb0 O43 2.071962 1_655
Nb1 O45 1.962946 1_455
Nb1 O46 1.976865 1_465
Nb1 O47 1.980759 1_565
Nb1 O11 2.010289 1_555
Nb1 O9 2.095247 1_455
Nb1 O10 2.104970 1_565
Nb2 O20 1.948522 1_556
Nb2 O19 1.950597 1_556
Nb2 O18 1.974280 1_556
Nb2 O55 2.075475 1_555
Nb2 O54 2.088866 1_555
Nb2 O56 2.092267 1_555
Nb3 O22 1.944978 1_555
Nb3 O21 1.958753 1_555
Nb3 O23 1.965152 1_555
Nb3 O59 2.080148 1_555
Nb3 O58 2.082321 1_555
Nb3 O57 2.092476 1_555
Nb4 O25 1.934684 1_554
Nb4 O24 1.945196 1_554
Nb4 O26 1.990236 1_554
Nb4 O60 1.994688 1_555
Nb4 O62 2.024310 1_555
Nb4 O61 2.048920 1_555
Nb5 O29 1.932154 1_555
Nb5 O28 1.969637 1_555
Nb5 O27 1.982658 1_555
Nb5 O63 1.997940 1_555
Nb5 O65 2.017372 1_555
Nb5 O64 2.032363 1_555
Nb6 O31 1.939577 1_555
Nb6 O30 1.944530 1_555
Nb6 O32 1.980925 1_555
Nb6 O66 2.009767 1_555
Nb6 O67 2.123801 1_555
Nb6 O68 2.128538 1_555
Nb7 O35 1.932374 1_555
Nb7 O34 1.970114 1_555
Nb7 O33 1.976438 1_555
Nb7 O71 2.038292 1_555
Nb7 O69 2.046857 1_555
Nb7 O70 2.182051 1_555
O0 Si0 1.599866 1_555
O1 P0 1.521374 1_555
O2 P1 1.523458 1_655
O3 Si1 1.596174 1_555
O4 P2 1.526844 1_655
O5 Si2 1.594553 1_555
O6 Si2 1.713212 1_565
O7 Si1 1.712246 1_555
O8 P2 1.595084 1_555
O9 P0 1.570656 1_555
O10 P1 1.569065 1_555
O11 Si0 1.685390 1_565
O12 Si3 1.578277 1_555
O13 Si4 1.590696 1_555
O14 Si5 1.588513 1_555
O15 Si6 1.583332 1_555
O16 Si7 1.594780 1_555
O17 Si8 1.585519 1_555
O18 Si8 1.679392 1_555
O19 Si6 1.673554 1_555
O20 Si7 1.678458 1_555
O21 Si4 1.692046 1_555
O22 Si5 1.684673 1_555
O23 Si3 1.687903 1_555
O24 Si9 1.631757 1_555
O25 Si10 1.637705 1_555
O26 Si11 1.633398 1_555
O27 Si12 1.636330 1_555
O28 Si13 1.642013 1_555
O29 Si14 1.639551 1_555
O30 Si14 1.680586 1_555
O31 Si12 1.683753 1_555
O32 Si13 1.670787 1_555
O33 Si10 1.678019 1_555
O34 Si11 1.683469 1_555
O35 Si9 1.693868 1_555
O36 Si14 1.597548 1_555
O37 Si12 1.600906 1_555
O38 Si13 1.602693 1_555
O39 Si10 1.600879 1_555
O40 Si11 1.605101 1_555
O41 Si9 1.598368 1_555
O42 Si3 1.675802 1_555
O43 Si4 1.645577 1_555
O44 Si5 1.646949 1_555
O45 Si6 1.686530 1_555
O46 Si7 1.649049 1_555
O47 Si8 1.682262 1_555
O48 Si2 1.613264 1_555
O49 Si1 1.614134 1_555
O50 P2 1.520031 1_655
O51 P0 1.538800 1_555
O52 P1 1.539679 1_655
O53 Si0 1.621270 1_555
O54 Si9 1.646303 1_555
O55 Si10 1.653182 1_655
O56 Si11 1.655191 1_545
O57 Si12 1.649425 1_545
O58 Si13 1.655206 1_555
O59 Si14 1.646291 1_655
O60 Si8 1.634732 1_555
O61 Si6 1.651321 1_455
O62 Si7 1.648537 1_565
O63 Si4 1.648895 1_565
O64 Si5 1.668318 1_555
O65 Si3 1.653263 1_455
O66 Si0 1.714799 1_565
O67 P0 1.600391 1_555
O68 P1 1.600897 1_555
O69 Si1 1.692488 1_555
O70 P2 1.583615 1_555
O71 Si2 1.693165 1_565
