# generated using pymatgen
data_MgTi2(CoO3)2
_symmetry_space_group_name_H-M   'P 1'
_cell_length_a   5.78661397
_cell_length_b   5.78661402
_cell_length_c   5.78661406
_cell_angle_alpha   53.48131834
_cell_angle_beta   53.48131701
_cell_angle_gamma   53.48131873
_symmetry_Int_Tables_number   1
_chemical_formula_structural   MgTi2(CoO3)2
_chemical_formula_sum   'Mg1 Ti2 Co2 O6'
_cell_volume   116.11182278
_cell_formula_units_Z   1
loop_
 _symmetry_equiv_pos_site_id
 _symmetry_equiv_pos_as_xyz
  1  'x, y, z'
loop_
 _atom_site_type_symbol
 _atom_site_label
 _atom_site_symmetry_multiplicity
 _atom_site_fract_x
 _atom_site_fract_y
 _atom_site_fract_z
 _atom_site_occupancy
  Mg  Mg0  1  0.79307831  0.79307831  0.79307831  1
  Ti  Ti0  1  0.98537620  0.98537620  0.98537620  1
  Ti  Ti1  1  0.17002373  0.17002373  0.17002373  1
  Co  Co0  1  0.50844997  0.50844997  0.50844997  1
  Co  Co1  1  0.33976875  0.33976875  0.33976875  1
  O  O0  1  0.58806236  0.93745907  0.19254828  1
  O  O1  1  0.19254828  0.58806236  0.93745907  1
  O  O2  1  0.93745907  0.19254828  0.58806236  1
  O  O3  1  0.37136440  0.08151268  0.78235624  1
  O  O4  1  0.78235624  0.37136440  0.08151268  1
  O  O5  1  0.08151268  0.78235624  0.37136440  1
loop_
_geom_bond_atom_site_label_1
_geom_bond_atom_site_label_2
_geom_bond_distance
_geom_bond_site_symmetry_2
Mg0 O5 1.988477 1_655
Mg0 O3 1.988477 1_565
Mg0 O4 1.988477 1_556
Mg0 O2 2.303014 1_565
Mg0 O0 2.303014 1_556
Mg0 O1 2.303014 1_655
Co0 O1 2.162062 1_555
Co0 O0 2.162062 1_555
Co0 O2 2.162062 1_555
Co0 O3 2.328211 1_555
Co0 O4 2.328211 1_555
Co0 O5 2.328211 1_555
Co1 O4 2.121978 1_555
Co1 O5 2.121978 1_555
Co1 O3 2.121978 1_555
Co1 O2 2.265486 1_455
Co1 O0 2.265486 1_545
Co1 O1 2.265486 1_554
O0 Ti0 1.970447 1_554
O0 Ti1 1.992921 1_565
O1 Ti0 1.970447 1_455
O1 Ti1 1.992921 1_556
O2 Ti0 1.970447 1_545
O2 Ti1 1.992921 1_655
O3 Ti1 2.049066 1_556
O3 Ti0 2.063117 1_445
O4 Ti1 2.049066 1_655
O4 Ti0 2.063117 1_544
O5 Ti1 2.049066 1_565
O5 Ti0 2.063117 1_454
