# generated using pymatgen
data_LuB3H18C2S
_symmetry_space_group_name_H-M   'P 1'
_cell_length_a   5.40985143
_cell_length_b   22.46994900
_cell_length_c   8.04843907
_cell_angle_alpha   90.00000000
_cell_angle_beta   100.02674424
_cell_angle_gamma   90.00000000
_symmetry_Int_Tables_number   1
_chemical_formula_structural   LuB3H18C2S
_chemical_formula_sum   'Lu4 B12 H72 C8 S4'
_cell_volume   963.41798940
_cell_formula_units_Z   4
loop_
 _symmetry_equiv_pos_site_id
 _symmetry_equiv_pos_as_xyz
  1  'x, y, z'
loop_
 _atom_site_type_symbol
 _atom_site_label
 _atom_site_symmetry_multiplicity
 _atom_site_fract_x
 _atom_site_fract_y
 _atom_site_fract_z
 _atom_site_occupancy
  Lu  Lu0  1  0.67944000  0.33236300  0.11752800  1
  Lu  Lu1  1  0.32056000  0.83236300  0.38247200  1
  Lu  Lu2  1  0.32056000  0.66763700  0.88247200  1
  Lu  Lu3  1  0.67944000  0.16763700  0.61752800  1
  B  B0  1  0.16351500  0.17008600  0.56602200  1
  B  B1  1  0.83648500  0.67008600  0.93397800  1
  B  B2  1  0.83648500  0.82991400  0.43397800  1
  B  B3  1  0.16351500  0.32991400  0.06602200  1
  B  B4  1  0.80039900  0.08668500  0.81052800  1
  B  B5  1  0.19960100  0.58668500  0.68947200  1
  B  B6  1  0.19960100  0.91331500  0.18947200  1
  B  B7  1  0.80039900  0.41331500  0.31052800  1
  B  B8  1  0.32421300  0.75432400  0.12403300  1
  B  B9  1  0.67578700  0.25432400  0.37596700  1
  B  B10  1  0.67578700  0.24567600  0.87596700  1
  B  B11  1  0.32421300  0.74567600  0.62403300  1
  H  H0  1  0.27885200  0.19805800  0.47288200  1
  H  H1  1  0.72114800  0.69805800  0.02711800  1
  H  H2  1  0.72114800  0.80194200  0.52711800  1
  H  H3  1  0.27885200  0.30194200  0.97288200  1
  H  H4  1  0.29734500  0.13718800  0.66468500  1
  H  H5  1  0.70265500  0.63718800  0.83531500  1
  H  H6  1  0.70265500  0.86281200  0.33531500  1
  H  H7  1  0.29734500  0.36281200  0.16468500  1
  H  H8  1  0.06835200  0.20704900  0.64820100  1
  H  H9  1  0.93164800  0.70704900  0.85179900  1
  H  H10  1  0.93164800  0.79295100  0.35179900  1
  H  H11  1  0.06835200  0.29295100  0.14820100  1
  H  H12  1  0.00442200  0.13865300  0.47889200  1
  H  H13  1  0.99557800  0.63865300  0.02110800  1
  H  H14  1  0.99557800  0.86134700  0.52110800  1
  H  H15  1  0.00442200  0.36134700  0.97889200  1
  H  H16  1  0.86374000  0.04503700  0.90175300  1
  H  H17  1  0.13626000  0.54503700  0.59824700  1
  H  H18  1  0.13626000  0.95496300  0.09824700  1
  H  H19  1  0.86374000  0.45496300  0.40175300  1
  H  H20  1  0.96068400  0.12632600  0.82238800  1
  H  H21  1  0.03931600  0.62632600  0.67761200  1
  H  H22  1  0.03931600  0.87367400  0.17761200  1
  H  H23  1  0.96068400  0.37367400  0.32238800  1
  H  H24  1  0.76058200  0.07164700  0.65970200  1
  H  H25  1  0.23941800  0.57164700  0.84029800  1
  H  H26  1  0.23941800  0.92835300  0.34029800  1
  H  H27  1  0.76058200  0.42835300  0.15970200  1
  H  H28  1  0.60539900  0.11067100  0.83698800  1
  H  H29  1  0.39460100  0.61067100  0.66301200  1
  H  H30  1  0.39460100  0.88932900  0.16301200  1
  H  H31  1  0.60539900  0.38932900  0.33698800  1
  H  H32  1  0.12915400  0.77195400  0.16534700  1
  H  H33  1  0.87084600  0.27195400  0.33465300  1
  H  H34  1  0.87084600  0.22804600  0.83465300  1
  H  H35  1  0.12915400  0.72804600  0.66534700  1
  H  H36  1  0.33933800  0.70056900  0.15158300  1
  H  H37  1  0.66066200  0.20056900  0.34841700  1
  H  H38  1  0.66066200  0.29943100  0.84841700  1
  H  H39  1  0.33933800  0.79943100  0.65158300  1
  H  H40  1  0.31689400  0.76657400  0.97414100  1
  H  H41  1  0.68310600  0.26657400  0.52585900  1
  H  H42  1  0.68310600  0.23342600  0.02585900  1
  H  H43  1  0.31689400  0.73342600  0.47414100  1
  H  H44  1  0.51370400  0.77745200  0.20485600  1
  H  H45  1  0.48629600  0.27745200  0.29514400  1
  H  H46  1  0.48629600  0.22254800  0.79514400  1
  H  H47  1  0.51370400  0.72254800  0.70485600  1
  H  H48  1  0.80512200  0.01103000  0.41551800  1
  H  H49  1  0.19487800  0.51103000  0.08448200  1
  H  H50  1  0.19487800  0.98897000  0.58448200  1
  H  H51  1  0.80512200  0.48897000  0.91551800  1
  H  H52  1  0.85762100  0.06150300  0.25220900  1
  H  H53  1  0.14237900  0.56150300  0.24779100  1
  H  H54  1  0.14237900  0.93849700  0.74779100  1
  H  H55  1  0.85762100  0.43849700  0.75220900  1
  H  H56  1  0.62847900  0.00300200  0.20791000  1
  H  H57  1  0.37152100  0.50300200  0.29209000  1
  H  H58  1  0.37152100  0.99699800  0.79209000  1
  H  H59  1  0.62847900  0.49699800  0.70791000  1
  H  H60  1  0.20526400  0.14747800  0.18587700  1
  H  H61  1  0.79473600  0.64747800  0.31412300  1
  H  H62  1  0.79473600  0.85252200  0.81412300  1
  H  H63  1  0.20526400  0.35252200  0.68587700  1
  H  H64  1  0.26281900  0.08118000  0.07565400  1
  H  H65  1  0.73718100  0.58118000  0.42434600  1
  H  H66  1  0.73718100  0.91882000  0.92434600  1
  H  H67  1  0.26281900  0.41882000  0.57565400  1
  H  H68  1  0.49557200  0.13914400  0.11066500  1
  H  H69  1  0.50442800  0.63914400  0.38933500  1
  H  H70  1  0.50442800  0.86085600  0.88933500  1
  H  H71  1  0.49557200  0.36085600  0.61066500  1
  C  C0  1  0.71694300  0.03515400  0.30233600  1
  C  C1  1  0.28305700  0.53515400  0.19766400  1
  C  C2  1  0.28305700  0.96484600  0.69766400  1
  C  C3  1  0.71694300  0.46484600  0.80233600  1
  C  C4  1  0.34926500  0.11566200  0.16320400  1
  C  C5  1  0.65073500  0.61566200  0.33679600  1
  C  C6  1  0.65073500  0.88433800  0.83679600  1
  C  C7  1  0.34926500  0.38433800  0.66320400  1
  S  S0  1  0.47591800  0.08173900  0.36324500  1
  S  S1  1  0.52408200  0.58173900  0.13675500  1
  S  S2  1  0.52408200  0.91826100  0.63675500  1
  S  S3  1  0.47591800  0.41826100  0.86324500  1
loop_
_geom_bond_atom_site_label_1
_geom_bond_atom_site_label_2
_geom_bond_distance
_geom_bond_site_symmetry_2
B0 H4 1.225149 1_555
B0 H0 1.228491 1_555
B0 H8 1.229186 1_555
B0 H12 1.233373 1_555
B1 H5 1.225149 1_555
B1 H1 1.228491 1_556
B1 H9 1.229186 1_555
B1 H13 1.233373 1_556
B2 H6 1.225149 1_555
B2 H2 1.228491 1_555
B2 H10 1.229186 1_555
B2 H14 1.233373 1_555
B3 H7 1.225149 1_555
B3 H3 1.228491 1_554
B3 H11 1.229186 1_555
B3 H15 1.233373 1_554
B4 H16 1.201942 1_555
B4 H20 1.235146 1_555
B4 H28 1.235687 1_555
B4 H24 1.242221 1_555
B5 H17 1.201942 1_555
B5 H21 1.235146 1_555
B5 H29 1.235687 1_555
B5 H25 1.242221 1_555
B6 H18 1.201942 1_555
B6 H22 1.235146 1_555
B6 H30 1.235687 1_555
B6 H26 1.242221 1_555
B7 H19 1.201942 1_555
B7 H23 1.235146 1_555
B7 H31 1.235687 1_555
B7 H27 1.242221 1_555
B8 H32 1.226055 1_555
B8 H36 1.228210 1_555
B8 H44 1.229587 1_555
B8 H40 1.231298 1_554
B9 H33 1.226055 1_555
B9 H37 1.228210 1_555
B9 H45 1.229587 1_555
B9 H41 1.231298 1_555
B10 H34 1.226055 1_555
B10 H38 1.228210 1_555
B10 H46 1.229587 1_555
B10 H42 1.231298 1_556
B11 H35 1.226055 1_555
B11 H39 1.228210 1_555
B11 H47 1.229587 1_555
B11 H43 1.231298 1_555
H0 Lu3 2.374964 1_555
H1 Lu2 2.374964 1_554
H2 Lu1 2.374964 1_555
H3 Lu0 2.374964 1_556
H4 Lu3 2.271158 1_555
H5 Lu2 2.271158 1_555
H6 Lu1 2.271158 1_555
H7 Lu0 2.271158 1_555
H8 Lu3 2.256319 1_455
H9 Lu2 2.256319 1_655
H10 Lu1 2.256319 1_655
H11 Lu0 2.256319 1_455
H12 Lu3 2.333065 1_455
H13 Lu2 2.333065 1_654
H14 Lu1 2.333065 1_655
H15 Lu0 2.333065 1_456
H20 Lu3 2.240891 1_555
H21 Lu2 2.240891 1_555
H22 Lu1 2.240891 1_555
H23 Lu0 2.240891 1_555
H24 Lu3 2.215446 1_555
H25 Lu2 2.215446 1_555
H26 Lu1 2.215446 1_555
H27 Lu0 2.215446 1_555
H28 Lu3 2.272689 1_555
H29 Lu2 2.272689 1_555
H30 Lu1 2.272689 1_555
H31 Lu0 2.272689 1_555
H32 Lu1 2.310504 1_555
H33 Lu0 2.310504 1_555
H34 Lu3 2.310504 1_555
H35 Lu2 2.310504 1_555
H36 Lu2 2.274313 1_554
H37 Lu3 2.274313 1_555
H38 Lu0 2.274313 1_556
H39 Lu1 2.274313 1_555
H40 Lu2 2.343510 1_555
H41 Lu3 2.343510 1_555
H42 Lu0 2.343510 1_555
H43 Lu1 2.343510 1_555
H44 Lu1 2.275487 1_555
H45 Lu0 2.275487 1_555
H46 Lu3 2.275487 1_555
H47 Lu2 2.275487 1_555
C0 H52 1.095177 1_555
C0 H48 1.095394 1_555
C0 H56 1.096311 1_555
C0 S0 1.805212 1_555
C1 H53 1.095177 1_555
C1 H49 1.095394 1_555
C1 H57 1.096311 1_555
C1 S1 1.805212 1_555
C2 H54 1.095177 1_555
C2 H50 1.095394 1_555
C2 H58 1.096311 1_555
C2 S2 1.805212 1_555
C3 H55 1.095177 1_555
C3 H51 1.095394 1_555
C3 H59 1.096311 1_555
C3 S3 1.805212 1_555
C4 H68 1.095549 1_555
C4 H60 1.095795 1_555
C4 H64 1.095812 1_555
C4 S0 1.805135 1_555
C5 H69 1.095549 1_555
C5 H61 1.095795 1_555
C5 H65 1.095812 1_555
C5 S1 1.805135 1_555
C6 H70 1.095549 1_555
C6 H62 1.095795 1_555
C6 H66 1.095812 1_555
C6 S2 1.805135 1_555
C7 H71 1.095549 1_555
C7 H63 1.095795 1_555
C7 H67 1.095812 1_555
C7 S3 1.805135 1_555
