# generated using pymatgen
data_Sr2YMgTlCu2O7
_symmetry_space_group_name_H-M   'P 1'
_cell_length_a   3.83218363
_cell_length_b   3.73851054
_cell_length_c   14.49651686
_cell_angle_alpha   90.00000000
_cell_angle_beta   90.00000000
_cell_angle_gamma   90.00000000
_symmetry_Int_Tables_number   1
_chemical_formula_structural   Sr2YMgTlCu2O7
_chemical_formula_sum   'Sr2 Y1 Mg1 Tl1 Cu2 O7'
_cell_volume   207.68665217
_cell_formula_units_Z   1
loop_
 _symmetry_equiv_pos_site_id
 _symmetry_equiv_pos_as_xyz
  1  'x, y, z'
loop_
 _atom_site_type_symbol
 _atom_site_label
 _atom_site_symmetry_multiplicity
 _atom_site_fract_x
 _atom_site_fract_y
 _atom_site_fract_z
 _atom_site_occupancy
  Sr  Sr0  1  0.50000000  0.50000000  0.74319690  1
  Sr  Sr1  1  0.50000000  0.50000000  0.25903176  1
  Y  Y0  1  0.50000000  0.50000000  0.50048422  1
  Mg  Mg0  1  0.00000000  0.50000000  0.10586272  1
  Tl  Tl0  1  0.00000000  0.00000000  0.94723736  1
  Cu  Cu0  1  0.00000000  0.00000000  0.62056928  1
  Cu  Cu1  1  0.00000000  0.00000000  0.37926551  1
  O  O0  1  0.50000000  0.00000000  0.60514168  1
  O  O1  1  0.00000000  0.50000000  0.59971756  1
  O  O2  1  0.50000000  0.00000000  0.39831846  1
  O  O3  1  0.00000000  0.50000000  0.39854494  1
  O  O4  1  0.00000000  0.00000000  0.78389217  1
  O  O5  1  0.00000000  0.00000000  0.20481846  1
  O  O6  1  0.50000000  0.50000000  0.06850197  1
loop_
_geom_bond_atom_site_label_1
_geom_bond_atom_site_label_2
_geom_bond_distance
_geom_bond_site_symmetry_2
Mg0 O6 1.991165 1_555
Mg0 O6 1.991165 1_455
Mg0 O5 2.356256 1_555
Mg0 O5 2.356256 1_565
Cu0 O1 1.893538 1_555
Cu0 O1 1.893538 1_545
Cu0 O0 1.929100 1_455
Cu0 O0 1.929100 1_555
Cu0 O4 2.367613 1_555
Cu1 O3 1.890034 1_555
Cu1 O3 1.890034 1_545
Cu1 O2 1.935896 1_455
Cu1 O2 1.935896 1_555
Cu1 O5 2.528875 1_555
O0 Y0 2.407471 1_545
O0 Y0 2.407471 1_555
O0 Sr0 2.738503 1_555
O0 Sr0 2.738503 1_545
O1 Y0 2.395996 1_455
O1 Y0 2.395996 1_555
O1 Sr0 2.828003 1_455
O1 Sr0 2.828003 1_555
O2 Y0 2.384873 1_545
O2 Y0 2.384873 1_555
O2 Sr1 2.751576 1_545
O2 Sr1 2.751576 1_555
O3 Y0 2.419751 1_455
O3 Y0 2.419751 1_555
O3 Sr1 2.785989 1_555
O3 Sr1 2.785989 1_455
O4 Tl0 2.367936 1_555
O4 Sr0 2.741086 1_555
O4 Sr0 2.741086 1_455
O4 Sr0 2.741086 1_445
O4 Sr0 2.741086 1_545
O5 Sr1 2.789833 1_555
O5 Sr1 2.789833 1_445
O5 Sr1 2.789833 1_545
O5 Sr1 2.789833 1_455
O6 Sr1 2.762018 1_555
