# generated using pymatgen
data_MgMo2(BrO)4
_symmetry_space_group_name_H-M   'P 1'
_cell_length_a   3.86229198
_cell_length_b   7.90235512
_cell_length_c   8.79228703
_cell_angle_alpha   103.85347193
_cell_angle_beta   102.71281492
_cell_angle_gamma   90.05812656
_symmetry_Int_Tables_number   1
_chemical_formula_structural   MgMo2(BrO)4
_chemical_formula_sum   'Mg1 Mo2 Br4 O4'
_cell_volume   253.74904079
_cell_formula_units_Z   1
loop_
 _symmetry_equiv_pos_site_id
 _symmetry_equiv_pos_as_xyz
  1  'x, y, z'
loop_
 _atom_site_type_symbol
 _atom_site_label
 _atom_site_symmetry_multiplicity
 _atom_site_fract_x
 _atom_site_fract_y
 _atom_site_fract_z
 _atom_site_occupancy
  Mg  Mg0  1  0.41611800  0.68859000  0.83399900  1
  Mo  Mo0  1  0.00065800  0.46838400  0.00173300  1
  Mo  Mo1  1  0.00650000  0.98453200  0.01586800  1
  Br  Br0  1  0.83457100  0.87489800  0.68581300  1
  Br  Br1  1  0.84522900  0.40576800  0.68139300  1
  Br  Br2  1  0.15206500  0.03890200  0.31036600  1
  Br  Br3  1  0.15425000  0.54766900  0.29982900  1
  O  O0  1  0.49837600  0.95297200  0.99967800  1
  O  O1  1  0.49194400  0.47639300  0.98343300  1
  O  O2  1  0.98521400  0.72034700  0.97163300  1
  O  O3  1  0.00290600  0.21081900  0.00650700  1
loop_
_geom_bond_atom_site_label_1
_geom_bond_atom_site_label_2
_geom_bond_distance
_geom_bond_site_symmetry_2
Mg0 O0 2.219318 1_555
Mg0 O2 2.244773 1_455
Mg0 O2 2.245307 1_555
Mg0 O1 2.347457 1_555
Mo0 O1 1.938125 1_454
Mo0 O1 1.941486 1_554
Mo0 O3 2.045814 1_555
Mo0 O2 2.069714 1_454
Mo1 O3 1.809601 1_565
Mo1 O0 1.947566 1_454
Mo1 O0 1.947965 1_554
Mo1 O2 2.028102 1_454
Br0 Mo1 2.749458 1_656
Br0 Mg0 2.884048 1_555
Br0 Mg0 2.923593 1_655
Br1 Mo0 2.669428 1_656
Br1 Mg0 2.984786 1_655
Br1 Mg0 3.015357 1_555
Br2 Mo1 2.455862 1_545
Br3 Mo0 2.478381 1_555
