# generated using pymatgen
data_Tb(SiNi5)2
_symmetry_space_group_name_H-M   'P 1'
_cell_length_a   8.09603612
_cell_length_b   8.09603612
_cell_length_c   4.63398242
_cell_angle_alpha   90.00000000
_cell_angle_beta   90.00000000
_cell_angle_gamma   90.00000000
_symmetry_Int_Tables_number   1
_chemical_formula_structural   Tb(SiNi5)2
_chemical_formula_sum   'Tb2 Si4 Ni20'
_cell_volume   303.73808887
_cell_formula_units_Z   2
loop_
 _symmetry_equiv_pos_site_id
 _symmetry_equiv_pos_as_xyz
  1  'x, y, z'
loop_
 _atom_site_type_symbol
 _atom_site_label
 _atom_site_symmetry_multiplicity
 _atom_site_fract_x
 _atom_site_fract_y
 _atom_site_fract_z
 _atom_site_occupancy
  Tb  Tb0  1  0.50000000  -0.00000000  0.78002127  1
  Tb  Tb1  1  0.00000000  0.50000000  0.21997873  1
  Si  Si0  1  0.75000000  0.75000000  0.50000000  1
  Si  Si1  1  0.25000000  0.25000000  0.50000000  1
  Si  Si2  1  0.75000000  0.25000000  0.50000000  1
  Si  Si3  1  0.25000000  0.75000000  0.50000000  1
  Ni  Ni0  1  0.25000000  0.25000000  -0.00000000  1
  Ni  Ni1  1  0.25000000  0.75000000  -0.00000000  1
  Ni  Ni2  1  0.50000000  0.22553231  0.27121090  1
  Ni  Ni3  1  0.75000000  0.75000000  -0.00000000  1
  Ni  Ni4  1  0.75000000  0.25000000  -0.00000000  1
  Ni  Ni5  1  0.50000000  0.77446769  0.27121090  1
  Ni  Ni6  1  0.35341896  0.50000000  0.23805760  1
  Ni  Ni7  1  0.00000000  0.14658104  0.23805760  1
  Ni  Ni8  1  0.00000000  0.85341896  0.23805760  1
  Ni  Ni9  1  0.64658104  0.50000000  0.23805760  1
  Ni  Ni10  1  0.14658104  -0.00000000  0.76194240  1
  Ni  Ni11  1  0.85341896  -0.00000000  0.76194240  1
  Ni  Ni12  1  0.50000000  0.35341896  0.76194240  1
  Ni  Ni13  1  0.50000000  0.64658104  0.76194240  1
  Ni  Ni14  1  0.77446769  0.50000000  0.72878910  1
  Ni  Ni15  1  0.00000000  0.72553231  0.72878910  1
  Ni  Ni16  1  0.00000000  0.27446769  0.72878910  1
  Ni  Ni17  1  0.22553231  0.50000000  0.72878910  1
  Ni  Ni18  1  0.72553231  -0.00000000  0.27121090  1
  Ni  Ni19  1  0.27446769  -0.00000000  0.27121090  1
loop_
_geom_bond_atom_site_label_1
_geom_bond_atom_site_label_2
_geom_bond_distance
_geom_bond_site_symmetry_2
Si0 Tb1 3.142774 1_655
Si0 Tb0 3.142774 1_565
Si1 Tb1 3.142774 1_555
Si1 Tb0 3.142774 1_555
Si2 Tb1 3.142774 1_655
Si2 Tb0 3.142774 1_555
Si3 Tb1 3.142774 1_555
Si3 Tb0 3.142774 1_565
Ni0 Si1 2.316991 1_554
Ni0 Si1 2.316991 1_555
Ni0 Ni16 2.390683 1_554
Ni0 Ni17 2.390683 1_554
Ni0 Ni2 2.390683 1_555
Ni0 Ni19 2.390683 1_555
Ni0 Ni7 2.452470 1_555
Ni0 Ni12 2.452470 1_554
Ni0 Ni10 2.452470 1_554
Ni0 Ni6 2.452470 1_555
Ni0 Tb0 3.038479 1_554
Ni0 Tb1 3.038479 1_555
Ni1 Si3 2.316991 1_555
Ni1 Si3 2.316991 1_554
Ni1 Ni5 2.390683 1_555
Ni1 Ni19 2.390683 1_565
Ni1 Ni17 2.390683 1_554
Ni1 Ni15 2.390683 1_554
Ni1 Ni10 2.452470 1_564
Ni1 Ni13 2.452470 1_554
Ni1 Ni8 2.452470 1_555
Ni1 Ni6 2.452470 1_555
Ni1 Tb0 3.038479 1_564
Ni1 Tb1 3.038479 1_555
Ni2 Si1 2.293444 1_555
Ni2 Si2 2.293444 1_555
Ni2 Ni4 2.390683 1_555
Ni2 Ni6 2.523817 1_555
Ni2 Ni9 2.523817 1_555
Ni2 Tb0 2.918030 1_554
Ni2 Tb0 2.982161 1_555
Ni3 Si0 2.316991 1_555
Ni3 Si0 2.316991 1_554
Ni3 Ni5 2.390683 1_555
Ni3 Ni8 2.452470 1_655
Ni3 Ni9 2.452470 1_555
Ni3 Tb0 3.038479 1_564
Ni3 Tb1 3.038479 1_655
Ni4 Si2 2.316991 1_554
Ni4 Si2 2.316991 1_555
Ni4 Ni7 2.452470 1_655
Ni4 Ni9 2.452470 1_555
Ni4 Tb0 3.038479 1_554
Ni4 Tb1 3.038479 1_655
Ni5 Si0 2.293444 1_555
Ni5 Si3 2.293444 1_555
Ni5 Ni6 2.523817 1_555
Ni5 Ni9 2.523817 1_555
Ni5 Tb0 2.918030 1_564
Ni5 Tb0 2.982161 1_565
Ni6 Ni9 2.373451 1_555
Ni6 Si3 2.504208 1_555
Ni6 Si1 2.504208 1_555
Ni6 Tb1 2.862519 1_555
Ni7 Ni8 2.373451 1_545
Ni7 Si2 2.504208 1_455
Ni7 Si1 2.504208 1_555
Ni7 Tb1 2.862519 1_555
Ni8 Si0 2.504208 1_455
Ni8 Si3 2.504208 1_555
Ni8 Tb1 2.862519 1_555
Ni9 Si2 2.504208 1_555
Ni9 Si0 2.504208 1_555
Ni9 Tb1 2.862519 1_655
Ni10 Ni11 2.373451 1_455
Ni10 Ni19 2.498653 1_555
Ni10 Si3 2.504208 1_545
Ni10 Si1 2.504208 1_555
Ni10 Ni16 2.523817 1_555
Ni10 Ni15 2.523817 1_545
Ni10 Ni19 2.577077 1_556
Ni10 Ni7 2.772081 1_556
Ni10 Ni8 2.772081 1_546
Ni10 Tb0 2.862519 1_555
Ni10 Ni7 2.951310 1_555
Ni10 Ni8 2.951310 1_545
Ni11 Ni3 2.452470 1_546
Ni11 Ni4 2.452470 1_556
Ni11 Ni18 2.498653 1_555
Ni11 Si2 2.504208 1_555
Ni11 Si0 2.504208 1_545
Ni11 Ni16 2.523817 1_655
Ni11 Ni15 2.523817 1_645
Ni11 Ni18 2.577077 1_556
Ni11 Ni8 2.772081 1_646
Ni11 Ni7 2.772081 1_656
Ni11 Tb0 2.862519 1_555
Ni11 Ni8 2.951310 1_645
Ni11 Ni7 2.951310 1_655
Ni12 Ni13 2.373451 1_555
Ni12 Ni4 2.452470 1_556
Ni12 Ni2 2.498653 1_555
Ni12 Si2 2.504208 1_555
Ni12 Si1 2.504208 1_555
Ni12 Ni17 2.523817 1_555
Ni12 Ni14 2.523817 1_555
Ni12 Ni2 2.577077 1_556
Ni12 Ni6 2.772081 1_556
Ni12 Ni9 2.772081 1_556
Ni12 Tb0 2.862519 1_555
Ni12 Ni9 2.951310 1_555
Ni12 Ni6 2.951310 1_555
Ni13 Ni3 2.452470 1_556
Ni13 Ni5 2.498653 1_555
Ni13 Si0 2.504208 1_555
Ni13 Si3 2.504208 1_555
Ni13 Ni17 2.523817 1_555
Ni13 Ni14 2.523817 1_555
Ni13 Ni5 2.577077 1_556
Ni13 Ni9 2.772081 1_556
Ni13 Ni6 2.772081 1_556
Ni13 Tb0 2.862519 1_565
Ni13 Ni6 2.951310 1_555
Ni13 Ni9 2.951310 1_555
Ni14 Si2 2.293444 1_555
Ni14 Si0 2.293444 1_555
Ni14 Ni3 2.390683 1_556
Ni14 Ni4 2.390683 1_556
Ni14 Ni9 2.498653 1_555
Ni14 Ni9 2.577077 1_556
Ni14 Ni15 2.582238 1_655
Ni14 Ni16 2.582238 1_655
Ni14 Tb1 2.918030 1_656
Ni14 Tb1 2.982161 1_655
Ni15 Si0 2.293444 1_455
Ni15 Si3 2.293444 1_555
Ni15 Ni3 2.390683 1_456
Ni15 Ni8 2.498653 1_555
Ni15 Ni8 2.577077 1_556
Ni15 Ni17 2.582238 1_555
Ni15 Tb1 2.918030 1_556
Ni15 Tb1 2.982161 1_555
Ni16 Si2 2.293444 1_455
Ni16 Si1 2.293444 1_555
Ni16 Ni4 2.390683 1_456
Ni16 Ni7 2.498653 1_555
Ni16 Ni7 2.577077 1_556
Ni16 Ni17 2.582238 1_555
Ni16 Tb1 2.918030 1_556
Ni16 Tb1 2.982161 1_555
Ni17 Si3 2.293444 1_555
Ni17 Si1 2.293444 1_555
Ni17 Ni6 2.498653 1_555
Ni17 Ni6 2.577077 1_556
Ni17 Tb1 2.918030 1_556
Ni17 Tb1 2.982161 1_555
Ni18 Si0 2.293444 1_545
Ni18 Si2 2.293444 1_555
Ni18 Ni4 2.390683 1_555
Ni18 Ni3 2.390683 1_545
Ni18 Ni7 2.523817 1_655
Ni18 Ni8 2.523817 1_645
Ni18 Ni5 2.582238 1_545
Ni18 Ni2 2.582238 1_555
Ni18 Tb0 2.918030 1_554
Ni18 Tb0 2.982161 1_555
Ni19 Si1 2.293444 1_555
Ni19 Si3 2.293444 1_545
Ni19 Ni7 2.523817 1_555
Ni19 Ni8 2.523817 1_545
Ni19 Ni5 2.582238 1_545
Ni19 Ni2 2.582238 1_555
Ni19 Tb0 2.918030 1_554
Ni19 Tb0 2.982161 1_555
