# generated using pymatgen
data_K3NaHf2(SiO4)3
_symmetry_space_group_name_H-M   'P 1'
_cell_length_a   9.41444352
_cell_length_b   9.41444317
_cell_length_c   22.52541169
_cell_angle_alpha   90.00000000
_cell_angle_beta   90.00000000
_cell_angle_gamma   120.00000122
_symmetry_Int_Tables_number   1
_chemical_formula_structural   K3NaHf2(SiO4)3
_chemical_formula_sum   'K18 Na6 Hf12 Si18 O72'
_cell_volume   1728.99069566
_cell_formula_units_Z   6
loop_
 _symmetry_equiv_pos_site_id
 _symmetry_equiv_pos_as_xyz
  1  'x, y, z'
loop_
 _atom_site_type_symbol
 _atom_site_label
 _atom_site_symmetry_multiplicity
 _atom_site_fract_x
 _atom_site_fract_y
 _atom_site_fract_z
 _atom_site_occupancy
  K  K0  1  0.65812038  0.00000000  0.25000000  1
  K  K1  1  0.34187962  0.34187962  0.25000000  1
  K  K2  1  1.00000000  0.65812038  0.25000000  1
  K  K3  1  0.65812038  0.65812038  0.75000000  1
  K  K4  1  0.00000000  0.34187962  0.75000000  1
  K  K5  1  0.34187962  0.00000000  0.75000000  1
  K  K6  1  0.32478738  0.33333300  0.58333300  1
  K  K7  1  0.00854662  0.67521262  0.58333300  1
  K  K8  1  0.66666700  0.99145338  0.58333300  1
  K  K9  1  0.32478738  0.99145338  0.08333300  1
  K  K10  1  0.66666700  0.67521262  0.08333300  1
  K  K11  1  0.00854662  0.33333300  0.08333300  1
  K  K12  1  0.99145338  0.66666700  0.91666700  1
  K  K13  1  0.67521262  0.00854662  0.91666700  1
  K  K14  1  0.33333300  0.32478738  0.91666700  1
  K  K15  1  0.99145338  0.32478738  0.41666700  1
  K  K16  1  0.33333300  0.00854662  0.41666700  1
  K  K17  1  0.67521262  0.66666700  0.41666700  1
  Na  Na0  1  0.00000000  0.00000000  0.50000000  1
  Na  Na1  1  0.00000000  0.00000000  -0.00000000  1
  Na  Na2  1  0.66666700  0.33333300  0.83333300  1
  Na  Na3  1  0.66666700  0.33333300  0.33333300  1
  Na  Na4  1  0.33333300  0.66666700  0.16666700  1
  Na  Na5  1  0.33333300  0.66666700  0.66666700  1
  Hf  Hf0  1  0.00000000  0.00000000  0.35175149  1
  Hf  Hf1  1  0.00000000  0.00000000  0.85175149  1
  Hf  Hf2  1  0.00000000  0.00000000  0.64824851  1
  Hf  Hf3  1  0.00000000  0.00000000  0.14824851  1
  Hf  Hf4  1  0.66666700  0.33333300  0.68508449  1
  Hf  Hf5  1  0.66666700  0.33333300  0.18508449  1
  Hf  Hf6  1  0.66666700  0.33333300  0.98158151  1
  Hf  Hf7  1  0.66666700  0.33333300  0.48158151  1
  Hf  Hf8  1  0.33333300  0.66666700  0.01841849  1
  Hf  Hf9  1  0.33333300  0.66666700  0.51841849  1
  Hf  Hf10  1  0.33333300  0.66666700  0.31491551  1
  Hf  Hf11  1  0.33333300  0.66666700  0.81491551  1
  Si  Si0  1  0.29849964  0.00000000  0.25000000  1
  Si  Si1  1  0.70150036  0.70150036  0.25000000  1
  Si  Si2  1  0.00000000  0.29849964  0.25000000  1
  Si  Si3  1  0.29849964  0.29849964  0.75000000  1
  Si  Si4  1  1.00000000  0.70150036  0.75000000  1
  Si  Si5  1  0.70150036  0.00000000  0.75000000  1
  Si  Si6  1  0.96516664  0.33333300  0.58333300  1
  Si  Si7  1  0.36816736  0.03483336  0.58333300  1
  Si  Si8  1  0.66666700  0.63183264  0.58333300  1
  Si  Si9  1  0.96516664  0.63183264  0.08333300  1
  Si  Si10  1  0.66666700  0.03483336  0.08333300  1
  Si  Si11  1  0.36816736  0.33333300  0.08333300  1
  Si  Si12  1  0.63183264  0.66666700  0.91666700  1
  Si  Si13  1  0.03483336  0.36816736  0.91666700  1
  Si  Si14  1  0.33333300  0.96516664  0.91666700  1
  Si  Si15  1  0.63183264  0.96516664  0.41666700  1
  Si  Si16  1  0.33333300  0.36816736  0.41666700  1
  Si  Si17  1  0.03483336  0.66666700  0.41666700  1
  O  O0  1  0.19993383  0.02047487  0.30692957  1
  O  O1  1  0.82054104  0.80006617  0.30692957  1
  O  O2  1  0.97952513  0.17945896  0.30692957  1
  O  O3  1  0.19993383  0.17945896  0.80692957  1
  O  O4  1  0.97952513  0.80006617  0.80692957  1
  O  O5  1  0.82054104  0.02047487  0.80692957  1
  O  O6  1  0.80006617  0.97952513  0.69307043  1
  O  O7  1  0.17945896  0.19993383  0.69307043  1
  O  O8  1  0.02047487  0.82054104  0.69307043  1
  O  O9  1  0.80006617  0.82054104  0.19307043  1
  O  O10  1  0.02047487  0.19993383  0.19307043  1
  O  O11  1  0.17945896  0.97952513  0.19307043  1
  O  O12  1  0.86660083  0.35380787  0.64026257  1
  O  O13  1  0.48720804  0.13339917  0.64026257  1
  O  O14  1  0.64619213  0.51279196  0.64026257  1
  O  O15  1  0.86660083  0.51279196  0.14026257  1
  O  O16  1  0.64619213  0.13339917  0.14026257  1
  O  O17  1  0.48720804  0.35380787  0.14026257  1
  O  O18  1  0.46673317  0.31285813  0.02640343  1
  O  O19  1  0.84612596  0.53326683  0.02640343  1
  O  O20  1  0.68714187  0.15387404  0.02640343  1
  O  O21  1  0.46673317  0.15387404  0.52640343  1
  O  O22  1  0.68714187  0.53326683  0.52640343  1
  O  O23  1  0.84612596  0.31285813  0.52640343  1
  O  O24  1  0.53326683  0.68714187  0.97359657  1
  O  O25  1  0.15387404  0.46673317  0.97359657  1
  O  O26  1  0.31285813  0.84612596  0.97359657  1
  O  O27  1  0.53326683  0.84612596  0.47359657  1
  O  O28  1  0.31285813  0.46673317  0.47359657  1
  O  O29  1  0.15387404  0.68714187  0.47359657  1
  O  O30  1  0.13339917  0.64619213  0.35973743  1
  O  O31  1  0.51279196  0.86660083  0.35973743  1
  O  O32  1  0.35380787  0.48720804  0.35973743  1
  O  O33  1  0.13339917  0.48720804  0.85973743  1
  O  O34  1  0.35380787  0.86660083  0.85973743  1
  O  O35  1  0.51279196  0.64619213  0.85973743  1
  O  O36  1  0.01325972  0.82956272  0.41116484  1
  O  O37  1  0.81630300  0.98674028  0.41116484  1
  O  O38  1  0.17043728  0.18369700  0.41116484  1
  O  O39  1  0.01325972  0.18369700  0.91116484  1
  O  O40  1  0.17043728  0.98674028  0.91116484  1
  O  O41  1  0.81630300  0.82956272  0.91116484  1
  O  O42  1  0.98674028  0.17043728  0.58883516  1
  O  O43  1  0.18369700  0.01325972  0.58883516  1
  O  O44  1  0.82956272  0.81630300  0.58883516  1
  O  O45  1  0.98674028  0.81630300  0.08883516  1
  O  O46  1  0.82956272  0.01325972  0.08883516  1
  O  O47  1  0.18369700  0.17043728  0.08883516  1
  O  O48  1  0.67992672  0.16289572  0.74449784  1
  O  O49  1  0.48297000  0.32007328  0.74449784  1
  O  O50  1  0.83710428  0.51703000  0.74449784  1
  O  O51  1  0.67992672  0.51703000  0.24449784  1
  O  O52  1  0.83710428  0.32007328  0.24449784  1
  O  O53  1  0.48297000  0.16289572  0.24449784  1
  O  O54  1  0.65340728  0.50377028  0.92216816  1
  O  O55  1  0.85036400  0.34659272  0.92216816  1
  O  O56  1  0.49622972  0.14963600  0.92216816  1
  O  O57  1  0.65340728  0.14963600  0.42216816  1
  O  O58  1  0.49622972  0.34659272  0.42216816  1
  O  O59  1  0.85036400  0.50377028  0.42216816  1
  O  O60  1  0.34659272  0.49622972  0.07783184  1
  O  O61  1  0.14963600  0.65340728  0.07783184  1
  O  O62  1  0.50377028  0.85036400  0.07783184  1
  O  O63  1  0.34659272  0.85036400  0.57783184  1
  O  O64  1  0.50377028  0.65340728  0.57783184  1
  O  O65  1  0.14963600  0.49622972  0.57783184  1
  O  O66  1  0.32007328  0.83710428  0.25550216  1
  O  O67  1  0.51703000  0.67992672  0.25550216  1
  O  O68  1  0.16289572  0.48297000  0.25550216  1
  O  O69  1  0.32007328  0.48297000  0.75550216  1
  O  O70  1  0.16289572  0.67992672  0.75550216  1
  O  O71  1  0.51703000  0.83710428  0.75550216  1
loop_
_geom_bond_atom_site_label_1
_geom_bond_atom_site_label_2
_geom_bond_distance
_geom_bond_site_symmetry_2
K0 O67 2.618628 1_545
K0 O52 2.618628 1_555
K0 O53 2.759528 1_555
K0 O66 2.759536 1_545
K0 O16 2.800191 1_555
K0 O31 2.800194 1_545
K0 O2 2.922746 1_555
K0 O9 2.922746 1_545
K1 O53 2.618636 1_555
K1 O68 2.618636 1_555
K1 O67 2.759536 1_555
K1 O51 2.759536 1_555
K1 O32 2.800195 1_555
K1 O17 2.800195 1_555
K1 O0 2.922746 1_555
K1 O10 2.922746 1_555
K2 O51 2.618628 1_555
K2 O66 2.618629 1_655
K2 O68 2.759528 1_655
K2 O52 2.759536 1_555
K2 O30 2.800191 1_655
K2 O15 2.800194 1_555
K2 O11 2.922746 1_655
K2 O1 2.922746 1_555
K3 O71 2.618636 1_555
K3 O50 2.618636 1_555
K3 O49 2.759536 1_555
K3 O69 2.759536 1_555
K3 O14 2.800195 1_555
K3 O35 2.800195 1_555
K3 O6 2.922746 1_555
K3 O4 2.922746 1_555
K4 O69 2.618628 1_555
K4 O48 2.618629 1_455
K4 O50 2.759528 1_455
K4 O70 2.759536 1_555
K4 O12 2.800191 1_455
K4 O33 2.800194 1_555
K4 O5 2.922746 1_455
K4 O7 2.922746 1_555
K5 O49 2.618628 1_555
K5 O70 2.618628 1_545
K5 O71 2.759528 1_545
K5 O48 2.759536 1_555
K5 O34 2.800191 1_545
K5 O13 2.800194 1_555
K5 O3 2.922746 1_555
K5 O8 2.922746 1_545
K6 O43 2.618628 1_555
K6 O64 2.618635 1_555
K6 O42 2.759536 1_455
K6 O65 2.759543 1_555
K6 O28 2.800178 1_555
K6 O7 2.800194 1_555
K6 O14 2.922746 1_555
K6 O21 2.922746 1_555
K7 O65 2.618619 1_555
K7 O44 2.618636 1_455
K7 O63 2.759527 1_555
K7 O43 2.759536 1_565
K7 O29 2.800169 1_555
K7 O8 2.800195 1_555
K7 O12 2.922746 1_455
K7 O22 2.922746 1_455
K8 O42 2.618629 1_565
K8 O63 2.618636 1_555
K8 O64 2.759527 1_555
K8 O44 2.759528 1_555
K8 O27 2.800173 1_555
K8 O6 2.800191 1_555
K8 O23 2.922746 1_565
K8 O13 2.922746 1_565
K9 O62 2.618619 1_555
K9 O47 2.618636 1_565
K9 O61 2.759527 1_555
K9 O45 2.759536 1_455
K9 O26 2.800169 1_554
K9 O11 2.800195 1_555
K9 O18 2.922746 1_565
K9 O16 2.922746 1_565
K10 O45 2.618628 1_555
K10 O60 2.618635 1_555
K10 O46 2.759536 1_565
K10 O62 2.759543 1_555
K10 O24 2.800178 1_554
K10 O9 2.800194 1_555
K10 O17 2.922746 1_555
K10 O19 2.922746 1_555
K11 O46 2.618628 1_455
K11 O61 2.618636 1_555
K11 O60 2.759527 1_555
K11 O47 2.759528 1_555
K11 O25 2.800173 1_554
K11 O10 2.800191 1_555
K11 O20 2.922746 1_455
K11 O15 2.922746 1_455
K12 O40 2.618628 1_655
K12 O55 2.618636 1_555
K12 O54 2.759527 1_555
K12 O41 2.759528 1_555
K12 O19 2.800173 1_556
K12 O4 2.800191 1_555
K12 O26 2.922746 1_655
K12 O33 2.922746 1_655
K13 O56 2.618619 1_555
K13 O41 2.618636 1_545
K13 O55 2.759527 1_555
K13 O39 2.759536 1_655
K13 O20 2.800169 1_556
K13 O5 2.800195 1_555
K13 O24 2.922746 1_545
K13 O34 2.922746 1_545
K14 O39 2.618628 1_555
K14 O54 2.618635 1_555
K14 O40 2.759536 1_545
K14 O56 2.759543 1_555
K14 O18 2.800178 1_556
K14 O3 2.800194 1_555
K14 O35 2.922746 1_555
K14 O25 2.922746 1_555
K15 O59 2.618619 1_555
K15 O38 2.618636 1_655
K15 O57 2.759527 1_555
K15 O37 2.759536 1_545
K15 O23 2.800169 1_555
K15 O2 2.800195 1_555
K15 O30 2.922746 1_655
K15 O28 2.922746 1_655
K16 O36 2.618629 1_545
K16 O57 2.618636 1_555
K16 O58 2.759527 1_555
K16 O38 2.759528 1_555
K16 O21 2.800173 1_555
K16 O0 2.800191 1_555
K16 O29 2.922746 1_545
K16 O31 2.922746 1_545
K17 O37 2.618628 1_555
K17 O58 2.618635 1_555
K17 O36 2.759536 1_655
K17 O59 2.759543 1_555
K17 O22 2.800178 1_555
K17 O1 2.800194 1_555
K17 O27 2.922746 1_555
K17 O32 2.922746 1_555
Na0 O38 2.606671 1_555
Na0 O44 2.606671 1_445
Na0 O42 2.606671 1_455
Na0 O36 2.606671 1_545
Na0 O43 2.606671 1_555
Na0 O37 2.606671 1_445
Na1 O45 2.606671 1_445
Na1 O39 2.606671 1_554
Na1 O47 2.606671 1_555
Na1 O41 2.606671 1_444
Na1 O46 2.606671 1_455
Na1 O40 2.606671 1_544
Na2 O56 2.606671 1_555
Na2 O50 2.606671 1_555
Na2 O48 2.606671 1_555
Na2 O54 2.606671 1_555
Na2 O55 2.606671 1_555
Na2 O49 2.606671 1_555
Na3 O51 2.606671 1_555
Na3 O57 2.606671 1_555
Na3 O53 2.606671 1_555
Na3 O59 2.606671 1_555
Na3 O52 2.606671 1_555
Na3 O58 2.606671 1_555
Na4 O68 2.606671 1_555
Na4 O62 2.606671 1_555
Na4 O66 2.606671 1_555
Na4 O60 2.606671 1_555
Na4 O67 2.606671 1_555
Na4 O61 2.606671 1_555
Na5 O69 2.606671 1_555
Na5 O63 2.606671 1_555
Na5 O65 2.606671 1_555
Na5 O71 2.606671 1_555
Na5 O64 2.606671 1_555
Na5 O70 2.606671 1_555
Hf0 O1 2.058303 1_445
Hf0 O2 2.058303 1_455
Hf0 O0 2.058303 1_555
Hf0 O38 2.140470 1_555
Hf0 O36 2.140470 1_545
Hf0 O37 2.140470 1_445
Hf1 O4 2.058303 1_445
Hf1 O3 2.058303 1_555
Hf1 O5 2.058303 1_455
Hf1 O39 2.140470 1_555
Hf1 O41 2.140470 1_445
Hf1 O40 2.140470 1_545
Hf2 O7 2.058303 1_555
Hf2 O8 2.058303 1_545
Hf2 O6 2.058303 1_445
Hf2 O44 2.140470 1_445
Hf2 O42 2.140470 1_455
Hf2 O43 2.140470 1_555
Hf3 O10 2.058303 1_555
Hf3 O9 2.058303 1_445
Hf3 O11 2.058303 1_545
Hf3 O45 2.140470 1_445
Hf3 O47 2.140470 1_555
Hf3 O46 2.140470 1_455
Hf4 O13 2.058303 1_555
Hf4 O14 2.058303 1_555
Hf4 O12 2.058303 1_555
Hf4 O50 2.140470 1_555
Hf4 O48 2.140470 1_555
Hf4 O49 2.140470 1_555
Hf5 O16 2.058303 1_555
Hf5 O15 2.058303 1_555
Hf5 O17 2.058303 1_555
Hf5 O51 2.140470 1_555
Hf5 O53 2.140470 1_555
Hf5 O52 2.140470 1_555
Hf6 O19 2.058303 1_556
Hf6 O20 2.058303 1_556
Hf6 O18 2.058303 1_556
Hf6 O56 2.140470 1_555
Hf6 O54 2.140470 1_555
Hf6 O55 2.140470 1_555
Hf7 O22 2.058303 1_555
Hf7 O21 2.058303 1_555
Hf7 O23 2.058303 1_555
Hf7 O57 2.140470 1_555
Hf7 O59 2.140470 1_555
Hf7 O58 2.140470 1_555
Hf8 O25 2.058303 1_554
Hf8 O26 2.058303 1_554
Hf8 O24 2.058303 1_554
Hf8 O62 2.140470 1_555
Hf8 O60 2.140470 1_555
Hf8 O61 2.140470 1_555
Hf9 O28 2.058303 1_555
Hf9 O27 2.058303 1_555
Hf9 O29 2.058303 1_555
Hf9 O63 2.140470 1_555
Hf9 O65 2.140470 1_555
Hf9 O64 2.140470 1_555
Hf10 O31 2.058303 1_555
Hf10 O32 2.058303 1_555
Hf10 O30 2.058303 1_555
Hf10 O68 2.140470 1_555
Hf10 O66 2.140470 1_555
Hf10 O67 2.140470 1_555
Hf11 O34 2.058303 1_555
Hf11 O33 2.058303 1_555
Hf11 O35 2.058303 1_555
Hf11 O69 2.140470 1_555
Hf11 O71 2.140470 1_555
Hf11 O70 2.140470 1_555
O0 Si0 1.649714 1_555
O1 Si1 1.649714 1_555
O2 Si2 1.649714 1_655
O3 Si3 1.649714 1_555
O4 Si4 1.649714 1_555
O5 Si5 1.649714 1_555
O6 Si5 1.649714 1_565
O7 Si3 1.649714 1_555
O8 Si4 1.649714 1_455
O9 Si1 1.649714 1_555
O10 Si2 1.649714 1_555
O11 Si0 1.649714 1_565
O12 Si6 1.649714 1_555
O13 Si7 1.649714 1_555
O14 Si8 1.649714 1_555
O15 Si9 1.649714 1_555
O16 Si10 1.649714 1_555
O17 Si11 1.649714 1_555
O18 Si11 1.649714 1_555
O19 Si9 1.649714 1_555
O20 Si10 1.649714 1_555
O21 Si7 1.649714 1_555
O22 Si8 1.649714 1_555
O23 Si6 1.649714 1_555
O24 Si12 1.649714 1_555
O25 Si13 1.649714 1_555
O26 Si14 1.649714 1_555
O27 Si15 1.649714 1_555
O28 Si16 1.649714 1_555
O29 Si17 1.649714 1_555
O30 Si17 1.649714 1_555
O31 Si15 1.649714 1_555
O32 Si16 1.649714 1_555
O33 Si13 1.649714 1_555
O34 Si14 1.649714 1_555
O35 Si12 1.649714 1_555
O36 Si17 1.649221 1_555
O37 Si15 1.649231 1_555
O38 Si16 1.649227 1_555
O39 Si13 1.649231 1_555
O40 Si14 1.649221 1_555
O41 Si12 1.649227 1_555
O42 Si6 1.649221 1_555
O43 Si7 1.649231 1_555
O44 Si8 1.649227 1_555
O45 Si9 1.649231 1_555
O46 Si10 1.649221 1_555
O47 Si11 1.649227 1_555
O48 Si5 1.649221 1_555
O49 Si3 1.649231 1_555
O50 Si4 1.649227 1_555
O51 Si1 1.649231 1_555
O52 Si2 1.649221 1_655
O53 Si0 1.649227 1_555
O54 Si12 1.649234 1_555
O55 Si13 1.649216 1_655
O56 Si14 1.649223 1_545
O57 Si15 1.649216 1_545
O58 Si16 1.649235 1_555
O59 Si17 1.649223 1_655
O60 Si11 1.649234 1_555
O61 Si9 1.649216 1_455
O62 Si10 1.649223 1_565
O63 Si7 1.649216 1_565
O64 Si8 1.649235 1_555
O65 Si6 1.649223 1_455
O66 Si0 1.649221 1_565
O67 Si1 1.649231 1_555
O68 Si2 1.649227 1_555
O69 Si3 1.649231 1_555
O70 Si4 1.649221 1_455
O71 Si5 1.649227 1_565
