# generated using pymatgen
data_U2SnPd2
_symmetry_space_group_name_H-M   'P 1'
_cell_length_a   7.66803600
_cell_length_b   7.66803600
_cell_length_c   3.78990600
_cell_angle_alpha   90.00000000
_cell_angle_beta   90.00000000
_cell_angle_gamma   90.00000000
_symmetry_Int_Tables_number   1
_chemical_formula_structural   U2SnPd2
_chemical_formula_sum   'U4 Sn2 Pd4'
_cell_volume   222.84183432
_cell_formula_units_Z   2
loop_
 _symmetry_equiv_pos_site_id
 _symmetry_equiv_pos_as_xyz
  1  'x, y, z'
loop_
 _atom_site_type_symbol
 _atom_site_label
 _atom_site_symmetry_multiplicity
 _atom_site_fract_x
 _atom_site_fract_y
 _atom_site_fract_z
 _atom_site_occupancy
  U  U0  1  0.32744000  0.82744000  0.50000000  1
  U  U1  1  0.82744000  0.67256000  0.50000000  1
  U  U2  1  0.17256000  0.32744000  0.50000000  1
  U  U3  1  0.67256000  0.17256000  0.50000000  1
  Sn  Sn0  1  0.00000000  0.00000000  0.00000000  1
  Sn  Sn1  1  0.50000000  0.50000000  0.00000000  1
  Pd  Pd0  1  0.36983700  0.13016300  0.00000000  1
  Pd  Pd1  1  0.86983700  0.36983700  0.00000000  1
  Pd  Pd2  1  0.13016300  0.63016300  0.00000000  1
  Pd  Pd3  1  0.63016300  0.86983700  0.00000000  1
loop_
_geom_bond_atom_site_label_1
_geom_bond_atom_site_label_2
_geom_bond_distance
_geom_bond_site_symmetry_2
Sn0 U1 3.412612 1_444
Sn0 U1 3.412612 1_445
Sn0 U3 3.412612 1_455
Sn0 U2 3.412612 1_555
Sn0 U3 3.412612 1_454
Sn0 U2 3.412612 1_554
Sn0 U0 3.412612 1_545
Sn0 U0 3.412612 1_544
Sn1 U0 3.412612 1_554
Sn1 U3 3.412612 1_554
Sn1 U2 3.412612 1_555
Sn1 U3 3.412612 1_555
Sn1 U2 3.412612 1_554
Sn1 U1 3.412612 1_554
Sn1 U0 3.412612 1_555
Sn1 U1 3.412612 1_555
Pd0 Pd3 2.823038 1_545
Pd0 U2 2.857890 1_554
Pd0 U2 2.857890 1_555
Pd0 Sn1 3.006436 1_555
Pd0 Sn0 3.006436 1_555
Pd0 U3 3.014122 1_555
Pd0 U3 3.014122 1_554
Pd0 U0 3.014122 1_544
Pd0 U0 3.014122 1_545
Pd1 Pd2 2.823038 1_655
Pd1 U3 2.857890 1_555
Pd1 U3 2.857890 1_554
Pd1 Sn1 3.006436 1_555
Pd1 Sn0 3.006436 1_655
Pd1 U1 3.014122 1_554
Pd1 U1 3.014122 1_555
Pd1 U2 3.014122 1_655
Pd1 U2 3.014122 1_654
Pd2 U0 2.857890 1_555
Pd2 U0 2.857890 1_554
Pd2 Sn0 3.006436 1_565
Pd2 Sn1 3.006436 1_555
Pd2 U2 3.014122 1_555
Pd2 U2 3.014122 1_554
Pd2 U1 3.014122 1_455
Pd2 U1 3.014122 1_454
Pd3 U1 2.857890 1_554
Pd3 U1 2.857890 1_555
Pd3 Sn0 3.006436 1_665
Pd3 Sn1 3.006436 1_555
Pd3 U0 3.014122 1_555
Pd3 U0 3.014122 1_554
Pd3 U3 3.014122 1_564
Pd3 U3 3.014122 1_565
