# generated using pymatgen
data_Na7Ca2Mg2P3(SO8)3
_symmetry_space_group_name_H-M   'P 1'
_cell_length_a   9.20676812
_cell_length_b   9.23844900
_cell_length_c   22.34044876
_cell_angle_alpha   89.87892629
_cell_angle_beta   89.91518856
_cell_angle_gamma   119.89827564
_symmetry_Int_Tables_number   1
_chemical_formula_structural   Na7Ca2Mg2P3(SO8)3
_chemical_formula_sum   'Na21 Ca6 Mg6 P9 S9 O72'
_cell_volume   1647.29063368
_cell_formula_units_Z   3
loop_
 _symmetry_equiv_pos_site_id
 _symmetry_equiv_pos_as_xyz
  1  'x, y, z'
loop_
 _atom_site_type_symbol
 _atom_site_label
 _atom_site_symmetry_multiplicity
 _atom_site_fract_x
 _atom_site_fract_y
 _atom_site_fract_z
 _atom_site_occupancy
  Na  Na0  1  0.63544702  0.00782391  0.25637157  1
  Na  Na1  1  0.35341543  0.35172755  0.24387005  1
  Na  Na2  1  0.00925195  0.63386422  0.25140339  1
  Na  Na3  1  0.64453881  0.65175070  0.73995712  1
  Na  Na4  1  0.98914680  0.34881640  0.75911225  1
  Na  Na5  1  0.02175624  0.69323293  0.57199766  1
  Na  Na6  1  0.66963468  0.96058142  0.58110552  1
  Na  Na7  1  0.29924260  0.97195380  0.08242987  1
  Na  Na8  1  0.04080294  0.32861694  0.08599756  1
  Na  Na9  1  0.98645677  0.66252742  0.92124911  1
  Na  Na10  1  0.68637748  0.03284633  0.91135420  1
  Na  Na11  1  0.32767094  0.30190800  0.92794211  1
  Na  Na12  1  0.96561547  0.30561170  0.40569684  1
  Na  Na13  1  0.33000001  0.01473541  0.40954309  1
  Na  Na14  1  0.70317716  0.67838019  0.42161669  1
  Na  Na15  1  0.99481863  0.99406563  0.49409013  1
  Na  Na16  1  0.00440651  0.00306960  0.00351008  1
  Na  Na17  1  0.64542422  0.29526883  0.83556476  1
  Na  Na18  1  0.67276148  0.32579755  0.33270775  1
  Na  Na19  1  0.34234365  0.65473984  0.16990461  1
  Na  Na20  1  0.35456183  0.67517788  0.66618120  1
  Ca  Ca0  1  0.00528929  0.00367144  0.84853327  1
  Ca  Ca1  1  0.00581447  0.00475987  0.64754285  1
  Ca  Ca2  1  0.65438299  0.32720602  0.68037159  1
  Ca  Ca3  1  0.33810734  0.66423398  0.02066264  1
  Ca  Ca4  1  0.33896473  0.66373933  0.50979834  1
  Ca  Ca5  1  0.33364063  0.67865041  0.82219997  1
  Mg  Mg0  1  0.00038397  0.00131881  0.34588644  1
  Mg  Mg1  1  0.01018904  0.00691212  0.15312335  1
  Mg  Mg2  1  0.65995061  0.33088835  0.18576400  1
  Mg  Mg3  1  0.66136233  0.33439648  0.98834167  1
  Mg  Mg4  1  0.66506603  0.33804184  0.47973471  1
  Mg  Mg5  1  0.32673875  0.67261684  0.31708082  1
  P  P0  1  0.29936815  0.99823071  0.25019447  1
  P  P1  1  0.00251398  0.30236967  0.24902977  1
  P  P2  1  0.68912194  0.99776183  0.74912134  1
  P  P3  1  0.66886320  0.63736893  0.58092444  1
  P  P4  1  0.36465405  0.32513234  0.08831808  1
  P  P5  1  0.01397641  0.35649258  0.92026798  1
  P  P6  1  0.34057125  0.98346834  0.92608281  1
  P  P7  1  0.64371301  0.97528577  0.41347556  1
  P  P8  1  0.02390415  0.66803585  0.41499498  1
  S  S0  1  0.70725533  0.70713317  0.24993031  1
  S  S1  1  0.31057170  0.31642446  0.75320571  1
  S  S2  1  0.00023412  0.68701610  0.74892823  1
  S  S3  1  0.96257391  0.33412975  0.57965308  1
  S  S4  1  0.36578702  0.03073620  0.57517092  1
  S  S5  1  0.95363982  0.62971487  0.08687735  1
  S  S6  1  0.67572961  0.04607135  0.08758977  1
  S  S7  1  0.64159993  0.65693819  0.91655222  1
  S  S8  1  0.33119972  0.35873117  0.41046422  1
  O  O0  1  0.21213009  0.02170064  0.30570397  1
  O  O1  1  0.80149361  0.78082818  0.30601239  1
  O  O2  1  0.97424354  0.19121153  0.30485587  1
  O  O3  1  0.23405857  0.23301703  0.81064717  1
  O  O4  1  0.00199901  0.77680203  0.80401617  1
  O  O5  1  0.78692417  0.00336308  0.80661940  1
  O  O6  1  0.78573559  0.99377194  0.69242682  1
  O  O7  1  0.21264625  0.21560061  0.70188176  1
  O  O8  1  0.00910443  0.78324192  0.69477376  1
  O  O9  1  0.79574386  0.81712505  0.19859611  1
  O  O10  1  0.02750342  0.21885025  0.19278341  1
  O  O11  1  0.19075748  0.97118965  0.19378942  1
  O  O12  1  0.88512946  0.34056926  0.63697640  1
  O  O13  1  0.45708651  0.11413208  0.62971663  1
  O  O14  1  0.67114935  0.55856070  0.64161524  1
  O  O15  1  0.86238023  0.52828068  0.13979180  1
  O  O16  1  0.66533065  0.13511322  0.14123183  1
  O  O17  1  0.46406910  0.33208522  0.14490076  1
  O  O18  1  0.45428738  0.31669212  0.03075024  1
  O  O19  1  0.86474946  0.54808423  0.03074042  1
  O  O20  1  0.69034415  0.14365429  0.03258492  1
  O  O21  1  0.45765776  0.12427465  0.52078703  1
  O  O22  1  0.66759507  0.53086428  0.52692889  1
  O  O23  1  0.85645291  0.32556983  0.52804674  1
  O  O24  1  0.55350096  0.68585881  0.96611731  1
  O  O25  1  0.13023095  0.44774081  0.97379879  1
  O  O26  1  0.31721797  0.88278889  0.98421455  1
  O  O27  1  0.57545001  0.87298947  0.47183327  1
  O  O28  1  0.30039897  0.43029236  0.46438646  1
  O  O29  1  0.12540653  0.69804354  0.47326974  1
  O  O30  1  0.11586553  0.63918518  0.36175197  1
  O  O31  1  0.52443246  0.88094269  0.36027963  1
  O  O32  1  0.35559811  0.46691330  0.35748012  1
  O  O33  1  0.09190280  0.45470504  0.86130971  1
  O  O34  1  0.37122777  0.89709630  0.87249173  1
  O  O35  1  0.55022949  0.63519780  0.85967164  1
  O  O36  1  0.00391283  0.82530279  0.40677491  1
  O  O37  1  0.82305832  0.00007567  0.40527795  1
  O  O38  1  0.18313671  0.18766991  0.40455605  1
  O  O39  1  0.98861749  0.17652715  0.91951711  1
  O  O40  1  0.17891159  0.99638071  0.91972349  1
  O  O41  1  0.81557412  0.80249877  0.91500978  1
  O  O42  1  0.97864092  0.18140393  0.57666698  1
  O  O43  1  0.19470857  0.01052275  0.57379901  1
  O  O44  1  0.83444249  0.81254333  0.57430241  1
  O  O45  1  0.97609646  0.80113675  0.08866461  1
  O  O46  1  0.82805074  0.02780248  0.08965768  1
  O  O47  1  0.18594447  0.16087441  0.08767772  1
  O  O48  1  0.67645629  0.15882989  0.75106701  1
  O  O49  1  0.48566513  0.34861896  0.75271711  1
  O  O50  1  0.84079297  0.52228628  0.75090995  1
  O  O51  1  0.69028271  0.53735305  0.24446975  1
  O  O52  1  0.84545556  0.32703280  0.24479154  1
  O  O53  1  0.47948814  0.15771333  0.24727616  1
  O  O54  1  0.65255467  0.50316492  0.92549530  1
  O  O55  1  0.84037709  0.34598285  0.92634328  1
  O  O56  1  0.49596922  0.16213890  0.92739849  1
  O  O57  1  0.65651832  0.15116556  0.41685271  1
  O  O58  1  0.48568392  0.34396053  0.41574175  1
  O  O59  1  0.84548563  0.50864012  0.41847446  1
  O  O60  1  0.33435934  0.47699267  0.08918313  1
  O  O61  1  0.12462873  0.64461713  0.08797145  1
  O  O62  1  0.52057813  0.87895717  0.08718613  1
  O  O63  1  0.34721978  0.86003496  0.57680969  1
  O  O64  1  0.51679249  0.66660627  0.58170201  1
  O  O65  1  0.12891949  0.48823989  0.57705638  1
  O  O66  1  0.32192658  0.84087949  0.25536554  1
  O  O67  1  0.53460937  0.68623652  0.25271963  1
  O  O68  1  0.16418619  0.47958757  0.25468745  1
  O  O69  1  0.31505397  0.48033116  0.74902543  1
  O  O70  1  0.14310266  0.65491010  0.74702222  1
  O  O71  1  0.51741326  0.83470555  0.74723118  1
loop_
_geom_bond_atom_site_label_1
_geom_bond_atom_site_label_2
_geom_bond_distance
_geom_bond_site_symmetry_2
Na0 O53 2.449987 1_555
Na0 O66 2.504657 1_545
Na0 O31 2.567965 1_545
Na0 O52 2.610149 1_555
Na0 O67 2.635666 1_545
Na0 O16 2.781678 1_555
Na0 O2 2.919337 1_555
Na1 O17 2.477647 1_555
Na1 O68 2.557436 1_555
Na1 O53 2.576719 1_555
Na1 O67 2.690040 1_555
Na1 O51 2.694067 1_555
Na1 O32 2.750453 1_555
Na1 O10 2.856049 1_555
Na1 O0 2.986535 1_555
Na2 O52 2.464152 1_455
Na2 O68 2.469459 1_555
Na2 O66 2.542713 1_555
Na2 O51 2.614314 1_455
Na2 O30 2.646291 1_555
Na2 O15 2.775353 1_455
Na3 O14 2.417585 1_555
Na3 O49 2.444406 1_555
Na3 O71 2.495173 1_555
Na3 O50 2.628632 1_555
Na3 O69 2.637930 1_555
Na3 O35 2.790905 1_555
Na3 O6 2.947581 1_555
Na4 O70 2.465443 1_655
Na4 O33 2.481512 1_655
Na4 O48 2.523158 1_555
Na4 O50 2.578592 1_555
Na4 O69 2.625397 1_655
Na4 O12 2.881647 1_555
Na4 O5 2.972267 1_555
Na5 O29 2.393427 1_555
Na5 O44 2.467121 1_455
Na5 O65 2.536714 1_555
Na5 O43 2.544987 1_565
Na5 O63 2.600646 1_555
Na5 O8 2.886805 1_555
Na6 O64 2.355023 1_555
Na6 O44 2.502976 1_555
Na6 O42 2.545134 1_565
Na6 O27 2.584810 1_555
Na6 O63 2.633595 1_555
Na6 O6 2.665699 1_555
Na7 O26 2.379667 1_554
Na7 O47 2.442025 1_565
Na7 O62 2.578296 1_555
Na7 O45 2.584268 1_455
Na7 O61 2.626035 1_555
Na7 O11 2.678142 1_555
Na8 O60 2.344416 1_555
Na8 O46 2.477579 1_455
Na8 O47 2.500584 1_555
Na8 O10 2.569000 1_555
Na8 O61 2.621966 1_555
Na8 O25 2.692740 1_554
Na9 O41 2.488945 1_555
Na9 O55 2.539872 1_555
Na9 O54 2.667117 1_555
Na9 O19 2.675191 1_556
Na9 O40 2.684167 1_655
Na9 O4 2.798388 1_655
Na9 O33 2.878723 1_655
Na10 O39 2.420456 1_555
Na10 O55 2.531345 1_555
Na10 O5 2.579447 1_555
Na10 O56 2.591493 1_555
Na10 O34 2.670163 1_545
Na10 O20 2.891224 1_556
Na10 O41 2.910877 1_545
Na11 O40 2.454705 1_545
Na11 O56 2.462315 1_555
Na11 O18 2.550157 1_556
Na11 O54 2.619471 1_555
Na11 O3 2.735211 1_555
Na11 O39 2.742156 1_455
Na11 O25 2.934420 1_555
Na12 O37 2.448886 1_555
Na12 O57 2.478889 1_555
Na12 O2 2.508344 1_555
Na12 O59 2.625322 1_555
Na12 O38 2.715495 1_655
Na12 O30 2.847388 1_655
Na12 O23 2.948566 1_555
Na12 O28 3.004204 1_655
Na13 O38 2.558602 1_555
Na13 O0 2.576775 1_555
Na13 O36 2.615898 1_545
Na13 O57 2.622475 1_555
Na13 O58 2.642116 1_555
Na13 O21 2.723127 1_555
Na13 O31 2.854682 1_545
Na13 O29 2.935184 1_545
Na14 O36 2.422255 1_655
Na14 O59 2.495806 1_555
Na14 O37 2.628330 1_565
Na14 O22 2.653108 1_555
Na14 O58 2.721588 1_555
Na14 O1 2.741148 1_555
Na14 O27 2.825985 1_555
Na15 O44 2.390521 1_555
Na15 O43 2.512545 1_665
Na15 O36 2.526938 1_655
Na15 O37 2.556716 1_565
Na15 O42 2.586606 1_565
Na15 O38 2.662549 1_665
Na16 O47 2.458926 1_555
Na16 O40 2.485836 1_544
Na16 O39 2.516034 1_454
Na16 O45 2.581874 1_445
Na16 O46 2.599030 1_455
Na16 O41 2.679399 1_444
Na17 O48 2.366729 1_555
Na17 O56 2.430838 1_555
Na17 O49 2.561044 1_555
Na17 O55 2.594318 1_555
Na17 O50 2.724533 1_555
Na17 O54 2.760542 1_555
Na18 O57 2.429980 1_555
Na18 O52 2.521566 1_555
Na18 O59 2.529478 1_555
Na18 O53 2.547205 1_555
Na18 O58 2.591489 1_555
Na18 O51 2.720344 1_555
Na19 O60 2.417970 1_555
Na19 O67 2.477807 1_555
Na19 O68 2.495641 1_555
Na19 O66 2.640597 1_555
Na19 O62 2.642860 1_555
Na19 O61 2.683604 1_555
Na20 O71 2.348420 1_555
Na20 O64 2.430902 1_555
Na20 O69 2.475713 1_555
Na20 O70 2.590710 1_555
Na20 O63 2.647378 1_555
Na20 O65 2.777195 1_555
Ca0 O5 2.217778 1_455
Ca0 O3 2.275978 1_555
Ca0 O40 2.281138 1_545
Ca0 O4 2.308355 1_545
Ca0 O39 2.311461 1_455
Ca0 O41 2.335581 1_445
Ca1 O6 2.215811 1_445
Ca1 O7 2.283204 1_555
Ca1 O8 2.314116 1_545
Ca1 O44 2.355159 1_445
Ca1 O42 2.372797 1_455
Ca1 O43 2.374936 1_555
Ca2 O13 2.214928 1_555
Ca2 O14 2.237111 1_555
Ca2 O12 2.280404 1_555
Ca2 O48 2.293710 1_555
Ca2 O49 2.316135 1_555
Ca2 O50 2.369244 1_555
Ca3 O25 2.226650 1_554
Ca3 O24 2.248172 1_554
Ca3 O26 2.271004 1_554
Ca3 O60 2.294754 1_555
Ca3 O62 2.379835 1_555
Ca3 O61 2.406651 1_555
Ca4 O27 2.233493 1_555
Ca4 O28 2.248006 1_555
Ca4 O64 2.286114 1_555
Ca4 O29 2.292842 1_555
Ca4 O63 2.325951 1_555
Ca4 O65 2.341270 1_555
Ca5 O34 2.183881 1_555
Ca5 O71 2.301284 1_555
Ca5 O33 2.322357 1_555
Ca5 O70 2.360701 1_555
Ca5 O35 2.374840 1_555
Ca5 O69 2.399884 1_555
Mg0 O0 2.066398 1_555
Mg0 O2 2.095361 1_455
Mg0 O37 2.097813 1_455
Mg0 O36 2.130518 1_545
Mg0 O1 2.142404 1_445
Mg0 O38 2.154331 1_555
Mg1 O11 2.061113 1_545
Mg1 O10 2.083440 1_555
Mg1 O47 2.113978 1_555
Mg1 O9 2.130667 1_445
Mg1 O46 2.277736 1_455
Mg1 O45 2.281281 1_445
Mg2 O17 2.027463 1_555
Mg2 O16 2.088117 1_555
Mg2 O15 2.109971 1_555
Mg2 O53 2.131318 1_555
Mg2 O52 2.173542 1_555
Mg2 O51 2.217410 1_555
Mg3 O18 2.059662 1_556
Mg3 O56 2.074708 1_555
Mg3 O55 2.112584 1_555
Mg3 O54 2.127426 1_555
Mg3 O20 2.148382 1_556
Mg3 O19 2.151444 1_556
Mg4 O22 2.062074 1_555
Mg4 O59 2.119062 1_555
Mg4 O23 2.119088 1_555
Mg4 O21 2.148325 1_555
Mg4 O57 2.198963 1_555
Mg4 O58 2.207051 1_555
Mg5 O30 2.062956 1_555
Mg5 O66 2.092633 1_555
Mg5 O31 2.114035 1_555
Mg5 O68 2.172299 1_555
Mg5 O32 2.234606 1_555
Mg5 O67 2.344565 1_555
O0 P0 1.549768 1_545
O1 S0 1.484587 1_555
O2 P1 1.550789 1_655
O3 S1 1.479450 1_555
O4 S2 1.481161 1_555
O5 P2 1.555876 1_545
O6 P2 1.557673 1_555
O7 S1 1.471571 1_555
O8 S2 1.477646 1_555
O9 S0 1.475979 1_555
O10 P1 1.551601 1_555
O11 P0 1.551202 1_555
O12 S3 1.480487 1_555
O13 S4 1.465079 1_555
O14 P3 1.542747 1_555
O15 S5 1.479519 1_555
O16 S6 1.484697 1_555
O17 P4 1.544327 1_555
O18 P4 1.550017 1_555
O19 S5 1.484275 1_555
O20 S6 1.488209 1_555
O21 S4 1.483968 1_555
O22 P3 1.554670 1_555
O23 S3 1.488871 1_555
O24 S7 1.473107 1_555
O25 P5 1.547569 1_555
O26 P6 1.546819 1_555
O27 P7 1.545348 1_555
O28 S8 1.468984 1_555
O29 P8 1.546583 1_555
O30 P8 1.557582 1_555
O31 P7 1.559501 1_555
O32 S8 1.490251 1_555
O33 P5 1.554371 1_555
O34 P6 1.541864 1_555
O35 S7 1.482761 1_555
O36 P8 1.563359 1_555
O37 P7 1.560242 1_545
O38 S8 1.492285 1_555
O39 P5 1.559546 1_655
O40 P6 1.557945 1_555
O41 S7 1.492462 1_555
O42 S3 1.491829 1_555
O43 S4 1.491183 1_555
O44 P3 1.582305 1_555
O45 S5 1.492055 1_555
O46 S6 1.494464 1_555
O47 P4 1.587821 1_555
O48 P2 1.550139 1_545
O49 S1 1.486342 1_555
O50 S2 1.498413 1_655
O51 S0 1.502008 1_555
O52 P1 1.574982 1_655
O53 P0 1.577522 1_545
O54 S7 1.486597 1_555
O55 P5 1.557874 1_655
O56 P6 1.555126 1_545
O57 P7 1.571407 1_545
O58 S8 1.499792 1_555
O59 P8 1.568592 1_655
O60 P4 1.560977 1_555
O61 S5 1.510593 1_455
O62 S6 1.491854 1_565
O63 S4 1.499508 1_565
O64 P3 1.552559 1_555
O65 S3 1.483758 1_455
O66 P0 1.571629 1_555
O67 S0 1.503808 1_555
O68 P1 1.576069 1_555
O69 S1 1.496814 1_555
O70 S2 1.486200 1_555
O71 P2 1.548078 1_555
