# generated using pymatgen
data_Na6Mg3ZrP4(SO12)2
_symmetry_space_group_name_H-M   'P 1'
_cell_length_a   9.01325517
_cell_length_b   9.00029323
_cell_length_c   22.23467930
_cell_angle_alpha   89.98353958
_cell_angle_beta   89.95112589
_cell_angle_gamma   120.03301761
_symmetry_Int_Tables_number   1
_chemical_formula_structural   Na6Mg3ZrP4(SO12)2
_chemical_formula_sum   'Na18 Mg9 Zr3 P12 S6 O72'
_cell_volume   1561.54653852
_cell_formula_units_Z   3
loop_
 _symmetry_equiv_pos_site_id
 _symmetry_equiv_pos_as_xyz
  1  'x, y, z'
loop_
 _atom_site_type_symbol
 _atom_site_label
 _atom_site_symmetry_multiplicity
 _atom_site_fract_x
 _atom_site_fract_y
 _atom_site_fract_z
 _atom_site_occupancy
  Na  Na0  1  0.36418749  0.36542103  0.25354001  1
  Na  Na1  1  0.63832092  0.63559219  0.74360239  1
  Na  Na2  1  0.99566890  0.34653348  0.74762697  1
  Na  Na3  1  0.29812385  0.34157153  0.58481499  1
  Na  Na4  1  0.02666223  0.69193399  0.57914496  1
  Na  Na5  1  0.67495062  0.96337870  0.58146313  1
  Na  Na6  1  0.29122539  0.96458227  0.07957379  1
  Na  Na7  1  0.66339936  0.69142254  0.08261731  1
  Na  Na8  1  0.04326208  0.34243668  0.08317733  1
  Na  Na9  1  0.32289660  0.29643532  0.90983443  1
  Na  Na10  1  0.98018868  0.30551759  0.41064493  1
  Na  Na11  1  0.69451188  0.67591288  0.41061051  1
  Na  Na12  1  0.00654045  0.00012831  0.49296065  1
  Na  Na13  1  0.99248801  0.98532872  0.99125625  1
  Na  Na14  1  0.65186924  0.30181175  0.82808112  1
  Na  Na15  1  0.66540697  0.31436542  0.32783216  1
  Na  Na16  1  0.32317892  0.67203461  0.17110400  1
  Na  Na17  1  0.33953171  0.66949675  0.66351051  1
  Mg  Mg0  1  0.00530292  0.99735108  0.35178105  1
  Mg  Mg1  1  0.99684701  0.00318442  0.85185789  1
  Mg  Mg2  1  0.99504954  0.00570835  0.65172098  1
  Mg  Mg3  1  0.00423893  0.99580331  0.15174389  1
  Mg  Mg4  1  0.66104981  0.32782318  0.68551124  1
  Mg  Mg5  1  0.67345469  0.34102624  0.18463923  1
  Mg  Mg6  1  0.32905431  0.66468674  0.01482854  1
  Mg  Mg7  1  0.33293477  0.66451188  0.51177602  1
  Mg  Mg8  1  0.33374508  0.67639134  0.31999572  1
  Zr  Zr0  1  0.67182601  0.34215590  0.97839987  1
  Zr  Zr1  1  0.66777064  0.33372826  0.47868531  1
  Zr  Zr2  1  0.33682883  0.67504046  0.81708079  1
  P  P0  1  0.29839374  0.29367875  0.75035371  1
  P  P1  1  0.70758281  0.00347500  0.74786305  1
  P  P2  1  0.96612262  0.33579501  0.58650422  1
  P  P3  1  0.66719135  0.63171554  0.58633173  1
  P  P4  1  0.96500872  0.62994924  0.08676641  1
  P  P5  1  0.36939515  0.33414214  0.08692213  1
  P  P6  1  0.63471820  0.67708061  0.91960080  1
  P  P7  1  0.03772204  0.36666297  0.91832536  1
  P  P8  1  0.32608736  0.96229755  0.92174538  1
  P  P9  1  0.62971241  0.95797518  0.41725846  1
  P  P10  1  0.32899934  0.37021577  0.41487782  1
  P  P11  1  0.04503315  0.67420034  0.41814194  1
  S  S0  1  0.29789218  -0.00082731  0.24848064  1
  S  S1  1  0.70099210  0.70283214  0.24967666  1
  S  S2  1  0.99852173  0.29527987  0.24955745  1
  S  S3  1  0.99964706  0.70827852  0.74823575  1
  S  S4  1  0.36970298  0.03588906  0.58571628  1
  S  S5  1  0.66682352  0.03937389  0.08640095  1
  O  O0  1  0.20643956  0.02333249  0.29934777  1
  O  O1  1  0.80145773  0.78960113  0.30403288  1
  O  O2  1  0.98382503  0.19447881  0.30435511  1
  O  O3  1  0.21243593  0.19381161  0.80770360  1
  O  O4  1  0.98390564  0.79667263  0.80083125  1
  O  O5  1  0.82248437  0.02359471  0.80104632  1
  O  O6  1  0.77490672  0.96539149  0.68906145  1
  O  O7  1  0.18960974  0.21333140  0.69323437  1
  O  O8  1  0.02042406  0.80339744  0.69174006  1
  O  O9  1  0.78709496  0.80135555  0.19439831  1
  O  O10  1  0.01772869  0.20875806  0.19494051  1
  O  O11  1  0.20367047  0.98167600  0.19116600  1
  O  O12  1  0.87780792  0.35770457  0.64197188  1
  O  O13  1  0.47747142  0.12016590  0.63825068  1
  O  O14  1  0.64240207  0.51963909  0.64164473  1
  O  O15  1  0.87761012  0.50998731  0.13971077  1
  O  O16  1  0.64131618  0.12324146  0.13902258  1
  O  O17  1  0.48099905  0.35743157  0.14214673  1
  O  O18  1  0.45964960  0.30763827  0.03010344  1
  O  O19  1  0.84978638  0.53932772  0.02965869  1
  O  O20  1  0.69304945  0.14685848  0.03152953  1
  O  O21  1  0.45159601  0.14283235  0.53082822  1
  O  O22  1  0.68387769  0.53639632  0.52932152  1
  O  O23  1  0.84950427  0.31130704  0.53005022  1
  O  O24  1  0.54743552  0.68968569  0.97682428  1
  O  O25  1  0.14426527  0.45562457  0.97431326  1
  O  O26  1  0.31563052  0.86621422  0.97950831  1
  O  O27  1  0.55275029  0.85953616  0.47651038  1
  O  O28  1  0.30593550  0.45211469  0.47255838  1
  O  O29  1  0.13683633  0.69198446  0.47824969  1
  O  O30  1  0.12606995  0.63322785  0.36537645  1
  O  O31  1  0.51895547  0.87234504  0.36288189  1
  O  O32  1  0.36506344  0.48355576  0.35878415  1
  O  O33  1  0.12430906  0.47837934  0.86070990  1
  O  O34  1  0.34874603  0.86825265  0.86631800  1
  O  O35  1  0.51561205  0.64556525  0.86330037  1
  O  O36  1  0.00696715  0.82153376  0.41027241  1
  O  O37  1  0.81367252  0.98416312  0.41144470  1
  O  O38  1  0.16939407  0.19125410  0.40880962  1
  O  O39  1  0.02404692  0.19144014  0.91252709  1
  O  O40  1  0.17323351  0.98905666  0.91369525  1
  O  O41  1  0.81271641  0.82606615  0.91071538  1
  O  O42  1  0.98464357  0.17339651  0.58720085  1
  O  O43  1  0.19712650  0.01835033  0.58954714  1
  O  O44  1  0.83510543  0.80819241  0.58720374  1
  O  O45  1  0.97415094  0.80674676  0.08984636  1
  O  O46  1  0.82236659  0.02223072  0.09094400  1
  O  O47  1  0.18799121  0.17202800  0.08946835  1
  O  O48  1  0.69081487  0.16556455  0.74376510  1
  O  O49  1  0.48473128  0.32999866  0.74614419  1
  O  O50  1  0.84514574  0.53287821  0.74602921  1
  O  O51  1  0.67976728  0.52601409  0.24770689  1
  O  O52  1  0.84453543  0.31347255  0.24557106  1
  O  O53  1  0.47063560  0.16020423  0.24570663  1
  O  O54  1  0.63566593  0.50098255  0.92071298  1
  O  O55  1  0.85624908  0.34849596  0.92114842  1
  O  O56  1  0.49218447  0.14579930  0.92153562  1
  O  O57  1  0.65765277  0.14666827  0.42155954  1
  O  O58  1  0.49538155  0.35414893  0.42190973  1
  O  O59  1  0.85668714  0.50453632  0.42233013  1
  O  O60  1  0.35420528  0.49755900  0.08009630  1
  O  O61  1  0.14664486  0.65411724  0.07966376  1
  O  O62  1  0.51313104  0.86624647  0.08039847  1
  O  O63  1  0.35268103  0.86368439  0.57971018  1
  O  O64  1  0.50743869  0.65308184  0.58036760  1
  O  O65  1  0.14476262  0.49918140  0.57986842  1
  O  O66  1  0.31662010  0.84636050  0.25471749  1
  O  O67  1  0.52516390  0.68049276  0.25170651  1
  O  O68  1  0.15891899  0.46700458  0.25237746  1
  O  O69  1  0.31302125  0.48004532  0.75392881  1
  O  O70  1  0.15260102  0.68183246  0.75245640  1
  O  O71  1  0.52322151  0.83812454  0.75530682  1
loop_
_geom_bond_atom_site_label_1
_geom_bond_atom_site_label_2
_geom_bond_distance
_geom_bond_site_symmetry_2
Na0 O68 2.439855 1_555
Na0 O67 2.455512 1_555
Na0 O51 2.465863 1_555
Na0 O53 2.477114 1_555
Na0 O32 2.568957 1_555
Na0 O17 2.705478 1_555
Na0 O0 2.855221 1_555
Na0 O10 3.006278 1_555
Na1 O49 2.381787 1_555
Na1 O50 2.461268 1_555
Na1 O14 2.503876 1_555
Na1 O71 2.521808 1_555
Na1 O69 2.549344 1_555
Na1 O6 2.852101 1_555
Na1 O35 2.899844 1_555
Na1 O4 2.985089 1_555
Na2 O48 2.393924 1_555
Na2 O69 2.491091 1_655
Na2 O12 2.601619 1_555
Na2 O70 2.616662 1_655
Na2 O50 2.632962 1_555
Na2 O33 2.775600 1_655
Na2 O5 2.783648 1_555
Na2 O7 2.837343 1_655
Na3 O65 2.428578 1_555
Na3 O42 2.448656 1_455
Na3 O64 2.476793 1_555
Na3 O43 2.579022 1_555
Na3 O7 2.639032 1_555
Na3 O28 2.674498 1_555
Na4 O44 2.432268 1_455
Na4 O65 2.447757 1_555
Na4 O29 2.452464 1_555
Na4 O63 2.545114 1_555
Na4 O43 2.554943 1_565
Na4 O8 2.708290 1_555
Na4 O22 2.899982 1_455
Na4 O12 2.958877 1_455
Na5 O64 2.420537 1_555
Na5 O44 2.463591 1_555
Na5 O42 2.469823 1_565
Na5 O27 2.550978 1_555
Na5 O6 2.554019 1_555
Na5 O63 2.575886 1_555
Na6 O61 2.420988 1_555
Na6 O26 2.444942 1_554
Na6 O47 2.477707 1_565
Na6 O45 2.484445 1_455
Na6 O62 2.560473 1_555
Na6 O11 2.630833 1_555
Na6 O18 2.889822 1_565
Na7 O60 2.438643 1_555
Na7 O45 2.457419 1_555
Na7 O62 2.538889 1_555
Na7 O24 2.571724 1_554
Na7 O46 2.585046 1_565
Na7 O9 2.702070 1_555
Na7 O19 2.895204 1_555
Na7 O17 2.921989 1_555
Na8 O60 2.427221 1_555
Na8 O47 2.465048 1_555
Na8 O61 2.475241 1_555
Na8 O46 2.560264 1_455
Na8 O25 2.606176 1_554
Na8 O10 2.719555 1_555
Na8 O15 2.887049 1_455
Na8 O20 2.970953 1_455
Na9 O39 2.367243 1_555
Na9 O40 2.396794 1_545
Na9 O3 2.466912 1_555
Na9 O54 2.490233 1_555
Na9 O56 2.511013 1_555
Na10 O38 2.392274 1_655
Na10 O37 2.504573 1_545
Na10 O57 2.528306 1_555
Na10 O59 2.551622 1_555
Na10 O2 2.572767 1_555
Na10 O30 2.748716 1_655
Na10 O28 2.895945 1_655
Na10 O23 2.914622 1_555
Na11 O37 2.422442 1_555
Na11 O36 2.440131 1_655
Na11 O58 2.543033 1_555
Na11 O1 2.568878 1_555
Na11 O59 2.615523 1_555
Na11 O32 2.829056 1_555
Na11 O22 2.903463 1_555
Na11 O27 2.936471 1_555
Na12 O36 2.443745 1_545
Na12 O38 2.465866 1_555
Na12 O37 2.466403 1_445
Na12 O44 2.661431 1_445
Na12 O42 2.677843 1_455
Na12 O43 2.704493 1_555
Na13 O41 2.359789 1_555
Na13 O40 2.360004 1_655
Na13 O39 2.460807 1_665
Na13 O45 2.673487 1_556
Na13 O47 2.782443 1_666
Na13 O46 2.806929 1_566
Na14 O48 2.360651 1_555
Na14 O49 2.457611 1_555
Na14 O56 2.516190 1_555
Na14 O50 2.655951 1_555
Na14 O55 2.661633 1_555
Na14 O54 2.782178 1_555
Na15 O53 2.431075 1_555
Na15 O52 2.441342 1_555
Na15 O57 2.553104 1_555
Na15 O51 2.563241 1_555
Na15 O59 2.714977 1_555
Na15 O58 2.719652 1_555
Na16 O66 2.452726 1_555
Na16 O68 2.474166 1_555
Na16 O67 2.529617 1_555
Na16 O61 2.537773 1_555
Na16 O62 2.655290 1_555
Na16 O60 2.660685 1_555
Na17 O64 2.439035 1_555
Na17 O65 2.490735 1_555
Na17 O63 2.516119 1_555
Na17 O69 2.568208 1_555
Na17 O71 2.588970 1_555
Na17 O70 2.635143 1_555
Mg0 O36 2.053837 1_555
Mg0 O38 2.064395 1_565
Mg0 O0 2.066963 1_565
Mg0 O37 2.132607 1_455
Mg0 O1 2.136504 1_455
Mg0 O2 2.154144 1_465
Mg1 O5 2.017892 1_555
Mg1 O39 2.082478 1_655
Mg1 O3 2.083725 1_655
Mg1 O41 2.086865 1_545
Mg1 O4 2.130703 1_545
Mg1 O40 2.154091 1_645
Mg2 O6 2.008571 1_545
Mg2 O7 2.035350 1_655
Mg2 O42 2.117858 1_555
Mg2 O8 2.139128 1_645
Mg2 O44 2.176236 1_545
Mg2 O43 2.242673 1_655
Mg3 O11 2.060825 1_555
Mg3 O9 2.088073 1_455
Mg3 O10 2.092564 1_565
Mg3 O45 2.098348 1_455
Mg3 O47 2.131037 1_565
Mg3 O46 2.228270 1_465
Mg4 O13 2.060015 1_555
Mg4 O14 2.061504 1_555
Mg4 O48 2.067376 1_555
Mg4 O12 2.072948 1_555
Mg4 O49 2.090689 1_555
Mg4 O50 2.215816 1_555
Mg5 O15 1.972665 1_555
Mg5 O17 2.045135 1_555
Mg5 O16 2.094764 1_555
Mg5 O51 2.156002 1_555
Mg5 O52 2.158908 1_555
Mg5 O53 2.202387 1_555
Mg6 O25 1.998136 1_554
Mg6 O26 2.034773 1_554
Mg6 O24 2.047613 1_554
Mg6 O61 2.151657 1_555
Mg6 O60 2.181890 1_555
Mg6 O62 2.272010 1_555
Mg7 O28 2.002399 1_555
Mg7 O27 2.033874 1_555
Mg7 O29 2.044613 1_555
Mg7 O65 2.202513 1_555
Mg7 O64 2.230778 1_555
Mg7 O63 2.282405 1_555
Mg8 O31 1.965463 1_555
Mg8 O30 1.985308 1_555
Mg8 O32 2.079829 1_555
Mg8 O66 2.169371 1_555
Mg8 O67 2.283702 1_555
Mg8 O68 2.308257 1_555
O0 S0 1.477799 1_555
O1 S1 1.478203 1_555
O2 S2 1.484568 1_555
O3 P0 1.527992 1_555
O4 S3 1.460790 1_555
O5 P1 1.522551 1_555
O6 P1 1.549900 1_565
O7 P0 1.546026 1_555
O8 S3 1.477979 1_455
O9 S1 1.485986 1_555
O10 S2 1.498749 1_455
O11 S0 1.496039 1_565
O12 P2 1.532689 1_555
O13 S4 1.465677 1_555
O14 P3 1.534022 1_555
O15 P4 1.522628 1_555
O16 S5 1.471512 1_555
O17 P5 1.534515 1_555
O18 P5 1.583467 1_555
O18 Zr0 2.115827 1_554
O19 P4 1.584630 1_555
O19 Zr0 2.043522 1_554
O20 S5 1.500057 1_555
O20 Zr0 2.203976 1_554
O21 S4 1.499104 1_555
O21 Zr1 2.176354 1_555
O22 P3 1.579521 1_555
O22 Zr1 2.086217 1_555
O23 P2 1.580995 1_555
O23 Zr1 2.088562 1_555
O24 P6 1.529166 1_555
O25 P7 1.531642 1_555
O26 P8 1.524409 1_555
O27 P9 1.544147 1_555
O28 P10 1.544297 1_555
O29 P11 1.538145 1_555
O30 P11 1.521294 1_555
O31 P9 1.511550 1_555
O32 P10 1.538987 1_555
O33 P7 1.572655 1_555
O33 Zr2 2.084495 1_555
O34 P8 1.565311 1_555
O34 Zr2 2.012062 1_555
O35 P6 1.580404 1_555
O35 Zr2 2.038075 1_555
O36 P11 1.536917 1_555
O37 P9 1.558817 1_555
O38 P10 1.537233 1_555
O39 P7 1.524627 1_555
O40 P8 1.523372 1_555
O41 P6 1.502289 1_555
O42 P2 1.552003 1_555
O43 S4 1.485147 1_555
O44 P3 1.551624 1_555
O45 P4 1.553162 1_555
O46 S5 1.488702 1_555
O47 P5 1.554744 1_555
O48 P1 1.542740 1_555
O49 P0 1.544835 1_555
O50 S3 1.494448 1_555
O51 S1 1.505464 1_555
O52 S2 1.479415 1_555
O53 S0 1.506488 1_555
O54 P6 1.589412 1_555
O54 Zr0 2.064187 1_555
O55 P7 1.561465 1_655
O55 Zr0 2.070794 1_555
O56 P8 1.579218 1_545
O56 Zr0 2.117531 1_555
O57 P9 1.590216 1_545
O57 Zr1 2.074581 1_555
O58 P10 1.584852 1_555
O58 Zr1 2.081039 1_555
O59 P11 1.620842 1_655
O59 Zr1 2.051291 1_555
O60 P5 1.551292 1_555
O61 P4 1.547752 1_455
O62 S5 1.484763 1_565
O63 S4 1.485149 1_565
O64 P3 1.550915 1_555
O65 P2 1.551161 1_455
O66 S0 1.473650 1_565
O67 S1 1.494965 1_555
O68 S2 1.498774 1_455
O69 P0 1.617389 1_555
O69 Zr2 2.173189 1_555
O70 S3 1.514831 1_455
O70 Zr2 2.220650 1_555
O71 P1 1.589765 1_565
O71 Zr2 2.095223 1_555
