# generated using pymatgen
data_Ce2InGe2
_symmetry_space_group_name_H-M   'P 1'
_cell_length_a   7.57634708
_cell_length_b   7.57634708
_cell_length_c   4.36298151
_cell_angle_alpha   90.00000000
_cell_angle_beta   90.00000000
_cell_angle_gamma   89.99436643
_symmetry_Int_Tables_number   1
_chemical_formula_structural   Ce2InGe2
_chemical_formula_sum   'Ce4 In2 Ge4'
_cell_volume   250.43965343
_cell_formula_units_Z   2
loop_
 _symmetry_equiv_pos_site_id
 _symmetry_equiv_pos_as_xyz
  1  'x, y, z'
loop_
 _atom_site_type_symbol
 _atom_site_label
 _atom_site_symmetry_multiplicity
 _atom_site_fract_x
 _atom_site_fract_y
 _atom_site_fract_z
 _atom_site_occupancy
  Ce  Ce0  1  0.31879386  0.81879386  0.50000000  1
  Ce  Ce1  1  0.81877530  0.68122470  0.50000000  1
  Ce  Ce2  1  0.18122470  0.31877530  0.50000000  1
  Ce  Ce3  1  0.68120614  0.18120614  0.50000000  1
  In  In0  1  -0.00000000  -0.00000000  0.00000000  1
  In  In1  1  0.50000000  0.50000000  0.00000000  1
  Ge  Ge0  1  0.61686325  0.88313675  0.00000000  1
  Ge  Ge1  1  0.38313675  0.11686325  0.00000000  1
  Ge  Ge2  1  0.88318092  0.38318092  -0.00000000  1
  Ge  Ge3  1  0.11681908  0.61681908  -0.00000000  1
loop_
_geom_bond_atom_site_label_1
_geom_bond_atom_site_label_2
_geom_bond_distance
_geom_bond_site_symmetry_2
Ce0 Ge3 3.072878 1_555
Ce0 Ge3 3.072878 1_556
Ce0 Ge0 3.177511 1_556
Ce0 Ge0 3.177511 1_555
Ce0 Ge1 3.177511 1_566
Ce0 Ge1 3.177511 1_565
Ce0 In1 3.532236 1_556
Ce0 In1 3.532236 1_555
Ce0 In0 3.532236 1_566
Ce0 In0 3.532236 1_565
Ce1 Ge0 3.072254 1_555
Ce1 Ge0 3.072254 1_556
Ce1 Ge3 3.177378 1_655
Ce1 Ge3 3.177378 1_656
Ce1 Ge2 3.177378 1_556
Ce1 Ge2 3.177378 1_555
Ce1 In1 3.532379 1_556
Ce1 In1 3.532379 1_555
Ce1 In0 3.532379 1_666
Ce1 In0 3.532379 1_665
Ce2 Ge1 3.072254 1_555
Ce2 Ge1 3.072254 1_556
Ce2 Ge3 3.177378 1_556
Ce2 Ge2 3.177378 1_456
Ce2 Ge2 3.177378 1_455
Ce2 Ge3 3.177378 1_555
Ce2 In0 3.532379 1_555
Ce2 In0 3.532379 1_556
Ce2 In1 3.532379 1_556
Ce2 In1 3.532379 1_555
Ce3 Ge2 3.072878 1_556
Ce3 Ge2 3.072878 1_555
Ce3 Ge1 3.177511 1_555
Ce3 Ge1 3.177511 1_556
Ce3 Ge0 3.177511 1_545
Ce3 Ge0 3.177511 1_546
Ce3 In1 3.532236 1_556
Ce3 In1 3.532236 1_555
Ce3 In0 3.532236 1_656
Ce3 In0 3.532236 1_655
Ge0 Ge1 2.504156 1_565
Ge0 In1 3.034888 1_555
Ge0 In0 3.034888 1_665
Ge1 In0 3.034888 1_555
Ge1 In1 3.034888 1_555
Ge2 Ge3 2.503456 1_655
Ge2 In0 3.034944 1_655
Ge2 In1 3.034944 1_555
Ge3 In1 3.034944 1_555
Ge3 In0 3.034944 1_565
