# generated using pymatgen
data_RbSr2MgNb3O10
_symmetry_space_group_name_H-M   'P 1'
_cell_length_a   4.07297500
_cell_length_b   4.07297500
_cell_length_c   16.62112600
_cell_angle_alpha   90.00000000
_cell_angle_beta   90.00000000
_cell_angle_gamma   90.00000000
_symmetry_Int_Tables_number   1
_chemical_formula_structural   RbSr2MgNb3O10
_chemical_formula_sum   'Rb1 Sr2 Mg1 Nb3 O10'
_cell_volume   275.72994268
_cell_formula_units_Z   1
loop_
 _symmetry_equiv_pos_site_id
 _symmetry_equiv_pos_as_xyz
  1  'x, y, z'
loop_
 _atom_site_type_symbol
 _atom_site_label
 _atom_site_symmetry_multiplicity
 _atom_site_fract_x
 _atom_site_fract_y
 _atom_site_fract_z
 _atom_site_occupancy
  Rb  Rb0  1  0.50000000  0.50000000  0.50000000  1
  Sr  Sr0  1  0.50000000  0.50000000  0.18786700  1
  Sr  Sr1  1  0.50000000  0.50000000  0.81213300  1
  Mg  Mg0  1  0.50000000  0.50000000  0.00000000  1
  Nb  Nb0  1  0.00000000  0.00000000  0.00000000  1
  Nb  Nb1  1  0.00000000  0.00000000  0.30293400  1
  Nb  Nb2  1  0.00000000  0.00000000  0.69706600  1
  O  O0  1  0.00000000  0.00000000  0.58978800  1
  O  O1  1  0.00000000  0.00000000  0.41021200  1
  O  O2  1  0.50000000  0.00000000  0.72585200  1
  O  O3  1  0.00000000  0.50000000  0.72585200  1
  O  O4  1  0.50000000  0.00000000  0.27414800  1
  O  O5  1  0.00000000  0.50000000  0.27414800  1
  O  O6  1  0.00000000  0.50000000  0.00000000  1
  O  O7  1  0.50000000  0.00000000  0.00000000  1
  O  O8  1  0.00000000  0.00000000  0.12101700  1
  O  O9  1  0.00000000  0.00000000  0.87898300  1
loop_
_geom_bond_atom_site_label_1
_geom_bond_atom_site_label_2
_geom_bond_distance
_geom_bond_site_symmetry_2
Mg0 O6 2.036487 1_655
Mg0 O7 2.036487 1_555
Mg0 O6 2.036487 1_555
Mg0 O7 2.036487 1_565
Nb0 O8 2.011439 1_555
Nb0 O9 2.011439 1_554
Nb0 O7 2.036487 1_555
Nb0 O6 2.036487 1_545
Nb0 O6 2.036487 1_555
Nb0 O7 2.036487 1_455
Nb1 O1 1.783081 1_555
Nb1 O5 2.091937 1_545
Nb1 O4 2.091937 1_455
Nb1 O4 2.091937 1_555
Nb1 O5 2.091937 1_555
Nb2 O0 1.783081 1_555
Nb2 O3 2.091937 1_545
Nb2 O2 2.091937 1_555
Nb2 O2 2.091937 1_455
Nb2 O3 2.091937 1_555
O0 Rb0 3.243725 1_455
O0 Rb0 3.243725 1_555
O0 Rb0 3.243725 1_545
O0 Rb0 3.243725 1_445
O1 Rb0 3.243725 1_555
O1 Rb0 3.243725 1_545
O1 Rb0 3.243725 1_445
O1 Rb0 3.243725 1_455
O2 Sr1 2.490761 1_545
O2 Sr1 2.490761 1_555
O3 Sr1 2.490761 1_455
O3 Sr1 2.490761 1_555
O4 Sr0 2.490761 1_555
O4 Sr0 2.490761 1_545
O5 Sr0 2.490761 1_455
O5 Sr0 2.490761 1_555
