# generated using pymatgen
data_Na2Zn2(SO4)3
_symmetry_space_group_name_H-M   'P 1'
_cell_length_a   8.85015418
_cell_length_b   8.85015389
_cell_length_c   22.57910055
_cell_angle_alpha   90.38228652
_cell_angle_beta   89.61771342
_cell_angle_gamma   120.51545977
_symmetry_Int_Tables_number   1
_chemical_formula_structural   Na2Zn2(SO4)3
_chemical_formula_sum   'Na12 Zn12 S18 O72'
_cell_volume   1523.51528359
_cell_formula_units_Z   6
loop_
 _symmetry_equiv_pos_site_id
 _symmetry_equiv_pos_as_xyz
  1  'x, y, z'
loop_
 _atom_site_type_symbol
 _atom_site_label
 _atom_site_symmetry_multiplicity
 _atom_site_fract_x
 _atom_site_fract_y
 _atom_site_fract_z
 _atom_site_occupancy
  Na  Na0  1  0.36459025  0.36459025  0.25000000  1
  Na  Na1  1  0.63540975  0.63540975  0.75000000  1
  Na  Na2  1  0.03125725  0.69792325  0.58333300  1
  Na  Na3  1  0.30207675  0.96874275  0.08333300  1
  Na  Na4  1  0.69792325  0.03125725  0.91666700  1
  Na  Na5  1  0.96874275  0.30207675  0.41666700  1
  Na  Na6  1  -0.00000000  -0.00000000  0.50000000  1
  Na  Na7  1  -0.00000000  -0.00000000  0.00000000  1
  Na  Na8  1  0.66666700  0.33333300  0.83333300  1
  Na  Na9  1  0.66666700  0.33333300  0.33333300  1
  Na  Na10  1  0.33333300  0.66666700  0.16666700  1
  Na  Na11  1  0.33333300  0.66666700  0.66666700  1
  Zn  Zn0  1  0.99737910  0.99032262  0.34884624  1
  Zn  Zn1  1  0.00967738  0.00262090  0.84884624  1
  Zn  Zn2  1  0.00262090  0.00967738  0.65115376  1
  Zn  Zn3  1  0.99032262  0.99737910  0.15115376  1
  Zn  Zn4  1  0.66404610  0.32365562  0.68217924  1
  Zn  Zn5  1  0.67634438  0.33595390  0.18217924  1
  Zn  Zn6  1  0.66928790  0.34301038  0.98448676  1
  Zn  Zn7  1  0.65698962  0.33071210  0.48448676  1
  Zn  Zn8  1  0.33071210  0.65698962  0.01551324  1
  Zn  Zn9  1  0.34301038  0.66928790  0.51551324  1
  Zn  Zn10  1  0.33595390  0.67634438  0.31782076  1
  Zn  Zn11  1  0.32365562  0.66404610  0.81782076  1
  S  S0  1  0.29338730  0.99780585  0.24921740  1
  S  S1  1  0.70654930  0.70654930  0.25000000  1
  S  S2  1  0.99780585  0.29338730  0.25078260  1
  S  S3  1  0.29345070  0.29345070  0.75000000  1
  S  S4  1  0.00219415  0.70661270  0.74921740  1
  S  S5  1  0.70661270  0.00219415  0.75078260  1
  S  S6  1  0.96005430  0.33113885  0.58255040  1
  S  S7  1  0.37321630  0.03988230  0.58333300  1
  S  S8  1  0.66447285  0.62672030  0.58411560  1
  S  S9  1  0.96011770  0.62678370  0.08333300  1
  S  S10  1  0.66886115  0.03994570  0.08255040  1
  S  S11  1  0.37327970  0.33552715  0.08411560  1
  S  S12  1  0.62672030  0.66447285  0.91588440  1
  S  S13  1  0.03988230  0.37321630  0.91666700  1
  S  S14  1  0.33113885  0.96005430  0.91744960  1
  S  S15  1  0.62678370  0.96011770  0.41666700  1
  S  S16  1  0.33552715  0.37327970  0.41588440  1
  S  S17  1  0.03994570  0.66886115  0.41744960  1
  O  O0  1  0.21297460  0.03208833  0.30189697  1
  O  O1  1  0.81216895  0.78473698  0.30356271  1
  O  O2  1  0.97178167  0.18994165  0.30576153  1
  O  O3  1  0.21526302  0.18783105  0.80356271  1
  O  O4  1  0.96791167  0.78702540  0.80189697  1
  O  O5  1  0.81005835  0.02821833  0.80576153  1
  O  O6  1  0.78702540  0.96791167  0.69810303  1
  O  O7  1  0.18783105  0.21526302  0.69643729  1
  O  O8  1  0.02821833  0.81005835  0.69423847  1
  O  O9  1  0.78473698  0.81216895  0.19643729  1
  O  O10  1  0.03208833  0.21297460  0.19810303  1
  O  O11  1  0.18994165  0.97178167  0.19423847  1
  O  O12  1  0.87964160  0.36542133  0.63522997  1
  O  O13  1  0.47883595  0.11806998  0.63689571  1
  O  O14  1  0.63844867  0.52327465  0.63909453  1
  O  O15  1  0.88193002  0.52116405  0.13689571  1
  O  O16  1  0.63457867  0.12035840  0.13522997  1
  O  O17  1  0.47672535  0.36155133  0.13909453  1
  O  O18  1  0.45369240  0.30124467  0.03143603  1
  O  O19  1  0.85449805  0.54859602  0.02977029  1
  O  O20  1  0.69488533  0.14339135  0.02757147  1
  O  O21  1  0.45140398  0.14550195  0.52977029  1
  O  O22  1  0.69875533  0.54630760  0.53143603  1
  O  O23  1  0.85660865  0.30511467  0.52757147  1
  O  O24  1  0.54630760  0.69875533  0.96856397  1
  O  O25  1  0.14550195  0.45140398  0.97022971  1
  O  O26  1  0.30511467  0.85660865  0.97242853  1
  O  O27  1  0.54859602  0.85449805  0.47022971  1
  O  O28  1  0.30124467  0.45369240  0.46856397  1
  O  O29  1  0.14339135  0.69488533  0.47242853  1
  O  O30  1  0.12035840  0.63457867  0.36477003  1
  O  O31  1  0.52116405  0.88193002  0.36310429  1
  O  O32  1  0.36155133  0.47672535  0.36090547  1
  O  O33  1  0.11806998  0.47883595  0.86310429  1
  O  O34  1  0.36542133  0.87964160  0.86477003  1
  O  O35  1  0.52327465  0.63844867  0.86090547  1
  O  O36  1  0.02203391  0.82499521  0.41085209  1
  O  O37  1  0.80796390  0.98474568  0.41100401  1
  O  O38  1  0.17013079  0.19602221  0.41052737  1
  O  O39  1  0.01525432  0.19203610  0.91100401  1
  O  O40  1  0.17500479  0.97796609  0.91085209  1
  O  O41  1  0.80397779  0.82986921  0.91052737  1
  O  O42  1  0.97796609  0.17500479  0.58914791  1
  O  O43  1  0.19203610  0.01525432  0.58899599  1
  O  O44  1  0.82986921  0.80397779  0.58947263  1
  O  O45  1  0.98474568  0.80796390  0.08899599  1
  O  O46  1  0.82499521  0.02203391  0.08914791  1
  O  O47  1  0.19602221  0.17013079  0.08947263  1
  O  O48  1  0.68870091  0.15832821  0.74418509  1
  O  O49  1  0.47463090  0.31807868  0.74433701  1
  O  O50  1  0.83679779  0.52935521  0.74386037  1
  O  O51  1  0.68192132  0.52536910  0.24433701  1
  O  O52  1  0.84167179  0.31129909  0.24418509  1
  O  O53  1  0.47064479  0.16320221  0.24386037  1
  O  O54  1  0.64463309  0.50833779  0.92248091  1
  O  O55  1  0.85870310  0.34858732  0.92232899  1
  O  O56  1  0.49653621  0.13731079  0.92280563  1
  O  O57  1  0.65141268  0.14129690  0.42232899  1
  O  O58  1  0.49166221  0.35536691  0.42248091  1
  O  O59  1  0.86268921  0.50346379  0.42280563  1
  O  O60  1  0.35536691  0.49166221  0.07751909  1
  O  O61  1  0.14129690  0.65141268  0.07767101  1
  O  O62  1  0.50346379  0.86268921  0.07719437  1
  O  O63  1  0.34858732  0.85870310  0.57767101  1
  O  O64  1  0.50833779  0.64463309  0.57751909  1
  O  O65  1  0.13731079  0.49653621  0.57719437  1
  O  O66  1  0.31129909  0.84167179  0.25581491  1
  O  O67  1  0.52536910  0.68192132  0.25566299  1
  O  O68  1  0.16320221  0.47064479  0.25613963  1
  O  O69  1  0.31807868  0.47463090  0.75566299  1
  O  O70  1  0.15832821  0.68870091  0.75581491  1
  O  O71  1  0.52935521  0.83679779  0.75613963  1
loop_
_geom_bond_atom_site_label_1
_geom_bond_atom_site_label_2
_geom_bond_distance
_geom_bond_site_symmetry_2
Na0 O53 2.402224 1_555
Na0 O68 2.402224 1_555
Na0 O67 2.422330 1_555
Na0 O51 2.422330 1_555
Na0 O32 2.692470 1_555
Na0 O17 2.692470 1_555
Na0 O0 2.801448 1_555
Na0 O10 2.801448 1_555
Na1 O71 2.402224 1_555
Na1 O50 2.402224 1_555
Na1 O49 2.422330 1_555
Na1 O69 2.422330 1_555
Na1 O14 2.692470 1_555
Na1 O35 2.692470 1_555
Na1 O6 2.801448 1_555
Na1 O4 2.801448 1_555
Na2 O65 2.402207 1_555
Na2 O44 2.402224 1_455
Na2 O63 2.422321 1_555
Na2 O43 2.422330 1_565
Na2 O29 2.692445 1_555
Na2 O8 2.692470 1_555
Na2 O12 2.801448 1_455
Na2 O22 2.801448 1_455
Na3 O62 2.402207 1_555
Na3 O47 2.402224 1_565
Na3 O61 2.422321 1_555
Na3 O45 2.422330 1_455
Na3 O26 2.692445 1_554
Na3 O11 2.692470 1_555
Na3 O18 2.801448 1_565
Na3 O16 2.801448 1_565
Na4 O56 2.402207 1_555
Na4 O41 2.402224 1_545
Na4 O55 2.422321 1_555
Na4 O39 2.422330 1_655
Na4 O20 2.692445 1_556
Na4 O5 2.692470 1_555
Na4 O24 2.801448 1_545
Na4 O34 2.801448 1_545
Na5 O59 2.402207 1_555
Na5 O38 2.402224 1_655
Na5 O57 2.422321 1_555
Na5 O37 2.422330 1_545
Na5 O23 2.692445 1_555
Na5 O2 2.692470 1_555
Na5 O30 2.801448 1_655
Na5 O28 2.801448 1_655
Na6 O38 2.590645 1_555
Na6 O44 2.590645 1_445
Na6 O42 2.597774 1_455
Na6 O36 2.597774 1_545
Na6 O43 2.598754 1_555
Na6 O37 2.598754 1_445
Na7 O47 2.590645 1_555
Na7 O41 2.590645 1_444
Na7 O46 2.597774 1_455
Na7 O40 2.597774 1_544
Na7 O45 2.598754 1_445
Na7 O39 2.598754 1_554
Na8 O50 2.590645 1_555
Na8 O56 2.590645 1_555
Na8 O48 2.597774 1_555
Na8 O54 2.597774 1_555
Na8 O49 2.598754 1_555
Na8 O55 2.598754 1_555
Na9 O59 2.590645 1_555
Na9 O53 2.590645 1_555
Na9 O58 2.597774 1_555
Na9 O52 2.597774 1_555
Na9 O57 2.598754 1_555
Na9 O51 2.598754 1_555
Na10 O62 2.590645 1_555
Na10 O68 2.590645 1_555
Na10 O66 2.597774 1_555
Na10 O60 2.597774 1_555
Na10 O61 2.598754 1_555
Na10 O67 2.598754 1_555
Na11 O71 2.590645 1_555
Na11 O65 2.590645 1_555
Na11 O70 2.597774 1_555
Na11 O64 2.597774 1_555
Na11 O69 2.598754 1_555
Na11 O63 2.598754 1_555
O0 S0 1.488791 1_545
O0 Zn0 2.040355 1_445
O1 S1 1.470466 1_555
O1 Zn0 2.002870 1_555
O2 S2 1.493128 1_555
O2 Zn0 2.133328 1_545
O3 S3 1.470466 1_555
O3 Zn1 2.002870 1_555
O4 S4 1.488791 1_655
O4 Zn1 2.040355 1_665
O5 S5 1.493128 1_555
O5 Zn1 2.133328 1_655
O6 S5 1.488791 1_565
O6 Zn2 2.040355 1_665
O7 S3 1.470466 1_555
O7 Zn2 2.002870 1_555
O8 S4 1.493128 1_555
O8 Zn2 2.133328 1_565
O9 S1 1.470466 1_555
O9 Zn3 2.002870 1_555
O10 S2 1.488791 1_455
O10 Zn3 2.040355 1_445
O11 S0 1.493128 1_555
O11 Zn3 2.133328 1_455
O12 S6 1.488791 1_555
O12 Zn4 2.040355 1_555
O13 S7 1.470466 1_555
O13 Zn4 2.002870 1_555
O14 S8 1.493128 1_555
O14 Zn4 2.133328 1_555
O15 S9 1.470466 1_555
O15 Zn5 2.002870 1_555
O16 S10 1.488791 1_555
O16 Zn5 2.040355 1_555
O17 S11 1.493128 1_555
O17 Zn5 2.133328 1_555
O18 S11 1.488791 1_555
O18 Zn6 2.040355 1_554
O19 S9 1.470466 1_555
O19 Zn6 2.002870 1_554
O20 S10 1.493128 1_555
O20 Zn6 2.133328 1_554
O21 S7 1.470466 1_555
O21 Zn7 2.002870 1_555
O22 S8 1.488791 1_555
O22 Zn7 2.040355 1_555
O23 S6 1.493128 1_555
O23 Zn7 2.133328 1_555
O24 S12 1.488791 1_555
O24 Zn8 2.040355 1_556
O25 S13 1.470466 1_555
O25 Zn8 2.002870 1_556
O26 S14 1.493128 1_555
O26 Zn8 2.133328 1_556
O27 S15 1.470466 1_555
O27 Zn9 2.002870 1_555
O28 S16 1.488791 1_555
O28 Zn9 2.040355 1_555
O29 S17 1.493128 1_555
O29 Zn9 2.133328 1_555
O30 S17 1.488791 1_555
O30 Zn10 2.040355 1_555
O31 S15 1.470466 1_555
O31 Zn10 2.002870 1_555
O32 S16 1.493128 1_555
O32 Zn10 2.133328 1_555
O33 S13 1.470466 1_555
O33 Zn11 2.002870 1_555
O34 S14 1.488791 1_555
O34 Zn11 2.040355 1_555
O35 S12 1.493128 1_555
O35 Zn11 2.133328 1_555
O36 S17 1.477239 1_555
O36 Zn0 2.122316 1_455
O37 S15 1.509202 1_555
O37 Zn0 2.160514 1_555
O38 S16 1.511989 1_555
O38 Zn0 2.181573 1_445
O39 S13 1.509202 1_555
O39 Zn1 2.160514 1_555
O40 S14 1.477239 1_555
O40 Zn1 2.122316 1_565
O41 S12 1.511989 1_555
O41 Zn1 2.181573 1_665
O42 S6 1.477239 1_555
O42 Zn2 2.122316 1_655
O43 S7 1.509202 1_555
O43 Zn2 2.160514 1_555
O44 S8 1.511989 1_555
O44 Zn2 2.181573 1_665
O45 S9 1.509202 1_555
O45 Zn3 2.160514 1_555
O46 S10 1.477239 1_555
O46 Zn3 2.122316 1_545
O47 S11 1.511989 1_555
O47 Zn3 2.181573 1_445
O48 S5 1.477239 1_555
O48 Zn4 2.122316 1_555
O49 S3 1.509202 1_555
O49 Zn4 2.160514 1_555
O50 S4 1.511989 1_655
O50 Zn4 2.181573 1_555
O51 S1 1.509202 1_555
O51 Zn5 2.160514 1_555
O52 S2 1.477239 1_555
O52 Zn5 2.122316 1_555
O53 S0 1.511989 1_545
O53 Zn5 2.181573 1_555
O54 S12 1.477250 1_555
O54 Zn6 2.122316 1_555
O55 S13 1.509188 1_655
O55 Zn6 2.160514 1_555
O56 S14 1.511986 1_545
O56 Zn6 2.181573 1_555
O57 S15 1.509188 1_545
O57 Zn7 2.160514 1_555
O58 S16 1.477250 1_555
O58 Zn7 2.122316 1_555
O59 S17 1.511986 1_655
O59 Zn7 2.181573 1_555
O60 S11 1.477250 1_555
O60 Zn8 2.122316 1_555
O61 S9 1.509188 1_455
O61 Zn8 2.160514 1_555
O62 S10 1.511986 1_565
O62 Zn8 2.181573 1_555
O63 S7 1.509188 1_565
O63 Zn9 2.160514 1_555
O64 S8 1.477250 1_555
O64 Zn9 2.122316 1_555
O65 S6 1.511986 1_455
O65 Zn9 2.181573 1_555
O66 S0 1.477239 1_555
O66 Zn10 2.122316 1_555
O67 S1 1.509202 1_555
O67 Zn10 2.160514 1_555
O68 S2 1.511989 1_455
O68 Zn10 2.181573 1_555
O69 S3 1.509202 1_555
O69 Zn11 2.160514 1_555
O70 S4 1.477239 1_555
O70 Zn11 2.122316 1_555
O71 S5 1.511989 1_565
O71 Zn11 2.181573 1_555
