# generated using pymatgen
data_Na9Nb8Zn4Si3(P5O24)3
_symmetry_space_group_name_H-M   'P 1'
_cell_length_a   8.85599841
_cell_length_b   8.86511916
_cell_length_c   22.70882693
_cell_angle_alpha   89.98566676
_cell_angle_beta   90.12870326
_cell_angle_gamma   120.14681790
_symmetry_Int_Tables_number   1
_chemical_formula_structural   Na9Nb8Zn4Si3(P5O24)3
_chemical_formula_sum   'Na9 Nb8 Zn4 Si3 P15 O72'
_cell_volume   1541.70651252
_cell_formula_units_Z   1
loop_
 _symmetry_equiv_pos_site_id
 _symmetry_equiv_pos_as_xyz
  1  'x, y, z'
loop_
 _atom_site_type_symbol
 _atom_site_label
 _atom_site_symmetry_multiplicity
 _atom_site_fract_x
 _atom_site_fract_y
 _atom_site_fract_z
 _atom_site_occupancy
  Na  Na0  1  0.98614023  0.62705974  0.24497840  1
  Na  Na1  1  0.37370693  0.01560550  0.74508562  1
  Na  Na2  1  0.32053209  0.03076100  0.41112523  1
  Na  Na3  1  0.99236268  0.00228538  0.49401855  1
  Na  Na4  1  0.00030044  0.99996502  0.99276860  1
  Na  Na5  1  0.67717194  0.34364749  0.82576436  1
  Na  Na6  1  0.66555725  0.33098443  0.32480602  1
  Na  Na7  1  0.34079719  0.66788130  0.16521667  1
  Na  Na8  1  0.33284321  0.66049477  0.66489385  1
  Nb  Nb0  1  0.00267145  0.00144428  0.64631888  1
  Nb  Nb1  1  0.00029660  0.99936298  0.14588623  1
  Nb  Nb2  1  0.66873234  0.33754485  0.97924895  1
  Nb  Nb3  1  0.66404518  0.33538274  0.48033166  1
  Nb  Nb4  1  0.33060208  0.66727928  0.02110127  1
  Nb  Nb5  1  0.33273424  0.66435710  0.52146333  1
  Nb  Nb6  1  0.33853182  0.66224265  0.31090199  1
  Nb  Nb7  1  0.33343299  0.66342320  0.81117610  1
  Zn  Zn0  1  0.99778908  0.00630904  0.35227237  1
  Zn  Zn1  1  0.99785629  0.99813182  0.85256459  1
  Zn  Zn2  1  0.67129361  0.33534715  0.68286094  1
  Zn  Zn3  1  0.66375771  0.32874749  0.18233744  1
  Si  Si0  1  0.37863919  0.04486263  0.58694626  1
  Si  Si1  1  0.95380017  0.62121934  0.08721727  1
  Si  Si2  1  0.32872670  0.37124566  0.41693260  1
  P  P0  1  0.29594460  0.00721676  0.25271125  1
  P  P1  1  0.71445194  0.71202678  0.25215839  1
  P  P2  1  0.99442269  0.28554884  0.25208216  1
  P  P3  1  0.28981340  0.28741936  0.75266385  1
  P  P4  1  0.99185607  0.70604078  0.75258930  1
  P  P5  1  0.71599669  0.00488540  0.75301297  1
  P  P6  1  0.95399696  0.33279591  0.58496482  1
  P  P7  1  0.66701573  0.62204121  0.58553457  1
  P  P8  1  0.66725437  0.04682579  0.08423765  1
  P  P9  1  0.37998065  0.33439062  0.08436628  1
  P  P10  1  0.62425500  0.66874242  0.91713149  1
  P  P11  1  0.04398511  0.37448529  0.91668385  1
  P  P12  1  0.33123268  0.95591391  0.91603193  1
  P  P13  1  0.62502995  0.95416312  0.41714385  1
  P  P14  1  0.04309814  0.66298158  0.41587317  1
  O  O0  1  0.21538244  0.02312918  0.30942167  1
  O  O1  1  0.82576694  0.79443022  0.30559859  1
  O  O2  1  0.97617953  0.18426397  0.30658410  1
  O  O3  1  0.20708114  0.17573583  0.80577325  1
  O  O4  1  0.97598798  0.79172349  0.80701877  1
  O  O5  1  0.81886842  0.02409986  0.80724027  1
  O  O6  1  0.79882887  0.97230704  0.69614629  1
  O  O7  1  0.17067216  0.20048783  0.69572958  1
  O  O8  1  0.03099201  0.83073067  0.69633966  1
  O  O9  1  0.80196320  0.83009892  0.19530108  1
  O  O10  1  0.02620466  0.20139956  0.19556179  1
  O  O11  1  0.16853443  0.97297270  0.19763517  1
  O  O12  1  0.88653799  0.37183548  0.63928465  1
  O  O13  1  0.48380521  0.11325837  0.64619445  1
  O  O14  1  0.63031412  0.51424553  0.63937955  1
  O  O15  1  0.88909450  0.51670873  0.14661326  1
  O  O16  1  0.62586463  0.11170727  0.13874299  1
  O  O17  1  0.48642030  0.37169868  0.13881769  1
  O  O18  1  0.46503902  0.30361146  0.02820623  1
  O  O19  1  0.83014915  0.52484672  0.02793191  1
  O  O20  1  0.69244773  0.16128586  0.02830709  1
  O  O21  1  0.47053043  0.16551903  0.52653530  1
  O  O22  1  0.69627604  0.53541345  0.52899299  1
  O  O23  1  0.84061961  0.30778290  0.52867732  1
  O  O24  1  0.52531655  0.68138122  0.97122501  1
  O  O25  1  0.15766104  0.47549234  0.97102828  1
  O  O26  1  0.31862414  0.84055437  0.96988073  1
  O  O27  1  0.52530730  0.84286163  0.47155869  1
  O  O28  1  0.31542111  0.47886239  0.47291119  1
  O  O29  1  0.16185869  0.68669296  0.46977199  1
  O  O30  1  0.13062367  0.63775020  0.35963458  1
  O  O31  1  0.50151066  0.86960712  0.36219278  1
  O  O32  1  0.36225655  0.50187709  0.35949585  1
  O  O33  1  0.13404947  0.49482638  0.86195410  1
  O  O34  1  0.36018209  0.86850715  0.86030538  1
  O  O35  1  0.50408592  0.63944922  0.86201493  1
  O  O36  1  0.02833117  0.82478999  0.41329077  1
  O  O37  1  0.79980081  0.96942166  0.41380899  1
  O  O38  1  0.16945443  0.17762958  0.41512411  1
  O  O39  1  0.02721009  0.19845760  0.91403297  1
  O  O40  1  0.17113447  0.97206331  0.91399987  1
  O  O41  1  0.80217371  0.82605300  0.91382038  1
  O  O42  1  0.97194104  0.16627113  0.58944684  1
  O  O43  1  0.18102826  0.02363506  0.59103391  1
  O  O44  1  0.83106521  0.80816513  0.58960845  1
  O  O45  1  0.97758466  0.81931561  0.09079562  1
  O  O46  1  0.83401817  0.02912789  0.08908074  1
  O  O47  1  0.19273304  0.17058681  0.08949133  1
  O  O48  1  0.67619354  0.15254487  0.74632889  1
  O  O49  1  0.47178960  0.31474736  0.74407725  1
  O  O50  1  0.84236270  0.52386284  0.74302609  1
  O  O51  1  0.68628767  0.52971397  0.24405243  1
  O  O52  1  0.84533293  0.32353449  0.24580823  1
  O  O53  1  0.47661729  0.15980615  0.24315965  1
  O  O54  1  0.62984460  0.49444877  0.92329462  1
  O  O55  1  0.86325187  0.36601238  0.92375675  1
  O  O56  1  0.50320623  0.13536655  0.92400966  1
  O  O57  1  0.63103068  0.13414607  0.42377080  1
  O  O58  1  0.51217067  0.36287637  0.42343135  1
  O  O59  1  0.86495297  0.49328565  0.42367594  1
  O  O60  1  0.35304176  0.49332619  0.07174250  1
  O  O61  1  0.15110956  0.65252143  0.07212679  1
  O  O62  1  0.51119704  0.85814443  0.07159370  1
  O  O63  1  0.34703587  0.84838916  0.57263862  1
  O  O64  1  0.50831328  0.64918950  0.57350586  1
  O  O65  1  0.14168649  0.49069459  0.57339878  1
  O  O66  1  0.29767975  0.82686681  0.25497448  1
  O  O67  1  0.53064745  0.70378315  0.25577422  1
  O  O68  1  0.16965246  0.47642299  0.25600996  1
  O  O69  1  0.29984091  0.47168825  0.75707433  1
  O  O70  1  0.17315487  0.70225474  0.75672608  1
  O  O71  1  0.52464464  0.82930608  0.75776611  1
loop_
_geom_bond_atom_site_label_1
_geom_bond_atom_site_label_2
_geom_bond_distance
_geom_bond_site_symmetry_2
Na0 O52 2.329268 1_555
Na0 O51 2.344094 1_555
Na0 O15 2.415222 1_555
Na0 O66 2.426890 1_655
Na0 O68 2.581710 1_655
Na0 O11 2.863496 1_655
Na0 O1 2.870583 1_555
Na0 O30 2.879038 1_655
Na1 O48 2.320311 1_555
Na1 O49 2.339674 1_555
Na1 O13 2.429885 1_555
Na1 O70 2.446861 1_545
Na1 O71 2.610144 1_545
Na1 O8 2.848272 1_545
Na1 O3 2.864640 1_555
Na1 O34 2.898930 1_545
Na2 O38 2.289958 1_555
Na2 O36 2.299429 1_545
Na2 O57 2.439040 1_555
Na2 O0 2.476482 1_555
Na2 O58 2.570268 1_555
Na2 O31 2.855399 1_545
Na2 O21 2.907311 1_555
Na2 O29 2.958587 1_545
Na3 O38 2.376619 1_655
Na3 O37 2.407910 1_545
Na3 O36 2.538835 1_645
Na3 O42 2.666401 1_555
Na3 O44 2.693881 1_545
Na3 O43 2.710568 1_655
Na4 O39 2.435005 1_565
Na4 O40 2.436788 1_555
Na4 O41 2.437200 1_455
Na4 O45 2.690215 1_456
Na4 O47 2.722550 1_566
Na4 O46 2.723251 1_466
Na5 O50 2.426122 1_555
Na5 O48 2.472030 1_555
Na5 O49 2.516350 1_555
Na5 O55 2.713384 1_555
Na5 O54 2.727029 1_555
Na5 O56 2.813625 1_555
Na6 O52 2.424020 1_555
Na6 O53 2.444854 1_555
Na6 O51 2.485040 1_555
Na6 O58 2.709429 1_555
Na6 O57 2.766657 1_555
Na6 O59 2.767893 1_555
Na7 O67 2.569908 1_555
Na7 O66 2.613894 1_555
Na7 O68 2.618675 1_555
Na7 O61 2.657778 1_555
Na7 O60 2.661465 1_555
Na7 O62 2.664281 1_555
Na8 O69 2.603571 1_555
Na8 O65 2.622017 1_555
Na8 O64 2.627318 1_555
Na8 O63 2.639807 1_555
Na8 O71 2.646697 1_555
Na8 O70 2.650551 1_555
Nb0 O43 1.951014 1_555
Nb0 O7 1.985638 1_555
Nb0 O8 2.005663 1_545
Nb0 O6 2.036315 1_445
Nb0 O42 2.067382 1_455
Nb0 O44 2.069004 1_445
Nb1 O45 1.957201 1_455
Nb1 O9 1.989134 1_455
Nb1 O11 1.999421 1_555
Nb1 O10 2.029836 1_565
Nb1 O47 2.063741 1_565
Nb1 O46 2.069713 1_465
Nb2 O19 1.905901 1_556
Nb2 O18 2.011062 1_556
Nb2 O20 2.013583 1_556
Nb2 O54 2.036244 1_555
Nb2 O55 2.047485 1_555
Nb2 O56 2.070923 1_555
Nb3 O21 1.928898 1_555
Nb3 O58 1.964527 1_555
Nb3 O22 1.984521 1_555
Nb3 O23 2.021619 1_555
Nb3 O59 2.070802 1_555
Nb3 O57 2.096045 1_555
Nb4 O61 1.919860 1_555
Nb4 O26 1.971300 1_554
Nb4 O25 1.976618 1_554
Nb4 O62 2.002557 1_555
Nb4 O60 2.011472 1_555
Nb4 O24 2.015981 1_554
Nb5 O28 1.920991 1_555
Nb5 O63 1.954740 1_555
Nb5 O27 1.998506 1_555
Nb5 O29 2.000001 1_555
Nb5 O65 2.003863 1_555
Nb5 O64 2.008547 1_555
Nb6 O32 1.892404 1_555
Nb6 O67 1.994373 1_555
Nb6 O68 2.005568 1_555
Nb6 O31 2.036593 1_555
Nb6 O30 2.066267 1_555
Nb6 O66 2.097890 1_555
Nb7 O35 1.994170 1_555
Nb7 O69 1.994640 1_555
Nb7 O71 2.002055 1_555
Nb7 O33 2.009694 1_555
Nb7 O70 2.035900 1_555
Nb7 O34 2.042921 1_555
O0 P0 1.514176 1_555
O0 Zn0 2.098149 1_455
O1 P1 1.499978 1_555
O1 Zn0 2.022847 1_565
O2 P2 1.489565 1_555
O2 Zn0 1.975707 1_555
O3 P3 1.498797 1_555
O3 Zn1 2.029532 1_445
O4 P4 1.494308 1_555
O4 Zn1 2.024762 1_555
O5 P5 1.488162 1_555
O5 Zn1 1.996009 1_545
O6 P5 1.583167 1_565
O7 P3 1.598884 1_555
O8 P4 1.609390 1_455
O9 P1 1.597613 1_555
O10 P2 1.579914 1_455
O11 P0 1.606049 1_565
O12 P6 1.486441 1_555
O12 Zn2 2.026441 1_555
O13 Si0 1.572537 1_555
O13 Zn2 2.009384 1_555
O14 P7 1.484321 1_555
O14 Zn2 2.048821 1_555
O15 Si1 1.573417 1_555
O15 Zn3 2.020803 1_555
O16 P8 1.487072 1_555
O16 Zn3 2.036098 1_555
O17 P9 1.486190 1_555
O17 Zn3 2.044906 1_555
O18 P9 1.574574 1_555
O19 Si1 1.672073 1_555
O20 P8 1.570296 1_555
O21 Si0 1.678791 1_555
O22 P7 1.583487 1_555
O23 P6 1.569052 1_555
O24 P10 1.546854 1_555
O25 P11 1.558142 1_555
O26 P12 1.561720 1_555
O27 P13 1.552256 1_555
O28 Si2 1.629182 1_555
O29 P14 1.555879 1_555
O30 P14 1.568632 1_555
O31 P13 1.576832 1_555
O32 Si2 1.669168 1_555
O33 P11 1.571017 1_555
O34 P12 1.571335 1_555
O35 P10 1.575807 1_555
O36 P14 1.505503 1_555
O36 Zn0 2.239883 1_465
O37 P13 1.486558 1_555
O37 Zn0 2.137509 1_565
O38 Si2 1.582832 1_555
O38 Zn0 2.080193 1_455
O39 P11 1.492657 1_555
O39 Zn1 2.169288 1_445
O40 P12 1.495478 1_555
O40 Zn1 2.168191 1_455
O41 P10 1.492159 1_555
O41 Zn1 2.149357 1_555
O42 P6 1.565392 1_555
O43 Si0 1.666315 1_555
O44 P7 1.559953 1_555
O45 Si1 1.662369 1_555
O46 P8 1.565192 1_555
O47 P9 1.566578 1_555
O48 P5 1.524452 1_555
O48 Zn2 2.185084 1_555
O49 P3 1.517608 1_555
O49 Zn2 2.185017 1_555
O50 P4 1.503153 1_555
O50 Zn2 2.098478 1_555
O51 P1 1.517666 1_555
O51 Zn3 2.195667 1_555
O52 P2 1.524046 1_555
O52 Zn3 2.174758 1_555
O53 P0 1.504803 1_555
O53 Zn3 2.100851 1_555
O54 P10 1.576757 1_555
O55 P11 1.572789 1_655
O56 P12 1.564761 1_545
O57 P13 1.576779 1_545
O58 Si2 1.669290 1_555
O59 P14 1.549434 1_655
O60 P9 1.568902 1_555
O61 Si1 1.662332 1_455
O62 P8 1.570618 1_565
O63 Si0 1.651623 1_565
O64 P7 1.563931 1_555
O65 P6 1.567161 1_455
O66 P0 1.607404 1_565
O67 P1 1.594627 1_555
O68 P2 1.625219 1_455
O69 P3 1.593984 1_555
O70 P4 1.625206 1_455
O71 P5 1.630177 1_565
