# generated using pymatgen
data_AsBr5F6
_symmetry_space_group_name_H-M   'P 1'
_cell_length_a   7.39783194
_cell_length_b   7.39783194
_cell_length_c   12.64395475
_cell_angle_alpha   77.79471993
_cell_angle_beta   77.79471993
_cell_angle_gamma   77.08179329
_symmetry_Int_Tables_number   1
_chemical_formula_structural   AsBr5F6
_chemical_formula_sum   'As2 Br10 F12'
_cell_volume   649.35833461
_cell_formula_units_Z   2
loop_
 _symmetry_equiv_pos_site_id
 _symmetry_equiv_pos_as_xyz
  1  'x, y, z'
loop_
 _atom_site_type_symbol
 _atom_site_label
 _atom_site_symmetry_multiplicity
 _atom_site_fract_x
 _atom_site_fract_y
 _atom_site_fract_z
 _atom_site_occupancy
  As  As0  1  0.36314200  0.63685800  0.25000000  1
  As  As1  1  0.63685800  0.36314200  0.75000000  1
  Br  Br0  1  0.86144100  0.29819700  0.08263000  1
  Br  Br1  1  0.67999600  0.91207300  0.32272900  1
  Br  Br2  1  0.91207300  0.67999600  0.82272900  1
  Br  Br3  1  0.32000400  0.08792700  0.67727100  1
  Br  Br4  1  0.08792700  0.32000400  0.17727100  1
  Br  Br5  1  0.70180300  0.13855900  0.41737000  1
  Br  Br6  1  0.13855900  0.70180300  0.91737000  1
  Br  Br7  1  0.29819700  0.86144100  0.58263000  1
  Br  Br8  1  0.00000000  0.00000000  0.00000000  1
  Br  Br9  1  0.00000000  0.00000000  0.50000000  1
  F  F0  1  0.61811000  0.35474000  0.89333200  1
  F  F1  1  0.64526000  0.38189000  0.60666800  1
  F  F2  1  0.38189000  0.64526000  0.10666800  1
  F  F3  1  0.35474000  0.61811000  0.39333200  1
  F  F4  1  0.65930100  0.11633800  0.77056100  1
  F  F5  1  0.88366200  0.34069900  0.72943900  1
  F  F6  1  0.38702600  0.38541000  0.26809400  1
  F  F7  1  0.11633800  0.65930100  0.27056100  1
  F  F8  1  0.38541000  0.38702600  0.76809400  1
  F  F9  1  0.61297400  0.61459000  0.73190600  1
  F  F10  1  0.61459000  0.61297400  0.23190600  1
  F  F11  1  0.34069900  0.88366200  0.22943900  1
loop_
_geom_bond_atom_site_label_1
_geom_bond_atom_site_label_2
_geom_bond_distance
_geom_bond_site_symmetry_2
As0 F7 1.763735 1_555
As0 F11 1.763735 1_555
As0 F3 1.776912 1_555
As0 F2 1.776912 1_555
As0 F6 1.798328 1_555
As0 F10 1.798328 1_555
As1 F4 1.763735 1_555
As1 F5 1.763735 1_555
As1 F1 1.776912 1_555
As1 F0 1.776912 1_555
As1 F8 1.798328 1_555
As1 F9 1.798328 1_555
Br0 Br4 2.305543 1_655
Br0 Br8 2.553310 1_655
Br1 Br5 2.305543 1_565
Br2 Br6 2.305543 1_655
Br3 Br7 2.305543 1_545
Br5 Br9 2.553310 1_655
Br6 Br8 2.553310 1_566
Br7 Br9 2.553310 1_565
