# generated using pymatgen
data_Na6Nb2In2Si5SO24
_symmetry_space_group_name_H-M   'P 1'
_cell_length_a   9.19020156
_cell_length_b   9.14537468
_cell_length_c   22.48609005
_cell_angle_alpha   89.93511881
_cell_angle_beta   90.05501965
_cell_angle_gamma   120.10871317
_symmetry_Int_Tables_number   1
_chemical_formula_structural   Na6Nb2In2Si5SO24
_chemical_formula_sum   'Na18 Nb6 In6 Si15 S3 O72'
_cell_volume   1634.91054784
_cell_formula_units_Z   3
loop_
 _symmetry_equiv_pos_site_id
 _symmetry_equiv_pos_as_xyz
  1  'x, y, z'
loop_
 _atom_site_type_symbol
 _atom_site_label
 _atom_site_symmetry_multiplicity
 _atom_site_fract_x
 _atom_site_fract_y
 _atom_site_fract_z
 _atom_site_occupancy
  Na  Na0  1  0.64987305  0.01968863  0.24725462  1
  Na  Na1  1  0.36189552  0.34477224  0.25440005  1
  Na  Na2  1  0.98926447  0.63098339  0.24814267  1
  Na  Na3  1  0.99007384  0.35268021  0.74837695  1
  Na  Na4  1  0.29558261  0.34231141  0.57916648  1
  Na  Na5  1  0.66061558  0.95536944  0.57802677  1
  Na  Na6  1  0.67266160  0.69654090  0.07057432  1
  Na  Na7  1  0.02180166  0.33867535  0.07835300  1
  Na  Na8  1  0.95450976  0.66352654  0.91001643  1
  Na  Na9  1  0.71746820  0.03929393  0.91730009  1
  Na  Na10  1  0.32615304  0.30071653  0.91017520  1
  Na  Na11  1  0.70168717  0.67395147  0.41710612  1
  Na  Na12  1  0.01342646  0.01907244  0.49495889  1
  Na  Na13  1  0.99186566  0.99431432  0.99645651  1
  Na  Na14  1  0.66171846  0.34223803  0.83022781  1
  Na  Na15  1  0.66207410  0.31545353  0.33164832  1
  Na  Na16  1  0.33064367  0.69983660  0.16137029  1
  Na  Na17  1  0.32836414  0.67946079  0.66168093  1
  Nb  Nb0  1  0.99453931  0.99128088  0.64687644  1
  Nb  Nb1  1  0.99404895  0.99446434  0.15055703  1
  Nb  Nb2  1  0.66549417  0.33470154  0.68704926  1
  Nb  Nb3  1  0.65443274  0.32062841  0.47974911  1
  Nb  Nb4  1  0.34578086  0.67081875  0.31416593  1
  Nb  Nb5  1  0.33580370  0.65286267  0.80673091  1
  In  In0  1  0.00414916  0.01175697  0.35277272  1
  In  In1  1  0.99120305  0.99745937  0.84573205  1
  In  In2  1  0.67239307  0.33055225  0.18321186  1
  In  In3  1  0.68687661  0.34591058  0.98178918  1
  In  In4  1  0.33571839  0.67400923  0.01782231  1
  In  In5  1  0.33214240  0.66397807  0.52183780  1
  Si  Si0  1  0.29343216  0.99951242  0.25279140  1
  Si  Si1  1  0.70630568  0.70387435  0.25410203  1
  Si  Si2  1  0.00208737  0.29743019  0.25019854  1
  Si  Si3  1  0.29486214  0.28437768  0.75050117  1
  Si  Si4  1  0.00102933  0.70435258  0.75260971  1
  Si  Si5  1  0.70072454  0.99846851  0.74987039  1
  Si  Si6  1  0.95462338  0.33259506  0.58474883  1
  Si  Si7  1  0.36929826  0.04159010  0.58465591  1
  Si  Si8  1  0.67505483  0.62551992  0.58106968  1
  Si  Si9  1  0.97001119  0.64118145  0.08346093  1
  Si  Si10  1  0.66728735  0.03301655  0.08390717  1
  Si  Si11  1  0.62656495  0.66476252  0.91770455  1
  Si  Si12  1  0.04168046  0.37148256  0.91698573  1
  Si  Si13  1  0.63042079  0.96356620  0.42078749  1
  Si  Si14  1  0.33473496  0.36841802  0.42099510  1
  S  S0  1  0.36274392  0.32303982  0.08294594  1
  S  S1  1  0.33476630  0.95984930  0.91445755  1
  S  S2  1  0.03728393  0.65815768  0.41608459  1
  O  O0  1  0.21671690  0.04310443  0.30901148  1
  O  O1  1  0.82135591  0.77243473  0.31243757  1
  O  O2  1  0.94453235  0.16318020  0.30322896  1
  O  O3  1  0.22391538  0.18884229  0.81266221  1
  O  O4  1  0.97391668  0.77468713  0.81449312  1
  O  O5  1  0.81298944  0.04623633  0.80956922  1
  O  O6  1  0.80288523  0.97527392  0.69296090  1
  O  O7  1  0.16425163  0.19318771  0.69447753  1
  O  O8  1  0.01919412  0.83187882  0.69641223  1
  O  O9  1  0.80449062  0.83576608  0.19663366  1
  O  O10  1  0.03493146  0.20862466  0.18986054  1
  O  O11  1  0.16486387  0.97489713  0.19534248  1
  O  O12  1  0.85934732  0.34186923  0.64476122  1
  O  O13  1  0.49617946  0.15109464  0.63877570  1
  O  O14  1  0.66475749  0.50438469  0.63658179  1
  O  O15  1  0.87901004  0.53175091  0.14225381  1
  O  O16  1  0.64753819  0.11355110  0.14490127  1
  O  O17  1  0.45830474  0.33568107  0.13726038  1
  O  O18  1  0.44448325  0.30993828  0.02819445  1
  O  O19  1  0.85038766  0.57298585  0.02399504  1
  O  O20  1  0.70078908  0.14927020  0.02410126  1
  O  O21  1  0.46591522  0.16606858  0.52499206  1
  O  O22  1  0.69288304  0.53508491  0.51990997  1
  O  O23  1  0.82541541  0.30946525  0.52840430  1
  O  O24  1  0.54964466  0.69485501  0.97799192  1
  O  O25  1  0.14441378  0.45573207  0.97779027  1
  O  O26  1  0.31493981  0.86766600  0.97045647  1
  O  O27  1  0.54356303  0.85963677  0.48031300  1
  O  O28  1  0.32110629  0.45315816  0.48151488  1
  O  O29  1  0.13316770  0.67104869  0.46958962  1
  O  O30  1  0.12563526  0.65066312  0.36089730  1
  O  O31  1  0.50273266  0.86005784  0.36197995  1
  O  O32  1  0.35378899  0.50109798  0.36331780  1
  O  O33  1  0.14944781  0.49325769  0.85876418  1
  O  O34  1  0.34607827  0.86753444  0.86262124  1
  O  O35  1  0.50148419  0.65390925  0.86102430  1
  O  O36  1  0.00977783  0.80375449  0.41485465  1
  O  O37  1  0.80752144  0.96674228  0.41535085  1
  O  O38  1  0.17734930  0.18123094  0.41568256  1
  O  O39  1  0.02385974  0.18429912  0.91456038  1
  O  O40  1  0.18637549  0.98324924  0.91240198  1
  O  O41  1  0.81613640  0.82785571  0.91323513  1
  O  O42  1  0.96343489  0.15512937  0.58807857  1
  O  O43  1  0.19101180  0.04064596  0.59024839  1
  O  O44  1  0.84296494  0.81546636  0.58835596  1
  O  O45  1  0.98625009  0.83071835  0.09117790  1
  O  O46  1  0.84748189  0.02485380  0.08902361  1
  O  O47  1  0.19087709  0.17143322  0.08484644  1
  O  O48  1  0.67812404  0.16376015  0.74089599  1
  O  O49  1  0.48649856  0.32390375  0.74120935  1
  O  O50  1  0.84109620  0.51154598  0.74351968  1
  O  O51  1  0.65617617  0.51112179  0.24175773  1
  O  O52  1  0.85082226  0.33910618  0.24591010  1
  O  O53  1  0.48363706  0.15516347  0.24487256  1
  O  O54  1  0.62338890  0.48315070  0.91648739  1
  O  O55  1  0.85807097  0.36141382  0.91307754  1
  O  O56  1  0.49164517  0.12862092  0.91554760  1
  O  O57  1  0.64608417  0.15263246  0.42137938  1
  O  O58  1  0.52022566  0.37371937  0.41847164  1
  O  O59  1  0.86895958  0.49930523  0.41607004  1
  O  O60  1  0.34599070  0.47649121  0.08247810  1
  O  O61  1  0.14987046  0.64842563  0.08001721  1
  O  O62  1  0.51512349  0.83713712  0.08182327  1
  O  O63  1  0.35985573  0.86255238  0.58216802  1
  O  O64  1  0.50944083  0.64453778  0.58505183  1
  O  O65  1  0.14296019  0.49114838  0.58278292  1
  O  O66  1  0.29554208  0.81872997  0.25731391  1
  O  O67  1  0.52607564  0.70747604  0.25820968  1
  O  O68  1  0.18127556  0.47898184  0.25914068  1
  O  O69  1  0.30590401  0.47428020  0.75396861  1
  O  O70  1  0.17000126  0.68271690  0.75523929  1
  O  O71  1  0.51526050  0.82762103  0.75590218  1
loop_
_geom_bond_atom_site_label_1
_geom_bond_atom_site_label_2
_geom_bond_distance
_geom_bond_site_symmetry_2
Na0 O53 2.402216 1_555
Na0 O16 2.459321 1_555
Na0 O67 2.499515 1_545
Na0 O52 2.555827 1_555
Na0 O2 2.659193 1_555
Na0 O66 2.833533 1_545
Na0 O9 2.923949 1_545
Na0 O31 2.938090 1_545
Na1 O51 2.362651 1_555
Na1 O53 2.500471 1_555
Na1 O68 2.513558 1_555
Na1 O0 2.683637 1_555
Na1 O17 2.794433 1_555
Na1 O32 2.857074 1_555
Na1 O67 2.875044 1_555
Na1 O10 2.987918 1_555
Na2 O52 2.310717 1_555
Na2 O66 2.462588 1_655
Na2 O15 2.568513 1_555
Na2 O51 2.688080 1_555
Na2 O68 2.750802 1_655
Na2 O30 2.792853 1_655
Na2 O1 2.855892 1_555
Na2 O11 2.968023 1_655
Na3 O50 2.447943 1_555
Na3 O48 2.502525 1_555
Na3 O69 2.537408 1_655
Na3 O12 2.599540 1_555
Na3 O70 2.619443 1_655
Na3 O5 2.795664 1_555
Na3 O33 2.840838 1_655
Na3 O7 2.917030 1_655
Na4 O28 2.379413 1_555
Na4 O65 2.396399 1_555
Na4 O43 2.436341 1_555
Na4 O64 2.463744 1_555
Na4 O42 2.654464 1_455
Na4 O7 2.895917 1_555
Na4 O21 3.011945 1_555
Na5 O27 2.409631 1_555
Na5 O63 2.452653 1_555
Na5 O42 2.456090 1_565
Na5 O64 2.464345 1_555
Na5 O44 2.578597 1_555
Na5 O6 2.859662 1_555
Na6 O24 2.364404 1_554
Na6 O62 2.383815 1_555
Na6 O45 2.544932 1_555
Na6 O19 2.626641 1_555
Na6 O46 2.632557 1_565
Na6 O60 2.659583 1_555
Na7 O61 2.463009 1_555
Na7 O46 2.499458 1_455
Na7 O25 2.513609 1_554
Na7 O60 2.589601 1_555
Na7 O47 2.675541 1_555
Na7 O10 2.802265 1_555
Na7 O20 2.839541 1_455
Na8 O4 2.343682 1_555
Na8 O41 2.408073 1_555
Na8 O55 2.442731 1_555
Na8 O40 2.615767 1_655
Na8 O54 2.639429 1_555
Na8 O19 2.715673 1_556
Na9 O39 2.438219 1_655
Na9 O41 2.515845 1_545
Na9 O55 2.556868 1_555
Na9 O5 2.567242 1_555
Na9 O56 2.583951 1_555
Na9 O20 2.638812 1_556
Na10 O54 2.386001 1_555
Na10 O3 2.402943 1_555
Na10 O39 2.427767 1_555
Na10 O40 2.517952 1_545
Na10 O56 2.684333 1_555
Na10 O18 2.852241 1_556
Na11 O37 2.346151 1_555
Na11 O58 2.393118 1_555
Na11 O36 2.461018 1_655
Na11 O1 2.562512 1_555
Na11 O22 2.617974 1_555
Na11 O59 2.716311 1_555
Na12 O38 2.324697 1_555
Na12 O37 2.470035 1_445
Na12 O42 2.593268 1_455
Na12 O43 2.639090 1_555
Na12 O36 2.657975 1_545
Na12 O44 2.720809 1_445
Na13 O41 2.441628 1_555
Na13 O39 2.444944 1_665
Na13 O46 2.559234 1_566
Na13 O45 2.587117 1_556
Na13 O47 2.635759 1_666
Na13 O40 2.639399 1_655
Na14 O54 2.451419 1_555
Na14 O49 2.520236 1_555
Na14 O50 2.520903 1_555
Na14 O55 2.536626 1_555
Na14 O56 2.621830 1_555
Na14 O48 2.641371 1_555
Na15 O57 2.466625 1_555
Na15 O53 2.496793 1_555
Na15 O52 2.530145 1_555
Na15 O58 2.549328 1_555
Na15 O59 2.615077 1_555
Na15 O51 2.716545 1_555
Na16 O62 2.348496 1_555
Na16 O61 2.353706 1_555
Na16 O66 2.509833 1_555
Na16 O60 2.763464 1_555
Na16 O67 2.799880 1_555
Na16 O68 2.830416 1_555
Na17 O63 2.364791 1_555
Na17 O65 2.464488 1_555
Na17 O64 2.525939 1_555
Na17 O70 2.567947 1_555
Na17 O71 2.634285 1_555
Na17 O69 2.733770 1_555
Nb0 O8 1.935052 1_655
Nb0 O6 1.985461 1_555
Nb0 O44 2.002864 1_555
Nb0 O7 2.024782 1_665
Nb0 O43 2.066581 1_665
Nb0 O42 2.121240 1_565
Nb1 O9 1.917843 1_555
Nb1 O11 1.946514 1_655
Nb1 O45 1.981699 1_555
Nb1 O10 2.005804 1_665
Nb1 O46 2.043823 1_565
Nb1 O47 2.266537 1_665
Nb2 O14 1.924194 1_555
Nb2 O13 1.948989 1_555
Nb2 O12 1.992074 1_555
Nb2 O49 2.009863 1_555
Nb2 O48 2.025090 1_555
Nb2 O50 2.052946 1_555
Nb3 O21 1.891493 1_555
Nb3 O23 1.958056 1_555
Nb3 O57 1.993778 1_555
Nb3 O22 2.023634 1_555
Nb3 O58 2.061947 1_555
Nb3 O59 2.318488 1_555
Nb4 O31 1.930909 1_555
Nb4 O32 1.935646 1_555
Nb4 O67 1.971487 1_555
Nb4 O68 2.057857 1_555
Nb4 O66 2.073351 1_555
Nb4 O30 2.204750 1_555
Nb5 O69 1.924567 1_555
Nb5 O35 1.947002 1_555
Nb5 O33 1.981060 1_555
Nb5 O71 1.983837 1_555
Nb5 O70 2.037223 1_555
Nb5 O34 2.293923 1_555
In0 O2 2.053185 1_455
In0 O0 2.075564 1_555
In0 O38 2.112444 1_555
In0 O37 2.161515 1_445
In0 O1 2.178937 1_445
In0 O36 2.379622 1_545
In1 O5 2.066953 1_565
In1 O4 2.085114 1_555
In1 O3 2.105916 1_665
In1 O41 2.189522 1_555
In1 O39 2.212622 1_665
In1 O40 2.389530 1_655
In2 O16 2.069163 1_555
In2 O15 2.081749 1_555
In2 O52 2.133030 1_555
In2 O53 2.170805 1_555
In2 O51 2.175906 1_555
In2 O17 2.242663 1_555
In3 O19 2.083810 1_556
In3 O20 2.093374 1_556
In3 O55 2.159393 1_555
In3 O54 2.191069 1_555
In3 O18 2.329783 1_556
In3 O56 2.410645 1_555
In4 O24 2.081036 1_554
In4 O25 2.089524 1_554
In4 O61 2.128547 1_555
In4 O62 2.132530 1_555
In4 O26 2.154567 1_554
In4 O60 2.355946 1_555
In5 O28 2.087410 1_555
In5 O27 2.088176 1_555
In5 O65 2.154464 1_555
In5 O63 2.178087 1_555
In5 O29 2.200602 1_555
In5 O64 2.234431 1_555
O0 Si0 1.593415 1_545
O1 Si1 1.601817 1_555
O2 Si2 1.598582 1_655
O3 Si3 1.603016 1_555
O4 Si4 1.604883 1_655
O5 Si5 1.613633 1_545
O6 Si5 1.663364 1_555
O7 Si3 1.648767 1_555
O8 Si4 1.669323 1_555
O9 Si1 1.686934 1_555
O10 Si2 1.685455 1_555
O11 Si0 1.687127 1_555
O12 Si6 1.634600 1_555
O13 Si7 1.634628 1_555
O14 Si8 1.638987 1_555
O15 Si9 1.614974 1_555
O16 Si10 1.610387 1_555
O17 S0 1.473994 1_555
O18 S0 1.478782 1_555
O19 Si9 1.642171 1_555
O20 Si10 1.644015 1_555
O21 Si7 1.693805 1_555
O22 Si8 1.655637 1_555
O23 Si6 1.675021 1_555
O24 Si11 1.615878 1_555
O25 Si12 1.620035 1_555
O26 S1 1.474256 1_555
O27 Si13 1.603163 1_555
O28 Si14 1.602593 1_555
O29 S2 1.460120 1_555
O30 S2 1.503961 1_555
O31 Si13 1.705030 1_555
O32 Si14 1.723010 1_555
O33 Si12 1.681575 1_555
O34 S1 1.474009 1_555
O35 Si11 1.684825 1_555
O36 S2 1.474877 1_555
O37 Si13 1.617956 1_555
O38 Si14 1.597764 1_555
O39 Si12 1.636821 1_555
O40 S1 1.483368 1_555
O41 Si11 1.631859 1_555
O42 Si6 1.666684 1_555
O43 Si7 1.639125 1_555
O44 Si8 1.654222 1_555
O45 Si9 1.672753 1_555
O46 Si10 1.698491 1_555
O47 S0 1.490583 1_555
O48 Si5 1.638047 1_545
O49 Si3 1.624156 1_555
O50 Si4 1.646616 1_655
O51 Si1 1.607113 1_555
O52 Si2 1.618132 1_655
O53 Si0 1.617766 1_545
O54 Si11 1.646718 1_555
O55 Si12 1.645415 1_655
O56 S1 1.492973 1_545
O57 Si13 1.661611 1_545
O58 Si14 1.681910 1_555
O59 S2 1.499606 1_655
O60 S0 1.486610 1_555
O61 Si9 1.622643 1_455
O62 Si10 1.628979 1_565
O63 Si7 1.596645 1_565
O64 Si8 1.618863 1_555
O65 Si6 1.606973 1_455
O66 Si0 1.666126 1_555
O67 Si1 1.675754 1_555
O68 Si2 1.663127 1_555
O69 Si3 1.689994 1_555
O70 Si4 1.661979 1_555
O71 Si5 1.641011 1_555
