# generated using pymatgen
data_NaMgSnP(SO6)2
_symmetry_space_group_name_H-M   'P 1'
_cell_length_a   8.66772447
_cell_length_b   8.69649378
_cell_length_c   22.83482378
_cell_angle_alpha   89.61890581
_cell_angle_beta   90.00000000
_cell_angle_gamma   119.89062744
_symmetry_Int_Tables_number   1
_chemical_formula_structural   NaMgSnP(SO6)2
_chemical_formula_sum   'Na6 Mg6 Sn6 P6 S12 O72'
_cell_volume   1492.25275554
_cell_formula_units_Z   6
loop_
 _symmetry_equiv_pos_site_id
 _symmetry_equiv_pos_as_xyz
  1  'x, y, z'
loop_
 _atom_site_type_symbol
 _atom_site_label
 _atom_site_symmetry_multiplicity
 _atom_site_fract_x
 _atom_site_fract_y
 _atom_site_fract_z
 _atom_site_occupancy
  Na  Na0  1  0.97806837  0.98419010  0.50507203  1
  Na  Na1  1  0.00612172  0.98419010  0.00507203  1
  Na  Na2  1  0.65625376  0.31133679  0.83862511  1
  Na  Na3  1  0.65508403  0.31133679  0.33862511  1
  Na  Na4  1  0.32057800  0.67695034  0.17218033  1
  Na  Na5  1  0.35637134  0.67695034  0.67218033  1
  Mg  Mg0  1  0.98655855  0.99040326  0.64647983  1
  Mg  Mg1  1  0.00384471  0.99040326  0.14647983  1
  Mg  Mg2  1  0.66580450  0.33272801  0.98061108  1
  Mg  Mg3  1  0.66692451  0.33272801  0.48061108  1
  Mg  Mg4  1  0.34061460  0.68308050  0.31416935  1
  Mg  Mg5  1  0.34246490  0.68308050  0.81416935  1
  Sn  Sn0  1  0.00321785  0.99977123  0.34932324  1
  Sn  Sn1  1  0.99655339  0.99977123  0.84932324  1
  Sn  Sn2  1  0.66738162  0.33138815  0.68287112  1
  Sn  Sn3  1  0.66400753  0.33138815  0.18287112  1
  Sn  Sn4  1  0.32099701  0.67270990  0.01620805  1
  Sn  Sn5  1  0.35171189  0.67270990  0.51620805  1
  P  P0  1  0.29494909  0.00189649  0.24772620  1
  P  P1  1  0.70694740  0.00189649  0.74772620  1
  P  P2  1  0.66848346  0.62280588  0.58122857  1
  P  P3  1  0.95432343  0.62280588  0.08122857  1
  P  P4  1  0.33319672  0.96768027  0.91381057  1
  P  P5  1  0.63448255  0.96768027  0.41381057  1
  S  S0  1  0.70438558  0.70404140  0.24849023  1
  S  S1  1  0.00118817  0.29465290  0.24789278  1
  S  S2  1  0.29346473  0.29465290  0.74789278  1
  S  S3  1  0.99965582  0.70404140  0.74849023  1
  S  S4  1  0.96673686  0.33758438  0.58070020  1
  S  S5  1  0.36937392  0.03694955  0.58198577  1
  S  S6  1  0.66757663  0.03694955  0.08198577  1
  S  S7  1  0.37084852  0.33758438  0.08070020  1
  S  S8  1  0.62271353  0.66556910  0.91619113  1
  S  S9  1  0.04140112  0.37294084  0.91442140  1
  S  S10  1  0.33153872  0.37294084  0.41442140  1
  S  S11  1  0.04285458  0.66556910  0.41619113  1
  O  O0  1  0.22244999  0.03997404  0.30677804  1
  O  O1  1  0.81142917  0.77747279  0.30402829  1
  O  O2  1  0.96445930  0.18606074  0.30377847  1
  O  O3  1  0.22160144  0.18606074  0.80377847  1
  O  O4  1  0.96604362  0.77747279  0.80402829  1
  O  O5  1  0.81752405  0.03997404  0.80677804  1
  O  O6  1  0.80420939  0.98959290  0.69529598  1
  O  O7  1  0.18973337  0.20390619  0.69684019  1
  O  O8  1  0.02282413  0.81424539  0.69759257  1
  O  O9  1  0.79142126  0.81424539  0.19759257  1
  O  O10  1  0.01417282  0.20390619  0.19684019  1
  O  O11  1  0.18538351  0.98959290  0.19529598  1
  O  O12  1  0.89383166  0.36970315  0.63684343  1
  O  O13  1  0.48007760  0.10655747  0.63716045  1
  O  O14  1  0.63273933  0.51229718  0.64024336  1
  O  O15  1  0.87955885  0.51229718  0.14024336  1
  O  O16  1  0.62648086  0.10655747  0.13716045  1
  O  O17  1  0.47587250  0.36970315  0.13684343  1
  O  O18  1  0.45921968  0.31390155  0.03065249  1
  O  O19  1  0.84680084  0.52643272  0.02849302  1
  O  O20  1  0.68259021  0.14164291  0.03048967  1
  O  O21  1  0.45905371  0.14164291  0.53048967  1
  O  O22  1  0.67963288  0.52643272  0.52849302  1
  O  O23  1  0.85468287  0.31390155  0.53065249  1
  O  O24  1  0.54478491  0.69440508  0.97162560  1
  O  O25  1  0.15004244  0.44362984  0.96998519  1
  O  O26  1  0.29125433  0.85638321  0.97311325  1
  O  O27  1  0.56512787  0.85638321  0.47311325  1
  O  O28  1  0.29358640  0.44362984  0.46998519  1
  O  O29  1  0.14961917  0.69440508  0.47162560  1
  O  O30  1  0.13020135  0.64711974  0.36483113  1
  O  O31  1  0.52161107  0.87297568  0.36179579  1
  O  O32  1  0.34447188  0.47840732  0.36329990  1
  O  O33  1  0.13393444  0.47840732  0.86329990  1
  O  O34  1  0.35136360  0.87297568  0.86179579  1
  O  O35  1  0.51691739  0.64711974  0.86483113  1
  O  O36  1  0.02806977  0.83191331  0.41271406  1
  O  O37  1  0.82498816  0.98347377  0.40967977  1
  O  O38  1  0.17040149  0.18956143  0.41192501  1
  O  O39  1  0.01915993  0.18956143  0.91192501  1
  O  O40  1  0.15848561  0.98347377  0.90967977  1
  O  O41  1  0.80384354  0.83191331  0.91271406  1
  O  O42  1  0.99355908  0.18519028  0.58794859  1
  O  O43  1  0.19630298  0.02423504  0.59025765  1
  O  O44  1  0.83082014  0.80664642  0.58710172  1
  O  O45  1  0.97582628  0.80664642  0.08710172  1
  O  O46  1  0.82793206  0.02423504  0.09025765  1
  O  O47  1  0.19163120  0.18519028  0.08794859  1
  O  O48  1  0.68766559  0.17455137  0.74444334  1
  O  O49  1  0.47793618  0.31628230  0.74524996  1
  O  O50  1  0.83323940  0.52501447  0.74464134  1
  O  O51  1  0.69177608  0.52501447  0.24464134  1
  O  O52  1  0.83834712  0.31628230  0.24524996  1
  O  O53  1  0.48688678  0.17455137  0.24444334  1
  O  O54  1  0.64710603  0.51202101  0.92287182  1
  O  O55  1  0.86634737  0.35746361  0.92116201  1
  O  O56  1  0.49532564  0.15025468  0.92197891  1
  O  O57  1  0.65493003  0.15025468  0.42197891  1
  O  O58  1  0.49111723  0.35746361  0.42116201  1
  O  O59  1  0.86491598  0.51202101  0.42287182  1
  O  O60  1  0.35985306  0.50479410  0.07543218  1
  O  O61  1  0.14604411  0.63947071  0.08027310  1
  O  O62  1  0.50809955  0.85186311  0.07810395  1
  O  O63  1  0.34376256  0.85186311  0.57810395  1
  O  O64  1  0.49342560  0.63947071  0.58027310  1
  O  O65  1  0.14494004  0.50479410  0.57543218  1
  O  O66  1  0.31467949  0.83872867  0.25445965  1
  O  O67  1  0.52552296  0.67836241  0.25562662  1
  O  O68  1  0.16009629  0.46878631  0.25529652  1
  O  O69  1  0.30868902  0.46878631  0.75529652  1
  O  O70  1  0.15283845  0.67836241  0.75562662  1
  O  O71  1  0.52404819  0.83872867  0.75445965  1
loop_
_geom_bond_atom_site_label_1
_geom_bond_atom_site_label_2
_geom_bond_distance
_geom_bond_site_symmetry_2
Na0 O44 2.349248 1_555
Na0 O42 2.542646 1_565
Na0 O37 2.548994 1_555
Na0 O43 2.614509 1_665
Na0 O36 2.645471 1_655
Na0 O38 2.734046 1_665
Na1 O45 2.349248 1_455
Na1 O47 2.542646 1_565
Na1 O40 2.548994 1_554
Na1 O46 2.614509 1_465
Na1 O41 2.645471 1_454
Na1 O39 2.734046 1_564
Na2 O56 2.355390 1_555
Na2 O55 2.512213 1_555
Na2 O48 2.543854 1_555
Na2 O54 2.633556 1_555
Na2 O49 2.646145 1_555
Na2 O50 2.741879 1_555
Na3 O57 2.355390 1_555
Na3 O58 2.512213 1_555
Na3 O53 2.543854 1_555
Na3 O59 2.633556 1_555
Na3 O52 2.646145 1_555
Na3 O51 2.741879 1_555
Na4 O66 2.370415 1_555
Na4 O68 2.501751 1_555
Na4 O61 2.513356 1_555
Na4 O67 2.601000 1_555
Na4 O62 2.657600 1_555
Na4 O60 2.791063 1_555
Na5 O71 2.370415 1_555
Na5 O69 2.501751 1_555
Na5 O64 2.513356 1_555
Na5 O70 2.601000 1_555
Na5 O63 2.657600 1_555
Na5 O65 2.791063 1_555
Mg0 O6 1.931208 1_555
Mg0 O44 2.023156 1_555
Mg0 O8 2.064973 1_655
Mg0 O43 2.121738 1_665
Mg0 O42 2.127674 1_565
Mg0 O7 2.154209 1_665
Mg1 O11 1.931208 1_555
Mg1 O45 2.023156 1_455
Mg1 O9 2.064973 1_455
Mg1 O46 2.121738 1_465
Mg1 O47 2.127674 1_565
Mg1 O10 2.154209 1_565
Mg2 O19 1.971009 1_556
Mg2 O56 2.045814 1_555
Mg2 O18 2.060139 1_556
Mg2 O20 2.072607 1_556
Mg2 O54 2.102454 1_555
Mg2 O55 2.129331 1_555
Mg3 O22 1.971009 1_555
Mg3 O57 2.045814 1_555
Mg3 O23 2.060139 1_555
Mg3 O21 2.072607 1_555
Mg3 O59 2.102454 1_555
Mg3 O58 2.129331 1_555
Mg4 O31 1.952646 1_555
Mg4 O66 2.005119 1_555
Mg4 O30 2.046725 1_555
Mg4 O67 2.103279 1_555
Mg4 O32 2.112033 1_555
Mg4 O68 2.203535 1_555
Mg5 O34 1.952646 1_555
Mg5 O71 2.005119 1_555
Mg5 O35 2.046725 1_555
Mg5 O70 2.103279 1_555
Mg5 O33 2.112033 1_555
Mg5 O69 2.203535 1_555
O0 P0 1.592536 1_555
O0 Sn0 2.002575 1_545
O1 S0 1.515661 1_555
O1 Sn0 2.096209 1_655
O2 S1 1.518564 1_655
O2 Sn0 2.083058 1_645
O3 S2 1.518564 1_555
O3 Sn1 2.083058 1_445
O4 S3 1.515661 1_555
O4 Sn1 2.096209 1_555
O5 P1 1.592536 1_555
O5 Sn1 2.002576 1_545
O6 P1 1.499048 1_565
O7 S2 1.447505 1_555
O8 S3 1.450170 1_455
O9 S0 1.450170 1_555
O10 S1 1.447505 1_555
O11 P0 1.499048 1_565
O12 S4 1.517106 1_555
O12 Sn2 2.100427 1_555
O13 S5 1.518468 1_555
O13 Sn2 2.100366 1_555
O14 P2 1.587953 1_555
O14 Sn2 1.990811 1_555
O15 P3 1.587953 1_555
O15 Sn3 1.990811 1_555
O16 S6 1.518468 1_555
O16 Sn3 2.100366 1_555
O17 S7 1.517106 1_555
O17 Sn3 2.100427 1_555
O18 S7 1.447608 1_555
O19 P3 1.502010 1_555
O20 S6 1.447861 1_555
O21 S5 1.447861 1_555
O22 P2 1.502009 1_555
O23 S4 1.447608 1_555
O24 S8 1.514770 1_555
O24 Sn4 2.113582 1_556
O25 S9 1.519174 1_555
O25 Sn4 2.089095 1_556
O26 P4 1.592045 1_555
O26 Sn4 1.993933 1_556
O27 P5 1.592045 1_555
O27 Sn5 1.993933 1_555
O28 S10 1.519174 1_555
O28 Sn5 2.089095 1_555
O29 S11 1.514770 1_555
O29 Sn5 2.113582 1_555
O30 S11 1.448435 1_555
O31 P5 1.502041 1_555
O32 S10 1.449065 1_555
O33 S9 1.449065 1_555
O34 P4 1.502041 1_555
O35 S8 1.448435 1_555
O36 S11 1.516131 1_555
O36 Sn0 2.134937 1_555
O37 P5 1.590022 1_555
O37 Sn0 2.021220 1_655
O38 S10 1.509452 1_555
O38 Sn0 2.124874 1_545
O39 S9 1.509455 1_555
O39 Sn1 2.124874 1_445
O40 P4 1.590014 1_555
O40 Sn1 2.021220 1_455
O41 S8 1.516136 1_555
O41 Sn1 2.134937 1_555
O42 S4 1.463567 1_555
O43 S5 1.460376 1_555
O44 P2 1.521391 1_555
O45 P3 1.521395 1_555
O46 S6 1.460367 1_555
O47 S7 1.463572 1_555
O48 P1 1.592685 1_555
O48 Sn2 2.020278 1_555
O49 S2 1.515170 1_555
O49 Sn2 2.127222 1_555
O50 S3 1.508588 1_555
O50 Sn2 2.123803 1_555
O51 S0 1.508591 1_555
O51 Sn3 2.123803 1_555
O52 S1 1.515161 1_655
O52 Sn3 2.127222 1_555
O53 P0 1.592690 1_555
O53 Sn3 2.020278 1_555
O54 S8 1.459370 1_555
O55 S9 1.462954 1_655
O56 P4 1.520087 1_545
O57 P5 1.520080 1_545
O58 S10 1.462971 1_555
O59 S11 1.459360 1_655
O60 S7 1.507937 1_555
O60 Sn4 2.130416 1_555
O61 P3 1.594653 1_455
O61 Sn4 2.020087 1_555
O62 S6 1.514510 1_565
O62 Sn4 2.136835 1_555
O63 S5 1.514503 1_565
O63 Sn5 2.136835 1_555
O64 P2 1.594671 1_555
O64 Sn5 2.020087 1_555
O65 S4 1.507928 1_455
O65 Sn5 2.130416 1_555
O66 P0 1.518348 1_565
O67 S0 1.460959 1_555
O68 S1 1.464061 1_555
O69 S2 1.464065 1_555
O70 S3 1.460950 1_455
O71 P1 1.518353 1_565
