# generated using pymatgen
data_Ba4I6O
_symmetry_space_group_name_H-M   'P 1'
_cell_length_a   11.02837175
_cell_length_b   11.02873013
_cell_length_c   8.56574089
_cell_angle_alpha   89.99923768
_cell_angle_beta   89.99989170
_cell_angle_gamma   120.00066662
_symmetry_Int_Tables_number   1
_chemical_formula_structural   Ba4I6O
_chemical_formula_sum   'Ba8 I12 O2'
_cell_volume   902.25553378
_cell_formula_units_Z   2
loop_
 _symmetry_equiv_pos_site_id
 _symmetry_equiv_pos_as_xyz
  1  'x, y, z'
loop_
 _atom_site_type_symbol
 _atom_site_label
 _atom_site_symmetry_multiplicity
 _atom_site_fract_x
 _atom_site_fract_y
 _atom_site_fract_z
 _atom_site_occupancy
  Ba  Ba0  1  0.79568019  0.59134583  0.12928428  1
  Ba  Ba1  1  0.20432080  0.79567377  0.62928651  1
  Ba  Ba2  1  0.59135629  0.79566917  0.62928614  1
  Ba  Ba3  1  0.40865062  0.20431676  0.12928291  1
  Ba  Ba4  1  0.79567395  0.20432174  0.12928693  1
  Ba  Ba5  1  0.20432778  0.40863993  0.62928461  1
  Ba  Ba6  1  0.66666992  0.33332539  0.52292634  1
  Ba  Ba7  1  0.33333248  0.66666371  0.02293586  1
  I  I0  1  0.86141173  0.72282410  0.51296764  1
  I  I1  1  0.13857679  0.86142255  0.01299359  1
  I  I2  1  0.72280090  0.86138931  0.01301559  1
  I  I3  1  0.27717665  0.13858789  0.51296535  1
  I  I4  1  0.86139974  0.13859687  0.51298791  1
  I  I5  1  0.13860755  0.27718469  0.01299601  1
  I  I6  1  0.53317488  0.46682634  0.82623610  1
  I  I7  1  0.06629759  0.53322944  0.32626881  1
  I  I8  1  0.46673774  0.93368568  0.32625589  1
  I  I9  1  0.53313345  0.06624142  0.82623290  1
  I  I10  1  0.93375432  0.46686397  0.82623089  1
  I  I11  1  0.46691031  0.53320762  0.32622830  1
  O  O0  1  0.66666929  0.33332530  0.22340820  1
  O  O1  1  0.33333604  0.66665951  0.72341624  1
loop_
_geom_bond_atom_site_label_1
_geom_bond_atom_site_label_2
_geom_bond_distance
_geom_bond_site_symmetry_2
Ba0 O0 2.592899 1_555
Ba0 I0 3.518290 1_555
Ba0 I1 3.591737 1_655
Ba0 I2 3.591861 1_555
Ba0 I6 3.609666 1_554
Ba0 I10 3.610087 1_554
Ba0 I7 3.752045 1_655
Ba0 I11 3.752129 1_555
Ba1 O1 2.592989 1_555
Ba1 I1 3.518515 1_556
Ba1 I0 3.591838 1_455
Ba1 I3 3.591979 1_565
Ba1 I8 3.608953 1_555
Ba1 I7 3.609157 1_555
Ba1 I10 3.752190 1_455
Ba1 I9 3.752228 1_565
Ba2 O1 2.592841 1_555
Ba2 I2 3.518522 1_556
Ba2 I0 3.591800 1_555
Ba2 I4 3.591910 1_565
Ba2 I11 3.609518 1_555
Ba2 I8 3.610427 1_555
Ba2 I9 3.752221 1_565
Ba2 I6 3.752807 1_555
Ba3 O0 2.592829 1_555
Ba3 I3 3.518223 1_555
Ba3 I5 3.591754 1_555
Ba3 I1 3.591785 1_545
Ba3 I6 3.609697 1_554
Ba3 I9 3.610086 1_554
Ba3 I8 3.752007 1_545
Ba3 I11 3.753031 1_555
Ba4 O0 2.592783 1_555
Ba4 I4 3.518307 1_555
Ba4 I5 3.591972 1_655
Ba4 I2 3.592022 1_545
Ba4 I9 3.609955 1_554
Ba4 I10 3.609985 1_554
Ba4 I7 3.753194 1_655
Ba4 I8 3.753283 1_545
Ba5 O1 2.592936 1_555
Ba5 I5 3.518398 1_556
Ba5 I3 3.591877 1_555
Ba5 I4 3.591886 1_455
Ba5 I11 3.610192 1_555
Ba5 I7 3.610239 1_555
Ba5 I10 3.752149 1_455
Ba5 I6 3.752756 1_555
Ba6 O0 2.565595 1_555
Ba6 I6 3.640470 1_555
Ba6 I10 3.640989 1_555
Ba6 I9 3.641008 1_555
Ba6 I4 3.720706 1_555
Ba6 I3 3.720946 1_555
Ba6 I0 3.721116 1_555
Ba7 O1 2.565607 1_554
Ba7 I11 3.640594 1_555
Ba7 I8 3.640736 1_555
Ba7 I7 3.640795 1_555
Ba7 I2 3.720699 1_555
Ba7 I5 3.720927 1_555
Ba7 I1 3.721242 1_555
