# generated using pymatgen
data_MgNb2V2O8
_symmetry_space_group_name_H-M   'P 1'
_cell_length_a   7.33580254
_cell_length_b   7.33385916
_cell_length_c   7.70099751
_cell_angle_alpha   140.51190989
_cell_angle_beta   139.11439761
_cell_angle_gamma   52.83884741
_symmetry_Int_Tables_number   1
_chemical_formula_structural   MgNb2V2O8
_chemical_formula_sum   'Mg1 Nb2 V2 O8'
_cell_volume   172.24206003
_cell_formula_units_Z   1
loop_
 _symmetry_equiv_pos_site_id
 _symmetry_equiv_pos_as_xyz
  1  'x, y, z'
loop_
 _atom_site_type_symbol
 _atom_site_label
 _atom_site_symmetry_multiplicity
 _atom_site_fract_x
 _atom_site_fract_y
 _atom_site_fract_z
 _atom_site_occupancy
  Mg  Mg0  1  0.69255427  0.44252507  0.24997755  1
  Nb  Nb0  1  0.91342512  0.66367852  0.25000847  1
  Nb  Nb1  1  0.08439246  0.33430941  0.75005448  1
  V  V0  1  0.26011366  0.01019391  0.24996505  1
  V  V1  1  0.57159226  0.82154637  0.74998918  1
  O  O0  1  0.76337047  0.48574489  0.80652893  1
  O  O1  1  0.81546553  0.10556583  0.26512907  1
  O  O2  1  0.40599941  0.18033923  0.72482626  1
  O  O3  1  0.02235054  0.35696645  0.24696521  1
  O  O4  1  0.95543824  0.68117460  0.77511249  1
  O  O5  1  0.60983705  0.77553712  0.25300926  1
  O  O6  1  0.17938916  0.95671109  0.69354825  1
  O  O7  1  0.34065485  0.55029050  0.23488579  1
loop_
_geom_bond_atom_site_label_1
_geom_bond_atom_site_label_2
_geom_bond_distance
_geom_bond_site_symmetry_2
Mg0 O3 2.115601 1_655
Mg0 O5 2.115757 1_555
Mg0 O4 2.120677 1_555
Mg0 O2 2.120777 1_554
Mg0 O7 2.127299 1_555
Mg0 O1 2.127809 1_555
Nb0 O3 1.863937 1_655
Nb0 O5 1.864046 1_555
Nb0 O0 1.936622 1_554
Nb0 O6 1.936718 1_655
Nb1 O7 1.959460 1_556
Nb1 O1 1.959856 1_455
Nb1 O4 2.003595 1_455
Nb1 O2 2.003701 1_555
Nb1 O6 2.147279 1_545
Nb1 O0 2.147495 1_455
O0 V1 2.185626 1_555
O1 V1 2.072050 1_544
O2 V0 2.174365 1_555
O2 V1 2.237534 1_545
O3 V0 2.044823 1_555
O4 V0 2.174381 1_666
O4 V1 2.237783 1_555
O5 V0 2.044844 1_565
O6 V1 2.185859 1_555
O7 V1 2.071963 1_555
