# generated using pymatgen
data_Na5Sc2Nb2Si3(PO8)3
_symmetry_space_group_name_H-M   'P 1'
_cell_length_a   9.02059921
_cell_length_b   9.03522742
_cell_length_c   22.50672221
_cell_angle_alpha   90.16152462
_cell_angle_beta   89.94687349
_cell_angle_gamma   119.72968641
_symmetry_Int_Tables_number   1
_chemical_formula_structural   Na5Sc2Nb2Si3(PO8)3
_chemical_formula_sum   'Na15 Sc6 Nb6 Si9 P9 O72'
_cell_volume   1592.91313304
_cell_formula_units_Z   3
loop_
 _symmetry_equiv_pos_site_id
 _symmetry_equiv_pos_as_xyz
  1  'x, y, z'
loop_
 _atom_site_type_symbol
 _atom_site_label
 _atom_site_symmetry_multiplicity
 _atom_site_fract_x
 _atom_site_fract_y
 _atom_site_fract_z
 _atom_site_occupancy
  Na  Na0  1  0.99107770  0.62841583  0.24515239  1
  Na  Na1  1  0.36870232  0.00951317  0.74560162  1
  Na  Na2  1  0.03814366  0.69591199  0.57923697  1
  Na  Na3  1  0.64935864  0.96213113  0.58128113  1
  Na  Na4  1  0.30177147  0.96042301  0.07903245  1
  Na  Na5  1  0.03572266  0.35074034  0.08282700  1
  Na  Na6  1  0.97706933  0.67703802  0.91572899  1
  Na  Na7  1  0.97143724  0.29795171  0.41104564  1
  Na  Na8  1  0.32641729  0.02437600  0.41528144  1
  Na  Na9  1  0.99212414  0.99014328  0.49390725  1
  Na  Na10  1  0.99429756  0.00220584  0.99252688  1
  Na  Na11  1  0.67262265  0.32849862  0.82820571  1
  Na  Na12  1  0.66139143  0.32928415  0.32641955  1
  Na  Na13  1  0.35403606  0.66082562  0.16242942  1
  Na  Na14  1  0.33598127  0.64271008  0.66185272  1
  Sc  Sc0  1  0.99040085  0.99601241  0.35243072  1
  Sc  Sc1  1  0.99911669  0.00771394  0.85318828  1
  Sc  Sc2  1  0.66745051  0.33539145  0.68706069  1
  Sc  Sc3  1  0.66543684  0.33205822  0.18633005  1
  Sc  Sc4  1  0.33552068  0.66614022  0.01898697  1
  Sc  Sc5  1  0.33942795  0.66936973  0.51950395  1
  Nb  Nb0  1  0.99758816  0.00070012  0.64685816  1
  Nb  Nb1  1  0.99868215  0.00172469  0.14664038  1
  Nb  Nb2  1  0.65779232  0.33092488  0.97912502  1
  Nb  Nb3  1  0.66453009  0.33845075  0.47957957  1
  Nb  Nb4  1  0.33440900  0.66645534  0.31303448  1
  Nb  Nb5  1  0.34094805  0.67045055  0.81295512  1
  Si  Si0  1  0.00103177  0.29643777  0.25297434  1
  Si  Si1  1  0.70692519  0.00136981  0.75186702  1
  Si  Si2  1  0.37231677  0.04330694  0.58550288  1
  Si  Si3  1  0.66394088  0.62406546  0.58662764  1
  Si  Si4  1  0.95572305  0.62610882  0.08435609  1
  Si  Si5  1  0.37517547  0.33584648  0.08621316  1
  Si  Si6  1  0.33513593  0.96224099  0.91868334  1
  Si  Si7  1  0.62811878  0.96076869  0.41957507  1
  Si  Si8  1  0.03905462  0.66648316  0.41879087  1
  P  P0  1  0.29278653  -0.00029455  0.25191141  1
  P  P1  1  0.70654623  0.71056546  0.25005089  1
  P  P2  1  0.28732112  0.29173032  0.75129160  1
  P  P3  1  0.00127326  0.70784902  0.75256336  1
  P  P4  1  0.95513133  0.33011905  0.58325997  1
  P  P5  1  0.66927349  0.04554949  0.08330989  1
  P  P6  1  0.62311136  0.66342634  0.91743293  1
  P  P7  1  0.04106820  0.37640439  0.91810576  1
  P  P8  1  0.33800817  0.38058028  0.41652229  1
  O  O0  1  0.20569016  0.01322314  0.30818469  1
  O  O1  1  0.81869656  0.79370331  0.30452484  1
  O  O2  1  0.98677969  0.19048329  0.31172347  1
  O  O3  1  0.20562848  0.17864082  0.80504618  1
  O  O4  1  0.98817957  0.79520110  0.80854992  1
  O  O5  1  0.82207603  0.01676559  0.80728759  1
  O  O6  1  0.80186886  0.97848897  0.69057562  1
  O  O7  1  0.17134810  0.19770381  0.69526251  1
  O  O8  1  0.02999980  0.82840920  0.69663015  1
  O  O9  1  0.80132255  0.82556107  0.19447138  1
  O  O10  1  0.01860079  0.19215963  0.19313927  1
  O  O11  1  0.17229442  0.97206435  0.19616991  1
  O  O12  1  0.86955064  0.35616492  0.63678886  1
  O  O13  1  0.49061891  0.12514937  0.64280853  1
  O  O14  1  0.65164054  0.51359969  0.64262761  1
  O  O15  1  0.87570369  0.50806814  0.14193439  1
  O  O16  1  0.64076377  0.12543906  0.13807464  1
  O  O17  1  0.48704146  0.35156459  0.14235154  1
  O  O18  1  0.46977468  0.30092841  0.02659798  1
  O  O19  1  0.83528530  0.52731449  0.02463561  1
  O  O20  1  0.69992306  0.16453486  0.02800926  1
  O  O21  1  0.47269970  0.16468086  0.52578379  1
  O  O22  1  0.69775216  0.53015820  0.52684671  1
  O  O23  1  0.84073508  0.30015040  0.52597089  1
  O  O24  1  0.53754310  0.68234823  0.97222166  1
  O  O25  1  0.13793179  0.45683255  0.97573354  1
  O  O26  1  0.30937864  0.84956382  0.97697982  1
  O  O27  1  0.54371968  0.85745046  0.47942212  1
  O  O28  1  0.30594730  0.46012892  0.47052027  1
  O  O29  1  0.14943222  0.68852079  0.47736166  1
  O  O30  1  0.13786502  0.63545082  0.35944387  1
  O  O31  1  0.49784766  0.85535929  0.36224382  1
  O  O32  1  0.36070290  0.49198293  0.36021336  1
  O  O33  1  0.14084008  0.49720526  0.86447366  1
  O  O34  1  0.35787544  0.85729734  0.85949771  1
  O  O35  1  0.51016690  0.64112273  0.86099376  1
  O  O36  1  0.02784323  0.83753795  0.41092937  1
  O  O37  1  0.82292041  0.00112334  0.41366896  1
  O  O38  1  0.18767117  0.19844342  0.40940794  1
  O  O39  1  0.01496195  0.19733651  0.91188616  1
  O  O40  1  0.16477014  0.97629865  0.91132720  1
  O  O41  1  0.80534250  0.81199052  0.91118270  1
  O  O42  1  0.96241777  0.16047811  0.58803218  1
  O  O43  1  0.18165514  0.02809278  0.59019920  1
  O  O44  1  0.84618115  0.81382588  0.59004490  1
  O  O45  1  0.97262731  0.81735781  0.09048266  1
  O  O46  1  0.83933473  0.03823233  0.08785823  1
  O  O47  1  0.18550636  0.15367731  0.09026146  1
  O  O48  1  0.66576768  0.15505496  0.74818631  1
  O  O49  1  0.46451826  0.31212586  0.74382033  1
  O  O50  1  0.85076380  0.53007440  0.74575904  1
  O  O51  1  0.68789804  0.53452472  0.24340552  1
  O  O52  1  0.84295620  0.33191773  0.24826841  1
  O  O53  1  0.47008994  0.14940185  0.24530287  1
  O  O54  1  0.63755203  0.49643687  0.92043194  1
  O  O55  1  0.86554498  0.37439394  0.91938716  1
  O  O56  1  0.51378737  0.14912936  0.92223576  1
  O  O57  1  0.63118300  0.14769552  0.42071502  1
  O  O58  1  0.50336702  0.36590863  0.42102758  1
  O  O59  1  0.85378172  0.48596933  0.42203530  1
  O  O60  1  0.33433251  0.48846048  0.07879078  1
  O  O61  1  0.14941845  0.65813271  0.07804691  1
  O  O62  1  0.51508233  0.86827252  0.07528978  1
  O  O63  1  0.33928730  0.84989351  0.57949567  1
  O  O64  1  0.50883454  0.66169728  0.58071950  1
  O  O65  1  0.13237156  0.48447252  0.57626109  1
  O  O66  1  0.29632442  0.82629269  0.25411316  1
  O  O67  1  0.53018090  0.70090952  0.25442640  1
  O  O68  1  0.18060167  0.48731972  0.25462219  1
  O  O69  1  0.29635218  0.46790814  0.75620653  1
  O  O70  1  0.17366989  0.70150809  0.75487708  1
  O  O71  1  0.51514576  0.81929864  0.75626607  1
loop_
_geom_bond_atom_site_label_1
_geom_bond_atom_site_label_2
_geom_bond_distance
_geom_bond_site_symmetry_2
Na0 O52 2.327573 1_555
Na0 O51 2.428912 1_555
Na0 O66 2.436251 1_655
Na0 O15 2.555413 1_555
Na0 O68 2.599479 1_655
Na0 O30 2.880293 1_655
Na0 O11 2.917210 1_655
Na0 O1 2.953303 1_555
Na1 O48 2.327728 1_555
Na1 O49 2.425089 1_555
Na1 O70 2.455594 1_545
Na1 O13 2.553979 1_555
Na1 O71 2.647835 1_545
Na1 O8 2.874848 1_545
Na1 O34 2.891082 1_545
Na1 O3 2.916044 1_555
Na2 O63 2.359353 1_555
Na2 O65 2.446698 1_555
Na2 O44 2.453608 1_455
Na2 O29 2.516130 1_555
Na2 O43 2.624413 1_565
Na2 O8 2.913496 1_555
Na2 O22 2.915012 1_455
Na2 O12 2.966856 1_455
Na3 O64 2.358500 1_555
Na3 O63 2.457664 1_555
Na3 O27 2.481160 1_555
Na3 O42 2.487851 1_565
Na3 O44 2.710795 1_555
Na3 O6 2.787106 1_555
Na3 O13 2.866033 1_565
Na3 O23 2.940327 1_565
Na4 O61 2.371885 1_555
Na4 O62 2.447675 1_555
Na4 O47 2.454786 1_565
Na4 O26 2.517639 1_554
Na4 O45 2.597436 1_455
Na4 O11 2.905214 1_555
Na4 O18 2.923588 1_565
Na4 O16 2.968851 1_565
Na5 O60 2.342677 1_555
Na5 O61 2.439976 1_555
Na5 O46 2.482752 1_455
Na5 O25 2.590544 1_554
Na5 O47 2.722483 1_555
Na5 O15 2.809775 1_455
Na5 O10 2.835631 1_555
Na5 O20 2.910143 1_455
Na6 O40 2.376588 1_655
Na6 O55 2.401838 1_555
Na6 O41 2.402342 1_555
Na6 O4 2.622361 1_555
Na6 O54 2.664099 1_555
Na6 O19 2.787600 1_556
Na6 O33 2.918954 1_655
Na6 O26 2.945697 1_655
Na7 O37 2.329833 1_555
Na7 O59 2.420494 1_555
Na7 O2 2.465676 1_555
Na7 O38 2.520600 1_655
Na7 O57 2.679304 1_555
Na7 O23 2.845734 1_555
Na7 O30 2.894409 1_655
Na7 O28 2.941970 1_655
Na8 O36 2.367155 1_545
Na8 O57 2.403355 1_555
Na8 O38 2.451772 1_555
Na8 O0 2.626940 1_555
Na8 O58 2.683233 1_555
Na8 O21 2.804080 1_555
Na8 O31 2.911501 1_545
Na8 O29 2.987339 1_545
Na9 O37 2.399390 1_565
Na9 O36 2.432643 1_655
Na9 O44 2.624282 1_555
Na9 O38 2.644191 1_665
Na9 O43 2.675569 1_665
Na9 O42 2.705138 1_565
Na10 O40 2.471598 1_645
Na10 O39 2.475606 1_655
Na10 O41 2.508667 1_545
Na10 O46 2.665583 1_556
Na10 O47 2.708403 1_656
Na10 O45 2.717405 1_546
Na11 O48 2.364599 1_555
Na11 O50 2.540350 1_555
Na11 O55 2.588069 1_555
Na11 O56 2.620840 1_555
Na11 O49 2.623465 1_555
Na11 O54 2.677342 1_555
Na12 O52 2.394388 1_555
Na12 O53 2.481910 1_555
Na12 O51 2.562365 1_555
Na12 O57 2.616361 1_555
Na12 O58 2.670901 1_555
Na12 O59 2.683300 1_555
Na13 O60 2.389573 1_555
Na13 O67 2.524712 1_555
Na13 O62 2.604762 1_555
Na13 O68 2.605845 1_555
Na13 O61 2.641218 1_555
Na13 O66 2.741664 1_555
Na14 O64 2.350803 1_555
Na14 O65 2.552457 1_555
Na14 O69 2.566983 1_555
Na14 O63 2.627729 1_555
Na14 O71 2.665100 1_555
Na14 O70 2.751169 1_555
Nb0 O6 1.942138 1_545
Nb0 O43 2.008629 1_655
Nb0 O7 2.009241 1_655
Nb0 O44 2.013735 1_545
Nb0 O8 2.055593 1_645
Nb0 O42 2.098441 1_555
Nb1 O10 1.942070 1_655
Nb1 O45 2.006987 1_545
Nb1 O47 2.011520 1_655
Nb1 O9 2.014307 1_545
Nb1 O11 2.046530 1_645
Nb1 O46 2.097976 1_555
Nb2 O18 1.906293 1_556
Nb2 O56 1.974797 1_555
Nb2 O19 1.984007 1_556
Nb2 O20 2.047395 1_556
Nb2 O54 2.072938 1_555
Nb2 O55 2.177684 1_555
Nb3 O22 1.922796 1_555
Nb3 O21 1.962671 1_555
Nb3 O59 2.029073 1_555
Nb3 O58 2.067557 1_555
Nb3 O23 2.070511 1_555
Nb3 O57 2.071201 1_555
Nb4 O31 1.951922 1_555
Nb4 O30 1.954087 1_555
Nb4 O68 2.009260 1_555
Nb4 O32 2.012347 1_555
Nb4 O67 2.099594 1_555
Nb4 O66 2.113285 1_555
Nb5 O34 1.924916 1_555
Nb5 O71 1.953388 1_555
Nb5 O35 1.993768 1_555
Nb5 O33 2.063243 1_555
Nb5 O69 2.097549 1_555
Nb5 O70 2.118960 1_555
O0 P0 1.526016 1_555
O0 Sc0 2.117816 1_445
O1 P1 1.527829 1_555
O1 Sc0 2.021568 1_555
O2 Si0 1.601903 1_655
O2 Sc0 1.998470 1_545
O3 P2 1.519643 1_555
O3 Sc1 2.044902 1_455
O4 P3 1.520270 1_655
O4 Sc1 2.123039 1_565
O5 Si1 1.585014 1_555
O5 Sc1 1.938416 1_555
O6 Si1 1.688486 1_565
O7 P2 1.587855 1_555
O8 P3 1.601758 1_555
O9 P1 1.581003 1_555
O10 Si0 1.693204 1_555
O11 P0 1.596621 1_565
O12 P4 1.509853 1_555
O12 Sc2 2.072915 1_555
O13 Si2 1.601132 1_555
O13 Sc2 2.032684 1_555
O14 Si3 1.579248 1_555
O14 Sc2 1.962170 1_555
O15 Si4 1.606354 1_555
O15 Sc3 2.034402 1_555
O16 P5 1.511594 1_555
O16 Sc3 2.071506 1_555
O17 Si5 1.579264 1_555
O17 Sc3 1.971207 1_555
O18 Si5 1.700150 1_555
O19 Si4 1.678643 1_555
O20 P5 1.579057 1_555
O21 Si2 1.688279 1_555
O22 Si3 1.694903 1_555
O23 P4 1.588734 1_555
O24 P6 1.507821 1_555
O24 Sc4 2.045215 1_556
O25 P7 1.529971 1_555
O25 Sc4 2.085822 1_556
O26 Si6 1.607578 1_555
O26 Sc4 2.023090 1_556
O27 Si7 1.601766 1_555
O27 Sc5 1.999300 1_555
O28 P8 1.509243 1_555
O28 Sc5 2.074449 1_555
O29 Si8 1.604082 1_555
O29 Sc5 2.040834 1_555
O30 Si8 1.703157 1_555
O31 Si7 1.684876 1_555
O32 P8 1.569557 1_555
O33 P7 1.577808 1_555
O34 Si6 1.703185 1_555
O35 P6 1.577816 1_555
O36 Si8 1.608342 1_555
O36 Sc0 2.094960 1_455
O37 Si7 1.613330 1_545
O37 Sc0 2.061353 1_545
O38 P8 1.535692 1_555
O38 Sc0 2.217946 1_445
O39 P7 1.521054 1_555
O39 Sc1 2.108500 1_455
O40 Si6 1.612294 1_555
O40 Sc1 2.109998 1_465
O41 P6 1.528376 1_555
O41 Sc1 2.197569 1_565
O42 P4 1.570358 1_555
O43 Si2 1.659314 1_555
O44 Si3 1.688786 1_555
O45 Si4 1.662989 1_555
O46 P5 1.571334 1_555
O47 Si5 1.688849 1_555
O48 Si1 1.607755 1_555
O48 Sc2 2.129750 1_555
O49 P2 1.524705 1_555
O49 Sc2 2.154678 1_555
O50 P3 1.510905 1_655
O50 Sc2 2.163300 1_555
O51 P1 1.521153 1_555
O51 Sc3 2.158072 1_555
O52 Si0 1.612799 1_655
O52 Sc3 2.124558 1_555
O53 P0 1.504885 1_555
O53 Sc3 2.171207 1_555
O54 P6 1.579078 1_555
O55 P7 1.574634 1_655
O56 Si6 1.659906 1_545
O57 Si7 1.675515 1_545
O58 P8 1.565025 1_555
O59 Si8 1.659977 1_655
O60 Si5 1.603215 1_555
O60 Sc4 2.093830 1_555
O61 Si4 1.629452 1_455
O61 Sc4 2.113358 1_555
O62 P5 1.523796 1_565
O62 Sc4 2.149786 1_555
O63 Si2 1.625811 1_565
O63 Sc5 2.114975 1_555
O64 Si3 1.601047 1_555
O64 Sc5 2.085134 1_555
O65 P4 1.521598 1_455
O65 Sc5 2.196382 1_555
O66 P0 1.583807 1_565
O67 P1 1.552558 1_555
O68 Si0 1.681854 1_555
O69 P2 1.556640 1_555
O70 P3 1.585222 1_555
O71 Si1 1.699055 1_565
