# generated using pymatgen
data_NaNbSi3Sn3(SO8)3
_symmetry_space_group_name_H-M   'P 1'
_cell_length_a   8.85464334
_cell_length_b   8.84524267
_cell_length_c   23.07659565
_cell_angle_alpha   89.49797316
_cell_angle_beta   91.03034488
_cell_angle_gamma   119.73739777
_symmetry_Int_Tables_number   1
_chemical_formula_structural   NaNbSi3Sn3(SO8)3
_chemical_formula_sum   'Na3 Nb3 Si9 Sn9 S9 O72'
_cell_volume   1569.11980291
_cell_formula_units_Z   3
loop_
 _symmetry_equiv_pos_site_id
 _symmetry_equiv_pos_as_xyz
  1  'x, y, z'
loop_
 _atom_site_type_symbol
 _atom_site_label
 _atom_site_symmetry_multiplicity
 _atom_site_fract_x
 _atom_site_fract_y
 _atom_site_fract_z
 _atom_site_occupancy
  Na  Na0  1  0.01674690  0.99219487  0.99350252  1
  Na  Na1  1  0.64563869  0.30707871  0.82889162  1
  Na  Na2  1  0.68872390  0.34111639  0.33507384  1
  Nb  Nb0  1  0.00196549  0.00537094  0.64635239  1
  Nb  Nb1  1  0.01349819  0.01270489  0.14245600  1
  Nb  Nb2  1  0.32851931  0.67656426  0.52656563  1
  Si  Si0  1  0.99242970  0.28353558  0.25173023  1
  Si  Si1  1  0.29230761  0.29775025  0.75308176  1
  Si  Si2  1  0.72123255  0.01173455  0.75108066  1
  Si  Si3  1  0.38100141  0.05906845  0.58174747  1
  Si  Si4  1  0.67089918  0.62318796  0.58419696  1
  Si  Si5  1  0.95234437  0.61969454  0.08227577  1
  Si  Si6  1  0.38882168  0.34556605  0.08303090  1
  Si  Si7  1  0.33342011  0.95645978  0.91539796  1
  Si  Si8  1  0.03486843  0.66024692  0.41540371  1
  Sn  Sn0  1  0.99475286  0.99741274  0.35640629  1
  Sn  Sn1  1  0.01432575  0.00817664  0.85004016  1
  Sn  Sn2  1  0.64339702  0.32049744  0.68888131  1
  Sn  Sn3  1  0.67866733  0.34480498  0.18445772  1
  Sn  Sn4  1  0.65298237  0.33071770  0.97998933  1
  Sn  Sn5  1  0.66989445  0.34880402  0.48388632  1
  Sn  Sn6  1  0.31813263  0.66491425  0.02136595  1
  Sn  Sn7  1  0.31230034  0.65122989  0.31154660  1
  Sn  Sn8  1  0.35097476  0.68595211  0.80557122  1
  S  S0  1  0.29424535  0.00339218  0.25057586  1
  S  S1  1  0.70486961  0.70972529  0.25182436  1
  S  S2  1  0.99544295  0.70707856  0.74965204  1
  S  S3  1  0.95616505  0.33395362  0.58349566  1
  S  S4  1  0.66641233  0.04073817  0.08358209  1
  S  S5  1  0.62592870  0.67023000  0.91703592  1
  S  S6  1  0.03791554  0.37366803  0.91644845  1
  S  S7  1  0.61620434  0.95253737  0.41562977  1
  S  S8  1  0.33554382  0.37753071  0.41559445  1
  O  O0  1  0.21526690  0.03054838  0.30268059  1
  O  O1  1  0.81626311  0.78211131  0.30516562  1
  O  O2  1  0.96161323  0.16581936  0.31035185  1
  O  O3  1  0.22454661  0.17484533  0.81070355  1
  O  O4  1  0.96166006  0.77755115  0.80355575  1
  O  O5  1  0.82636441  0.02964927  0.81206731  1
  O  O6  1  0.82104458  0.98824699  0.69525322  1
  O  O7  1  0.17437736  0.19275413  0.69552536  1
  O  O8  1  0.01982552  0.81779964  0.69839335  1
  O  O9  1  0.78815564  0.81089029  0.19992617  1
  O  O10  1  0.00967733  0.17631940  0.19608237  1
  O  O11  1  0.18305124  0.97510681  0.19787626  1
  O  O12  1  0.88465928  0.37285736  0.63369135  1
  O  O13  1  0.50997653  0.12044021  0.63694608  1
  O  O14  1  0.63117013  0.49914790  0.63953859  1
  O  O15  1  0.88150293  0.50742361  0.14146100  1
  O  O16  1  0.63697600  0.11617490  0.13632016  1
  O  O17  1  0.48900935  0.36036623  0.14412104  1
  O  O18  1  0.44808330  0.27835193  0.02747815  1
  O  O19  1  0.82914744  0.53905053  0.02460781  1
  O  O20  1  0.70784016  0.15341406  0.03181978  1
  O  O21  1  0.45931605  0.16277450  0.52117455  1
  O  O22  1  0.72054629  0.56082022  0.52487824  1
  O  O23  1  0.85069120  0.29935598  0.52915547  1
  O  O24  1  0.54600168  0.68866353  0.97031161  1
  O  O25  1  0.14493863  0.44706172  0.97054953  1
  O  O26  1  0.31142252  0.84913798  0.97531928  1
  O  O27  1  0.53159926  0.84468343  0.46709974  1
  O  O28  1  0.31821698  0.46397333  0.46649382  1
  O  O29  1  0.16044945  0.68036519  0.47126688  1
  O  O30  1  0.11668046  0.62858556  0.35660509  1
  O  O31  1  0.51197071  0.87300132  0.36106666  1
  O  O32  1  0.37101809  0.48564675  0.36150196  1
  O  O33  1  0.11851718  0.47682538  0.86485334  1
  O  O34  1  0.35564729  0.86361209  0.85834553  1
  O  O35  1  0.51766684  0.64111987  0.86453697  1
  O  O36  1  0.02460618  0.83960777  0.40862081  1
  O  O37  1  0.78938495  0.96495597  0.41197043  1
  O  O38  1  0.17448269  0.20686321  0.40935151  1
  O  O39  1  0.01375857  0.19372254  0.91416456  1
  O  O40  1  0.15326943  0.97049044  0.91266504  1
  O  O41  1  0.80081816  0.82804359  0.91277638  1
  O  O42  1  0.97866220  0.18099548  0.59036235  1
  O  O43  1  0.18833093  0.02742846  0.59462504  1
  O  O44  1  0.83109277  0.81789778  0.59800509  1
  O  O45  1  0.96722297  0.81375635  0.09565698  1
  O  O46  1  0.82578424  0.02210407  0.09224431  1
  O  O47  1  0.18724581  0.17055729  0.09443769  1
  O  O48  1  0.71858407  0.19468065  0.74521658  1
  O  O49  1  0.48901548  0.32687700  0.74915410  1
  O  O50  1  0.84296175  0.53273083  0.74216455  1
  O  O51  1  0.67742814  0.52820942  0.24853679  1
  O  O52  1  0.81477335  0.30005433  0.24620331  1
  O  O53  1  0.46749799  0.16029435  0.24406380  1
  O  O54  1  0.64802545  0.51220850  0.91969517  1
  O  O55  1  0.86341173  0.36050503  0.92269990  1
  O  O56  1  0.51226384  0.15157715  0.91934648  1
  O  O57  1  0.63604116  0.12857395  0.42032031  1
  O  O58  1  0.48845779  0.34996152  0.41883975  1
  O  O59  1  0.84288244  0.48310616  0.42111307  1
  O  O60  1  0.36690358  0.51231594  0.07188777  1
  O  O61  1  0.14766721  0.65647344  0.07640012  1
  O  O62  1  0.51955703  0.86680166  0.07574259  1
  O  O63  1  0.35487266  0.85922895  0.57010476  1
  O  O64  1  0.49574824  0.63998884  0.56720117  1
  O  O65  1  0.13461795  0.48771858  0.57389803  1
  O  O66  1  0.31396842  0.84694160  0.25577017  1
  O  O67  1  0.53565148  0.70427915  0.25938753  1
  O  O68  1  0.17287837  0.46906164  0.25408991  1
  O  O69  1  0.28469236  0.47612282  0.75976361  1
  O  O70  1  0.15435222  0.69529487  0.75511758  1
  O  O71  1  0.53095592  0.83910323  0.75157379  1
loop_
_geom_bond_atom_site_label_1
_geom_bond_atom_site_label_2
_geom_bond_distance
_geom_bond_site_symmetry_2
Na0 O40 2.301244 1_555
Na0 O41 2.529708 1_455
Na0 O39 2.553056 1_565
Na0 O45 2.743357 1_456
Na0 O47 2.787228 1_566
Na0 O46 2.951981 1_466
Na1 O49 2.341660 1_555
Na1 O48 2.418606 1_555
Na1 O56 2.463870 1_555
Na1 O55 2.755307 1_555
Na1 O50 2.763725 1_555
Na1 O54 2.776765 1_555
Na2 O59 2.372406 1_555
Na2 O52 2.465984 1_555
Na2 O57 2.592299 1_555
Na2 O51 2.614514 1_555
Na2 O58 2.674105 1_555
Na2 O53 2.758429 1_555
Nb0 O6 1.919388 1_445
Nb0 O44 1.940739 1_445
Nb0 O7 1.955982 1_555
Nb0 O43 1.983301 1_555
Nb0 O42 2.097238 1_455
Nb0 O8 2.106761 1_545
Nb1 O47 1.856736 1_555
Nb1 O10 1.925738 1_555
Nb1 O45 1.932095 1_445
Nb1 O46 2.044108 1_455
Nb1 O11 2.102147 1_545
Nb1 O9 2.333859 1_445
Nb2 O63 1.822213 1_555
Nb2 O64 1.896475 1_555
Nb2 O29 1.955735 1_555
Nb2 O65 2.030129 1_555
Nb2 O27 2.174443 1_555
Nb2 O28 2.310184 1_555
O0 S0 1.481373 1_555
O0 Sn0 2.224528 1_445
O1 S1 1.497220 1_555
O1 Sn0 2.123474 1_555
O2 Si0 1.641761 1_555
O2 Sn0 1.956830 1_545
O3 Si1 1.632866 1_555
O3 Sn1 1.943514 1_555
O4 S2 1.495767 1_555
O4 Sn1 2.146189 1_665
O5 Si2 1.637932 1_555
O5 Sn1 1.957593 1_655
O6 Si2 1.646752 1_565
O7 Si1 1.651276 1_555
O8 S2 1.477859 1_455
O9 S1 1.461925 1_555
O10 Si0 1.656457 1_455
O11 S0 1.492937 1_565
O12 S3 1.452782 1_555
O12 Sn2 2.346544 1_555
O13 Si3 1.601952 1_555
O13 Sn2 1.968682 1_555
O14 Si4 1.602249 1_555
O14 Sn2 1.984712 1_555
O15 Si5 1.622995 1_555
O15 Sn3 1.937895 1_555
O16 S4 1.480699 1_555
O16 Sn3 2.178055 1_555
O17 Si6 1.623138 1_555
O17 Sn3 1.968877 1_555
O18 Si6 1.618424 1_555
O18 Sn4 1.983970 1_554
O19 Si5 1.631644 1_555
O19 Sn4 2.003245 1_554
O20 S4 1.478816 1_555
O20 Sn4 2.197283 1_554
O21 Si3 1.630201 1_555
O21 Sn5 1.978352 1_555
O22 Si4 1.626917 1_555
O22 Sn5 1.947892 1_555
O23 S3 1.489777 1_555
O23 Sn5 2.114697 1_555
O24 S5 1.479263 1_555
O24 Sn6 2.272437 1_556
O25 S6 1.496496 1_555
O25 Sn6 2.117415 1_556
O26 Si7 1.629238 1_555
O26 Sn6 1.962490 1_556
O27 S7 1.478250 1_555
O28 S8 1.458219 1_555
O29 Si8 1.638956 1_555
O30 Si8 1.639384 1_555
O30 Sn7 1.959225 1_555
O31 S7 1.503916 1_555
O31 Sn7 2.192197 1_555
O32 S8 1.505510 1_555
O32 Sn7 2.109191 1_555
O33 S6 1.457752 1_555
O33 Sn8 2.410319 1_555
O34 Si7 1.623328 1_555
O34 Sn8 1.980288 1_555
O35 S5 1.473705 1_555
O35 Sn8 2.164805 1_555
O36 Si8 1.639470 1_555
O36 Sn0 1.948121 1_455
O37 S7 1.485956 1_555
O37 Sn0 2.143089 1_555
O38 S8 1.481266 1_555
O38 Sn0 2.121922 1_445
O39 S6 1.498409 1_555
O39 Sn1 2.221326 1_555
O40 Si7 1.660297 1_555
O40 Sn1 2.011897 1_565
O41 S5 1.488252 1_555
O41 Sn1 2.297491 1_665
O42 S3 1.468928 1_555
O43 Si3 1.618729 1_555
O44 Si4 1.627745 1_555
O45 Si5 1.686014 1_555
O46 S4 1.509497 1_555
O47 Si6 1.708834 1_555
O48 Si2 1.634362 1_555
O48 Sn2 2.012544 1_555
O49 Si1 1.633547 1_555
O49 Sn2 1.988143 1_555
O50 S2 1.470272 1_555
O50 Sn2 2.197720 1_555
O51 S1 1.502346 1_555
O51 Sn3 2.208789 1_555
O52 Si0 1.653084 1_555
O52 Sn3 2.010225 1_555
O53 S0 1.481419 1_555
O53 Sn3 2.253356 1_555
O54 S5 1.505022 1_555
O54 Sn4 2.131554 1_555
O55 S6 1.500388 1_655
O55 Sn4 2.210087 1_555
O56 Si7 1.667603 1_545
O56 Sn4 2.009778 1_555
O57 S7 1.482576 1_545
O57 Sn5 2.343341 1_555
O58 S8 1.490630 1_555
O58 Sn5 2.182570 1_555
O59 Si8 1.650542 1_655
O59 Sn5 2.024933 1_555
O60 Si6 1.598369 1_555
O60 Sn6 1.974894 1_555
O61 Si5 1.601539 1_455
O61 Sn6 1.962722 1_555
O62 S4 1.449956 1_565
O62 Sn6 2.177990 1_555
O63 Si3 1.688373 1_565
O64 Si4 1.669414 1_555
O65 S3 1.506981 1_455
O66 S0 1.481885 1_565
O66 Sn7 2.142420 1_555
O67 S1 1.488467 1_555
O67 Sn7 2.176081 1_555
O68 Si0 1.626700 1_455
O68 Sn7 1.970687 1_555
O69 Si1 1.621047 1_555
O69 Sn8 1.959087 1_555
O70 S2 1.464766 1_455
O70 Sn8 2.112279 1_555
O71 Si2 1.618199 1_565
O71 Sn8 1.956453 1_555
