# generated using pymatgen
data_NaIn(WO4)2
_symmetry_space_group_name_H-M   'P 1'
_cell_length_a   5.92968800
_cell_length_b   5.16626500
_cell_length_c   10.24600059
_cell_angle_alpha   88.45588597
_cell_angle_beta   90.00000000
_cell_angle_gamma   90.00000000
_symmetry_Int_Tables_number   1
_chemical_formula_structural   NaIn(WO4)2
_chemical_formula_sum   'Na2 In2 W4 O16'
_cell_volume   313.76548355
_cell_formula_units_Z   2
loop_
 _symmetry_equiv_pos_site_id
 _symmetry_equiv_pos_as_xyz
  1  'x, y, z'
loop_
 _atom_site_type_symbol
 _atom_site_label
 _atom_site_symmetry_multiplicity
 _atom_site_fract_x
 _atom_site_fract_y
 _atom_site_fract_z
 _atom_site_occupancy
  Na  Na0  1  0.67992200  0.75000000  0.00000000  1
  Na  Na1  1  0.32007800  0.25000000  0.00000000  1
  In  In0  1  0.32059200  0.25000000  0.50000000  1
  In  In1  1  0.67940800  0.75000000  0.50000000  1
  W  W0  1  0.82875700  0.24936000  0.74316000  1
  W  W1  1  0.17124300  0.74936000  0.74316000  1
  W  W2  1  0.17124300  0.75064000  0.25684000  1
  W  W3  1  0.82875700  0.25064000  0.25684000  1
  O  O0  1  0.90482600  0.55991500  0.83277000  1
  O  O1  1  0.36681400  0.62218100  0.85849800  1
  O  O2  1  0.89368400  0.55591100  0.36709600  1
  O  O3  1  0.90482600  0.94008500  0.16723000  1
  O  O4  1  0.10631600  0.05591100  0.36709600  1
  O  O5  1  0.09517400  0.05991500  0.83277000  1
  O  O6  1  0.62595700  0.10452600  0.38421100  1
  O  O7  1  0.62595700  0.39547400  0.61578900  1
  O  O8  1  0.63318600  0.37781900  0.14150200  1
  O  O9  1  0.37404300  0.89547400  0.61578900  1
  O  O10  1  0.36681400  0.87781900  0.14150200  1
  O  O11  1  0.09517400  0.44008500  0.16723000  1
  O  O12  1  0.89368400  0.94408900  0.63290400  1
  O  O13  1  0.63318600  0.12218100  0.85849800  1
  O  O14  1  0.37404300  0.60452600  0.38421100  1
  O  O15  1  0.10631600  0.44408900  0.63290400  1
loop_
_geom_bond_atom_site_label_1
_geom_bond_atom_site_label_2
_geom_bond_distance
_geom_bond_site_symmetry_2
Na0 O8 2.392838 1_555
Na0 O13 2.392838 1_564
Na0 O3 2.401969 1_555
Na0 O0 2.401969 1_554
Na0 O10 2.456979 1_555
Na0 O1 2.456979 1_554
Na1 O10 2.392838 1_545
Na1 O1 2.392838 1_554
Na1 O11 2.401969 1_555
Na1 O5 2.401969 1_554
Na1 O8 2.456979 1_555
Na1 O13 2.456979 1_554
In0 O4 2.132544 1_555
In0 O15 2.132544 1_555
In0 O14 2.178417 1_555
In0 O9 2.178417 1_545
In0 O6 2.301973 1_555
In0 O7 2.301973 1_555
In1 O2 2.132544 1_555
In1 O12 2.132544 1_555
In1 O6 2.178417 1_565
In1 O7 2.178417 1_555
In1 O14 2.301973 1_555
In1 O9 2.301973 1_555
O0 W0 1.923530 1_555
O0 W1 2.061099 1_655
O1 W1 1.769532 1_555
O2 W3 2.001925 1_555
O2 W2 2.221666 1_655
O3 W3 1.923530 1_565
O3 W2 2.061099 1_655
O4 W2 2.001925 1_545
O4 W3 2.221666 1_455
O5 W1 1.923530 1_545
O5 W0 2.061099 1_455
O6 W3 1.914672 1_555
O7 W0 1.914672 1_555
O8 W3 1.769532 1_555
O9 W1 1.914672 1_555
O10 W2 1.769532 1_555
O11 W2 1.923530 1_555
O11 W3 2.061099 1_455
O12 W0 2.001925 1_565
O12 W1 2.221666 1_655
O13 W0 1.769532 1_555
O14 W2 1.914672 1_555
O15 W1 2.001925 1_555
O15 W0 2.221666 1_455
