# generated using pymatgen
data_MgMn6(O5F)2
_symmetry_space_group_name_H-M   'P 1'
_cell_length_a   5.08997358
_cell_length_b   7.76027215
_cell_length_c   5.59920384
_cell_angle_alpha   98.70341158
_cell_angle_beta   96.80965578
_cell_angle_gamma   83.36896161
_symmetry_Int_Tables_number   1
_chemical_formula_structural   MgMn6(O5F)2
_chemical_formula_sum   'Mg1 Mn6 O10 F2'
_cell_volume   216.00278511
_cell_formula_units_Z   1
loop_
 _symmetry_equiv_pos_site_id
 _symmetry_equiv_pos_as_xyz
  1  'x, y, z'
loop_
 _atom_site_type_symbol
 _atom_site_label
 _atom_site_symmetry_multiplicity
 _atom_site_fract_x
 _atom_site_fract_y
 _atom_site_fract_z
 _atom_site_occupancy
  Mg  Mg0  1  0.00009175  0.83781354  0.33737053  1
  Mn  Mn0  1  0.48171083  0.00412630  0.51869613  1
  Mn  Mn1  1  0.51825395  0.67174950  0.15615857  1
  Mn  Mn2  1  0.49956268  0.33775268  0.83790593  1
  Mn  Mn3  1  0.98984751  0.65907180  0.71013388  1
  Mn  Mn4  1  -0.00013963  0.33783080  0.33757864  1
  Mn  Mn5  1  0.01022617  0.01664933  0.96464849  1
  O  O0  1  0.85082571  0.44955886  0.63750775  1
  O  O1  1  0.84536254  0.77972855  0.98074447  1
  O  O2  1  0.68301458  0.10258123  0.80914199  1
  O  O3  1  0.69278911  0.77264916  0.47327815  1
  O  O4  1  0.67869260  0.43561865  0.14528944  1
  O  O5  1  0.31705756  0.57321497  0.86589601  1
  O  O6  1  0.32130894  0.24016440  0.52994713  1
  O  O7  1  0.30714836  0.90319319  0.20151967  1
  O  O8  1  0.14944492  0.22620460  0.03763243  1
  O  O9  1  0.15465335  0.89604854  0.69400702  1
  F  F0  1  0.83668837  0.07883230  0.28920544  1
  F  F1  1  0.16346069  0.59685659  0.38583732  1
loop_
_geom_bond_atom_site_label_1
_geom_bond_atom_site_label_2
_geom_bond_distance
_geom_bond_site_symmetry_2
Mg0 O7 1.964831 1_555
Mg0 O3 1.965406 1_455
Mg0 O9 2.060858 1_555
Mg0 O1 2.060920 1_454
Mn0 O6 1.912494 1_555
Mn0 O2 1.920408 1_555
Mn0 O7 1.980523 1_545
Mn0 O3 1.981559 1_545
Mn0 O9 2.323226 1_545
Mn1 O4 1.913337 1_555
Mn1 O5 1.919609 1_554
Mn1 O3 1.980138 1_555
Mn1 O7 1.981390 1_555
Mn1 O1 2.323372 1_554
Mn2 O6 1.939717 1_555
Mn2 O4 1.939718 1_556
Mn2 O2 1.944635 1_555
Mn2 O5 1.944785 1_555
Mn2 O8 2.509513 1_556
Mn2 O0 2.517372 1_555
Mn3 O0 1.818499 1_555
Mn3 O1 1.840995 1_555
Mn3 O5 1.885081 1_655
Mn3 O3 2.095785 1_555
Mn3 O9 2.125622 1_655
Mn4 O0 1.963927 1_455
Mn4 O8 1.965019 1_555
Mn4 O4 1.987667 1_455
Mn4 O6 1.988563 1_555
Mn5 O8 1.819349 1_556
Mn5 O9 1.840856 1_545
Mn5 O2 1.884687 1_455
Mn5 O7 2.095016 1_546
Mn5 O1 2.125332 1_445
F0 Mg0 2.000742 1_645
F0 Mn5 2.081429 1_654
F0 Mn4 2.229413 1_655
F0 Mn0 2.503956 1_555
F1 Mg0 2.000639 1_555
F1 Mn3 2.080339 1_455
F1 Mn4 2.230655 1_555
F1 Mn1 2.504435 1_555
