# generated using pymatgen
data_LiBiO3
_symmetry_space_group_name_H-M   'P 1'
_cell_length_a   4.94691395
_cell_length_b   8.88109117
_cell_length_c   10.77666513
_cell_angle_alpha   90.00000000
_cell_angle_beta   90.00000000
_cell_angle_gamma   90.00000000
_symmetry_Int_Tables_number   1
_chemical_formula_structural   LiBiO3
_chemical_formula_sum   'Li8 Bi8 O24'
_cell_volume   473.46193901
_cell_formula_units_Z   8
loop_
 _symmetry_equiv_pos_site_id
 _symmetry_equiv_pos_as_xyz
  1  'x, y, z'
loop_
 _atom_site_type_symbol
 _atom_site_label
 _atom_site_symmetry_multiplicity
 _atom_site_fract_x
 _atom_site_fract_y
 _atom_site_fract_z
 _atom_site_occupancy
  Li  Li0  1  0.49963344  0.71262284  0.40334594  1
  Li  Li1  1  -0.00036656  0.28737716  0.09665406  1
  Li  Li2  1  0.50036656  0.21262284  0.09665406  1
  Li  Li3  1  0.00036656  0.78737716  0.40334594  1
  Li  Li4  1  0.50036656  0.28737716  0.59665406  1
  Li  Li5  1  0.00036656  0.71262284  0.90334594  1
  Li  Li6  1  0.49963344  0.78737716  0.90334594  1
  Li  Li7  1  -0.00036656  0.21262284  0.59665406  1
  Bi  Bi0  1  0.49648369  0.08597906  0.36355970  1
  Bi  Bi1  1  0.99648369  0.91402094  0.13644030  1
  Bi  Bi2  1  0.50351631  0.58597906  0.13644030  1
  Bi  Bi3  1  0.00351631  0.41402094  0.36355970  1
  Bi  Bi4  1  0.50351631  0.91402094  0.63644030  1
  Bi  Bi5  1  0.00351631  0.08597906  0.86355970  1
  Bi  Bi6  1  0.49648369  0.41402094  0.86355970  1
  Bi  Bi7  1  0.99648369  0.58597906  0.63644030  1
  O  O0  1  0.75000000  0.75000000  0.72219184  1
  O  O1  1  0.25000000  0.25000000  0.77780816  1
  O  O2  1  0.25000000  0.25000000  0.27780816  1
  O  O3  1  0.75000000  0.75000000  0.22219184  1
  O  O4  1  0.25000000  0.75000000  0.05029361  1
  O  O5  1  0.75000000  0.25000000  0.44970639  1
  O  O6  1  0.75000000  0.25000000  0.94970639  1
  O  O7  1  0.25000000  0.75000000  0.55029361  1
  O  O8  1  0.69306520  0.59506615  0.95769323  1
  O  O9  1  0.19306520  0.40493385  0.54230677  1
  O  O10  1  0.30693480  0.09506615  0.54230677  1
  O  O11  1  0.80693480  0.90493385  0.95769323  1
  O  O12  1  0.30693480  0.40493385  0.04230677  1
  O  O13  1  0.80693480  0.59506615  0.45769323  1
  O  O14  1  0.69306520  0.90493385  0.45769323  1
  O  O15  1  0.19306520  0.09506615  0.04230677  1
  O  O16  1  0.22421177  0.58407960  0.80038990  1
  O  O17  1  0.72421177  0.41592040  0.69961010  1
  O  O18  1  0.77578823  0.08407960  0.69961010  1
  O  O19  1  0.27578823  0.91592040  0.80038990  1
  O  O20  1  0.77578823  0.41592040  0.19961010  1
  O  O21  1  0.27578823  0.58407960  0.30038990  1
  O  O22  1  0.22421177  0.91592040  0.30038990  1
  O  O23  1  0.72421177  0.08407960  0.19961010  1
loop_
_geom_bond_atom_site_label_1
_geom_bond_atom_site_label_2
_geom_bond_distance
_geom_bond_site_symmetry_2
Li0 O13 1.934946 1_555
Li0 O21 1.939203 1_555
Li0 O7 2.035439 1_555
Li0 O14 2.043451 1_555
Li0 O3 2.335681 1_555
Li0 O22 2.519376 1_555
Li1 O12 1.934946 1_555
Li1 O20 1.939203 1_455
Li1 O6 2.035439 1_454
Li1 O15 2.043451 1_555
Li1 O2 2.335681 1_555
Li1 O23 2.519376 1_455
Li2 O15 1.934946 1_555
Li2 O23 1.939203 1_555
Li2 O6 2.035439 1_554
Li2 O12 2.043451 1_555
Li2 O2 2.335681 1_555
Li2 O20 2.519376 1_555
Li3 O14 1.934946 1_455
Li3 O22 1.939203 1_555
Li3 O7 2.035439 1_555
Li3 O13 2.043451 1_455
Li3 O3 2.335681 1_455
Li3 O21 2.519376 1_555
Li4 O9 1.934946 1_555
Li4 O17 1.939203 1_555
Li4 O5 2.035439 1_555
Li4 O10 2.043451 1_555
Li4 O1 2.335681 1_555
Li4 O18 2.519376 1_555
Li5 O8 1.934946 1_455
Li5 O16 1.939203 1_555
Li5 O4 2.035439 1_556
Li5 O11 2.043451 1_455
Li5 O0 2.335681 1_455
Li5 O19 2.519376 1_555
Li6 O11 1.934946 1_555
Li6 O19 1.939203 1_555
Li6 O4 2.035439 1_556
Li6 O8 2.043451 1_555
Li6 O0 2.335681 1_555
Li6 O16 2.519376 1_555
Li7 O10 1.934946 1_555
Li7 O18 1.939203 1_455
Li7 O5 2.035439 1_455
Li7 O9 2.043451 1_555
Li7 O1 2.335681 1_555
Li7 O17 2.519376 1_455
Bi0 O23 2.095493 1_555
Bi0 O2 2.112509 1_555
Bi0 O5 2.134628 1_555
Bi0 O22 2.135091 1_545
Bi0 O14 2.135433 1_545
Bi0 O10 2.143917 1_555
Bi1 O22 2.095493 1_655
Bi1 O3 2.112509 1_555
Bi1 O4 2.134628 1_655
Bi1 O23 2.135091 1_565
Bi1 O15 2.135433 1_665
Bi1 O11 2.143917 1_554
Bi2 O21 2.095493 1_555
Bi2 O3 2.112509 1_555
Bi2 O4 2.134628 1_555
Bi2 O20 2.135091 1_555
Bi2 O12 2.135433 1_555
Bi2 O8 2.143917 1_554
Bi3 O20 2.095493 1_455
Bi3 O2 2.112509 1_555
Bi3 O5 2.134628 1_455
Bi3 O21 2.135091 1_555
Bi3 O13 2.135433 1_455
Bi3 O9 2.143917 1_555
Bi4 O19 2.095493 1_555
Bi4 O0 2.112509 1_555
Bi4 O7 2.134628 1_555
Bi4 O18 2.135091 1_565
Bi4 O10 2.135433 1_565
Bi4 O14 2.143917 1_555
Bi5 O18 2.095493 1_455
Bi5 O1 2.112509 1_555
Bi5 O6 2.134628 1_455
Bi5 O19 2.135091 1_545
Bi5 O11 2.135433 1_445
Bi5 O15 2.143917 1_556
Bi6 O17 2.095493 1_555
Bi6 O1 2.112509 1_555
Bi6 O6 2.134628 1_555
Bi6 O16 2.135091 1_555
Bi6 O8 2.135433 1_555
Bi6 O12 2.143917 1_556
Bi7 O16 2.095493 1_655
Bi7 O0 2.112509 1_555
Bi7 O7 2.134628 1_655
Bi7 O17 2.135091 1_555
Bi7 O9 2.135433 1_655
Bi7 O13 2.143917 1_555
