# generated using pymatgen
data_BaPbO3
_symmetry_space_group_name_H-M   'P 1'
_cell_length_a   6.07681750
_cell_length_b   6.07681750
_cell_length_c   6.07681750
_cell_angle_alpha   120.17971671
_cell_angle_beta   119.32085936
_cell_angle_gamma   90.43465787
_symmetry_Int_Tables_number   1
_chemical_formula_structural   BaPbO3
_chemical_formula_sum   'Ba2 Pb2 O6'
_cell_volume   159.25972055
_cell_formula_units_Z   2
loop_
 _symmetry_equiv_pos_site_id
 _symmetry_equiv_pos_as_xyz
  1  'x, y, z'
loop_
 _atom_site_type_symbol
 _atom_site_label
 _atom_site_symmetry_multiplicity
 _atom_site_fract_x
 _atom_site_fract_y
 _atom_site_fract_z
 _atom_site_occupancy
  Ba  Ba0  1  0.75373807  0.75000000  0.00373807  1
  Ba  Ba1  1  0.24626193  0.25000000  0.99626193  1
  Pb  Pb0  1  0.50000000  -0.00000000  0.50000000  1
  Pb  Pb1  1  -0.00000000  0.50000000  0.50000000  1
  O  O0  1  0.21568281  0.71568281  -0.00000000  1
  O  O1  1  0.31228766  0.75000000  0.56228766  1
  O  O2  1  0.68771234  0.25000000  0.43771234  1
  O  O3  1  0.21568281  0.21568281  0.50000000  1
  O  O4  1  0.78431719  0.28431719  0.00000000  1
  O  O5  1  0.78431719  0.78431719  0.50000000  1
loop_
_geom_bond_atom_site_label_1
_geom_bond_atom_site_label_2
_geom_bond_distance
_geom_bond_site_symmetry_2
Ba0 O1 2.710104 1_554
Ba0 O4 2.826781 1_555
Ba0 O3 2.826781 1_665
Ba0 O0 2.826781 1_655
Ba0 O5 2.826781 1_555
Ba0 O2 3.057142 1_565
Ba0 O2 3.057142 1_554
Ba0 O4 3.262952 1_565
Ba0 O5 3.262952 1_554
Ba0 O3 3.262952 1_554
Ba0 O0 3.262952 1_555
Ba0 O1 3.428986 1_655
Ba1 O2 2.710104 1_556
Ba1 O4 2.826781 1_456
Ba1 O3 2.826781 1_555
Ba1 O5 2.826781 1_445
Ba1 O0 2.826781 1_556
Ba1 O1 3.057142 1_545
Ba1 O1 3.057142 1_556
Ba1 O4 3.262952 1_556
Ba1 O5 3.262952 1_556
Ba1 O3 3.262952 1_556
Ba1 O0 3.262952 1_546
Ba1 O2 3.428986 1_455
O0 Pb1 2.176534 1_554
O0 Pb0 2.176534 1_565
O1 Pb0 2.174205 1_565
O1 Pb1 2.174205 1_555
O2 Pb1 2.174205 1_655
O2 Pb0 2.174205 1_555
O3 Pb1 2.176534 1_555
O3 Pb0 2.176534 1_555
O4 Pb0 2.176534 1_554
O4 Pb1 2.176534 1_655
O5 Pb1 2.176534 1_655
O5 Pb0 2.176534 1_565
