# generated using pymatgen
data_B5H9N
_symmetry_space_group_name_H-M   'P 1'
_cell_length_a   7.29130200
_cell_length_b   7.50090800
_cell_length_c   18.21689100
_cell_angle_alpha   90.00000000
_cell_angle_beta   90.00000000
_cell_angle_gamma   90.00000000
_symmetry_Int_Tables_number   1
_chemical_formula_structural   B5H9N
_chemical_formula_sum   'B40 H72 N8'
_cell_volume   996.30700833
_cell_formula_units_Z   8
loop_
 _symmetry_equiv_pos_site_id
 _symmetry_equiv_pos_as_xyz
  1  'x, y, z'
loop_
 _atom_site_type_symbol
 _atom_site_label
 _atom_site_symmetry_multiplicity
 _atom_site_fract_x
 _atom_site_fract_y
 _atom_site_fract_z
 _atom_site_occupancy
  B  B0  1  0.78832100  0.75000000  0.50400800  1
  B  B1  1  0.28832100  0.25000000  0.99599200  1
  B  B2  1  0.21167900  0.25000000  0.49599200  1
  B  B3  1  0.71167900  0.75000000  0.00400800  1
  B  B4  1  0.63081200  0.75000000  0.57440200  1
  B  B5  1  0.13081200  0.25000000  0.92559800  1
  B  B6  1  0.36918800  0.25000000  0.42559800  1
  B  B7  1  0.86918800  0.75000000  0.07440200  1
  B  B8  1  0.23910500  0.44497300  0.43434800  1
  B  B9  1  0.73910500  0.55502700  0.06565200  1
  B  B10  1  0.76089500  0.94497300  0.56565200  1
  B  B11  1  0.26089500  0.05502700  0.93434800  1
  B  B12  1  0.76089500  0.55502700  0.56565200  1
  B  B13  1  0.26089500  0.44497300  0.93434800  1
  B  B14  1  0.23910500  0.05502700  0.43434800  1
  B  B15  1  0.73910500  0.94497300  0.06565200  1
  B  B16  1  0.07966300  0.44485700  0.35467500  1
  B  B17  1  0.57966300  0.55514300  0.14532500  1
  B  B18  1  0.92033700  0.94485700  0.64532500  1
  B  B19  1  0.42033700  0.05514300  0.85467500  1
  B  B20  1  0.92033700  0.55514300  0.64532500  1
  B  B21  1  0.42033700  0.44485700  0.85467500  1
  B  B22  1  0.07966300  0.05514300  0.35467500  1
  B  B23  1  0.57966300  0.94485700  0.14532500  1
  B  B24  1  0.31005800  0.37149800  0.34631300  1
  B  B25  1  0.81005800  0.62850200  0.15368700  1
  B  B26  1  0.68994200  0.87149800  0.65368700  1
  B  B27  1  0.18994200  0.12850200  0.84631300  1
  B  B28  1  0.68994200  0.62850200  0.65368700  1
  B  B29  1  0.18994200  0.37149800  0.84631300  1
  B  B30  1  0.31005800  0.12850200  0.34631300  1
  B  B31  1  0.81005800  0.87149800  0.15368700  1
  B  B32  1  0.86873600  0.75000000  0.69472900  1
  B  B33  1  0.36873600  0.25000000  0.80527100  1
  B  B34  1  0.13126400  0.25000000  0.30527100  1
  B  B35  1  0.63126400  0.75000000  0.19472900  1
  B  B36  1  0.07682100  0.75000000  0.64972700  1
  B  B37  1  0.57682100  0.25000000  0.85027300  1
  B  B38  1  0.92317900  0.25000000  0.35027300  1
  B  B39  1  0.42317900  0.75000000  0.14972700  1
  H  H0  1  0.95048300  0.75000000  0.49305700  1
  H  H1  1  0.45048300  0.25000000  0.00694300  1
  H  H2  1  0.04951700  0.25000000  0.50694300  1
  H  H3  1  0.54951700  0.75000000  0.99305700  1
  H  H4  1  0.47721700  0.75000000  0.55066100  1
  H  H5  1  0.97721700  0.25000000  0.94933900  1
  H  H6  1  0.52278300  0.25000000  0.44933900  1
  H  H7  1  0.02278300  0.75000000  0.05066100  1
  H  H8  1  0.29646900  0.58393400  0.45749900  1
  H  H9  1  0.79646900  0.41606600  0.04250100  1
  H  H10  1  0.70353100  0.08393400  0.54250100  1
  H  H11  1  0.20353100  0.91606600  0.95749900  1
  H  H12  1  0.70353100  0.41606600  0.54250100  1
  H  H13  1  0.20353100  0.58393400  0.95749900  1
  H  H14  1  0.29646900  0.91606600  0.45749900  1
  H  H15  1  0.79646900  0.08393400  0.04250100  1
  H  H16  1  0.05782000  0.45508700  0.42709100  1
  H  H17  1  0.55782000  0.54491300  0.07290900  1
  H  H18  1  0.94218000  0.95508700  0.57290900  1
  H  H19  1  0.44218000  0.04491300  0.92709100  1
  H  H20  1  0.94218000  0.54491300  0.57290900  1
  H  H21  1  0.44218000  0.45508700  0.92709100  1
  H  H22  1  0.05782000  0.04491300  0.42709100  1
  H  H23  1  0.55782000  0.95508700  0.07290900  1
  H  H24  1  0.03502300  0.58421800  0.32737500  1
  H  H25  1  0.53502300  0.41578200  0.17262500  1
  H  H26  1  0.96497700  0.08421800  0.67262500  1
  H  H27  1  0.46497700  0.91578200  0.82737500  1
  H  H28  1  0.96497700  0.41578200  0.67262500  1
  H  H29  1  0.76894900  0.75000000  0.38351800  1
  H  H30  1  0.46497700  0.58421800  0.82737500  1
  H  H31  1  0.53502300  0.08421800  0.17262500  1
  H  H32  1  0.42269800  0.45076600  0.31073000  1
  H  H33  1  0.92269800  0.54923400  0.18927000  1
  H  H34  1  0.57730200  0.95076600  0.68927000  1
  H  H35  1  0.07730200  0.04923400  0.81073000  1
  H  H36  1  0.57730200  0.54923400  0.68927000  1
  H  H37  1  0.07730200  0.45076600  0.81073000  1
  H  H38  1  0.42269800  0.04923400  0.31073000  1
  H  H39  1  0.92269800  0.95076600  0.18927000  1
  H  H40  1  0.89193400  0.75000000  0.76014700  1
  H  H41  1  0.39193400  0.25000000  0.73985300  1
  H  H42  1  0.10806600  0.25000000  0.23985300  1
  H  H43  1  0.60806600  0.75000000  0.26014700  1
  H  H44  1  0.14076200  0.75000000  0.58896600  1
  H  H45  1  0.64076200  0.25000000  0.91103400  1
  H  H46  1  0.85923800  0.25000000  0.41103400  1
  H  H47  1  0.35923800  0.75000000  0.08896600  1
  H  H48  1  0.13527000  0.75000000  0.18769600  1
  H  H49  1  0.63527000  0.25000000  0.31230400  1
  H  H50  1  0.86473000  0.25000000  0.81230400  1
  H  H51  1  0.36473000  0.75000000  0.68769600  1
  H  H52  1  0.27125800  0.85935500  0.24438200  1
  H  H53  1  0.77125800  0.14064500  0.25561800  1
  H  H54  1  0.72874200  0.35935500  0.75561800  1
  H  H55  1  0.22874200  0.64064500  0.74438200  1
  H  H56  1  0.72874200  0.14064500  0.75561800  1
  H  H57  1  0.22874200  0.85935500  0.74438200  1
  H  H58  1  0.27125800  0.64064500  0.24438200  1
  H  H59  1  0.77125800  0.35935500  0.25561800  1
  H  H60  1  0.90397400  0.64067400  0.92195300  1
  H  H61  1  0.40397400  0.35932600  0.57804700  1
  H  H62  1  0.09602600  0.14067400  0.07804700  1
  H  H63  1  0.59602600  0.85932600  0.42195300  1
  H  H64  1  0.09602600  0.35932600  0.07804700  1
  H  H65  1  0.59602600  0.64067400  0.42195300  1
  H  H66  1  0.90397400  0.85932600  0.92195300  1
  H  H67  1  0.40397400  0.14067400  0.57804700  1
  H  H68  1  0.73105100  0.75000000  0.88351800  1
  H  H69  1  0.23105100  0.25000000  0.61648200  1
  H  H70  1  0.26894900  0.25000000  0.11648200  1
  H  H71  1  0.03502300  0.91578200  0.32737500  1
  N  N0  1  0.68018400  0.75000000  0.42725300  1
  N  N1  1  0.18018400  0.25000000  0.07274700  1
  N  N2  1  0.31981600  0.25000000  0.57274700  1
  N  N3  1  0.81981600  0.75000000  0.92725300  1
  N  N4  1  0.23533800  0.75000000  0.71022800  1
  N  N5  1  0.73533800  0.25000000  0.78977200  1
  N  N6  1  0.76466200  0.25000000  0.28977200  1
  N  N7  1  0.26466200  0.75000000  0.21022800  1
loop_
_geom_bond_atom_site_label_1
_geom_bond_atom_site_label_2
_geom_bond_distance
_geom_bond_site_symmetry_2
B0 H0 1.199084 1_555
B0 N0 1.605222 1_555
B1 H1 1.199084 1_556
B1 N1 1.605222 1_556
B2 H2 1.199084 1_555
B2 N2 1.605222 1_555
B3 H3 1.199084 1_554
B3 N3 1.605222 1_554
B4 H4 1.200516 1_555
B5 H5 1.200516 1_455
B6 H6 1.200516 1_555
B7 H7 1.200516 1_655
B8 H8 1.199693 1_555
B8 H16 1.330563 1_555
B9 H9 1.199693 1_555
B9 H17 1.330563 1_555
B10 H10 1.199693 1_565
B10 H18 1.330563 1_555
B11 H11 1.199693 1_545
B11 H19 1.330563 1_555
B12 H12 1.199693 1_555
B12 H20 1.330563 1_555
B13 H13 1.199693 1_555
B13 H21 1.330563 1_555
B14 H14 1.199693 1_545
B14 H22 1.330563 1_555
B15 H15 1.199693 1_565
B15 H23 1.330563 1_555
B16 H24 1.202494 1_555
B16 H16 1.330987 1_555
B17 H25 1.202494 1_555
B17 H17 1.330987 1_555
B18 H26 1.202494 1_565
B18 H18 1.330987 1_555
B19 H27 1.202494 1_545
B19 H19 1.330987 1_555
B20 H28 1.202494 1_555
B20 H20 1.330987 1_555
B21 H30 1.202494 1_555
B21 H21 1.330987 1_555
B22 H71 1.202494 1_545
B22 H22 1.330987 1_555
B23 H31 1.202494 1_565
B23 H23 1.330987 1_555
B24 H32 1.203423 1_555
B25 H33 1.203423 1_555
B26 H34 1.203423 1_555
B27 H35 1.203423 1_555
B28 H36 1.203423 1_555
B29 H37 1.203423 1_555
B30 H38 1.203423 1_555
B31 H39 1.203423 1_555
B32 H40 1.203656 1_555
B33 H41 1.203656 1_555
B34 H42 1.203656 1_555
B35 H43 1.203656 1_555
B36 H44 1.201054 1_555
B36 N4 1.597052 1_555
B37 H45 1.201054 1_555
B37 N5 1.597052 1_555
B38 H46 1.201054 1_555
B38 N6 1.597052 1_555
B39 H47 1.201054 1_555
B39 N7 1.597052 1_555
H29 N0 1.026470 1_555
H48 N7 1.028859 1_555
H49 N6 1.028859 1_555
H50 N5 1.028859 1_555
H51 N4 1.028859 1_555
H52 N7 1.030655 1_555
H53 N6 1.030655 1_555
H54 N5 1.030655 1_555
H55 N4 1.030655 1_555
H56 N5 1.030655 1_555
H57 N4 1.030655 1_555
H58 N7 1.030655 1_555
H59 N6 1.030655 1_555
H60 N3 1.028750 1_555
H61 N2 1.028750 1_555
H62 N1 1.028750 1_555
H63 N0 1.028750 1_555
H64 N1 1.028750 1_555
H65 N0 1.028750 1_555
H66 N3 1.028750 1_555
H67 N2 1.028750 1_555
H68 N3 1.026470 1_555
H69 N2 1.026470 1_555
H70 N1 1.026470 1_555
