# generated using pymatgen
data_U3Co2Ge7
_symmetry_space_group_name_H-M   'P 1'
_cell_length_a   12.62934826
_cell_length_b   12.62934826
_cell_length_c   4.17751800
_cell_angle_alpha   90.00000000
_cell_angle_beta   90.00000000
_cell_angle_gamma   161.10919695
_symmetry_Int_Tables_number   1
_chemical_formula_structural   U3Co2Ge7
_chemical_formula_sum   'U3 Co2 Ge7'
_cell_volume   215.73015017
_cell_formula_units_Z   1
loop_
 _symmetry_equiv_pos_site_id
 _symmetry_equiv_pos_as_xyz
  1  'x, y, z'
loop_
 _atom_site_type_symbol
 _atom_site_label
 _atom_site_symmetry_multiplicity
 _atom_site_fract_x
 _atom_site_fract_y
 _atom_site_fract_z
 _atom_site_occupancy
  U  U0  1  0.18581300  0.81418700  0.00000000  1
  U  U1  1  0.81418700  0.18581300  0.00000000  1
  U  U2  1  0.50000000  0.50000000  0.50000000  1
  Co  Co0  1  0.37229600  0.62770400  0.50000000  1
  Co  Co1  1  0.62770400  0.37229600  0.50000000  1
  Ge  Ge0  1  0.27971100  0.72028900  0.50000000  1
  Ge  Ge1  1  0.00000000  0.00000000  0.00000000  1
  Ge  Ge2  1  0.58803200  0.41196800  0.00000000  1
  Ge  Ge3  1  0.41196800  0.58803200  0.00000000  1
  Ge  Ge4  1  0.91289200  0.08710800  0.50000000  1
  Ge  Ge5  1  0.08710800  0.91289200  0.50000000  1
  Ge  Ge6  1  0.72028900  0.27971100  0.50000000  1
loop_
_geom_bond_atom_site_label_1
_geom_bond_atom_site_label_2
_geom_bond_distance
_geom_bond_site_symmetry_2
Co0 Ge4 2.306229 1_455
Co0 Ge4 2.306229 1_565
Co0 Ge0 2.306871 1_555
Co0 Ge3 2.310844 1_556
Co0 Ge3 2.310844 1_555
Co0 U1 3.279446 1_455
Co0 U1 3.279446 1_456
Co0 U1 3.279446 1_566
Co0 U1 3.279446 1_565
Co1 Ge5 2.306229 1_545
Co1 Ge5 2.306229 1_655
Co1 Ge6 2.306871 1_555
Co1 Ge2 2.310844 1_555
Co1 Ge2 2.310844 1_556
Co1 U0 3.279446 1_545
Co1 U0 3.279446 1_546
Co1 U0 3.279446 1_655
Co1 U0 3.279446 1_656
Ge0 Ge6 2.547088 1_455
Ge0 Ge6 2.547088 1_565
Ge0 U1 3.065351 1_566
Ge0 U1 3.065351 1_565
Ge0 U1 3.065351 1_456
Ge0 U1 3.065351 1_455
Ge0 U0 3.136332 1_556
Ge0 U0 3.136332 1_555
Ge1 U2 2.942528 1_555
Ge1 U2 2.942528 1_445
Ge1 U2 2.942528 1_444
Ge1 U2 2.942528 1_554
Ge2 U2 3.028867 1_554
Ge2 U2 3.028867 1_555
Ge2 U0 3.198639 1_655
Ge2 U0 3.198639 1_545
Ge3 U2 3.028867 1_554
Ge3 U2 3.028867 1_555
Ge3 U1 3.198639 1_565
Ge3 U1 3.198639 1_455
Ge4 U2 3.001036 1_545
Ge4 U2 3.001036 1_655
Ge4 U1 3.226664 1_556
Ge4 U1 3.226664 1_555
Ge5 U2 3.001036 1_455
Ge5 U2 3.001036 1_565
Ge5 U0 3.226664 1_556
Ge5 U0 3.226664 1_555
Ge6 U0 3.065351 1_656
Ge6 U0 3.065351 1_655
Ge6 U0 3.065351 1_545
Ge6 U0 3.065351 1_546
Ge6 U1 3.136332 1_556
Ge6 U1 3.136332 1_555
