# generated using pymatgen
data_Na3ZrSi2SnPO12
_symmetry_space_group_name_H-M   'P 1'
_cell_length_a   9.11839198
_cell_length_b   9.12421958
_cell_length_c   22.80168856
_cell_angle_alpha   89.92830251
_cell_angle_beta   90.08746981
_cell_angle_gamma   120.02270617
_symmetry_Int_Tables_number   1
_chemical_formula_structural   Na3ZrSi2SnPO12
_chemical_formula_sum   'Na18 Zr6 Si12 Sn6 P6 O72'
_cell_volume   1642.52368016
_cell_formula_units_Z   6
loop_
 _symmetry_equiv_pos_site_id
 _symmetry_equiv_pos_as_xyz
  1  'x, y, z'
loop_
 _atom_site_type_symbol
 _atom_site_label
 _atom_site_symmetry_multiplicity
 _atom_site_fract_x
 _atom_site_fract_y
 _atom_site_fract_z
 _atom_site_occupancy
  Na  Na0  1  0.99828416  0.99136844  0.50051894  1
  Na  Na1  1  0.00903466  0.00303988  0.99962864  1
  Na  Na2  1  0.66424712  0.32435553  0.83458646  1
  Na  Na3  1  0.67431606  0.33595662  0.33284764  1
  Na  Na4  1  0.33014670  0.65872484  0.16689643  1
  Na  Na5  1  0.34196426  0.66881858  0.66804469  1
  Na  Na6  1  0.63950879  0.00061398  0.25097889  1
  Na  Na7  1  0.99837206  0.63235921  0.25156875  1
  Na  Na8  1  0.99686618  0.35937168  0.75182747  1
  Na  Na9  1  0.36925827  0.00164951  0.75300888  1
  Na  Na10  1  0.30705939  0.33513485  0.58439090  1
  Na  Na11  1  0.66487060  0.96492831  0.58534857  1
  Na  Na12  1  0.66586066  0.69426020  0.08418713  1
  Na  Na13  1  0.03683742  0.33567338  0.08435063  1
  Na  Na14  1  0.97214171  0.66783563  0.91813289  1
  Na  Na15  1  0.33183103  0.29708200  0.91859872  1
  Na  Na16  1  0.33189822  0.02774868  0.41740450  1
  Na  Na17  1  0.70205723  0.66731795  0.41828434  1
  Zr  Zr0  1  0.99273976  0.00183365  0.35106138  1
  Zr  Zr1  1  0.99661997  0.99342905  0.64927514  1
  Zr  Zr2  1  0.00695020  0.00232857  0.14753942  1
  Zr  Zr3  1  0.65931194  0.33477265  0.68680446  1
  Zr  Zr4  1  0.67513530  0.33628587  0.48059254  1
  Zr  Zr5  1  0.33093700  0.67292272  0.51904826  1
  Si  Si0  1  0.69998739  0.70119670  0.24934976  1
  Si  Si1  1  0.00039495  0.29875341  0.24744046  1
  Si  Si2  1  0.29202379  0.29673606  0.75205580  1
  Si  Si3  1  0.70374066  0.99506500  0.75108985  1
  Si  Si4  1  0.37135010  0.04024864  0.58295499  1
  Si  Si5  1  0.66807476  0.62945473  0.58147985  1
  Si  Si6  1  0.95890607  0.62374579  0.08183325  1
  Si  Si7  1  0.37664811  0.33524393  0.08021208  1
  Si  Si8  1  0.03904544  0.37303328  0.91665752  1
  Si  Si9  1  0.33488544  0.95976193  0.91524260  1
  Si  Si10  1  0.62409489  0.95884203  0.41507477  1
  Si  Si11  1  0.03975225  0.66621483  0.41312478  1
  Sn  Sn0  1  0.99964845  0.00501134  0.85285588  1
  Sn  Sn1  1  0.66552207  0.33874817  0.18420469  1
  Sn  Sn2  1  0.66452140  0.32634735  0.98080005  1
  Sn  Sn3  1  0.32840487  0.66747596  0.01806981  1
  Sn  Sn4  1  0.33023687  0.65907283  0.31452579  1
  Sn  Sn5  1  0.33841610  0.66907375  0.81607998  1
  P  P0  1  0.29759646  0.00198925  0.25108195  1
  P  P1  1  0.00139103  0.70802737  0.75366804  1
  P  P2  1  0.96026022  0.33315527  0.58565227  1
  P  P3  1  0.66308200  0.04034538  0.08382889  1
  P  P4  1  0.62669948  0.66825720  0.91796949  1
  P  P5  1  0.33331772  0.37417341  0.41743253  1
  O  O0  1  0.21893995  0.02851406  0.30683003  1
  O  O1  1  0.82293951  0.78972664  0.30690430  1
  O  O2  1  0.96732757  0.17355906  0.30338736  1
  O  O3  1  0.21327896  0.17312487  0.80983974  1
  O  O4  1  0.97141764  0.78405537  0.80994731  1
  O  O5  1  0.83125862  0.03518046  0.80687541  1
  O  O6  1  0.78811277  0.96913070  0.69154668  1
  O  O7  1  0.17346347  0.20974062  0.69382209  1
  O  O8  1  0.03040519  0.82477669  0.70046324  1
  O  O9  1  0.79060623  0.82326786  0.19217008  1
  O  O10  1  0.02706749  0.21121821  0.18923256  1
  O  O11  1  0.17981071  0.97288195  0.19802504  1
  O  O12  1  0.88080754  0.35882757  0.64128853  1
  O  O13  1  0.49226026  0.12722043  0.64089846  1
  O  O14  1  0.63908839  0.50485820  0.63723399  1
  O  O15  1  0.88032171  0.50322000  0.14070209  1
  O  O16  1  0.63229539  0.11560739  0.14061884  1
  O  O17  1  0.50049281  0.37455900  0.13739622  1
  O  O18  1  0.45571533  0.30311719  0.02078694  1
  O  O19  1  0.83781442  0.53988998  0.02384987  1
  O  O20  1  0.70114688  0.15755340  0.03048552  1
  O  O21  1  0.46154897  0.15770755  0.52503450  1
  O  O22  1  0.69294541  0.54280074  0.52255067  1
  O  O23  1  0.84507916  0.30482880  0.53189481  1
  O  O24  1  0.55121645  0.69920205  0.97450931  1
  O  O25  1  0.16140799  0.45303769  0.97482857  1
  O  O26  1  0.29490381  0.83423316  0.97164046  1
  O  O27  1  0.53940542  0.83897631  0.47320546  1
  O  O28  1  0.30671019  0.45313393  0.47316669  1
  O  O29  1  0.16311971  0.69637106  0.46928289  1
  O  O30  1  0.12101724  0.63635884  0.35355107  1
  O  O31  1  0.50434256  0.87348292  0.35681075  1
  O  O32  1  0.36962784  0.49092360  0.36332994  1
  O  O33  1  0.12172240  0.49425305  0.85837140  1
  O  O34  1  0.36547629  0.88071506  0.85536207  1
  O  O35  1  0.50905344  0.63175064  0.86452865  1
  O  O36  1  0.02959507  0.84148978  0.41057017  1
  O  O37  1  0.80868413  0.96953717  0.41092309  1
  O  O38  1  0.17991340  0.19404652  0.41023260  1
  O  O39  1  0.02891993  0.18802866  0.91232015  1
  O  O40  1  0.15735092  0.97054509  0.91131073  1
  O  O41  1  0.80855800  0.82234211  0.91100460  1
  O  O42  1  0.97432419  0.17086167  0.58892684  1
  O  O43  1  0.18988153  0.03300377  0.58893227  1
  O  O44  1  0.82860848  0.82136070  0.58689892  1
  O  O45  1  0.96716204  0.80653291  0.08849128  1
  O  O46  1  0.82399686  0.02330648  0.08930466  1
  O  O47  1  0.18346817  0.17535877  0.08689109  1
  O  O48  1  0.69141462  0.16945702  0.74626025  1
  O  O49  1  0.47714739  0.30906979  0.74628167  1
  O  O50  1  0.84925905  0.52749150  0.74588288  1
  O  O51  1  0.69312372  0.51802933  0.24537898  1
  O  O52  1  0.82188433  0.30587533  0.24365504  1
  O  O53  1  0.47880703  0.15651371  0.24330697  1
  O  O54  1  0.64278384  0.50595776  0.92191378  1
  O  O55  1  0.85548713  0.36649317  0.92239946  1
  O  O56  1  0.49642707  0.15384907  0.92070057  1
  O  O57  1  0.63344142  0.14131407  0.42080154  1
  O  O58  1  0.49448352  0.35768630  0.42171374  1
  O  O59  1  0.84774091  0.50564823  0.41881703  1
  O  O60  1  0.36656931  0.51301111  0.07651604  1
  O  O61  1  0.14473286  0.63494310  0.07770013  1
  O  O62  1  0.50885405  0.85858623  0.07658526  1
  O  O63  1  0.36135276  0.85625937  0.57911160  1
  O  O64  1  0.49250203  0.63880480  0.57897982  1
  O  O65  1  0.14078511  0.48558943  0.57825874  1
  O  O66  1  0.31167566  0.83883890  0.25400072  1
  O  O67  1  0.51834677  0.69697998  0.25551379  1
  O  O68  1  0.16287265  0.49091958  0.25336470  1
  O  O69  1  0.29742373  0.47896611  0.75752467  1
  O  O70  1  0.16530618  0.69542974  0.75612885  1
  O  O71  1  0.51071917  0.83228230  0.75541511  1
loop_
_geom_bond_atom_site_label_1
_geom_bond_atom_site_label_2
_geom_bond_distance
_geom_bond_site_symmetry_2
Na0 O44 2.505861 1_555
Na0 O36 2.560798 1_655
Na0 O43 2.566651 1_665
Na0 O37 2.616831 1_555
Na0 O42 2.676045 1_565
Na0 O38 2.708681 1_665
Na1 O40 2.526529 1_545
Na1 O47 2.540984 1_556
Na1 O39 2.555671 1_555
Na1 O45 2.602751 1_446
Na1 O41 2.669193 1_445
Na1 O46 2.717675 1_456
Na2 O56 2.497344 1_555
Na2 O48 2.544407 1_555
Na2 O55 2.553070 1_555
Na2 O49 2.595446 1_555
Na2 O54 2.661345 1_555
Na2 O50 2.691519 1_555
Na3 O59 2.507694 1_555
Na3 O52 2.530092 1_555
Na3 O51 2.544534 1_555
Na3 O57 2.577977 1_555
Na3 O53 2.665272 1_555
Na3 O58 2.677792 1_555
Na4 O68 2.494531 1_555
Na4 O67 2.557630 1_555
Na4 O60 2.564321 1_555
Na4 O61 2.581746 1_555
Na4 O66 2.638180 1_555
Na4 O62 2.692309 1_555
Na5 O71 2.502523 1_555
Na5 O64 2.543528 1_555
Na5 O69 2.572572 1_555
Na5 O63 2.599641 1_555
Na5 O70 2.662740 1_555
Na5 O65 2.698073 1_555
Na6 O67 2.417289 1_545
Na6 O52 2.432237 1_555
Na6 O53 2.507120 1_555
Na6 O66 2.589290 1_545
Na6 O31 2.694306 1_545
Na6 O16 2.738502 1_555
Na6 O2 2.850782 1_555
Na6 O9 2.925197 1_545
Na7 O68 2.419473 1_655
Na7 O51 2.439044 1_555
Na7 O66 2.515507 1_655
Na7 O30 2.571140 1_655
Na7 O52 2.588343 1_555
Na7 O15 2.769029 1_555
Na7 O1 2.919205 1_555
Na7 O11 2.955335 1_655
Na8 O69 2.392730 1_655
Na8 O48 2.438469 1_555
Na8 O50 2.499585 1_555
Na8 O70 2.656724 1_655
Na8 O33 2.703626 1_655
Na8 O12 2.731186 1_555
Na8 O5 2.851697 1_555
Na8 O7 2.901256 1_655
Na9 O71 2.459512 1_545
Na9 O70 2.463817 1_545
Na9 O49 2.469257 1_555
Na9 O48 2.548953 1_555
Na9 O34 2.573172 1_545
Na9 O13 2.796581 1_555
Na9 O3 2.896116 1_555
Na9 O8 2.930956 1_545
Na10 O43 2.409137 1_555
Na10 O64 2.421354 1_555
Na10 O65 2.506880 1_555
Na10 O42 2.629142 1_455
Na10 O28 2.754552 1_555
Na10 O7 2.761615 1_555
Na10 O14 2.884090 1_555
Na10 O21 2.954720 1_555
Na11 O44 2.429644 1_555
Na11 O63 2.432295 1_555
Na11 O42 2.488656 1_565
Na11 O64 2.581870 1_555
Na11 O6 2.660222 1_555
Na11 O27 2.801930 1_555
Na11 O13 2.935537 1_565
Na11 O23 2.949738 1_565
Na12 O60 2.386677 1_555
Na12 O45 2.406288 1_555
Na12 O62 2.544465 1_555
Na12 O46 2.602849 1_565
Na12 O24 2.718076 1_554
Na12 O9 2.720417 1_555
Na12 O17 2.801769 1_555
Na12 O19 2.925158 1_555
Na13 O61 2.399632 1_555
Na13 O47 2.426373 1_555
Na13 O46 2.523313 1_455
Na13 O60 2.611992 1_555
Na13 O10 2.628545 1_555
Na13 O25 2.730966 1_554
Na13 O15 2.866811 1_455
Na13 O20 2.921419 1_455
Na14 O55 2.402859 1_555
Na14 O40 2.415969 1_655
Na14 O41 2.518271 1_555
Na14 O54 2.601910 1_555
Na14 O4 2.685163 1_555
Na14 O19 2.691620 1_556
Na14 O26 2.824463 1_655
Na14 O33 2.897995 1_655
Na15 O39 2.426623 1_555
Na15 O56 2.434178 1_555
Na15 O54 2.503909 1_555
Na15 O18 2.576494 1_556
Na15 O40 2.587015 1_545
Na15 O3 2.715322 1_555
Na15 O25 2.882193 1_555
Na15 O35 2.917971 1_555
Na16 O57 2.405914 1_555
Na16 O36 2.412963 1_545
Na16 O38 2.520437 1_555
Na16 O58 2.608522 1_555
Na16 O0 2.723425 1_555
Na16 O21 2.724360 1_555
Na16 O29 2.872262 1_545
Na16 O31 2.930684 1_545
Na17 O37 2.427720 1_555
Na17 O59 2.429307 1_555
Na17 O58 2.493791 1_555
Na17 O36 2.593780 1_655
Na17 O22 2.617121 1_555
Na17 O1 2.771596 1_555
Na17 O32 2.908656 1_555
Na17 O27 2.925088 1_555
O0 P0 1.538199 1_555
O0 Zr0 2.198627 1_455
O1 Si0 1.650327 1_555
O1 Zr0 2.039128 1_565
O2 Si1 1.635848 1_655
O2 Zr0 2.012140 1_555
O3 Si2 1.646936 1_555
O3 Sn0 2.030150 1_455
O4 P1 1.547804 1_655
O4 Sn0 2.138413 1_565
O5 Si3 1.635463 1_545
O5 Sn0 1.987432 1_555
O6 Si3 1.636261 1_555
O6 Zr1 2.043574 1_555
O7 Si2 1.643613 1_555
O7 Zr1 2.083891 1_445
O8 P1 1.546682 1_555
O8 Zr1 2.072189 1_455
O9 Si0 1.643744 1_555
O9 Zr2 2.091228 1_665
O10 Si1 1.629921 1_555
O10 Zr2 2.055294 1_555
O11 P0 1.548881 1_565
O11 Zr2 2.073465 1_565
O12 P2 1.537029 1_555
O12 Zr3 2.183265 1_555
O13 Si4 1.647276 1_555
O13 Zr3 2.028716 1_555
O14 Si5 1.635597 1_555
O14 Zr3 2.000325 1_555
O15 Si6 1.653874 1_555
O15 Sn1 2.033004 1_555
O16 P3 1.556727 1_555
O16 Sn1 2.147464 1_555
O17 Si7 1.641758 1_555
O17 Sn1 1.999148 1_555
O18 Si7 1.630087 1_555
O18 Sn2 2.025426 1_554
O19 Si6 1.644767 1_555
O19 Sn2 2.043500 1_554
O20 P3 1.539538 1_555
O20 Sn2 2.067885 1_554
O21 Si4 1.639195 1_555
O21 Zr4 2.073926 1_555
O22 Si5 1.632502 1_555
O22 Zr4 2.046958 1_555
O23 P2 1.548411 1_555
O23 Zr4 2.071418 1_555
O24 P4 1.553573 1_555
O24 Sn3 2.148255 1_556
O25 Si8 1.649233 1_555
O25 Sn3 2.034190 1_556
O26 Si9 1.636567 1_555
O26 Sn3 1.997307 1_556
O27 Si10 1.644297 1_555
O27 Zr5 2.030188 1_555
O28 P5 1.539831 1_555
O28 Zr5 2.173971 1_555
O29 Si11 1.633269 1_555
O29 Zr5 1.999171 1_555
O30 Si11 1.635388 1_555
O30 Sn4 2.020728 1_555
O31 Si10 1.646519 1_555
O31 Sn4 2.041889 1_555
O32 P5 1.552821 1_555
O32 Sn4 2.065718 1_555
O33 Si8 1.650133 1_555
O33 Sn5 2.055839 1_555
O34 Si9 1.633156 1_555
O34 Sn5 2.029533 1_555
O35 P4 1.544677 1_555
O35 Sn5 2.069140 1_555
O36 Si11 1.648494 1_555
O36 Zr0 2.140131 1_465
O37 Si10 1.639391 1_555
O37 Zr0 2.068253 1_565
O38 P5 1.544081 1_555
O38 Zr0 2.193773 1_455
O39 Si8 1.646863 1_555
O39 Sn0 2.063189 1_455
O40 Si9 1.672496 1_555
O40 Sn0 2.094967 1_465
O41 P4 1.555281 1_555
O41 Sn0 2.160415 1_565
O42 P2 1.550652 1_555
O42 Zr1 2.208779 1_545
O43 Si4 1.628555 1_555
O43 Zr1 2.120946 1_445
O44 Si5 1.630672 1_555
O44 Zr1 2.104004 1_555
O45 Si6 1.638657 1_555
O45 Zr2 2.119404 1_665
O46 P3 1.555746 1_555
O46 Zr2 2.212461 1_655
O47 Si7 1.637989 1_555
O47 Zr2 2.110456 1_555
O48 Si3 1.653824 1_545
O48 Zr3 2.152743 1_555
O49 Si2 1.640119 1_555
O49 Zr3 2.066295 1_555
O50 P1 1.543571 1_655
O50 Zr3 2.204006 1_555
O51 Si0 1.643446 1_555
O51 Sn1 2.068217 1_555
O52 Si1 1.663304 1_655
O52 Sn1 2.093174 1_555
O53 P0 1.555167 1_555
O53 Sn1 2.155932 1_555
O54 P4 1.561888 1_555
O54 Sn2 2.201491 1_555
O55 Si8 1.650111 1_655
O55 Sn2 2.075363 1_555
O56 Si9 1.646498 1_545
O56 Sn2 2.071075 1_555
O57 Si10 1.629348 1_545
O57 Zr4 2.120291 1_555
O58 P5 1.553239 1_555
O58 Zr4 2.206453 1_555
O59 Si11 1.631573 1_655
O59 Zr4 2.101597 1_555
O60 Si7 1.671882 1_555
O60 Sn3 2.090006 1_555
O61 Si6 1.648539 1_455
O61 Sn3 2.061605 1_555
O62 P3 1.556101 1_565
O62 Sn3 2.157821 1_555
O63 Si4 1.637505 1_565
O63 Zr5 2.071512 1_555
O64 Si5 1.646184 1_555
O64 Zr5 2.141591 1_555
O65 P2 1.543284 1_455
O65 Zr5 2.187779 1_555
O66 P0 1.558161 1_565
O66 Sn4 2.212466 1_555
O67 Si0 1.643592 1_555
O67 Sn4 2.069909 1_555
O68 Si1 1.639516 1_555
O68 Sn4 2.069684 1_555
O69 Si2 1.643516 1_555
O69 Sn5 2.070414 1_555
O70 P1 1.556265 1_555
O70 Sn5 2.188729 1_555
O71 Si3 1.642478 1_555
O71 Sn5 2.063892 1_555
