# generated using pymatgen
data_Tb2Fe3Si5
_symmetry_space_group_name_H-M   'P 1'
_cell_length_a   10.31487426
_cell_length_b   10.31487546
_cell_length_c   5.47041730
_cell_angle_alpha   89.99998717
_cell_angle_beta   89.99999283
_cell_angle_gamma   90.00017086
_symmetry_Int_Tables_number   1
_chemical_formula_structural   Tb2Fe3Si5
_chemical_formula_sum   'Tb8 Fe12 Si20'
_cell_volume   582.03403859
_cell_formula_units_Z   4
loop_
 _symmetry_equiv_pos_site_id
 _symmetry_equiv_pos_as_xyz
  1  'x, y, z'
loop_
 _atom_site_type_symbol
 _atom_site_label
 _atom_site_symmetry_multiplicity
 _atom_site_fract_x
 _atom_site_fract_y
 _atom_site_fract_z
 _atom_site_occupancy
  Tb  Tb0  1  0.23633380  0.06963840  0.99999990  1
  Tb  Tb1  1  0.06964290  0.76367308  0.99999980  1
  Tb  Tb2  1  0.93035384  0.23632722  0.99999989  1
  Tb  Tb3  1  0.76366624  0.93036303  0.99999999  1
  Tb  Tb4  1  0.26367661  0.56964222  0.50000021  1
  Tb  Tb5  1  0.73632401  0.43035774  0.50000025  1
  Tb  Tb6  1  0.56963941  0.73633069  0.50000034  1
  Tb  Tb7  1  0.43036497  0.26366931  0.50000029  1
  Fe  Fe0  1  0.85453935  0.12300829  0.50000088  1
  Fe  Fe1  1  -0.00000039  0.49999860  0.25000147  1
  Fe  Fe2  1  0.50000071  1.00000024  0.74999970  1
  Fe  Fe3  1  -0.00000051  0.49999845  0.74999853  1
  Fe  Fe4  1  0.35453177  0.37699445  0.99999872  1
  Fe  Fe5  1  0.37699482  0.64546357  0.99999888  1
  Fe  Fe6  1  0.62300493  0.35453695  0.99999908  1
  Fe  Fe7  1  0.64546628  0.62300751  0.99999945  1
  Fe  Fe8  1  0.12300505  0.14546418  0.50000083  1
  Fe  Fe9  1  0.87699669  0.85453579  0.50000079  1
  Fe  Fe10  1  0.14546268  0.87699429  0.50000085  1
  Fe  Fe11  1  0.50000049  1.00000009  0.25000061  1
  Si  Si0  1  0.32076793  0.02033890  0.50000007  1
  Si  Si1  1  0.67923383  0.97966198  0.50000012  1
  Si  Si2  1  0.97965789  0.32075714  0.50000015  1
  Si  Si3  1  0.02033938  0.67923932  0.50000006  1
  Si  Si4  1  0.52034001  0.82076054  1.00000002  1
  Si  Si5  1  0.82075466  0.47965836  0.99999890  1
  Si  Si6  1  0.17924273  0.52034128  1.00000002  1
  Si  Si7  1  0.47966043  0.17923888  1.00000004  1
  Si  Si8  1  0.67706645  0.17706987  0.75000516  1
  Si  Si9  1  0.17707231  0.32292845  0.74999801  1
  Si  Si10  1  0.82292609  0.67707085  0.75000097  1
  Si  Si11  1  0.32293518  0.82292960  0.75000439  1
  Si  Si12  1  0.32293505  0.82292949  0.24999568  1
  Si  Si13  1  0.82292595  0.67707094  0.24999906  1
  Si  Si14  1  0.17707248  0.32292838  0.25000196  1
  Si  Si15  1  0.99999967  0.00000023  0.27420642  1
  Si  Si16  1  0.50000056  0.49999977  0.77420641  1
  Si  Si17  1  0.99999964  0.00000020  0.72579391  1
  Si  Si18  1  0.50000051  0.49999976  0.22579326  1
  Si  Si19  1  0.67706658  0.17706998  0.24999493  1
loop_
_geom_bond_atom_site_label_1
_geom_bond_atom_site_label_2
_geom_bond_distance
_geom_bond_site_symmetry_2
Fe0 Si17 2.320945 1_555
Fe0 Si15 2.320950 1_555
Fe0 Si1 2.335813 1_545
Fe0 Si8 2.352128 1_555
Fe0 Si19 2.352133 1_555
Fe0 Si2 2.413749 1_555
Fe0 Tb2 3.075572 1_555
Fe0 Tb2 3.075581 1_554
Fe1 Si3 2.309235 1_555
Fe1 Si2 2.309243 1_455
Fe1 Si6 2.309266 1_554
Fe1 Si5 2.309283 1_454
Fe1 Si14 2.583024 1_555
Fe1 Si13 2.583045 1_455
Fe1 Fe3 2.735193 1_555
Fe1 Fe3 2.735225 1_554
Fe1 Tb2 3.127844 1_454
Fe1 Tb5 3.127863 1_455
Fe1 Tb1 3.127865 1_554
Fe1 Tb4 3.127882 1_555
Fe2 Si0 2.309173 1_565
Fe2 Si1 2.309175 1_555
Fe2 Si7 2.309225 1_565
Fe2 Si4 2.309232 1_555
Fe2 Si8 2.582960 1_565
Fe2 Si11 2.582965 1_555
Fe2 Tb3 3.127771 1_555
Fe2 Tb0 3.127786 1_565
Fe2 Tb7 3.127797 1_565
Fe2 Tb6 3.127809 1_555
Fe3 Si3 2.309236 1_555
Fe3 Si2 2.309241 1_455
Fe3 Si6 2.309268 1_555
Fe3 Si5 2.309275 1_455
Fe3 Si9 2.583022 1_555
Fe3 Si10 2.583043 1_455
Fe3 Tb2 3.127841 1_455
Fe3 Tb5 3.127860 1_455
Fe3 Tb1 3.127867 1_555
Fe3 Tb4 3.127882 1_555
Fe4 Si16 2.320979 1_555
Fe4 Si18 2.320986 1_556
Fe4 Si6 2.335692 1_555
Fe4 Si9 2.352018 1_555
Fe4 Si14 2.352024 1_556
Fe4 Si7 2.413870 1_555
Fe4 Tb7 3.075644 1_555
Fe4 Tb7 3.075659 1_556
Fe5 Si16 2.320954 1_555
Fe5 Si18 2.320959 1_556
Fe5 Si4 2.335738 1_555
Fe5 Si11 2.352037 1_555
Fe5 Si12 2.352044 1_556
Fe5 Si6 2.413798 1_555
Fe5 Tb4 3.075585 1_555
Fe5 Tb4 3.075598 1_556
Fe6 Si16 2.320940 1_555
Fe6 Si18 2.320945 1_556
Fe6 Si7 2.335742 1_555
Fe6 Si8 2.352049 1_555
Fe6 Si19 2.352054 1_556
Fe6 Si5 2.413773 1_555
Fe6 Tb5 3.075587 1_555
Fe6 Tb5 3.075599 1_556
Fe7 Si16 2.320975 1_555
Fe7 Si18 2.320977 1_556
Fe7 Si5 2.335702 1_555
Fe7 Si10 2.352006 1_555
Fe7 Si13 2.352009 1_556
Fe7 Si4 2.413835 1_555
Fe7 Tb6 3.075623 1_555
Fe7 Tb6 3.075632 1_556
Fe8 Si17 2.320950 1_455
Fe8 Si15 2.320954 1_455
Fe8 Si2 2.335725 1_455
Fe8 Si9 2.352048 1_555
Fe8 Si14 2.352053 1_555
Fe8 Si0 2.413915 1_555
Fe8 Tb0 3.075642 1_555
Fe8 Tb0 3.075651 1_554
Fe9 Si17 2.320939 1_565
Fe9 Si15 2.320943 1_565
Fe9 Si3 2.335724 1_655
Fe9 Si10 2.352071 1_555
Fe9 Si13 2.352076 1_555
Fe9 Si1 2.413920 1_555
Fe9 Tb3 3.075653 1_555
Fe9 Tb3 3.075661 1_554
Fe10 Si17 2.320951 1_465
Fe10 Si15 2.320955 1_465
Fe10 Si0 2.335800 1_565
Fe10 Si11 2.352130 1_555
Fe10 Si12 2.352135 1_555
Fe10 Si3 2.413829 1_555
Fe10 Tb1 3.075594 1_555
Fe10 Tb1 3.075605 1_554
Fe11 Si0 2.309170 1_565
Fe11 Si1 2.309176 1_555
Fe11 Si7 2.309226 1_564
Fe11 Si4 2.309233 1_554
Fe11 Si19 2.582964 1_565
Fe11 Si12 2.582965 1_555
Fe11 Fe2 2.735204 1_555
Fe11 Fe2 2.735214 1_554
Fe11 Tb3 3.127774 1_554
Fe11 Tb0 3.127785 1_564
Fe11 Tb7 3.127799 1_565
Fe11 Tb6 3.127809 1_555
Si0 Si11 2.453004 1_545
Si0 Si12 2.453006 1_545
Si0 Tb7 2.752759 1_555
Si0 Tb0 2.915213 1_555
Si0 Tb0 2.915215 1_554
Si1 Si8 2.452995 1_565
Si1 Si19 2.452996 1_565
Si1 Tb6 2.752756 1_555
Si1 Tb3 2.915207 1_555
Si1 Tb3 2.915209 1_554
Si2 Si9 2.453029 1_655
Si2 Tb5 2.752812 1_555
Si2 Tb2 2.915207 1_555
Si2 Tb2 2.915210 1_554
Si3 Tb4 2.752829 1_555
Si3 Tb1 2.915218 1_555
Si3 Tb1 2.915221 1_554
Si4 Tb3 2.752742 1_555
Si4 Tb6 2.915199 1_555
Si4 Tb6 2.915202 1_556
Si5 Tb2 2.752781 1_555
Si5 Tb5 2.915198 1_555
Si5 Tb5 2.915211 1_556
Si6 Si9 2.453028 1_555
Si6 Tb1 2.752790 1_555
Si6 Tb4 2.915214 1_555
Si6 Tb4 2.915216 1_556
Si7 Si8 2.452947 1_555
Si7 Tb0 2.752737 1_555
Si7 Tb7 2.915194 1_555
Si7 Tb7 2.915197 1_556
Si8 Tb2 3.011591 1_555
Si8 Tb5 3.011621 1_555
Si8 Tb7 3.023875 1_555
Si8 Tb3 3.023897 1_545
Si9 Tb0 3.011645 1_555
Si9 Tb7 3.011652 1_555
Si9 Tb4 3.023974 1_555
Si9 Tb2 3.024015 1_455
Si10 Si5 2.453012 1_555
Si10 Si3 2.453028 1_655
Si10 Si13 2.735198 1_556
Si10 Si13 2.735219 1_555
Si10 Tb6 3.011608 1_555
Si10 Tb3 3.011653 1_555
Si10 Tb5 3.023969 1_555
Si10 Tb1 3.023997 1_655
Si11 Si4 2.452940 1_555
Si11 Si12 2.735161 1_556
Si11 Si12 2.735256 1_555
Si11 Tb4 3.011618 1_555
Si11 Tb1 3.011635 1_555
Si11 Tb6 3.023895 1_555
Si11 Tb0 3.023921 1_565
Si12 Si4 2.452941 1_554
Si12 Tb4 3.011617 1_555
Si12 Tb1 3.011635 1_554
Si12 Tb6 3.023897 1_555
Si12 Tb0 3.023922 1_564
Si13 Si5 2.453020 1_554
Si13 Si3 2.453029 1_655
Si13 Tb6 3.011608 1_555
Si13 Tb3 3.011652 1_554
Si13 Tb5 3.023970 1_555
Si13 Tb1 3.023998 1_654
Si14 Si6 2.453028 1_554
Si14 Si2 2.453031 1_455
Si14 Si9 2.735187 1_555
Si14 Si9 2.735230 1_554
Si14 Tb0 3.011644 1_554
Si14 Tb7 3.011653 1_555
Si14 Tb4 3.023976 1_555
Si14 Tb2 3.024018 1_454
Si15 Tb1 2.951006 1_644
Si15 Tb2 2.951011 1_554
Si15 Tb3 2.951040 1_544
Si15 Tb0 2.951048 1_654
Si16 Tb5 2.950970 1_555
Si16 Tb4 2.950975 1_555
Si16 Tb7 2.951010 1_555
Si16 Tb6 2.951022 1_555
Si17 Tb1 2.951003 1_645
Si17 Tb2 2.951010 1_555
Si17 Tb3 2.951038 1_545
Si17 Tb0 2.951048 1_655
Si18 Tb5 2.950973 1_555
Si18 Tb4 2.950977 1_555
Si18 Tb7 2.951012 1_555
Si18 Tb6 2.951025 1_555
Si19 Si7 2.452949 1_554
Si19 Si8 2.735153 1_554
Si19 Si8 2.735265 1_555
Si19 Tb2 3.011590 1_554
Si19 Tb5 3.011621 1_555
Si19 Tb7 3.023876 1_555
Si19 Tb3 3.023899 1_544
