# generated using pymatgen
data_MgFe4(CoO4)2
_symmetry_space_group_name_H-M   'P 1'
_cell_length_a   5.96705567
_cell_length_b   6.34438264
_cell_length_c   5.96705690
_cell_angle_alpha   62.30087320
_cell_angle_beta   60.18302239
_cell_angle_gamma   62.30087915
_symmetry_Int_Tables_number   1
_chemical_formula_structural   MgFe4(CoO4)2
_chemical_formula_sum   'Mg1 Fe4 Co2 O8'
_cell_volume   165.30616173
_cell_formula_units_Z   1
loop_
 _symmetry_equiv_pos_site_id
 _symmetry_equiv_pos_as_xyz
  1  'x, y, z'
loop_
 _atom_site_type_symbol
 _atom_site_label
 _atom_site_symmetry_multiplicity
 _atom_site_fract_x
 _atom_site_fract_y
 _atom_site_fract_z
 _atom_site_occupancy
  Mg  Mg0  1  0.12500000  0.62500000  0.12500000  1
  Fe  Fe0  1  0.97452900  0.08564000  0.97452900  1
  Fe  Fe1  1  0.27547100  0.16436000  0.27547100  1
  Fe  Fe2  1  0.12500000  0.62500000  0.62500000  1
  Fe  Fe3  1  0.62500000  0.62500000  0.12500000  1
  Co  Co0  1  0.62500000  0.12500000  0.62500000  1
  Co  Co1  1  0.62500000  0.62500000  0.62500000  1
  O  O0  1  0.36580400  0.39501500  0.36580400  1
  O  O1  1  0.36166100  0.39281100  0.86563900  1
  O  O2  1  0.39356900  0.80894200  0.39356900  1
  O  O3  1  0.86563900  0.39281100  0.36166100  1
  O  O4  1  0.38436100  0.85718900  0.88833900  1
  O  O5  1  0.85643100  0.44105800  0.85643100  1
  O  O6  1  0.88833900  0.85718900  0.38436100  1
  O  O7  1  0.88419600  0.85498500  0.88419600  1
loop_
_geom_bond_atom_site_label_1
_geom_bond_atom_site_label_2
_geom_bond_distance
_geom_bond_site_symmetry_2
Mg0 O7 2.100793 1_454
Mg0 O0 2.100793 1_555
Mg0 O3 2.138098 1_455
Mg0 O4 2.138098 1_554
Mg0 O1 2.138098 1_554
Mg0 O6 2.138098 1_455
Fe0 O5 1.901881 1_555
Fe0 O7 2.116142 1_545
Fe0 O4 2.119609 1_645
Fe0 O6 2.119609 1_546
Fe1 O2 1.901881 1_545
Fe1 O0 2.116142 1_555
Fe1 O3 2.119609 1_455
Fe1 O1 2.119609 1_554
Fe2 O5 1.968947 1_455
Fe2 O2 1.968947 1_555
Fe2 O6 2.083797 1_455
Fe2 O1 2.083797 1_555
Fe2 O0 2.127106 1_555
Fe2 O7 2.127106 1_455
Fe3 O5 1.968947 1_554
Fe3 O2 1.968947 1_555
Fe3 O3 2.083797 1_555
Fe3 O4 2.083797 1_554
Fe3 O0 2.127105 1_555
Fe3 O7 2.127105 1_554
Co0 O4 2.227136 1_545
Co0 O3 2.227136 1_555
Co0 O6 2.227136 1_545
Co0 O1 2.227136 1_555
Co0 O7 2.274066 1_545
Co0 O0 2.274066 1_555
Co1 O2 2.018925 1_555
Co1 O5 2.018925 1_555
Co1 O1 2.154687 1_555
Co1 O6 2.154687 1_555
Co1 O3 2.154687 1_555
Co1 O4 2.154687 1_555
