# generated using pymatgen
data_NaMgMnO2
_symmetry_space_group_name_H-M   'P 1'
_cell_length_a   3.00171632
_cell_length_b   5.73163738
_cell_length_c   6.42248935
_cell_angle_alpha   67.21926999
_cell_angle_beta   62.98630669
_cell_angle_gamma   62.53529561
_symmetry_Int_Tables_number   1
_chemical_formula_structural   NaMgMnO2
_chemical_formula_sum   'Na1 Mg1 Mn1 O2'
_cell_volume   85.11070319
_cell_formula_units_Z   1
loop_
 _symmetry_equiv_pos_site_id
 _symmetry_equiv_pos_as_xyz
  1  'x, y, z'
loop_
 _atom_site_type_symbol
 _atom_site_label
 _atom_site_symmetry_multiplicity
 _atom_site_fract_x
 _atom_site_fract_y
 _atom_site_fract_z
 _atom_site_occupancy
  Na  Na0  1  0.48574370  0.50267745  0.51137589  1
  Mg  Mg0  1  0.50058427  0.00482486  0.49500135  1
  Mn  Mn0  1  0.00616723  0.99566963  0.99814631  1
  O  O0  1  0.27508003  -0.05596616  0.27129695  1
  O  O1  1  0.73242477  0.05279822  0.72417951  1
loop_
_geom_bond_atom_site_label_1
_geom_bond_atom_site_label_2
_geom_bond_distance
_geom_bond_site_symmetry_2
Na0 O1 2.343955 1_555
Na0 O0 2.359292 1_565
Mg0 O0 2.032854 1_555
Mg0 O1 2.036371 1_555
Mg0 O0 2.048577 1_655
Mg0 O1 2.050451 1_455
Mn0 O0 2.116765 1_566
Mn0 O1 2.120720 1_465
Mn0 O0 2.163530 1_466
Mn0 O1 2.164131 1_565
