# generated using pymatgen
data_Na3ZnGe(PO4)3
_symmetry_space_group_name_H-M   'P 1'
_cell_length_a   15.30023682
_cell_length_b   8.83893083
_cell_length_c   8.74065027
_cell_angle_alpha   90.00000000
_cell_angle_beta   125.29274762
_cell_angle_gamma   90.00000000
_symmetry_Int_Tables_number   1
_chemical_formula_structural   Na3ZnGe(PO4)3
_chemical_formula_sum   'Na12 Zn4 Ge4 P12 O48'
_cell_volume   964.81474158
_cell_formula_units_Z   4
loop_
 _symmetry_equiv_pos_site_id
 _symmetry_equiv_pos_as_xyz
  1  'x, y, z'
loop_
 _atom_site_type_symbol
 _atom_site_label
 _atom_site_symmetry_multiplicity
 _atom_site_fract_x
 _atom_site_fract_y
 _atom_site_fract_z
 _atom_site_occupancy
  Na  Na0  1  0.24956785  0.73011365  0.98577611  1
  Na  Na1  1  0.74956785  0.76988635  0.48577611  1
  Na  Na2  1  0.74956785  0.23011365  0.98577611  1
  Na  Na3  1  0.24956785  0.26988635  0.48577611  1
  Na  Na4  1  0.50449599  0.10870317  0.74868565  1
  Na  Na5  1  0.50449599  0.89129683  0.24868565  1
  Na  Na6  1  0.00449599  0.60870317  0.74868565  1
  Na  Na7  1  0.00449599  0.39129683  0.24868565  1
  Na  Na8  1  0.18147716  0.94147180  0.28268288  1
  Na  Na9  1  0.18147716  0.05852820  0.78268288  1
  Na  Na10  1  0.68147716  0.44147180  0.28268288  1
  Na  Na11  1  0.68147716  0.55852820  0.78268288  1
  Zn  Zn0  1  0.10088037  0.74912410  0.55598130  1
  Zn  Zn1  1  0.10088037  0.25087590  0.05598130  1
  Zn  Zn2  1  0.60088037  0.24912410  0.55598130  1
  Zn  Zn3  1  0.60088037  0.75087590  0.05598130  1
  Ge  Ge0  1  0.89587405  0.75730879  0.94066941  1
  Ge  Ge1  1  0.89587405  0.24269121  0.44066941  1
  Ge  Ge2  1  0.39587405  0.25730879  0.94066941  1
  Ge  Ge3  1  0.39587405  0.74269121  0.44066941  1
  P  P0  1  0.99408405  0.95718423  0.75723951  1
  P  P1  1  0.99408405  0.04281577  0.25723951  1
  P  P2  1  0.49408405  0.45718423  0.75723951  1
  P  P3  1  0.49408405  0.54281577  0.25723951  1
  P  P4  1  0.35609348  0.90373241  0.76036387  1
  P  P5  1  0.64955516  0.88689017  0.75022425  1
  P  P6  1  0.64955516  0.11310983  0.25022425  1
  P  P7  1  0.35609348  0.09626759  0.26036387  1
  P  P8  1  0.85609348  0.40373241  0.76036387  1
  P  P9  1  0.14955516  0.38689017  0.75022425  1
  P  P10  1  0.14955516  0.61310983  0.25022425  1
  P  P11  1  0.85609348  0.59626759  0.26036387  1
  O  O0  1  0.15660490  0.55809963  0.74001432  1
  O  O1  1  0.85171619  0.58527073  0.75799256  1
  O  O2  1  0.85171619  0.41472927  0.25799256  1
  O  O3  1  0.15660490  0.44190037  0.24001432  1
  O  O4  1  0.65660490  0.05809963  0.74001432  1
  O  O5  1  0.35171619  0.08527073  0.75799256  1
  O  O6  1  0.35171619  0.91472927  0.25799256  1
  O  O7  1  0.65660490  0.94190037  0.24001432  1
  O  O8  1  0.42634604  0.56223690  0.57854666  1
  O  O9  1  0.56408730  0.54604641  0.93640594  1
  O  O10  1  0.56408730  0.45395359  0.43640594  1
  O  O11  1  0.42634604  0.43776310  0.07854666  1
  O  O12  1  0.92634604  0.06223690  0.57854666  1
  O  O13  1  0.06408730  0.04604641  0.93640594  1
  O  O14  1  0.06408730  0.95395359  0.43640594  1
  O  O15  1  0.92634604  0.93776310  0.07854666  1
  O  O16  1  0.25738975  0.84689149  0.74551288  1
  O  O17  1  0.74358985  0.80398466  0.75683156  1
  O  O18  1  0.74358985  0.19601534  0.25683156  1
  O  O19  1  0.25738975  0.15310851  0.24551288  1
  O  O20  1  0.75738975  0.34689149  0.74551288  1
  O  O21  1  0.24358985  0.30398466  0.75683156  1
  O  O22  1  0.24358985  0.69601534  0.25683156  1
  O  O23  1  0.75738975  0.65310851  0.24551288  1
  O  O24  1  0.35676386  0.86951376  0.58072327  1
  O  O25  1  0.65232995  0.84310026  0.91897031  1
  O  O26  1  0.65232995  0.15689974  0.41897031  1
  O  O27  1  0.35676386  0.13048624  0.08072327  1
  O  O28  1  0.85676386  0.36951376  0.58072327  1
  O  O29  1  0.15232995  0.34310026  0.91897031  1
  O  O30  1  0.15232995  0.65689974  0.41897031  1
  O  O31  1  0.85676386  0.63048624  0.08072327  1
  O  O32  1  0.45769215  0.85159431  0.93992234  1
  O  O33  1  0.54432232  0.81763553  0.56338654  1
  O  O34  1  0.54432232  0.18236447  0.06338654  1
  O  O35  1  0.45769215  0.14840569  0.43992234  1
  O  O36  1  0.95769215  0.35159431  0.93992234  1
  O  O37  1  0.04432232  0.31763553  0.56338654  1
  O  O38  1  0.04432232  0.68236447  0.06338654  1
  O  O39  1  0.95769215  0.64840569  0.43992234  1
  O  O40  1  0.06858223  0.84907268  0.74370805  1
  O  O41  1  0.90854736  0.85644272  0.75636259  1
  O  O42  1  0.90854736  0.14355728  0.25636259  1
  O  O43  1  0.06858223  0.15092732  0.24370805  1
  O  O44  1  0.56858223  0.34907268  0.74370805  1
  O  O45  1  0.40854736  0.35644272  0.75636259  1
  O  O46  1  0.40854736  0.64355728  0.25636259  1
  O  O47  1  0.56858223  0.65092732  0.24370805  1
loop_
_geom_bond_atom_site_label_1
_geom_bond_atom_site_label_2
_geom_bond_distance
_geom_bond_site_symmetry_2
Na0 O0 2.327801 1_555
Na0 O46 2.334129 1_556
Na0 O16 2.404245 1_555
Na0 O22 2.441867 1_556
Na0 O6 2.543574 1_556
Na0 O40 2.545634 1_555
Na1 O7 2.327801 1_555
Na1 O41 2.334129 1_555
Na1 O23 2.404245 1_555
Na1 O17 2.441867 1_555
Na1 O1 2.543574 1_555
Na1 O47 2.545634 1_555
Na2 O4 2.327801 1_555
Na2 O42 2.334129 1_556
Na2 O20 2.404245 1_555
Na2 O18 2.441867 1_556
Na2 O2 2.543574 1_556
Na2 O44 2.545634 1_555
Na3 O3 2.327801 1_555
Na3 O45 2.334129 1_555
Na3 O19 2.404245 1_555
Na3 O21 2.441867 1_555
Na3 O5 2.543574 1_555
Na3 O43 2.545634 1_555
Na4 O44 2.350872 1_555
Na4 O35 2.384590 1_555
Na4 O5 2.394465 1_555
Na4 O4 2.413704 1_555
Na4 O34 2.534705 1_556
Na4 O45 2.658661 1_555
Na4 O24 2.810649 1_545
Na5 O47 2.350872 1_555
Na5 O32 2.384590 1_554
Na5 O6 2.394465 1_555
Na5 O7 2.413704 1_555
Na5 O33 2.534705 1_555
Na5 O46 2.658661 1_555
Na5 O27 2.810649 1_565
Na6 O40 2.350872 1_555
Na6 O39 2.384590 1_455
Na6 O1 2.394465 1_455
Na6 O0 2.413704 1_555
Na6 O38 2.534705 1_556
Na6 O41 2.658661 1_455
Na6 O28 2.810649 1_455
Na7 O43 2.350872 1_555
Na7 O36 2.384590 1_454
Na7 O2 2.394465 1_455
Na7 O3 2.413704 1_555
Na7 O37 2.534705 1_555
Na7 O42 2.658661 1_455
Na7 O31 2.810649 1_455
Na8 O19 2.321622 1_565
Na8 O43 2.418116 1_565
Na8 O22 2.430921 1_555
Na8 O24 2.512085 1_555
Na8 O13 2.638100 1_564
Na8 O6 2.745256 1_555
Na8 O14 2.798585 1_555
Na8 O30 2.925507 1_555
Na8 O38 2.945345 1_555
Na9 O16 2.321622 1_545
Na9 O40 2.418116 1_545
Na9 O21 2.430921 1_555
Na9 O27 2.512085 1_556
Na9 O14 2.638100 1_545
Na9 O5 2.745256 1_555
Na9 O13 2.798585 1_555
Na9 O29 2.925507 1_555
Na9 O37 2.945345 1_555
Na10 O23 2.321622 1_555
Na10 O47 2.418116 1_555
Na10 O18 2.430921 1_555
Na10 O28 2.512085 1_555
Na10 O9 2.638100 1_554
Na10 O2 2.745256 1_555
Na10 O10 2.798585 1_555
Na10 O26 2.925507 1_555
Na10 O34 2.945345 1_555
Na11 O20 2.321622 1_555
Na11 O44 2.418116 1_555
Na11 O17 2.430921 1_555
Na11 O31 2.512085 1_556
Na11 O10 2.638100 1_555
Na11 O1 2.745256 1_555
Na11 O9 2.798585 1_555
Na11 O25 2.925507 1_555
Na11 O33 2.945345 1_555
Ge0 O15 1.888009 1_556
Ge0 O41 1.939469 1_555
Ge0 O17 1.963380 1_555
Ge0 O38 1.983180 1_656
Ge0 O31 1.989895 1_556
Ge0 O1 2.017858 1_555
Ge1 O12 1.888009 1_555
Ge1 O42 1.939469 1_555
Ge1 O18 1.963380 1_555
Ge1 O37 1.983180 1_655
Ge1 O28 1.989895 1_555
Ge1 O2 2.017858 1_555
Ge2 O11 1.888009 1_556
Ge2 O45 1.939469 1_555
Ge2 O21 1.963380 1_555
Ge2 O34 1.983180 1_556
Ge2 O27 1.989895 1_556
Ge2 O5 2.017858 1_555
Ge3 O8 1.888009 1_555
Ge3 O46 1.939469 1_555
Ge3 O22 1.963380 1_555
Ge3 O33 1.983180 1_555
Ge3 O24 1.989895 1_555
Ge3 O6 2.017858 1_555
O0 P9 1.523425 1_555
O0 Zn0 2.140222 1_555
O1 P8 1.605636 1_555
O2 P11 1.605636 1_555
O3 P10 1.523425 1_555
O3 Zn1 2.140222 1_555
O4 P5 1.523425 1_545
O4 Zn2 2.140222 1_555
O5 P4 1.605636 1_545
O6 P7 1.605636 1_565
O7 P6 1.523425 1_565
O7 Zn3 2.140222 1_555
O8 P2 1.582836 1_555
O9 P2 1.509437 1_555
O9 Zn3 2.001806 1_556
O10 P3 1.509437 1_555
O10 Zn2 2.001806 1_555
O11 P3 1.582836 1_555
O12 P0 1.582836 1_545
O13 P0 1.509437 1_445
O13 Zn1 2.001806 1_556
O14 P1 1.509437 1_465
O14 Zn0 2.001806 1_555
O15 P1 1.582836 1_565
O16 P4 1.524279 1_555
O16 Zn0 2.154420 1_555
O17 P5 1.585662 1_555
O18 P6 1.585662 1_555
O19 P7 1.524279 1_555
O19 Zn1 2.154420 1_555
O20 P8 1.524279 1_555
O20 Zn2 2.154420 1_555
O21 P9 1.585662 1_555
O22 P10 1.585662 1_555
O23 P11 1.524279 1_555
O23 Zn3 2.154420 1_555
O24 P4 1.604882 1_555
O25 P5 1.501578 1_555
O25 Zn3 1.951317 1_556
O26 P6 1.501578 1_555
O26 Zn2 1.951317 1_555
O27 P7 1.604882 1_555
O28 P8 1.604882 1_555
O29 P9 1.501578 1_555
O29 Zn1 1.951317 1_556
O30 P10 1.501578 1_555
O30 Zn0 1.951317 1_555
O31 P11 1.604882 1_555
O32 P4 1.507616 1_555
O32 Zn3 2.013264 1_556
O33 P5 1.611134 1_555
O34 P6 1.611134 1_555
O35 P7 1.507616 1_555
O35 Zn2 2.013264 1_555
O36 P8 1.507616 1_555
O36 Zn1 2.013264 1_656
O37 P9 1.611134 1_555
O38 P10 1.611134 1_555
O39 P11 1.507616 1_555
O39 Zn0 2.013264 1_655
O40 P0 1.543423 1_455
O40 Zn0 2.157319 1_555
O41 P0 1.579285 1_555
O42 P1 1.579285 1_555
O43 P1 1.543423 1_455
O43 Zn1 2.157319 1_555
O44 P2 1.543423 1_555
O44 Zn2 2.157319 1_555
O45 P2 1.579285 1_555
O46 P3 1.579285 1_555
O47 P3 1.543423 1_555
O47 Zn3 2.157319 1_555
