# generated using pymatgen
data_Sr2Mg(TiS3)2
_symmetry_space_group_name_H-M   'P 1'
_cell_length_a   5.75304397
_cell_length_b   6.69817158
_cell_length_c   7.52442462
_cell_angle_alpha   116.97905185
_cell_angle_beta   109.75037736
_cell_angle_gamma   88.13533522
_symmetry_Int_Tables_number   1
_chemical_formula_structural   Sr2Mg(TiS3)2
_chemical_formula_sum   'Sr2 Mg1 Ti2 S6'
_cell_volume   240.66329444
_cell_formula_units_Z   1
loop_
 _symmetry_equiv_pos_site_id
 _symmetry_equiv_pos_as_xyz
  1  'x, y, z'
loop_
 _atom_site_type_symbol
 _atom_site_label
 _atom_site_symmetry_multiplicity
 _atom_site_fract_x
 _atom_site_fract_y
 _atom_site_fract_z
 _atom_site_occupancy
  Sr  Sr0  1  0.31932649  0.60507497  0.22538246  1
  Sr  Sr1  1  0.64656455  0.39095869  0.78628197  1
  Mg  Mg0  1  0.02186420  0.23045549  0.45962435  1
  Ti  Ti0  1  0.48099179  0.98950916  0.97796903  1
  Ti  Ti1  1  0.98541090  0.98733465  0.97522972  1
  S  S0  1  0.60609042  0.84443779  0.67773140  1
  S  S1  1  0.82296146  0.83589524  0.17141114  1
  S  S2  1  0.80325320  0.33851174  0.17328875  1
  S  S3  1  0.37649031  0.16518615  0.32208154  1
  S  S4  1  0.15126342  0.16823401  0.80886019  1
  S  S5  1  0.17120025  0.64440212  0.81213945  1
loop_
_geom_bond_atom_site_label_1
_geom_bond_atom_site_label_2
_geom_bond_distance
_geom_bond_site_symmetry_2
Mg0 S2 2.504365 1_455
Mg0 S1 2.513245 1_445
Mg0 S3 2.526457 1_555
Mg0 S4 2.699001 1_555
Mg0 S5 2.720931 1_555
S0 Ti1 2.362129 1_555
S0 Ti0 2.372203 1_555
S0 Sr0 2.881482 1_555
S0 Sr1 3.366904 1_565
S0 Sr1 3.467581 1_555
S1 Ti0 2.517860 1_554
S1 Ti1 2.536549 1_554
S1 Sr1 2.946641 1_554
S1 Sr0 3.195055 1_655
S1 Sr0 3.550610 1_555
S2 Ti0 2.526902 1_544
S2 Ti1 2.562548 1_544
S2 Sr1 2.923910 1_554
S2 Sr0 3.297208 1_555
S2 Sr0 3.328658 1_655
S3 Ti1 2.584089 1_444
S3 Ti0 2.586866 1_544
S3 Sr1 2.931469 1_555
S3 Sr0 3.322580 1_555
S3 Sr0 3.486365 1_545
S4 Ti1 2.490881 1_445
S4 Ti0 2.500727 1_545
S4 Sr0 3.022340 1_556
S4 Sr1 3.209328 1_455
S4 Sr1 3.347811 1_555
S5 Ti1 2.468559 1_455
S5 Ti0 2.494967 1_555
S5 Sr0 3.066234 1_556
S5 Sr1 3.186944 1_555
S5 Sr1 3.415619 1_455
