# generated using pymatgen
data_MnNi2Ge
_symmetry_space_group_name_H-M   'P 1'
_cell_length_a   4.10072577
_cell_length_b   4.10072577
_cell_length_c   4.10072577
_cell_angle_alpha   60.00000000
_cell_angle_beta   60.00000000
_cell_angle_gamma   60.00000000
_symmetry_Int_Tables_number   1
_chemical_formula_structural   MnNi2Ge
_chemical_formula_sum   'Mn1 Ni2 Ge1'
_cell_volume   48.76039158
_cell_formula_units_Z   1
loop_
 _symmetry_equiv_pos_site_id
 _symmetry_equiv_pos_as_xyz
  1  'x, y, z'
loop_
 _atom_site_type_symbol
 _atom_site_label
 _atom_site_symmetry_multiplicity
 _atom_site_fract_x
 _atom_site_fract_y
 _atom_site_fract_z
 _atom_site_occupancy
  Mn  Mn0  1  0.50000000  0.50000000  0.50000000  1
  Ni  Ni0  1  0.75000000  0.75000000  0.75000000  1
  Ni  Ni1  1  0.25000000  0.25000000  0.25000000  1
  Ge  Ge0  1  0.00000000  0.00000000  0.00000000  1
loop_
_geom_bond_atom_site_label_1
_geom_bond_atom_site_label_2
_geom_bond_distance
_geom_bond_site_symmetry_2
Mn0 Ni1 2.511171 1_565
Mn0 Ni1 2.511171 1_655
Mn0 Ni0 2.511171 1_545
Mn0 Ni0 2.511171 1_455
Mn0 Ni1 2.511171 1_555
Mn0 Ni0 2.511171 1_555
Mn0 Ni0 2.511171 1_554
Mn0 Ni1 2.511171 1_556
Ge0 Ni1 2.511171 1_545
Ge0 Ni0 2.511171 1_544
Ge0 Ni0 2.511171 1_454
Ge0 Ni1 2.511171 1_455
Ge0 Ni1 2.511171 1_555
Ge0 Ni0 2.511171 1_445
Ge0 Ni1 2.511171 1_554
Ge0 Ni0 2.511171 1_444
Ge0 Mn0 2.899651 1_455
Ge0 Mn0 2.899651 1_544
Ge0 Mn0 2.899651 1_454
Ge0 Mn0 2.899651 1_554
Ge0 Mn0 2.899651 1_445
Ge0 Mn0 2.899651 1_545
