# generated using pymatgen
data_MgMnNbO4
_symmetry_space_group_name_H-M   'P 1'
_cell_length_a   5.63499936
_cell_length_b   5.63499871
_cell_length_c   5.63500008
_cell_angle_alpha   134.34699790
_cell_angle_beta   136.99301902
_cell_angle_gamma   64.51512967
_symmetry_Int_Tables_number   1
_chemical_formula_structural   MgMnNbO4
_chemical_formula_sum   'Mg1 Mn1 Nb1 O4'
_cell_volume   86.06872390
_cell_formula_units_Z   1
loop_
 _symmetry_equiv_pos_site_id
 _symmetry_equiv_pos_as_xyz
  1  'x, y, z'
loop_
 _atom_site_type_symbol
 _atom_site_label
 _atom_site_symmetry_multiplicity
 _atom_site_fract_x
 _atom_site_fract_y
 _atom_site_fract_z
 _atom_site_occupancy
  Mg  Mg0  1  0.57015100  0.57015100  0.00000000  1
  Mn  Mn0  1  0.77108900  0.27108900  0.50000000  1
  Nb  Nb0  1  0.99887100  0.99887100  0.00000000  1
  O  O0  1  0.52036500  0.02036500  0.50000000  1
  O  O1  1  0.20322600  0.20322600  0.00000000  1
  O  O2  1  0.99820500  0.49820500  0.50000000  1
  O  O3  1  0.78184300  0.78184300  0.00000000  1
loop_
_geom_bond_atom_site_label_1
_geom_bond_atom_site_label_2
_geom_bond_distance
_geom_bond_site_symmetry_2
Mg0 O3 2.017543 1_555
Mg0 O2 2.176391 1_454
Mg0 O2 2.176391 1_555
Mg0 O0 2.236954 1_554
Mg0 O0 2.236955 1_565
Mn0 O1 2.164446 1_555
Mn0 O1 2.164446 1_656
Mn0 O2 2.164542 1_555
Mn0 O3 2.188454 1_556
Mn0 O3 2.188454 1_545
Mn0 O0 2.389539 1_555
Nb0 O1 1.947617 1_665
Nb0 O3 2.068398 1_555
Nb0 O0 2.075687 1_665
Nb0 O0 2.075687 1_564
Nb0 O2 2.186062 1_554
Nb0 O2 2.186062 1_565
