# generated using pymatgen
data_K2NaMgVOF5
_symmetry_space_group_name_H-M   'P 1'
_cell_length_a   6.82144866
_cell_length_b   6.02041162
_cell_length_c   6.82145372
_cell_angle_alpha   63.80449351
_cell_angle_beta   49.48552086
_cell_angle_gamma   63.80398542
_symmetry_Int_Tables_number   1
_chemical_formula_structural   K2NaMgVOF5
_chemical_formula_sum   'K2 Na1 Mg1 V1 O1 F5'
_cell_volume   186.12527969
_cell_formula_units_Z   1
loop_
 _symmetry_equiv_pos_site_id
 _symmetry_equiv_pos_as_xyz
  1  'x, y, z'
loop_
 _atom_site_type_symbol
 _atom_site_label
 _atom_site_symmetry_multiplicity
 _atom_site_fract_x
 _atom_site_fract_y
 _atom_site_fract_z
 _atom_site_occupancy
  K  K0  1  0.32495859  0.17505932  0.32496056  1
  K  K1  1  0.68667737  0.81331284  0.68667583  1
  Na  Na0  1  0.40849650  0.59151408  0.40849702  1
  Mg  Mg0  1  0.02188353  0.47808371  0.02188338  1
  V  V0  1  0.01790072  0.98208590  0.01789596  1
  O  O0  1  0.20735248  0.79269498  0.20736009  1
  F  F0  1  0.24143507  0.27341169  0.76509718  1
  F  F1  1  0.76509114  0.27341781  0.24142872  1
  F  F2  1  0.24144450  0.72001149  0.76512910  1
  F  F3  1  0.76512178  0.72002102  0.24144062  1
  F  F4  1  0.81963830  0.18038715  0.81963053  1
loop_
_geom_bond_atom_site_label_1
_geom_bond_atom_site_label_2
_geom_bond_distance
_geom_bond_site_symmetry_2
K0 O0 3.268437 1_555
K0 O0 3.268534 1_545
K0 Mg0 3.281799 1_555
K1 O0 2.863825 1_655
K1 O0 2.863879 1_556
Na0 O0 2.178009 1_555
O0 V0 2.051508 1_555
F0 Mg0 1.922862 1_556
F0 V0 2.156267 1_546
F0 Na0 2.257374 1_555
F0 K0 2.956111 1_555
F0 K1 2.992169 1_545
F1 Mg0 1.922885 1_655
F1 V0 2.156268 1_645
F1 Na0 2.257322 1_555
F1 K0 2.956076 1_555
F1 K1 2.992236 1_545
F2 Mg0 1.922932 1_556
F2 V0 2.156203 1_556
F2 Na0 2.257576 1_555
F2 K0 2.956092 1_565
F2 K1 2.992506 1_555
F3 Mg0 1.922943 1_655
F3 V0 2.156230 1_655
F3 Na0 2.257566 1_555
F3 K0 2.956012 1_565
F3 K1 2.992521 1_555
F4 V0 2.146861 1_646
F4 K0 2.855638 1_655
F4 K0 2.855695 1_556
