# generated using pymatgen
data_Na7La3TaSi3(PO8)3
_symmetry_space_group_name_H-M   'P 1'
_cell_length_a   9.55577107
_cell_length_b   9.57986822
_cell_length_c   23.22322382
_cell_angle_alpha   89.95445698
_cell_angle_beta   89.93503285
_cell_angle_gamma   119.91700366
_symmetry_Int_Tables_number   1
_chemical_formula_structural   Na7La3TaSi3(PO8)3
_chemical_formula_sum   'Na21 La9 Ta3 Si9 P9 O72'
_cell_volume   1842.63875649
_cell_formula_units_Z   3
loop_
 _symmetry_equiv_pos_site_id
 _symmetry_equiv_pos_as_xyz
  1  'x, y, z'
loop_
 _atom_site_type_symbol
 _atom_site_label
 _atom_site_symmetry_multiplicity
 _atom_site_fract_x
 _atom_site_fract_y
 _atom_site_fract_z
 _atom_site_occupancy
  Na  Na0  1  0.62910427  0.99827814  0.25298052  1
  Na  Na1  1  0.36962115  0.37252771  0.25349772  1
  Na  Na2  1  0.00251071  0.63199864  0.25721766  1
  Na  Na3  1  0.64654863  0.65032561  0.74618681  1
  Na  Na4  1  0.99581225  0.34576816  0.74082736  1
  Na  Na5  1  0.29978797  0.34777234  0.58048196  1
  Na  Na6  1  0.03464129  0.69349389  0.57846640  1
  Na  Na7  1  0.66491356  0.95628701  0.57445840  1
  Na  Na8  1  0.30953361  0.96629337  0.07754045  1
  Na  Na9  1  0.64885270  0.69374223  0.07875429  1
  Na  Na10  1  0.04754502  0.33962633  0.07263763  1
  Na  Na11  1  0.31881083  0.29998467  0.90811978  1
  Na  Na12  1  0.97941449  0.31107866  0.42143572  1
  Na  Na13  1  0.33823585  0.02525412  0.42213171  1
  Na  Na14  1  0.68657647  0.66687816  0.42120724  1
  Na  Na15  1  0.99434316  0.99830058  0.49938881  1
  Na  Na16  1  0.98721904  0.00281335  0.99722435  1
  Na  Na17  1  0.65511702  0.32311098  0.83196984  1
  Na  Na18  1  0.66392822  0.33110794  0.33877153  1
  Na  Na19  1  0.34389414  0.66710677  0.16706926  1
  Na  Na20  1  0.33427729  0.66823703  0.65820045  1
  La  La0  1  0.99951956  0.00050986  0.34909181  1
  La  La1  1  0.00027097  0.99590572  0.85104310  1
  La  La2  1  0.00361613  0.00441370  0.65289560  1
  La  La3  1  0.00227488  0.00532543  0.14416856  1
  La  La4  1  0.65616359  0.32884556  0.68672985  1
  La  La5  1  0.66293962  0.33029102  0.17764649  1
  La  La6  1  0.33470218  0.66903976  0.00558379  1
  La  La7  1  0.33236737  0.66207666  0.51109099  1
  La  La8  1  0.33517371  0.66717807  0.32785194  1
  Ta  Ta0  1  0.66882195  0.32586135  0.97909311  1
  Ta  Ta1  1  0.67135571  0.33856007  0.48567373  1
  Ta  Ta2  1  0.32653131  0.66667688  0.82318410  1
  Si  Si0  1  0.30867903  0.32735955  0.75721578  1
  Si  Si1  1  0.95869955  0.32699651  0.58602790  1
  Si  Si2  1  0.67410498  0.63521341  0.58482398  1
  Si  Si3  1  0.66977807  0.03729485  0.07944227  1
  Si  Si4  1  0.37056323  0.32998727  0.07656999  1
  Si  Si5  1  0.02240154  0.37226739  0.92085503  1
  Si  Si6  1  0.64890315  0.99459635  0.41958224  1
  Si  Si7  1  0.34536157  0.34983013  0.41858587  1
  Si  Si8  1  0.00779570  0.65681695  0.41904306  1
  P  P0  1  0.30880915  0.99183432  0.24860838  1
  P  P1  1  0.68528013  0.69119517  0.24821564  1
  P  P2  1  0.00792965  0.31827345  0.24880819  1
  P  P3  1  0.01855920  0.69181319  0.75160227  1
  P  P4  1  0.67497176  0.97898894  0.75361754  1
  P  P5  1  0.36984525  0.04397725  0.57822714  1
  P  P6  1  0.95213798  0.62633951  0.07634717  1
  P  P7  1  0.62222610  0.64069372  0.91745775  1
  P  P8  1  0.35696495  0.98382732  0.91973027  1
  O  O0  1  0.21737521  0.99540045  0.30278412  1
  O  O1  1  0.77837038  0.78178240  0.30267247  1
  O  O2  1  0.00071556  0.22290277  0.30337385  1
  O  O3  1  0.21706825  0.21668658  0.81197087  1
  O  O4  1  0.97877042  0.78066066  0.79746351  1
  O  O5  1  0.80014659  0.00329867  0.79954657  1
  O  O6  1  0.72968644  0.93661923  0.69587092  1
  O  O7  1  0.19858160  0.25313324  0.69819256  1
  O  O8  1  0.04591244  0.77722680  0.69266794  1
  O  O9  1  0.77780435  0.78609300  0.19332696  1
  O  O10  1  0.01186883  0.22539744  0.19431577  1
  O  O11  1  0.21465154  0.98873837  0.19346968  1
  O  O12  1  0.87925526  0.33299491  0.64675872  1
  O  O13  1  0.46308776  0.12067673  0.63323640  1
  O  O14  1  0.66004807  0.54590518  0.64550689  1
  O  O15  1  0.89034391  0.54644002  0.13558076  1
  O  O16  1  0.65862474  0.11064546  0.14111624  1
  O  O17  1  0.45775068  0.34751821  0.13855192  1
  O  O18  1  0.49460543  0.33012201  0.02341314  1
  O  O19  1  0.83577485  0.50709391  0.02799704  1
  O  O20  1  0.67045719  0.16461058  0.02673439  1
  O  O21  1  0.47470589  0.14723946  0.52529813  1
  O  O22  1  0.66606037  0.50878183  0.53131314  1
  O  O23  1  0.83723926  0.32758593  0.53222870  1
  O  O24  1  0.56784874  0.66495067  0.97672302  1
  O  O25  1  0.11268156  0.43446281  0.98177537  1
  O  O26  1  0.33221649  0.90678659  0.97967092  1
  O  O27  1  0.56796204  0.87063201  0.47330348  1
  O  O28  1  0.30076733  0.42975843  0.47221362  1
  O  O29  1  0.12967677  0.69727385  0.47288059  1
  O  O30  1  0.08172304  0.61641742  0.36141529  1
  O  O31  1  0.53465622  0.91866915  0.36196558  1
  O  O32  1  0.38552386  0.46529500  0.36114584  1
  O  O33  1  0.14783814  0.51478842  0.87126582  1
  O  O34  1  0.36689007  0.86894461  0.87330371  1
  O  O35  1  0.49362996  0.63446443  0.87133883  1
  O  O36  1  0.96172274  0.79825082  0.41404121  1
  O  O37  1  0.83595056  0.03634101  0.41478032  1
  O  O38  1  0.20079742  0.16356868  0.41370987  1
  O  O39  1  0.00840165  0.19978212  0.90887928  1
  O  O40  1  0.22194200  0.02130899  0.90890446  1
  O  O41  1  0.79304250  0.77741040  0.90536158  1
  O  O42  1  0.96403204  0.15805598  0.57998944  1
  O  O43  1  0.20801860  0.04563492  0.57659250  1
  O  O44  1  0.84799502  0.80386569  0.57907746  1
  O  O45  1  0.94584973  0.78419363  0.07131511  1
  O  O46  1  0.84072938  0.03826657  0.07236898  1
  O  O47  1  0.20200638  0.15517257  0.07179477  1
  O  O48  1  0.65706992  0.12914213  0.75196984  1
  O  O49  1  0.49797490  0.37468438  0.75606792  1
  O  O50  1  0.88428621  0.51258049  0.75187767  1
  O  O51  1  0.66656006  0.52001059  0.25085139  1
  O  O52  1  0.85734750  0.34084238  0.25028509  1
  O  O53  1  0.48041942  0.14444533  0.25126691  1
  O  O54  1  0.61275247  0.47156803  0.91556134  1
  O  O55  1  0.84383073  0.36480623  0.92368588  1
  O  O56  1  0.52082858  0.15158938  0.92001160  1
  O  O57  1  0.65743891  0.17000585  0.43067149  1
  O  O58  1  0.51349683  0.34343613  0.42988857  1
  O  O59  1  0.83218204  0.48828081  0.43073064  1
  O  O60  1  0.34242353  0.48489258  0.07351263  1
  O  O61  1  0.12626604  0.65727855  0.07073474  1
  O  O62  1  0.51100695  0.85767963  0.07596354  1
  O  O63  1  0.34124114  0.87059464  0.57508341  1
  O  O64  1  0.51813923  0.66262692  0.58050553  1
  O  O65  1  0.13864390  0.48758190  0.58147549  1
  O  O66  1  0.32340962  0.83699747  0.24813674  1
  O  O67  1  0.51553303  0.67710456  0.24730607  1
  O  O68  1  0.16474672  0.48609537  0.24816323  1
  O  O69  1  0.31377440  0.50702878  0.76919261  1
  O  O70  1  0.18114849  0.69315506  0.76872425  1
  O  O71  1  0.50927043  0.82511514  0.77041021  1
loop_
_geom_bond_atom_site_label_1
_geom_bond_atom_site_label_2
_geom_bond_distance
_geom_bond_site_symmetry_2
Na0 O53 2.442442 1_565
Na0 O66 2.536133 1_555
Na0 O31 2.665939 1_555
Na0 O67 2.707781 1_555
Na0 O16 2.770950 1_565
Na0 O52 2.896603 1_565
Na1 O51 2.460043 1_555
Na1 O67 2.533601 1_555
Na1 O32 2.632915 1_555
Na1 O68 2.675194 1_555
Na1 O17 2.844214 1_555
Na1 O53 2.864529 1_555
Na2 O52 2.423179 1_455
Na2 O68 2.561729 1_555
Na2 O30 2.562609 1_555
Na2 O66 2.700961 1_555
Na2 O51 2.836290 1_455
Na2 O15 2.989043 1_455
Na3 O49 2.302141 1_555
Na3 O14 2.572125 1_555
Na3 O71 2.651784 1_555
Na3 O6 2.708886 1_555
Na3 O69 2.814684 1_555
Na3 O4 3.018672 1_555
Na4 O50 2.335414 1_555
Na4 O12 2.428555 1_555
Na4 O7 2.689695 1_655
Na4 O69 2.715936 1_655
Na4 O48 2.854482 1_555
Na5 O65 2.494549 1_555
Na5 O43 2.573651 1_555
Na5 O28 2.632175 1_555
Na5 O64 2.678380 1_555
Na5 O42 2.789403 1_455
Na5 O7 2.888842 1_555
Na6 O44 2.486020 1_455
Na6 O63 2.551350 1_555
Na6 O29 2.607786 1_555
Na6 O65 2.615188 1_555
Na6 O8 2.758021 1_555
Na6 O43 2.924316 1_565
Na7 O64 2.442180 1_555
Na7 O27 2.509941 1_555
Na7 O42 2.532354 1_565
Na7 O63 2.776255 1_555
Na7 O44 2.784356 1_555
Na7 O6 2.913440 1_555
Na8 O26 2.379492 1_554
Na8 O47 2.490403 1_565
Na8 O61 2.585631 1_555
Na8 O62 2.605495 1_555
Na8 O11 2.882073 1_555
Na9 O24 2.466167 1_554
Na9 O62 2.503852 1_555
Na9 O45 2.526018 1_555
Na9 O60 2.597952 1_555
Na9 O46 2.870425 1_565
Na9 O9 2.881740 1_555
Na10 O25 2.257281 1_554
Na10 O60 2.442476 1_555
Na10 O46 2.559160 1_455
Na10 O61 2.746709 1_555
Na10 O47 2.811225 1_555
Na10 O10 2.986536 1_555
Na11 O40 2.349304 1_555
Na11 O3 2.408667 1_555
Na11 O54 2.453053 1_555
Na11 O39 2.622932 1_555
Na12 O37 2.287458 1_555
Na12 O57 2.681248 1_555
Na12 O59 2.700004 1_555
Na12 O2 2.906241 1_655
Na12 O30 2.931347 1_655
Na12 O28 2.939504 1_655
Na13 O38 2.292339 1_555
Na13 O58 2.652904 1_555
Na13 O57 2.654967 1_555
Na13 O21 2.701443 1_555
Na13 O31 2.902729 1_545
Na13 O0 2.962539 1_545
Na13 O29 2.995944 1_545
Na14 O36 2.285274 1_555
Na14 O58 2.695067 1_555
Na14 O59 2.699412 1_555
Na14 O32 2.902169 1_555
Na14 O22 2.926965 1_555
Na14 O1 2.930080 1_555
Na14 O27 2.960743 1_555
Na15 O44 2.498071 1_555
Na15 O42 2.524933 1_565
Na15 O43 2.583660 1_665
Na15 O37 2.615385 1_565
Na15 O36 2.666460 1_555
Na15 O38 2.688541 1_665
Na16 O46 2.364291 1_556
Na16 O47 2.523062 1_656
Na16 O45 2.582635 1_546
Na16 O39 2.724465 1_655
Na16 O41 2.945590 1_545
Na16 O40 2.976865 1_655
Na17 O49 2.520053 1_555
Na17 O56 2.532299 1_555
Na17 O54 2.555767 1_555
Na17 O48 2.635313 1_555
Na17 O55 2.690665 1_555
Na17 O50 2.751416 1_555
Na18 O58 2.592441 1_555
Na18 O57 2.615263 1_555
Na18 O59 2.647826 1_555
Na18 O53 2.699677 1_555
Na18 O51 2.719012 1_555
Na18 O52 2.732533 1_555
Na19 O67 2.453948 1_555
Na19 O68 2.551598 1_555
Na19 O66 2.559952 1_555
Na19 O62 2.727217 1_555
Na19 O60 2.783787 1_555
Na20 O64 2.536234 1_555
Na20 O65 2.539681 1_555
Na20 O63 2.711710 1_555
La0 O38 2.324804 1_655
La0 O37 2.327795 1_555
La0 O36 2.335792 1_545
La0 O0 2.364183 1_645
La0 O1 2.368619 1_545
La0 O2 2.374547 1_655
La1 O3 2.282672 1_565
La1 O5 2.287452 1_465
La1 O4 2.329048 1_455
La1 O39 2.340458 1_565
La1 O41 2.397807 1_455
La1 O40 2.417547 1_565
La2 O42 2.393526 1_455
La2 O7 2.415631 1_555
La2 O44 2.449998 1_445
La2 O43 2.516481 1_555
La2 O6 2.562618 1_445
La2 O8 2.574563 1_545
La3 O10 2.370815 1_555
La3 O46 2.398703 1_455
La3 O11 2.404438 1_545
La3 O47 2.405058 1_555
La3 O9 2.410846 1_445
La3 O45 2.551335 1_445
La4 O14 2.271901 1_555
La4 O13 2.294180 1_555
La4 O12 2.306252 1_555
La4 O49 2.393421 1_555
La4 O48 2.442862 1_555
La4 O50 2.514648 1_555
La5 O17 2.241114 1_555
La5 O16 2.250628 1_555
La5 O15 2.338313 1_555
La5 O53 2.454748 1_555
La5 O52 2.475286 1_555
La5 O51 2.477291 1_555
La6 O25 2.259588 1_554
La6 O24 2.344778 1_554
La6 O26 2.366835 1_554
La6 O60 2.394113 1_555
La6 O62 2.397817 1_555
La6 O61 2.457253 1_555
La7 O28 2.278813 1_555
La7 O29 2.303785 1_555
La7 O27 2.310027 1_555
La7 O64 2.397321 1_555
La7 O65 2.407294 1_555
La7 O63 2.458061 1_555
La8 O31 2.343331 1_555
La8 O32 2.344435 1_555
La8 O30 2.351602 1_555
La8 O66 2.502895 1_555
La8 O68 2.506048 1_555
La8 O67 2.511419 1_555
O0 P0 1.541042 1_555
O1 P1 1.542090 1_555
O2 P2 1.542853 1_555
O3 Si0 1.605273 1_555
O4 P3 1.525340 1_655
O5 P4 1.532349 1_545
O6 P4 1.564457 1_555
O7 Si0 1.658287 1_555
O8 P3 1.547616 1_555
O9 P1 1.557839 1_555
O10 P2 1.558720 1_555
O11 P0 1.557613 1_555
O12 Si1 1.615537 1_555
O13 P5 1.522103 1_555
O14 Si2 1.618345 1_555
O15 P6 1.540279 1_555
O16 Si3 1.622492 1_555
O17 Si4 1.630275 1_555
O18 Si4 1.709988 1_555
O18 Ta0 1.973945 1_554
O19 P6 1.593737 1_555
O19 Ta0 2.023290 1_554
O20 Si3 1.725003 1_555
O20 Ta0 1.905785 1_554
O21 P5 1.581156 1_555
O21 Ta1 2.072464 1_555
O22 Si2 1.710828 1_555
O22 Ta1 1.967247 1_555
O23 Si1 1.708193 1_555
O23 Ta1 1.965343 1_555
O24 P7 1.528928 1_555
O25 Si5 1.610030 1_555
O26 P8 1.536833 1_555
O27 Si6 1.626109 1_555
O28 Si7 1.626259 1_555
O29 Si8 1.619777 1_555
O30 Si8 1.646598 1_555
O31 Si6 1.650469 1_555
O32 Si7 1.650235 1_555
O33 Si5 1.728885 1_555
O33 Ta2 1.947950 1_555
O34 P8 1.577486 1_555
O34 Ta2 2.125406 1_555
O35 P7 1.609547 1_555
O35 Ta2 2.095348 1_555
O36 Si8 1.624197 1_655
O37 Si6 1.628981 1_545
O38 Si7 1.626960 1_555
O39 Si5 1.614292 1_555
O40 P8 1.523022 1_545
O41 P7 1.524644 1_555
O42 Si1 1.650508 1_555
O43 P5 1.554866 1_555
O44 Si2 1.646358 1_555
O45 P6 1.547403 1_555
O46 Si3 1.637024 1_555
O47 Si4 1.649634 1_555
O48 P4 1.531417 1_545
O49 Si0 1.630983 1_555
O50 P3 1.548201 1_655
O51 P1 1.559582 1_555
O52 P2 1.558417 1_655
O53 P0 1.561832 1_545
O54 P7 1.577658 1_555
O54 Ta0 2.270865 1_555
O55 Si5 1.673095 1_655
O55 Ta0 1.990881 1_555
O56 P8 1.588909 1_545
O56 Ta0 2.079111 1_555
O57 Si6 1.661546 1_545
O57 Ta1 2.011484 1_555
O58 Si7 1.659250 1_555
O58 Ta1 2.007639 1_555
O59 Si8 1.670989 1_655
O59 Ta1 1.959851 1_555
O60 Si4 1.636285 1_555
O61 P6 1.543050 1_455
O62 Si3 1.632664 1_565
O63 P5 1.544759 1_565
O64 Si2 1.640412 1_555
O65 Si1 1.641712 1_455
O66 P0 1.557648 1_555
O67 P1 1.559306 1_555
O68 P2 1.557972 1_555
O69 Si0 1.720315 1_555
O69 Ta2 1.934820 1_555
O70 P3 1.598011 1_555
O70 Ta2 1.987178 1_555
O71 P4 1.581663 1_555
O71 Ta2 2.050240 1_555
