# generated using pymatgen
data_NaAlGeP2SO12
_symmetry_space_group_name_H-M   'P 1'
_cell_length_a   8.30940348
_cell_length_b   8.34333462
_cell_length_c   21.77754891
_cell_angle_alpha   89.42413372
_cell_angle_beta   90.00000000
_cell_angle_gamma   119.86556042
_symmetry_Int_Tables_number   1
_chemical_formula_structural   NaAlGeP2SO12
_chemical_formula_sum   'Na6 Al6 Ge6 P12 S6 O72'
_cell_volume   1309.20216980
_cell_formula_units_Z   6
loop_
 _symmetry_equiv_pos_site_id
 _symmetry_equiv_pos_as_xyz
  1  'x, y, z'
loop_
 _atom_site_type_symbol
 _atom_site_label
 _atom_site_symmetry_multiplicity
 _atom_site_fract_x
 _atom_site_fract_y
 _atom_site_fract_z
 _atom_site_occupancy
  Na  Na0  1  0.99193435  0.99547091  0.50104169  1
  Na  Na1  1  0.00353656  0.99547091  0.00104169  1
  Na  Na2  1  0.65860135  0.32880391  0.83437469  1
  Na  Na3  1  0.67020356  0.32880391  0.33437469  1
  Na  Na4  1  0.32526735  0.66213791  0.16770869  1
  Na  Na5  1  0.33686956  0.66213791  0.66770869  1
  Al  Al0  1  0.99168759  0.00547670  0.64605572  1
  Al  Al1  1  0.01378911  0.00547670  0.14605572  1
  Al  Al2  1  0.65835459  0.33880970  0.97938872  1
  Al  Al3  1  0.68045611  0.33880970  0.47938872  1
  Al  Al4  1  0.32502059  0.67214370  0.31272272  1
  Al  Al5  1  0.34712211  0.67214370  0.81272272  1
  Ge  Ge0  1  0.99883841  0.00066225  0.35221365  1
  Ge  Ge1  1  0.00182384  0.00066225  0.85221365  1
  Ge  Ge2  1  0.66550541  0.33399525  0.68554665  1
  Ge  Ge3  1  0.66849084  0.33399525  0.18554665  1
  Ge  Ge4  1  0.33217141  0.66732925  0.01888065  1
  Ge  Ge5  1  0.33515684  0.66732925  0.51888065  1
  P  P0  1  0.28799129  0.00024751  0.24914526  1
  P  P1  1  0.00310766  0.28828905  0.24850920  1
  P  P2  1  0.28518139  0.28828905  0.74850920  1
  P  P3  1  0.71225622  0.00024751  0.74914526  1
  P  P4  1  0.95465829  0.33358051  0.58247826  1
  P  P5  1  0.66977466  0.62162205  0.58184220  1
  P  P6  1  0.95184839  0.62162205  0.08184220  1
  P  P7  1  0.37892322  0.33358051  0.08247826  1
  P  P8  1  0.62132429  0.66691451  0.91581226  1
  P  P9  1  0.33644066  0.95495605  0.91517620  1
  P  P10  1  0.61851439  0.95495605  0.41517620  1
  P  P11  1  0.04558922  0.66691451  0.41581226  1
  S  S0  1  0.71047305  0.71301101  0.24897719  1
  S  S1  1  0.00253797  0.71301101  0.74897719  1
  S  S2  1  0.37714005  0.04634401  0.58231019  1
  S  S3  1  0.66920497  0.04634401  0.08231019  1
  S  S4  1  0.04380605  0.37967801  0.91564419  1
  S  S5  1  0.33587097  0.37967801  0.41564419  1
  O  O0  1  0.20897227  0.04136396  0.30835891  1
  O  O1  1  0.82503123  0.78520626  0.30591665  1
  O  O2  1  0.95720144  0.16661666  0.30832973  1
  O  O3  1  0.20941523  0.16661666  0.80832973  1
  O  O4  1  0.96017504  0.78520626  0.80591665  1
  O  O5  1  0.83239168  0.04136396  0.80835891  1
  O  O6  1  0.79669218  0.96451794  0.69308708  1
  O  O7  1  0.16913427  0.19815371  0.69225311  1
  O  O8  1  0.03400302  0.82670575  0.69412079  1
  O  O9  1  0.79270273  0.82670575  0.19412079  1
  O  O10  1  0.02901944  0.19815371  0.19225311  1
  O  O11  1  0.16782576  0.96451794  0.19308708  1
  O  O12  1  0.87563927  0.37469696  0.64169191  1
  O  O13  1  0.49169823  0.11853926  0.63924965  1
  O  O14  1  0.62386844  0.49994966  0.64166273  1
  O  O15  1  0.87608223  0.49994966  0.14166273  1
  O  O16  1  0.62684204  0.11853926  0.13924965  1
  O  O17  1  0.49905868  0.37469696  0.14169191  1
  O  O18  1  0.46335918  0.29785094  0.02642008  1
  O  O19  1  0.83580127  0.53148671  0.02558611  1
  O  O20  1  0.70067002  0.16003875  0.02745379  1
  O  O21  1  0.45936973  0.16003875  0.52745379  1
  O  O22  1  0.69568644  0.53148671  0.52558611  1
  O  O23  1  0.83449276  0.29785094  0.52642008  1
  O  O24  1  0.54230527  0.70803096  0.97502591  1
  O  O25  1  0.15836423  0.45187326  0.97258365  1
  O  O26  1  0.29053444  0.83328366  0.97499673  1
  O  O27  1  0.54274823  0.83328366  0.47499673  1
  O  O28  1  0.29350804  0.45187326  0.47258365  1
  O  O29  1  0.16572468  0.70803096  0.47502591  1
  O  O30  1  0.13002518  0.63118494  0.35975408  1
  O  O31  1  0.50246727  0.86482071  0.35892011  1
  O  O32  1  0.36733602  0.49337275  0.36078779  1
  O  O33  1  0.12603573  0.49337275  0.86078779  1
  O  O34  1  0.36235244  0.86482071  0.85892011  1
  O  O35  1  0.50115876  0.63118494  0.85975408  1
  O  O36  1  0.02758847  0.84396740  0.40892922  1
  O  O37  1  0.81586275  0.97534907  0.40936163  1
  O  O38  1  0.16629694  0.19320285  0.41090582  1
  O  O39  1  0.02690592  0.19320285  0.91090582  1
  O  O40  1  0.15948631  0.97534907  0.90936163  1
  O  O41  1  0.81637893  0.84396740  0.90892922  1
  O  O42  1  0.97891366  0.16525784  0.59051555  1
  O  O43  1  0.19333036  0.02580607  0.59075425  1
  O  O44  1  0.84159649  0.81069506  0.59152454  1
  O  O45  1  0.96909857  0.81069506  0.09152454  1
  O  O46  1  0.83247571  0.02580607  0.09075425  1
  O  O47  1  0.18634418  0.16525784  0.09051555  1
  O  O48  1  0.69425547  0.17730040  0.74226222  1
  O  O49  1  0.48252975  0.30868207  0.74269463  1
  O  O50  1  0.83296394  0.52653585  0.74423882  1
  O  O51  1  0.69357292  0.52653585  0.24423882  1
  O  O52  1  0.82615331  0.30868207  0.24269463  1
  O  O53  1  0.48304593  0.17730040  0.24226222  1
  O  O54  1  0.64558066  0.49859084  0.92384855  1
  O  O55  1  0.85999736  0.35913907  0.92408725  1
  O  O56  1  0.50826349  0.14402806  0.92485754  1
  O  O57  1  0.63576557  0.14402806  0.42485754  1
  O  O58  1  0.49914271  0.35913907  0.42408725  1
  O  O59  1  0.85301118  0.49859084  0.42384855  1
  O  O60  1  0.36092147  0.51063440  0.07559622  1
  O  O61  1  0.14919575  0.64201607  0.07602863  1
  O  O62  1  0.49962994  0.85986985  0.07757282  1
  O  O63  1  0.36023892  0.85986985  0.57757282  1
  O  O64  1  0.49281931  0.64201607  0.57602863  1
  O  O65  1  0.14971193  0.51063440  0.57559622  1
  O  O66  1  0.31224666  0.83192484  0.25718255  1
  O  O67  1  0.52666336  0.69247307  0.25742125  1
  O  O68  1  0.17492949  0.47736206  0.25819154  1
  O  O69  1  0.30243157  0.47736206  0.75819154  1
  O  O70  1  0.16580871  0.69247307  0.75742125  1
  O  O71  1  0.51967718  0.83192484  0.75718255  1
loop_
_geom_bond_atom_site_label_1
_geom_bond_atom_site_label_2
_geom_bond_distance
_geom_bond_site_symmetry_2
Na0 O44 2.416813 1_555
Na0 O37 2.432508 1_555
Na0 O42 2.454240 1_565
Na0 O36 2.476588 1_655
Na0 O38 2.495665 1_665
Na0 O43 2.503942 1_665
Na1 O45 2.416813 1_455
Na1 O40 2.432508 1_554
Na1 O47 2.454240 1_565
Na1 O41 2.476588 1_454
Na1 O39 2.495664 1_564
Na1 O46 2.503942 1_465
Na2 O56 2.416813 1_555
Na2 O49 2.432508 1_555
Na2 O54 2.454240 1_555
Na2 O48 2.476588 1_555
Na2 O50 2.495665 1_555
Na2 O55 2.503942 1_555
Na3 O57 2.416813 1_555
Na3 O52 2.432508 1_555
Na3 O59 2.454240 1_555
Na3 O53 2.476588 1_555
Na3 O51 2.495664 1_555
Na3 O58 2.503942 1_555
Na4 O68 2.416813 1_555
Na4 O61 2.432508 1_555
Na4 O66 2.454240 1_555
Na4 O60 2.476588 1_555
Na4 O62 2.495665 1_555
Na4 O67 2.503942 1_555
Na5 O69 2.416813 1_555
Na5 O64 2.432508 1_555
Na5 O71 2.454240 1_555
Na5 O65 2.476588 1_555
Na5 O63 2.495664 1_555
Na5 O70 2.503942 1_555
Al0 O6 1.797968 1_545
Al0 O42 1.833007 1_555
Al0 O7 1.855358 1_655
Al0 O44 1.904465 1_545
Al0 O8 1.983669 1_645
Al0 O43 1.999860 1_655
Al1 O11 1.797968 1_545
Al1 O47 1.833007 1_555
Al1 O10 1.855358 1_555
Al1 O45 1.904465 1_445
Al1 O9 1.983669 1_445
Al1 O46 1.999860 1_455
Al2 O18 1.797968 1_556
Al2 O54 1.833007 1_555
Al2 O19 1.855358 1_556
Al2 O56 1.904465 1_555
Al2 O20 1.983669 1_556
Al2 O55 1.999860 1_555
Al3 O23 1.797968 1_555
Al3 O59 1.833007 1_555
Al3 O22 1.855358 1_555
Al3 O57 1.904465 1_555
Al3 O21 1.983669 1_555
Al3 O58 1.999860 1_555
Al4 O30 1.797968 1_555
Al4 O66 1.833007 1_555
Al4 O31 1.855358 1_555
Al4 O68 1.904465 1_555
Al4 O32 1.983669 1_555
Al4 O67 1.999860 1_555
Al5 O35 1.797968 1_555
Al5 O71 1.833007 1_555
Al5 O34 1.855358 1_555
Al5 O69 1.904465 1_555
Al5 O33 1.983669 1_555
Al5 O70 1.999860 1_555
Ge0 O2 1.844095 1_555
Ge0 O0 1.865261 1_655
Ge0 O36 1.889546 1_645
Ge0 O37 1.892110 1_545
Ge0 O1 1.945404 1_545
Ge0 O38 1.991383 1_655
Ge1 O3 1.844095 1_555
Ge1 O5 1.865261 1_455
Ge1 O41 1.889546 1_445
Ge1 O40 1.892110 1_545
Ge1 O4 1.945404 1_445
Ge1 O39 1.991383 1_555
Ge2 O14 1.844095 1_555
Ge2 O12 1.865261 1_555
Ge2 O48 1.889546 1_555
Ge2 O49 1.892110 1_555
Ge2 O13 1.945404 1_555
Ge2 O50 1.991383 1_555
Ge3 O15 1.844095 1_555
Ge3 O17 1.865261 1_555
Ge3 O53 1.889546 1_555
Ge3 O52 1.892110 1_555
Ge3 O16 1.945404 1_555
Ge3 O51 1.991383 1_555
Ge4 O26 1.844095 1_554
Ge4 O24 1.865261 1_554
Ge4 O60 1.889546 1_555
Ge4 O61 1.892110 1_555
Ge4 O25 1.945404 1_554
Ge4 O62 1.991383 1_555
Ge5 O27 1.844095 1_555
Ge5 O29 1.865261 1_555
Ge5 O65 1.889546 1_555
Ge5 O64 1.892110 1_555
Ge5 O28 1.945404 1_555
Ge5 O63 1.991383 1_555
O0 P0 1.563621 1_555
O1 S0 1.500175 1_555
O2 P1 1.568740 1_655
O3 P2 1.568740 1_555
O4 S1 1.500175 1_655
O5 P3 1.563621 1_555
O6 P3 1.512323 1_565
O7 P2 1.514136 1_555
O8 S1 1.457931 1_555
O9 S0 1.457931 1_555
O10 P1 1.514136 1_555
O11 P0 1.512323 1_565
O12 P4 1.563621 1_555
O13 S2 1.500175 1_555
O14 P5 1.568740 1_555
O15 P6 1.568740 1_555
O16 S3 1.500175 1_555
O17 P7 1.563621 1_555
O18 P7 1.512323 1_555
O19 P6 1.514136 1_555
O20 S3 1.457931 1_555
O21 S2 1.457931 1_555
O22 P5 1.514136 1_555
O23 P4 1.512323 1_555
O24 P8 1.563621 1_555
O25 S4 1.500175 1_555
O26 P9 1.568740 1_555
O27 P10 1.568740 1_555
O28 S5 1.500175 1_555
O29 P11 1.563621 1_555
O30 P11 1.512323 1_555
O31 P10 1.514136 1_555
O32 S5 1.457931 1_555
O33 S4 1.457931 1_555
O34 P9 1.514136 1_555
O35 P8 1.512323 1_555
O36 P11 1.562882 1_555
O37 P10 1.567090 1_555
O38 S5 1.495520 1_555
O39 S4 1.495523 1_555
O40 P9 1.567082 1_555
O41 P8 1.562887 1_555
O42 P4 1.523311 1_555
O43 S2 1.461056 1_555
O44 P5 1.528067 1_555
O45 P6 1.528071 1_555
O46 S3 1.461048 1_555
O47 P7 1.523316 1_555
O48 P3 1.562882 1_555
O49 P2 1.567090 1_555
O50 S1 1.495520 1_655
O51 S0 1.495523 1_555
O52 P1 1.567082 1_655
O53 P0 1.562887 1_555
O54 P8 1.523321 1_555
O55 S4 1.461042 1_655
O56 P9 1.528063 1_545
O57 P10 1.528056 1_545
O58 S5 1.461058 1_555
O59 P11 1.523312 1_655
O60 P7 1.562893 1_555
O61 P6 1.567077 1_455
O62 S3 1.495517 1_565
O63 S2 1.495510 1_565
O64 P5 1.567093 1_555
O65 P4 1.562884 1_455
O66 P0 1.523311 1_565
O67 S0 1.461056 1_555
O68 P1 1.528067 1_555
O69 P2 1.528071 1_555
O70 S1 1.461048 1_555
O71 P3 1.523316 1_565
