# generated using pymatgen
data_MgTi3Nb3O12
_symmetry_space_group_name_H-M   'P 1'
_cell_length_a   7.68783117
_cell_length_b   5.89661687
_cell_length_c   5.68977207
_cell_angle_alpha   74.34355611
_cell_angle_beta   68.81227677
_cell_angle_gamma   66.99007584
_symmetry_Int_Tables_number   1
_chemical_formula_structural   MgTi3Nb3O12
_chemical_formula_sum   'Mg1 Ti3 Nb3 O12'
_cell_volume   218.86080019
_cell_formula_units_Z   1
loop_
 _symmetry_equiv_pos_site_id
 _symmetry_equiv_pos_as_xyz
  1  'x, y, z'
loop_
 _atom_site_type_symbol
 _atom_site_label
 _atom_site_symmetry_multiplicity
 _atom_site_fract_x
 _atom_site_fract_y
 _atom_site_fract_z
 _atom_site_occupancy
  Mg  Mg0  1  0.31962100  0.18412700  0.66580900  1
  Ti  Ti0  1  0.65943400  0.35799300  0.34358400  1
  Ti  Ti1  1  0.12167100  0.32772900  0.29987400  1
  Ti  Ti2  1  0.01710500  0.95957900  0.99217500  1
  Nb  Nb0  1  0.82937900  0.67830100  0.67302800  1
  Nb  Nb1  1  0.33694600  0.67541700  0.66978000  1
  Nb  Nb2  1  0.54752400  0.98853400  0.01411900  1
  O  O0  1  0.63917000  0.04547900  0.61873800  1
  O  O1  1  0.32245800  0.34697300  0.95217400  1
  O  O2  1  0.65368800  0.54449000  0.57932800  1
  O  O3  1  0.96435300  0.20520600  0.23228200  1
  O  O4  1  0.30687700  0.89246800  0.93167600  1
  O  O5  1  0.71032300  0.11159300  0.09277800  1
  O  O6  1  0.03775700  0.75796600  0.73418000  1
  O  O7  1  0.37830400  0.45359300  0.40631400  1
  O  O8  1  0.34513700  0.98581800  0.39127300  1
  O  O9  1  0.68295800  0.61081800  0.05109200  1
  O  O10  1  0.03156700  0.28947700  0.67616300  1
  O  O11  1  0.99751200  0.67967900  0.27087000  1
loop_
_geom_bond_atom_site_label_1
_geom_bond_atom_site_label_2
_geom_bond_distance
_geom_bond_site_symmetry_2
Mg0 O7 1.928964 1_555
Mg0 O4 1.968774 1_545
Mg0 O10 2.035535 1_555
Mg0 O8 2.104973 1_545
Mg0 O1 2.112780 1_555
Mg0 O0 2.201733 1_555
Nb0 O6 1.996873 1_655
Nb0 O9 2.047082 1_556
Nb0 O2 2.076506 1_555
Nb0 O0 2.100432 1_565
Nb0 O11 2.183313 1_555
Nb0 O10 2.210196 1_655
Nb1 O6 2.067240 1_555
Nb1 O8 2.077892 1_555
Nb1 O7 2.108985 1_555
Nb1 O4 2.112120 1_555
Nb1 O2 2.151576 1_555
Nb1 O1 2.169015 1_555
Nb2 O5 1.893002 1_565
Nb2 O9 2.044862 1_555
Nb2 O0 2.074008 1_564
Nb2 O8 2.147914 1_555
Nb2 O1 2.182887 1_564
Nb2 O4 2.356617 1_554
O0 Ti0 2.088560 1_555
O1 Ti1 2.029230 1_556
O2 Ti0 1.930232 1_555
O3 Ti1 1.817110 1_655
O3 Ti0 2.071624 1_555
O3 Ti2 2.082522 1_644
O4 Ti2 2.016889 1_555
O5 Ti2 2.083728 1_644
O5 Ti0 2.138129 1_555
O6 Ti2 2.054079 1_555
O7 Ti0 1.927383 1_555
O8 Ti1 2.158402 1_565
O9 Ti0 1.918059 1_555
O10 Ti1 1.975866 1_555
O10 Ti2 2.272920 1_545
O11 Ti1 1.904109 1_655
O11 Ti2 1.967313 1_654
