# generated using pymatgen
data_Na3Sc2Zn2PS5O24
_symmetry_space_group_name_H-M   'P 1'
_cell_length_a   8.82751341
_cell_length_b   8.83150802
_cell_length_c   22.88106769
_cell_angle_alpha   90.24815291
_cell_angle_beta   89.64352701
_cell_angle_gamma   119.88941909
_symmetry_Int_Tables_number   1
_chemical_formula_structural   Na3Sc2Zn2PS5O24
_chemical_formula_sum   'Na9 Sc6 Zn6 P3 S15 O72'
_cell_volume   1546.51515146
_cell_formula_units_Z   3
loop_
 _symmetry_equiv_pos_site_id
 _symmetry_equiv_pos_as_xyz
  1  'x, y, z'
loop_
 _atom_site_type_symbol
 _atom_site_label
 _atom_site_symmetry_multiplicity
 _atom_site_fract_x
 _atom_site_fract_y
 _atom_site_fract_z
 _atom_site_occupancy
  Na  Na0  1  0.36598431  0.99507644  0.75025303  1
  Na  Na1  1  0.66403682  0.96630973  0.58568037  1
  Na  Na2  1  0.66961863  0.69929421  0.08285772  1
  Na  Na3  1  0.01387296  0.00104608  0.50234622  1
  Na  Na4  1  0.00902197  0.00339688  0.00189667  1
  Na  Na5  1  0.67491786  0.33724503  0.83387065  1
  Na  Na6  1  0.66673248  0.33335749  0.33328192  1
  Na  Na7  1  0.31930983  0.66519682  0.16714639  1
  Na  Na8  1  0.33028005  0.65961460  0.66661716  1
  Sc  Sc0  1  0.00174412  0.00056819  0.35150625  1
  Sc  Sc1  1  0.99109909  0.00118360  0.85116253  1
  Sc  Sc2  1  0.66792516  0.32861389  0.68425519  1
  Sc  Sc3  1  0.67599878  0.33822716  0.18499782  1
  Sc  Sc4  1  0.67273597  0.33889336  0.98243062  1
  Sc  Sc5  1  0.65657640  0.32810419  0.48198401  1
  Zn  Zn0  1  0.00423125  0.99931482  0.65052535  1
  Zn  Zn1  1  0.00793225  0.99781386  0.15013504  1
  Zn  Zn2  1  0.31653274  0.66523227  0.01682719  1
  Zn  Zn3  1  0.32618513  0.66966107  0.51658642  1
  Zn  Zn4  1  0.33192714  0.66614791  0.31680382  1
  Zn  Zn5  1  0.34223768  0.66836772  0.81679847  1
  P  P0  1  0.70553225  0.99609808  0.74815890  1
  P  P1  1  0.36704271  0.03600311  0.58368366  1
  P  P2  1  0.96389728  0.62993140  0.08370751  1
  S  S0  1  0.29341503  0.99799263  0.24962825  1
  S  S1  1  0.70391397  0.70788415  0.24948273  1
  S  S2  1  0.00308949  0.29262168  0.24939388  1
  S  S3  1  0.29058068  0.29506667  0.74975699  1
  S  S4  1  -0.00033147  0.70637040  0.75006251  1
  S  S5  1  0.96302200  0.33605142  0.58252131  1
  S  S6  1  0.66605271  0.62614308  0.58317184  1
  S  S7  1  0.66690137  0.03953423  0.08336099  1
  S  S8  1  0.37210081  0.33195438  0.08341294  1
  S  S9  1  0.62339247  0.66574408  0.91767081  1
  S  S10  1  0.04423013  0.37696986  0.91607418  1
  S  S11  1  0.33323725  0.96024919  0.91605826  1
  S  S12  1  0.62525239  0.95789640  0.41654478  1
  S  S13  1  0.33289920  0.37774882  0.41649578  1
  S  S14  1  0.04104443  0.66573763  0.41629182  1
  O  O0  1  0.21023154  0.02603173  0.30241860  1
  O  O1  1  0.81679510  0.79272681  0.30121812  1
  O  O2  1  0.97549669  0.18330663  0.30232123  1
  O  O3  1  0.21201968  0.18118157  0.80196937  1
  O  O4  1  0.97381478  0.78971087  0.80303967  1
  O  O5  1  0.82106454  0.02506008  0.80209565  1
  O  O6  1  0.78634280  0.97111200  0.69180296  1
  O  O7  1  0.18699379  0.21583533  0.69698171  1
  O  O8  1  0.03322018  0.81656466  0.69789003  1
  O  O9  1  0.78181855  0.81081132  0.19549890  1
  O  O10  1  0.02756700  0.21130935  0.19653773  1
  O  O11  1  0.18738651  0.97133438  0.19717209  1
  O  O12  1  0.88032531  0.36246741  0.63555976  1
  O  O13  1  0.48439840  0.12184243  0.63911789  1
  O  O14  1  0.64328908  0.51923273  0.63565733  1
  O  O15  1  0.87244536  0.51374128  0.13770008  1
  O  O16  1  0.63907402  0.12176932  0.13577912  1
  O  O17  1  0.48381732  0.35962143  0.13556359  1
  O  O18  1  0.45514637  0.30491316  0.03053799  1
  O  O19  1  0.84362557  0.54121421  0.02987288  1
  O  O20  1  0.69057520  0.14760949  0.03085463  1
  O  O21  1  0.46123714  0.15352851  0.53034300  1
  O  O22  1  0.69242133  0.54280374  0.53058596  1
  O  O23  1  0.84999565  0.30830351  0.53070024  1
  O  O24  1  0.54687126  0.69345962  0.97198119  1
  O  O25  1  0.14932703  0.45241946  0.96929243  1
  O  O26  1  0.30580720  0.85260359  0.96822893  1
  O  O27  1  0.55134342  0.85474122  0.47091750  1
  O  O28  1  0.30443298  0.45491266  0.46980905  1
  O  O29  1  0.14706039  0.69663342  0.46916468  1
  O  O30  1  0.11932271  0.63715189  0.36329376  1
  O  O31  1  0.51725397  0.87792663  0.36473534  1
  O  O32  1  0.36136782  0.48283181  0.36349432  1
  O  O33  1  0.12183324  0.48289197  0.86334932  1
  O  O34  1  0.36139078  0.88456119  0.86186647  1
  O  O35  1  0.51755792  0.63831910  0.86552714  1
  O  O36  1  0.02143127  0.82433438  0.40948455  1
  O  O37  1  0.80312310  0.97770842  0.40938482  1
  O  O38  1  0.17582528  0.19898190  0.40994318  1
  O  O39  1  0.02420128  0.19866492  0.91012742  1
  O  O40  1  0.17514299  0.97962707  0.90998094  1
  O  O41  1  0.80144558  0.82290589  0.91111778  1
  O  O42  1  0.97207784  0.17295409  0.58778421  1
  O  O43  1  0.18710906  0.02060410  0.58955319  1
  O  O44  1  0.82210362  0.80377269  0.58753341  1
  O  O45  1  0.97132198  0.80816991  0.08902743  1
  O  O46  1  0.82512344  0.02189645  0.08868493  1
  O  O47  1  0.19743855  0.17728180  0.08928480  1
  O  O48  1  0.68405615  0.16280965  0.74426747  1
  O  O49  1  0.46767448  0.30898384  0.74427892  1
  O  O50  1  0.84130220  0.53297811  0.74415177  1
  O  O51  1  0.68825710  0.53154157  0.24470154  1
  O  O52  1  0.84156316  0.30762081  0.24497209  1
  O  O53  1  0.46883570  0.15851965  0.24404069  1
  O  O54  1  0.64340279  0.50757438  0.92297933  1
  O  O55  1  0.86542169  0.35522962  0.92270877  1
  O  O56  1  0.49143335  0.13691500  0.92312581  1
  O  O57  1  0.64650695  0.13614250  0.42274353  1
  O  O58  1  0.49078174  0.35699458  0.42233282  1
  O  O59  1  0.86370540  0.50901027  0.42330349  1
  O  O60  1  0.36357009  0.49539510  0.07754789  1
  O  O61  1  0.14390166  0.64540633  0.07818284  1
  O  O62  1  0.51173283  0.86146741  0.07770084  1
  O  O63  1  0.36149788  0.85888949  0.57771218  1
  O  O64  1  0.50798665  0.64440067  0.57778159  1
  O  O65  1  0.13706312  0.49103660  0.57685334  1
  O  O66  1  0.31230297  0.84144574  0.25653623  1
  O  O67  1  0.52883020  0.68890388  0.25686655  1
  O  O68  1  0.15816091  0.46859275  0.25610752  1
  O  O69  1  0.31034165  0.46943757  0.75732964  1
  O  O70  1  0.15818527  0.68911787  0.75686672  1
  O  O71  1  0.51893216  0.83820390  0.75534910  1
loop_
_geom_bond_atom_site_label_1
_geom_bond_atom_site_label_2
_geom_bond_distance
_geom_bond_site_symmetry_2
Na0 O71 2.371396 1_555
Na0 O70 2.397721 1_555
Na0 O48 2.438929 1_565
Na0 O49 2.455911 1_565
Na0 O34 2.730784 1_555
Na0 O13 2.763613 1_565
Na0 O8 2.821635 1_555
Na0 O3 2.852784 1_565
Na1 O63 2.354808 1_555
Na1 O42 2.404585 1_565
Na1 O44 2.450871 1_555
Na1 O64 2.471453 1_555
Na1 O6 2.655127 1_555
Na1 O27 2.808735 1_555
Na1 O13 2.833481 1_565
Na1 O23 2.909535 1_565
Na2 O45 2.342822 1_555
Na2 O60 2.389523 1_555
Na2 O62 2.449637 1_555
Na2 O46 2.473945 1_565
Na2 O24 2.755069 1_554
Na2 O9 2.762474 1_555
Na2 O19 2.806731 1_555
Na2 O17 2.871656 1_555
Na3 O43 2.474212 1_555
Na3 O44 2.597932 1_445
Na3 O42 2.605060 1_455
Na3 O36 2.651033 1_545
Na3 O38 2.659596 1_555
Na3 O37 2.773303 1_445
Na4 O45 2.551021 1_445
Na4 O47 2.567477 1_555
Na4 O46 2.612826 1_455
Na4 O40 2.623407 1_544
Na4 O39 2.683007 1_554
Na4 O41 2.705647 1_444
Na5 O48 2.584097 1_555
Na5 O55 2.599750 1_555
Na5 O50 2.611975 1_555
Na5 O54 2.623126 1_555
Na5 O56 2.656783 1_555
Na5 O49 2.683025 1_555
Na6 O52 2.612135 1_555
Na6 O58 2.624471 1_555
Na6 O51 2.627163 1_555
Na6 O53 2.633279 1_555
Na6 O57 2.640443 1_555
Na6 O59 2.645966 1_555
Na7 O61 2.517568 1_555
Na7 O66 2.583961 1_555
Na7 O68 2.591262 1_555
Na7 O62 2.670480 1_555
Na7 O60 2.674279 1_555
Na7 O67 2.708616 1_555
Na8 O64 2.603574 1_555
Na8 O71 2.603748 1_555
Na8 O65 2.613506 1_555
Na8 O63 2.617631 1_555
Na8 O69 2.625072 1_555
Na8 O70 2.644017 1_555
O0 S0 1.492361 1_545
O0 Sc0 2.064761 1_555
O1 S1 1.489467 1_555
O1 Sc0 2.092143 1_665
O2 S2 1.493337 1_655
O2 Sc0 2.077597 1_655
O3 S3 1.491544 1_555
O3 Sc1 2.120283 1_455
O4 S4 1.489774 1_655
O4 Sc1 2.103330 1_565
O5 P0 1.543231 1_545
O5 Sc1 1.973915 1_555
O6 P0 1.537308 1_555
O6 Zn0 2.038518 1_655
O7 S3 1.467202 1_555
O7 Zn0 2.078054 1_545
O8 S4 1.475894 1_555
O8 Zn0 2.067633 1_555
O9 S1 1.483604 1_555
O9 Zn1 2.119582 1_655
O10 S2 1.472720 1_555
O10 Zn1 2.090847 1_545
O11 S0 1.471048 1_555
O11 Zn1 2.028574 1_555
O12 S5 1.488745 1_555
O12 Sc2 2.065072 1_555
O13 P1 1.575447 1_555
O13 Sc2 2.020376 1_555
O14 S6 1.480472 1_555
O14 Sc2 2.121767 1_555
O15 P2 1.550437 1_555
O15 Sc3 1.973136 1_555
O16 S7 1.480848 1_555
O16 Sc3 2.096143 1_555
O17 S8 1.492677 1_555
O17 Sc3 2.130343 1_555
O18 S8 1.489663 1_555
O18 Sc4 2.095983 1_554
O19 P2 1.561170 1_555
O19 Sc4 1.990939 1_554
O20 S7 1.485280 1_555
O20 Sc4 2.095182 1_554
O21 P1 1.548057 1_555
O21 Sc5 1.978935 1_555
O22 S6 1.484328 1_555
O22 Sc5 2.078516 1_555
O23 S5 1.493317 1_555
O23 Sc5 2.123979 1_555
O24 S9 1.487334 1_555
O24 Zn2 2.172675 1_556
O25 S10 1.475937 1_555
O25 Zn2 2.032582 1_556
O26 S11 1.471118 1_555
O26 Zn2 2.038904 1_556
O27 S12 1.486858 1_555
O27 Zn3 2.113096 1_555
O28 S13 1.474882 1_555
O28 Zn3 2.097946 1_555
O29 S14 1.473293 1_555
O29 Zn3 2.033067 1_555
O30 S14 1.473950 1_555
O30 Zn4 2.053753 1_555
O31 S12 1.465858 1_555
O31 Zn4 2.081423 1_555
O32 S13 1.472631 1_555
O32 Zn4 2.065834 1_555
O33 S10 1.469887 1_555
O33 Zn5 2.101451 1_555
O34 S11 1.483458 1_555
O34 Zn5 2.097815 1_555
O35 S9 1.463159 1_555
O35 Zn5 2.035222 1_555
O36 S14 1.503319 1_555
O36 Sc0 2.121988 1_565
O37 S12 1.498693 1_555
O37 Sc0 2.118818 1_665
O38 S13 1.502124 1_555
O38 Sc0 2.131043 1_555
O39 S10 1.500140 1_555
O39 Sc1 2.103332 1_455
O40 S11 1.495634 1_555
O40 Sc1 2.196513 1_465
O41 S9 1.497999 1_555
O41 Sc1 2.127616 1_565
O42 S5 1.487284 1_555
O42 Zn0 2.225089 1_645
O43 P1 1.530247 1_555
O43 Zn0 2.063870 1_545
O44 S6 1.488321 1_555
O44 Zn0 2.210119 1_655
O45 P2 1.546792 1_555
O45 Zn1 2.076150 1_655
O46 S7 1.486274 1_555
O46 Zn1 2.235905 1_645
O47 S8 1.470088 1_555
O47 Zn1 2.143999 1_545
O48 P0 1.578326 1_545
O48 Sc2 2.068247 1_555
O49 S3 1.510269 1_555
O49 Sc2 2.169687 1_555
O50 S4 1.478018 1_655
O50 Sc2 2.174797 1_555
O51 S1 1.496884 1_555
O51 Sc3 2.142461 1_555
O52 S2 1.500354 1_655
O52 Sc3 2.124652 1_555
O53 S0 1.495077 1_545
O53 Sc3 2.187098 1_555
O54 S9 1.498292 1_555
O54 Sc4 2.131457 1_555
O55 S10 1.498863 1_655
O55 Sc4 2.123564 1_555
O56 S11 1.496562 1_545
O56 Sc4 2.178391 1_555
O57 S12 1.495793 1_545
O57 Sc5 2.133243 1_555
O58 S13 1.500330 1_555
O58 Sc5 2.114247 1_555
O59 S14 1.493814 1_655
O59 Sc5 2.185192 1_555
O60 S8 1.489061 1_555
O60 Zn2 2.235714 1_555
O61 P2 1.529956 1_455
O61 Zn2 2.008333 1_555
O62 S7 1.489845 1_565
O62 Zn2 2.223817 1_555
O63 P1 1.545850 1_565
O63 Zn3 2.076562 1_555
O64 S6 1.488188 1_555
O64 Zn3 2.230115 1_555
O65 S5 1.467612 1_455
O65 Zn3 2.131352 1_555
O66 S0 1.481952 1_555
O66 Zn4 2.148749 1_555
O67 S1 1.477894 1_555
O67 Zn4 2.137053 1_555
O68 S2 1.480860 1_555
O68 Zn4 2.159608 1_555
O69 S3 1.470461 1_555
O69 Zn5 2.123298 1_555
O70 S4 1.490278 1_555
O70 Zn5 2.209169 1_555
O71 P0 1.547322 1_555
O71 Zn5 2.078177 1_555
