# generated using pymatgen
data_YZnSn
_symmetry_space_group_name_H-M   'P 1'
_cell_length_a   4.45281910
_cell_length_b   4.45281856
_cell_length_c   16.18228806
_cell_angle_alpha   90.00000000
_cell_angle_beta   90.00000000
_cell_angle_gamma   120.00000398
_symmetry_Int_Tables_number   1
_chemical_formula_structural   YZnSn
_chemical_formula_sum   'Y4 Zn4 Sn4'
_cell_volume   277.86931692
_cell_formula_units_Z   4
loop_
 _symmetry_equiv_pos_site_id
 _symmetry_equiv_pos_as_xyz
  1  'x, y, z'
loop_
 _atom_site_type_symbol
 _atom_site_label
 _atom_site_symmetry_multiplicity
 _atom_site_fract_x
 _atom_site_fract_y
 _atom_site_fract_z
 _atom_site_occupancy
  Y  Y0  1  0.00000000  -0.00000000  -0.00000000  1
  Y  Y1  1  0.00000000  -0.00000000  0.25000000  1
  Y  Y2  1  0.00000000  -0.00000000  0.50000000  1
  Y  Y3  1  0.00000000  -0.00000000  0.75000000  1
  Zn  Zn0  1  0.66666700  0.33333300  0.83890322  1
  Zn  Zn1  1  0.33333300  0.66666700  0.33890322  1
  Zn  Zn2  1  0.66666700  0.33333300  0.66109678  1
  Zn  Zn3  1  0.33333300  0.66666700  0.16109678  1
  Sn  Sn0  1  0.33333300  0.66666700  0.61418519  1
  Sn  Sn1  1  0.66666700  0.33333300  0.11418519  1
  Sn  Sn2  1  0.66666700  0.33333300  0.38581481  1
  Sn  Sn3  1  0.33333300  0.66666700  0.88581481  1
loop_
_geom_bond_atom_site_label_1
_geom_bond_atom_site_label_2
_geom_bond_distance
_geom_bond_site_symmetry_2
Y1 Zn1 2.946001 1_545
Y1 Zn3 2.946001 1_545
Y1 Zn1 2.946004 1_555
Y1 Zn3 2.946004 1_555
Y1 Zn1 2.946004 1_445
Y1 Zn3 2.946004 1_445
Y3 Zn0 2.946001 1_455
Y3 Zn2 2.946001 1_455
Y3 Zn2 2.946004 1_445
Y3 Zn0 2.946004 1_445
Y3 Zn0 2.946004 1_555
Y3 Zn2 2.946004 1_555
Sn0 Zn2 2.680573 1_565
Sn0 Zn2 2.680574 1_455
Sn0 Zn2 2.680581 1_555
Sn0 Y2 3.165986 1_565
Sn0 Y2 3.165989 1_555
Sn0 Y2 3.165989 1_665
Sn0 Y3 3.382231 1_565
Sn0 Y3 3.382234 1_555
Sn0 Y3 3.382234 1_665
Sn1 Zn3 2.680573 1_545
Sn1 Zn3 2.680574 1_655
Sn1 Zn3 2.680581 1_555
Sn1 Y0 3.165986 1_655
Sn1 Y0 3.165989 1_665
Sn1 Y0 3.165989 1_555
Sn1 Y1 3.382231 1_655
Sn1 Y1 3.382234 1_665
Sn1 Y1 3.382234 1_555
Sn2 Zn1 2.680573 1_545
Sn2 Zn1 2.680574 1_655
Sn2 Zn1 2.680581 1_555
Sn2 Y2 3.165986 1_655
Sn2 Y2 3.165989 1_665
Sn2 Y2 3.165989 1_555
Sn2 Y1 3.382231 1_655
Sn2 Y1 3.382234 1_665
Sn2 Y1 3.382234 1_555
Sn3 Zn0 2.680573 1_565
Sn3 Zn0 2.680574 1_455
Sn3 Zn0 2.680581 1_555
Sn3 Y0 3.165986 1_566
Sn3 Y0 3.165989 1_556
Sn3 Y0 3.165989 1_666
Sn3 Y3 3.382231 1_565
Sn3 Y3 3.382234 1_555
Sn3 Y3 3.382234 1_665
