# generated using pymatgen
data_Na3CaNbSi(PO6)2
_symmetry_space_group_name_H-M   'P 1'
_cell_length_a   16.04719437
_cell_length_b   9.26526724
_cell_length_c   9.08898510
_cell_angle_alpha   90.00000000
_cell_angle_beta   125.26704512
_cell_angle_gamma   90.00000000
_symmetry_Int_Tables_number   1
_chemical_formula_structural   Na3CaNbSi(PO6)2
_chemical_formula_sum   'Na12 Ca4 Nb4 Si4 P8 O48'
_cell_volume   1103.34820249
_cell_formula_units_Z   4
loop_
 _symmetry_equiv_pos_site_id
 _symmetry_equiv_pos_as_xyz
  1  'x, y, z'
loop_
 _atom_site_type_symbol
 _atom_site_label
 _atom_site_symmetry_multiplicity
 _atom_site_fract_x
 _atom_site_fract_y
 _atom_site_fract_z
 _atom_site_occupancy
  Na  Na0  1  0.25401540  0.72313877  0.98717478  1
  Na  Na1  1  0.75401540  0.77686123  0.48717478  1
  Na  Na2  1  0.75401540  0.22313877  0.98717478  1
  Na  Na3  1  0.25401540  0.27686123  0.48717478  1
  Na  Na4  1  0.50996105  0.09130683  0.75174347  1
  Na  Na5  1  0.50996105  0.90869317  0.25174347  1
  Na  Na6  1  0.00996105  0.59130683  0.75174347  1
  Na  Na7  1  0.00996105  0.40869317  0.25174347  1
  Na  Na8  1  0.18095046  0.92870847  0.30897159  1
  Na  Na9  1  0.18095046  0.07129153  0.80897159  1
  Na  Na10  1  0.68095046  0.42870847  0.30897159  1
  Na  Na11  1  0.68095046  0.57129153  0.80897159  1
  Ca  Ca0  1  0.10469041  0.74715733  0.56617437  1
  Ca  Ca1  1  0.10469041  0.25284267  0.06617437  1
  Ca  Ca2  1  0.60469041  0.24715733  0.56617437  1
  Ca  Ca3  1  0.60469041  0.75284267  0.06617437  1
  Nb  Nb0  1  0.89618349  0.75639136  0.93850843  1
  Nb  Nb1  1  0.89618349  0.24360864  0.43850843  1
  Nb  Nb2  1  0.39618349  0.25639136  0.93850843  1
  Nb  Nb3  1  0.39618349  0.74360864  0.43850843  1
  Si  Si0  1  0.65210543  0.88334432  0.74818025  1
  Si  Si1  1  0.65210543  0.11665568  0.24818025  1
  Si  Si2  1  0.15210543  0.38334432  0.74818025  1
  Si  Si3  1  0.15210543  0.61665568  0.24818025  1
  P  P0  1  0.99201773  0.95634489  0.75782917  1
  P  P1  1  0.99201773  0.04365511  0.25782917  1
  P  P2  1  0.49201773  0.45634489  0.75782917  1
  P  P3  1  0.49201773  0.54365511  0.25782917  1
  P  P4  1  0.35530563  0.91546866  0.75625800  1
  P  P5  1  0.35530563  0.08453134  0.25625800  1
  P  P6  1  0.85530563  0.41546866  0.75625800  1
  P  P7  1  0.85530563  0.58453134  0.25625800  1
  O  O0  1  0.15770977  0.55569929  0.75553764  1
  O  O1  1  0.85572392  0.58665299  0.74430134  1
  O  O2  1  0.85572392  0.41334701  0.24430134  1
  O  O3  1  0.15770977  0.44430071  0.25553764  1
  O  O4  1  0.65770977  0.05569929  0.75553764  1
  O  O5  1  0.35572392  0.08665299  0.74430134  1
  O  O6  1  0.35572392  0.91334701  0.24430134  1
  O  O7  1  0.65770977  0.94430071  0.25553764  1
  O  O8  1  0.43335408  0.57027222  0.59149303  1
  O  O9  1  0.55409086  0.53796052  0.93116813  1
  O  O10  1  0.55409086  0.46203948  0.43116813  1
  O  O11  1  0.43335408  0.42972778  0.09149303  1
  O  O12  1  0.93335408  0.07027222  0.59149303  1
  O  O13  1  0.05409086  0.03796052  0.93116813  1
  O  O14  1  0.05409086  0.96203948  0.43116813  1
  O  O15  1  0.93335408  0.92972778  0.09149303  1
  O  O16  1  0.26024392  0.87292470  0.74533858  1
  O  O17  1  0.74787232  0.80301518  0.75236092  1
  O  O18  1  0.74787232  0.19698482  0.25236092  1
  O  O19  1  0.26024392  0.12707530  0.24533858  1
  O  O20  1  0.76024392  0.37292470  0.74533858  1
  O  O21  1  0.24787232  0.30301518  0.75236092  1
  O  O22  1  0.24787232  0.69698482  0.25236092  1
  O  O23  1  0.76024392  0.62707530  0.24533858  1
  O  O24  1  0.35720014  0.86339286  0.58677861  1
  O  O25  1  0.65512283  0.80673485  0.90562201  1
  O  O26  1  0.65512283  0.19326515  0.40562201  1
  O  O27  1  0.35720014  0.13660714  0.08677861  1
  O  O28  1  0.85720014  0.36339286  0.58677861  1
  O  O29  1  0.15512283  0.30673485  0.90562201  1
  O  O30  1  0.15512283  0.69326515  0.40562201  1
  O  O31  1  0.85720014  0.63660714  0.08677861  1
  O  O32  1  0.45291051  0.86721983  0.92897476  1
  O  O33  1  0.53485038  0.82100145  0.55753774  1
  O  O34  1  0.53485038  0.17899855  0.05753774  1
  O  O35  1  0.45291051  0.13278017  0.42897476  1
  O  O36  1  0.95291051  0.36721983  0.92897476  1
  O  O37  1  0.03485038  0.32100145  0.55753774  1
  O  O38  1  0.03485038  0.67899855  0.05753774  1
  O  O39  1  0.95291051  0.63278017  0.42897476  1
  O  O40  1  0.05926217  0.85501470  0.73718801  1
  O  O41  1  0.90642951  0.86556588  0.74885919  1
  O  O42  1  0.90642951  0.13443412  0.24885919  1
  O  O43  1  0.05926217  0.14498530  0.23718801  1
  O  O44  1  0.55926217  0.35501470  0.73718801  1
  O  O45  1  0.40642951  0.36556588  0.74885919  1
  O  O46  1  0.40642951  0.63443412  0.24885919  1
  O  O47  1  0.55926217  0.64498530  0.23718801  1
loop_
_geom_bond_atom_site_label_1
_geom_bond_atom_site_label_2
_geom_bond_distance
_geom_bond_site_symmetry_2
Na0 O0 2.338876 1_555
Na0 O46 2.365774 1_556
Na0 O22 2.480369 1_556
Na0 O6 2.612783 1_556
Na0 O16 2.649736 1_555
Na0 O40 2.867517 1_555
Na1 O7 2.338876 1_555
Na1 O41 2.365774 1_555
Na1 O17 2.480369 1_555
Na1 O1 2.612783 1_555
Na1 O23 2.649736 1_555
Na1 O47 2.867517 1_555
Na2 O4 2.338876 1_555
Na2 O42 2.365774 1_556
Na2 O18 2.480369 1_556
Na2 O2 2.612783 1_556
Na2 O20 2.649736 1_555
Na2 O44 2.867517 1_555
Na3 O3 2.338876 1_555
Na3 O45 2.365774 1_555
Na3 O21 2.480369 1_555
Na3 O5 2.612783 1_555
Na3 O19 2.649736 1_555
Na3 O43 2.867517 1_555
Na4 O4 2.374243 1_555
Na4 O5 2.437025 1_555
Na4 O35 2.547666 1_555
Na4 O44 2.595016 1_555
Na4 O34 2.694920 1_556
Na4 O24 2.910702 1_545
Na5 O7 2.374243 1_555
Na5 O6 2.437025 1_555
Na5 O32 2.547666 1_554
Na5 O47 2.595016 1_555
Na5 O33 2.694920 1_555
Na5 O27 2.910702 1_565
Na6 O0 2.374243 1_555
Na6 O1 2.437025 1_455
Na6 O39 2.547666 1_455
Na6 O40 2.595016 1_555
Na6 O38 2.694920 1_556
Na6 O28 2.910702 1_455
Na7 O3 2.374243 1_555
Na7 O2 2.437025 1_455
Na7 O36 2.547666 1_454
Na7 O43 2.595016 1_555
Na7 O37 2.694920 1_555
Na7 O31 2.910702 1_455
Na8 O30 2.474389 1_555
Na8 O19 2.486239 1_565
Na8 O24 2.548402 1_555
Na8 O22 2.581790 1_555
Na8 O43 2.604448 1_565
Na8 O14 2.843249 1_555
Na8 O13 2.981247 1_564
Na9 O29 2.474389 1_555
Na9 O16 2.486239 1_545
Na9 O27 2.548402 1_556
Na9 O21 2.581790 1_555
Na9 O40 2.604448 1_545
Na9 O13 2.843249 1_555
Na9 O14 2.981247 1_545
Na10 O26 2.474389 1_555
Na10 O23 2.486239 1_555
Na10 O28 2.548402 1_555
Na10 O18 2.581790 1_555
Na10 O47 2.604448 1_555
Na10 O10 2.843249 1_555
Na10 O9 2.981247 1_554
Na11 O25 2.474389 1_555
Na11 O20 2.486239 1_555
Na11 O31 2.548402 1_556
Na11 O17 2.581790 1_555
Na11 O44 2.604448 1_555
Na11 O9 2.843249 1_555
Na11 O10 2.981247 1_555
Ca0 O30 2.097019 1_555
Ca0 O14 2.231208 1_555
Ca0 O39 2.258995 1_455
Ca0 O0 2.267575 1_555
Ca0 O40 2.292281 1_555
Ca0 O16 2.355123 1_555
Ca1 O29 2.097019 1_554
Ca1 O13 2.231208 1_554
Ca1 O36 2.258995 1_454
Ca1 O3 2.267575 1_555
Ca1 O43 2.292281 1_555
Ca1 O19 2.355123 1_555
Ca2 O26 2.097019 1_555
Ca2 O10 2.231208 1_555
Ca2 O35 2.258995 1_555
Ca2 O4 2.267575 1_555
Ca2 O44 2.292281 1_555
Ca2 O20 2.355123 1_555
Ca3 O25 2.097019 1_554
Ca3 O9 2.231208 1_554
Ca3 O32 2.258995 1_554
Ca3 O7 2.267575 1_555
Ca3 O47 2.292281 1_555
Ca3 O23 2.355123 1_555
Nb0 O38 1.963724 1_656
Nb0 O15 1.977551 1_556
Nb0 O17 2.015814 1_555
Nb0 O41 2.085358 1_555
Nb0 O31 2.100639 1_556
Nb0 O1 2.164983 1_555
Nb1 O37 1.963724 1_655
Nb1 O12 1.977551 1_555
Nb1 O18 2.015814 1_555
Nb1 O42 2.085358 1_555
Nb1 O28 2.100639 1_555
Nb1 O2 2.164983 1_555
Nb2 O34 1.963724 1_556
Nb2 O11 1.977551 1_556
Nb2 O21 2.015814 1_555
Nb2 O45 2.085358 1_555
Nb2 O27 2.100639 1_556
Nb2 O5 2.164983 1_555
Nb3 O33 1.963724 1_555
Nb3 O8 1.977551 1_555
Nb3 O22 2.015814 1_555
Nb3 O46 2.085358 1_555
Nb3 O24 2.100639 1_555
Nb3 O6 2.164983 1_555
O0 Si2 1.598672 1_555
O1 P6 1.590066 1_555
O2 P7 1.590066 1_555
O3 Si3 1.598672 1_555
O4 Si0 1.598672 1_545
O5 P4 1.590066 1_545
O6 P5 1.590066 1_565
O7 Si1 1.598672 1_565
O8 P2 1.625595 1_555
O9 P2 1.494636 1_555
O10 P3 1.494636 1_555
O11 P3 1.625595 1_555
O12 P0 1.625595 1_545
O13 P0 1.494636 1_445
O14 P1 1.494636 1_465
O15 P1 1.625595 1_565
O16 P4 1.522323 1_555
O17 Si0 1.688097 1_555
O18 Si1 1.688097 1_555
O19 P5 1.522323 1_555
O20 P6 1.522323 1_555
O21 Si2 1.688097 1_555
O22 Si3 1.688097 1_555
O23 P7 1.522323 1_555
O24 P4 1.631142 1_555
O25 Si0 1.572856 1_555
O26 Si1 1.572856 1_555
O27 P5 1.631142 1_555
O28 P6 1.631142 1_555
O29 Si2 1.572856 1_555
O30 Si3 1.572856 1_555
O31 P7 1.631142 1_555
O32 P4 1.509331 1_555
O33 Si0 1.763957 1_555
O34 Si1 1.763957 1_555
O35 P5 1.509331 1_555
O36 P6 1.509331 1_555
O37 Si2 1.763957 1_555
O38 Si3 1.763957 1_555
O39 P7 1.509331 1_555
O40 P0 1.521460 1_455
O41 P0 1.571987 1_555
O42 P1 1.571987 1_555
O43 P1 1.521460 1_455
O44 P2 1.521460 1_555
O45 P2 1.571987 1_555
O46 P3 1.571987 1_555
O47 P3 1.521460 1_555
