# generated using pymatgen
data_Na7Hf2In2Si3(PO8)3
_symmetry_space_group_name_H-M   'P 1'
_cell_length_a   9.19524328
_cell_length_b   9.18881308
_cell_length_c   22.59435615
_cell_angle_alpha   89.91282562
_cell_angle_beta   90.22855791
_cell_angle_gamma   120.07839635
_symmetry_Int_Tables_number   1
_chemical_formula_structural   Na7Hf2In2Si3(PO8)3
_chemical_formula_sum   'Na21 Hf6 In6 Si9 P9 O72'
_cell_volume   1651.98499207
_cell_formula_units_Z   3
loop_
 _symmetry_equiv_pos_site_id
 _symmetry_equiv_pos_as_xyz
  1  'x, y, z'
loop_
 _atom_site_type_symbol
 _atom_site_label
 _atom_site_symmetry_multiplicity
 _atom_site_fract_x
 _atom_site_fract_y
 _atom_site_fract_z
 _atom_site_occupancy
  Na  Na0  1  0.63190768  0.00396443  0.25338439  1
  Na  Na1  1  0.36768814  0.37210104  0.24724413  1
  Na  Na2  1  0.00012036  0.62153897  0.24999303  1
  Na  Na3  1  0.63122874  0.63446246  0.75034153  1
  Na  Na4  1  0.99032537  0.36228208  0.74861568  1
  Na  Na5  1  0.37674802  0.00225953  0.74655445  1
  Na  Na6  1  0.03298977  0.69313741  0.58322609  1
  Na  Na7  1  0.66093344  0.97290416  0.58302954  1
  Na  Na8  1  0.66735561  0.68726276  0.08179127  1
  Na  Na9  1  0.03036145  0.33884154  0.08692828  1
  Na  Na10  1  0.95683113  0.66336578  0.92023762  1
  Na  Na11  1  0.70289018  0.03194209  0.91535564  1
  Na  Na12  1  0.34273888  0.30513712  0.91868383  1
  Na  Na13  1  0.96706017  0.30752011  0.41532682  1
  Na  Na14  1  0.33660064  0.02618364  0.41847768  1
  Na  Na15  1  0.00080041  0.99898892  0.50013733  1
  Na  Na16  1  0.01009850  0.99371803  0.00053556  1
  Na  Na17  1  0.66663094  0.33349385  0.83327621  1
  Na  Na18  1  0.67589811  0.34342644  0.33422709  1
  Na  Na19  1  0.32327266  0.66649680  0.16683442  1
  Na  Na20  1  0.33352140  0.66102697  0.66528560  1
  Hf  Hf0  1  0.99185318  0.99653747  0.35465511  1
  Hf  Hf1  1  0.00158741  0.00497761  0.64652782  1
  Hf  Hf2  1  0.00737642  0.00437735  0.14680137  1
  Hf  Hf3  1  0.66569650  0.33193703  0.48298566  1
  Hf  Hf4  1  0.33585774  0.66992836  0.01884789  1
  Hf  Hf5  1  0.33368631  0.66647037  0.51683501  1
  In  In0  1  0.99525547  0.99899580  0.85054990  1
  In  In1  1  0.66720061  0.32885744  0.67954545  1
  In  In2  1  0.67002418  0.33562571  0.18105783  1
  In  In3  1  0.66309347  0.33646733  0.98707593  1
  In  In4  1  0.32924861  0.66405282  0.31882471  1
  In  In5  1  0.33847666  0.66858886  0.81595125  1
  Si  Si0  1  0.99954538  0.29626669  0.25032301  1
  Si  Si1  1  0.70248565  0.00196724  0.75014873  1
  Si  Si2  1  0.96674457  0.33556068  0.58406365  1
  Si  Si3  1  0.36636469  0.03323861  0.58318800  1
  Si  Si4  1  0.96849179  0.63407903  0.08355413  1
  Si  Si5  1  0.36722562  0.33240894  0.08290579  1
  Si  Si6  1  0.63190450  0.66436354  0.91581382  1
  Si  Si7  1  0.62905363  0.96342379  0.41599577  1
  Si  Si8  1  0.03383480  0.66536383  0.41579787  1
  P  P0  1  0.29159599  0.00118135  0.25146135  1
  P  P1  1  0.70823218  0.70932656  0.24934976  1
  P  P2  1  0.29300711  0.29245113  0.75132714  1
  P  P3  1  0.99850407  0.70434149  0.75027276  1
  P  P4  1  0.66479783  0.62626195  0.58552075  1
  P  P5  1  0.66577415  0.03474389  0.08393863  1
  P  P6  1  0.03974307  0.37347738  0.91616848  1
  P  P7  1  0.33500560  0.96244823  0.91517797  1
  P  P8  1  0.33611113  0.37203090  0.41469377  1
  O  O0  1  0.20532736  0.02002921  0.30754898  1
  O  O1  1  0.82333258  0.80283494  0.30328557  1
  O  O2  1  0.98009354  0.17859309  0.30825323  1
  O  O3  1  0.22370914  0.18980895  0.80901869  1
  O  O4  1  0.97591080  0.78187696  0.80766309  1
  O  O5  1  0.81474127  0.03824889  0.81049496  1
  O  O6  1  0.80150290  0.97637715  0.69359007  1
  O  O7  1  0.17611109  0.19226877  0.69851980  1
  O  O8  1  0.02291673  0.81881207  0.69596368  1
  O  O9  1  0.79395247  0.81399254  0.19325009  1
  O  O10  1  0.01908888  0.19950849  0.19252519  1
  O  O11  1  0.17716009  0.97959307  0.19756257  1
  O  O12  1  0.89949967  0.38403055  0.64342807  1
  O  O13  1  0.47877486  0.10472384  0.64320942  1
  O  O14  1  0.63634327  0.53040719  0.64403628  1
  O  O15  1  0.89673732  0.51425795  0.14240053  1
  O  O16  1  0.63436101  0.10755786  0.14023580  1
  O  O17  1  0.48597616  0.37583271  0.14196549  1
  O  O18  1  0.43843633  0.29515133  0.02301648  1
  O  O19  1  0.85182082  0.55890540  0.02438230  1
  O  O20  1  0.70474405  0.14655340  0.02868577  1
  O  O21  1  0.45877035  0.15241774  0.52595395  1
  O  O22  1  0.69358188  0.53432021  0.53398068  1
  O  O23  1  0.83921637  0.30351372  0.52800255  1
  O  O24  1  0.53387757  0.68991378  0.97232047  1
  O  O25  1  0.15235073  0.46950194  0.97015987  1
  O  O26  1  0.30948019  0.84299754  0.96736748  1
  O  O27  1  0.53814675  0.84582782  0.47339760  1
  O  O28  1  0.30502819  0.46270321  0.46603688  1
  O  O29  1  0.16054230  0.69526197  0.47194398  1
  O  O30  1  0.10099729  0.61814299  0.35589672  1
  O  O31  1  0.51608470  0.89005566  0.35583398  1
  O  O32  1  0.36681184  0.46827045  0.35604425  1
  O  O33  1  0.11166425  0.47912662  0.85916420  1
  O  O34  1  0.35875985  0.88923283  0.85678712  1
  O  O35  1  0.51880919  0.62891355  0.85572969  1
  O  O36  1  0.03338811  0.84402970  0.41126893  1
  O  O37  1  0.82206183  0.99414041  0.41248948  1
  O  O38  1  0.17324376  0.19391821  0.41121695  1
  O  O39  1  0.03709202  0.20301004  0.91533877  1
  O  O40  1  0.17614794  0.98141816  0.91411897  1
  O  O41  1  0.81820308  0.83785791  0.91638845  1
  O  O42  1  0.96903322  0.15742961  0.58908807  1
  O  O43  1  0.17320712  0.99974552  0.58818453  1
  O  O44  1  0.82910379  0.80323238  0.58900672  1
  O  O45  1  0.97486474  0.81505702  0.09153671  1
  O  O46  1  0.82331812  0.01281038  0.09089616  1
  O  O47  1  0.17282350  0.17454941  0.08951091  1
  O  O48  1  0.68305800  0.17021917  0.74675707  1
  O  O49  1  0.47221953  0.32028327  0.74443069  1
  O  O50  1  0.83660409  0.53043325  0.74516170  1
  O  O51  1  0.69203737  0.53351971  0.24849074  1
  O  O52  1  0.82587857  0.30692842  0.24884526  1
  O  O53  1  0.46550153  0.16334913  0.24720736  1
  O  O54  1  0.65187374  0.49646100  0.91888870  1
  O  O55  1  0.85969434  0.34449629  0.92252902  1
  O  O56  1  0.49750218  0.13527289  0.92196047  1
  O  O57  1  0.64690455  0.15134472  0.42317235  1
  O  O58  1  0.48516318  0.34263454  0.42478747  1
  O  O59  1  0.84830707  0.50042148  0.42599902  1
  O  O60  1  0.34983112  0.50348506  0.07614817  1
  O  O61  1  0.15368469  0.65144103  0.07531366  1
  O  O62  1  0.51371156  0.85456826  0.07595856  1
  O  O63  1  0.35177902  0.84656536  0.57582170  1
  O  O64  1  0.51620867  0.65692303  0.57573763  1
  O  O65  1  0.15221705  0.49960019  0.57399484  1
  O  O66  1  0.30822613  0.84189809  0.25212391  1
  O  O67  1  0.53460271  0.69747754  0.25309798  1
  O  O68  1  0.17312535  0.48130039  0.25127347  1
  O  O69  1  0.29554977  0.46269844  0.75155224  1
  O  O70  1  0.15749779  0.68550050  0.75211118  1
  O  O71  1  0.51652609  0.82857662  0.74975819  1
loop_
_geom_bond_atom_site_label_1
_geom_bond_atom_site_label_2
_geom_bond_distance
_geom_bond_site_symmetry_2
Na0 O52 2.442384 1_555
Na0 O67 2.491203 1_545
Na0 O31 2.546164 1_545
Na0 O66 2.575592 1_545
Na0 O53 2.598021 1_555
Na0 O16 2.722856 1_555
Na1 O68 2.452921 1_555
Na1 O53 2.493536 1_555
Na1 O51 2.580926 1_555
Na1 O67 2.590769 1_555
Na1 O17 2.612561 1_555
Na1 O32 2.614948 1_555
Na2 O68 2.499293 1_555
Na2 O52 2.506418 1_455
Na2 O66 2.525435 1_555
Na2 O51 2.526514 1_455
Na2 O30 2.568674 1_555
Na2 O15 2.614320 1_455
Na3 O71 2.485894 1_555
Na3 O49 2.501717 1_555
Na3 O50 2.511051 1_555
Na3 O35 2.589909 1_555
Na3 O14 2.595863 1_555
Na3 O69 2.671428 1_555
Na4 O48 2.469895 1_555
Na4 O69 2.477044 1_655
Na4 O12 2.556541 1_555
Na4 O50 2.565033 1_555
Na4 O70 2.571680 1_655
Na4 O33 2.724272 1_655
Na4 O5 2.934888 1_555
Na5 O48 2.440858 1_555
Na5 O71 2.501851 1_545
Na5 O13 2.518790 1_555
Na5 O70 2.582840 1_545
Na5 O49 2.596347 1_555
Na5 O34 2.670674 1_545
Na6 O43 2.443595 1_555
Na6 O65 2.522955 1_555
Na6 O44 2.541405 1_455
Na6 O63 2.543442 1_555
Na6 O29 2.774598 1_555
Na6 O12 2.816244 1_455
Na6 O8 2.819325 1_555
Na6 O22 2.918886 1_455
Na7 O42 2.470319 1_565
Na7 O63 2.478780 1_555
Na7 O64 2.520918 1_555
Na7 O44 2.693427 1_555
Na7 O27 2.727466 1_555
Na7 O6 2.800913 1_555
Na7 O13 2.859803 1_565
Na7 O23 2.911173 1_565
Na8 O45 2.467873 1_555
Na8 O60 2.539327 1_555
Na8 O62 2.559639 1_555
Na8 O46 2.597462 1_565
Na8 O24 2.762317 1_554
Na8 O9 2.771270 1_555
Na8 O19 2.824582 1_555
Na8 O17 2.835753 1_555
Na9 O47 2.445380 1_555
Na9 O61 2.518067 1_555
Na9 O60 2.554888 1_555
Na9 O46 2.625092 1_455
Na9 O10 2.683668 1_555
Na9 O15 2.771712 1_455
Na9 O25 2.885208 1_554
Na9 O20 2.913977 1_455
Na10 O54 2.430018 1_555
Na10 O41 2.500134 1_555
Na10 O19 2.544195 1_556
Na10 O40 2.592390 1_655
Na10 O55 2.600420 1_555
Na10 O4 2.736772 1_555
Na11 O41 2.490085 1_545
Na11 O55 2.490450 1_555
Na11 O56 2.508127 1_555
Na11 O5 2.575623 1_555
Na11 O39 2.659440 1_655
Na11 O20 2.766955 1_556
Na12 O39 2.477918 1_555
Na12 O54 2.482269 1_555
Na12 O18 2.530509 1_556
Na12 O40 2.576364 1_545
Na12 O56 2.586930 1_555
Na12 O3 2.698936 1_555
Na13 O37 2.495046 1_545
Na13 O59 2.517129 1_555
Na13 O57 2.554626 1_555
Na13 O38 2.584224 1_655
Na13 O2 2.724703 1_555
Na13 O23 2.800853 1_555
Na13 O30 2.818615 1_655
Na13 O28 2.922077 1_655
Na14 O36 2.433332 1_545
Na14 O57 2.486766 1_555
Na14 O58 2.521874 1_555
Na14 O38 2.641345 1_555
Na14 O21 2.680491 1_555
Na14 O0 2.765861 1_555
Na14 O31 2.895707 1_545
Na14 O29 2.897683 1_545
Na15 O43 2.536675 1_555
Na15 O37 2.554584 1_455
Na15 O36 2.567139 1_555
Na15 O42 2.585347 1_465
Na15 O38 2.631850 1_565
Na15 O44 2.632052 1_455
Na16 O41 2.495565 1_454
Na16 O40 2.520692 1_554
Na16 O45 2.547468 1_455
Na16 O47 2.556436 1_565
Na16 O39 2.641905 1_564
Na16 O46 2.734947 1_465
Na17 O54 2.493427 1_555
Na17 O48 2.516659 1_555
Na17 O50 2.619166 1_555
Na17 O56 2.631658 1_555
Na17 O49 2.644758 1_555
Na17 O55 2.649652 1_555
Na18 O52 2.494560 1_555
Na18 O51 2.560827 1_555
Na18 O59 2.566001 1_555
Na18 O57 2.597472 1_555
Na18 O53 2.667838 1_555
Na18 O58 2.697887 1_555
Na19 O68 2.469420 1_555
Na19 O61 2.546721 1_555
Na19 O66 2.562319 1_555
Na19 O60 2.623297 1_555
Na19 O67 2.659517 1_555
Na19 O62 2.693221 1_555
Na20 O71 2.496241 1_555
Na20 O69 2.568855 1_555
Na20 O63 2.593470 1_555
Na20 O65 2.595622 1_555
Na20 O70 2.628771 1_555
Na20 O64 2.647231 1_555
Hf0 O2 2.021007 1_565
Hf0 O37 2.031581 1_555
Hf0 O1 2.035605 1_555
Hf0 O36 2.067136 1_655
Hf0 O0 2.150303 1_665
Hf0 O38 2.159276 1_665
Hf1 O6 2.028501 1_445
Hf1 O7 2.034665 1_555
Hf1 O42 2.036668 1_455
Hf1 O43 2.079238 1_545
Hf1 O8 2.130990 1_545
Hf1 O44 2.164462 1_445
Hf2 O47 2.014982 1_555
Hf2 O10 2.026083 1_555
Hf2 O11 2.036159 1_545
Hf2 O45 2.038919 1_445
Hf2 O46 2.140108 1_455
Hf2 O9 2.140727 1_445
Hf3 O23 2.013087 1_555
Hf3 O21 2.036602 1_555
Hf3 O59 2.068730 1_555
Hf3 O57 2.080264 1_555
Hf3 O22 2.092330 1_555
Hf3 O58 2.154129 1_555
Hf4 O24 2.033183 1_554
Hf4 O61 2.047863 1_555
Hf4 O60 2.054605 1_555
Hf4 O26 2.078365 1_554
Hf4 O25 2.079808 1_554
Hf4 O62 2.103984 1_555
Hf5 O29 2.010486 1_555
Hf5 O27 2.029285 1_555
Hf5 O65 2.061546 1_555
Hf5 O63 2.066756 1_555
Hf5 O28 2.098125 1_555
Hf5 O64 2.173737 1_555
In0 O5 2.071585 1_565
In0 O4 2.144684 1_555
In0 O41 2.156874 1_555
In0 O3 2.164812 1_665
In0 O39 2.255254 1_665
In0 O40 2.259495 1_655
In1 O13 2.081970 1_555
In1 O12 2.100670 1_555
In1 O48 2.157974 1_555
In1 O14 2.162063 1_555
In1 O50 2.270038 1_555
In1 O49 2.291068 1_555
In2 O15 2.093626 1_555
In2 O17 2.096324 1_555
In2 O16 2.159794 1_555
In2 O52 2.197559 1_555
In2 O51 2.303471 1_555
In2 O53 2.303839 1_555
In3 O18 2.072998 1_556
In3 O19 2.082767 1_556
In3 O54 2.165515 1_555
In3 O20 2.176680 1_556
In3 O56 2.251578 1_555
In3 O55 2.299455 1_555
In4 O31 2.093093 1_555
In4 O30 2.100021 1_555
In4 O32 2.163068 1_555
In4 O68 2.187297 1_555
In4 O66 2.299130 1_555
In4 O67 2.303253 1_555
In5 O35 2.069638 1_555
In5 O34 2.149872 1_555
In5 O71 2.163033 1_555
In5 O33 2.169203 1_555
In5 O69 2.259974 1_555
In5 O70 2.261305 1_555
O0 P0 1.552937 1_555
O1 P1 1.557204 1_555
O2 Si0 1.648657 1_555
O3 P2 1.547637 1_555
O4 P3 1.544509 1_555
O5 Si1 1.637352 1_555
O6 Si1 1.655936 1_565
O7 P2 1.558102 1_555
O8 P3 1.556949 1_455
O9 P1 1.548322 1_555
O10 Si0 1.641258 1_455
O11 P0 1.552723 1_565
O12 Si2 1.632259 1_555
O13 Si3 1.627872 1_555
O14 P4 1.536382 1_555
O15 Si4 1.640051 1_555
O16 P5 1.532422 1_555
O17 Si5 1.638742 1_555
O18 Si5 1.615610 1_555
O19 Si4 1.632199 1_555
O20 P5 1.540486 1_555
O21 Si3 1.632567 1_555
O22 P4 1.539313 1_555
O23 Si2 1.646031 1_555
O24 Si6 1.649203 1_555
O25 P6 1.554435 1_555
O26 P7 1.546079 1_555
O27 Si7 1.627101 1_555
O28 P8 1.538147 1_555
O29 Si8 1.646414 1_555
O30 Si8 1.636611 1_555
O31 Si7 1.634275 1_555
O32 P8 1.538482 1_555
O33 P6 1.548590 1_555
O34 P7 1.546990 1_555
O35 Si6 1.637401 1_555
O36 Si8 1.646815 1_555
O37 Si7 1.653677 1_555
O38 P8 1.571686 1_555
O39 P6 1.554459 1_555
O40 P7 1.555518 1_555
O41 Si6 1.654897 1_555
O42 Si2 1.651191 1_555
O43 Si3 1.647931 1_565
O44 P4 1.571611 1_555
O45 Si4 1.644563 1_555
O46 P5 1.566741 1_555
O47 Si5 1.650498 1_555
O48 Si1 1.644501 1_555
O49 P2 1.544265 1_555
O50 P3 1.548486 1_555
O51 P1 1.546347 1_555
O52 Si0 1.648397 1_555
O53 P0 1.548913 1_555
O54 Si6 1.643896 1_555
O55 P6 1.546740 1_655
O56 P7 1.548693 1_545
O57 Si7 1.658765 1_545
O58 P8 1.540080 1_555
O59 Si8 1.634295 1_655
O60 Si5 1.664675 1_555
O61 Si4 1.640149 1_455
O62 P5 1.551482 1_565
O63 Si3 1.660739 1_565
O64 P4 1.542176 1_555
O65 Si2 1.630236 1_455
O66 P0 1.545983 1_565
O67 P1 1.547532 1_555
O68 Si0 1.648782 1_455
O69 P2 1.552800 1_555
O70 P3 1.556375 1_455
O71 Si1 1.652736 1_565
