# generated using pymatgen
data_Ba2YMgCu3S7
_symmetry_space_group_name_H-M   'P 1'
_cell_length_a   4.37823200
_cell_length_b   4.93834300
_cell_length_c   14.10519400
_cell_angle_alpha   90.00000000
_cell_angle_beta   90.00000000
_cell_angle_gamma   90.00000000
_symmetry_Int_Tables_number   1
_chemical_formula_structural   Ba2YMgCu3S7
_chemical_formula_sum   'Ba2 Y1 Mg1 Cu3 S7'
_cell_volume   304.97138060
_cell_formula_units_Z   1
loop_
 _symmetry_equiv_pos_site_id
 _symmetry_equiv_pos_as_xyz
  1  'x, y, z'
loop_
 _atom_site_type_symbol
 _atom_site_label
 _atom_site_symmetry_multiplicity
 _atom_site_fract_x
 _atom_site_fract_y
 _atom_site_fract_z
 _atom_site_occupancy
  Ba  Ba0  1  0.50000000  0.50000000  0.82736500  1
  Ba  Ba1  1  0.50000000  0.50000000  0.17263500  1
  Y  Y0  1  0.50000000  0.50000000  0.50000000  1
  Mg  Mg0  1  0.00000000  0.00000000  0.50000000  1
  Cu  Cu0  1  0.00000000  0.00000000  0.00000000  1
  Cu  Cu1  1  0.00000000  0.00000000  0.68333400  1
  Cu  Cu2  1  0.00000000  0.00000000  0.31666600  1
  S  S0  1  0.50000000  0.00000000  0.61695200  1
  S  S1  1  0.50000000  0.00000000  0.38304800  1
  S  S2  1  0.00000000  0.00000000  0.84248400  1
  S  S3  1  0.00000000  0.00000000  0.15751600  1
  S  S4  1  0.00000000  0.50000000  0.00000000  1
  S  S5  1  0.00000000  0.50000000  0.62104600  1
  S  S6  1  0.00000000  0.50000000  0.37895400  1
loop_
_geom_bond_atom_site_label_1
_geom_bond_atom_site_label_2
_geom_bond_distance
_geom_bond_site_symmetry_2
Ba0 S4 3.274400 1_556
Ba0 S4 3.274400 1_656
Ba0 S2 3.306738 1_565
Ba0 S2 3.306738 1_655
Ba0 S2 3.306738 1_555
Ba0 S2 3.306738 1_665
Ba0 S5 3.641609 1_555
Ba0 S5 3.641609 1_655
Ba1 S4 3.274400 1_555
Ba1 S4 3.274400 1_655
Ba1 S3 3.306738 1_655
Ba1 S3 3.306738 1_565
Ba1 S3 3.306738 1_665
Ba1 S3 3.306738 1_555
Ba1 S6 3.641609 1_555
Ba1 S6 3.641609 1_655
Mg0 S0 2.741078 1_455
Mg0 S0 2.741078 1_555
Mg0 S1 2.741078 1_455
Mg0 S1 2.741078 1_555
Mg0 S6 3.001990 1_545
Mg0 S5 3.001990 1_555
Mg0 S6 3.001990 1_555
Mg0 S5 3.001990 1_545
Cu0 S2 2.221794 1_554
Cu0 S3 2.221794 1_555
Cu0 S4 2.469171 1_555
Cu0 S4 2.469171 1_545
Cu1 S2 2.244842 1_555
Cu1 S0 2.380955 1_455
Cu1 S0 2.380955 1_555
Cu1 Mg0 2.585962 1_555
Cu1 S5 2.620824 1_545
Cu1 S5 2.620824 1_555
Cu2 S3 2.244842 1_555
Cu2 S1 2.380955 1_455
Cu2 S1 2.380955 1_555
Cu2 Mg0 2.585962 1_555
Cu2 S6 2.620824 1_555
Cu2 S6 2.620824 1_545
S0 Y0 2.969527 1_545
S0 Y0 2.969527 1_555
S1 Y0 2.969527 1_545
S1 Y0 2.969527 1_555
S5 Y0 2.776214 1_455
S5 Y0 2.776214 1_555
S6 Y0 2.776214 1_455
S6 Y0 2.776214 1_555
