# generated using pymatgen
data_Sr4MgFe2(SO3)2
_symmetry_space_group_name_H-M   'P 1'
_cell_length_a   3.91325300
_cell_length_b   3.91326000
_cell_length_c   16.85993800
_cell_angle_alpha   90.00215265
_cell_angle_beta   89.99932890
_cell_angle_gamma   90.00122989
_symmetry_Int_Tables_number   1
_chemical_formula_structural   Sr4MgFe2(SO3)2
_chemical_formula_sum   'Sr4 Mg1 Fe2 S2 O6'
_cell_volume   258.18594912
_cell_formula_units_Z   1
loop_
 _symmetry_equiv_pos_site_id
 _symmetry_equiv_pos_as_xyz
  1  'x, y, z'
loop_
 _atom_site_type_symbol
 _atom_site_label
 _atom_site_symmetry_multiplicity
 _atom_site_fract_x
 _atom_site_fract_y
 _atom_site_fract_z
 _atom_site_occupancy
  Sr  Sr0  1  0.74998200  0.75002000  0.04965900  1
  Sr  Sr1  1  0.24999800  0.25001700  0.82101600  1
  Sr  Sr2  1  0.75000000  0.74999400  0.44522700  1
  Sr  Sr3  1  0.24999800  0.25000100  0.60804400  1
  Mg  Mg0  1  0.75001600  0.74995500  0.25254000  1
  Fe  Fe0  1  0.25000800  0.24997800  0.32824200  1
  Fe  Fe1  1  0.74999700  0.75001000  0.70293700  1
  S  S0  1  0.24997600  0.25004600  0.12415200  1
  S  S1  1  0.75000000  0.75002400  0.88600700  1
  O  O0  1  0.75000900  0.24997000  0.30242700  1
  O  O1  1  0.25001200  0.74997500  0.30242800  1
  O  O2  1  0.24999600  0.75001100  0.71313200  1
  O  O3  1  0.74999900  0.25001200  0.71313200  1
  O  O4  1  0.25000300  0.24999300  0.44263000  1
  O  O5  1  0.75000300  0.74999800  0.58157600  1
loop_
_geom_bond_atom_site_label_1
_geom_bond_atom_site_label_2
_geom_bond_distance
_geom_bond_site_symmetry_2
Mg0 O0 2.129725 1_555
Mg0 O1 2.129748 1_655
Mg0 O1 2.129759 1_555
Mg0 O0 2.129775 1_565
Fe0 O4 1.928575 1_555
Fe0 O1 2.004445 1_545
Fe0 O0 2.004449 1_555
Fe0 O0 2.004451 1_455
Fe0 O1 2.004454 1_555
Fe1 O2 1.964160 1_655
Fe1 O2 1.964164 1_555
Fe1 O3 1.964164 1_555
Fe1 O3 1.964167 1_565
Fe1 O5 2.046139 1_555
Fe1 S1 3.086549 1_555
S0 Sr0 3.038725 1_555
S0 Sr0 3.038768 1_455
S0 Sr0 3.038784 1_445
S0 Sr0 3.038849 1_545
S1 Sr0 2.759163 1_556
S1 Sr1 2.976114 1_665
S1 Sr1 2.976123 1_555
S1 Sr1 2.976151 1_655
S1 Sr1 2.976196 1_565
O2 Sr3 2.639600 1_555
O2 Sr3 2.639641 1_565
O2 Sr1 2.671458 1_565
O2 Sr1 2.671523 1_555
O3 Sr3 2.639599 1_655
O3 Sr3 2.639636 1_555
O3 Sr1 2.671475 1_555
O3 Sr1 2.671501 1_655
O4 Sr2 2.767401 1_555
O4 Sr2 2.767413 1_445
O4 Sr2 2.767457 1_545
O4 Sr2 2.767476 1_455
O4 Sr3 2.788870 1_555
O5 Sr2 2.298836 1_555
O5 Sr3 2.802800 1_665
O5 Sr3 2.802827 1_555
O5 Sr3 2.802865 1_655
O5 Sr3 2.802878 1_565
