# generated using pymatgen
data_PrBr3
_symmetry_space_group_name_H-M   'P 1'
_cell_length_a   8.02946899
_cell_length_b   8.02946830
_cell_length_c   4.43424121
_cell_angle_alpha   90.00000000
_cell_angle_beta   90.00000000
_cell_angle_gamma   120.00001116
_symmetry_Int_Tables_number   1
_chemical_formula_structural   PrBr3
_chemical_formula_sum   'Pr2 Br6'
_cell_volume   247.58453279
_cell_formula_units_Z   2
loop_
 _symmetry_equiv_pos_site_id
 _symmetry_equiv_pos_as_xyz
  1  'x, y, z'
loop_
 _atom_site_type_symbol
 _atom_site_label
 _atom_site_symmetry_multiplicity
 _atom_site_fract_x
 _atom_site_fract_y
 _atom_site_fract_z
 _atom_site_occupancy
  Pr  Pr0  1  0.66666700  0.33333300  0.75000000  1
  Pr  Pr1  1  0.33333300  0.66666700  0.25000000  1
  Br  Br0  1  0.61329277  0.69984206  0.75000000  1
  Br  Br1  1  0.91344972  0.61329277  0.25000000  1
  Br  Br2  1  0.38670723  0.30015794  0.25000000  1
  Br  Br3  1  0.08655028  0.38670723  0.75000000  1
  Br  Br4  1  0.30015794  0.91344972  0.75000000  1
  Br  Br5  1  0.69984206  0.08655028  0.25000000  1
loop_
_geom_bond_atom_site_label_1
_geom_bond_atom_site_label_2
_geom_bond_distance
_geom_bond_site_symmetry_2
Br0 Pr1 3.072615 1_555
Br0 Pr1 3.072615 1_556
Br0 Pr0 3.178897 1_555
Br1 Pr0 3.072610 1_555
Br1 Pr0 3.072610 1_554
Br1 Pr1 3.178897 1_655
Br2 Pr0 3.072615 1_555
Br2 Pr0 3.072615 1_554
Br2 Pr1 3.178897 1_555
Br3 Pr1 3.072610 1_556
Br3 Pr1 3.072610 1_555
Br3 Pr0 3.178897 1_455
Br4 Pr1 3.072604 1_555
Br4 Pr1 3.072604 1_556
Br4 Pr0 3.178897 1_565
Br5 Pr0 3.072604 1_555
Br5 Pr0 3.072604 1_554
Br5 Pr1 3.178897 1_545
