# generated using pymatgen
data_Li2TiO3
_symmetry_space_group_name_H-M   'P 1'
_cell_length_a   5.05360598
_cell_length_b   5.05360598
_cell_length_c   9.68173310
_cell_angle_alpha   84.90878576
_cell_angle_beta   84.90878576
_cell_angle_gamma   120.10673446
_symmetry_Int_Tables_number   1
_chemical_formula_structural   Li2TiO3
_chemical_formula_sum   'Li8 Ti4 O12'
_cell_volume   210.49670190
_cell_formula_units_Z   4
loop_
 _symmetry_equiv_pos_site_id
 _symmetry_equiv_pos_as_xyz
  1  'x, y, z'
loop_
 _atom_site_type_symbol
 _atom_site_label
 _atom_site_symmetry_multiplicity
 _atom_site_fract_x
 _atom_site_fract_y
 _atom_site_fract_z
 _atom_site_occupancy
  Li  Li0  1  0.16007598  0.31991681  0.00035714  1
  Li  Li1  1  0.68008319  0.83992402  0.49964286  1
  Li  Li2  1  0.83992402  0.68008319  0.99964286  1
  Li  Li3  1  0.31991681  0.16007598  0.50035714  1
  Li  Li4  1  0.00000000  0.50000000  0.50000000  1
  Li  Li5  1  0.50000000  -0.00000000  -0.00000000  1
  Li  Li6  1  0.91545274  0.08454726  0.75000000  1
  Li  Li7  1  0.08454726  0.91545274  0.25000000  1
  Ti  Ti0  1  0.58244536  0.41755464  0.75000000  1
  Ti  Ti1  1  0.74988344  0.25011656  0.25000000  1
  Ti  Ti2  1  0.25011656  0.74988344  0.75000000  1
  Ti  Ti3  1  0.41755464  0.58244536  0.25000000  1
  O  O0  1  0.04491087  0.23150975  0.36633809  1
  O  O1  1  0.87672000  0.40208816  0.86412124  1
  O  O2  1  0.76849025  0.95508913  0.13366191  1
  O  O3  1  0.95508913  0.76849025  0.63366191  1
  O  O4  1  0.52214277  0.69097880  0.86398218  1
  O  O5  1  0.59791184  0.12328000  0.63587876  1
  O  O6  1  0.12328000  0.59791184  0.13587876  1
  O  O7  1  0.40208816  0.87672000  0.36412124  1
  O  O8  1  0.69097880  0.52214277  0.36398218  1
  O  O9  1  0.30902120  0.47785723  0.63601782  1
  O  O10  1  0.47785723  0.30902120  0.13601782  1
  O  O11  1  0.23150975  0.04491087  0.86633809  1
loop_
_geom_bond_atom_site_label_1
_geom_bond_atom_site_label_2
_geom_bond_distance
_geom_bond_site_symmetry_2
Li0 O6 2.067791 1_555
Li0 O4 2.072978 1_554
Li0 O2 2.108347 1_445
Li0 O11 2.117930 1_554
Li0 O10 2.181151 1_555
Li0 O1 2.190276 1_454
Li1 O7 2.067791 1_555
Li1 O9 2.072978 1_555
Li1 O0 2.108347 1_665
Li1 O3 2.117930 1_555
Li1 O8 2.181151 1_555
Li1 O5 2.190276 1_565
Li2 O1 2.067791 1_555
Li2 O10 2.072978 1_556
Li2 O11 2.108347 1_665
Li2 O2 2.117930 1_556
Li2 O4 2.181151 1_555
Li2 O6 2.190276 1_656
Li3 O5 2.067791 1_555
Li3 O8 2.072978 1_555
Li3 O3 2.108347 1_445
Li3 O0 2.117930 1_555
Li3 O9 2.181151 1_555
Li3 O7 2.190276 1_545
Li4 O0 2.033625 1_555
Li4 O3 2.033625 1_455
Li4 O5 2.164292 1_455
Li4 O7 2.164292 1_555
Li4 O8 2.167879 1_455
Li4 O9 2.167879 1_555
Li5 O11 2.033625 1_554
Li5 O2 2.033625 1_545
Li5 O1 2.164292 1_554
Li5 O6 2.164292 1_545
Li5 O4 2.167879 1_544
Li5 O10 2.167879 1_555
Li6 O9 2.092724 1_655
Li6 O4 2.092724 1_545
Li6 O1 2.103728 1_555
Li6 O5 2.103728 1_555
Li6 O3 2.111908 1_545
Li6 O11 2.111908 1_655
Li7 O8 2.092724 1_455
Li7 O10 2.092724 1_565
Li7 O7 2.103728 1_555
Li7 O6 2.103728 1_555
Li7 O0 2.111908 1_565
Li7 O2 2.111908 1_455
O0 Ti3 1.969457 1_555
O0 Ti1 1.979990 1_455
O1 Ti2 1.956719 1_655
O1 Ti0 1.957401 1_555
O2 Ti3 1.969457 1_555
O2 Ti1 1.979990 1_565
O3 Ti0 1.969457 1_555
O3 Ti2 1.979990 1_655
O4 Ti2 1.953908 1_555
O4 Ti0 1.963005 1_555
O5 Ti2 1.956719 1_545
O5 Ti0 1.957401 1_555
O6 Ti1 1.956719 1_455
O6 Ti3 1.957401 1_555
O7 Ti1 1.956719 1_565
O7 Ti3 1.957401 1_555
O8 Ti1 1.953908 1_555
O8 Ti3 1.963005 1_555
O9 Ti2 1.953908 1_555
O9 Ti0 1.963005 1_555
O10 Ti1 1.953908 1_555
O10 Ti3 1.963005 1_555
O11 Ti0 1.969457 1_555
O11 Ti2 1.979990 1_545
