# generated using pymatgen
data_MgCuNi3O4
_symmetry_space_group_name_H-M   'P 1'
_cell_length_a   2.93513288
_cell_length_b   6.40738647
_cell_length_c   6.40738425
_cell_angle_alpha   53.61057917
_cell_angle_beta   90.00000000
_cell_angle_gamma   90.00000000
_symmetry_Int_Tables_number   1
_chemical_formula_structural   MgCuNi3O4
_chemical_formula_sum   'Mg1 Cu1 Ni3 O4'
_cell_volume   97.00344211
_cell_formula_units_Z   1
loop_
 _symmetry_equiv_pos_site_id
 _symmetry_equiv_pos_as_xyz
  1  'x, y, z'
loop_
 _atom_site_type_symbol
 _atom_site_label
 _atom_site_symmetry_multiplicity
 _atom_site_fract_x
 _atom_site_fract_y
 _atom_site_fract_z
 _atom_site_occupancy
  Mg  Mg0  1  0.50000000  0.10524987  0.10524987  1
  Cu  Cu0  1  -0.00000000  0.56439344  0.56439344  1
  Ni  Ni0  1  0.50000000  0.55099688  0.03723101  1
  Ni  Ni1  1  0.50000000  0.03723101  0.55099688  1
  Ni  Ni2  1  -0.00000000  0.94587280  0.94587280  1
  O  O0  1  -0.00000000  0.74539524  0.74539524  1
  O  O1  1  0.50000000  0.72614018  0.21455261  1
  O  O2  1  0.50000000  0.21455261  0.72614018  1
  O  O3  1  -0.00000000  0.23516796  0.23516797  1
loop_
_geom_bond_atom_site_label_1
_geom_bond_atom_site_label_2
_geom_bond_distance
_geom_bond_site_symmetry_2
Mg0 O3 2.088507 1_555
Mg0 O3 2.088507 1_655
Mg0 O2 2.091044 1_554
Mg0 O1 2.091045 1_545
Mg0 Ni2 2.340250 1_544
Mg0 Ni2 2.340250 1_644
Cu0 O0 2.070253 1_555
Cu0 O1 2.344351 1_455
Cu0 O1 2.344351 1_555
Cu0 O2 2.344352 1_455
Cu0 O2 2.344352 1_555
Ni0 O1 2.015712 1_555
Ni0 O0 2.106697 1_554
Ni0 O0 2.106697 1_654
Ni0 O3 2.193648 1_655
Ni0 O3 2.193648 1_555
Ni1 O2 2.015712 1_555
Ni1 O0 2.106698 1_545
Ni1 O0 2.106698 1_645
Ni1 O3 2.193647 1_655
Ni1 O3 2.193647 1_555
Ni2 O1 2.055176 1_556
Ni2 O1 2.055176 1_456
Ni2 O2 2.055176 1_565
Ni2 O2 2.055176 1_465
Ni2 O0 2.293012 1_555
