# generated using pymatgen
data_LiTi(PO3)4
_symmetry_space_group_name_H-M   'P 1'
_cell_length_a   8.38438300
_cell_length_b   9.50487400
_cell_length_c   12.87403000
_cell_angle_alpha   90.00000000
_cell_angle_beta   90.00000000
_cell_angle_gamma   90.00000000
_symmetry_Int_Tables_number   1
_chemical_formula_structural   LiTi(PO3)4
_chemical_formula_sum   'Li4 Ti4 P16 O48'
_cell_volume   1025.96368705
_cell_formula_units_Z   4
loop_
 _symmetry_equiv_pos_site_id
 _symmetry_equiv_pos_as_xyz
  1  'x, y, z'
loop_
 _atom_site_type_symbol
 _atom_site_label
 _atom_site_symmetry_multiplicity
 _atom_site_fract_x
 _atom_site_fract_y
 _atom_site_fract_z
 _atom_site_occupancy
  Li  Li0  1  0.99997600  0.75000000  0.00000000  1
  Li  Li1  1  0.00002400  0.25000000  0.00000000  1
  Li  Li2  1  0.50002400  0.25000000  0.50000000  1
  Li  Li3  1  0.49997600  0.75000000  0.50000000  1
  Ti  Ti0  1  0.36668000  0.75000000  0.00000000  1
  Ti  Ti1  1  0.63332000  0.25000000  0.00000000  1
  Ti  Ti2  1  0.13332000  0.25000000  0.50000000  1
  Ti  Ti3  1  0.86668000  0.75000000  0.50000000  1
  P  P0  1  0.17626800  0.50329300  0.13751500  1
  P  P1  1  0.82373200  0.00329300  0.13751500  1
  P  P2  1  0.46782200  0.00894500  0.15113100  1
  P  P3  1  0.53217800  0.50894500  0.15113100  1
  P  P4  1  0.03217800  0.50894500  0.34886900  1
  P  P5  1  0.96782200  0.00894500  0.34886900  1
  P  P6  1  0.32373200  0.00329300  0.36248500  1
  P  P7  1  0.67626800  0.50329300  0.36248500  1
  P  P8  1  0.32373200  0.49670700  0.63751500  1
  P  P9  1  0.67626800  0.99670700  0.63751500  1
  P  P10  1  0.03217800  0.99105500  0.65113100  1
  P  P11  1  0.96782200  0.49105500  0.65113100  1
  P  P12  1  0.46782200  0.49105500  0.84886900  1
  P  P13  1  0.53217800  0.99105500  0.84886900  1
  P  P14  1  0.17626800  0.99670700  0.86248500  1
  P  P15  1  0.82373200  0.49670700  0.86248500  1
  O  O0  1  0.18629700  0.63027700  0.06557200  1
  O  O1  1  0.81370300  0.13027700  0.06557200  1
  O  O2  1  0.46451900  0.12659400  0.07313100  1
  O  O3  1  0.53548100  0.62659400  0.07313100  1
  O  O4  1  0.09299200  0.37496000  0.10226100  1
  O  O5  1  0.90700800  0.87496000  0.10226100  1
  O  O6  1  0.37430900  0.87823600  0.12365900  1
  O  O7  1  0.62569100  0.37823600  0.12365900  1
  O  O8  1  0.35309800  0.46374100  0.17877500  1
  O  O9  1  0.64690200  0.96374100  0.17877500  1
  O  O10  1  0.09782300  0.56944600  0.24175700  1
  O  O11  1  0.90217700  0.06944600  0.24175700  1
  O  O12  1  0.40217700  0.06944600  0.25824300  1
  O  O13  1  0.59782300  0.56944600  0.25824300  1
  O  O14  1  0.14690200  0.96374100  0.32122500  1
  O  O15  1  0.85309800  0.46374100  0.32122500  1
  O  O16  1  0.12569100  0.37823600  0.37634100  1
  O  O17  1  0.87430900  0.87823600  0.37634100  1
  O  O18  1  0.40700800  0.87496000  0.39773900  1
  O  O19  1  0.59299200  0.37496000  0.39773900  1
  O  O20  1  0.03548100  0.62659400  0.42686900  1
  O  O21  1  0.96451900  0.12659400  0.42686900  1
  O  O22  1  0.31370300  0.13027700  0.43442800  1
  O  O23  1  0.68629700  0.63027700  0.43442800  1
  O  O24  1  0.31370300  0.36972300  0.56557200  1
  O  O25  1  0.68629700  0.86972300  0.56557200  1
  O  O26  1  0.03548100  0.87340600  0.57313100  1
  O  O27  1  0.96451900  0.37340600  0.57313100  1
  O  O28  1  0.40700800  0.62504000  0.60226100  1
  O  O29  1  0.59299200  0.12504000  0.60226100  1
  O  O30  1  0.12569100  0.12176400  0.62365900  1
  O  O31  1  0.87430900  0.62176400  0.62365900  1
  O  O32  1  0.14690200  0.53625900  0.67877500  1
  O  O33  1  0.85309800  0.03625900  0.67877500  1
  O  O34  1  0.40217700  0.43055400  0.74175700  1
  O  O35  1  0.59782300  0.93055400  0.74175700  1
  O  O36  1  0.09782300  0.93055400  0.75824300  1
  O  O37  1  0.90217700  0.43055400  0.75824300  1
  O  O38  1  0.35309800  0.03625900  0.82122500  1
  O  O39  1  0.64690200  0.53625900  0.82122500  1
  O  O40  1  0.37430900  0.62176400  0.87634100  1
  O  O41  1  0.62569100  0.12176400  0.87634100  1
  O  O42  1  0.09299200  0.12504000  0.89773900  1
  O  O43  1  0.90700800  0.62504000  0.89773900  1
  O  O44  1  0.46451900  0.37340600  0.92686900  1
  O  O45  1  0.53548100  0.87340600  0.92686900  1
  O  O46  1  0.18629700  0.86972300  0.93442800  1
  O  O47  1  0.81370300  0.36972300  0.93442800  1
loop_
_geom_bond_atom_site_label_1
_geom_bond_atom_site_label_2
_geom_bond_distance
_geom_bond_site_symmetry_2
Li0 O5 1.936876 1_555
Li0 O43 1.936876 1_554
Li0 O46 2.109027 1_654
Li0 O0 2.109027 1_655
Li1 O4 1.936876 1_555
Li1 O42 1.936876 1_554
Li1 O47 2.109027 1_454
Li1 O1 2.109027 1_455
Li2 O19 1.936876 1_555
Li2 O29 1.936876 1_555
Li2 O24 2.109027 1_555
Li2 O22 2.109027 1_555
Li3 O18 1.936876 1_555
Li3 O28 1.936876 1_555
Li3 O25 2.109027 1_555
Li3 O23 2.109027 1_555
O0 P0 1.523706 1_555
O0 Ti0 2.072419 1_555
O1 P1 1.523706 1_555
O1 Ti1 2.072419 1_555
O2 P2 1.503194 1_555
O2 Ti1 2.065257 1_555
O3 P3 1.503194 1_555
O3 Ti0 2.065257 1_555
O4 P0 1.476951 1_555
O5 P1 1.476951 1_565
O6 P2 1.511062 1_565
O6 Ti0 2.006031 1_555
O7 P3 1.511062 1_555
O7 Ti1 2.006031 1_555
O8 P3 1.601778 1_555
O8 P0 1.619141 1_555
O9 P2 1.601778 1_565
O9 P1 1.619141 1_565
O10 P4 1.592218 1_555
O10 P0 1.621403 1_555
O11 P5 1.592218 1_555
O11 P1 1.621403 1_555
O12 P2 1.592218 1_555
O12 P6 1.621403 1_555
O13 P3 1.592218 1_555
O13 P7 1.621403 1_555
O14 P5 1.601778 1_465
O14 P6 1.619141 1_565
O15 P4 1.601778 1_655
O15 P7 1.619141 1_555
O16 P4 1.511062 1_555
O16 Ti2 2.006031 1_555
O17 P5 1.511062 1_565
O17 Ti3 2.006031 1_555
O18 P6 1.476951 1_565
O19 P7 1.476951 1_555
O20 P4 1.503194 1_555
O20 Ti3 2.065257 1_455
O21 P5 1.503194 1_555
O21 Ti2 2.065257 1_655
O22 P6 1.523706 1_555
O22 Ti2 2.072419 1_555
O23 P7 1.523706 1_555
O23 Ti3 2.072419 1_555
O24 P8 1.523706 1_555
O24 Ti2 2.072419 1_555
O25 P9 1.523706 1_555
O25 Ti3 2.072419 1_555
O26 P10 1.503194 1_555
O26 Ti3 2.065257 1_455
O27 P11 1.503194 1_555
O27 Ti2 2.065257 1_655
O28 P8 1.476951 1_555
O29 P9 1.476951 1_545
O30 P10 1.511062 1_545
O30 Ti2 2.006031 1_555
O31 P11 1.511062 1_555
O31 Ti3 2.006031 1_555
O32 P11 1.601778 1_455
O32 P8 1.619141 1_555
O33 P10 1.601778 1_645
O33 P9 1.619141 1_545
O34 P12 1.592218 1_555
O34 P8 1.621403 1_555
O35 P13 1.592218 1_555
O35 P9 1.621403 1_555
O36 P10 1.592218 1_555
O36 P14 1.621403 1_555
O37 P11 1.592218 1_555
O37 P15 1.621403 1_555
O38 P13 1.601778 1_545
O38 P14 1.619141 1_545
O39 P12 1.601778 1_555
O39 P15 1.619141 1_555
O40 P12 1.511062 1_555
O40 Ti0 2.006031 1_556
O41 P13 1.511062 1_545
O41 Ti1 2.006031 1_556
O42 P14 1.476951 1_545
O43 P15 1.476951 1_555
O44 P12 1.503194 1_555
O44 Ti1 2.065257 1_556
O45 P13 1.503194 1_555
O45 Ti0 2.065257 1_556
O46 P14 1.523706 1_555
O46 Ti0 2.072419 1_556
O47 P15 1.523706 1_555
O47 Ti1 2.072419 1_556
