# generated using pymatgen
data_Na6Ca6SiGe2S11O48
_symmetry_space_group_name_H-M   'P 1'
_cell_length_a   18.08764373
_cell_length_b   9.01686333
_cell_length_c   23.81171950
_cell_angle_alpha   89.99892558
_cell_angle_beta   90.15712138
_cell_angle_gamma   119.70553450
_symmetry_Int_Tables_number   1
_chemical_formula_structural   Na6Ca6SiGe2S11O48
_chemical_formula_sum   'Na18 Ca18 Si3 Ge6 S33 O144'
_cell_volume   3373.16620747
_cell_formula_units_Z   3
loop_
 _symmetry_equiv_pos_site_id
 _symmetry_equiv_pos_as_xyz
  1  'x, y, z'
loop_
 _atom_site_type_symbol
 _atom_site_label
 _atom_site_symmetry_multiplicity
 _atom_site_fract_x
 _atom_site_fract_y
 _atom_site_fract_z
 _atom_site_occupancy
  Na  Na0  1  0.68707038  0.37123764  0.24706427  1
  Na  Na1  1  0.99173236  0.63722234  0.25288602  1
  Na  Na2  1  0.33480503  0.96390495  0.59182588  1
  Na  Na3  1  0.83566076  0.96485612  0.59181643  1
  Na  Na4  1  0.33407125  0.69569379  0.08211952  1
  Na  Na5  1  0.34603736  0.66477258  0.41430415  1
  Na  Na6  1  0.00888762  0.99611376  0.49566266  1
  Na  Na7  1  0.51138426  0.01404412  0.50073766  1
  Na  Na8  1  0.00108947  -0.00021662  0.99863474  1
  Na  Na9  1  0.50965106  0.01494416  0.99661633  1
  Na  Na10  1  0.33310708  0.33118562  0.83333528  1
  Na  Na11  1  0.83257097  0.33206537  0.83367563  1
  Na  Na12  1  0.33115383  0.32275881  0.32974092  1
  Na  Na13  1  0.83678000  0.33888495  0.33449505  1
  Na  Na14  1  0.16848698  0.67012544  0.16501293  1
  Na  Na15  1  0.66573304  0.67374117  0.16179226  1
  Na  Na16  1  0.16695134  0.66563953  0.67491820  1
  Na  Na17  1  0.66639416  0.66465816  0.67519224  1
  Ca  Ca0  1  0.00164423  -0.00011475  0.35112837  1
  Ca  Ca1  1  0.49870492  0.00091319  0.34773794  1
  Ca  Ca2  1  0.00267352  0.99626394  0.65183035  1
  Ca  Ca3  1  0.50217148  0.99595374  0.65196438  1
  Ca  Ca4  1  0.50497861  0.00937356  0.15327316  1
  Ca  Ca5  1  0.33429252  0.33210975  0.18167333  1
  Ca  Ca6  1  0.83180874  0.33161946  0.17951963  1
  Ca  Ca7  1  0.32845100  0.32432418  0.98361818  1
  Ca  Ca8  1  0.83456422  0.33323791  0.98512459  1
  Ca  Ca9  1  0.33494215  0.33173340  0.48274018  1
  Ca  Ca10  1  0.83266712  0.33941985  0.47928406  1
  Ca  Ca11  1  0.16001258  0.66769917  0.01006575  1
  Ca  Ca12  1  0.66668769  0.66692407  0.01065912  1
  Ca  Ca13  1  0.15981957  0.65752824  0.51913887  1
  Ca  Ca14  1  0.66068026  0.65574880  0.52108206  1
  Ca  Ca15  1  0.16800844  0.66780114  0.31567907  1
  Ca  Ca16  1  0.16907686  0.67216227  0.81545904  1
  Ca  Ca17  1  0.66811617  0.67044336  0.81570910  1
  Si  Si0  1  0.84945480  0.70696111  0.25271746  1
  Si  Si1  1  0.35382934  0.00724799  0.74492185  1
  Si  Si2  1  0.85532181  0.01381270  0.74541497  1
  Ge  Ge0  1  0.98579372  0.00852988  0.84872138  1
  Ge  Ge1  1  0.48775829  0.01008621  0.84805746  1
  Ge  Ge2  1  0.98076888  0.98110807  0.15615613  1
  Ge  Ge3  1  0.33524560  0.31969296  0.69264065  1
  Ge  Ge4  1  0.83703628  0.32564263  0.69088169  1
  Ge  Ge5  1  0.68307918  0.68579665  0.31616390  1
  S  S0  1  0.14036094  0.99799662  0.24478105  1
  S  S1  1  0.65128882  0.98645580  0.25530197  1
  S  S2  1  0.34833447  0.69610969  0.25001286  1
  S  S3  1  0.00095359  0.28924240  0.24500001  1
  S  S4  1  0.50763280  0.31916762  0.25533549  1
  S  S5  1  0.15067114  0.28947175  0.75058255  1
  S  S6  1  0.65187997  0.29090662  0.74990346  1
  S  S7  1  0.99280647  0.69610645  0.75065104  1
  S  S8  1  0.49361532  0.69734302  0.75118741  1
  S  S9  1  0.47687436  0.33216927  0.58780500  1
  S  S10  1  0.97472725  0.33182652  0.58763093  1
  S  S11  1  0.19195472  0.04610668  0.58675809  1
  S  S12  1  0.69331095  0.04949889  0.58604594  1
  S  S13  1  0.33338188  0.62649661  0.58464259  1
  S  S14  1  0.83298530  0.62189094  0.58725985  1
  S  S15  1  0.48291338  0.63398688  0.08327393  1
  S  S16  1  0.98634746  0.65744261  0.08988199  1
  S  S17  1  0.33210059  0.02479354  0.08338700  1
  S  S18  1  0.84174162  0.02751853  0.08770969  1
  S  S19  1  0.17361618  0.31861741  0.08714879  1
  S  S20  1  0.68151544  0.33497563  0.08416864  1
  S  S21  1  0.32657665  0.68250053  0.91396906  1
  S  S22  1  0.82663237  0.68283977  0.91185313  1
  S  S23  1  0.01457102  0.34780545  0.91201080  1
  S  S24  1  0.51482071  0.34847114  0.91189451  1
  S  S25  1  0.15701835  0.97118155  0.91119157  1
  S  S26  1  0.65811031  0.97091804  0.91188701  1
  S  S27  1  0.31708489  0.96382106  0.41858182  1
  S  S28  1  0.80901078  0.95399256  0.41533973  1
  S  S29  1  0.16872913  0.36994121  0.41776616  1
  S  S30  1  0.66702243  0.38202043  0.41121617  1
  S  S31  1  0.01588256  0.66643624  0.41514424  1
  S  S32  1  0.52236148  0.66654114  0.41220821  1
  O  O0  1  0.10544182  0.02064663  0.29700718  1
  O  O1  1  0.60957788  0.01292892  0.30360797  1
  O  O2  1  0.39577061  0.78169734  0.30204713  1
  O  O3  1  0.91117508  0.79137031  0.30372722  1
  O  O4  1  0.49734687  0.21420439  0.30451669  1
  O  O5  1  0.99447150  0.19596463  0.29603365  1
  O  O6  1  0.11141055  0.18121208  0.80180967  1
  O  O7  1  0.61274387  0.18288795  0.80134917  1
  O  O8  1  0.48105411  0.78062305  0.80203121  1
  O  O9  1  0.97996717  0.77742961  0.80160086  1
  O  O10  1  0.41891823  0.04496241  0.80343633  1
  O  O11  1  0.91864999  0.04736711  0.80380920  1
  O  O12  1  0.39053104  0.98679149  0.68678373  1
  O  O13  1  0.88953491  0.98354787  0.68633991  1
  O  O14  1  0.10306726  0.21227135  0.69943286  1
  O  O15  1  0.60386041  0.21341801  0.69893650  1
  O  O16  1  0.00418425  0.79201408  0.69951327  1
  O  O17  1  0.50465977  0.79257873  0.69979797  1
  O  O18  1  0.39321411  0.79642868  0.19950514  1
  O  O19  1  0.89167422  0.82561934  0.19398574  1
  O  O20  1  0.00951152  0.19738698  0.19318130  1
  O  O21  1  0.52205349  0.24243297  0.20422933  1
  O  O22  1  0.08275183  0.97645052  0.19439787  1
  O  O23  1  0.60218875  0.95712156  0.20319585  1
  O  O24  1  0.43320718  0.34731950  0.63949426  1
  O  O25  1  0.93108913  0.34857511  0.64044403  1
  O  O26  1  0.24540166  0.13248092  0.63856410  1
  O  O27  1  0.74646143  0.13559379  0.63833937  1
  O  O28  1  0.32625297  0.52242833  0.63445299  1
  O  O29  1  0.82474360  0.51995055  0.63930309  1
  O  O30  1  0.44243334  0.53575854  0.13444824  1
  O  O31  1  0.94755406  0.55917449  0.14132575  1
  O  O32  1  0.32526509  0.10869143  0.13422980  1
  O  O33  1  0.83277796  0.10823910  0.13815177  1
  O  O34  1  0.22831762  0.34455060  0.13640304  1
  O  O35  1  0.72545365  0.34386190  0.13799378  1
  O  O36  1  0.21211247  0.29461288  0.03549470  1
  O  O37  1  0.72972131  0.32315739  0.03610614  1
  O  O38  1  0.43000440  0.54643108  0.03338334  1
  O  O39  1  0.93499127  0.57743044  0.03916465  1
  O  O40  1  0.33817989  0.12338400  0.03286610  1
  O  O41  1  0.85577779  0.12893786  0.03632498  1
  O  O42  1  0.23151011  0.14189034  0.53555623  1
  O  O43  1  0.73265938  0.14454737  0.53471872  1
  O  O44  1  0.33913419  0.54779482  0.53163778  1
  O  O45  1  0.83813327  0.53760670  0.53624434  1
  O  O46  1  0.42816538  0.31582259  0.53668766  1
  O  O47  1  0.92508313  0.31368349  0.53687635  1
  O  O48  1  0.29215395  0.70762996  0.96746540  1
  O  O49  1  0.79159531  0.71234525  0.96353479  1
  O  O50  1  0.06409286  0.41791540  0.96390359  1
  O  O51  1  0.56455674  0.41882383  0.96358089  1
  O  O52  1  0.14589841  0.87277920  0.96349803  1
  O  O53  1  0.64707084  0.87140556  0.96395889  1
  O  O54  1  0.27623543  0.86829524  0.47074813  1
  O  O55  1  0.76839366  0.85938569  0.46656356  1
  O  O56  1  0.16364759  0.45655295  0.46875065  1
  O  O57  1  0.66011866  0.46620895  0.46156984  1
  O  O58  1  0.06636562  0.67255291  0.46462202  1
  O  O59  1  0.56947908  0.68148390  0.46401914  1
  O  O60  1  0.05627793  0.65729105  0.36195145  1
  O  O61  1  0.56726103  0.65190055  0.36112129  1
  O  O62  1  0.26652261  0.87526338  0.36853563  1
  O  O63  1  0.75462990  0.86068393  0.36253920  1
  O  O64  1  0.17576509  0.47045942  0.36720542  1
  O  O65  1  0.67502710  0.48597072  0.35701836  1
  O  O66  1  0.05640047  0.44801011  0.86234181  1
  O  O67  1  0.55683038  0.44761990  0.86198076  1
  O  O68  1  0.16778530  0.88491316  0.86268601  1
  O  O69  1  0.66814485  0.88554666  0.86280730  1
  O  O70  1  0.27317872  0.66656773  0.86584418  1
  O  O71  1  0.77571546  0.66476895  0.86222614  1
  O  O72  1  0.00791369  0.82205872  0.41651964  1
  O  O73  1  0.50935645  0.81787406  0.40920034  1
  O  O74  1  0.40135835  0.96889460  0.41512797  1
  O  O75  1  0.89274449  0.96912621  0.40928666  1
  O  O76  1  0.09431440  0.19666211  0.41504315  1
  O  O77  1  0.59046412  0.21256128  0.40697939  1
  O  O78  1  0.00942190  0.17050624  0.90619359  1
  O  O79  1  0.51038142  0.17074320  0.90599277  1
  O  O80  1  0.07553392  0.98161960  0.90530152  1
  O  O81  1  0.57651844  0.98199760  0.90598128  1
  O  O82  1  0.41435740  0.84683935  0.90599079  1
  O  O83  1  0.91506127  0.84835847  0.90460547  1
  O  O84  1  0.48342142  0.17451894  0.59056644  1
  O  O85  1  0.98120747  0.17460011  0.59182578  1
  O  O86  1  0.10615331  0.02384878  0.59082085  1
  O  O87  1  0.60714485  0.02628688  0.59016348  1
  O  O88  1  0.41035810  0.80075902  0.58710957  1
  O  O89  1  0.90935724  0.79580972  0.58911780  1
  O  O90  1  0.48636032  0.80330340  0.08727821  1
  O  O91  1  0.99175471  0.83333573  0.09626225  1
  O  O92  1  0.40831185  0.00111445  0.08726747  1
  O  O93  1  0.92574429  0.02006027  0.09448615  1
  O  O94  1  0.08729147  0.16457620  0.09452745  1
  O  O95  1  0.59603900  0.17958209  0.08531728  1
  O  O96  1  0.34633393  0.18902349  0.74533525  1
  O  O97  1  0.84769487  0.19471847  0.74400560  1
  O  O98  1  0.23904975  0.30489979  0.74676470  1
  O  O99  1  0.74056331  0.30594616  0.74579813  1
  O  O100  1  0.41151079  0.52323233  0.74691470  1
  O  O101  1  0.91006963  0.52055641  0.74558106  1
  O  O102  1  0.33980501  0.52430033  0.24782491  1
  O  O103  1  0.82973571  0.51337339  0.24138127  1
  O  O104  1  0.43279522  0.34077471  0.24921164  1
  O  O105  1  0.92529890  0.31141692  0.23962158  1
  O  O106  1  0.22674593  0.14295935  0.23806608  1
  O  O107  1  0.73656043  0.13955948  0.24942274  1
  O  O108  1  0.33990033  0.53456188  0.91828174  1
  O  O109  1  0.84162098  0.53708117  0.91808495  1
  O  O110  1  0.42732492  0.31801162  0.91716983  1
  O  O111  1  0.92732350  0.31887569  0.91799225  1
  O  O112  1  0.23198347  0.14477232  0.91649754  1
  O  O113  1  0.73308039  0.14512177  0.91782295  1
  O  O114  1  0.33002628  0.13845816  0.42003792  1
  O  O115  1  0.81301923  0.12098528  0.41302729  1
  O  O116  1  0.24980365  0.36256015  0.42008560  1
  O  O117  1  0.74398845  0.36490997  0.41233709  1
  O  O118  1  0.43464554  0.51452542  0.41411304  1
  O  O119  1  0.93040837  0.51082503  0.41738439  1
  O  O120  1  0.16856501  0.47984689  0.08076877  1
  O  O121  1  0.67361069  0.49054753  0.07946585  1
  O  O122  1  0.07262534  0.68021263  0.08303698  1
  O  O123  1  0.56986186  0.65792355  0.07802273  1
  O  O124  1  0.25654815  0.84718398  0.07905618  1
  O  O125  1  0.76945679  0.85294617  0.08117929  1
  O  O126  1  0.18862871  0.87696743  0.58464534  1
  O  O127  1  0.68967768  0.87980108  0.58385736  1
  O  O128  1  0.25760976  0.65266953  0.58293762  1
  O  O129  1  0.75727362  0.64846712  0.58468379  1
  O  O130  1  0.06012372  0.48467317  0.58579906  1
  O  O131  1  0.56210991  0.48528184  0.58529156  1
  O  O132  1  0.14286986  0.83400976  0.24676393  1
  O  O133  1  0.65922955  0.82563151  0.26386317  1
  O  O134  1  0.26309408  0.68252825  0.25174571  1
  O  O135  1  0.75099095  0.68209485  0.26187310  1
  O  O136  1  0.07674976  0.46366499  0.24538243  1
  O  O137  1  0.59054510  0.49110457  0.26129557  1
  O  O138  1  0.16077294  0.46136744  0.75647870  1
  O  O139  1  0.66173252  0.46247889  0.75608555  1
  O  O140  1  0.06571998  0.66712038  0.75712677  1
  O  O141  1  0.56668612  0.66920444  0.75746287  1
  O  O142  1  0.26068361  0.84940560  0.75386317  1
  O  O143  1  0.75961701  0.84785047  0.75256998  1
loop_
_geom_bond_atom_site_label_1
_geom_bond_atom_site_label_2
_geom_bond_distance
_geom_bond_site_symmetry_2
Na0 O103 2.245871 1_555
Na0 O135 2.470554 1_555
Na0 O137 2.490923 1_555
Na0 O107 2.649806 1_555
Na0 O35 2.732748 1_555
Na0 O21 2.801029 1_555
Na0 O65 2.863431 1_555
Na1 O132 2.416131 1_655
Na1 O103 2.580784 1_555
Na1 O105 2.583284 1_555
Na1 O136 2.689287 1_655
Na1 O3 2.745461 1_555
Na1 O31 2.760718 1_555
Na1 O60 2.813246 1_655
Na2 O126 2.361730 1_555
Na2 O84 2.402995 1_565
Na2 O12 2.439782 1_555
Na2 O128 2.446415 1_555
Na2 O88 2.457117 1_555
Na3 O85 2.360690 1_565
Na3 O127 2.363584 1_555
Na3 O13 2.422630 1_555
Na3 O89 2.473581 1_555
Na3 O129 2.483482 1_555
Na4 O124 2.394809 1_555
Na4 O92 2.395077 1_565
Na4 O90 2.427623 1_555
Na4 O120 2.641168 1_555
Na4 O48 2.847709 1_554
Na4 O38 2.914573 1_555
Na4 O18 2.966981 1_555
Na5 O116 2.403077 1_555
Na5 O74 2.408704 1_555
Na5 O118 2.560479 1_555
Na5 O73 2.570457 1_555
Na5 O2 2.852890 1_555
Na5 O64 2.906202 1_555
Na5 O44 2.967385 1_555
Na6 O72 2.446918 1_555
Na6 O76 2.567033 1_565
Na6 O86 2.798933 1_565
Na6 O75 2.858729 1_455
Na6 O89 2.873050 1_455
Na6 O85 2.981448 1_465
Na7 O87 2.708662 1_555
Na7 O74 2.730683 1_545
Na7 O84 2.766979 1_555
Na7 O77 2.777436 1_555
Na7 O88 2.793758 1_545
Na7 O73 2.795794 1_545
Na8 O78 2.647523 1_555
Na8 O80 2.648418 1_545
Na8 O83 2.678434 1_445
Na8 O93 2.713671 1_456
Na8 O91 2.726907 1_446
Na8 O94 2.745401 1_556
Na9 O81 2.565004 1_545
Na9 O79 2.571358 1_555
Na9 O95 2.605664 1_556
Na9 O82 2.704740 1_545
Na9 O90 2.772682 1_546
Na9 O92 2.798200 1_556
Na10 O96 2.529431 1_555
Na10 O98 2.604037 1_555
Na10 O100 2.612743 1_555
Na10 O112 2.657988 1_555
Na10 O110 2.661821 1_555
Na10 O108 2.691623 1_555
Na11 O97 2.550822 1_555
Na11 O99 2.606937 1_555
Na11 O101 2.628432 1_555
Na11 O113 2.666055 1_555
Na11 O111 2.676847 1_555
Na11 O109 2.679994 1_555
Na12 O104 2.608945 1_555
Na12 O102 2.617511 1_555
Na12 O118 2.702187 1_555
Na12 O114 2.711384 1_555
Na12 O116 2.731775 1_555
Na12 O106 2.811251 1_555
Na13 O119 2.558688 1_555
Na13 O115 2.590227 1_555
Na13 O117 2.591353 1_555
Na13 O107 2.714927 1_555
Na13 O103 2.757644 1_555
Na13 O105 2.853291 1_555
Na14 O124 2.602441 1_555
Na14 O136 2.614795 1_555
Na14 O132 2.621334 1_555
Na14 O122 2.638695 1_555
Na14 O120 2.640124 1_555
Na14 O134 2.645189 1_555
Na15 O123 2.596560 1_555
Na15 O121 2.612792 1_555
Na15 O125 2.613534 1_555
Na15 O135 2.815612 1_555
Na15 O133 2.821026 1_555
Na15 O137 2.823682 1_555
Na16 O142 2.520342 1_555
Na16 O138 2.640805 1_555
Na16 O140 2.688620 1_555
Na16 O126 2.769348 1_555
Na16 O128 2.776585 1_555
Na16 O130 2.784285 1_555
Na17 O143 2.487800 1_555
Na17 O139 2.624732 1_555
Na17 O141 2.680408 1_555
Na17 O129 2.761410 1_555
Na17 O131 2.776844 1_555
Na17 O127 2.804590 1_555
Ca0 O3 2.104140 1_445
Ca0 O0 2.210340 1_555
Ca0 O5 2.256131 1_455
Ca0 O72 2.277611 1_545
Ca0 O76 2.304901 1_555
Ca0 O75 2.312599 1_445
Ca1 O4 2.192070 1_555
Ca1 O2 2.213331 1_545
Ca1 O1 2.221240 1_555
Ca1 O73 2.283961 1_545
Ca1 O77 2.287934 1_555
Ca1 O74 2.295714 1_545
Ca2 O13 2.157049 1_455
Ca2 O16 2.175171 1_555
Ca2 O14 2.204390 1_565
Ca2 O86 2.286724 1_565
Ca2 O89 2.304014 1_455
Ca2 O85 2.322431 1_465
Ca3 O12 2.148421 1_555
Ca3 O17 2.177987 1_555
Ca3 O15 2.212090 1_565
Ca3 O88 2.308620 1_555
Ca3 O87 2.312171 1_565
Ca3 O84 2.320179 1_565
Ca4 O18 2.269472 1_545
Ca4 O95 2.279453 1_555
Ca4 O21 2.310534 1_555
Ca4 O92 2.321391 1_555
Ca4 O90 2.326474 1_545
Ca4 O23 2.352929 1_545
Ca5 O30 2.216899 1_555
Ca5 O32 2.243728 1_555
Ca5 O34 2.247359 1_555
Ca5 O106 2.285203 1_555
Ca5 O102 2.307005 1_555
Ca5 O104 2.369206 1_555
Ca6 O35 2.211473 1_555
Ca6 O103 2.217737 1_555
Ca6 O33 2.250053 1_555
Ca6 O31 2.274459 1_555
Ca6 O105 2.287547 1_555
Ca6 O107 2.407580 1_555
Ca7 O40 2.236900 1_556
Ca7 O38 2.265250 1_556
Ca7 O112 2.324907 1_555
Ca7 O36 2.341201 1_556
Ca7 O108 2.381074 1_555
Ca7 O110 2.412784 1_555
Ca8 O37 2.218092 1_556
Ca8 O111 2.370053 1_555
Ca8 O109 2.389852 1_555
Ca8 O113 2.390180 1_555
Ca8 O41 2.392695 1_556
Ca8 O39 2.413898 1_556
Ca9 O46 2.177575 1_555
Ca9 O42 2.202457 1_555
Ca9 O44 2.238324 1_555
Ca9 O116 2.255248 1_555
Ca9 O114 2.262747 1_555
Ca9 O118 2.389437 1_555
Ca10 O45 2.206148 1_555
Ca10 O43 2.228207 1_555
Ca10 O119 2.234474 1_555
Ca10 O47 2.258448 1_555
Ca10 O117 2.349078 1_555
Ca10 O115 2.407907 1_555
Ca11 O52 2.276059 1_554
Ca11 O50 2.325491 1_554
Ca11 O124 2.355944 1_555
Ca11 O122 2.392091 1_555
Ca11 O120 2.446538 1_555
Ca11 O48 2.455954 1_554
Ca12 O53 2.325542 1_554
Ca12 O121 2.329262 1_555
Ca12 O123 2.349746 1_555
Ca12 O51 2.359399 1_554
Ca12 O49 2.372355 1_554
Ca12 O125 2.445686 1_555
Ca13 O58 2.185352 1_555
Ca13 O56 2.203004 1_555
Ca13 O54 2.328199 1_555
Ca13 O130 2.330365 1_555
Ca13 O128 2.345305 1_555
Ca13 O126 2.365046 1_555
Ca14 O57 2.216285 1_555
Ca14 O59 2.233472 1_555
Ca14 O131 2.275487 1_555
Ca14 O55 2.306704 1_555
Ca14 O129 2.334441 1_555
Ca14 O127 2.352985 1_555
Ca15 O64 2.222098 1_555
Ca15 O62 2.223236 1_555
Ca15 O134 2.254151 1_555
Ca15 O60 2.264862 1_555
Ca15 O132 2.411809 1_555
Ca15 O136 2.426592 1_555
Ca16 O142 2.199915 1_555
Ca16 O68 2.233800 1_555
Ca16 O70 2.251497 1_555
Ca16 O138 2.307306 1_555
Ca16 O140 2.308215 1_555
Ca16 O66 2.326986 1_555
Ca17 O143 2.224427 1_555
Ca17 O69 2.240246 1_555
Ca17 O71 2.259234 1_555
Ca17 O141 2.292452 1_555
Ca17 O67 2.303558 1_555
Ca17 O139 2.308664 1_555
Ge0 O11 1.776411 1_555
Ge0 O78 1.888605 1_655
Ge0 O83 1.916092 1_545
Ge0 O80 2.210679 1_645
Ge0 O6 2.311342 1_655
Ge0 O9 2.322509 1_545
Ge1 O10 1.777366 1_555
Ge1 O79 1.891710 1_555
Ge1 O82 1.976230 1_545
Ge1 O81 2.221455 1_545
Ge1 O8 2.290733 1_545
Ge1 O7 2.301777 1_555
Ge2 O19 1.772776 1_555
Ge2 O93 1.899664 1_565
Ge2 O20 1.960459 1_665
Ge2 O91 2.028029 1_555
Ge2 O22 2.073930 1_655
Ge2 O94 2.336448 1_665
Ge3 O96 1.798780 1_555
Ge3 O24 2.092368 1_555
Ge3 O26 2.101976 1_555
Ge3 O100 2.102986 1_555
Ge3 O98 2.118604 1_555
Ge3 O28 2.362473 1_555
Ge4 O97 1.804198 1_555
Ge4 O25 2.010423 1_555
Ge4 O101 2.054271 1_555
Ge4 O27 2.095780 1_555
Ge4 O99 2.119382 1_555
Ge4 O29 2.238757 1_555
Ge5 O135 1.797376 1_555
Ge5 O63 1.830475 1_555
Ge5 O133 1.965427 1_555
Ge5 O65 1.988644 1_555
Ge5 O137 2.160135 1_555
Ge5 O61 2.237330 1_555
O0 S0 1.455789 1_545
O1 S1 1.460311 1_545
O2 S2 1.484887 1_555
O3 Si0 1.565693 1_555
O4 S4 1.458921 1_555
O5 S3 1.449437 1_655
O6 S5 1.504257 1_555
O7 S6 1.507246 1_555
O8 S8 1.500628 1_555
O9 S7 1.494605 1_555
O10 Si1 1.742782 1_555
O11 Si2 1.727662 1_555
O12 Si1 1.586695 1_565
O13 Si2 1.615033 1_565
O14 S5 1.452458 1_555
O15 S6 1.451975 1_555
O16 S7 1.448412 1_455
O17 S8 1.451198 1_555
O18 S2 1.483642 1_555
O19 Si0 1.696982 1_555
O20 S3 1.536423 1_555
O21 S4 1.486040 1_555
O22 S0 1.534717 1_555
O23 S1 1.469447 1_555
O24 S9 1.506543 1_555
O25 S10 1.533262 1_555
O26 S11 1.519925 1_555
O27 S12 1.526827 1_555
O28 S13 1.478109 1_555
O29 S14 1.505988 1_555
O30 S15 1.472267 1_555
O31 S16 1.471901 1_555
O32 S17 1.465200 1_555
O33 S18 1.454914 1_555
O34 S19 1.474281 1_555
O35 S20 1.487283 1_555
O36 S19 1.482768 1_555
O37 S20 1.476127 1_555
O38 S15 1.481697 1_555
O39 S16 1.473609 1_555
O40 S17 1.467433 1_555
O41 S18 1.472886 1_555
O42 S11 1.461711 1_555
O43 S12 1.461166 1_555
O44 S13 1.476935 1_555
O45 S14 1.460372 1_555
O46 S9 1.464554 1_555
O47 S10 1.463604 1_555
O48 S21 1.485212 1_555
O49 S22 1.469096 1_555
O50 S23 1.470230 1_555
O51 S24 1.467924 1_555
O52 S25 1.484409 1_555
O53 S26 1.485311 1_555
O54 S27 1.484949 1_555
O55 S28 1.462507 1_555
O56 S29 1.471057 1_555
O57 S30 1.457489 1_555
O58 S31 1.472772 1_555
O59 S32 1.465246 1_555
O60 S31 1.486526 1_555
O61 S32 1.506137 1_555
O62 S27 1.471200 1_555
O63 S28 1.558582 1_555
O64 S29 1.474324 1_555
O65 S30 1.559323 1_555
O66 S23 1.454287 1_555
O67 S24 1.456329 1_555
O68 S25 1.458918 1_555
O69 S26 1.459784 1_555
O70 S21 1.457078 1_555
O71 S22 1.454808 1_555
O72 S31 1.480330 1_555
O73 S32 1.496824 1_555
O74 S27 1.504642 1_555
O75 S28 1.459319 1_555
O76 S29 1.473887 1_555
O77 S30 1.471290 1_555
O78 S23 1.560775 1_555
O79 S24 1.570596 1_555
O80 S25 1.528772 1_555
O81 S26 1.533864 1_555
O82 S21 1.556498 1_555
O83 S22 1.565620 1_555
O84 S9 1.485204 1_555
O85 S10 1.482625 1_555
O86 S11 1.466391 1_555
O87 S12 1.469699 1_555
O88 S13 1.497429 1_555
O89 S14 1.490682 1_555
O90 S15 1.499813 1_555
O91 S16 1.547336 1_555
O92 S17 1.498445 1_555
O93 S18 1.561759 1_555
O94 S19 1.500062 1_555
O95 S20 1.485793 1_555
O96 Si1 1.710317 1_555
O97 Si2 1.704106 1_555
O98 S5 1.537339 1_555
O99 S6 1.544754 1_555
O100 S8 1.539151 1_555
O101 S7 1.552747 1_555
O102 S2 1.479718 1_555
O103 Si0 1.621570 1_555
O104 S4 1.466916 1_555
O105 S3 1.482952 1_655
O106 S0 1.467215 1_545
O107 S1 1.481623 1_545
O108 S21 1.471901 1_555
O109 S22 1.475051 1_555
O110 S24 1.471773 1_555
O111 S23 1.473765 1_655
O112 S25 1.483287 1_545
O113 S26 1.487970 1_545
O114 S27 1.473178 1_545
O115 S28 1.472207 1_545
O116 S29 1.501409 1_555
O117 S30 1.474861 1_555
O118 S32 1.497719 1_555
O119 S31 1.487388 1_655
O120 S19 1.508798 1_555
O121 S20 1.483048 1_555
O122 S16 1.479163 1_455
O123 S15 1.483323 1_555
O124 S17 1.507678 1_565
O125 S18 1.473290 1_565
O126 S11 1.497048 1_565
O127 S12 1.499564 1_565
O128 S13 1.501991 1_555
O129 S14 1.503778 1_555
O130 S10 1.475716 1_455
O131 S9 1.475634 1_555
O132 S0 1.502390 1_555
O133 S1 1.539909 1_555
O134 S2 1.485618 1_555
O135 Si0 1.695893 1_555
O136 S3 1.488671 1_555
O137 S4 1.538600 1_555
O138 S5 1.474673 1_555
O139 S6 1.474245 1_555
O140 S7 1.473742 1_455
O141 S8 1.471327 1_555
O142 Si1 1.592146 1_565
O143 Si2 1.642941 1_565
