# generated using pymatgen
data_NaCaGa3(SO4)6
_symmetry_space_group_name_H-M   'P 1'
_cell_length_a   8.61244182
_cell_length_b   8.61244156
_cell_length_c   22.48955956
_cell_angle_alpha   90.00000000
_cell_angle_beta   90.00000000
_cell_angle_gamma   120.00000101
_symmetry_Int_Tables_number   1
_chemical_formula_structural   NaCaGa3(SO4)6
_chemical_formula_sum   'Na3 Ca3 Ga9 S18 O72'
_cell_volume   1444.65507108
_cell_formula_units_Z   3
loop_
 _symmetry_equiv_pos_site_id
 _symmetry_equiv_pos_as_xyz
  1  'x, y, z'
loop_
 _atom_site_type_symbol
 _atom_site_label
 _atom_site_symmetry_multiplicity
 _atom_site_fract_x
 _atom_site_fract_y
 _atom_site_fract_z
 _atom_site_occupancy
  Na  Na0  1  -0.00000000  -0.00000000  0.00047184  1
  Na  Na1  1  0.66666700  0.33333300  0.83289713  1
  Na  Na2  1  0.66666700  0.33333300  0.33299277  1
  Ca  Ca0  1  -0.00000000  -0.00000000  0.35562032  1
  Ca  Ca1  1  -0.00000000  -0.00000000  0.85115722  1
  Ca  Ca2  1  0.66666700  0.33333300  0.98199375  1
  Ga  Ga0  1  -0.00000000  -0.00000000  0.64784018  1
  Ga  Ga1  1  -0.00000000  -0.00000000  0.15370580  1
  Ga  Ga2  1  0.66666700  0.33333300  0.68056644  1
  Ga  Ga3  1  0.66666700  0.33333300  0.18025991  1
  Ga  Ga4  1  0.66666700  0.33333300  0.48341407  1
  Ga  Ga5  1  0.33333300  0.66666700  0.02258112  1
  Ga  Ga6  1  0.33333300  0.66666700  0.52216886  1
  Ga  Ga7  1  0.33333300  0.66666700  0.31351729  1
  Ga  Ga8  1  0.33333300  0.66666700  0.81047493  1
  S  S0  1  0.30254542  0.00100805  0.24831061  1
  S  S1  1  0.69846262  0.69745458  0.24831061  1
  S  S2  1  0.99899195  0.30153738  0.24831061  1
  S  S3  1  0.30201614  0.30071110  0.74665268  1
  S  S4  1  0.99869496  0.69798386  0.74665268  1
  S  S5  1  0.69928890  0.00130504  0.74665268  1
  S  S6  1  0.95787579  0.33181483  0.58312985  1
  S  S7  1  0.37394004  0.04212421  0.58312985  1
  S  S8  1  0.66818517  0.62605996  0.58312985  1
  S  S9  1  0.96875088  0.63729616  0.08582366  1
  S  S10  1  0.66854629  0.03124912  0.08582366  1
  S  S11  1  0.36270384  0.33145371  0.08582366  1
  S  S12  1  0.61081148  0.66672019  0.91662298  1
  S  S13  1  0.05590770  0.38918852  0.91662298  1
  S  S14  1  0.33327981  0.94409230  0.91662298  1
  S  S15  1  0.60958427  0.95575023  0.41965574  1
  S  S16  1  0.34616496  0.39041573  0.41965574  1
  S  S17  1  0.04424977  0.65383504  0.41965574  1
  O  O0  1  0.23356613  0.04143185  0.30159097  1
  O  O1  1  0.80786571  0.76643387  0.30159097  1
  O  O2  1  0.95856815  0.19213429  0.30159097  1
  O  O3  1  0.23552707  0.19368066  0.80059311  1
  O  O4  1  0.95815359  0.76447293  0.80059311  1
  O  O5  1  0.80631934  0.04184641  0.80059311  1
  O  O6  1  0.78583405  0.96879032  0.69413827  1
  O  O7  1  0.18295627  0.21416595  0.69413827  1
  O  O8  1  0.03120968  0.81704373  0.69413827  1
  O  O9  1  0.78292634  0.81477557  0.19538466  1
  O  O10  1  0.03184923  0.21707366  0.19538466  1
  O  O11  1  0.18522443  0.96815077  0.19538466  1
  O  O12  1  0.87859130  0.36919308  0.63615514  1
  O  O13  1  0.49060278  0.12140870  0.63615514  1
  O  O14  1  0.63080692  0.50939722  0.63615514  1
  O  O15  1  0.88239768  0.51815146  0.13821315  1
  O  O16  1  0.63575479  0.11760232  0.13821315  1
  O  O17  1  0.48184854  0.36424521  0.13821315  1
  O  O18  1  0.43006562  0.29116738  0.03207539  1
  O  O19  1  0.86110277  0.56993438  0.03207539  1
  O  O20  1  0.70883262  0.13889723  0.03207539  1
  O  O21  1  0.45346512  0.15811965  0.52971501  1
  O  O22  1  0.70465553  0.54653488  0.52971501  1
  O  O23  1  0.84188035  0.29534447  0.52971501  1
  O  O24  1  0.52515115  0.68252272  0.97209271  1
  O  O25  1  0.15737056  0.47484885  0.97209271  1
  O  O26  1  0.31747728  0.84262944  0.97209271  1
  O  O27  1  0.52472429  0.84595482  0.47315128  1
  O  O28  1  0.32122954  0.47527571  0.47315128  1
  O  O29  1  0.15404518  0.67877046  0.47315128  1
  O  O30  1  0.12186780  0.62288499  0.36412567  1
  O  O31  1  0.50101619  0.87813220  0.36412567  1
  O  O32  1  0.37711501  0.49898381  0.36412567  1
  O  O33  1  0.14157558  0.49077756  0.86114158  1
  O  O34  1  0.34920098  0.85842442  0.86114158  1
  O  O35  1  0.50922244  0.65079902  0.86114158  1
  O  O36  1  0.02438471  0.81020079  0.41494683  1
  O  O37  1  0.78581608  0.97561529  0.41494683  1
  O  O38  1  0.18979921  0.21418392  0.41494683  1
  O  O39  1  0.04051573  0.21177147  0.91623804  1
  O  O40  1  0.17125574  0.95948427  0.91623804  1
  O  O41  1  0.78822853  0.82874426  0.91623804  1
  O  O42  1  0.97507847  0.17071949  0.59245447  1
  O  O43  1  0.19564102  0.02492153  0.59245447  1
  O  O44  1  0.82928051  0.80435898  0.59245447  1
  O  O45  1  0.98996900  0.81888488  0.09597231  1
  O  O46  1  0.82891588  0.01003100  0.09597231  1
  O  O47  1  0.18111512  0.17108412  0.09597231  1
  O  O48  1  0.67770242  0.16188694  0.73691424  1
  O  O49  1  0.48418551  0.32229758  0.73691424  1
  O  O50  1  0.83811306  0.51581449  0.73691424  1
  O  O51  1  0.67644305  0.51527717  0.23807519  1
  O  O52  1  0.83883512  0.32355695  0.23807519  1
  O  O53  1  0.48472283  0.16116488  0.23807519  1
  O  O54  1  0.62620649  0.50466442  0.91702516  1
  O  O55  1  0.87845893  0.37379351  0.91702516  1
  O  O56  1  0.49533558  0.12154107  0.91702516  1
  O  O57  1  0.62357949  0.13699145  0.42522091  1
  O  O58  1  0.51341296  0.37642051  0.42522091  1
  O  O59  1  0.86300855  0.48658704  0.42522091  1
  O  O60  1  0.34739178  0.49427570  0.07890217  1
  O  O61  1  0.14688292  0.65260822  0.07890217  1
  O  O62  1  0.50572430  0.85311708  0.07890217  1
  O  O63  1  0.35582723  0.86327496  0.57481358  1
  O  O64  1  0.50744673  0.64417277  0.57481358  1
  O  O65  1  0.13672504  0.49255327  0.57481358  1
  O  O66  1  0.31746613  0.83755064  0.25598622  1
  O  O67  1  0.52008351  0.68253387  0.25598622  1
  O  O68  1  0.16244936  0.47991649  0.25598622  1
  O  O69  1  0.31818099  0.47927779  0.75387987  1
  O  O70  1  0.16109579  0.68181900  0.75387987  1
  O  O71  1  0.52072221  0.83890421  0.75387987  1
loop_
_geom_bond_atom_site_label_1
_geom_bond_atom_site_label_2
_geom_bond_distance
_geom_bond_site_symmetry_2
Na0 O39 2.529925 1_554
Na0 O41 2.529925 1_444
Na0 O40 2.529925 1_544
Na0 O45 2.630343 1_445
Na0 O47 2.630343 1_555
Na0 O46 2.630343 1_455
Na1 O56 2.528365 1_555
Na1 O54 2.528365 1_555
Na1 O55 2.528365 1_555
Na1 O48 2.643716 1_555
Na1 O50 2.643716 1_555
Na1 O49 2.643716 1_555
Na2 O57 2.582983 1_555
Na2 O59 2.582983 1_555
Na2 O58 2.582983 1_555
Na2 O51 2.624375 1_555
Na2 O53 2.624375 1_555
Na2 O52 2.624375 1_555
Ca0 O38 2.199907 1_555
Ca0 O36 2.199907 1_545
Ca0 O37 2.199907 1_445
Ca0 O1 2.220907 1_445
Ca0 O0 2.220907 1_555
Ca0 O2 2.220908 1_455
Ca1 O4 2.192404 1_445
Ca1 O3 2.192404 1_555
Ca1 O5 2.192404 1_455
Ca1 O39 2.225776 1_555
Ca1 O41 2.225776 1_445
Ca1 O40 2.225776 1_545
Ca2 O19 2.193798 1_556
Ca2 O18 2.193798 1_556
Ca2 O20 2.193798 1_556
Ca2 O56 2.224368 1_555
Ca2 O54 2.224368 1_555
Ca2 O55 2.224368 1_555
Ga0 O7 2.015629 1_555
Ga0 O8 2.015629 1_545
Ga0 O6 2.015629 1_445
Ga0 O44 2.018659 1_445
Ga0 O42 2.018659 1_455
Ga0 O43 2.018659 1_555
Ga1 O10 1.983984 1_555
Ga1 O9 1.983984 1_445
Ga1 O11 1.983984 1_545
Ga1 O45 1.997914 1_445
Ga1 O47 1.997915 1_555
Ga1 O46 1.997915 1_455
Ga2 O13 1.964834 1_555
Ga2 O14 1.964834 1_555
Ga2 O12 1.964834 1_555
Ga2 O48 1.983813 1_555
Ga2 O50 1.983813 1_555
Ga2 O49 1.983813 1_555
Ga3 O17 1.980520 1_555
Ga3 O15 1.980520 1_555
Ga3 O16 1.980520 1_555
Ga3 O51 2.005297 1_555
Ga3 O53 2.005297 1_555
Ga3 O52 2.005297 1_555
Ga4 O22 1.990517 1_555
Ga4 O21 1.990517 1_555
Ga4 O23 1.990517 1_555
Ga4 O57 2.020498 1_555
Ga4 O59 2.020498 1_555
Ga4 O58 2.020498 1_555
Ga5 O25 1.952308 1_554
Ga5 O24 1.952308 1_554
Ga5 O26 1.952308 1_554
Ga5 O62 2.000790 1_555
Ga5 O60 2.000790 1_555
Ga5 O61 2.000790 1_555
Ga6 O29 1.941993 1_555
Ga6 O27 1.941993 1_555
Ga6 O28 1.941993 1_555
Ga6 O63 1.994599 1_555
Ga6 O65 1.994599 1_555
Ga6 O64 1.994599 1_555
Ga7 O68 2.014897 1_555
Ga7 O66 2.014897 1_555
Ga7 O67 2.014897 1_555
Ga7 O31 2.016865 1_555
Ga7 O32 2.016865 1_555
Ga7 O30 2.016865 1_555
Ga8 O34 1.954181 1_555
Ga8 O33 1.954181 1_555
Ga8 O35 1.954181 1_555
Ga8 O69 2.007746 1_555
Ga8 O71 2.007746 1_555
Ga8 O70 2.007746 1_555
O0 S0 1.454913 1_555
O1 S1 1.454913 1_555
O2 S2 1.454913 1_555
O3 S3 1.456491 1_555
O4 S4 1.456491 1_555
O5 S5 1.456491 1_555
O6 S5 1.495839 1_565
O7 S3 1.495839 1_555
O8 S4 1.495839 1_455
O9 S1 1.493943 1_555
O10 S2 1.493943 1_455
O11 S0 1.493943 1_565
O12 S6 1.487213 1_555
O13 S7 1.487213 1_555
O14 S8 1.487213 1_555
O15 S9 1.493685 1_555
O16 S10 1.493685 1_555
O17 S11 1.493685 1_555
O18 S11 1.455811 1_555
O19 S9 1.455811 1_555
O20 S10 1.455811 1_555
O21 S7 1.491960 1_555
O22 S8 1.491960 1_555
O23 S6 1.491960 1_555
O24 S12 1.489774 1_555
O25 S13 1.489774 1_555
O26 S14 1.489774 1_555
O27 S15 1.478055 1_555
O28 S16 1.478055 1_555
O29 S17 1.478055 1_555
O30 S17 1.501907 1_555
O31 S15 1.501907 1_555
O32 S16 1.501907 1_555
O33 S13 1.490375 1_555
O34 S14 1.490376 1_555
O35 S12 1.490375 1_555
O36 S17 1.443767 1_555
O37 S15 1.443776 1_555
O38 S16 1.443772 1_555
O39 S13 1.466240 1_555
O40 S14 1.466231 1_555
O41 S12 1.466236 1_555
O42 S6 1.482036 1_555
O43 S7 1.482044 1_555
O44 S8 1.482041 1_555
O45 S9 1.498515 1_555
O46 S10 1.498507 1_555
O47 S11 1.498512 1_555
O48 S5 1.500781 1_555
O49 S3 1.500789 1_555
O50 S4 1.500786 1_555
O51 S1 1.501047 1_555
O52 S2 1.501038 1_555
O53 S0 1.501043 1_555
O54 S12 1.466520 1_555
O55 S13 1.466503 1_655
O56 S14 1.466511 1_545
O57 S15 1.509487 1_545
O58 S16 1.509504 1_555
O59 S17 1.509494 1_655
O60 S11 1.480871 1_555
O61 S9 1.480854 1_455
O62 S10 1.480861 1_565
O63 S7 1.480420 1_565
O64 S8 1.480437 1_555
O65 S6 1.480427 1_455
O66 S0 1.486278 1_565
O67 S1 1.486287 1_555
O68 S2 1.486283 1_455
O69 S3 1.482167 1_555
O70 S4 1.482158 1_455
O71 S5 1.482163 1_565
