# generated using pymatgen
data_CoBW
_symmetry_space_group_name_H-M   'P 1'
_cell_length_a   3.23359150
_cell_length_b   5.69842057
_cell_length_c   6.57824193
_cell_angle_alpha   89.99881638
_cell_angle_beta   90.00000000
_cell_angle_gamma   90.00000000
_symmetry_Int_Tables_number   1
_chemical_formula_structural   CoBW
_chemical_formula_sum   'Co4 B4 W4'
_cell_volume   121.21308236
_cell_formula_units_Z   4
loop_
 _symmetry_equiv_pos_site_id
 _symmetry_equiv_pos_as_xyz
  1  'x, y, z'
loop_
 _atom_site_type_symbol
 _atom_site_label
 _atom_site_symmetry_multiplicity
 _atom_site_fract_x
 _atom_site_fract_y
 _atom_site_fract_z
 _atom_site_occupancy
  Co  Co0  1  0.75000000  0.85749382  0.44169438  1
  Co  Co1  1  0.25000000  0.14250122  0.55830753  1
  Co  Co2  1  0.75000000  0.35748331  0.05831624  1
  Co  Co3  1  0.25000000  0.64252538  0.94167817  1
  B  B0  1  0.75000000  0.22951114  0.37493143  1
  B  B1  1  0.25000000  0.77048305  0.62507041  1
  B  B2  1  0.75000000  0.72951450  0.12506266  1
  B  B3  1  0.25000000  0.27048859  0.87493712  1
  W  W0  1  0.75000000  0.97277903  0.82508638  1
  W  W1  1  0.25000000  0.02721756  0.17491539  1
  W  W2  1  0.75000000  0.47277592  0.67491268  1
  W  W3  1  0.25000000  0.52722649  0.32508660  1
loop_
_geom_bond_atom_site_label_1
_geom_bond_atom_site_label_2
_geom_bond_distance
_geom_bond_site_symmetry_2
Co0 Co1 2.416653 1_565
Co0 Co1 2.416653 1_665
Co0 W1 2.574714 1_665
Co0 W1 2.574714 1_565
Co0 W3 2.597003 1_555
Co0 W3 2.597003 1_655
Co0 W0 2.606215 1_555
Co0 W2 2.675750 1_555
Co1 W0 2.574710 1_545
Co1 W0 2.574710 1_445
Co1 W2 2.597028 1_455
Co1 W2 2.597028 1_555
Co1 W1 2.606214 1_555
Co1 W3 2.675794 1_555
Co2 Co3 2.416817 1_654
Co2 Co3 2.416817 1_554
Co2 W3 2.574745 1_555
Co2 W3 2.574745 1_655
Co2 W1 2.596956 1_555
Co2 W1 2.596956 1_655
Co2 W2 2.606273 1_554
Co2 W0 2.675782 1_544
Co3 W2 2.574736 1_455
Co3 W2 2.574736 1_555
Co3 W0 2.596892 1_555
Co3 W0 2.596892 1_455
Co3 W3 2.606313 1_556
Co3 W1 2.675753 1_566
B0 Co1 2.077253 1_555
B0 Co1 2.077253 1_655
B0 Co0 2.164917 1_545
B0 Co2 2.206731 1_555
B0 W3 2.366359 1_655
B0 W3 2.366359 1_555
B0 W1 2.382046 1_555
B0 W1 2.382046 1_655
B0 W2 2.411605 1_555
B1 Co0 2.077254 1_455
B1 Co0 2.077254 1_555
B1 Co1 2.164922 1_565
B1 Co3 2.206658 1_555
B1 W2 2.366323 1_455
B1 W2 2.366323 1_555
B1 W0 2.382052 1_455
B1 W0 2.382052 1_555
B1 W3 2.411592 1_555
B2 Co3 2.077269 1_654
B2 Co3 2.077269 1_554
B2 Co2 2.164990 1_555
B2 Co0 2.206876 1_555
B2 W1 2.366326 1_665
B2 W1 2.366326 1_565
B2 W3 2.382033 1_555
B2 W3 2.382033 1_655
B2 W0 2.411531 1_554
B3 Co2 2.077256 1_556
B3 Co2 2.077256 1_456
B3 Co3 2.165014 1_555
B3 Co1 2.206878 1_555
B3 W0 2.366351 1_445
B3 W0 2.366351 1_545
B3 W2 2.382033 1_455
B3 W2 2.382033 1_555
B3 W1 2.411563 1_556
