# generated using pymatgen
data_Eu2MgTi2O6
_symmetry_space_group_name_H-M   'P 1'
_cell_length_a   6.08433862
_cell_length_b   5.68641355
_cell_length_c   5.69302888
_cell_angle_alpha   89.65506481
_cell_angle_beta   119.50380645
_cell_angle_gamma   119.39586226
_symmetry_Int_Tables_number   1
_chemical_formula_structural   Eu2MgTi2O6
_chemical_formula_sum   'Eu2 Mg1 Ti2 O6'
_cell_volume   141.95511612
_cell_formula_units_Z   1
loop_
 _symmetry_equiv_pos_site_id
 _symmetry_equiv_pos_as_xyz
  1  'x, y, z'
loop_
 _atom_site_type_symbol
 _atom_site_label
 _atom_site_symmetry_multiplicity
 _atom_site_fract_x
 _atom_site_fract_y
 _atom_site_fract_z
 _atom_site_occupancy
  Eu  Eu0  1  0.36242000  0.21312100  0.71327700  1
  Eu  Eu1  1  0.63758000  0.78687900  0.28672300  1
  Mg  Mg0  1  0.00000000  0.50000000  0.00000000  1
  Ti  Ti0  1  0.00000000  0.50000000  0.50000000  1
  Ti  Ti1  1  0.00000000  0.00000000  0.00000000  1
  O  O0  1  0.00005400  0.74810200  0.75198500  1
  O  O1  1  0.99994600  0.25189800  0.24801500  1
  O  O2  1  0.04390100  0.77092400  0.27091200  1
  O  O3  1  0.95609900  0.22907600  0.72908800  1
  O  O4  1  0.50001300  0.71348600  0.78669400  1
  O  O5  1  0.49998700  0.28651400  0.21330600  1
loop_
_geom_bond_atom_site_label_1
_geom_bond_atom_site_label_2
_geom_bond_distance
_geom_bond_site_symmetry_2
Eu0 O4 2.510481 1_555
Eu0 O5 2.510551 1_556
Eu0 O3 2.562722 1_455
Eu0 O1 2.577782 1_455
Eu0 O0 2.578778 1_545
Eu0 O2 2.627946 1_545
Eu1 O5 2.510481 1_555
Eu1 O4 2.510551 1_554
Eu1 O2 2.562722 1_655
Eu1 O0 2.577782 1_655
Eu1 O1 2.578778 1_565
Eu1 O3 2.627946 1_565
Mg0 O1 1.989981 1_455
Mg0 O0 1.989981 1_554
Mg0 O3 2.010558 1_454
Mg0 O2 2.010558 1_555
O0 Ti1 2.017585 1_566
O0 Ti0 2.017868 1_555
O1 Ti1 2.017585 1_655
O1 Ti0 2.017868 1_655
O2 Ti1 2.014571 1_565
O2 Ti0 2.015110 1_555
O3 Ti1 2.014571 1_656
O3 Ti0 2.015110 1_655
O4 Ti0 2.213704 1_555
O4 Ti1 2.214290 1_666
O5 Ti0 2.213704 1_655
O5 Ti1 2.214290 1_555
