# generated using pymatgen
data_LiGeTe2
_symmetry_space_group_name_H-M   'P 1'
_cell_length_a   7.34283600
_cell_length_b   9.25002748
_cell_length_c   11.47994533
_cell_angle_alpha   75.69308922
_cell_angle_beta   77.10427083
_cell_angle_gamma   70.62424740
_symmetry_Int_Tables_number   1
_chemical_formula_structural   LiGeTe2
_chemical_formula_sum   'Li6 Ge6 Te12'
_cell_volume   704.20562890
_cell_formula_units_Z   6
loop_
 _symmetry_equiv_pos_site_id
 _symmetry_equiv_pos_as_xyz
  1  'x, y, z'
loop_
 _atom_site_type_symbol
 _atom_site_label
 _atom_site_symmetry_multiplicity
 _atom_site_fract_x
 _atom_site_fract_y
 _atom_site_fract_z
 _atom_site_occupancy
  Li  Li0  1  0.99117000  0.65323000  0.81023500  1
  Li  Li1  1  0.00883000  0.34677000  0.18976500  1
  Li  Li2  1  0.52683200  0.67979100  0.32129200  1
  Li  Li3  1  0.47316800  0.32020900  0.67870800  1
  Li  Li4  1  0.50000000  0.00000000  0.00000000  1
  Li  Li5  1  0.00000000  0.00000000  0.50000000  1
  Ge  Ge0  1  0.06643800  0.61072800  0.44984300  1
  Ge  Ge1  1  0.93356200  0.38927200  0.55015700  1
  Ge  Ge2  1  0.96201600  0.96017100  0.20657200  1
  Ge  Ge3  1  0.03798400  0.03982900  0.79342800  1
  Ge  Ge4  1  0.04741500  0.74157200  0.09711200  1
  Ge  Ge5  1  0.95258500  0.25842800  0.90288800  1
  Te  Te0  1  0.75486700  0.66684000  0.07238200  1
  Te  Te1  1  0.24513300  0.33316000  0.92761800  1
  Te  Te2  1  0.69943000  0.20076900  0.10059300  1
  Te  Te3  1  0.30057000  0.79923100  0.89940700  1
  Te  Te4  1  0.27434200  0.52027900  0.24283500  1
  Te  Te5  1  0.72565800  0.47972100  0.75716500  1
  Te  Te6  1  0.26678400  0.66726500  0.58015000  1
  Te  Te7  1  0.73321600  0.33273500  0.41985000  1
  Te  Te8  1  0.75063700  0.85030100  0.40717200  1
  Te  Te9  1  0.24936300  0.14969900  0.59282800  1
  Te  Te10  1  0.25667500  0.01241700  0.25275900  1
  Te  Te11  1  0.74332500  0.98758300  0.74724100  1
loop_
_geom_bond_atom_site_label_1
_geom_bond_atom_site_label_2
_geom_bond_distance
_geom_bond_site_symmetry_2
Li0 Te6 2.950968 1_655
Li0 Te11 3.024502 1_555
Li0 Te1 3.089561 1_655
Li0 Te0 3.129660 1_556
Li0 Te5 3.136511 1_555
Li1 Te7 2.950968 1_455
Li1 Te10 3.024502 1_555
Li1 Te0 3.089561 1_455
Li1 Te1 3.129660 1_554
Li1 Te4 3.136511 1_555
Li2 Te0 2.980545 1_555
Li2 Te8 3.061337 1_555
Li2 Te10 3.077539 1_565
Li2 Te7 3.102376 1_555
Li2 Te4 3.105294 1_555
Li2 Te6 3.151868 1_555
Li3 Te1 2.980545 1_555
Li3 Te9 3.061337 1_555
Li3 Te11 3.077539 1_545
Li3 Te6 3.102376 1_555
Li3 Te5 3.105294 1_555
Li3 Te7 3.151868 1_555
Li4 Te0 3.048221 1_545
Li4 Te1 3.048221 1_554
Li4 Te10 3.056072 1_555
Li4 Te11 3.056072 1_544
Li4 Te2 3.247475 1_555
Li4 Te3 3.247475 1_544
Li5 Te11 3.035813 1_445
Li5 Te10 3.035813 1_555
Li5 Te6 3.092142 1_545
Li5 Te7 3.092142 1_455
Li5 Te8 3.112613 1_445
Li5 Te9 3.112613 1_555
Ge0 Ge1 2.476515 1_455
Ge0 Te6 2.560238 1_555
Ge0 Te8 2.662494 1_455
Ge0 Te4 2.682134 1_555
Ge1 Te7 2.560238 1_555
Ge1 Te9 2.662494 1_655
Ge1 Te5 2.682134 1_555
Ge2 Ge4 2.474605 1_655
Ge2 Te10 2.555095 1_665
Ge2 Te2 2.648109 1_565
Ge2 Te8 2.653246 1_555
Ge3 Ge5 2.474605 1_455
Ge3 Te11 2.555095 1_445
Ge3 Te3 2.648109 1_545
Ge3 Te9 2.653246 1_555
Ge4 Te0 2.554883 1_455
Ge4 Te4 2.655896 1_555
Ge4 Te3 2.658487 1_554
Ge5 Te1 2.554883 1_655
Ge5 Te5 2.655896 1_555
Ge5 Te2 2.658487 1_556
