# generated using pymatgen
data_Na4Hf3ZnSi3(SO8)3
_symmetry_space_group_name_H-M   'P 1'
_cell_length_a   9.03273476
_cell_length_b   9.01917061
_cell_length_c   23.01244827
_cell_angle_alpha   90.03659383
_cell_angle_beta   89.96115637
_cell_angle_gamma   120.08218655
_symmetry_Int_Tables_number   1
_chemical_formula_structural   Na4Hf3ZnSi3(SO8)3
_chemical_formula_sum   'Na12 Hf9 Zn3 Si9 S9 O72'
_cell_volume   1622.25427476
_cell_formula_units_Z   3
loop_
 _symmetry_equiv_pos_site_id
 _symmetry_equiv_pos_as_xyz
  1  'x, y, z'
loop_
 _atom_site_type_symbol
 _atom_site_label
 _atom_site_symmetry_multiplicity
 _atom_site_fract_x
 _atom_site_fract_y
 _atom_site_fract_z
 _atom_site_occupancy
  Na  Na0  1  0.63231748  0.01040256  0.23864663  1
  Na  Na1  1  0.37886806  0.35316036  0.25152086  1
  Na  Na2  1  0.98857577  0.64331730  0.24545937  1
  Na  Na3  1  0.99016669  0.35142823  0.75624473  1
  Na  Na4  1  0.38372589  0.01809815  0.75733665  1
  Na  Na5  1  0.70178384  0.67807821  0.40167216  1
  Na  Na6  1  0.00717192  0.02246180  0.48532399  1
  Na  Na7  1  0.00321565  0.01603957  0.00026771  1
  Na  Na8  1  0.65729207  0.32442283  0.83508495  1
  Na  Na9  1  0.64262026  0.31528586  0.32286685  1
  Na  Na10  1  0.35470516  0.69216316  0.16221622  1
  Na  Na11  1  0.35793364  0.66413656  0.67276016  1
  Hf  Hf0  1  0.00997319  0.02242927  0.85614320  1
  Hf  Hf1  1  0.99347976  0.00680749  0.64853250  1
  Hf  Hf2  1  0.99068643  0.99029690  0.14864834  1
  Hf  Hf3  1  0.66640559  0.31274956  0.97938393  1
  Hf  Hf4  1  0.65610968  0.32218039  0.47707262  1
  Hf  Hf5  1  0.33212194  0.67741402  0.01867044  1
  Hf  Hf6  1  0.34271629  0.66213042  0.51645891  1
  Hf  Hf7  1  0.35058765  0.67804409  0.31436321  1
  Hf  Hf8  1  0.34060836  0.66836788  0.81647062  1
  Zn  Zn0  1  0.00791060  0.00572741  0.35119805  1
  Zn  Zn1  1  0.65441121  0.32453695  0.68988741  1
  Zn  Zn2  1  0.63802100  0.30973398  0.18221292  1
  Si  Si0  1  0.28716936  0.99837055  0.25250067  1
  Si  Si1  1  0.70915509  0.70080728  0.25345742  1
  Si  Si2  1  0.29686194  0.29780653  0.74870342  1
  Si  Si3  1  0.70447900  0.99782310  0.74960287  1
  Si  Si4  1  0.66984892  0.03653874  0.08738362  1
  Si  Si5  1  0.04251777  0.38312064  0.91686887  1
  Si  Si6  1  0.32712073  0.95882757  0.91449837  1
  Si  Si7  1  0.63575795  0.96244272  0.41642510  1
  Si  Si8  1  0.32479404  0.36493953  0.41542382  1
  S  S0  1  0.00203191  0.29304744  0.25103709  1
  S  S1  1  0.99876255  0.71185028  0.74903831  1
  S  S2  1  0.95852687  0.33675511  0.58514805  1
  S  S3  1  0.36966096  0.03554322  0.58423432  1
  S  S4  1  0.66934188  0.62437888  0.58403764  1
  S  S5  1  0.95690363  0.62393402  0.08411374  1
  S  S6  1  0.37318584  0.33602442  0.08340088  1
  S  S7  1  0.62593721  0.66613114  0.91823121  1
  S  S8  1  0.04241158  0.66124312  0.42012582  1
  O  O0  1  0.20763271  0.04366401  0.30718607  1
  O  O1  1  0.81590434  0.77614353  0.31293694  1
  O  O2  1  0.96748590  0.18704327  0.30280067  1
  O  O3  1  0.20245339  0.17196381  0.80452591  1
  O  O4  1  0.97696181  0.79216739  0.80153724  1
  O  O5  1  0.82712250  0.01870165  0.80424774  1
  O  O6  1  0.79455656  0.96773512  0.69108965  1
  O  O7  1  0.16824891  0.19800542  0.69221580  1
  O  O8  1  0.02479171  0.82228497  0.69635920  1
  O  O9  1  0.80084350  0.83582584  0.19843000  1
  O  O10  1  0.03329782  0.21346404  0.19841042  1
  O  O11  1  0.16972559  0.97149703  0.19384254  1
  O  O12  1  0.88364781  0.35646129  0.63904135  1
  O  O13  1  0.46894441  0.10843063  0.63766832  1
  O  O14  1  0.64645542  0.52140181  0.63568835  1
  O  O15  1  0.88452069  0.53126400  0.13862544  1
  O  O16  1  0.64409433  0.11435463  0.14725317  1
  O  O17  1  0.46872152  0.36492090  0.13840441  1
  O  O18  1  0.46657871  0.31963340  0.03288828  1
  O  O19  1  0.84904071  0.53728661  0.03290723  1
  O  O20  1  0.68723752  0.15646079  0.03029550  1
  O  O21  1  0.46092297  0.14736780  0.53296334  1
  O  O22  1  0.68626904  0.54250550  0.53019115  1
  O  O23  1  0.85073804  0.31772386  0.53377226  1
  O  O24  1  0.54422176  0.69303857  0.96951321  1
  O  O25  1  0.16665062  0.47693528  0.97165149  1
  O  O26  1  0.31621328  0.84299059  0.97023685  1
  O  O27  1  0.52274810  0.83970090  0.47172687  1
  O  O28  1  0.31250685  0.47037077  0.47274139  1
  O  O29  1  0.14965228  0.67391196  0.47107831  1
  O  O30  1  0.11416974  0.63335692  0.36595254  1
  O  O31  1  0.51738399  0.87989802  0.35789079  1
  O  O32  1  0.36212847  0.49016594  0.35881750  1
  O  O33  1  0.13107759  0.48690267  0.85580491  1
  O  O34  1  0.35979387  0.87517973  0.85524381  1
  O  O35  1  0.51848760  0.63993219  0.86476094  1
  O  O36  1  0.02139732  0.81036573  0.41910119  1
  O  O37  1  0.81193058  0.96229654  0.41492508  1
  O  O38  1  0.16520051  0.17846491  0.41392706  1
  O  O39  1  0.01540325  0.18890824  0.91241513  1
  O  O40  1  0.15034497  0.96422195  0.90994606  1
  O  O41  1  0.79567723  0.81895355  0.91020221  1
  O  O42  1  0.97578347  0.17817136  0.58689425  1
  O  O43  1  0.19730666  0.01973907  0.58697574  1
  O  O44  1  0.82502985  0.79874364  0.58727597  1
  O  O45  1  0.97964707  0.80112551  0.08638917  1
  O  O46  1  0.84542848  0.02257816  0.08820719  1
  O  O47  1  0.20186205  0.17751954  0.08669560  1
  O  O48  1  0.69805715  0.17534942  0.74479831  1
  O  O49  1  0.48124215  0.31158241  0.74411236  1
  O  O50  1  0.85454051  0.53830360  0.74170183  1
  O  O51  1  0.68757678  0.51254628  0.24119868  1
  O  O52  1  0.85813860  0.32466188  0.24249742  1
  O  O53  1  0.48382823  0.15645841  0.24681064  1
  O  O54  1  0.64013211  0.51191621  0.92487029  1
  O  O55  1  0.85544721  0.37031582  0.92303754  1
  O  O56  1  0.49372828  0.15207137  0.92229870  1
  O  O57  1  0.65273227  0.15114074  0.42639359  1
  O  O58  1  0.51349429  0.37277281  0.42638616  1
  O  O59  1  0.86811474  0.50450431  0.42858267  1
  O  O60  1  0.34970324  0.48681348  0.07525273  1
  O  O61  1  0.13197872  0.64399618  0.07690989  1
  O  O62  1  0.50178837  0.84304830  0.07781078  1
  O  O63  1  0.34713940  0.86164332  0.57547835  1
  O  O64  1  0.51482304  0.64745457  0.57871493  1
  O  O65  1  0.13358456  0.48861800  0.57793060  1
  O  O66  1  0.29121876  0.81431702  0.25675425  1
  O  O67  1  0.51471604  0.68296328  0.25486669  1
  O  O68  1  0.16299203  0.46499950  0.25650255  1
  O  O69  1  0.29662872  0.47927882  0.75358758  1
  O  O70  1  0.16150356  0.70351577  0.75250026  1
  O  O71  1  0.50870744  0.83491922  0.75334231  1
loop_
_geom_bond_atom_site_label_1
_geom_bond_atom_site_label_2
_geom_bond_distance
_geom_bond_site_symmetry_2
Na0 O16 2.283849 1_555
Na0 O53 2.310877 1_555
Na0 O52 2.531056 1_555
Na0 O67 2.616347 1_545
Na0 O66 2.707575 1_545
Na0 O9 2.837597 1_545
Na0 O31 2.961176 1_545
Na0 O2 3.008526 1_555
Na1 O53 2.396613 1_555
Na1 O51 2.424791 1_555
Na1 O67 2.588505 1_555
Na1 O68 2.608498 1_555
Na1 O17 2.712421 1_555
Na1 O0 2.738402 1_555
Na1 O32 2.798107 1_555
Na2 O51 2.361851 1_555
Na2 O66 2.386028 1_655
Na2 O52 2.501602 1_555
Na2 O15 2.645140 1_555
Na2 O68 2.770259 1_655
Na2 O11 2.827720 1_655
Na2 O1 2.854215 1_555
Na2 O30 3.015041 1_655
Na3 O48 2.313676 1_555
Na3 O69 2.407527 1_655
Na3 O50 2.554371 1_555
Na3 O33 2.608364 1_655
Na3 O70 2.749551 1_655
Na3 O5 2.822453 1_555
Na3 O12 2.872249 1_555
Na3 O7 2.983103 1_655
Na4 O49 2.353365 1_555
Na4 O71 2.425252 1_545
Na4 O48 2.473613 1_555
Na4 O70 2.526306 1_545
Na4 O34 2.551149 1_545
Na4 O3 2.838961 1_555
Na4 O13 2.865545 1_555
Na5 O37 2.257577 1_555
Na5 O1 2.258353 1_555
Na5 O58 2.470670 1_555
Na5 O36 2.543023 1_655
Na5 O59 2.729820 1_555
Na5 O32 2.836729 1_555
Na6 O38 2.168670 1_555
Na6 O37 2.252237 1_445
Na6 O36 2.498130 1_545
Na6 O42 2.812483 1_455
Na6 O43 2.910345 1_555
Na6 O44 2.992576 1_445
Na7 O46 2.492064 1_455
Na7 O39 2.522291 1_554
Na7 O47 2.584163 1_555
Na7 O40 2.631068 1_544
Na7 O45 2.705727 1_445
Na7 O41 2.762203 1_444
Na8 O56 2.514929 1_555
Na8 O55 2.594753 1_555
Na8 O49 2.597022 1_555
Na8 O48 2.598447 1_555
Na8 O54 2.722240 1_555
Na8 O50 2.840475 1_555
Na9 O53 2.261217 1_555
Na9 O51 2.478154 1_555
Na9 O52 2.654769 1_555
Na9 O58 2.811610 1_555
Na9 O57 2.831305 1_555
Na10 O62 2.361618 1_555
Na10 O67 2.601234 1_555
Na10 O66 2.627601 1_555
Na10 O61 2.686648 1_555
Na10 O60 2.710854 1_555
Na10 O68 2.889316 1_555
Na11 O71 2.358586 1_555
Na11 O69 2.371322 1_555
Na11 O64 2.631332 1_555
Na11 O70 2.695934 1_555
Na11 O65 2.856662 1_555
Na11 O63 2.893779 1_555
Hf0 O39 1.964076 1_555
Hf0 O3 1.975167 1_555
Hf0 O40 2.021514 1_545
Hf0 O5 2.025394 1_455
Hf0 O41 2.258509 1_445
Hf0 O4 2.314596 1_445
Hf1 O6 1.917067 1_545
Hf1 O7 1.935786 1_655
Hf1 O8 2.129709 1_645
Hf1 O42 2.162654 1_555
Hf1 O44 2.227313 1_545
Hf1 O43 2.278462 1_655
Hf2 O9 1.948929 1_555
Hf2 O11 2.000797 1_655
Hf2 O46 2.031469 1_565
Hf2 O10 2.175274 1_665
Hf2 O45 2.190937 1_555
Hf2 O47 2.300622 1_665
Hf3 O20 1.913981 1_556
Hf3 O55 1.993935 1_555
Hf3 O56 1.998262 1_555
Hf3 O18 2.210671 1_556
Hf3 O19 2.233871 1_556
Hf3 O54 2.299451 1_555
Hf4 O57 1.921292 1_555
Hf4 O58 1.954536 1_555
Hf4 O59 2.111642 1_555
Hf4 O21 2.112201 1_555
Hf4 O23 2.206532 1_555
Hf4 O22 2.229769 1_555
Hf5 O26 1.926274 1_554
Hf5 O25 1.991130 1_554
Hf5 O62 2.034138 1_555
Hf5 O61 2.146240 1_555
Hf5 O24 2.167163 1_554
Hf5 O60 2.225456 1_555
Hf6 O28 1.898116 1_555
Hf6 O27 1.912594 1_555
Hf6 O29 2.081212 1_555
Hf6 O64 2.167107 1_555
Hf6 O63 2.238107 1_555
Hf6 O65 2.248166 1_555
Hf7 O31 1.959007 1_555
Hf7 O67 2.001461 1_555
Hf7 O32 2.026867 1_555
Hf7 O66 2.054146 1_555
Hf7 O68 2.252137 1_555
Hf7 O30 2.294903 1_555
Hf8 O33 1.993579 1_555
Hf8 O34 1.994854 1_555
Hf8 O35 2.073209 1_555
Hf8 O71 2.094207 1_555
Hf8 O69 2.116323 1_555
Hf8 O70 2.324406 1_555
O0 Si0 1.599701 1_545
O0 Zn0 1.943348 1_555
O1 Si1 1.615168 1_555
O1 Zn0 2.114333 1_665
O2 S0 1.460236 1_655
O2 Zn0 2.156272 1_655
O3 Si2 1.641872 1_555
O4 S1 1.471279 1_555
O5 Si3 1.623728 1_545
O6 Si3 1.663793 1_555
O7 Si2 1.673881 1_555
O8 S1 1.511078 1_455
O9 Si1 1.661895 1_555
O10 S0 1.504424 1_555
O11 Si0 1.658321 1_555
O12 S2 1.465021 1_555
O12 Zn1 2.266938 1_555
O13 S3 1.468977 1_555
O13 Zn1 2.185392 1_555
O14 S4 1.458333 1_555
O14 Zn1 2.200971 1_555
O15 S5 1.467002 1_555
O15 Zn2 2.344260 1_555
O16 Si4 1.614583 1_555
O16 Zn2 1.962267 1_555
O17 S6 1.479988 1_555
O17 Zn2 2.090083 1_555
O18 S6 1.485999 1_555
O19 S5 1.478399 1_555
O20 Si4 1.658813 1_555
O21 S3 1.501857 1_555
O22 S4 1.488584 1_555
O23 S2 1.486261 1_555
O24 S7 1.474594 1_555
O25 Si5 1.616151 1_555
O26 Si6 1.626294 1_555
O27 Si7 1.659607 1_555
O28 Si8 1.661427 1_555
O29 S8 1.488844 1_555
O30 S8 1.483063 1_555
O31 Si7 1.647620 1_555
O32 Si8 1.644904 1_555
O33 Si5 1.655372 1_555
O34 Si6 1.654389 1_555
O35 S7 1.511044 1_555
O36 S8 1.449650 1_555
O36 Zn0 2.404208 1_565
O37 Si7 1.592333 1_555
O37 Zn0 2.177133 1_665
O38 Si8 1.573971 1_555
O38 Zn0 2.076182 1_555
O39 Si5 1.645736 1_555
O40 Si6 1.625154 1_555
O41 S7 1.471768 1_555
O42 S2 1.515003 1_555
O43 S3 1.491789 1_555
O44 S4 1.496425 1_555
O45 S5 1.506558 1_555
O46 Si4 1.652794 1_555
O47 S6 1.492131 1_555
O48 Si3 1.634803 1_545
O48 Zn1 2.024187 1_555
O49 Si2 1.610182 1_555
O49 Zn1 1.957497 1_555
O50 S1 1.459931 1_555
O50 Zn1 2.216491 1_555
O51 Si1 1.633501 1_555
O51 Zn2 2.136753 1_555
O52 S0 1.476894 1_655
O52 Zn2 2.372983 1_555
O53 Si0 1.632925 1_545
O53 Zn2 2.032335 1_555
O54 S7 1.467460 1_555
O55 Si5 1.640986 1_655
O56 Si6 1.644760 1_545
O57 Si7 1.646376 1_545
O58 Si8 1.689296 1_555
O59 S8 1.511205 1_655
O60 S6 1.489730 1_555
O61 S5 1.507945 1_455
O62 Si4 1.656096 1_565
O63 S3 1.490556 1_565
O64 S4 1.515864 1_555
O65 S2 1.494224 1_455
O66 Si0 1.681557 1_555
O67 Si1 1.681716 1_555
O68 S0 1.508123 1_555
O69 Si2 1.641567 1_555
O70 S1 1.511234 1_455
O71 Si3 1.639674 1_555
