# generated using pymatgen
data_MgTi6(H2O7)2
_symmetry_space_group_name_H-M   'P 1'
_cell_length_a   7.55902027
_cell_length_b   8.31451754
_cell_length_c   9.50793420
_cell_angle_alpha   83.74920755
_cell_angle_beta   96.80805170
_cell_angle_gamma   152.04444053
_symmetry_Int_Tables_number   1
_chemical_formula_structural   MgTi6(H2O7)2
_chemical_formula_sum   'Mg1 Ti6 H4 O14'
_cell_volume   278.14634378
_cell_formula_units_Z   1
loop_
 _symmetry_equiv_pos_site_id
 _symmetry_equiv_pos_as_xyz
  1  'x, y, z'
loop_
 _atom_site_type_symbol
 _atom_site_label
 _atom_site_symmetry_multiplicity
 _atom_site_fract_x
 _atom_site_fract_y
 _atom_site_fract_z
 _atom_site_occupancy
  Mg  Mg0  1  0.54252900  0.28961000  0.06929900  1
  Ti  Ti0  1  0.79775700  0.25810400  0.79048000  1
  Ti  Ti1  1  0.25544300  0.76491700  0.22526100  1
  Ti  Ti2  1  0.89728800  0.23714700  0.48694000  1
  Ti  Ti3  1  0.10760100  0.76744200  0.53746500  1
  Ti  Ti4  1  0.98902500  0.24101300  0.16907700  1
  Ti  Ti5  1  0.04108200  0.79422400  0.82418600  1
  H  H0  1  0.95509600  0.93024400  0.12803200  1
  H  H1  1  0.08286500  0.94154000  0.31620000  1
  H  H2  1  0.96645100  0.02199500  0.93403500  1
  H  H3  1  0.88125700  0.98226900  0.76843600  1
  O  O0  1  0.89641800  0.24488100  0.96118400  1
  O  O1  1  0.09579800  0.77979300  0.05313100  1
  O  O2  1  0.95849000  0.21613000  0.67012000  1
  O  O3  1  0.03763500  0.78904000  0.33764200  1
  O  O4  1  0.04829300  0.21999300  0.36641800  1
  O  O5  1  0.94506400  0.79684100  0.63153300  1
  O  O6  1  0.18622600  0.17929700  0.11621000  1
  O  O7  1  0.85456400  0.87868000  0.85382300  1
  O  O8  1  0.57032300  0.28975400  0.85460400  1
  O  O9  1  0.47354100  0.73908200  0.15969500  1
  O  O10  1  0.67218100  0.26909700  0.54839800  1
  O  O11  1  0.33301200  0.74676800  0.44021000  1
  O  O12  1  0.75040800  0.26544900  0.22634300  1
  O  O13  1  0.24769500  0.76242000  0.74365700  1
loop_
_geom_bond_atom_site_label_1
_geom_bond_atom_site_label_2
_geom_bond_distance
_geom_bond_site_symmetry_2
Mg0 O1 2.007208 1_655
Mg0 O6 2.031185 1_555
Mg0 O1 2.031288 1_545
Mg0 O8 2.076481 1_554
Mg0 O12 2.162207 1_555
H0 O6 0.978557 1_665
H1 O3 0.980088 1_555
H2 O7 0.990660 1_545
H3 O7 1.010544 1_555
H3 O2 1.650348 1_565
O0 Ti0 1.738263 1_555
O0 Ti4 2.023861 1_556
O1 Ti1 1.975194 1_555
O1 Ti5 2.177437 1_554
O2 Ti2 1.778613 1_555
O2 Ti0 2.018236 1_555
O3 Ti3 1.943412 1_555
O3 Ti1 2.222558 1_555
O4 Ti2 1.808227 1_455
O4 Ti4 1.902471 1_455
O5 Ti3 1.791058 1_655
O5 Ti5 1.893812 1_655
O6 Ti4 2.079211 1_455
O7 Ti5 2.108700 1_655
O8 Ti5 1.982364 1_545
O8 Ti5 1.987773 1_655
O8 Ti0 2.116417 1_555
O9 Ti4 1.942626 1_455
O9 Ti4 1.969336 1_565
O9 Ti1 2.012737 1_555
O10 Ti3 1.976617 1_655
O10 Ti3 2.040496 1_545
O10 Ti2 2.091775 1_555
O10 Ti0 2.407629 1_555
O11 Ti2 2.058310 1_565
O11 Ti2 2.069251 1_455
O11 Ti1 2.085285 1_555
O11 Ti3 2.171041 1_555
O12 Ti1 1.952114 1_545
O12 Ti1 1.952541 1_655
O12 Ti4 2.120247 1_555
O13 Ti0 2.026394 1_455
O13 Ti5 2.037784 1_555
O13 Ti0 2.039473 1_565
O13 Ti3 2.129472 1_555
