# generated using pymatgen
data_PuI2
_symmetry_space_group_name_H-M   'P 1'
_cell_length_a   7.88048856
_cell_length_b   8.00178059
_cell_length_c   4.19161952
_cell_angle_alpha   90.02551341
_cell_angle_beta   90.04513878
_cell_angle_gamma   89.99332759
_symmetry_Int_Tables_number   1
_chemical_formula_structural   PuI2
_chemical_formula_sum   'Pu2 I4'
_cell_volume   264.31478354
_cell_formula_units_Z   2
loop_
 _symmetry_equiv_pos_site_id
 _symmetry_equiv_pos_as_xyz
  1  'x, y, z'
loop_
 _atom_site_type_symbol
 _atom_site_label
 _atom_site_symmetry_multiplicity
 _atom_site_fract_x
 _atom_site_fract_y
 _atom_site_fract_z
 _atom_site_occupancy
  Pu  Pu0  1  0.00020532  -0.00001265  0.99988667  1
  Pu  Pu1  1  0.50013197  0.49987249  0.50022244  1
  I  I0  1  0.28451665  0.28999654  -0.00038406  1
  I  I1  1  0.71502525  0.71041621  0.00048170  1
  I  I2  1  0.78485962  0.21022398  0.49980020  1
  I  I3  1  0.21526019  0.78950243  0.49999806  1
loop_
_geom_bond_atom_site_label_1
_geom_bond_atom_site_label_2
_geom_bond_distance
_geom_bond_site_symmetry_2
I0 Pu1 3.177832 1_554
I0 Pu1 3.178433 1_555
I0 Pu0 3.225872 1_554
I1 Pu1 3.177265 1_554
I1 Pu1 3.178581 1_555
I1 Pu0 3.228116 1_664
I2 Pu0 3.178166 1_655
I2 Pu0 3.178463 1_654
I2 Pu1 3.225702 1_555
I3 Pu0 3.178066 1_564
I3 Pu0 3.178222 1_565
I3 Pu1 3.226384 1_555
