# generated using pymatgen
data_Na42Mg16Ta8Si21(S5O48)3
_symmetry_space_group_name_H-M   'P 1'
_cell_length_a   18.20648526
_cell_length_b   9.07021915
_cell_length_c   22.30824517
_cell_angle_alpha   89.89931561
_cell_angle_beta   90.20438717
_cell_angle_gamma   120.01655163
_symmetry_Int_Tables_number   1
_chemical_formula_structural   Na42Mg16Ta8Si21(S5O48)3
_chemical_formula_sum   'Na42 Mg16 Ta8 Si21 S15 O144'
_cell_volume   3189.80925023
_cell_formula_units_Z   1
loop_
 _symmetry_equiv_pos_site_id
 _symmetry_equiv_pos_as_xyz
  1  'x, y, z'
loop_
 _atom_site_type_symbol
 _atom_site_label
 _atom_site_symmetry_multiplicity
 _atom_site_fract_x
 _atom_site_fract_y
 _atom_site_fract_z
 _atom_site_occupancy
  Na  Na0  1  0.32173734  0.03033640  0.24691854  1
  Na  Na1  1  0.82549877  0.01360308  0.24895512  1
  Na  Na2  1  0.98965183  0.63381329  0.25128958  1
  Na  Na3  1  0.32434679  0.63285437  0.74518696  1
  Na  Na4  1  0.82354747  0.61674683  0.74353475  1
  Na  Na5  1  0.48909704  0.34762444  0.74909392  1
  Na  Na6  1  0.15914742  0.35238522  0.58162783  1
  Na  Na7  1  0.66016285  0.34894960  0.58856424  1
  Na  Na8  1  0.01592197  0.67326937  0.58520144  1
  Na  Na9  1  0.50848572  0.68401555  0.57138067  1
  Na  Na10  1  0.31959809  0.95079529  0.57982427  1
  Na  Na11  1  0.83280212  0.97232729  0.57230997  1
  Na  Na12  1  0.15972015  0.97082505  0.08716141  1
  Na  Na13  1  0.65630413  0.95171878  0.08447269  1
  Na  Na14  1  0.33022768  0.68807387  0.06999963  1
  Na  Na15  1  0.82736196  0.70590478  0.07551068  1
  Na  Na16  1  0.01092949  0.33341703  0.07061465  1
  Na  Na17  1  0.50431682  0.34779043  0.08438722  1
  Na  Na18  1  0.47250883  0.66731823  0.91598911  1
  Na  Na19  1  0.97416674  0.65736176  0.90634275  1
  Na  Na20  1  0.35126598  0.02043801  0.91756109  1
  Na  Na21  1  0.85860931  0.04130572  0.92327967  1
  Na  Na22  1  0.16712717  0.31577299  0.91711207  1
  Na  Na23  1  0.67050896  0.29986879  0.90760661  1
  Na  Na24  1  0.47148234  0.29114357  0.41041539  1
  Na  Na25  1  0.97376029  0.27875911  0.41962659  1
  Na  Na26  1  0.17344547  0.04701703  0.41932941  1
  Na  Na27  1  0.66662356  0.01572619  0.42055169  1
  Na  Na28  1  0.35660235  0.67336017  0.42786764  1
  Na  Na29  1  0.85175522  0.68288725  0.42148176  1
  Na  Na30  1  0.99334162  0.00438803  0.49656208  1
  Na  Na31  1  0.49015368  0.97564055  0.49320214  1
  Na  Na32  1  0.99298373  0.00682150  0.99096455  1
  Na  Na33  1  0.48752927  0.97494247  0.99385449  1
  Na  Na34  1  0.33278724  0.33285083  0.82645973  1
  Na  Na35  1  0.84024768  0.34621394  0.82704039  1
  Na  Na36  1  0.33880164  0.33106889  0.33108795  1
  Na  Na37  1  0.83354183  0.33275427  0.32998700  1
  Na  Na38  1  0.17108281  0.67102085  0.16256818  1
  Na  Na39  1  0.66127308  0.66280552  0.16427078  1
  Na  Na40  1  0.16255018  0.67412770  0.65820125  1
  Na  Na41  1  0.67161745  0.67117246  0.66016612  1
  Mg  Mg0  1  0.99407961  0.99501114  0.34604662  1
  Mg  Mg1  1  0.49546226  0.99662134  0.35467222  1
  Mg  Mg2  1  0.99473254  0.99432883  0.85335373  1
  Mg  Mg3  1  0.49382207  0.99085914  0.84539422  1
  Mg  Mg4  1  0.32995056  0.32706791  0.68376349  1
  Mg  Mg5  1  0.84064203  0.35486497  0.68525453  1
  Mg  Mg6  1  0.34038857  0.32697810  0.18570940  1
  Mg  Mg7  1  0.83397439  0.32983810  0.18647056  1
  Mg  Mg8  1  0.33948618  0.35079194  0.98613797  1
  Mg  Mg9  1  0.84175871  0.33398504  0.97701983  1
  Mg  Mg10  1  0.33307996  0.33793117  0.48168935  1
  Mg  Mg11  1  0.83897833  0.32864781  0.48838772  1
  Mg  Mg12  1  0.17261282  0.66710981  0.01150078  1
  Mg  Mg13  1  0.67064728  0.68040040  0.02038891  1
  Mg  Mg14  1  0.17143199  0.67121815  0.52433996  1
  Mg  Mg15  1  0.67196808  0.67845833  0.51297164  1
  Ta  Ta0  1  0.00248002  0.98909441  0.64254675  1
  Ta  Ta1  1  0.49483764  0.98772665  0.65535912  1
  Ta  Ta2  1  0.99601317  0.00408285  0.15513507  1
  Ta  Ta3  1  0.49730216  0.00499665  0.14667589  1
  Ta  Ta4  1  0.16756183  0.67722110  0.31156258  1
  Ta  Ta5  1  0.66439424  0.66588853  0.31369346  1
  Ta  Ta6  1  0.16427974  0.66053998  0.81172878  1
  Ta  Ta7  1  0.66958182  0.66024766  0.80986558  1
  Si  Si0  1  0.14842061  0.01518219  0.25390060  1
  Si  Si1  1  0.84774372  0.69277656  0.25411157  1
  Si  Si2  1  0.00053229  0.30008465  0.25471792  1
  Si  Si3  1  0.50190016  0.29683262  0.25508464  1
  Si  Si4  1  0.64824592  0.27970566  0.75372911  1
  Si  Si5  1  0.00057697  0.70753617  0.75555504  1
  Si  Si6  1  0.49955819  0.70003581  0.75488162  1
  Si  Si7  1  0.34868677  0.00460222  0.75564654  1
  Si  Si8  1  0.97963072  0.33274739  0.58345538  1
  Si  Si9  1  0.19148208  0.04591393  0.57993011  1
  Si  Si10  1  0.33587186  0.62724777  0.58527676  1
  Si  Si11  1  0.82684857  0.62094378  0.58153346  1
  Si  Si12  1  0.48142943  0.62725382  0.08335643  1
  Si  Si13  1  0.32693265  0.03304653  0.08157850  1
  Si  Si14  1  0.83380211  0.04178599  0.08512348  1
  Si  Si15  1  0.31726605  0.66631178  0.91727020  1
  Si  Si16  1  0.81365385  0.66506217  0.92212563  1
  Si  Si17  1  0.02027282  0.37072717  0.91947936  1
  Si  Si18  1  0.31513263  0.96183895  0.42081495  1
  Si  Si19  1  0.81786936  0.96902544  0.41732051  1
  Si  Si20  1  0.51854243  0.66773590  0.41986722  1
  S  S0  1  0.64389856  -0.00033090  0.25207595  1
  S  S1  1  0.35425866  0.70732940  0.25097362  1
  S  S2  1  0.14324137  0.28776727  0.75251204  1
  S  S3  1  0.85406249  0.00241500  0.75128321  1
  S  S4  1  0.48219103  0.33092487  0.58368533  1
  S  S5  1  0.68535873  0.04214686  0.58504435  1
  S  S6  1  0.98010391  0.63138502  0.08356940  1
  S  S7  1  0.18555252  0.32860139  0.08515557  1
  S  S8  1  0.68684646  0.32858092  0.08348295  1
  S  S9  1  0.52380679  0.37883881  0.91767158  1
  S  S10  1  0.16746269  0.95805028  0.91735477  1
  S  S11  1  0.66529846  0.95478125  0.91730578  1
  S  S12  1  0.16496094  0.37871185  0.41630611  1
  S  S13  1  0.66710718  0.37611318  0.41704462  1
  S  S14  1  0.02258751  0.66798829  0.41683275  1
  O  O0  1  0.09985058  0.01349507  0.31296792  1
  O  O1  1  0.60289477  0.01478828  0.30504659  1
  O  O2  1  0.40399581  0.78577488  0.30432879  1
  O  O3  1  0.90773827  0.77237712  0.31155487  1
  O  O4  1  0.49072692  0.17523424  0.31003516  1
  O  O5  1  0.98251904  0.18080396  0.31111482  1
  O  O6  1  0.10218488  0.19092999  0.80627840  1
  O  O7  1  0.60078817  0.18658398  0.81382004  1
  O  O8  1  0.48391696  0.78309279  0.81234587  1
  O  O9  1  0.98925388  0.80128252  0.81247094  1
  O  O10  1  0.40738491  0.03782956  0.81342037  1
  O  O11  1  0.90223485  0.02178704  0.80598742  1
  O  O12  1  0.40027422  0.96664439  0.69670273  1
  O  O13  1  0.89152894  0.96548232  0.69818463  1
  O  O14  1  0.09181061  0.20792982  0.69749339  1
  O  O15  1  0.58386726  0.20008477  0.69326825  1
  O  O16  1  0.01154918  0.83041208  0.69488223  1
  O  O17  1  0.51605045  0.82929669  0.69472334  1
  O  O18  1  0.39639860  0.82310296  0.19647029  1
  O  O19  1  0.90046849  0.83486867  0.19529714  1
  O  O20  1  0.01565522  0.20321782  0.19396904  1
  O  O21  1  0.51385936  0.19443844  0.19324145  1
  O  O22  1  0.08340822  0.96779683  0.19261046  1
  O  O23  1  0.59212201  0.97737182  0.19631243  1
  O  O24  1  0.44472089  0.35636709  0.63807344  1
  O  O25  1  0.93254411  0.36551019  0.63761505  1
  O  O26  1  0.25182034  0.13166090  0.63636515  1
  O  O27  1  0.73901436  0.12466058  0.63656777  1
  O  O28  1  0.32641640  0.52298765  0.64596405  1
  O  O29  1  0.80949913  0.50751991  0.64088842  1
  O  O30  1  0.43342512  0.50547680  0.13854249  1
  O  O31  1  0.94029813  0.52986199  0.13769946  1
  O  O32  1  0.31272430  0.11387501  0.14111529  1
  O  O33  1  0.81967649  0.12670214  0.14435073  1
  O  O34  1  0.23888451  0.35268548  0.13676912  1
  O  O35  1  0.74000531  0.35487852  0.13581485  1
  O  O36  1  0.22085776  0.30102464  0.02877489  1
  O  O37  1  0.72062987  0.29539430  0.02840304  1
  O  O38  1  0.42540491  0.57496752  0.02160152  1
  O  O39  1  0.92737081  0.55623166  0.02964749  1
  O  O40  1  0.35404111  0.15418495  0.02230465  1
  O  O41  1  0.85486485  0.15906809  0.02525418  1
  O  O42  1  0.22066423  0.16126418  0.51930202  1
  O  O43  1  0.72071090  0.14031585  0.52836510  1
  O  O44  1  0.36170101  0.56013417  0.52557863  1
  O  O45  1  0.85102837  0.55132950  0.52146929  1
  O  O46  1  0.42962905  0.30042825  0.52953915  1
  O  O47  1  0.92341945  0.27269915  0.52125602  1
  O  O48  1  0.27612120  0.69825042  0.97652306  1
  O  O49  1  0.76682616  0.69230429  0.97831939  1
  O  O50  1  0.07497368  0.45543092  0.97998925  1
  O  O51  1  0.57467274  0.46540730  0.97075677  1
  O  O52  1  0.15244320  0.85419445  0.97220078  1
  O  O53  1  0.65211757  0.85265210  0.97200404  1
  O  O54  1  0.26693665  0.83464336  0.47483990  1
  O  O55  1  0.77443312  0.85140577  0.47526158  1
  O  O56  1  0.15277708  0.45541701  0.47021145  1
  O  O57  1  0.65258555  0.45100824  0.47118561  1
  O  O58  1  0.07325223  0.68060929  0.46881022  1
  O  O59  1  0.57621297  0.69590158  0.47879156  1
  O  O60  1  0.06643082  0.64675854  0.35999866  1
  O  O61  1  0.57492415  0.64385596  0.36204749  1
  O  O62  1  0.25197167  0.85190879  0.35839923  1
  O  O63  1  0.75261583  0.85683863  0.35796433  1
  O  O64  1  0.17143946  0.48950044  0.36219562  1
  O  O65  1  0.67959252  0.49134920  0.36344246  1
  O  O66  1  0.07581586  0.50567077  0.86274649  1
  O  O67  1  0.56767852  0.48828426  0.86202375  1
  O  O68  1  0.17968869  0.86855877  0.86453499  1
  O  O69  1  0.67475343  0.86256971  0.86415121  1
  O  O70  1  0.25163270  0.64671104  0.85935883  1
  O  O71  1  0.75045688  0.64900388  0.86100876  1
  O  O72  1  0.01656220  0.82370026  0.41176856  1
  O  O73  1  0.51571262  0.84269958  0.40898486  1
  O  O74  1  0.40858166  0.98144522  0.41402032  1
  O  O75  1  0.91154673  0.98518491  0.41252859  1
  O  O76  1  0.09104396  0.20583205  0.40979985  1
  O  O77  1  0.59307613  0.20567505  0.40862744  1
  O  O78  1  0.01517969  0.18740057  0.90989835  1
  O  O79  1  0.51730701  0.21043551  0.91320429  1
  O  O80  1  0.09327105  0.98105532  0.90962473  1
  O  O81  1  0.59078757  0.97806727  0.91151217  1
  O  O82  1  0.41139178  0.83710396  0.91251839  1
  O  O83  1  0.90694625  0.83300858  0.91496127  1
  O  O84  1  0.49217383  0.17352777  0.58954102  1
  O  O85  1  0.98976904  0.15981974  0.59915621  1
  O  O86  1  0.09209144  0.02777668  0.59178738  1
  O  O87  1  0.59825767  0.02917116  0.59020765  1
  O  O88  1  0.42614354  0.83360054  0.59115227  1
  O  O89  1  0.91586848  0.81853657  0.59237530  1
  O  O90  1  0.49773107  0.82844836  0.09738591  1
  O  O91  1  0.99041420  0.80896255  0.08880084  1
  O  O92  1  0.41772502  0.01260796  0.09303307  1
  O  O93  1  0.92461355  0.02200096  0.09089370  1
  O  O94  1  0.09786571  0.16683800  0.09015903  1
  O  O95  1  0.59861494  0.16521281  0.09129643  1
  O  O96  1  0.34222100  0.17067622  0.74350772  1
  O  O97  1  0.83752520  0.14197656  0.74294172  1
  O  O98  1  0.23017753  0.31744266  0.74760416  1
  O  O99  1  0.74286691  0.31821101  0.74592168  1
  O  O100  1  0.42048878  0.51256965  0.74364580  1
  O  O101  1  0.91828324  0.52294546  0.74802847  1
  O  O102  1  0.33940110  0.53654082  0.24061428  1
  O  O103  1  0.83899907  0.51314330  0.23815752  1
  O  O104  1  0.41907260  0.31351949  0.24678153  1
  O  O105  1  0.92075819  0.32820308  0.24360927  1
  O  O106  1  0.24282878  0.16706584  0.24479652  1
  O  O107  1  0.73046527  0.14704801  0.24565788  1
  O  O108  1  0.31840834  0.48548282  0.91600248  1
  O  O109  1  0.81535053  0.48682746  0.92117448  1
  O  O110  1  0.43874432  0.36321392  0.91728437  1
  O  O111  1  0.92750404  0.35655146  0.91580242  1
  O  O112  1  0.24604094  0.12641231  0.92088859  1
  O  O113  1  0.74410908  0.12294924  0.92009458  1
  O  O114  1  0.31813831  0.14390129  0.41737380  1
  O  O115  1  0.81798382  0.15078231  0.41486991  1
  O  O116  1  0.24530326  0.37466724  0.41563167  1
  O  O117  1  0.74576277  0.36605620  0.41963989  1
  O  O118  1  0.42596018  0.49635846  0.41695823  1
  O  O119  1  0.93739199  0.51303563  0.41535885  1
  O  O120  1  0.17075339  0.47586744  0.08087287  1
  O  O121  1  0.66953458  0.47122312  0.07809430  1
  O  O122  1  0.06655162  0.65324875  0.07854213  1
  O  O123  1  0.57640371  0.64992023  0.07704430  1
  O  O124  1  0.24664178  0.83760698  0.07770753  1
  O  O125  1  0.75333291  0.84710044  0.08242951  1
  O  O126  1  0.16684311  0.84764152  0.57625432  1
  O  O127  1  0.67048523  0.86518584  0.58066180  1
  O  O128  1  0.25469198  0.65505024  0.58133429  1
  O  O129  1  0.74592042  0.65425143  0.57745908  1
  O  O130  1  0.07582033  0.49127381  0.57582402  1
  O  O131  1  0.56903897  0.48158021  0.57757549  1
  O  O132  1  0.15413382  0.82692718  0.25698376  1
  O  O133  1  0.65233016  0.84033430  0.25369100  1
  O  O134  1  0.26895698  0.70331762  0.25354194  1
  O  O135  1  0.75895538  0.70144919  0.25547416  1
  O  O136  1  0.08899000  0.48999059  0.25684881  1
  O  O137  1  0.59091760  0.48510728  0.25675798  1
  O  O138  1  0.15124101  0.46496549  0.75481134  1
  O  O139  1  0.65459514  0.48143310  0.75771976  1
  O  O140  1  0.08964449  0.69686099  0.75892189  1
  O  O141  1  0.58873601  0.68823022  0.75924943  1
  O  O142  1  0.25905007  0.81837812  0.75716281  1
  O  O143  1  0.76595871  0.83384828  0.75661300  1
loop_
_geom_bond_atom_site_label_1
_geom_bond_atom_site_label_2
_geom_bond_distance
_geom_bond_site_symmetry_2
Na0 O104 2.276791 1_555
Na0 O106 2.320795 1_555
Na0 O32 2.507459 1_555
Na0 O134 2.625061 1_545
Na0 O132 2.671432 1_545
Na0 O62 2.892941 1_545
Na1 O135 2.464371 1_545
Na1 O105 2.492679 1_555
Na1 O107 2.560888 1_555
Na1 O33 2.570525 1_555
Na1 O133 2.732320 1_545
Na1 O63 2.796314 1_545
Na1 O5 2.834942 1_555
Na1 O19 2.855944 1_545
Na2 O103 2.408080 1_555
Na2 O105 2.409953 1_555
Na2 O132 2.608089 1_655
Na2 O31 2.694818 1_555
Na2 O136 2.710438 1_655
Na2 O3 2.739832 1_555
Na2 O60 2.767959 1_655
Na2 O22 2.938107 1_655
Na3 O28 2.437193 1_555
Na3 O100 2.483271 1_555
Na3 O98 2.493918 1_555
Na3 O142 2.514284 1_555
Na3 O138 2.738586 1_555
Na3 O12 2.838789 1_555
Na3 O70 2.906398 1_555
Na3 O8 2.925237 1_555
Na4 O101 2.274978 1_555
Na4 O99 2.348021 1_555
Na4 O29 2.457775 1_555
Na4 O143 2.670563 1_555
Na4 O139 2.701262 1_555
Na5 O96 2.333790 1_555
Na5 O100 2.383557 1_555
Na5 O24 2.615738 1_555
Na5 O139 2.631905 1_555
Na5 O141 2.697920 1_555
Na5 O10 2.826084 1_555
Na5 O67 2.860185 1_555
Na5 O15 2.941129 1_555
Na6 O128 2.405108 1_555
Na6 O130 2.411524 1_555
Na6 O86 2.571748 1_555
Na6 O56 2.676328 1_555
Na6 O85 2.707511 1_455
Na6 O42 2.855646 1_555
Na6 O14 2.881716 1_555
Na7 O129 2.417016 1_555
Na7 O131 2.500516 1_555
Na7 O87 2.532501 1_555
Na7 O29 2.625696 1_555
Na7 O84 2.649149 1_555
Na7 O15 2.709982 1_555
Na7 O57 2.801645 1_555
Na8 O126 2.397120 1_555
Na8 O130 2.400399 1_555
Na8 O25 2.687992 1_455
Na8 O89 2.735727 1_455
Na8 O58 2.790134 1_555
Na8 O86 2.796920 1_565
Na8 O16 2.855138 1_555
Na8 O45 2.985039 1_455
Na9 O59 2.383857 1_555
Na9 O88 2.514896 1_555
Na9 O44 2.535482 1_555
Na9 O127 2.567117 1_555
Na9 O131 2.574724 1_555
Na9 O87 2.743903 1_565
Na10 O128 2.328456 1_555
Na10 O126 2.451879 1_555
Na10 O54 2.548777 1_555
Na10 O88 2.648635 1_555
Na10 O84 2.765215 1_565
Na10 O26 2.801544 1_565
Na10 O12 2.956206 1_555
Na10 O46 2.995959 1_565
Na11 O55 2.417683 1_555
Na11 O129 2.504584 1_555
Na11 O89 2.556751 1_555
Na11 O85 2.558663 1_565
Na11 O127 2.615800 1_555
Na11 O47 2.635724 1_565
Na12 O124 2.434209 1_555
Na12 O122 2.514478 1_555
Na12 O94 2.537256 1_565
Na12 O91 2.670437 1_455
Na12 O32 2.693975 1_565
Na12 O22 2.729419 1_555
Na12 O52 2.753277 1_554
Na12 O36 2.926888 1_565
Na13 O123 2.377535 1_555
Na13 O125 2.387695 1_555
Na13 O90 2.538387 1_555
Na13 O95 2.629296 1_565
Na13 O53 2.654472 1_554
Na13 O23 2.817666 1_555
Na13 O33 2.899392 1_565
Na13 O37 2.999558 1_565
Na14 O48 2.324442 1_554
Na14 O124 2.500549 1_555
Na14 O120 2.570168 1_555
Na14 O92 2.602771 1_565
Na14 O38 2.648918 1_555
Na14 O90 2.720168 1_555
Na15 O125 2.282474 1_555
Na15 O49 2.403903 1_554
Na15 O93 2.528439 1_565
Na15 O121 2.583094 1_555
Na15 O91 2.644369 1_555
Na16 O50 2.321530 1_554
Na16 O93 2.492426 1_455
Na16 O120 2.534490 1_555
Na16 O122 2.556090 1_555
Na16 O41 2.662286 1_455
Na16 O94 2.713602 1_555
Na17 O123 2.379202 1_555
Na17 O121 2.637137 1_555
Na17 O92 2.640097 1_555
Na17 O30 2.652385 1_555
Na17 O40 2.768037 1_555
Na17 O51 2.801970 1_554
Na17 O21 2.844056 1_555
Na17 O95 2.924968 1_555
Na18 O82 2.308496 1_555
Na18 O108 2.441741 1_555
Na18 O8 2.503663 1_555
Na18 O38 2.505343 1_556
Na18 O110 2.508046 1_555
Na18 O81 2.553326 1_555
Na19 O9 2.408437 1_555
Na19 O111 2.427071 1_555
Na19 O83 2.454878 1_555
Na19 O109 2.528436 1_555
Na19 O80 2.637693 1_655
Na19 O39 2.891306 1_556
Na19 O66 2.971360 1_655
Na20 O82 2.408094 1_545
Na20 O10 2.514050 1_555
Na20 O112 2.538364 1_555
Na20 O40 2.623338 1_556
Na20 O79 2.628158 1_555
Na20 O110 2.692336 1_555
Na20 O48 2.853249 1_545
Na20 O68 2.954517 1_545
Na21 O83 2.458510 1_545
Na21 O111 2.487668 1_555
Na21 O78 2.489250 1_655
Na21 O41 2.530434 1_556
Na21 O113 2.538196 1_555
Na21 O11 2.768729 1_555
Na22 O108 2.390556 1_555
Na22 O78 2.410293 1_555
Na22 O80 2.639863 1_545
Na22 O36 2.700429 1_556
Na22 O6 2.728178 1_555
Na22 O112 2.736569 1_555
Na22 O70 2.901230 1_555
Na22 O50 2.921728 1_555
Na23 O109 2.333095 1_555
Na23 O7 2.393347 1_555
Na23 O79 2.488378 1_555
Na23 O81 2.528860 1_545
Na23 O113 2.568152 1_555
Na23 O37 2.848717 1_556
Na23 O71 2.935130 1_555
Na24 O118 2.391251 1_555
Na24 O114 2.423652 1_555
Na24 O74 2.447440 1_545
Na24 O4 2.573898 1_555
Na24 O77 2.687232 1_555
Na24 O46 2.780139 1_555
Na25 O75 2.319710 1_545
Na25 O47 2.438670 1_555
Na25 O115 2.471209 1_555
Na25 O119 2.523769 1_555
Na25 O76 2.542085 1_655
Na25 O5 2.612796 1_555
Na26 O114 2.323463 1_555
Na26 O42 2.426906 1_555
Na26 O72 2.549313 1_545
Na26 O76 2.555334 1_555
Na26 O116 2.580753 1_555
Na26 O0 2.662692 1_555
Na27 O115 2.394842 1_555
Na27 O73 2.400179 1_545
Na27 O43 2.628815 1_555
Na27 O77 2.671348 1_555
Na27 O117 2.755486 1_555
Na27 O1 2.820399 1_555
Na27 O59 2.834998 1_545
Na27 O63 2.959315 1_545
Na28 O44 2.429144 1_555
Na28 O116 2.454902 1_555
Na28 O74 2.480506 1_555
Na28 O118 2.502623 1_555
Na28 O73 2.546187 1_555
Na28 O54 2.882707 1_555
Na28 O2 2.916540 1_555
Na29 O75 2.399227 1_555
Na29 O45 2.524764 1_555
Na29 O117 2.536815 1_555
Na29 O72 2.617435 1_655
Na29 O3 2.625735 1_555
Na29 O119 2.688583 1_555
Na29 O55 2.815814 1_555
Na30 O75 2.341802 1_545
Na30 O76 2.647490 1_655
Na30 O89 2.651358 1_545
Na30 O72 2.674432 1_645
Na30 O85 2.708143 1_555
Na30 O86 2.717137 1_655
Na31 O74 2.321163 1_555
Na31 O73 2.403279 1_555
Na31 O88 2.509722 1_555
Na31 O77 2.743001 1_565
Na31 O84 2.790832 1_565
Na31 O87 2.794589 1_565
Na32 O83 2.309450 1_545
Na32 O78 2.334320 1_655
Na32 O93 2.594284 1_556
Na32 O80 2.670786 1_645
Na32 O94 2.803185 1_656
Na32 O91 2.808804 1_546
Na33 O82 2.243433 1_555
Na33 O81 2.623068 1_555
Na33 O79 2.632140 1_565
Na33 O92 2.661606 1_566
Na33 O90 2.714292 1_556
Na33 O95 2.878143 1_566
Na34 O96 2.425331 1_555
Na34 O100 2.454813 1_555
Na34 O98 2.514020 1_555
Na34 O108 2.520186 1_555
Na34 O110 2.710178 1_555
Na34 O112 2.736613 1_555
Na35 O101 2.329010 1_555
Na35 O99 2.451692 1_555
Na35 O111 2.506515 1_555
Na35 O109 2.614686 1_555
Na35 O97 2.621744 1_555
Na35 O113 2.817562 1_555
Na36 O104 2.439616 1_555
Na36 O118 2.458354 1_555
Na36 O114 2.466461 1_555
Na36 O106 2.521338 1_555
Na36 O116 2.703743 1_555
Na36 O102 2.741088 1_555
Na37 O115 2.432125 1_555
Na37 O105 2.514739 1_555
Na37 O103 2.590467 1_555
Na37 O107 2.592570 1_555
Na37 O119 2.601510 1_555
Na37 O117 2.674548 1_555
Na38 O124 2.384991 1_555
Na38 O120 2.540729 1_555
Na38 O122 2.613480 1_555
Na38 O134 2.614172 1_555
Na38 O136 2.628407 1_555
Na38 O132 2.642513 1_555
Na39 O123 2.446691 1_555
Na39 O125 2.478865 1_555
Na39 O137 2.537133 1_555
Na39 O135 2.603519 1_555
Na39 O133 2.621928 1_555
Na39 O121 2.648266 1_555
Na40 O126 2.385947 1_555
Na40 O130 2.447654 1_555
Na40 O128 2.469136 1_555
Na40 O140 2.673891 1_555
Na40 O142 2.712011 1_555
Na40 O138 2.807923 1_555
Na41 O129 2.341868 1_555
Na41 O127 2.503567 1_555
Na41 O131 2.571593 1_555
Na41 O143 2.684347 1_555
Na41 O139 2.692935 1_555
Na41 O141 2.728607 1_555
Mg0 O5 1.959714 1_565
Mg0 O3 1.990422 1_555
Mg0 O0 1.991914 1_665
Mg0 O75 2.084915 1_555
Mg0 O72 2.314207 1_655
Mg0 O76 2.325935 1_665
Mg1 O4 1.938310 1_565
Mg1 O73 2.014674 1_555
Mg1 O74 2.017502 1_555
Mg1 O2 2.121252 1_555
Mg1 O1 2.184237 1_565
Mg1 O77 2.196329 1_565
Mg2 O9 1.933355 1_555
Mg2 O78 2.036816 1_665
Mg2 O83 2.062317 1_555
Mg2 O11 2.102526 1_565
Mg2 O6 2.151211 1_665
Mg2 O80 2.237939 1_655
Mg3 O8 1.947118 1_555
Mg3 O10 1.956673 1_565
Mg3 O7 1.996682 1_565
Mg3 O82 2.086660 1_555
Mg3 O81 2.343376 1_555
Mg3 O79 2.364663 1_565
Mg4 O26 1.938103 1_555
Mg4 O28 1.995443 1_555
Mg4 O96 2.036341 1_555
Mg4 O100 2.133070 1_555
Mg4 O24 2.221366 1_555
Mg4 O98 2.279249 1_555
Mg5 O25 1.946561 1_555
Mg5 O29 1.998716 1_555
Mg5 O101 2.029950 1_555
Mg5 O99 2.129448 1_555
Mg5 O27 2.256382 1_555
Mg5 O97 2.295656 1_555
Mg6 O30 1.964820 1_555
Mg6 O32 2.002142 1_555
Mg6 O104 2.020829 1_555
Mg6 O106 2.104423 1_555
Mg6 O34 2.253307 1_555
Mg6 O102 2.270689 1_555
Mg7 O33 1.967202 1_555
Mg7 O103 1.988968 1_555
Mg7 O105 2.032360 1_555
Mg7 O35 2.151660 1_555
Mg7 O31 2.171831 1_555
Mg7 O107 2.219834 1_555
Mg8 O38 2.005443 1_556
Mg8 O40 2.089840 1_556
Mg8 O108 2.132085 1_555
Mg8 O36 2.193387 1_556
Mg8 O110 2.335218 1_555
Mg8 O112 2.384052 1_555
Mg9 O111 2.009611 1_555
Mg9 O41 2.025535 1_556
Mg9 O109 2.088448 1_555
Mg9 O39 2.173261 1_556
Mg9 O113 2.241657 1_555
Mg9 O37 2.354623 1_556
Mg10 O42 2.046207 1_555
Mg10 O44 2.060259 1_555
Mg10 O118 2.142113 1_555
Mg10 O114 2.181028 1_555
Mg10 O46 2.220057 1_555
Mg10 O116 2.313177 1_555
Mg11 O47 1.982394 1_555
Mg11 O45 2.057423 1_555
Mg11 O43 2.162888 1_555
Mg11 O115 2.196910 1_555
Mg11 O119 2.382168 1_555
Mg11 O117 2.429642 1_555
Mg12 O48 1.928011 1_554
Mg12 O50 1.980305 1_554
Mg12 O124 2.073150 1_555
Mg12 O52 2.097346 1_554
Mg12 O120 2.310233 1_555
Mg12 O122 2.399660 1_555
Mg13 O49 1.944459 1_554
Mg13 O123 2.039017 1_555
Mg13 O125 2.045261 1_555
Mg13 O53 2.058802 1_554
Mg13 O51 2.160202 1_554
Mg13 O121 2.282630 1_555
Mg14 O54 1.967047 1_555
Mg14 O126 2.012416 1_555
Mg14 O128 2.035668 1_555
Mg14 O130 2.044087 1_555
Mg14 O56 2.178293 1_555
Mg14 O58 2.207524 1_555
Mg15 O55 1.930625 1_555
Mg15 O59 1.977829 1_555
Mg15 O129 2.052181 1_555
Mg15 O57 2.127339 1_555
Mg15 O127 2.281334 1_555
Mg15 O131 2.332339 1_555
O0 Si0 1.585310 1_555
O1 S0 1.442838 1_555
O2 S1 1.446940 1_555
O3 Si1 1.600236 1_555
O4 Si3 1.591566 1_555
O5 Si2 1.582431 1_655
O6 S2 1.454192 1_555
O7 Si4 1.590941 1_555
O8 Si6 1.585117 1_555
O9 Si5 1.599586 1_655
O10 Si7 1.601033 1_555
O11 S3 1.458866 1_555
O12 Si7 1.750330 1_565
O12 Ta1 1.879541 1_555
O13 S3 1.488767 1_565
O13 Ta0 2.291514 1_655
O14 S2 1.491352 1_555
O14 Ta0 2.202710 1_545
O15 Si4 1.691102 1_555
O15 Ta1 1.981118 1_545
O16 Si5 1.699379 1_555
O16 Ta0 1.921555 1_555
O17 Si6 1.706136 1_555
O17 Ta1 1.879803 1_555
O18 S1 1.538110 1_555
O18 Ta3 2.075207 1_565
O19 Si1 1.751918 1_555
O19 Ta2 1.876015 1_565
O20 Si2 1.712659 1_555
O20 Ta2 1.870238 1_455
O21 Si3 1.738465 1_555
O21 Ta3 1.899541 1_555
O22 Si0 1.713688 1_565
O22 Ta2 1.962780 1_465
O23 S0 1.509571 1_565
O23 Ta3 2.165017 1_565
O24 S4 1.468043 1_555
O25 Si8 1.595788 1_555
O26 Si9 1.592309 1_555
O27 S5 1.448817 1_555
O28 Si10 1.609672 1_555
O29 Si11 1.607634 1_555
O30 Si12 1.592654 1_555
O31 S6 1.471728 1_555
O32 Si13 1.601259 1_555
O33 Si14 1.615320 1_555
O34 S7 1.448091 1_555
O35 S8 1.455489 1_555
O36 S7 1.491782 1_555
O37 S8 1.473312 1_555
O38 Si12 1.634480 1_555
O39 S6 1.474199 1_555
O40 Si13 1.629817 1_555
O41 Si14 1.628792 1_555
O42 Si9 1.627943 1_555
O43 S5 1.494761 1_555
O44 Si10 1.630647 1_555
O45 Si11 1.634986 1_555
O46 S4 1.476288 1_555
O47 Si8 1.644438 1_555
O48 Si15 1.617971 1_555
O49 Si16 1.605889 1_555
O50 Si17 1.622582 1_555
O51 S9 1.464415 1_555
O52 S10 1.483154 1_555
O53 S11 1.476595 1_555
O54 Si18 1.594772 1_555
O55 Si19 1.610157 1_555
O56 S12 1.462392 1_555
O57 S13 1.474782 1_555
O58 S14 1.447641 1_555
O59 Si20 1.618205 1_555
O60 S14 1.563204 1_555
O60 Ta4 2.034255 1_555
O61 Si20 1.731257 1_555
O61 Ta5 1.882296 1_555
O62 Si18 1.761129 1_555
O62 Ta4 1.876730 1_555
O63 Si19 1.727482 1_555
O63 Ta5 1.940712 1_555
O64 S12 1.535894 1_555
O64 Ta4 2.071918 1_555
O65 S13 1.527694 1_555
O65 Ta5 2.060194 1_555
O66 Si17 1.699359 1_555
O66 Ta6 1.899070 1_555
O67 S9 1.540767 1_555
O67 Ta7 2.083889 1_555
O68 S10 1.510910 1_555
O68 Ta6 2.121842 1_555
O69 S11 1.511370 1_555
O69 Ta7 2.162675 1_555
O70 Si15 1.704632 1_555
O70 Ta6 1.964976 1_555
O71 Si16 1.739484 1_555
O71 Ta7 1.902116 1_555
O72 S14 1.474404 1_555
O73 Si20 1.631070 1_555
O74 Si18 1.627366 1_555
O75 Si19 1.641007 1_555
O76 S12 1.476168 1_555
O77 S13 1.468438 1_555
O78 Si17 1.632810 1_555
O79 S9 1.475350 1_555
O80 S10 1.475825 1_555
O81 S11 1.478833 1_555
O82 Si15 1.640866 1_555
O83 Si16 1.625858 1_555
O84 S4 1.531990 1_555
O84 Ta1 2.251861 1_545
O85 Si8 1.704168 1_555
O85 Ta0 1.933932 1_645
O86 Si9 1.754122 1_555
O86 Ta0 1.872489 1_545
O87 S5 1.535063 1_555
O87 Ta1 2.260207 1_545
O88 Si10 1.772893 1_555
O88 Ta1 1.953221 1_555
O89 Si11 1.729127 1_555
O89 Ta0 1.919715 1_655
O90 Si12 1.725016 1_555
O90 Ta3 1.947343 1_565
O91 S6 1.530070 1_555
O91 Ta2 2.271556 1_565
O92 Si13 1.770739 1_555
O92 Ta3 1.903495 1_555
O93 Si14 1.754313 1_555
O93 Ta2 1.991813 1_555
O94 S7 1.539828 1_555
O94 Ta2 2.234237 1_455
O95 S8 1.557602 1_555
O95 Ta3 2.090099 1_555
O96 Si7 1.591214 1_555
O97 S3 1.451813 1_555
O98 S2 1.471253 1_555
O99 Si4 1.587459 1_555
O100 Si6 1.605095 1_555
O101 Si5 1.601762 1_655
O102 S1 1.451835 1_555
O103 Si1 1.596490 1_555
O104 Si3 1.599231 1_555
O105 Si2 1.613616 1_655
O106 Si0 1.589311 1_555
O107 S0 1.478001 1_555
O108 Si15 1.650953 1_555
O109 Si16 1.632476 1_555
O110 S9 1.482873 1_555
O111 Si17 1.630256 1_655
O112 S10 1.482813 1_545
O113 S11 1.482998 1_545
O114 Si18 1.626346 1_545
O115 Si19 1.648344 1_545
O116 S12 1.481574 1_555
O117 S13 1.480710 1_555
O118 Si20 1.624753 1_555
O119 S14 1.483584 1_655
O120 S7 1.491765 1_555
O121 S8 1.481513 1_555
O122 S6 1.489295 1_455
O123 Si12 1.642562 1_555
O124 Si13 1.641269 1_565
O125 Si14 1.636947 1_565
O126 Si9 1.623338 1_565
O127 S5 1.491528 1_565
O128 Si10 1.621020 1_555
O129 Si11 1.647662 1_555
O130 Si8 1.626443 1_455
O131 S4 1.491694 1_555
O132 Si0 1.763063 1_565
O132 Ta4 1.926192 1_555
O133 S0 1.528140 1_565
O133 Ta5 2.163718 1_555
O134 S1 1.536437 1_555
O134 Ta4 2.172102 1_555
O135 Si1 1.657662 1_555
O135 Ta5 2.052739 1_555
O136 Si2 1.669499 1_555
O136 Ta4 1.996096 1_555
O137 Si3 1.665838 1_555
O137 Ta5 1.972832 1_555
O138 S2 1.540472 1_555
O138 Ta6 2.097557 1_555
O139 Si4 1.777081 1_555
O139 Ta7 1.902577 1_555
O140 Si5 1.673566 1_555
O140 Ta6 1.943667 1_555
O141 Si6 1.682219 1_555
O141 Ta7 1.966434 1_555
O142 Si7 1.661255 1_565
O142 Ta6 2.011436 1_555
O143 S3 1.572190 1_565
O143 Ta7 2.052691 1_555
