# generated using pymatgen
data_HfAs2
_symmetry_space_group_name_H-M   'P 1'
_cell_length_a   3.68828633
_cell_length_b   6.79474407
_cell_length_c   8.96023212
_cell_angle_alpha   90.00000000
_cell_angle_beta   90.00000000
_cell_angle_gamma   90.00000000
_symmetry_Int_Tables_number   1
_chemical_formula_structural   HfAs2
_chemical_formula_sum   'Hf4 As8'
_cell_volume   224.55203371
_cell_formula_units_Z   4
loop_
 _symmetry_equiv_pos_site_id
 _symmetry_equiv_pos_as_xyz
  1  'x, y, z'
loop_
 _atom_site_type_symbol
 _atom_site_label
 _atom_site_symmetry_multiplicity
 _atom_site_fract_x
 _atom_site_fract_y
 _atom_site_fract_z
 _atom_site_occupancy
  Hf  Hf0  1  0.25000000  0.27349994  0.66205082  1
  Hf  Hf1  1  0.75000000  0.72650006  0.33794918  1
  Hf  Hf2  1  0.25000000  0.77349994  0.83794918  1
  Hf  Hf3  1  0.75000000  0.22650006  0.16205082  1
  As  As0  1  0.25000000  0.41849283  0.35229697  1
  As  As1  1  0.75000000  0.58150717  0.64770303  1
  As  As2  1  0.25000000  0.91849283  0.14770303  1
  As  As3  1  0.75000000  0.08150717  0.85229697  1
  As  As4  1  0.75000000  0.11827166  0.45760686  1
  As  As5  1  0.25000000  0.88172834  0.54239314  1
  As  As6  1  0.75000000  0.61827166  0.04239314  1
  As  As7  1  0.25000000  0.38172834  0.95760686  1
loop_
_geom_bond_atom_site_label_1
_geom_bond_atom_site_label_2
_geom_bond_distance
_geom_bond_site_symmetry_2
As0 Hf1 2.792370 1_555
As0 Hf1 2.792370 1_455
As0 Hf3 2.829934 1_555
As0 Hf3 2.829934 1_455
As0 As4 2.907326 1_555
As0 As4 2.907326 1_455
As0 Hf0 2.945134 1_555
As1 Hf0 2.792370 1_555
As1 Hf0 2.792370 1_655
As1 Hf2 2.829934 1_655
As1 Hf2 2.829934 1_555
As1 As5 2.907326 1_555
As1 As5 2.907326 1_655
As1 Hf1 2.945134 1_555
As2 Hf3 2.792370 1_465
As2 Hf3 2.792370 1_565
As2 Hf1 2.829934 1_455
As2 Hf1 2.829934 1_555
As2 As6 2.907326 1_455
As2 As6 2.907326 1_555
As2 Hf2 2.945134 1_554
As3 Hf2 2.792370 1_545
As3 Hf2 2.792370 1_645
As3 Hf0 2.829934 1_555
As3 Hf0 2.829934 1_655
As3 As7 2.907326 1_655
As3 As7 2.907326 1_555
As3 Hf3 2.945134 1_556
As4 As5 2.561498 1_545
As4 As5 2.561498 1_645
As4 Hf3 2.748458 1_555
As4 Hf0 2.805185 1_555
As4 Hf0 2.805185 1_655
As4 Hf1 2.869792 1_545
As5 Hf2 2.748458 1_555
As5 Hf1 2.805185 1_455
As5 Hf1 2.805185 1_555
As5 Hf0 2.869792 1_565
As6 As7 2.561498 1_554
As6 As7 2.561498 1_654
As6 Hf1 2.748458 1_555
As6 Hf2 2.805185 1_554
As6 Hf2 2.805185 1_654
As6 Hf3 2.869792 1_555
As7 Hf0 2.748458 1_555
As7 Hf3 2.805185 1_456
As7 Hf3 2.805185 1_556
As7 Hf2 2.869792 1_555
