# generated using pymatgen
data_Rb2NiH8(CO5)2
_symmetry_space_group_name_H-M   'P 1'
_cell_length_a   6.59400300
_cell_length_b   7.34264400
_cell_length_c   12.36415880
_cell_angle_alpha   67.30913469
_cell_angle_beta   90.00000000
_cell_angle_gamma   90.00000000
_symmetry_Int_Tables_number   1
_chemical_formula_structural   Rb2NiH8(CO5)2
_chemical_formula_sum   'Rb4 Ni2 H16 C4 O20'
_cell_volume   552.30560487
_cell_formula_units_Z   2
loop_
 _symmetry_equiv_pos_site_id
 _symmetry_equiv_pos_as_xyz
  1  'x, y, z'
loop_
 _atom_site_type_symbol
 _atom_site_label
 _atom_site_symmetry_multiplicity
 _atom_site_fract_x
 _atom_site_fract_y
 _atom_site_fract_z
 _atom_site_occupancy
  Rb  Rb0  1  0.67650300  0.26588700  0.17854300  1
  Rb  Rb1  1  0.17650300  0.73411300  0.32145700  1
  Rb  Rb2  1  0.32349700  0.73411300  0.82145700  1
  Rb  Rb3  1  0.82349700  0.26588700  0.67854300  1
  Ni  Ni0  1  0.50000000  0.00000000  0.50000000  1
  Ni  Ni1  1  0.00000000  0.00000000  0.00000000  1
  H  H0  1  0.21773200  0.18335600  0.51652100  1
  H  H1  1  0.71773200  0.81664400  0.98347900  1
  H  H2  1  0.78226800  0.81664400  0.48347900  1
  H  H3  1  0.28226800  0.18335600  0.01652100  1
  H  H4  1  0.84259900  0.84915600  0.86069600  1
  H  H5  1  0.34259900  0.15084400  0.63930400  1
  H  H6  1  0.15740100  0.15084400  0.13930400  1
  H  H7  1  0.65740100  0.84915600  0.36069600  1
  H  H8  1  0.67495600  0.49539700  0.37266100  1
  H  H9  1  0.63712400  0.34782800  0.90487900  1
  H  H10  1  0.32504400  0.50460300  0.62733900  1
  H  H11  1  0.82504400  0.49539700  0.87266100  1
  H  H12  1  0.86287600  0.34782800  0.40487900  1
  H  H13  1  0.36287600  0.65217200  0.09512100  1
  H  H14  1  0.13712400  0.65217200  0.59512100  1
  H  H15  1  0.17495600  0.50460300  0.12733900  1
  C  C0  1  0.68636400  0.78157600  0.17213300  1
  C  C1  1  0.18636400  0.21842400  0.32786700  1
  C  C2  1  0.81363600  0.78157600  0.67213300  1
  C  C3  1  0.31363600  0.21842400  0.82786700  1
  O  O0  1  0.77835900  0.36407900  0.92729000  1
  O  O1  1  0.27835900  0.63592100  0.57271000  1
  O  O2  1  0.22164100  0.63592100  0.07271000  1
  O  O3  1  0.72164100  0.36407900  0.42729000  1
  O  O4  1  0.79512800  0.91640400  0.91361300  1
  O  O5  1  0.29512800  0.08359600  0.58638700  1
  O  O6  1  0.66653600  0.91031200  0.64211700  1
  O  O7  1  0.16653600  0.08968800  0.85788300  1
  O  O8  1  0.33346400  0.08968800  0.35788300  1
  O  O9  1  0.83346400  0.91031200  0.14211700  1
  O  O10  1  0.89667600  0.73728500  0.77381300  1
  O  O11  1  0.39667600  0.26271500  0.72618700  1
  O  O12  1  0.10332400  0.26271500  0.22618700  1
  O  O13  1  0.20487200  0.08359600  0.08638700  1
  O  O14  1  0.87450300  0.69785100  0.60294900  1
  O  O15  1  0.37450300  0.30214900  0.89705100  1
  O  O16  1  0.12549700  0.30214900  0.39705100  1
  O  O17  1  0.62549700  0.69785100  0.10294900  1
  O  O18  1  0.70487200  0.91640400  0.41361300  1
  O  O19  1  0.60332400  0.73728500  0.27381300  1
loop_
_geom_bond_atom_site_label_1
_geom_bond_atom_site_label_2
_geom_bond_distance
_geom_bond_site_symmetry_2
Ni0 O6 1.958167 1_545
Ni0 O8 1.958167 1_555
Ni0 O18 1.961743 1_545
Ni0 O5 1.961743 1_555
Ni1 O9 1.958167 1_445
Ni1 O7 1.958167 1_554
Ni1 O13 1.961743 1_555
Ni1 O4 1.961743 1_444
H0 O5 1.027151 1_555
H0 O16 1.522706 1_555
H1 O4 1.027151 1_555
H1 O17 1.522706 1_556
H2 O18 1.027151 1_555
H2 O14 1.522706 1_555
H3 O13 1.027151 1_555
H3 O15 1.522706 1_554
H4 O4 1.009518 1_555
H4 O10 1.623783 1_555
H4 Rb3 3.022301 1_565
H5 O5 1.009518 1_555
H5 O11 1.623783 1_555
H5 Rb2 3.022301 1_545
H6 O13 1.009518 1_555
H6 O12 1.623783 1_555
H6 Rb1 3.022301 1_545
H7 O18 1.009518 1_555
H7 O19 1.623783 1_555
H7 Rb0 3.022301 1_565
H8 O3 0.989060 1_555
H9 O0 0.991895 1_555
H10 O1 0.989060 1_555
H11 O0 0.989060 1_555
H12 O3 0.991895 1_555
H13 O2 0.991895 1_555
H14 O1 0.991895 1_555
H15 O2 0.989060 1_555
C0 O19 1.292546 1_555
C0 O17 1.294778 1_555
C0 O9 1.304399 1_555
C1 O12 1.292546 1_555
C1 O16 1.294778 1_555
C1 O8 1.304399 1_555
C2 O10 1.292546 1_555
C2 O14 1.294778 1_555
C2 O6 1.304399 1_555
C3 O11 1.292546 1_555
C3 O15 1.294778 1_555
C3 O7 1.304399 1_555
O0 Rb0 2.982187 1_556
O1 Rb1 2.982187 1_555
O2 Rb2 2.982187 1_554
O3 Rb3 2.982187 1_555
O4 Rb3 3.051754 1_565
O5 Rb2 3.051754 1_545
O6 Rb3 2.999644 1_565
O6 Rb2 3.081229 1_555
O7 Rb2 2.999644 1_545
O7 Rb3 3.081229 1_455
O8 Rb1 2.999644 1_545
O8 Rb0 3.081229 1_555
O9 Rb0 2.999644 1_565
O9 Rb1 3.081229 1_655
O10 Rb2 2.873700 1_655
O11 Rb3 2.873700 1_555
O12 Rb0 2.873700 1_455
O13 Rb1 3.051754 1_545
O14 Rb3 2.959659 1_555
O15 Rb2 2.959659 1_555
O16 Rb1 2.959659 1_555
O17 Rb0 2.959659 1_555
O18 Rb0 3.051754 1_565
O19 Rb1 2.873700 1_555
