# generated using pymatgen
data_HfGaPd
_symmetry_space_group_name_H-M   'P 1'
_cell_length_a   7.14459892
_cell_length_b   7.14459762
_cell_length_c   6.90863841
_cell_angle_alpha   90.00000000
_cell_angle_beta   90.00000000
_cell_angle_gamma   119.99999657
_symmetry_Int_Tables_number   1
_chemical_formula_structural   HfGaPd
_chemical_formula_sum   'Hf6 Ga6 Pd6'
_cell_volume   305.40682483
_cell_formula_units_Z   6
loop_
 _symmetry_equiv_pos_site_id
 _symmetry_equiv_pos_as_xyz
  1  'x, y, z'
loop_
 _atom_site_type_symbol
 _atom_site_label
 _atom_site_symmetry_multiplicity
 _atom_site_fract_x
 _atom_site_fract_y
 _atom_site_fract_z
 _atom_site_occupancy
  Hf  Hf0  1  0.02172459  0.40920649  0.75000000  1
  Hf  Hf1  1  0.59079351  0.61251710  0.75000000  1
  Hf  Hf2  1  0.38748290  0.97827541  0.75000000  1
  Hf  Hf3  1  0.97827541  0.38748290  0.25000000  1
  Hf  Hf4  1  0.61251710  0.59079351  0.25000000  1
  Hf  Hf5  1  0.40920649  0.02172459  0.25000000  1
  Ga  Ga0  1  0.73090995  1.00000000  0.50000000  1
  Ga  Ga1  1  0.26909005  0.26909005  -0.00000000  1
  Ga  Ga2  1  0.00000000  0.73090995  -0.00000000  1
  Ga  Ga3  1  0.00000000  0.73090995  0.50000000  1
  Ga  Ga4  1  0.26909005  0.26909005  0.50000000  1
  Ga  Ga5  1  0.73090995  1.00000000  -0.00000000  1
  Pd  Pd0  1  0.33333300  0.66666700  0.03221656  1
  Pd  Pd1  1  0.33333300  0.66666700  0.46778344  1
  Pd  Pd2  1  0.66666700  0.33333300  0.96778344  1
  Pd  Pd3  1  0.66666700  0.33333300  0.53221656  1
  Pd  Pd4  1  -0.00000000  -0.00000000  0.25000000  1
  Pd  Pd5  1  -0.00000000  -0.00000000  0.75000000  1
loop_
_geom_bond_atom_site_label_1
_geom_bond_atom_site_label_2
_geom_bond_distance
_geom_bond_site_symmetry_2
Hf0 Pd3 2.759996 1_455
Hf0 Pd2 2.759996 1_455
Hf0 Pd0 2.836604 1_556
Hf0 Pd1 2.836604 1_555
Hf0 Pd5 2.849182 1_555
Hf1 Pd3 2.759996 1_555
Hf1 Pd2 2.759996 1_555
Hf1 Pd0 2.836611 1_556
Hf1 Pd1 2.836611 1_555
Hf1 Pd5 2.849185 1_665
Hf2 Pd3 2.759996 1_565
Hf2 Pd2 2.759996 1_565
Hf2 Pd0 2.836600 1_556
Hf2 Pd1 2.836600 1_555
Hf2 Pd5 2.849189 1_565
Hf3 Pd0 2.759996 1_655
Hf3 Pd1 2.759996 1_655
Hf3 Pd2 2.836601 1_554
Hf3 Pd3 2.836601 1_555
Hf3 Pd4 2.849189 1_655
Hf4 Pd1 2.759996 1_555
Hf4 Pd0 2.759996 1_555
Hf4 Pd2 2.836611 1_554
Hf4 Pd3 2.836611 1_555
Hf4 Pd4 2.849185 1_665
Hf5 Pd1 2.759995 1_545
Hf5 Pd0 2.759995 1_545
Hf5 Pd2 2.836604 1_554
Hf5 Pd3 2.836604 1_555
Hf5 Pd4 2.849182 1_555
Ga0 Pd5 2.584423 1_665
Ga0 Pd4 2.584423 1_665
Ga0 Pd3 2.650471 1_565
Ga0 Pd1 2.650476 1_555
Ga0 Hf2 2.940531 1_555
Ga0 Hf5 2.940537 1_565
Ga0 Hf3 2.979586 1_565
Ga0 Hf1 2.979587 1_555
Ga0 Hf4 3.126197 1_555
Ga0 Hf0 3.126199 1_665
Ga1 Pd4 2.584423 1_555
Ga1 Pd5 2.584423 1_554
Ga1 Pd0 2.650478 1_555
Ga1 Pd2 2.650478 1_554
Ga1 Hf1 2.940534 1_554
Ga1 Hf4 2.940534 1_555
Ga1 Hf5 2.979581 1_555
Ga1 Hf0 2.979581 1_554
Ga1 Hf2 3.126203 1_544
Ga1 Hf3 3.126203 1_455
Ga2 Pd4 2.584423 1_565
Ga2 Pd5 2.584423 1_564
Ga2 Pd0 2.650471 1_555
Ga2 Pd2 2.650475 1_454
Ga2 Hf3 2.940531 1_455
Ga2 Hf0 2.940537 1_554
Ga2 Hf2 2.979586 1_554
Ga2 Hf4 2.979587 1_455
Ga2 Hf1 3.126197 1_454
Ga2 Hf5 3.126199 1_565
Ga3 Pd4 2.584423 1_565
Ga3 Pd5 2.584423 1_565
Ga3 Pd1 2.650471 1_555
Ga3 Pd3 2.650475 1_455
Ga3 Hf3 2.940531 1_455
Ga3 Hf0 2.940537 1_555
Ga3 Hf2 2.979586 1_555
Ga3 Hf4 2.979587 1_455
Ga3 Hf1 3.126197 1_455
Ga3 Hf5 3.126199 1_565
Ga4 Pd5 2.584423 1_555
Ga4 Pd4 2.584423 1_555
Ga4 Pd1 2.650478 1_555
Ga4 Pd3 2.650478 1_555
Ga4 Hf1 2.940534 1_555
Ga4 Hf4 2.940534 1_555
Ga4 Hf5 2.979581 1_555
Ga4 Hf0 2.979581 1_555
Ga4 Hf2 3.126203 1_545
Ga4 Hf3 3.126203 1_455
Ga5 Pd5 2.584423 1_664
Ga5 Pd4 2.584423 1_665
Ga5 Pd2 2.650471 1_564
Ga5 Pd0 2.650476 1_555
Ga5 Hf2 2.940531 1_554
Ga5 Hf5 2.940537 1_565
Ga5 Hf3 2.979586 1_565
Ga5 Hf1 2.979587 1_554
Ga5 Hf4 3.126197 1_555
Ga5 Hf0 3.126199 1_664
Pd0 Pd1 3.009174 1_555
Pd2 Pd3 3.009174 1_555
