# generated using pymatgen
data_SmCu5
_symmetry_space_group_name_H-M   'P 1'
_cell_length_a   5.03068509
_cell_length_b   5.03068572
_cell_length_c   4.06198402
_cell_angle_alpha   90.00000000
_cell_angle_beta   90.00000000
_cell_angle_gamma   119.99998919
_symmetry_Int_Tables_number   1
_chemical_formula_structural   SmCu5
_chemical_formula_sum   'Sm1 Cu5'
_cell_volume   89.02730132
_cell_formula_units_Z   1
loop_
 _symmetry_equiv_pos_site_id
 _symmetry_equiv_pos_as_xyz
  1  'x, y, z'
loop_
 _atom_site_type_symbol
 _atom_site_label
 _atom_site_symmetry_multiplicity
 _atom_site_fract_x
 _atom_site_fract_y
 _atom_site_fract_z
 _atom_site_occupancy
  Sm  Sm0  1  -0.00000000  0.00000000  -0.00000000  1
  Cu  Cu0  1  0.33333300  0.66666700  0.00000000  1
  Cu  Cu1  1  0.66666700  0.33333300  -0.00000000  1
  Cu  Cu2  1  0.50000000  0.00000000  0.50000000  1
  Cu  Cu3  1  0.50000000  0.50000000  0.50000000  1
  Cu  Cu4  1  -0.00000000  0.50000000  0.50000000  1
loop_
_geom_bond_atom_site_label_1
_geom_bond_atom_site_label_2
_geom_bond_distance
_geom_bond_site_symmetry_2
Cu0 Cu4 2.496779 1_554
Cu0 Cu4 2.496779 1_555
Cu0 Cu2 2.496780 1_564
Cu0 Cu2 2.496780 1_565
Cu0 Cu3 2.496782 1_555
Cu0 Cu3 2.496782 1_554
Cu0 Sm0 2.904465 1_565
Cu0 Cu1 2.904465 1_455
Cu0 Cu1 2.904465 1_565
Cu0 Sm0 2.904469 1_665
Cu0 Sm0 2.904470 1_555
Cu0 Cu1 2.904473 1_555
Cu1 Cu4 2.496779 1_655
Cu1 Cu4 2.496779 1_654
Cu1 Cu2 2.496780 1_554
Cu1 Cu2 2.496780 1_555
Cu1 Cu3 2.496782 1_555
Cu1 Cu3 2.496782 1_554
Cu1 Sm0 2.904465 1_655
Cu1 Sm0 2.904469 1_555
Cu1 Sm0 2.904470 1_665
Cu2 Cu3 2.515343 1_555
Cu2 Cu3 2.515343 1_545
Cu2 Cu4 2.515343 1_655
Cu2 Cu4 2.515343 1_545
Cu2 Sm0 3.232936 1_556
Cu2 Sm0 3.232936 1_555
Cu2 Sm0 3.232936 1_656
Cu2 Sm0 3.232936 1_655
Cu3 Cu4 2.515343 1_655
Cu3 Cu4 2.515343 1_555
Cu3 Sm0 3.232937 1_556
Cu3 Sm0 3.232937 1_555
Cu3 Sm0 3.232937 1_665
Cu3 Sm0 3.232937 1_666
Cu4 Sm0 3.232936 1_565
Cu4 Sm0 3.232936 1_556
Cu4 Sm0 3.232936 1_555
Cu4 Sm0 3.232936 1_566
