# generated using pymatgen
data_Na15Ta8Zn4Si9(PO8)9
_symmetry_space_group_name_H-M   'P 1'
_cell_length_a   9.00529507
_cell_length_b   8.99707740
_cell_length_c   22.39038076
_cell_angle_alpha   89.76410365
_cell_angle_beta   89.93772177
_cell_angle_gamma   120.14874115
_symmetry_Int_Tables_number   1
_chemical_formula_structural   Na15Ta8Zn4Si9(PO8)9
_chemical_formula_sum   'Na15 Ta8 Zn4 Si9 P9 O72'
_cell_volume   1568.67170866
_cell_formula_units_Z   1
loop_
 _symmetry_equiv_pos_site_id
 _symmetry_equiv_pos_as_xyz
  1  'x, y, z'
loop_
 _atom_site_type_symbol
 _atom_site_label
 _atom_site_symmetry_multiplicity
 _atom_site_fract_x
 _atom_site_fract_y
 _atom_site_fract_z
 _atom_site_occupancy
  Na  Na0  1  0.64330748  0.02105711  0.23858794  1
  Na  Na1  1  0.98034663  0.62120392  0.23869682  1
  Na  Na2  1  0.63769845  0.61950284  0.73800599  1
  Na  Na3  1  0.37354973  0.02151060  0.74065386  1
  Na  Na4  1  0.31956115  0.34054382  0.58958393  1
  Na  Na5  1  0.96086841  0.68422818  0.91092503  1
  Na  Na6  1  0.71515653  0.03206513  0.90976976  1
  Na  Na7  1  0.95831425  0.28009787  0.40997434  1
  Na  Na8  1  0.71056354  0.68095583  0.40763208  1
  Na  Na9  1  0.01400286  0.99147204  0.49159613  1
  Na  Na10  1  0.01729658  0.01242591  0.99214896  1
  Na  Na11  1  0.66902383  0.33315040  0.82216115  1
  Na  Na12  1  0.63111832  0.32284673  0.32278677  1
  Na  Na13  1  0.33353401  0.65460388  0.16152928  1
  Na  Na14  1  0.31106665  0.66658051  0.66274038  1
  Ta  Ta0  1  0.99721577  0.99972111  0.64480433  1
  Ta  Ta1  1  0.00117671  0.99895915  0.14403466  1
  Ta  Ta2  1  0.66333717  0.33416448  0.98224374  1
  Ta  Ta3  1  0.66619367  0.33408496  0.48150082  1
  Ta  Ta4  1  0.33749631  0.67482244  0.02210090  1
  Ta  Ta5  1  0.32743009  0.66560829  0.52146601  1
  Ta  Ta6  1  0.33065538  0.66180691  0.31123009  1
  Ta  Ta7  1  0.33505361  0.66519122  0.81206814  1
  Zn  Zn0  1  0.02194342  0.00357807  0.35439405  1
  Zn  Zn1  1  0.00530514  0.00047546  0.85452195  1
  Zn  Zn2  1  0.67172610  0.33248131  0.67556819  1
  Zn  Zn3  1  0.66067852  0.33088297  0.17590810  1
  Si  Si0  1  0.95400078  0.33314644  0.58505498  1
  Si  Si1  1  0.37656472  0.03906022  0.58870252  1
  Si  Si2  1  0.66767707  0.62518353  0.58558514  1
  Si  Si3  1  0.95828976  0.62258447  0.08750469  1
  Si  Si4  1  0.66976512  0.04306441  0.08701710  1
  Si  Si5  1  0.62010449  0.65870919  0.91642169  1
  Si  Si6  1  0.33881705  0.96399049  0.91547381  1
  Si  Si7  1  0.33596959  0.37351200  0.41785763  1
  Si  Si8  1  0.03852753  0.66421997  0.41546406  1
  P  P0  1  0.29294018  0.00117897  0.25147628  1
  P  P1  1  0.70891826  0.71257132  0.25346967  1
  P  P2  1  0.00549957  0.28793093  0.25428817  1
  P  P3  1  0.28383766  0.29068039  0.75232631  1
  P  P4  1  0.00033061  0.70786263  0.75374463  1
  P  P5  1  0.70997835  -0.00052800  0.75520543  1
  P  P6  1  0.37528005  0.33442332  0.08516434  1
  P  P7  1  0.04421345  0.38254955  0.91887630  1
  P  P8  1  0.61193921  0.95823958  0.41542416  1
  O  O0  1  0.21265550  0.01135766  0.30902562  1
  O  O1  1  0.80359332  0.79234858  0.31127112  1
  O  O2  1  0.98851478  0.19083657  0.31184847  1
  O  O3  1  0.19240590  0.18025111  0.80560762  1
  O  O4  1  0.98361216  0.78289030  0.81256787  1
  O  O5  1  0.79613787  0.00358689  0.81373779  1
  O  O6  1  0.81084884  0.98052408  0.70094606  1
  O  O7  1  0.18388520  0.20517474  0.69281910  1
  O  O8  1  0.02633616  0.83523208  0.70045005  1
  O  O9  1  0.81219732  0.83444666  0.19875068  1
  O  O10  1  0.02397835  0.19376235  0.19868810  1
  O  O11  1  0.17500356  0.97827908  0.19633744  1
  O  O12  1  0.88568259  0.37803452  0.64260576  1
  O  O13  1  0.47382208  0.10919222  0.65014220  1
  O  O14  1  0.60924127  0.50452512  0.64356193  1
  O  O15  1  0.88410909  0.52034748  0.14823925  1
  O  O16  1  0.63413501  0.11137411  0.14727169  1
  O  O17  1  0.48057971  0.37115429  0.14080402  1
  O  O18  1  0.46609464  0.30706382  0.02894439  1
  O  O19  1  0.83209177  0.52575360  0.02872419  1
  O  O20  1  0.68984691  0.16470170  0.02789733  1
  O  O21  1  0.47892738  0.17406344  0.53211986  1
  O  O22  1  0.69921402  0.53105686  0.52647555  1
  O  O23  1  0.83934614  0.30354087  0.52345536  1
  O  O24  1  0.50732604  0.66856520  0.97118715  1
  O  O25  1  0.15032477  0.47579464  0.97367376  1
  O  O26  1  0.32283708  0.83788657  0.97162688  1
  O  O27  1  0.51267045  0.84268304  0.46866394  1
  O  O28  1  0.32928976  0.48118737  0.47533948  1
  O  O29  1  0.15761712  0.67279579  0.47168371  1
  O  O30  1  0.13936382  0.64372163  0.35547671  1
  O  O31  1  0.50775044  0.87117866  0.35682507  1
  O  O32  1  0.36395969  0.50611466  0.35958976  1
  O  O33  1  0.13751601  0.49786433  0.86210581  1
  O  O34  1  0.36305429  0.86311595  0.85592398  1
  O  O35  1  0.50263694  0.63702115  0.85533847  1
  O  O36  1  0.00245892  0.82011797  0.41503100  1
  O  O37  1  0.78935501  0.97722688  0.41453040  1
  O  O38  1  0.16146794  0.19410309  0.41652392  1
  O  O39  1  0.01204034  0.20137902  0.91533293  1
  O  O40  1  0.16882342  0.97594355  0.91484365  1
  O  O41  1  0.80556842  0.83001895  0.91650366  1
  O  O42  1  0.97661149  0.16084059  0.59270624  1
  O  O43  1  0.18659770  0.02976623  0.59157254  1
  O  O44  1  0.84144927  0.81340696  0.59410418  1
  O  O45  1  0.98089812  0.81816321  0.09226567  1
  O  O46  1  0.84653857  0.02908945  0.09174291  1
  O  O47  1  0.19618173  0.16667867  0.09009681  1
  O  O48  1  0.67229431  0.14489738  0.75004797  1
  O  O49  1  0.46796809  0.32344290  0.75021614  1
  O  O50  1  0.84322438  0.53178203  0.74547225  1
  O  O51  1  0.68111931  0.53294152  0.24620922  1
  O  O52  1  0.85418384  0.31968866  0.24983865  1
  O  O53  1  0.47586799  0.15033313  0.24527704  1
  O  O54  1  0.64191565  0.48853218  0.92232530  1
  O  O55  1  0.86763522  0.37897028  0.92218399  1
  O  O56  1  0.52264177  0.14420169  0.92203959  1
  O  O57  1  0.62545688  0.13631041  0.42075277  1
  O  O58  1  0.51612759  0.36935651  0.42145547  1
  O  O59  1  0.85467141  0.47946717  0.42018563  1
  O  O60  1  0.34178501  0.48404656  0.07285475  1
  O  O61  1  0.15093162  0.65081782  0.07490977  1
  O  O62  1  0.50952683  0.84522833  0.07463462  1
  O  O63  1  0.34305096  0.84696388  0.57467648  1
  O  O64  1  0.50821644  0.65896902  0.57147898  1
  O  O65  1  0.15629062  0.48862359  0.57479891  1
  O  O66  1  0.30019008  0.82477909  0.25168959  1
  O  O67  1  0.53190141  0.71303048  0.25276833  1
  O  O68  1  0.17712928  0.47407077  0.25464819  1
  O  O69  1  0.29500587  0.47329992  0.75457466  1
  O  O70  1  0.17503667  0.70308870  0.75363060  1
  O  O71  1  0.52635706  0.81999674  0.75266173  1
loop_
_geom_bond_atom_site_label_1
_geom_bond_atom_site_label_2
_geom_bond_distance
_geom_bond_site_symmetry_2
Na0 O16 2.213966 1_555
Na0 O53 2.326250 1_555
Na0 O52 2.402093 1_555
Na0 O67 2.446808 1_545
Na0 O66 2.695297 1_545
Na0 O9 2.915819 1_545
Na0 O31 2.937211 1_545
Na1 O15 2.214870 1_555
Na1 O52 2.368542 1_555
Na1 O51 2.401752 1_555
Na1 O66 2.538187 1_655
Na1 O68 2.715523 1_655
Na1 O11 2.933904 1_655
Na1 O30 2.941027 1_655
Na2 O14 2.315251 1_555
Na2 O49 2.325850 1_555
Na2 O50 2.354410 1_555
Na2 O71 2.487542 1_555
Na2 O69 2.703231 1_555
Na2 O6 2.925367 1_555
Na2 O35 2.931711 1_555
Na3 O13 2.193647 1_555
Na3 O48 2.348921 1_555
Na3 O49 2.415215 1_555
Na3 O70 2.516985 1_545
Na3 O71 2.784931 1_545
Na4 O43 2.426862 1_555
Na4 O65 2.451823 1_555
Na4 O64 2.521531 1_555
Na4 O14 2.568655 1_555
Na4 O7 2.606720 1_555
Na4 O42 2.672043 1_455
Na4 O28 2.830832 1_555
Na4 O21 2.851264 1_555
Na5 O40 2.338431 1_655
Na5 O4 2.340968 1_555
Na5 O41 2.352794 1_555
Na5 O55 2.447230 1_555
Na5 O54 2.515930 1_555
Na6 O39 2.322739 1_655
Na6 O5 2.325858 1_555
Na6 O41 2.339835 1_545
Na6 O56 2.420144 1_555
Na6 O55 2.721620 1_555
Na7 O38 2.321315 1_655
Na7 O37 2.362938 1_545
Na7 O2 2.403889 1_555
Na7 O59 2.413605 1_555
Na7 O57 2.611013 1_555
Na7 O23 2.806034 1_555
Na8 O36 2.280648 1_655
Na8 O1 2.344399 1_555
Na8 O37 2.395075 1_555
Na8 O58 2.466172 1_555
Na8 O59 2.721967 1_555
Na8 O32 2.909153 1_555
Na8 O22 2.956580 1_555
Na9 O36 2.277645 1_555
Na9 O38 2.334650 1_565
Na9 O37 2.614471 1_455
Na9 O43 2.649790 1_565
Na9 O44 2.776772 1_455
Na9 O42 2.846539 1_465
Na10 O40 2.327050 1_545
Na10 O39 2.430525 1_555
Na10 O41 2.466612 1_445
Na10 O47 2.667915 1_556
Na10 O45 2.752800 1_446
Na10 O46 2.754381 1_456
Na11 O48 2.355667 1_555
Na11 O49 2.393607 1_555
Na11 O50 2.399137 1_555
Na11 O56 2.709248 1_555
Na11 O54 2.722341 1_555
Na11 O55 2.767694 1_555
Na12 O53 2.285449 1_555
Na12 O51 2.415014 1_555
Na12 O58 2.562424 1_555
Na12 O52 2.598911 1_555
Na12 O57 2.741195 1_555
Na12 O59 2.824825 1_555
Na13 O61 2.533343 1_555
Na13 O60 2.538031 1_555
Na13 O62 2.544422 1_555
Na13 O68 2.576208 1_555
Na13 O67 2.591191 1_555
Na13 O66 2.644911 1_555
Na14 O63 2.471364 1_555
Na14 O70 2.480776 1_555
Na14 O65 2.484674 1_555
Na14 O69 2.643889 1_555
Na14 O71 2.657244 1_555
Na14 O64 2.729009 1_555
O0 P0 1.502304 1_555
O0 Zn0 1.964989 1_555
O1 P1 1.520646 1_555
O1 Zn0 2.162386 1_665
O2 P2 1.517760 1_655
O2 Zn0 2.081691 1_655
O3 P3 1.501553 1_555
O3 Zn1 1.974446 1_555
O4 P4 1.523809 1_655
O4 Zn1 2.093869 1_665
O5 P5 1.514829 1_555
O5 Zn1 2.106932 1_655
O6 P5 1.576390 1_565
O6 Ta0 2.032013 1_555
O7 P3 1.578846 1_555
O7 Ta0 2.073035 1_445
O8 P4 1.584469 1_555
O8 Ta0 2.046127 1_455
O9 P1 1.590749 1_555
O9 Ta1 2.009521 1_655
O10 P2 1.563700 1_555
O10 Ta1 2.065951 1_545
O11 P0 1.574719 1_565
O11 Ta1 2.037438 1_555
O12 Si0 1.566588 1_555
O12 Zn2 1.904262 1_555
O13 Si1 1.585025 1_555
O13 Zn2 1.987807 1_555
O14 Si2 1.597996 1_555
O14 Zn2 2.023067 1_555
O15 Si3 1.584957 1_555
O15 Zn3 1.970103 1_555
O16 Si4 1.582647 1_555
O16 Zn3 1.976157 1_555
O17 P6 1.500526 1_555
O17 Zn3 1.992521 1_555
O18 P6 1.586341 1_555
O18 Ta2 1.966376 1_554
O19 Si3 1.673571 1_555
O19 Ta2 1.936676 1_554
O20 Si4 1.664735 1_555
O20 Ta2 1.944175 1_554
O21 Si1 1.670395 1_555
O21 Ta3 1.935156 1_555
O22 Si2 1.673157 1_555
O22 Ta3 1.931081 1_555
O23 Si0 1.664082 1_555
O23 Ta3 1.954692 1_555
O24 Si5 1.622214 1_555
O24 Ta4 1.930002 1_556
O25 P7 1.525795 1_555
O25 Ta4 2.052169 1_556
O26 Si6 1.646992 1_555
O26 Ta4 1.904790 1_556
O27 P8 1.534585 1_555
O27 Ta5 2.007295 1_555
O28 Si7 1.633166 1_555
O28 Ta5 1.965205 1_555
O29 Si8 1.631323 1_555
O29 Ta5 1.920302 1_555
O30 Si8 1.682326 1_555
O30 Ta6 1.920636 1_555
O31 P8 1.577424 1_555
O31 Ta6 2.033653 1_555
O32 Si7 1.695098 1_555
O32 Ta6 1.906509 1_555
O33 P7 1.584068 1_555
O33 Ta7 1.994430 1_555
O34 Si6 1.690399 1_555
O34 Ta7 1.939781 1_555
O35 Si5 1.680958 1_555
O35 Ta7 1.914613 1_555
O36 Si8 1.590749 1_555
O36 Zn0 2.070917 1_565
O37 P8 1.519182 1_555
O37 Zn0 2.397641 1_665
O38 Si7 1.590084 1_555
O38 Zn0 2.076591 1_555
O39 P7 1.507942 1_555
O39 Zn1 2.243907 1_555
O40 Si6 1.587655 1_555
O40 Zn1 2.090357 1_565
O41 Si5 1.606010 1_555
O41 Zn1 2.172413 1_665
O42 Si0 1.670043 1_555
O42 Ta0 1.937323 1_545
O43 Si1 1.671429 1_555
O43 Ta0 1.982932 1_445
O44 Si2 1.641453 1_555
O44 Ta0 1.929619 1_555
O45 Si3 1.670589 1_555
O45 Ta1 1.934029 1_655
O46 Si4 1.662063 1_555
O46 Ta1 1.940024 1_645
O47 P6 1.563440 1_555
O47 Ta1 2.034193 1_545
O48 P5 1.511710 1_555
O48 Zn2 2.369576 1_555
O49 P3 1.532100 1_555
O49 Zn2 2.451402 1_555
O50 P4 1.515668 1_655
O50 Zn2 2.301491 1_555
O51 P1 1.515542 1_555
O51 Zn3 2.346172 1_555
O52 P2 1.529547 1_655
O52 Zn3 2.442954 1_555
O53 P0 1.520255 1_555
O53 Zn3 2.253652 1_555
O54 Si5 1.643405 1_555
O54 Ta2 2.005085 1_555
O55 P7 1.575865 1_655
O55 Ta2 2.144947 1_555
O56 Si6 1.642321 1_545
O56 Ta2 2.047180 1_555
O57 P8 1.549689 1_545
O57 Ta3 2.125135 1_555
O58 Si7 1.643526 1_555
O58 Ta3 2.041001 1_555
O59 Si8 1.658057 1_655
O59 Ta3 2.055864 1_555
O60 P6 1.544061 1_555
O60 Ta4 2.071142 1_555
O61 Si3 1.645986 1_455
O61 Ta4 1.973949 1_555
O62 Si4 1.658990 1_565
O62 Ta4 1.940902 1_555
O63 Si1 1.630177 1_565
O63 Ta5 1.971646 1_555
O64 Si2 1.640999 1_555
O64 Ta5 2.002283 1_555
O65 Si0 1.662757 1_455
O65 Ta5 1.962645 1_555
O66 P0 1.620845 1_565
O66 Ta6 2.095531 1_555
O67 P1 1.596262 1_555
O67 Ta6 2.088324 1_555
O68 P2 1.610481 1_555
O68 Ta6 2.011252 1_555
O69 P3 1.595914 1_555
O69 Ta7 2.040037 1_555
O70 P4 1.595284 1_555
O70 Ta7 2.097312 1_555
O71 P5 1.632119 1_565
O71 Ta7 2.060712 1_555
