# generated using pymatgen
data_Sr4MgV2Fe2(AsO3)2
_symmetry_space_group_name_H-M   'P 1'
_cell_length_a   3.94279617
_cell_length_b   4.04530322
_cell_length_c   19.38534565
_cell_angle_alpha   90.00000000
_cell_angle_beta   90.00000000
_cell_angle_gamma   90.00000000
_symmetry_Int_Tables_number   1
_chemical_formula_structural   Sr4MgV2Fe2(AsO3)2
_chemical_formula_sum   'Sr4 Mg1 V2 Fe2 As2 O6'
_cell_volume   309.19250318
_cell_formula_units_Z   1
loop_
 _symmetry_equiv_pos_site_id
 _symmetry_equiv_pos_as_xyz
  1  'x, y, z'
loop_
 _atom_site_type_symbol
 _atom_site_label
 _atom_site_symmetry_multiplicity
 _atom_site_fract_x
 _atom_site_fract_y
 _atom_site_fract_z
 _atom_site_occupancy
  Sr  Sr0  1  0.25000000  0.25000000  0.78965137  1
  Sr  Sr1  1  0.75000000  0.75000000  0.10901913  1
  Sr  Sr2  1  0.25000000  0.25000000  0.60476711  1
  Sr  Sr3  1  0.75000000  0.75000000  0.46693467  1
  Mg  Mg0  1  0.75000000  0.75000000  0.30293780  1
  V  V0  1  0.75000000  0.75000000  0.69210336  1
  V  V1  1  0.25000000  0.25000000  0.37071401  1
  Fe  Fe0  1  0.25000000  0.75000000  0.95320856  1
  Fe  Fe1  1  0.75000000  0.25000000  0.95204799  1
  As  As0  1  0.75000000  0.75000000  0.86667965  1
  As  As1  1  0.25000000  0.25000000  0.04137460  1
  O  O0  1  0.25000000  0.75000000  0.70250391  1
  O  O1  1  0.75000000  0.25000000  0.70008386  1
  O  O2  1  0.75000000  0.25000000  0.34708202  1
  O  O3  1  0.25000000  0.75000000  0.35391948  1
  O  O4  1  0.75000000  0.75000000  0.58648641  1
  O  O5  1  0.25000000  0.25000000  0.47001006  1
loop_
_geom_bond_atom_site_label_1
_geom_bond_atom_site_label_2
_geom_bond_distance
_geom_bond_site_symmetry_2
Mg0 O2 2.196231 1_555
Mg0 O2 2.196231 1_565
Mg0 O3 2.205253 1_555
Mg0 O3 2.205253 1_655
Mg0 Sr1 3.759180 1_555
As0 Fe0 2.588447 1_555
As0 Fe0 2.588447 1_655
As0 Fe1 2.613388 1_565
As0 Fe1 2.613388 1_555
As0 Sr0 3.194876 1_555
As0 Sr0 3.194876 1_565
As0 Sr0 3.194876 1_665
As0 Sr0 3.194876 1_655
As1 Fe1 2.623918 1_554
As1 Fe1 2.623918 1_454
As1 Fe0 2.648064 1_544
As1 Fe0 2.648064 1_554
As1 Sr1 3.114012 1_455
As1 Sr1 3.114012 1_555
As1 Sr1 3.114012 1_445
As1 Sr1 3.114012 1_545
O0 V0 1.981681 1_555
O0 V0 1.981681 1_455
O0 Sr0 2.635363 1_555
O0 Sr0 2.635363 1_565
O0 Sr2 2.771437 1_565
O0 Sr2 2.771437 1_555
O1 V0 2.028559 1_545
O1 V0 2.028559 1_555
O1 Sr0 2.627002 1_655
O1 Sr0 2.627002 1_555
O1 Sr2 2.701959 1_555
O1 Sr2 2.701959 1_655
O2 V1 2.023927 1_555
O2 V1 2.023927 1_655
O3 V1 2.048686 1_555
O3 V1 2.048686 1_565
O3 Sr3 2.947233 1_455
O3 Sr3 2.947233 1_555
O4 V0 2.047421 1_555
O4 Sr3 2.317552 1_555
O4 Sr2 2.846597 1_565
O4 Sr2 2.846597 1_655
O4 Sr2 2.846597 1_665
O4 Sr2 2.846597 1_555
O5 V1 1.924888 1_555
O5 Sr2 2.612312 1_555
O5 Sr3 2.825081 1_445
O5 Sr3 2.825081 1_455
O5 Sr3 2.825081 1_555
O5 Sr3 2.825081 1_545
