# generated using pymatgen
data_Nd(GeRu)2
_symmetry_space_group_name_H-M   'P 1'
_cell_length_a   4.27314998
_cell_length_b   4.27314997
_cell_length_c   5.85251569
_cell_angle_alpha   111.41186040
_cell_angle_beta   111.41186202
_cell_angle_gamma   90.00000495
_symmetry_Int_Tables_number   1
_chemical_formula_structural   Nd(GeRu)2
_chemical_formula_sum   'Nd1 Ge2 Ru2'
_cell_volume   91.52161186
_cell_formula_units_Z   1
loop_
 _symmetry_equiv_pos_site_id
 _symmetry_equiv_pos_as_xyz
  1  'x, y, z'
loop_
 _atom_site_type_symbol
 _atom_site_label
 _atom_site_symmetry_multiplicity
 _atom_site_fract_x
 _atom_site_fract_y
 _atom_site_fract_z
 _atom_site_occupancy
  Nd  Nd0  1  -0.00000000  -0.00000000  -0.00000000  1
  Ge  Ge0  1  0.63399627  0.63399627  0.26799353  1
  Ge  Ge1  1  0.36600373  0.36600373  0.73200647  1
  Ru  Ru0  1  0.75000000  0.25000000  0.50000000  1
  Ru  Ru1  1  0.25000000  0.75000000  0.50000000  1
loop_
_geom_bond_atom_site_label_1
_geom_bond_atom_site_label_2
_geom_bond_distance
_geom_bond_site_symmetry_2
Nd0 Ru0 3.293245 1_555
Nd0 Ru1 3.293245 1_444
Nd0 Ru0 3.293245 1_444
Nd0 Ru1 3.293245 1_555
Nd0 Ru1 3.293245 1_545
Nd0 Ru0 3.293245 1_454
Nd0 Ru1 3.293245 1_544
Nd0 Ru0 3.293245 1_455
Ge0 Ru0 2.432527 1_555
Ge0 Ru1 2.432527 1_555
Ge0 Ru1 2.432531 1_655
Ge0 Ru0 2.432531 1_565
Ge0 Ge1 2.686468 1_554
Ge0 Nd0 3.306685 1_555
Ge0 Nd0 3.306688 1_565
Ge0 Nd0 3.306688 1_655
Ge0 Nd0 3.306690 1_665
Ge1 Ru1 2.432527 1_555
Ge1 Ru0 2.432527 1_555
Ge1 Ru0 2.432531 1_455
Ge1 Ru1 2.432531 1_545
Ge1 Nd0 3.306685 1_666
Ge1 Nd0 3.306688 1_656
Ge1 Nd0 3.306688 1_566
Ge1 Nd0 3.306690 1_556
