# generated using pymatgen
data_MgFe2(CoO3)4
_symmetry_space_group_name_H-M   'P 1'
_cell_length_a   4.99592549
_cell_length_b   4.98802858
_cell_length_c   9.84444971
_cell_angle_alpha   97.81699392
_cell_angle_beta   93.89322659
_cell_angle_gamma   60.05227144
_symmetry_Int_Tables_number   1
_chemical_formula_structural   MgFe2(CoO3)4
_chemical_formula_sum   'Mg1 Fe2 Co4 O12'
_cell_volume   210.59155157
_cell_formula_units_Z   1
loop_
 _symmetry_equiv_pos_site_id
 _symmetry_equiv_pos_as_xyz
  1  'x, y, z'
loop_
 _atom_site_type_symbol
 _atom_site_label
 _atom_site_symmetry_multiplicity
 _atom_site_fract_x
 _atom_site_fract_y
 _atom_site_fract_z
 _atom_site_occupancy
  Mg  Mg0  1  1.00000000  0.08876197  0.24721468  1
  Fe  Fe0  1  0.00000000  0.00523824  0.95731364  1
  Fe  Fe1  1  1.00000000  0.49406946  0.51764126  1
  Co  Co0  1  0.33344228  0.35307448  0.01047541  1
  Co  Co1  1  0.33325082  0.82053020  0.50131074  1
  Co  Co2  1  0.66674918  0.15377902  0.50131074  1
  Co  Co3  1  0.66655772  0.68651576  0.01047541  1
  O  O0  1  1.00000000  0.14981354  0.60329507  1
  O  O1  1  0.00000000  0.36860478  0.10448008  1
  O  O2  1  0.00000000  0.61623847  0.90297959  1
  O  O3  1  0.37437910  0.99126751  0.90402731  1
  O  O4  1  1.00000000  0.81551498  0.39523056  1
  O  O5  1  0.32745447  0.11606456  0.39793397  1
  O  O6  1  0.35646250  0.51701413  0.60004490  1
  O  O7  1  0.32336049  0.72125507  0.10407473  1
  O  O8  1  0.67663951  0.04461555  0.10407473  1
  O  O9  1  0.62562090  0.36564661  0.90402731  1
  O  O10  1  0.67254553  0.44351903  0.39793397  1
  O  O11  1  0.64353750  0.87347662  0.60004490  1
loop_
_geom_bond_atom_site_label_1
_geom_bond_atom_site_label_2
_geom_bond_distance
_geom_bond_site_symmetry_2
Mg0 O1 2.111019 1_655
Mg0 O4 2.126299 1_545
Mg0 O8 2.146061 1_555
Mg0 O7 2.146061 1_645
Mg0 O5 2.175823 1_655
Mg0 O10 2.175823 1_555
Fe0 O2 1.941317 1_545
Fe0 O9 1.942029 1_455
Fe0 O3 1.942029 1_545
Fe0 O7 2.158406 1_546
Fe0 O8 2.158406 1_456
Fe0 O1 2.160960 1_556
Fe1 O6 1.955684 1_655
Fe1 O11 1.955684 1_555
Fe1 O0 2.013333 1_555
Fe1 O10 2.048864 1_555
Fe1 O5 2.048864 1_655
Fe1 O4 2.132744 1_555
Co0 O3 1.882307 1_544
Co0 O9 1.884090 1_554
Co0 O2 1.890305 1_554
Co0 O7 1.917792 1_555
Co0 O8 1.921811 1_555
Co0 O1 1.923143 1_555
Co1 O6 1.860088 1_555
Co1 O0 1.877704 1_465
Co1 O11 1.884633 1_555
Co1 O5 1.889725 1_565
Co1 O4 1.913491 1_455
Co1 O10 1.994110 1_555
Co2 O11 1.860079 1_545
Co2 O0 1.877707 1_555
Co2 O6 1.884637 1_555
Co2 O10 1.889733 1_555
Co2 O4 1.913487 1_545
Co2 O5 1.994105 1_555
Co3 O9 1.882303 1_554
Co3 O3 1.884092 1_554
Co3 O2 1.890307 1_654
Co3 O8 1.917797 1_565
Co3 O7 1.921809 1_555
Co3 O1 1.923140 1_655
