# generated using pymatgen
data_TiCoGe
_symmetry_space_group_name_H-M   'P 1'
_cell_length_a   6.16737014
_cell_length_b   6.16753494
_cell_length_c   3.69345868
_cell_angle_alpha   90.00000000
_cell_angle_beta   90.00000000
_cell_angle_gamma   120.00104876
_symmetry_Int_Tables_number   1
_chemical_formula_structural   TiCoGe
_chemical_formula_sum   'Ti3 Co3 Ge3'
_cell_volume   121.66647314
_cell_formula_units_Z   3
loop_
 _symmetry_equiv_pos_site_id
 _symmetry_equiv_pos_as_xyz
  1  'x, y, z'
loop_
 _atom_site_type_symbol
 _atom_site_label
 _atom_site_symmetry_multiplicity
 _atom_site_fract_x
 _atom_site_fract_y
 _atom_site_fract_z
 _atom_site_occupancy
  Ti  Ti0  1  0.56904996  0.00001943  0.50000000  1
  Ti  Ti1  1  0.43094738  0.43096675  0.50000000  1
  Ti  Ti2  1  0.99999974  0.56903723  0.50000000  1
  Co  Co0  1  0.24476307  0.99999587  0.00000000  1
  Co  Co1  1  0.75524129  0.75523712  0.00000000  1
  Co  Co2  1  -0.00000023  0.24474010  0.00000000  1
  Ge  Ge0  1  0.33336523  0.66671414  0.00000000  1
  Ge  Ge1  1  0.66663389  0.33333577  0.00000000  1
  Ge  Ge2  1  -0.00000134  0.99995360  0.50000000  1
loop_
_geom_bond_atom_site_label_1
_geom_bond_atom_site_label_2
_geom_bond_distance
_geom_bond_site_symmetry_2
Co0 Ge1 2.376334 1_565
Co0 Ge0 2.376353 1_555
Co0 Ge2 2.385113 1_554
Co0 Ge2 2.385113 1_555
Co0 Co1 2.614557 1_455
Co0 Co2 2.614557 1_565
Co0 Ti0 2.722151 1_564
Co0 Ti0 2.722151 1_565
Co0 Ti2 2.956589 1_455
Co0 Ti2 2.956589 1_454
Co0 Ti1 2.956656 1_565
Co0 Ti1 2.956656 1_564
Co1 Ge0 2.376385 1_555
Co1 Ge1 2.376445 1_555
Co1 Ge2 2.385086 1_655
Co1 Ge2 2.385086 1_654
Co1 Co2 2.614526 1_665
Co1 Ti1 2.722180 1_555
Co1 Ti1 2.722180 1_554
Co1 Ti2 2.956591 1_554
Co1 Ti2 2.956591 1_555
Co1 Ti0 2.956670 1_565
Co1 Ti0 2.956670 1_564
Co2 Ge1 2.376791 1_455
Co2 Ge0 2.376834 1_555
Co2 Ge2 2.385305 1_544
Co2 Ge2 2.385305 1_545
Co2 Ti2 2.722290 1_455
Co2 Ti2 2.722290 1_454
Co2 Ti1 2.956487 1_555
Co2 Ti1 2.956487 1_554
Co2 Ti0 2.956495 1_455
Co2 Ti0 2.956495 1_454
Ge0 Ti0 2.600171 1_565
Ge0 Ti0 2.600171 1_564
Ge0 Ti1 2.600333 1_554
Ge0 Ti1 2.600333 1_555
Ge0 Ti2 2.600345 1_455
Ge0 Ti2 2.600345 1_454
Ge1 Ti1 2.600215 1_555
Ge1 Ti1 2.600215 1_554
Ge1 Ti0 2.600274 1_555
Ge1 Ti0 2.600274 1_554
Ge1 Ti2 2.600358 1_554
Ge1 Ti2 2.600358 1_555
Ge2 Ti2 2.657695 1_455
Ge2 Ti1 2.658012 1_565
Ge2 Ti0 2.658023 1_465
