# generated using pymatgen
data_RbGdH2S2O9
_symmetry_space_group_name_H-M   'P 1'
_cell_length_a   8.41444700
_cell_length_b   10.36662500
_cell_length_c   10.77969166
_cell_angle_alpha   62.23495993
_cell_angle_beta   90.00000000
_cell_angle_gamma   90.00000000
_symmetry_Int_Tables_number   1
_chemical_formula_structural   RbGdH2S2O9
_chemical_formula_sum   'Rb4 Gd4 H8 S8 O36'
_cell_volume   832.04441997
_cell_formula_units_Z   4
loop_
 _symmetry_equiv_pos_site_id
 _symmetry_equiv_pos_as_xyz
  1  'x, y, z'
loop_
 _atom_site_type_symbol
 _atom_site_label
 _atom_site_symmetry_multiplicity
 _atom_site_fract_x
 _atom_site_fract_y
 _atom_site_fract_z
 _atom_site_occupancy
  Rb  Rb0  1  0.18799400  0.23251700  0.28274500  1
  Rb  Rb1  1  0.68799400  0.76748300  0.21725500  1
  Rb  Rb2  1  0.81200600  0.76748300  0.71725500  1
  Rb  Rb3  1  0.31200600  0.23251700  0.78274500  1
  Gd  Gd0  1  0.64968700  0.25033400  0.47581800  1
  Gd  Gd1  1  0.14968700  0.74966600  0.02418200  1
  Gd  Gd2  1  0.35031300  0.74966600  0.52418200  1
  Gd  Gd3  1  0.85031300  0.25033400  0.97581800  1
  H  H0  1  0.96990600  0.19734800  0.57656400  1
  H  H1  1  0.46990600  0.80265200  0.92343600  1
  H  H2  1  0.03009400  0.80265200  0.42343600  1
  H  H3  1  0.53009400  0.19734800  0.07656400  1
  H  H4  1  0.00600600  0.35886600  0.47331300  1
  H  H5  1  0.50600600  0.64113400  0.02668700  1
  H  H6  1  0.99399400  0.64113400  0.52668700  1
  H  H7  1  0.49399400  0.35886600  0.97331300  1
  S  S0  1  0.79886700  0.49354400  0.12287000  1
  S  S1  1  0.29886700  0.50645600  0.37713000  1
  S  S2  1  0.20113300  0.50645600  0.87713000  1
  S  S3  1  0.70113300  0.49354400  0.62287000  1
  S  S4  1  0.64824700  0.04746600  0.33612600  1
  S  S5  1  0.14824700  0.95253400  0.16387400  1
  S  S6  1  0.35175300  0.95253400  0.66387400  1
  S  S7  1  0.85175300  0.04746600  0.83612600  1
  O  O0  1  0.94170700  0.27376900  0.48316600  1
  O  O1  1  0.44170700  0.72623100  0.01683400  1
  O  O2  1  0.05829300  0.72623100  0.51683400  1
  O  O3  1  0.55829300  0.27376900  0.98316600  1
  O  O4  1  0.67995700  0.55649700  0.00968200  1
  O  O5  1  0.17995700  0.44350300  0.49031800  1
  O  O6  1  0.87843900  0.36599200  0.11915100  1
  O  O7  1  0.32004300  0.44350300  0.99031800  1
  O  O8  1  0.96478500  0.17038100  0.80429000  1
  O  O9  1  0.46478500  0.82961900  0.69571000  1
  O  O10  1  0.03521500  0.82961900  0.19571000  1
  O  O11  1  0.53521500  0.17038100  0.30429000  1
  O  O12  1  0.93680300  0.90526800  0.89408200  1
  O  O13  1  0.43680300  0.09473200  0.60591800  1
  O  O14  1  0.06319700  0.09473200  0.10591800  1
  O  O15  1  0.56319700  0.90526800  0.39408200  1
  O  O16  1  0.76731700  0.06671300  0.70781500  1
  O  O17  1  0.26731700  0.93328700  0.79218500  1
  O  O18  1  0.23268300  0.93328700  0.29218500  1
  O  O19  1  0.73268300  0.06671300  0.20781500  1
  O  O20  1  0.73876200  0.04855300  0.94311300  1
  O  O21  1  0.23876200  0.95144700  0.55688700  1
  O  O22  1  0.26123800  0.95144700  0.05688700  1
  O  O23  1  0.76123800  0.04855300  0.44311300  1
  O  O24  1  0.58112300  0.60500400  0.60819800  1
  O  O25  1  0.08112300  0.39499600  0.89180200  1
  O  O26  1  0.41887700  0.39499600  0.39180200  1
  O  O27  1  0.91887700  0.60500400  0.10819800  1
  O  O28  1  0.77786000  0.44387000  0.76273600  1
  O  O29  1  0.27786000  0.55613000  0.73726400  1
  O  O30  1  0.22214000  0.55613000  0.23726400  1
  O  O31  1  0.72214000  0.44387000  0.26273600  1
  O  O32  1  0.62156100  0.36599200  0.61915100  1
  O  O33  1  0.12156100  0.63400800  0.88084900  1
  O  O34  1  0.37843900  0.63400800  0.38084900  1
  O  O35  1  0.82004300  0.55649700  0.50968200  1
loop_
_geom_bond_atom_site_label_1
_geom_bond_atom_site_label_2
_geom_bond_distance
_geom_bond_site_symmetry_2
Gd0 O31 2.319344 1_555
Gd0 O26 2.361290 1_555
Gd0 O32 2.367879 1_555
Gd0 O13 2.381150 1_555
Gd0 O23 2.463331 1_555
Gd0 O0 2.474064 1_555
Gd0 O16 2.534188 1_555
Gd0 O11 2.541949 1_555
Gd1 O30 2.319344 1_555
Gd1 O27 2.361290 1_455
Gd1 O33 2.367879 1_554
Gd1 O12 2.381150 1_454
Gd1 O22 2.463331 1_555
Gd1 O1 2.474064 1_555
Gd1 O17 2.534188 1_554
Gd1 O10 2.541949 1_555
Gd2 O29 2.319344 1_555
Gd2 O24 2.361290 1_555
Gd2 O34 2.367879 1_555
Gd2 O15 2.381150 1_555
Gd2 O21 2.463331 1_555
Gd2 O2 2.474064 1_555
Gd2 O18 2.534188 1_555
Gd2 O9 2.541949 1_555
Gd3 O28 2.319344 1_555
Gd3 O25 2.361290 1_655
Gd3 O6 2.367879 1_556
Gd3 O14 2.381150 1_656
Gd3 O20 2.463331 1_555
Gd3 O3 2.474064 1_555
Gd3 O19 2.534188 1_556
Gd3 O8 2.541949 1_555
H0 O0 0.976955 1_555
H1 O1 0.976955 1_556
H2 O2 0.976955 1_555
H3 O3 0.976955 1_554
H4 O0 0.997462 1_455
H5 O1 0.997462 1_555
H6 O2 0.997462 1_655
H7 O3 0.997462 1_555
O0 Rb0 3.163235 1_655
O1 Rb1 3.163235 1_555
O2 Rb2 3.163235 1_455
O3 Rb3 3.163235 1_555
O4 S0 1.474403 1_555
O4 Rb2 3.087324 1_554
O5 S1 1.474403 1_555
O5 Rb3 3.087324 1_555
O6 S0 1.499244 1_555
O6 Rb0 3.087991 1_655
O7 S2 1.474403 1_555
O7 Rb0 3.087324 1_556
O8 S7 1.496186 1_555
O8 Rb3 2.977523 1_655
O9 S6 1.496186 1_555
O9 Rb2 2.977523 1_555
O10 S5 1.496186 1_555
O10 Rb1 2.977523 1_455
O11 S4 1.496186 1_555
O11 Rb0 2.977523 1_555
O12 S7 1.489104 1_565
O12 Rb2 3.051720 1_555
O13 S6 1.489104 1_545
O13 Rb3 3.051720 1_555
O14 S5 1.489104 1_545
O14 Rb0 3.051720 1_555
O15 S4 1.489104 1_565
O15 Rb1 3.051720 1_555
O16 S7 1.483436 1_555
O16 Rb2 3.078976 1_545
O17 S6 1.483436 1_555
O17 Rb3 3.078976 1_565
O18 S5 1.483436 1_555
O18 Rb0 3.078976 1_565
O19 S4 1.483436 1_555
O19 Rb1 3.078976 1_545
O20 S7 1.498748 1_555
O20 Rb1 3.063163 1_546
O21 S6 1.498748 1_555
O21 Rb0 3.063163 1_565
O22 S5 1.498748 1_555
O22 Rb3 3.063163 1_564
O23 S4 1.498748 1_555
O23 Rb2 3.063163 1_545
O24 S3 1.486465 1_555
O24 Rb2 3.136601 1_555
O25 S2 1.486465 1_555
O25 Rb3 3.136601 1_555
O26 S1 1.486465 1_555
O26 Rb0 3.136601 1_555
O27 S0 1.486465 1_555
O27 Rb1 3.136601 1_555
O28 S3 1.493929 1_555
O28 Rb2 3.169389 1_555
O29 S2 1.493929 1_555
O29 Rb3 3.169389 1_555
O30 S1 1.493929 1_555
O30 Rb0 3.169389 1_555
O31 S0 1.493929 1_555
O31 Rb1 3.169389 1_555
O32 S3 1.499244 1_555
O32 Rb3 3.087991 1_555
O33 S2 1.499244 1_555
O33 Rb2 3.087991 1_455
O34 S1 1.499244 1_555
O34 Rb1 3.087991 1_555
O35 S3 1.474403 1_555
O35 Rb1 3.087324 1_555
