# generated using pymatgen
data_Li7Cr4P9O32
_symmetry_space_group_name_H-M   'P 1'
_cell_length_a   13.75806600
_cell_length_b   13.75806600
_cell_length_c   6.32616400
_cell_angle_alpha   90.00000000
_cell_angle_beta   90.00000000
_cell_angle_gamma   90.00000000
_symmetry_Int_Tables_number   1
_chemical_formula_structural   Li7Cr4P9O32
_chemical_formula_sum   'Li14 Cr8 P18 O64'
_cell_volume   1197.44403090
_cell_formula_units_Z   2
loop_
 _symmetry_equiv_pos_site_id
 _symmetry_equiv_pos_as_xyz
  1  'x, y, z'
loop_
 _atom_site_type_symbol
 _atom_site_label
 _atom_site_symmetry_multiplicity
 _atom_site_fract_x
 _atom_site_fract_y
 _atom_site_fract_z
 _atom_site_occupancy
  Li  Li0  1  0.00000000  0.00000000  0.00000000  1
  Li  Li1  1  0.89650300  0.25516900  0.82674600  1
  Li  Li2  1  0.75516900  0.39650300  0.32674600  1
  Li  Li3  1  0.74483100  0.89650300  0.17325400  1
  Li  Li4  1  0.60349700  0.75516900  0.67325400  1
  Li  Li5  1  0.50000000  0.50000000  0.50000000  1
  Li  Li6  1  0.50000000  0.00000000  0.86004900  1
  Li  Li7  1  0.50000000  0.00000000  0.36004900  1
  Li  Li8  1  0.39650300  0.24483100  0.67325400  1
  Li  Li9  1  0.00000000  0.50000000  0.13995100  1
  Li  Li10  1  0.00000000  0.50000000  0.63995100  1
  Li  Li11  1  0.10349700  0.74483100  0.82674600  1
  Li  Li12  1  0.24483100  0.60349700  0.32674600  1
  Li  Li13  1  0.25516900  0.10349700  0.17325400  1
  Cr  Cr0  1  0.87895000  0.80359500  0.62019000  1
  Cr  Cr1  1  0.80359500  0.12105000  0.37981000  1
  Cr  Cr2  1  0.69640500  0.62105000  0.12019000  1
  Cr  Cr3  1  0.62105000  0.30359500  0.87981000  1
  Cr  Cr4  1  0.37895000  0.69640500  0.87981000  1
  Cr  Cr5  1  0.30359500  0.37895000  0.12019000  1
  Cr  Cr6  1  0.19640500  0.87895000  0.37981000  1
  Cr  Cr7  1  0.12105000  0.19640500  0.62019000  1
  P  P0  1  0.50000000  0.50000000  0.00000000  1
  P  P1  1  0.55979700  0.80553000  0.11404100  1
  P  P2  1  0.60879600  0.25225600  0.36921300  1
  P  P3  1  0.69447000  0.94020300  0.61404100  1
  P  P4  1  0.74774400  0.60879600  0.63078700  1
  P  P5  1  0.75225600  0.10879600  0.86921300  1
  P  P6  1  0.80553000  0.44020300  0.88595900  1
  P  P7  1  0.89120400  0.75225600  0.13078700  1
  P  P8  1  0.00000000  0.00000000  0.50000000  1
  P  P9  1  0.05979700  0.69447000  0.38595900  1
  P  P10  1  0.10879600  0.24774400  0.13078700  1
  P  P11  1  0.19447000  0.55979700  0.88595900  1
  P  P12  1  0.24774400  0.89120400  0.86921300  1
  P  P13  1  0.25225600  0.39120400  0.63078700  1
  P  P14  1  0.30553000  0.05979700  0.61404100  1
  P  P15  1  0.39120400  0.74774400  0.36921300  1
  P  P16  1  0.44020300  0.19447000  0.11404100  1
  P  P17  1  0.94020300  0.30553000  0.38595900  1
  O  O0  1  0.56275300  0.43633200  0.84879600  1
  O  O1  1  0.89183800  0.81281200  0.92987900  1
  O  O2  1  0.91547600  0.44116300  0.89326800  1
  O  O3  1  0.94116300  0.41547600  0.39326800  1
  O  O4  1  0.93724700  0.93633200  0.65120400  1
  O  O5  1  0.93633200  0.06275300  0.34879600  1
  O  O6  1  0.98766300  0.25416700  0.57632800  1
  O  O7  1  0.99497900  0.27256100  0.16841100  1
  O  O8  1  0.00502100  0.72743900  0.16841100  1
  O  O9  1  0.01233700  0.74583300  0.57632800  1
  O  O10  1  0.06366800  0.93724700  0.34879600  1
  O  O11  1  0.06275300  0.06366800  0.65120400  1
  O  O12  1  0.05883700  0.58452400  0.39326800  1
  O  O13  1  0.08452400  0.55883700  0.89326800  1
  O  O14  1  0.10816200  0.18718800  0.92987900  1
  O  O15  1  0.14098200  0.18034600  0.31151100  1
  O  O16  1  0.15595600  0.33753700  0.62019200  1
  O  O17  1  0.16246300  0.34404400  0.12019200  1
  O  O18  1  0.16386700  0.73376600  0.35318000  1
  O  O19  1  0.18034600  0.85901800  0.68848900  1
  O  O20  1  0.18718800  0.89183800  0.07012100  1
  O  O21  1  0.22743900  0.50502100  0.66841100  1
  O  O22  1  0.23376600  0.66386700  0.85318000  1
  O  O23  1  0.24583300  0.51233700  0.07632800  1
  O  O24  1  0.25416700  0.01233700  0.42367200  1
  O  O25  1  0.26623400  0.16386700  0.64682000  1
  O  O26  1  0.27256100  0.00502100  0.83158900  1
  O  O27  1  0.31281200  0.39183800  0.42987900  1
  O  O28  1  0.31965400  0.35901800  0.81151100  1
  O  O29  1  0.33613300  0.23376600  0.14682000  1
  O  O30  1  0.33753700  0.84404400  0.37980800  1
  O  O31  1  0.34404400  0.83753700  0.87980800  1
  O  O32  1  0.35901800  0.68034600  0.18848900  1
  O  O33  1  0.39183800  0.68718800  0.57012100  1
  O  O34  1  0.41547600  0.05883700  0.60673200  1
  O  O35  1  0.44116300  0.08452400  0.10673200  1
  O  O36  1  0.43724700  0.56366800  0.84879600  1
  O  O37  1  0.43633200  0.43724700  0.15120400  1
  O  O38  1  0.48766300  0.24583300  0.92367200  1
  O  O39  1  0.49497900  0.22743900  0.33158900  1
  O  O40  1  0.50502100  0.77256100  0.33158900  1
  O  O41  1  0.51233700  0.75416700  0.92367200  1
  O  O42  1  0.56366800  0.56275300  0.15120400  1
  O  O43  1  0.85901800  0.81965400  0.31151100  1
  O  O44  1  0.55883700  0.91547600  0.10673200  1
  O  O45  1  0.58452400  0.94116300  0.60673200  1
  O  O46  1  0.60816200  0.31281200  0.57012100  1
  O  O47  1  0.64098200  0.31965400  0.18848900  1
  O  O48  1  0.65595600  0.16246300  0.87980800  1
  O  O49  1  0.66246300  0.15595600  0.37980800  1
  O  O50  1  0.66386700  0.76623400  0.14682000  1
  O  O51  1  0.68034600  0.64098200  0.81151100  1
  O  O52  1  0.68718800  0.60816200  0.42987900  1
  O  O53  1  0.72743900  0.99497900  0.83158900  1
  O  O54  1  0.73376600  0.83613300  0.64682000  1
  O  O55  1  0.74583300  0.98766300  0.42367200  1
  O  O56  1  0.84404400  0.66246300  0.62019200  1
  O  O57  1  0.76623400  0.33613300  0.85318000  1
  O  O58  1  0.77256100  0.49497900  0.66841100  1
  O  O59  1  0.81281200  0.10816200  0.07012100  1
  O  O60  1  0.81965400  0.14098200  0.68848900  1
  O  O61  1  0.83613300  0.26623400  0.35318000  1
  O  O62  1  0.83753700  0.65595600  0.12019200  1
  O  O63  1  0.75416700  0.48766300  0.07632800  1
loop_
_geom_bond_atom_site_label_1
_geom_bond_atom_site_label_2
_geom_bond_distance
_geom_bond_site_symmetry_2
Li0 O11 2.526163 1_554
Li0 O5 2.526163 1_455
Li0 O10 2.526163 1_545
Li0 O4 2.526163 1_444
Li1 O6 2.020597 1_555
Li1 O60 2.085875 1_555
Li1 O57 2.116817 1_555
Li1 O7 2.562151 1_556
Li2 O63 2.020597 1_555
Li2 O47 2.085875 1_555
Li2 O61 2.116817 1_555
Li2 O58 2.562151 1_555
Li3 O55 2.020597 1_555
Li3 O43 2.085875 1_555
Li3 O50 2.116817 1_555
Li3 O53 2.562151 1_554
Li4 O41 2.020597 1_555
Li4 O51 2.085875 1_555
Li4 O54 2.116817 1_555
Li4 O40 2.562151 1_555
Li5 O42 2.526163 1_555
Li5 O0 2.526163 1_555
Li5 O36 2.526163 1_555
Li5 O37 2.526163 1_555
Li6 O44 2.107821 1_546
Li6 O35 2.107821 1_556
Li6 O45 2.139078 1_545
Li6 O34 2.139078 1_555
Li7 O45 2.107821 1_545
Li7 O34 2.107821 1_555
Li7 O44 2.139078 1_545
Li7 O35 2.139078 1_555
Li8 O38 2.020597 1_555
Li8 O28 2.085875 1_555
Li8 O25 2.116817 1_555
Li8 O39 2.562151 1_555
Li9 O13 2.107821 1_554
Li9 O2 2.107821 1_454
Li9 O12 2.139078 1_555
Li9 O3 2.139078 1_455
Li10 O12 2.107821 1_555
Li10 O3 2.107821 1_455
Li10 O13 2.139078 1_555
Li10 O2 2.139078 1_455
Li11 O9 2.020597 1_555
Li11 O19 2.085875 1_555
Li11 O22 2.116817 1_555
Li11 O8 2.562151 1_556
Li12 O23 2.020597 1_555
Li12 O32 2.085875 1_555
Li12 O18 2.116817 1_555
Li12 O21 2.562151 1_555
Li13 O24 2.020597 1_555
Li13 O15 2.085875 1_555
Li13 O29 2.116817 1_555
Li13 O26 2.562151 1_554
Cr0 O1 1.971234 1_555
Cr0 O43 1.984254 1_555
Cr0 O56 2.000210 1_555
Cr0 O4 2.004197 1_555
Cr0 O9 2.018984 1_655
Cr0 O54 2.053921 1_555
Cr1 O59 1.971234 1_555
Cr1 O60 1.984254 1_555
Cr1 O49 2.000210 1_555
Cr1 O5 2.004197 1_555
Cr1 O55 2.018984 1_545
Cr1 O61 2.053921 1_555
Cr2 O52 1.971234 1_555
Cr2 O51 1.984254 1_554
Cr2 O62 2.000210 1_555
Cr2 O42 2.004197 1_555
Cr2 O63 2.018984 1_555
Cr2 O50 2.053921 1_555
Cr3 O46 1.971234 1_555
Cr3 O47 1.984254 1_556
Cr3 O48 2.000210 1_555
Cr3 O0 2.004197 1_555
Cr3 O38 2.018984 1_555
Cr3 O57 2.053921 1_555
Cr4 O33 1.971234 1_555
Cr4 O32 1.984254 1_556
Cr4 O31 2.000210 1_555
Cr4 O36 2.004197 1_555
Cr4 O41 2.018984 1_555
Cr4 O22 2.053921 1_555
Cr5 O27 1.971234 1_555
Cr5 O28 1.984254 1_554
Cr5 O17 2.000210 1_555
Cr5 O37 2.004197 1_555
Cr5 O23 2.018984 1_555
Cr5 O29 2.053921 1_555
Cr6 O20 1.971234 1_555
Cr6 O19 1.984254 1_555
Cr6 O30 2.000210 1_555
Cr6 O10 2.004197 1_555
Cr6 O24 2.018984 1_565
Cr6 O18 2.053921 1_555
Cr7 O14 1.971234 1_555
Cr7 O15 1.984254 1_555
Cr7 O16 2.000210 1_555
Cr7 O11 2.004197 1_555
Cr7 O6 2.018984 1_455
Cr7 O25 2.053921 1_555
O0 P0 1.558091 1_556
O1 P7 1.519727 1_556
O2 P6 1.513408 1_555
O3 P17 1.513408 1_555
O4 P8 1.558091 1_665
O5 P8 1.558091 1_655
O6 P17 1.541450 1_555
O7 P10 1.620271 1_655
O7 P17 1.633317 1_555
O8 P7 1.620271 1_455
O8 P9 1.633317 1_555
O9 P9 1.541450 1_555
O10 P8 1.558091 1_565
O11 P8 1.558091 1_555
O12 P9 1.513408 1_555
O13 P11 1.513408 1_555
O14 P10 1.519727 1_556
O15 P10 1.537212 1_555
O16 P13 1.518231 1_555
O17 P10 1.518231 1_555
O18 P9 1.544456 1_555
O19 P12 1.537212 1_555
O20 P12 1.519727 1_554
O21 P13 1.620271 1_555
O21 P11 1.633317 1_555
O22 P11 1.544456 1_555
O23 P11 1.541450 1_554
O24 P14 1.541450 1_555
O25 P14 1.544456 1_555
O26 P12 1.620271 1_545
O26 P14 1.633317 1_555
O27 P13 1.519727 1_555
O28 P13 1.537212 1_555
O29 P16 1.544456 1_555
O30 P15 1.518231 1_555
O31 P12 1.518231 1_555
O32 P15 1.537212 1_555
O33 P15 1.519727 1_555
O34 P14 1.513408 1_555
O35 P16 1.513408 1_555
O36 P0 1.558091 1_556
O37 P0 1.558091 1_555
O38 P16 1.541450 1_556
O39 P2 1.620271 1_555
O39 P16 1.633317 1_555
O40 P15 1.620271 1_555
O40 P1 1.633317 1_555
O41 P1 1.541450 1_556
O42 P0 1.558091 1_555
O43 P7 1.537212 1_555
O44 P1 1.513408 1_555
O45 P3 1.513408 1_555
O46 P2 1.519727 1_555
O47 P2 1.537212 1_555
O48 P5 1.518231 1_555
O49 P2 1.518231 1_555
O50 P1 1.544456 1_555
O51 P4 1.537212 1_555
O52 P4 1.519727 1_555
O53 P5 1.620271 1_565
O53 P3 1.633317 1_555
O54 P3 1.544456 1_555
O55 P3 1.541450 1_555
O56 P4 1.518231 1_555
O57 P6 1.544456 1_555
O58 P4 1.620271 1_555
O58 P6 1.633317 1_555
O59 P5 1.519727 1_554
O60 P5 1.537212 1_555
O61 P17 1.544456 1_555
O62 P7 1.518231 1_555
O63 P6 1.541450 1_554
