# generated using pymatgen
data_Fe4P7O24
_symmetry_space_group_name_H-M   'P 1'
_cell_length_a   10.28635900
_cell_length_b   10.36158208
_cell_length_c   10.77242221
_cell_angle_alpha   108.74546782
_cell_angle_beta   111.50916412
_cell_angle_gamma   104.93879006
_symmetry_Int_Tables_number   1
_chemical_formula_structural   Fe4P7O24
_chemical_formula_sum   'Fe8 P14 O48'
_cell_volume   914.99450672
_cell_formula_units_Z   2
loop_
 _symmetry_equiv_pos_site_id
 _symmetry_equiv_pos_as_xyz
  1  'x, y, z'
loop_
 _atom_site_type_symbol
 _atom_site_label
 _atom_site_symmetry_multiplicity
 _atom_site_fract_x
 _atom_site_fract_y
 _atom_site_fract_z
 _atom_site_occupancy
  Fe  Fe0  1  0.49955700  0.09893500  0.26011600  1
  Fe  Fe1  1  0.99926000  0.61896300  0.92276100  1
  Fe  Fe2  1  0.48864100  0.33645700  0.11515500  1
  Fe  Fe3  1  0.01242000  0.17410400  0.58746600  1
  Fe  Fe4  1  0.98758000  0.82589600  0.41253400  1
  Fe  Fe5  1  0.51135900  0.66354300  0.88484500  1
  Fe  Fe6  1  0.00074000  0.38103700  0.07723900  1
  Fe  Fe7  1  0.50044300  0.90106500  0.73988400  1
  P  P0  1  0.75091800  0.53963400  0.04915700  1
  P  P1  1  0.24908200  0.46036600  0.95084300  1
  P  P2  1  0.27078000  0.82324000  0.88454300  1
  P  P3  1  0.74886000  0.60777500  0.47624600  1
  P  P4  1  0.72922000  0.17676000  0.11545700  1
  P  P5  1  0.74032500  0.96539700  0.24172800  1
  P  P6  1  0.80464700  0.05939200  0.73928900  1
  P  P7  1  0.80702700  0.37788200  0.56692000  1
  P  P8  1  0.77006400  0.78011000  0.77059100  1
  P  P9  1  0.19297300  0.62211800  0.43308000  1
  P  P10  1  0.19535300  0.94060800  0.26071100  1
  P  P11  1  0.25967500  0.03460300  0.75827200  1
  P  P12  1  0.25114000  0.39222500  0.52375400  1
  P  P13  1  0.22993600  0.21989000  0.22940900  1
  O  O0  1  0.88249200  0.74109200  0.86756400  1
  O  O1  1  0.11968500  0.79192500  0.12045300  1
  O  O2  1  0.37058400  0.01490500  0.33441400  1
  O  O3  1  0.36126600  0.93884400  0.04832800  1
  O  O4  1  0.63585200  0.27689200  0.46015500  1
  O  O5  1  0.84334800  0.44260400  0.73034900  1
  O  O6  1  0.34666300  0.43158900  0.07704900  1
  O  O7  1  0.36460400  0.21749400  0.19960800  1
  O  O8  1  0.88031500  0.20807500  0.87954700  1
  O  O9  1  0.62941600  0.98509500  0.66558600  1
  O  O10  1  0.63873400  0.06115600  0.95167200  1
  O  O11  1  0.11750800  0.25890800  0.13243600  1
  O  O12  1  0.36414800  0.72310800  0.53984500  1
  O  O13  1  0.15665200  0.55739600  0.26965100  1
  O  O14  1  0.65333700  0.56841100  0.92295100  1
  O  O15  1  0.63539600  0.78250600  0.80039200  1
  O  O16  1  0.15203600  0.47700100  0.46702000  1
  O  O17  1  0.36956900  0.00391800  0.70163900  1
  O  O18  1  0.31057600  0.33836100  0.40464800  1
  O  O19  1  0.13715900  0.05899100  0.20889600  1
  O  O20  1  0.14198900  0.92842100  0.37151200  1
  O  O21  1  0.39278900  0.49870300  0.67371100  1
  O  O22  1  0.87353200  0.49982100  0.01073400  1
  O  O23  1  0.08732500  0.69337200  0.46011500  1
  O  O24  1  0.86282400  0.31611100  0.15523600  1
  O  O25  1  0.33990800  0.17566300  0.90669900  1
  O  O26  1  0.18642100  0.89556500  0.78620000  1
  O  O27  1  0.14713100  0.25127500  0.51133400  1
  O  O28  1  0.11750000  0.02456200  0.63042700  1
  O  O29  1  0.38059500  0.78323600  0.82488200  1
  O  O30  1  0.36255300  0.58899300  0.94886000  1
  O  O31  1  0.83994300  0.67750900  0.20453900  1
  O  O32  1  0.16005700  0.32249100  0.79546100  1
  O  O33  1  0.63744700  0.41100700  0.05114000  1
  O  O34  1  0.61940500  0.21676400  0.17511800  1
  O  O35  1  0.88250000  0.97543800  0.36957300  1
  O  O36  1  0.85286900  0.74872500  0.48866600  1
  O  O37  1  0.81357900  0.10443500  0.21380000  1
  O  O38  1  0.66009200  0.82433700  0.09330100  1
  O  O39  1  0.13717600  0.68388900  0.84476400  1
  O  O40  1  0.91267500  0.30662800  0.53988500  1
  O  O41  1  0.12646800  0.50017900  0.98926600  1
  O  O42  1  0.60721100  0.50129700  0.32628900  1
  O  O43  1  0.85801100  0.07157900  0.62848800  1
  O  O44  1  0.86284100  0.94100900  0.79110400  1
  O  O45  1  0.84796400  0.52299900  0.53298000  1
  O  O46  1  0.63043100  0.99608200  0.29836100  1
  O  O47  1  0.68942400  0.66163900  0.59535200  1
loop_
_geom_bond_atom_site_label_1
_geom_bond_atom_site_label_2
_geom_bond_distance
_geom_bond_site_symmetry_2
Fe0 O46 1.932091 1_545
Fe0 O2 1.946716 1_555
Fe0 O4 1.976639 1_555
Fe0 O3 1.987813 1_545
Fe0 O7 2.142746 1_555
Fe0 O34 2.149189 1_555
Fe1 O1 1.936358 1_656
Fe1 O5 1.955642 1_555
Fe1 O39 1.978999 1_655
Fe1 O0 2.034982 1_555
Fe1 O41 2.109486 1_655
Fe1 O22 2.218607 1_556
Fe2 O6 1.958490 1_555
Fe2 O25 1.980144 1_554
Fe2 O33 1.980401 1_555
Fe2 O42 1.993188 1_555
Fe2 O34 2.121900 1_555
Fe2 O7 2.176252 1_555
Fe3 O32 1.943545 1_555
Fe3 O43 1.947567 1_455
Fe3 O27 1.978811 1_555
Fe3 O40 1.998524 1_455
Fe3 O35 2.169972 1_445
Fe3 O28 2.177385 1_555
Fe4 O31 1.943545 1_555
Fe4 O20 1.947567 1_655
Fe4 O36 1.978811 1_555
Fe4 O23 1.998524 1_655
Fe4 O28 2.169972 1_665
Fe4 O35 2.177385 1_555
Fe5 O14 1.958490 1_555
Fe5 O38 1.980144 1_556
Fe5 O30 1.980401 1_555
Fe5 O21 1.993188 1_555
Fe5 O29 2.121900 1_555
Fe5 O15 2.176252 1_555
Fe6 O8 1.936358 1_454
Fe6 O13 1.955642 1_555
Fe6 O24 1.978999 1_455
Fe6 O11 2.034982 1_555
Fe6 O22 2.109486 1_455
Fe6 O41 2.218607 1_554
Fe7 O17 1.932091 1_565
Fe7 O9 1.946716 1_555
Fe7 O12 1.976639 1_555
Fe7 O10 1.987813 1_565
Fe7 O15 2.142746 1_555
Fe7 O29 2.149189 1_555
O0 P8 1.489547 1_555
O1 P10 1.511763 1_555
O2 P10 1.521278 1_545
O3 P2 1.508877 1_554
O4 P7 1.519734 1_555
O5 P7 1.522638 1_555
O6 P1 1.535889 1_554
O7 P13 1.536647 1_555
O8 P6 1.511763 1_555
O9 P6 1.521278 1_565
O10 P4 1.508877 1_556
O11 P13 1.489547 1_555
O12 P9 1.519734 1_555
O13 P9 1.522638 1_555
O14 P0 1.535889 1_556
O15 P8 1.536647 1_555
O16 P12 1.591920 1_555
O16 P9 1.646732 1_555
O17 P11 1.522316 1_555
O18 P13 1.611178 1_555
O18 P12 1.619388 1_555
O19 P13 1.589753 1_555
O19 P10 1.657750 1_545
O20 P10 1.511131 1_555
O21 P12 1.499820 1_555
O22 P0 1.572760 1_555
O23 P9 1.522645 1_555
O24 P4 1.518077 1_555
O25 P11 1.510737 1_555
O26 P2 1.615033 1_555
O26 P11 1.618304 1_565
O27 P12 1.503111 1_555
O28 P11 1.548812 1_555
O29 P2 1.569523 1_555
O30 P1 1.540670 1_555
O31 P0 1.531603 1_555
O32 P1 1.531603 1_555
O33 P0 1.540670 1_555
O34 P4 1.569523 1_555
O35 P5 1.548812 1_555
O36 P3 1.503111 1_555
O37 P4 1.615033 1_555
O37 P5 1.618304 1_545
O38 P5 1.510737 1_555
O39 P2 1.518077 1_555
O40 P7 1.522645 1_555
O41 P1 1.572760 1_555
O42 P3 1.499820 1_555
O43 P6 1.511131 1_555
O44 P8 1.589753 1_555
O44 P6 1.657750 1_565
O45 P3 1.591920 1_555
O45 P7 1.646732 1_555
O46 P5 1.522316 1_555
O47 P8 1.611178 1_555
O47 P3 1.619388 1_555
