# generated using pymatgen
data_K6Sn2Se7
_symmetry_space_group_name_H-M   'P 1'
_cell_length_a   12.57401400
_cell_length_b   17.35977200
_cell_length_c   20.07002539
_cell_angle_alpha   77.28194911
_cell_angle_beta   90.00000000
_cell_angle_gamma   90.00000000
_symmetry_Int_Tables_number   1
_chemical_formula_structural   K6Sn2Se7
_chemical_formula_sum   'K48 Sn16 Se56'
_cell_volume   4273.44061905
_cell_formula_units_Z   8
loop_
 _symmetry_equiv_pos_site_id
 _symmetry_equiv_pos_as_xyz
  1  'x, y, z'
loop_
 _atom_site_type_symbol
 _atom_site_label
 _atom_site_symmetry_multiplicity
 _atom_site_fract_x
 _atom_site_fract_y
 _atom_site_fract_z
 _atom_site_occupancy
  K  K0  1  0.04977500  0.35028300  0.31472900  1
  K  K1  1  0.54977500  0.64971700  0.18527100  1
  K  K2  1  0.95022500  0.64971700  0.68527100  1
  K  K3  1  0.45022500  0.35028300  0.81472900  1
  K  K4  1  0.11482300  0.87619500  0.05406800  1
  K  K5  1  0.61482300  0.12380500  0.44593200  1
  K  K6  1  0.88517700  0.12380500  0.94593200  1
  K  K7  1  0.38517700  0.87619500  0.55406800  1
  K  K8  1  0.83751800  0.25511200  0.74084600  1
  K  K9  1  0.33751800  0.74488800  0.75915400  1
  K  K10  1  0.16248200  0.74488800  0.25915400  1
  K  K11  1  0.66248200  0.25511200  0.24084600  1
  K  K12  1  0.32645600  0.19314900  0.47704000  1
  K  K13  1  0.82645600  0.80685100  0.02296000  1
  K  K14  1  0.67354400  0.80685100  0.52296000  1
  K  K15  1  0.17354400  0.19314900  0.97704000  1
  K  K16  1  0.07854200  0.37522000  0.83035800  1
  K  K17  1  0.57854200  0.62478000  0.66964200  1
  K  K18  1  0.92145800  0.62478000  0.16964200  1
  K  K19  1  0.42145800  0.37522000  0.33035800  1
  K  K20  1  0.06034800  0.36029400  0.57857700  1
  K  K21  1  0.56034800  0.63970600  0.92142300  1
  K  K22  1  0.93965200  0.63970600  0.42142300  1
  K  K23  1  0.43965200  0.36029400  0.07857700  1
  K  K24  1  0.22026500  0.00990300  0.87050900  1
  K  K25  1  0.72026500  0.99009700  0.62949100  1
  K  K26  1  0.77973500  0.99009700  0.12949100  1
  K  K27  1  0.27973500  0.00990300  0.37050900  1
  K  K28  1  0.04995600  0.78063100  0.84800700  1
  K  K29  1  0.54995600  0.21936900  0.65199300  1
  K  K30  1  0.95004400  0.21936900  0.15199300  1
  K  K31  1  0.45004400  0.78063100  0.34800700  1
  K  K32  1  0.76901100  0.45436900  0.30467300  1
  K  K33  1  0.26901100  0.54563100  0.19532700  1
  K  K34  1  0.23098900  0.54563100  0.69532700  1
  K  K35  1  0.73098900  0.45436900  0.80467300  1
  K  K36  1  0.99722000  0.03023700  0.73324900  1
  K  K37  1  0.49722000  0.96976300  0.76675100  1
  K  K38  1  0.00278000  0.96976300  0.26675100  1
  K  K39  1  0.50278000  0.03023700  0.23324900  1
  K  K40  1  0.97216900  0.13630300  0.46741400  1
  K  K41  1  0.47216900  0.86369700  0.03258600  1
  K  K42  1  0.02783100  0.86369700  0.53258600  1
  K  K43  1  0.52783100  0.13630300  0.96741400  1
  K  K44  1  0.39103700  0.43363900  0.55328000  1
  K  K45  1  0.89103700  0.56636100  0.94672000  1
  K  K46  1  0.60896300  0.56636100  0.44672000  1
  K  K47  1  0.10896300  0.43363900  0.05328000  1
  Sn  Sn0  1  0.23564900  0.21482300  0.74341700  1
  Sn  Sn1  1  0.73564900  0.78517700  0.75658300  1
  Sn  Sn2  1  0.76435100  0.78517700  0.25658300  1
  Sn  Sn3  1  0.26435100  0.21482300  0.24341700  1
  Sn  Sn4  1  0.27299800  0.03594800  0.62755400  1
  Sn  Sn5  1  0.77299800  0.96405200  0.87244600  1
  Sn  Sn6  1  0.72700200  0.96405200  0.37244600  1
  Sn  Sn7  1  0.22700200  0.03594800  0.12755400  1
  Sn  Sn8  1  0.21566900  0.51724200  0.39333400  1
  Sn  Sn9  1  0.71566900  0.48275800  0.10666600  1
  Sn  Sn10  1  0.78433100  0.48275800  0.60666600  1
  Sn  Sn11  1  0.28433100  0.51724200  0.89333400  1
  Sn  Sn12  1  0.25731300  0.69810300  0.50893000  1
  Sn  Sn13  1  0.75731300  0.30189700  0.99107000  1
  Sn  Sn14  1  0.74268700  0.30189700  0.49107000  1
  Sn  Sn15  1  0.24268700  0.69810300  0.00893000  1
  Se  Se0  1  0.18220800  0.01794800  0.51876300  1
  Se  Se1  1  0.68220800  0.98205200  0.98123700  1
  Se  Se2  1  0.81779200  0.98205200  0.48123700  1
  Se  Se3  1  0.31779200  0.01794800  0.01876300  1
  Se  Se4  1  0.17570300  0.16865100  0.63219200  1
  Se  Se5  1  0.67570300  0.83134900  0.86780800  1
  Se  Se6  1  0.82429700  0.83134900  0.36780800  1
  Se  Se7  1  0.32429700  0.16865100  0.13219200  1
  Se  Se8  1  0.21725200  0.36856600  0.44145400  1
  Se  Se9  1  0.71725200  0.63143400  0.05854600  1
  Se  Se10  1  0.78274800  0.63143400  0.55854600  1
  Se  Se11  1  0.28274800  0.36856600  0.94145400  1
  Se  Se12  1  0.16812000  0.56007400  0.50889800  1
  Se  Se13  1  0.66812000  0.43992600  0.99110200  1
  Se  Se14  1  0.83188000  0.43992600  0.49110200  1
  Se  Se15  1  0.33188000  0.56007400  0.00889800  1
  Se  Se16  1  0.24016200  0.93195300  0.73472400  1
  Se  Se17  1  0.74016200  0.06804700  0.76527600  1
  Se  Se18  1  0.75983800  0.06804700  0.26527600  1
  Se  Se19  1  0.25983800  0.93195300  0.23472400  1
  Se  Se20  1  0.07332100  0.18176700  0.82090000  1
  Se  Se21  1  0.57332100  0.81823300  0.67910000  1
  Se  Se22  1  0.92667900  0.81823300  0.17910000  1
  Se  Se23  1  0.42667900  0.18176700  0.32090000  1
  Se  Se24  1  0.40471400  0.15311300  0.79902700  1
  Se  Se25  1  0.90471400  0.84688700  0.70097300  1
  Se  Se26  1  0.59528600  0.84688700  0.20097300  1
  Se  Se27  1  0.09528600  0.15311300  0.29902700  1
  Se  Se28  1  0.06545100  0.55513500  0.30797800  1
  Se  Se29  1  0.56545100  0.44486500  0.19202200  1
  Se  Se30  1  0.93454900  0.44486500  0.69202200  1
  Se  Se31  1  0.43454900  0.55513500  0.80797800  1
  Se  Se32  1  0.46849700  0.06044300  0.59681800  1
  Se  Se33  1  0.96849700  0.93955700  0.90318200  1
  Se  Se34  1  0.53150300  0.93955700  0.40318200  1
  Se  Se35  1  0.03150300  0.06044300  0.09681800  1
  Se  Se36  1  0.25896000  0.36234900  0.69742400  1
  Se  Se37  1  0.75896000  0.63765100  0.80257600  1
  Se  Se38  1  0.74104000  0.63765100  0.30257600  1
  Se  Se39  1  0.24104000  0.36234900  0.19742400  1
  Se  Se40  1  0.39102500  0.57189600  0.34025400  1
  Se  Se41  1  0.89102500  0.42810400  0.15974600  1
  Se  Se42  1  0.60897500  0.42810400  0.65974600  1
  Se  Se43  1  0.10897500  0.57189600  0.84025400  1
  Se  Se44  1  0.81079000  0.27084800  0.38002200  1
  Se  Se45  1  0.31079000  0.72915200  0.11997800  1
  Se  Se46  1  0.18921000  0.72915200  0.61997800  1
  Se  Se47  1  0.68921000  0.27084800  0.88002200  1
  Se  Se48  1  0.54201600  0.31812500  0.48239000  1
  Se  Se49  1  0.04201600  0.68187500  0.01761000  1
  Se  Se50  1  0.45798400  0.68187500  0.51761000  1
  Se  Se51  1  0.95798400  0.31812500  0.98239000  1
  Se  Se52  1  0.80552000  0.19709200  0.59222800  1
  Se  Se53  1  0.30552000  0.80290800  0.90777200  1
  Se  Se54  1  0.19448000  0.80290800  0.40777200  1
  Se  Se55  1  0.69448000  0.19709200  0.09222800  1
loop_
_geom_bond_atom_site_label_1
_geom_bond_atom_site_label_2
_geom_bond_distance
_geom_bond_site_symmetry_2
K0 Se39 3.339672 1_555
K0 Se8 3.370394 1_555
K0 Se44 3.442844 1_455
K0 Se28 3.534332 1_555
K0 Se27 3.552108 1_555
K0 Se41 3.692511 1_455
K1 Se38 3.339672 1_555
K1 Se9 3.370394 1_555
K1 Se45 3.442844 1_555
K1 Se29 3.534332 1_555
K1 Se26 3.552108 1_555
K1 Se40 3.692511 1_555
K2 Se37 3.339672 1_555
K2 Se10 3.370394 1_555
K2 Se46 3.442844 1_655
K2 Se30 3.534332 1_555
K2 Se25 3.552108 1_555
K2 Se43 3.692511 1_655
K3 Se36 3.339672 1_555
K3 Se11 3.370394 1_555
K3 Se47 3.442844 1_555
K3 Se31 3.534332 1_555
K3 Se24 3.552108 1_555
K3 Se42 3.692511 1_555
K4 Se22 3.434299 1_455
K4 Se33 3.506994 1_454
K4 Se3 3.507600 1_565
K4 Se45 3.584795 1_555
K4 Se35 3.643146 1_565
K4 Sn7 3.695519 1_565
K4 Se49 3.720191 1_555
K4 Sn15 3.767893 1_555
K5 Se23 3.434299 1_555
K5 Se32 3.506994 1_555
K5 Se2 3.507600 1_545
K5 Se44 3.584795 1_555
K5 Se34 3.643146 1_545
K5 Sn6 3.695519 1_545
K5 Se48 3.720191 1_555
K5 Sn14 3.767893 1_555
K6 Se20 3.434299 1_655
K6 Se35 3.506994 1_656
K6 Se1 3.507600 1_545
K6 Se47 3.584795 1_555
K6 Se33 3.643146 1_545
K6 Sn5 3.695519 1_545
K6 Se51 3.720191 1_555
K6 Sn13 3.767893 1_555
K7 Se21 3.434299 1_555
K7 Se34 3.506994 1_555
K7 Se0 3.507600 1_565
K7 Se46 3.584795 1_555
K7 Se32 3.643146 1_565
K7 Sn4 3.695519 1_565
K7 Se50 3.720191 1_555
K7 Sn12 3.767893 1_555
K8 Se52 3.375806 1_555
K8 Se17 3.403459 1_555
K8 Se47 3.419139 1_555
K8 Se30 3.446507 1_555
K8 Se20 3.477504 1_655
K9 Se53 3.375806 1_555
K9 Se16 3.403459 1_555
K9 Se46 3.419139 1_555
K9 Se31 3.446507 1_555
K9 Se21 3.477504 1_555
K10 Se54 3.375806 1_555
K10 Se19 3.403459 1_555
K10 Se45 3.419139 1_555
K10 Se28 3.446507 1_555
K10 Se22 3.477504 1_455
K11 Se55 3.375806 1_555
K11 Se18 3.403459 1_555
K11 Se44 3.419139 1_555
K11 Se29 3.446507 1_555
K11 Se23 3.477504 1_555
K12 Se8 3.272797 1_555
K12 Se23 3.423460 1_555
K12 Se32 3.440587 1_555
K12 Se0 3.481380 1_555
K12 Se48 3.488213 1_555
K12 Se4 3.589897 1_555
K13 Se9 3.272797 1_555
K13 Se22 3.423460 1_555
K13 Se33 3.440587 1_554
K13 Se1 3.481380 1_554
K13 Se49 3.488213 1_655
K13 Se5 3.589897 1_554
K14 Se10 3.272797 1_555
K14 Se21 3.423460 1_555
K14 Se34 3.440587 1_555
K14 Se2 3.481380 1_555
K14 Se50 3.488213 1_555
K14 Se6 3.589897 1_555
K15 Se11 3.272797 1_555
K15 Se20 3.423460 1_555
K15 Se35 3.440587 1_556
K15 Se3 3.481380 1_556
K15 Se51 3.488213 1_455
K15 Se7 3.589897 1_556
K16 Se30 3.312150 1_455
K16 Se51 3.355453 1_455
K16 Se11 3.385931 1_555
K16 Se20 3.405761 1_555
K16 Se43 3.484475 1_555
K16 Se36 3.546409 1_555
K17 Se31 3.312150 1_555
K17 Se50 3.355453 1_555
K17 Se10 3.385931 1_555
K17 Se21 3.405761 1_555
K17 Se42 3.484475 1_555
K17 Se37 3.546409 1_555
K18 Se28 3.312150 1_655
K18 Se49 3.355453 1_655
K18 Se9 3.385931 1_555
K18 Se22 3.405761 1_555
K18 Se41 3.484475 1_555
K18 Se38 3.546409 1_555
K19 Se29 3.312150 1_555
K19 Se48 3.355453 1_555
K19 Se8 3.385931 1_555
K19 Se23 3.405761 1_555
K19 Se40 3.484475 1_555
K19 Se39 3.546409 1_555
K20 Se8 3.363457 1_555
K20 Se30 3.363531 1_455
K20 Se36 3.459042 1_555
K20 Se14 3.489609 1_455
K20 Se4 3.571224 1_555
K20 Se12 3.699258 1_555
K21 Se9 3.363457 1_556
K21 Se31 3.363531 1_555
K21 Se37 3.459042 1_555
K21 Se15 3.489609 1_556
K21 Se5 3.571224 1_555
K21 Se13 3.699258 1_555
K22 Se10 3.363457 1_555
K22 Se28 3.363531 1_655
K22 Se38 3.459042 1_555
K22 Se12 3.489609 1_655
K22 Se6 3.571224 1_555
K22 Se14 3.699258 1_555
K23 Se11 3.363457 1_554
K23 Se29 3.363531 1_555
K23 Se39 3.459042 1_555
K23 Se13 3.489609 1_554
K23 Se7 3.571224 1_555
K23 Se15 3.699258 1_555
K24 Se3 3.249565 1_556
K24 Se16 3.308206 1_545
K24 Se33 3.404496 1_445
K24 Se20 3.463909 1_555
K24 Se24 3.470940 1_555
K24 Se53 3.665738 1_545
K25 Se2 3.249565 1_555
K25 Se17 3.308206 1_565
K25 Se32 3.404496 1_565
K25 Se21 3.463909 1_555
K25 Se25 3.470940 1_555
K25 Se52 3.665738 1_565
K26 Se1 3.249565 1_554
K26 Se18 3.308206 1_565
K26 Se35 3.404496 1_665
K26 Se22 3.463909 1_555
K26 Se26 3.470940 1_555
K26 Se55 3.665738 1_565
K27 Se0 3.249565 1_555
K27 Se19 3.308206 1_545
K27 Se34 3.404496 1_545
K27 Se23 3.463909 1_555
K27 Se27 3.470940 1_555
K27 Se54 3.665738 1_545
K28 Se33 3.351448 1_455
K28 Se25 3.445576 1_455
K28 Se49 3.459246 1_556
K28 Se53 3.481224 1_555
K28 Se43 3.735454 1_555
K28 Se16 3.893605 1_555
K29 Se32 3.351448 1_555
K29 Se24 3.445576 1_555
K29 Se48 3.459246 1_555
K29 Se52 3.481224 1_555
K29 Se42 3.735454 1_555
K29 Se17 3.893605 1_555
K30 Se35 3.351448 1_655
K30 Se27 3.445576 1_655
K30 Se51 3.459246 1_554
K30 Se55 3.481224 1_555
K30 Se41 3.735454 1_555
K30 Se18 3.893605 1_555
K31 Se34 3.351448 1_555
K31 Se26 3.445576 1_555
K31 Se50 3.459246 1_555
K31 Se54 3.481224 1_555
K31 Se40 3.735454 1_555
K31 Se19 3.893605 1_555
K32 Se38 3.192168 1_555
K32 Se44 3.254443 1_555
K32 Se41 3.406773 1_555
K32 Se29 3.443044 1_555
K32 Se14 3.778167 1_555
K33 Se39 3.192168 1_555
K33 Se45 3.254443 1_555
K33 Se40 3.406773 1_555
K33 Se28 3.443044 1_555
K33 Se15 3.778167 1_555
K34 Se36 3.192168 1_555
K34 Se46 3.254443 1_555
K34 Se43 3.406773 1_555
K34 Se31 3.443044 1_555
K34 Se12 3.778167 1_555
K35 Se37 3.192168 1_555
K35 Se47 3.254443 1_555
K35 Se42 3.406773 1_555
K35 Se30 3.443044 1_555
K35 Se13 3.778167 1_555
K36 Se17 3.387803 1_555
K36 Se33 3.446225 1_545
K36 Se16 3.495890 1_645
K36 Se4 3.574648 1_655
K36 Se25 3.579297 1_545
K36 Se20 3.601039 1_655
K37 Se16 3.387803 1_555
K37 Se32 3.446225 1_565
K37 Se17 3.495890 1_565
K37 Se5 3.574648 1_555
K37 Se24 3.579297 1_565
K37 Se21 3.601039 1_555
K38 Se19 3.387803 1_555
K38 Se35 3.446225 1_565
K38 Se18 3.495890 1_465
K38 Se6 3.574648 1_455
K38 Se27 3.579297 1_565
K38 Se22 3.601039 1_455
K39 Se18 3.387803 1_555
K39 Se34 3.446225 1_545
K39 Se19 3.495890 1_545
K39 Se7 3.574648 1_555
K39 Se26 3.579297 1_545
K39 Se23 3.601039 1_555
K40 Se2 3.269296 1_545
K40 Se44 3.293253 1_555
K40 Se0 3.365452 1_655
K40 Se52 3.597722 1_555
K40 Se27 3.669972 1_655
K41 Se3 3.269296 1_565
K41 Se45 3.293253 1_555
K41 Se1 3.365452 1_554
K41 Se53 3.597722 1_554
K41 Se26 3.669972 1_555
K42 Se0 3.269296 1_565
K42 Se46 3.293253 1_555
K42 Se2 3.365452 1_455
K42 Se54 3.597722 1_555
K42 Se25 3.669972 1_455
K43 Se1 3.269296 1_545
K43 Se47 3.293253 1_555
K43 Se3 3.365452 1_556
K43 Se55 3.597722 1_556
K43 Se24 3.669972 1_555
K44 Se48 3.302373 1_555
K44 Se36 3.329043 1_555
K44 Se42 3.463263 1_555
K44 Se8 3.493500 1_555
K44 Se12 3.550591 1_555
K45 Se49 3.302373 1_656
K45 Se37 3.329043 1_555
K45 Se43 3.463263 1_655
K45 Se9 3.493500 1_556
K45 Se13 3.550591 1_555
K46 Se50 3.302373 1_555
K46 Se38 3.329043 1_555
K46 Se40 3.463263 1_555
K46 Se10 3.493500 1_555
K46 Se14 3.550591 1_555
K47 Se51 3.302373 1_454
K47 Se39 3.329043 1_555
K47 Se41 3.463263 1_455
K47 Se11 3.493500 1_554
K47 Se15 3.550591 1_555
Se0 Sn4 2.543362 1_555
Se1 Sn5 2.543362 1_555
Se2 Sn6 2.543362 1_555
Se3 Sn7 2.543362 1_555
Se4 Sn4 2.628073 1_555
Se4 Sn0 2.642263 1_555
Se5 Sn5 2.628073 1_555
Se5 Sn1 2.642263 1_555
Se6 Sn6 2.628073 1_555
Se6 Sn2 2.642263 1_555
Se7 Sn7 2.628073 1_555
Se7 Sn3 2.642263 1_555
Se8 Sn8 2.548931 1_555
Se9 Sn9 2.548931 1_555
Se10 Sn10 2.548931 1_555
Se11 Sn11 2.548931 1_555
Se12 Sn12 2.645754 1_555
Se12 Sn8 2.655027 1_555
Se13 Sn13 2.645754 1_555
Se13 Sn9 2.655027 1_556
Se14 Sn14 2.645754 1_555
Se14 Sn10 2.655027 1_555
Se15 Sn15 2.645754 1_555
Se15 Sn11 2.655027 1_554
Se16 Sn4 2.519191 1_565
Se17 Sn5 2.519191 1_545
Se18 Sn6 2.519191 1_545
Se19 Sn7 2.519191 1_565
Se20 Sn0 2.553589 1_555
Se21 Sn1 2.553589 1_555
Se22 Sn2 2.553589 1_555
Se23 Sn3 2.553589 1_555
Se24 Sn0 2.527049 1_555
Se25 Sn1 2.527049 1_555
Se26 Sn2 2.527049 1_555
Se27 Sn3 2.527049 1_555
Se28 Sn8 2.537512 1_555
Se29 Sn9 2.537512 1_555
Se30 Sn10 2.537512 1_555
Se31 Sn11 2.537512 1_555
Se32 Sn4 2.547280 1_555
Se33 Sn5 2.547280 1_555
Se34 Sn6 2.547280 1_555
Se35 Sn7 2.547280 1_555
Se36 Sn0 2.540848 1_555
Se37 Sn1 2.540848 1_555
Se38 Sn2 2.540848 1_555
Se39 Sn3 2.540848 1_555
Se40 Sn8 2.540031 1_555
Se41 Sn9 2.540031 1_555
Se42 Sn10 2.540031 1_555
Se43 Sn11 2.540031 1_555
Se44 Sn14 2.553434 1_555
Se45 Sn15 2.553434 1_555
Se46 Sn12 2.553434 1_555
Se47 Sn13 2.553434 1_555
Se48 Sn14 2.540638 1_555
Se49 Sn15 2.540638 1_555
Se50 Sn12 2.540638 1_555
Se51 Sn13 2.540638 1_555
Se52 Sn14 2.535717 1_555
Se53 Sn15 2.535717 1_556
Se54 Sn12 2.535717 1_555
Se55 Sn13 2.535717 1_554
