# generated using pymatgen
data_MgNiP2O7
_symmetry_space_group_name_H-M   'P 1'
_cell_length_a   5.68059007
_cell_length_b   5.54253133
_cell_length_c   5.04647264
_cell_angle_alpha   95.80586285
_cell_angle_beta   109.40689443
_cell_angle_gamma   73.90950663
_symmetry_Int_Tables_number   1
_chemical_formula_structural   MgNiP2O7
_chemical_formula_sum   'Mg1 Ni1 P2 O7'
_cell_volume   143.98192517
_cell_formula_units_Z   1
loop_
 _symmetry_equiv_pos_site_id
 _symmetry_equiv_pos_as_xyz
  1  'x, y, z'
loop_
 _atom_site_type_symbol
 _atom_site_label
 _atom_site_symmetry_multiplicity
 _atom_site_fract_x
 _atom_site_fract_y
 _atom_site_fract_z
 _atom_site_occupancy
  Mg  Mg0  1  0.49667356  0.17464747  0.87601616  1
  Ni  Ni0  1  0.09668531  0.05267799  0.06229788  1
  P  P0  1  0.28641078  0.68362793  0.56763159  1
  P  P1  1  0.65430386  0.27759570  0.42423158  1
  O  O0  1  0.77881981  0.12203517  0.69573182  1
  O  O1  1  0.23474077  0.47335066  0.69119652  1
  O  O2  1  0.80965746  0.26664661  0.22638671  1
  O  O3  1  0.32630738  0.89899439  0.78660975  1
  O  O4  1  0.57361610  0.56606152  0.52224727  1
  O  O5  1  0.10418996  0.77374678  0.27875510  1
  O  O6  1  0.40802802  0.19671578  0.24389464  1
loop_
_geom_bond_atom_site_label_1
_geom_bond_atom_site_label_2
_geom_bond_distance
_geom_bond_site_symmetry_2
Mg0 O1 1.962001 1_555
Mg0 O3 1.965795 1_545
Mg0 O0 2.034181 1_555
Mg0 O6 2.063069 1_556
Mg0 O2 2.185951 1_556
Ni0 O5 1.964507 1_545
Ni0 O6 2.040267 1_555
Ni0 O0 2.090349 1_454
Ni0 O2 2.092210 1_455
Ni0 O3 2.170925 1_544
O0 P1 1.542026 1_555
O1 P0 1.513799 1_555
O2 P1 1.524114 1_555
O3 P0 1.553720 1_555
O4 P1 1.611043 1_555
O4 P0 1.663631 1_555
O5 P0 1.517919 1_555
O6 P1 1.550922 1_555
