# generated using pymatgen
data_Na5CaSiGe3P5O24
_symmetry_space_group_name_H-M   'P 1'
_cell_length_a   8.76726481
_cell_length_b   8.73131517
_cell_length_c   21.84700454
_cell_angle_alpha   89.97669593
_cell_angle_beta   89.87984122
_cell_angle_gamma   120.00215355
_symmetry_Int_Tables_number   1
_chemical_formula_structural   Na5CaSiGe3P5O24
_chemical_formula_sum   'Na15 Ca3 Si3 Ge9 P15 O72'
_cell_volume   1448.28931565
_cell_formula_units_Z   3
loop_
 _symmetry_equiv_pos_site_id
 _symmetry_equiv_pos_as_xyz
  1  'x, y, z'
loop_
 _atom_site_type_symbol
 _atom_site_label
 _atom_site_symmetry_multiplicity
 _atom_site_fract_x
 _atom_site_fract_y
 _atom_site_fract_z
 _atom_site_occupancy
  Na  Na0  1  0.64688362  0.01232581  0.24506261  1
  Na  Na1  1  0.36557305  0.35341195  0.24468289  1
  Na  Na2  1  0.98885328  0.63764544  0.24535619  1
  Na  Na3  1  0.62709578  0.62018502  0.74878739  1
  Na  Na4  1  0.99263965  0.37295293  0.74889483  1
  Na  Na5  1  0.38239704  0.00797763  0.74560230  1
  Na  Na6  1  0.65928872  0.97725907  0.58356869  1
  Na  Na7  1  0.33223575  0.30173213  0.92362493  1
  Na  Na8  1  0.32414617  0.03313380  0.41523564  1
  Na  Na9  1  0.99930350  0.00015784  0.49892349  1
  Na  Na10  1  0.98491042  0.98869056  0.00023466  1
  Na  Na11  1  0.67821711  0.33519182  0.83945143  1
  Na  Na12  1  0.68010019  0.34560097  0.33228895  1
  Na  Na13  1  0.33363812  0.66831101  0.15805539  1
  Na  Na14  1  0.32023118  0.66089635  0.66129686  1
  Ca  Ca0  1  0.99265534  0.99964738  0.35950802  1
  Ca  Ca1  1  0.66623032  0.33265263  0.67912499  1
  Ca  Ca2  1  0.66885338  0.33401898  0.16956321  1
  Si  Si0  1  0.36235708  0.02899486  0.58278833  1
  Si  Si1  1  0.62576626  0.66691570  0.91739875  1
  Si  Si2  1  0.03812272  0.37761715  0.91695194  1
  Ge  Ge0  1  0.99357354  0.99730923  0.85963205  1
  Ge  Ge1  1  0.00719512  0.00002917  0.64350665  1
  Ge  Ge2  1  0.99759599  0.00107545  0.14283743  1
  Ge  Ge3  1  0.67971928  0.34329277  0.98281854  1
  Ge  Ge4  1  0.66496087  0.33601404  0.48337664  1
  Ge  Ge5  1  0.33621771  0.66417013  0.01454835  1
  Ge  Ge6  1  0.32963659  0.66428148  0.51934576  1
  Ge  Ge7  1  0.33143255  0.66336589  0.31537158  1
  Ge  Ge8  1  0.32966746  0.66070669  0.82111984  1
  P  P0  1  0.29023010  0.99240176  0.25206832  1
  P  P1  1  0.70263742  0.71011612  0.24963564  1
  P  P2  1  0.00773082  0.29806850  0.24928382  1
  P  P3  1  0.27432142  0.28460441  0.75346116  1
  P  P4  1  0.01087449  0.72629018  0.75382505  1
  P  P5  1  0.71471855  0.99095433  0.75287729  1
  P  P6  1  0.97105124  0.33597966  0.58359134  1
  P  P7  1  0.66586218  0.63367748  0.58308992  1
  P  P8  1  0.97864525  0.64187172  0.08193962  1
  P  P9  1  0.66215958  0.02544058  0.08149392  1
  P  P10  1  0.35949963  0.33438741  0.08164043  1
  P  P11  1  0.33540479  0.95471967  0.91602870  1
  P  P12  1  0.61254296  0.95859771  0.42065772  1
  P  P13  1  0.35330316  0.39410665  0.41997967  1
  P  P14  1  0.03893655  0.64549231  0.41998913  1
  O  O0  1  0.22389259  0.02342117  0.31159866  1
  O  O1  1  0.81115475  0.78045002  0.30582875  1
  O  O2  1  0.97249288  0.19068502  0.30575033  1
  O  O3  1  0.19046303  0.17238632  0.81104300  1
  O  O4  1  0.98592682  0.81628475  0.80966510  1
  O  O5  1  0.83421582  0.01782006  0.80736841  1
  O  O6  1  0.79271694  0.96017531  0.69225582  1
  O  O7  1  0.15762332  0.20029382  0.69566650  1
  O  O8  1  0.03915656  0.83768503  0.69445910  1
  O  O9  1  0.78919684  0.83466600  0.19204365  1
  O  O10  1  0.04323808  0.21051582  0.19156033  1
  O  O11  1  0.16277305  0.95769860  0.19650786  1
  O  O12  1  0.92153695  0.37857478  0.64472053  1
  O  O13  1  0.47347270  0.07937079  0.64466807  1
  O  O14  1  0.62828035  0.54458900  0.64444074  1
  O  O15  1  0.92857710  0.55374394  0.14338588  1
  O  O16  1  0.62940529  0.07568913  0.14381413  1
  O  O17  1  0.44798505  0.36601400  0.14254212  1
  O  O18  1  0.45792784  0.30284754  0.02671983  1
  O  O19  1  0.84015709  0.54085126  0.03006302  1
  O  O20  1  0.69580842  0.16441075  0.02976769  1
  O  O21  1  0.46634468  0.16653058  0.52442960  1
  O  O22  1  0.70421326  0.53936017  0.53008139  1
  O  O23  1  0.83214364  0.29542118  0.53186984  1
  O  O24  1  0.53181737  0.70560229  0.97285652  1
  O  O25  1  0.18071725  0.47016445  0.97030737  1
  O  O26  1  0.29799337  0.83153091  0.96942595  1
  O  O27  1  0.51367245  0.84908429  0.47680874  1
  O  O28  1  0.33471804  0.49107982  0.47431973  1
  O  O29  1  0.15970372  0.66863775  0.47331472  1
  O  O30  1  0.11917333  0.62105603  0.35797468  1
  O  O31  1  0.49801473  0.87400761  0.36067420  1
  O  O32  1  0.37160048  0.49583921  0.35813095  1
  O  O33  1  0.11766298  0.49648720  0.85276572  1
  O  O34  1  0.37017708  0.87752098  0.85528532  1
  O  O35  1  0.49700714  0.61871796  0.85483271  1
  O  O36  1  0.02530578  0.81096173  0.42041626  1
  O  O37  1  0.79176225  0.98028889  0.42320276  1
  O  O38  1  0.19876960  0.20778494  0.42128761  1
  O  O39  1  0.02873298  0.18384455  0.90964024  1
  O  O40  1  0.17162282  0.98061641  0.90938407  1
  O  O41  1  0.82227290  0.83806037  0.90960659  1
  O  O42  1  0.96987176  0.15491823  0.58762631  1
  O  O43  1  0.17137411  0.02082065  0.58806896  1
  O  O44  1  0.83283844  0.82451053  0.58648573  1
  O  O45  1  0.98869873  0.82687883  0.08543444  1
  O  O46  1  0.83526858  0.01242757  0.08369771  1
  O  O47  1  0.17354619  0.16061807  0.08418983  1
  O  O48  1  0.69409112  0.15442757  0.75225057  1
  O  O49  1  0.45863750  0.30831224  0.75070340  1
  O  O50  1  0.84932575  0.54138134  0.75192669  1
  O  O51  1  0.66683326  0.52174333  0.24151662  1
  O  O52  1  0.85562951  0.33396582  0.24207915  1
  O  O53  1  0.47665673  0.14677584  0.24329943  1
  O  O54  1  0.63550341  0.48371251  0.92605685  1
  O  O55  1  0.84319502  0.35307318  0.92647387  1
  O  O56  1  0.49767222  0.14227596  0.92295998  1
  O  O57  1  0.61993416  0.14319546  0.42263119  1
  O  O58  1  0.52866885  0.38505818  0.42300401  1
  O  O59  1  0.85576673  0.47324970  0.42603514  1
  O  O60  1  0.33929912  0.49913342  0.07088001  1
  O  O61  1  0.16096602  0.66334817  0.06712639  1
  O  O62  1  0.49665930  0.84347880  0.06886104  1
  O  O63  1  0.33570988  0.82982724  0.57168761  1
  O  O64  1  0.50708451  0.66375308  0.57122872  1
  O  O65  1  0.15943511  0.48652156  0.57036481  1
  O  O66  1  0.29664381  0.81219844  0.25546772  1
  O  O67  1  0.51813764  0.70544573  0.25523344  1
  O  O68  1  0.18828376  0.48269099  0.25400648  1
  O  O69  1  0.29013201  0.47354937  0.75535149  1
  O  O70  1  0.18373115  0.71181414  0.75601926  1
  O  O71  1  0.52689537  0.81921828  0.75699557  1
loop_
_geom_bond_atom_site_label_1
_geom_bond_atom_site_label_2
_geom_bond_distance
_geom_bond_site_symmetry_2
Na0 O16 2.303825 1_555
Na0 O53 2.315001 1_555
Na0 O67 2.340259 1_545
Na0 O52 2.469775 1_555
Na0 O66 2.676693 1_545
Na0 O9 2.689910 1_545
Na0 O2 2.811408 1_555
Na0 O31 2.819370 1_545
Na1 O51 2.293031 1_555
Na1 O17 2.329623 1_555
Na1 O68 2.342025 1_555
Na1 O53 2.441659 1_555
Na1 O67 2.679599 1_555
Na1 O10 2.716367 1_555
Na1 O32 2.762169 1_555
Na1 O0 2.896811 1_555
Na2 O52 2.302877 1_555
Na2 O15 2.323335 1_555
Na2 O66 2.354405 1_655
Na2 O51 2.479035 1_555
Na2 O11 2.646223 1_655
Na2 O68 2.700044 1_655
Na2 O30 2.748975 1_655
Na2 O1 2.768146 1_555
Na3 O71 2.313062 1_555
Na3 O49 2.361301 1_555
Na3 O50 2.369680 1_555
Na3 O14 2.374998 1_555
Na3 O69 2.569596 1_555
Na3 O35 2.577338 1_555
Na3 O6 2.850415 1_555
Na4 O69 2.303187 1_655
Na4 O48 2.345544 1_555
Na4 O50 2.365036 1_555
Na4 O12 2.367947 1_555
Na4 O33 2.518832 1_655
Na4 O70 2.574730 1_655
Na4 O7 2.809325 1_655
Na4 O5 2.976268 1_555
Na5 O70 2.294762 1_545
Na5 O13 2.319997 1_555
Na5 O49 2.362916 1_555
Na5 O48 2.372999 1_555
Na5 O71 2.544056 1_545
Na5 O34 2.631651 1_545
Na5 O8 2.838260 1_545
Na6 O42 2.367615 1_565
Na6 O64 2.386506 1_555
Na6 O63 2.474613 1_555
Na6 O44 2.475420 1_555
Na6 O13 2.583611 1_565
Na6 O27 2.628327 1_555
Na6 O23 2.658860 1_565
Na6 O6 2.686027 1_555
Na7 O54 2.317883 1_555
Na7 O39 2.344730 1_555
Na7 O40 2.448456 1_545
Na7 O56 2.462066 1_555
Na7 O18 2.507402 1_556
Na7 O25 2.629985 1_555
Na7 O3 2.735172 1_555
Na7 O35 2.827507 1_555
Na8 O57 2.276883 1_555
Na8 O38 2.286275 1_555
Na8 O36 2.357141 1_545
Na8 O0 2.416633 1_555
Na8 O21 2.676624 1_555
Na8 O58 2.679077 1_555
Na8 O31 2.790461 1_545
Na9 O37 2.403064 1_545
Na9 O43 2.416983 1_655
Na9 O44 2.426721 1_545
Na9 O42 2.448804 1_555
Na9 O38 2.456833 1_655
Na9 O36 2.469789 1_645
Na10 O46 2.313270 1_565
Na10 O45 2.346678 1_555
Na10 O41 2.412804 1_554
Na10 O47 2.425886 1_665
Na10 O39 2.511518 1_664
Na10 O40 2.593449 1_654
Na11 O55 2.348805 1_555
Na11 O54 2.426207 1_555
Na11 O56 2.447494 1_555
Na11 O48 2.522054 1_555
Na11 O50 2.536168 1_555
Na11 O49 2.661686 1_555
Na12 O59 2.471278 1_555
Na12 O58 2.501198 1_555
Na12 O57 2.521411 1_555
Na12 O52 2.531100 1_555
Na12 O51 2.547335 1_555
Na12 O53 2.625930 1_555
Na13 O60 2.426278 1_555
Na13 O62 2.445180 1_555
Na13 O61 2.487373 1_555
Na13 O68 2.562315 1_555
Na13 O66 2.572826 1_555
Na13 O67 2.592184 1_555
Na14 O63 2.413075 1_555
Na14 O65 2.473803 1_555
Na14 O70 2.536666 1_555
Na14 O64 2.549861 1_555
Na14 O69 2.555579 1_555
Na14 O71 2.660523 1_555
Ca0 O2 2.118248 1_565
Ca0 O1 2.129395 1_555
Ca0 O37 2.181485 1_555
Ca0 O0 2.195156 1_665
Ca0 O36 2.244597 1_655
Ca0 O38 2.262255 1_665
Ca1 O13 2.140661 1_555
Ca1 O14 2.173664 1_555
Ca1 O12 2.197964 1_555
Ca1 O49 2.324651 1_555
Ca1 O48 2.326634 1_555
Ca1 O50 2.348462 1_555
Ca2 O17 2.172986 1_555
Ca2 O16 2.178376 1_555
Ca2 O15 2.194887 1_555
Ca2 O51 2.277935 1_555
Ca2 O52 2.281001 1_555
Ca2 O53 2.310561 1_555
Ge0 O41 1.812293 1_555
Ge0 O39 1.855283 1_665
Ge0 O5 1.882688 1_565
Ge0 O4 1.894763 1_555
Ge0 O3 1.948181 1_665
Ge0 O40 1.968228 1_655
Ge1 O43 1.817387 1_555
Ge1 O8 1.929801 1_545
Ge1 O7 1.948610 1_555
Ge1 O42 1.967057 1_455
Ge1 O44 1.975829 1_445
Ge1 O6 2.031783 1_445
Ge2 O45 1.943054 1_545
Ge2 O47 1.950136 1_655
Ge2 O46 1.962967 1_555
Ge2 O10 1.977080 1_655
Ge2 O9 1.985104 1_545
Ge2 O11 2.042228 1_645
Ge3 O55 1.856566 1_555
Ge3 O19 1.897463 1_556
Ge3 O54 1.915031 1_555
Ge3 O20 1.931590 1_556
Ge3 O18 2.032455 1_556
Ge3 O56 2.132418 1_555
Ge4 O21 1.855214 1_555
Ge4 O22 1.924523 1_555
Ge4 O59 1.946521 1_555
Ge4 O58 1.966902 1_555
Ge4 O23 1.980438 1_555
Ge4 O57 2.022570 1_555
Ge5 O24 1.809438 1_554
Ge5 O25 1.832907 1_554
Ge5 O60 1.905091 1_555
Ge5 O62 1.908877 1_555
Ge5 O61 1.913590 1_555
Ge5 O26 1.925975 1_554
Ge6 O29 1.815303 1_555
Ge6 O63 1.823283 1_555
Ge6 O28 1.823460 1_555
Ge6 O27 1.859950 1_555
Ge6 O65 1.885054 1_555
Ge6 O64 1.928650 1_555
Ge7 O32 1.910936 1_555
Ge7 O30 1.941850 1_555
Ge7 O31 1.953564 1_555
Ge7 O68 1.972263 1_555
Ge7 O66 1.972600 1_555
Ge7 O67 1.982351 1_555
Ge8 O33 1.821322 1_555
Ge8 O35 1.836167 1_555
Ge8 O34 1.896543 1_555
Ge8 O69 2.071854 1_555
Ge8 O70 2.106430 1_555
Ge8 O71 2.112576 1_555
O0 P0 1.502568 1_545
O1 P1 1.486819 1_555
O2 P2 1.484636 1_655
O3 P3 1.535516 1_555
O4 P4 1.524815 1_655
O5 P5 1.526279 1_545
O6 P5 1.572945 1_555
O7 P3 1.560740 1_555
O8 P4 1.563984 1_555
O9 P1 1.584671 1_555
O10 P2 1.583905 1_555
O11 P0 1.575202 1_555
O12 P6 1.506562 1_555
O13 Si0 1.596114 1_555
O14 P7 1.500368 1_555
O15 P8 1.498584 1_555
O16 P9 1.501168 1_555
O17 P10 1.496247 1_555
O18 P10 1.579157 1_555
O19 P8 1.572336 1_555
O20 P9 1.573498 1_555
O21 Si0 1.672657 1_555
O22 P7 1.551911 1_555
O23 P6 1.568486 1_555
O24 Si1 1.592127 1_555
O25 Si2 1.603506 1_555
O26 P11 1.506632 1_555
O27 P12 1.528477 1_555
O28 P13 1.513539 1_555
O29 P14 1.520035 1_555
O30 P14 1.588168 1_555
O31 P12 1.592380 1_555
O32 P13 1.579911 1_555
O33 Si2 1.673556 1_555
O34 P11 1.585213 1_555
O35 Si1 1.688682 1_555
O36 P14 1.508108 1_555
O37 P12 1.486808 1_555
O38 P13 1.509486 1_555
O39 Si2 1.660051 1_555
O40 P11 1.568316 1_555
O41 Si1 1.629123 1_555
O42 P6 1.578186 1_555
O43 Si0 1.643680 1_555
O44 P7 1.576722 1_555
O45 P8 1.575027 1_555
O46 P9 1.578408 1_555
O47 P10 1.577602 1_555
O48 P5 1.525884 1_545
O49 P3 1.524081 1_555
O50 P4 1.525718 1_655
O51 P1 1.522932 1_555
O52 P2 1.523188 1_655
O53 P0 1.523224 1_545
O54 Si1 1.654747 1_555
O55 Si2 1.625433 1_655
O56 P11 1.549139 1_545
O57 P12 1.580985 1_545
O58 P13 1.579982 1_555
O59 P14 1.562613 1_655
O60 P10 1.552558 1_555
O61 P8 1.546925 1_455
O62 P9 1.549940 1_565
O63 Si0 1.652811 1_565
O64 P7 1.562348 1_555
O65 P6 1.538071 1_455
O66 P0 1.603965 1_555
O67 P1 1.601972 1_555
O68 P2 1.601207 1_555
O69 P3 1.585541 1_555
O70 P4 1.583292 1_555
O71 P5 1.580527 1_555
