# generated using pymatgen
data_Na12Mg4Ta2Si6(SO12)3
_symmetry_space_group_name_H-M   'P 1'
_cell_length_a   9.14202125
_cell_length_b   9.14067891
_cell_length_c   22.17444059
_cell_angle_alpha   90.10562634
_cell_angle_beta   90.00000000
_cell_angle_gamma   120.00485804
_symmetry_Int_Tables_number   1
_chemical_formula_structural   Na12Mg4Ta2Si6(SO12)3
_chemical_formula_sum   'Na24 Mg8 Ta4 Si12 S6 O72'
_cell_volume   1604.65523668
_cell_formula_units_Z   2
loop_
 _symmetry_equiv_pos_site_id
 _symmetry_equiv_pos_as_xyz
  1  'x, y, z'
loop_
 _atom_site_type_symbol
 _atom_site_label
 _atom_site_symmetry_multiplicity
 _atom_site_fract_x
 _atom_site_fract_y
 _atom_site_fract_z
 _atom_site_occupancy
  Na  Na0  1  0.64600272  0.02141913  0.25423436  1
  Na  Na1  1  0.34586329  0.33663312  0.25125567  1
  Na  Na2  1  0.99661316  0.63345927  0.23981545  1
  Na  Na3  1  0.63684611  0.63345927  0.73981545  1
  Na  Na4  1  0.99076982  0.33663312  0.75125567  1
  Na  Na5  1  0.37541641  0.02141913  0.75423436  1
  Na  Na6  1  0.30691884  0.34617113  0.58724452  1
  Na  Na7  1  0.03055729  0.70613790  0.57776997  1
  Na  Na8  1  0.66654899  0.94582382  0.58330602  1
  Na  Na9  1  0.27927583  0.94582382  0.08330602  1
  Na  Na10  1  0.67558160  0.70613790  0.07776997  1
  Na  Na11  1  0.03925329  0.34617113  0.08724452  1
  Na  Na12  1  0.98606462  0.69231582  0.91618613  1
  Na  Na13  1  0.71185760  0.02490495  0.90813915  1
  Na  Na14  1  0.30958983  0.28233728  0.90866371  1
  Na  Na15  1  0.97274645  0.28233728  0.40866371  1
  Na  Na16  1  0.31304635  0.02490495  0.40813915  1
  Na  Na17  1  0.70625020  0.69231582  0.41618613  1
  Na  Na18  1  0.99100824  0.99236886  0.49283041  1
  Na  Na19  1  0.00136061  0.99236886  0.99283041  1
  Na  Na20  1  0.65319712  0.31823766  0.82481301  1
  Na  Na21  1  0.66504154  0.31823766  0.32481301  1
  Na  Na22  1  0.31095574  0.66349860  0.16503397  1
  Na  Na23  1  0.35254186  0.66349860  0.66503397  1
  Mg  Mg0  1  0.01071227  0.01114816  0.35130043  1
  Mg  Mg1  1  0.00043588  0.01114816  0.85130043  1
  Mg  Mg2  1  0.98471946  0.99876636  0.65416692  1
  Mg  Mg3  1  0.01404690  0.99876636  0.15416692  1
  Mg  Mg4  1  0.65464074  0.33159388  0.68647270  1
  Mg  Mg5  1  0.67695414  0.33159388  0.18647270  1
  Mg  Mg6  1  0.32405122  0.66767220  0.01409349  1
  Mg  Mg7  1  0.34361998  0.66767220  0.51409349  1
  Ta  Ta0  1  0.67557186  0.34396468  0.97531552  1
  Ta  Ta1  1  0.66839382  0.34396468  0.47531552  1
  Ta  Ta2  1  0.32433396  0.66534013  0.31747948  1
  Ta  Ta3  1  0.34100517  0.66534013  0.81747948  1
  Si  Si0  1  0.29899302  0.00083458  0.24974992  1
  Si  Si1  1  -0.00004251  0.29218965  0.24940443  1
  Si  Si2  1  0.29223216  0.29218965  0.74940443  1
  Si  Si3  1  0.70184156  0.00083458  0.74974992  1
  Si  Si4  1  0.66886807  0.63339917  0.58706577  1
  Si  Si5  1  0.96453210  0.63339917  0.08706577  1
  Si  Si6  1  0.62805443  0.67094738  0.92223551  1
  Si  Si7  1  0.04499874  0.37408728  0.91982614  1
  Si  Si8  1  0.33141608  0.96006961  0.92021039  1
  Si  Si9  1  0.62865253  0.96006961  0.42021039  1
  Si  Si10  1  0.32908754  0.37408728  0.41982614  1
  Si  Si11  1  0.04289195  0.67094738  0.42223551  1
  S  S0  1  0.70322766  0.70742111  0.24978187  1
  S  S1  1  0.00419345  0.70742111  0.74978187  1
  S  S2  1  0.95514231  0.33437610  0.58419500  1
  S  S3  1  0.37673289  0.04248089  0.58367586  1
  S  S4  1  0.66574900  0.04248089  0.08367586  1
  S  S5  1  0.37923479  0.33437610  0.08419500  1
  O  O0  1  0.21356819  0.02608905  0.30905302  1
  O  O1  1  0.80515701  0.78369686  0.30400673  1
  O  O2  1  0.96980235  0.17875761  0.30817941  1
  O  O3  1  0.20895526  0.17875761  0.80817941  1
  O  O4  1  0.97853985  0.78369686  0.80400673  1
  O  O5  1  0.81252086  0.02608905  0.80905302  1
  O  O6  1  0.76742925  0.94900275  0.68969296  1
  O  O7  1  0.17742192  0.21696672  0.68867430  1
  O  O8  1  0.03170677  0.81117914  0.69516701  1
  O  O9  1  0.77947237  0.81117914  0.19516701  1
  O  O10  1  0.03954480  0.21696672  0.18867430  1
  O  O11  1  0.18157350  0.94900275  0.18969296  1
  O  O12  1  0.87031481  0.34992522  0.63797453  1
  O  O13  1  0.48029529  0.12232919  0.63753955  1
  O  O14  1  0.64749813  0.51367995  0.64317523  1
  O  O15  1  0.86618282  0.51367995  0.14317523  1
  O  O16  1  0.64203490  0.12232919  0.13753955  1
  O  O17  1  0.47961141  0.34992522  0.13797453  1
  O  O18  1  0.46734441  0.31387652  0.02871436  1
  O  O19  1  0.83438304  0.51991948  0.02651706  1
  O  O20  1  0.68250279  0.14955703  0.02869075  1
  O  O21  1  0.46705524  0.14955703  0.52869075  1
  O  O22  1  0.68553745  0.51991948  0.52651706  1
  O  O23  1  0.84653311  0.31387652  0.52871436  1
  O  O24  1  0.54426856  0.69792071  0.98086164  1
  O  O25  1  0.15368652  0.45524831  0.97912237  1
  O  O26  1  0.30400767  0.85189749  0.97967143  1
  O  O27  1  0.54788882  0.85189749  0.47967143  1
  O  O28  1  0.30156079  0.45524831  0.47912237  1
  O  O29  1  0.15365115  0.69792071  0.48086164  1
  O  O30  1  0.13437596  0.63338336  0.36261471  1
  O  O31  1  0.50003193  0.86618361  0.36112988  1
  O  O32  1  0.37169146  0.50234664  0.36067349  1
  O  O33  1  0.13065418  0.50234664  0.86067349  1
  O  O34  1  0.36615068  0.86618361  0.86112988  1
  O  O35  1  0.49900640  0.63338336  0.86261471  1
  O  O36  1  0.00341510  0.82037976  0.41017690  1
  O  O37  1  0.81373524  0.98530282  0.40997470  1
  O  O38  1  0.17503298  0.18429334  0.41253111  1
  O  O39  1  0.00926035  0.18429334  0.91253111  1
  O  O40  1  0.17156758  0.98530282  0.90997470  1
  O  O41  1  0.81696467  0.82037976  0.91017690  1
  O  O42  1  0.97204227  0.18143562  0.58402458  1
  O  O43  1  0.20973638  0.03237527  0.58550221  1
  O  O44  1  0.84553634  0.81476240  0.58331683  1
  O  O45  1  0.96922606  0.81476240  0.08331683  1
  O  O46  1  0.82263889  0.03237527  0.08550221  1
  O  O47  1  0.20939335  0.18143562  0.08402458  1
  O  O48  1  0.67910374  0.16651279  0.74308629  1
  O  O49  1  0.48644611  0.33008359  0.74679225  1
  O  O50  1  0.85867906  0.53326923  0.74367841  1
  O  O51  1  0.67459117  0.53326923  0.24367841  1
  O  O52  1  0.84363848  0.33008359  0.24679225  1
  O  O53  1  0.48741006  0.16651279  0.24308629  1
  O  O54  1  0.63122442  0.48728634  0.92432206  1
  O  O55  1  0.85191116  0.36028699  0.92356405  1
  O  O56  1  0.50902954  0.14844774  0.92524227  1
  O  O57  1  0.63941920  0.14844774  0.42524227  1
  O  O58  1  0.50837682  0.36028699  0.42356405  1
  O  O59  1  0.85606292  0.48728634  0.42432206  1
  O  O60  1  0.36668056  0.48928668  0.07955386  1
  O  O61  1  0.14932935  0.64787029  0.08195308  1
  O  O62  1  0.51644136  0.87093017  0.07901322  1
  O  O63  1  0.35448781  0.87093017  0.57901322  1
  O  O64  1  0.49853993  0.64787029  0.58195308  1
  O  O65  1  0.12260512  0.48928668  0.57955386  1
  O  O66  1  0.32424426  0.82727693  0.25835649  1
  O  O67  1  0.53052504  0.69331813  0.25502443  1
  O  O68  1  0.18108928  0.48732357  0.25816304  1
  O  O69  1  0.30623329  0.48732357  0.75816304  1
  O  O70  1  0.16279210  0.69331813  0.75502443  1
  O  O71  1  0.50303168  0.82727693  0.75835649  1
loop_
_geom_bond_atom_site_label_1
_geom_bond_atom_site_label_2
_geom_bond_distance
_geom_bond_site_symmetry_2
Na0 O53 2.417957 1_555
Na0 O52 2.480992 1_555
Na0 O66 2.567083 1_545
Na0 O67 2.634923 1_545
Na0 O31 2.744334 1_545
Na0 O16 2.755044 1_555
Na0 O2 2.828020 1_555
Na1 O53 2.477270 1_555
Na1 O68 2.502856 1_555
Na1 O51 2.624696 1_555
Na1 O17 2.769881 1_555
Na1 O0 2.782566 1_555
Na1 O32 2.804592 1_555
Na1 O10 2.809820 1_555
Na1 O67 2.825051 1_555
Na2 O52 2.406758 1_555
Na2 O15 2.428660 1_555
Na2 O51 2.610861 1_555
Na2 O66 2.639909 1_655
Na2 O68 2.655027 1_655
Na2 O11 2.747289 1_655
Na3 O49 2.406758 1_555
Na3 O14 2.428662 1_555
Na3 O50 2.610870 1_555
Na3 O71 2.639916 1_555
Na3 O69 2.655035 1_555
Na3 O6 2.747289 1_555
Na4 O48 2.477263 1_555
Na4 O69 2.502848 1_655
Na4 O50 2.624688 1_555
Na4 O12 2.769877 1_555
Na4 O5 2.782566 1_555
Na4 O33 2.804591 1_655
Na4 O7 2.809820 1_655
Na4 O70 2.825051 1_655
Na5 O48 2.417965 1_555
Na5 O49 2.480991 1_555
Na5 O71 2.567076 1_545
Na5 O70 2.634925 1_545
Na5 O34 2.744332 1_545
Na5 O13 2.755046 1_555
Na5 O3 2.828020 1_555
Na6 O64 2.420157 1_555
Na6 O7 2.542917 1_555
Na6 O43 2.543403 1_555
Na6 O65 2.604811 1_555
Na6 O28 2.608138 1_555
Na6 O42 2.652168 1_455
Na7 O44 2.353995 1_455
Na7 O29 2.444108 1_555
Na7 O65 2.511417 1_555
Na7 O63 2.564749 1_555
Na7 O43 2.591872 1_565
Na7 O8 2.771175 1_555
Na8 O64 2.365038 1_555
Na8 O44 2.464396 1_555
Na8 O27 2.501221 1_555
Na8 O6 2.527756 1_555
Na8 O42 2.534278 1_565
Na8 O63 2.581286 1_555
Na9 O61 2.365037 1_555
Na9 O45 2.464404 1_455
Na9 O26 2.501217 1_554
Na9 O11 2.527759 1_555
Na9 O47 2.534284 1_565
Na9 O62 2.581268 1_555
Na10 O45 2.353987 1_555
Na10 O24 2.444116 1_554
Na10 O60 2.511430 1_555
Na10 O62 2.564764 1_555
Na10 O46 2.591872 1_565
Na10 O9 2.771173 1_555
Na11 O61 2.420160 1_555
Na11 O10 2.542915 1_555
Na11 O46 2.543405 1_455
Na11 O60 2.604795 1_555
Na11 O25 2.608134 1_554
Na11 O47 2.652160 1_555
Na12 O40 2.350777 1_655
Na12 O41 2.363973 1_555
Na12 O4 2.637289 1_555
Na12 O55 2.649724 1_555
Na12 O54 2.826466 1_555
Na12 O19 2.867109 1_556
Na12 O26 2.882711 1_655
Na12 O33 2.926695 1_655
Na13 O39 2.358398 1_655
Na13 O5 2.380069 1_555
Na13 O41 2.493460 1_545
Na13 O56 2.636290 1_555
Na13 O55 2.687897 1_555
Na13 O34 2.930612 1_545
Na13 O20 2.968275 1_556
Na14 O40 2.353426 1_545
Na14 O3 2.414262 1_555
Na14 O39 2.426574 1_555
Na14 O54 2.600832 1_555
Na14 O56 2.681545 1_555
Na15 O37 2.353425 1_545
Na15 O2 2.414263 1_555
Na15 O38 2.426582 1_655
Na15 O59 2.600818 1_555
Na15 O57 2.681528 1_555
Na16 O38 2.358391 1_555
Na16 O0 2.380066 1_555
Na16 O36 2.493453 1_545
Na16 O57 2.636306 1_555
Na16 O58 2.687899 1_555
Na16 O31 2.930612 1_545
Na16 O21 2.968280 1_555
Na17 O37 2.350775 1_555
Na17 O36 2.363982 1_655
Na17 O1 2.637291 1_555
Na17 O58 2.649722 1_555
Na17 O59 2.826481 1_555
Na17 O22 2.867113 1_555
Na17 O27 2.882711 1_555
Na17 O32 2.926695 1_555
Na18 O37 2.429216 1_555
Na18 O36 2.451777 1_655
Na18 O38 2.477532 1_665
Na18 O44 2.506566 1_555
Na18 O42 2.718961 1_565
Na18 O43 2.760595 1_665
Na19 O40 2.429216 1_555
Na19 O41 2.451777 1_455
Na19 O39 2.477532 1_565
Na19 O45 2.506566 1_456
Na19 O47 2.718961 1_566
Na19 O46 2.760595 1_466
Na20 O49 2.344047 1_555
Na20 O48 2.362831 1_555
Na20 O50 2.636129 1_555
Na20 O56 2.659336 1_555
Na20 O55 2.746178 1_555
Na20 O54 2.755870 1_555
Na21 O52 2.344047 1_555
Na21 O53 2.362831 1_555
Na21 O51 2.636129 1_555
Na21 O57 2.659336 1_555
Na21 O58 2.746178 1_555
Na21 O59 2.755870 1_555
Na22 O61 2.320683 1_555
Na22 O66 2.518908 1_555
Na22 O68 2.523385 1_555
Na22 O60 2.681112 1_555
Na22 O62 2.685776 1_555
Na22 O67 2.745238 1_555
Na23 O64 2.320683 1_555
Na23 O71 2.518908 1_555
Na23 O69 2.523385 1_555
Na23 O65 2.681112 1_555
Na23 O63 2.685776 1_555
Na23 O70 2.745238 1_555
Mg0 O2 1.994959 1_455
Mg0 O0 2.020557 1_555
Mg0 O38 2.054073 1_555
Mg0 O37 2.137056 1_445
Mg0 O36 2.154447 1_545
Mg0 O1 2.244567 1_445
Mg1 O3 1.994959 1_555
Mg1 O5 2.020557 1_455
Mg1 O39 2.054073 1_555
Mg1 O40 2.137056 1_545
Mg1 O41 2.154447 1_445
Mg1 O4 2.244567 1_445
Mg2 O6 1.967526 1_555
Mg2 O7 2.036480 1_665
Mg2 O8 2.166472 1_655
Mg2 O44 2.183111 1_555
Mg2 O42 2.328880 1_565
Mg2 O43 2.452359 1_665
Mg3 O11 1.967526 1_555
Mg3 O10 2.036480 1_565
Mg3 O9 2.166472 1_455
Mg3 O45 2.183111 1_455
Mg3 O47 2.328880 1_565
Mg3 O46 2.452359 1_465
Mg4 O14 1.952136 1_555
Mg4 O49 2.032832 1_555
Mg4 O48 2.060927 1_555
Mg4 O13 2.078409 1_555
Mg4 O12 2.177712 1_555
Mg4 O50 2.244790 1_555
Mg5 O15 1.952136 1_555
Mg5 O52 2.032832 1_555
Mg5 O53 2.060927 1_555
Mg5 O16 2.078409 1_555
Mg5 O17 2.177712 1_555
Mg5 O51 2.244790 1_555
Mg6 O26 1.940413 1_554
Mg6 O25 1.940909 1_554
Mg6 O24 2.028939 1_554
Mg6 O61 2.135480 1_555
Mg6 O62 2.310751 1_555
Mg6 O60 2.358366 1_555
Mg7 O27 1.940413 1_555
Mg7 O28 1.940909 1_555
Mg7 O29 2.028939 1_555
Mg7 O64 2.135480 1_555
Mg7 O63 2.310751 1_555
Mg7 O65 2.358366 1_555
O0 Si0 1.603629 1_555
O1 S0 1.465379 1_555
O2 Si1 1.602732 1_655
O3 Si2 1.602732 1_555
O4 S1 1.465379 1_655
O5 Si3 1.603629 1_555
O6 Si3 1.624589 1_565
O7 Si2 1.631780 1_555
O8 S1 1.481574 1_555
O9 S0 1.481574 1_555
O10 Si1 1.631780 1_555
O11 Si0 1.624589 1_565
O12 S2 1.467425 1_555
O13 S3 1.470147 1_555
O14 Si4 1.604654 1_555
O15 Si5 1.604654 1_555
O16 S4 1.470147 1_555
O17 S5 1.467425 1_555
O18 S5 1.532178 1_555
O18 Ta0 2.139872 1_554
O19 Si5 1.747799 1_555
O19 Ta0 1.908286 1_554
O20 S4 1.523969 1_555
O20 Ta0 2.164025 1_554
O21 S3 1.523969 1_555
O21 Ta1 2.164025 1_555
O22 Si4 1.747799 1_555
O22 Ta1 1.908286 1_555
O23 S2 1.532178 1_555
O23 Ta1 2.139872 1_555
O24 Si6 1.589090 1_555
O25 Si7 1.589237 1_555
O26 Si8 1.592465 1_555
O27 Si9 1.592465 1_555
O28 Si10 1.589237 1_555
O29 Si11 1.589090 1_555
O30 Si11 1.688417 1_555
O30 Ta2 1.896453 1_555
O31 Si9 1.679886 1_555
O31 Ta2 1.982779 1_555
O32 Si10 1.672018 1_555
O32 Ta2 1.993722 1_555
O33 Si7 1.672018 1_555
O33 Ta3 1.993722 1_555
O34 Si8 1.679886 1_555
O34 Ta3 1.982779 1_555
O35 Si6 1.688417 1_555
O35 Ta3 1.896453 1_555
O36 Si11 1.600575 1_555
O37 Si9 1.605475 1_555
O38 Si10 1.604576 1_555
O39 Si7 1.604579 1_555
O40 Si8 1.605466 1_555
O41 Si6 1.600581 1_555
O42 S2 1.481294 1_555
O43 S3 1.483210 1_555
O44 Si4 1.639006 1_555
O45 Si5 1.639010 1_555
O46 S4 1.483201 1_555
O47 S5 1.481299 1_555
O48 Si3 1.635285 1_555
O49 Si2 1.631181 1_555
O50 S1 1.484346 1_655
O51 S0 1.484350 1_555
O52 Si1 1.631172 1_655
O53 Si0 1.635290 1_555
O54 Si6 1.694181 1_555
O54 Ta0 1.922469 1_555
O55 Si7 1.707655 1_655
O55 Ta0 1.923041 1_555
O56 Si8 1.678362 1_545
O56 Ta0 2.004042 1_555
O57 Si9 1.678354 1_545
O57 Ta1 2.004042 1_555
O58 Si10 1.707673 1_555
O58 Ta1 1.923041 1_555
O59 Si11 1.694172 1_655
O59 Ta1 1.922469 1_555
O60 S5 1.480494 1_555
O61 Si5 1.631271 1_455
O62 S4 1.480350 1_565
O63 S3 1.480343 1_565
O64 Si4 1.631289 1_555
O65 S2 1.480483 1_455
O66 Si0 1.724495 1_565
O66 Ta2 1.979437 1_555
O67 S0 1.522957 1_555
O67 Ta2 2.248504 1_555
O68 Si1 1.733754 1_555
O68 Ta2 1.988370 1_555
O69 Si2 1.733758 1_555
O69 Ta3 1.988370 1_555
O70 S1 1.522948 1_555
O70 Ta3 2.248504 1_555
O71 Si3 1.724500 1_565
O71 Ta3 1.979437 1_555
