# generated using pymatgen
data_O2
_symmetry_space_group_name_H-M   'P 1'
_cell_length_a   5.96482670
_cell_length_b   5.96482670
_cell_length_c   4.84931165
_cell_angle_alpha   71.37342970
_cell_angle_beta   71.37342970
_cell_angle_gamma   103.98290571
_symmetry_Int_Tables_number   1
_chemical_formula_structural   O2
_chemical_formula_sum   O8
_cell_volume   143.13933120
_cell_formula_units_Z   4
loop_
 _symmetry_equiv_pos_site_id
 _symmetry_equiv_pos_as_xyz
  1  'x, y, z'
loop_
 _atom_site_type_symbol
 _atom_site_label
 _atom_site_symmetry_multiplicity
 _atom_site_fract_x
 _atom_site_fract_y
 _atom_site_fract_z
 _atom_site_occupancy
  O  O0  1  0.71926991  -0.00379181  0.60528131  1
  O  O1  1  0.00379181  0.28073009  0.89471869  1
  O  O2  1  0.28073009  0.00379181  0.39471869  1
  O  O3  1  -0.00379181  0.71926991  0.10528131  1
  O  O4  1  0.58377849  0.81178311  0.86646959  1
  O  O5  1  0.18821689  0.41622151  0.63353041  1
  O  O6  1  0.41622151  0.18821689  0.13353041  1
  O  O7  1  0.81178311  0.58377849  0.36646959  1
loop_
_geom_bond_atom_site_label_1
_geom_bond_atom_site_label_2
_geom_bond_distance
_geom_bond_site_symmetry_2
O0 O4 1.222269 1_545
O1 O5 1.222269 1_555
O2 O6 1.222269 1_555
O3 O7 1.222269 1_455
