# generated using pymatgen
data_Na4TaGa3Si3(SO8)3
_symmetry_space_group_name_H-M   'P 1'
_cell_length_a   8.82790346
_cell_length_b   8.83146204
_cell_length_c   22.35453606
_cell_angle_alpha   89.84617467
_cell_angle_beta   90.20239945
_cell_angle_gamma   119.87868695
_symmetry_Int_Tables_number   1
_chemical_formula_structural   Na4TaGa3Si3(SO8)3
_chemical_formula_sum   'Na12 Ta3 Ga9 Si9 S9 O72'
_cell_volume   1511.16927707
_cell_formula_units_Z   3
loop_
 _symmetry_equiv_pos_site_id
 _symmetry_equiv_pos_as_xyz
  1  'x, y, z'
loop_
 _atom_site_type_symbol
 _atom_site_label
 _atom_site_symmetry_multiplicity
 _atom_site_fract_x
 _atom_site_fract_y
 _atom_site_fract_z
 _atom_site_occupancy
  Na  Na0  1  0.63588250  0.00005115  0.25065369  1
  Na  Na1  1  0.36467566  0.36471708  0.25038745  1
  Na  Na2  1  0.99953360  0.63448842  0.25089395  1
  Na  Na3  1  0.30146943  0.33649841  0.58543473  1
  Na  Na4  1  0.66754878  0.96736998  0.58556893  1
  Na  Na5  1  0.29630824  0.96319438  0.08328271  1
  Na  Na6  1  0.00064880  0.99287540  0.50127567  1
  Na  Na7  1  0.99248588  0.00079467  0.99415335  1
  Na  Na8  1  0.66704189  0.33371000  0.82859245  1
  Na  Na9  1  0.66735027  0.33366336  0.33053696  1
  Na  Na10  1  0.33400854  0.65898259  0.16781013  1
  Na  Na11  1  0.32510381  0.66745439  0.66276554  1
  Ta  Ta0  1  0.66837901  0.33435347  0.97284087  1
  Ta  Ta1  1  0.66698763  0.33429862  0.48389127  1
  Ta  Ta2  1  0.33291425  0.66656994  0.81583011  1
  Ga  Ga0  1  0.99960728  0.99941927  0.34023163  1
  Ga  Ga1  1  0.99994351  0.99915289  0.85963554  1
  Ga  Ga2  1  0.00121770  0.99478706  0.64148391  1
  Ga  Ga3  1  0.99562689  0.00069252  0.16144468  1
  Ga  Ga4  1  0.66735494  0.33365744  0.67519446  1
  Ga  Ga5  1  0.66787994  0.33502838  0.19087521  1
  Ga  Ga6  1  0.33392409  0.66280023  0.00511505  1
  Ga  Ga7  1  0.32776479  0.66733584  0.52496959  1
  Ga  Ga8  1  0.33293562  0.66668357  0.30931866  1
  Si  Si0  1  0.28945795  0.00037811  0.24936076  1
  Si  Si1  1  0.71034484  0.71043473  0.25043804  1
  Si  Si2  1  0.00039336  0.28931765  0.25029889  1
  Si  Si3  1  0.96086682  0.33743659  0.58691247  1
  Si  Si4  1  0.37271637  0.03825746  0.58622151  1
  Si  Si5  1  0.66857607  0.62655836  0.58593280  1
  Si  Si6  1  0.62691062  0.67680483  0.91810282  1
  Si  Si7  1  0.04970307  0.37295954  0.91786041  1
  Si  Si8  1  0.32437155  0.95047440  0.91892223  1
  S  S0  1  0.29031694  0.28636125  0.74968422  1
  S  S1  1  0.99583602  0.71106346  0.74965713  1
  S  S2  1  0.71331105  0.00387507  0.74969291  1
  S  S3  1  0.95709205  0.62372423  0.08434241  1
  S  S4  1  0.66982422  0.04205215  0.08435107  1
  S  S5  1  0.37560914  0.33699602  0.08406227  1
  S  S6  1  0.62509855  0.95461582  0.41640955  1
  S  S7  1  0.32925406  0.37466082  0.41632225  1
  S  S8  1  0.04643263  0.67042729  0.41630730  1
  O  O0  1  0.21098247  0.04875097  0.30708684  1
  O  O1  1  0.83674099  0.78649797  0.30870407  1
  O  O2  1  0.95008042  0.16336610  0.30871577  1
  O  O3  1  0.20555029  0.18073256  0.80298231  1
  O  O4  1  0.97502515  0.79337937  0.80368060  1
  O  O5  1  0.81936309  0.02417107  0.80299316  1
  O  O6  1  0.78695724  0.97257958  0.69455111  1
  O  O7  1  0.18479898  0.21248972  0.69441577  1
  O  O8  1  0.02811920  0.81944371  0.69543255  1
  O  O9  1  0.78499780  0.83497202  0.19140751  1
  O  O10  1  0.05156448  0.21512290  0.19147356  1
  O  O11  1  0.16970625  0.95372487  0.18803064  1
  O  O12  1  0.87602388  0.37431973  0.64404819  1
  O  O13  1  0.50298841  0.12149931  0.64248890  1
  O  O14  1  0.61597260  0.49523393  0.64206057  1
  O  O15  1  0.87540473  0.51765419  0.13884382  1
  O  O16  1  0.63842420  0.12346232  0.13827500  1
  O  O17  1  0.48170768  0.35932730  0.13888782  1
  O  O18  1  0.46678644  0.30954071  0.03142143  1
  O  O19  1  0.84493972  0.53251646  0.03104056  1
  O  O20  1  0.68938882  0.15476398  0.03093078  1
  O  O21  1  0.46850371  0.17164312  0.52633883  1
  O  O22  1  0.70063927  0.53073993  0.52589718  1
  O  O23  1  0.82870968  0.29697259  0.52674354  1
  O  O24  1  0.54461140  0.70633592  0.97758848  1
  O  O25  1  0.16005809  0.45628037  0.97762817  1
  O  O26  1  0.29807513  0.84380156  0.98071222  1
  O  O27  1  0.54165972  0.85064171  0.47077578  1
  O  O28  1  0.30984882  0.45820018  0.47073812  1
  O  O29  1  0.15342449  0.69113352  0.46976486  1
  O  O30  1  0.12136061  0.63940721  0.36135036  1
  O  O31  1  0.51681508  0.87719843  0.36195303  1
  O  O32  1  0.35963497  0.48292878  0.36197612  1
  O  O33  1  0.13555483  0.50356526  0.85885463  1
  O  O34  1  0.36752415  0.86244875  0.86044561  1
  O  O35  1  0.49610733  0.63145449  0.85895180  1
  O  O36  1  0.02524831  0.82529553  0.41211828  1
  O  O37  1  0.80079564  0.97523545  0.41218939  1
  O  O38  1  0.17485191  0.19895523  0.41196336  1
  O  O39  1  0.01957913  0.18283070  0.90698644  1
  O  O40  1  0.16341868  0.97940824  0.90786172  1
  O  O41  1  0.81696730  0.83632735  0.90718024  1
  O  O42  1  0.97374381  0.15969957  0.59107002  1
  O  O43  1  0.18870485  0.03452557  0.59001390  1
  O  O44  1  0.83635536  0.81935514  0.59030299  1
  O  O45  1  0.97375392  0.79933931  0.08645068  1
  O  O46  1  0.82847755  0.02857284  0.08786736  1
  O  O47  1  0.20380952  0.17297119  0.08663334  1
  O  O48  1  0.68984488  0.15805418  0.74579387  1
  O  O49  1  0.46758387  0.30897954  0.74561865  1
  O  O50  1  0.84195124  0.53399661  0.74517369  1
  O  O51  1  0.68785263  0.51621448  0.24205272  1
  O  O52  1  0.82832916  0.31167682  0.24172841  1
  O  O53  1  0.48366629  0.17159316  0.24121688  1
  O  O54  1  0.63926029  0.49486845  0.92620630  1
  O  O55  1  0.85544679  0.36066404  0.92573743  1
  O  O56  1  0.50532097  0.14446217  0.92663010  1
  O  O57  1  0.64091205  0.13444717  0.42157046  1
  O  O58  1  0.49326949  0.35824771  0.42135039  1
  O  O59  1  0.86670601  0.50705694  0.42195197  1
  O  O60  1  0.35864128  0.49317039  0.07827399  1
  O  O61  1  0.13390836  0.64362314  0.07983360  1
  O  O62  1  0.50794587  0.86929043  0.07924610  1
  O  O63  1  0.36503695  0.85484474  0.57411314  1
  O  O64  1  0.49578929  0.64352648  0.57308538  1
  O  O65  1  0.15363415  0.50020825  0.57477577  1
  O  O66  1  0.31063240  0.82793141  0.25796465  1
  O  O67  1  0.51618654  0.68823441  0.25871902  1
  O  O68  1  0.17169312  0.48355020  0.25862732  1
  O  O69  1  0.30766531  0.46764962  0.75505929  1
  O  O70  1  0.15973431  0.69295500  0.75511039  1
  O  O71  1  0.53192531  0.84036010  0.75526650  1
loop_
_geom_bond_atom_site_label_1
_geom_bond_atom_site_label_2
_geom_bond_distance
_geom_bond_site_symmetry_2
Na0 O67 2.414946 1_545
Na0 O52 2.416862 1_555
Na0 O53 2.483916 1_555
Na0 O66 2.497000 1_545
Na0 O31 2.709264 1_545
Na0 O2 2.730777 1_555
Na0 O16 2.731435 1_555
Na0 O9 2.747208 1_545
Na1 O68 2.412940 1_555
Na1 O53 2.417193 1_555
Na1 O51 2.482656 1_555
Na1 O67 2.486060 1_555
Na1 O17 2.711117 1_555
Na1 O32 2.715792 1_555
Na1 O0 2.730382 1_555
Na1 O10 2.732298 1_555
Na2 O66 2.410348 1_655
Na2 O51 2.415491 1_555
Na2 O68 2.476285 1_655
Na2 O52 2.482305 1_555
Na2 O30 2.681560 1_655
Na2 O15 2.721683 1_555
Na2 O1 2.735370 1_555
Na2 O11 2.820286 1_655
Na3 O43 2.338333 1_555
Na3 O65 2.392955 1_555
Na3 O64 2.395032 1_555
Na3 O42 2.514916 1_455
Na3 O7 2.659878 1_555
Na3 O14 2.717139 1_555
Na3 O28 2.764425 1_555
Na3 O21 2.863960 1_555
Na4 O63 2.353156 1_555
Na4 O42 2.372987 1_565
Na4 O44 2.424796 1_555
Na4 O64 2.497454 1_555
Na4 O6 2.642486 1_555
Na4 O13 2.752239 1_565
Na4 O27 2.781277 1_555
Na4 O23 2.844834 1_565
Na5 O47 2.369196 1_565
Na5 O62 2.394122 1_555
Na5 O61 2.448600 1_555
Na5 O45 2.470355 1_455
Na5 O26 2.529647 1_554
Na5 O11 2.581367 1_555
Na5 O16 2.891377 1_565
Na5 O18 2.893401 1_565
Na6 O43 2.489715 1_565
Na6 O44 2.490434 1_455
Na6 O36 2.559089 1_555
Na6 O42 2.573756 1_465
Na6 O37 2.608826 1_455
Na6 O38 2.622417 1_565
Na7 O39 2.458057 1_655
Na7 O41 2.458088 1_545
Na7 O40 2.517985 1_645
Na7 O46 2.631211 1_556
Na7 O45 2.671953 1_546
Na7 O47 2.688804 1_656
Na8 O49 2.486862 1_555
Na8 O48 2.490412 1_555
Na8 O50 2.504357 1_555
Na8 O55 2.668659 1_555
Na8 O54 2.686202 1_555
Na8 O56 2.694386 1_555
Na9 O51 2.497836 1_555
Na9 O52 2.509081 1_555
Na9 O53 2.518921 1_555
Na9 O57 2.620332 1_555
Na9 O58 2.624292 1_555
Na9 O59 2.631453 1_555
Na10 O67 2.519709 1_555
Na10 O68 2.523294 1_555
Na10 O60 2.556147 1_555
Na10 O66 2.579998 1_555
Na10 O61 2.597068 1_555
Na10 O62 2.624373 1_555
Na11 O65 2.471617 1_555
Na11 O63 2.489296 1_555
Na11 O64 2.583603 1_555
Na11 O70 2.606669 1_555
Na11 O69 2.665741 1_555
Na11 O71 2.674634 1_555
Ga0 O1 1.845566 1_555
Ga0 O2 1.845797 1_565
Ga0 O0 1.849002 1_665
Ga0 O36 2.308540 1_655
Ga0 O38 2.313317 1_665
Ga0 O37 2.314762 1_555
Ga1 O41 1.869837 1_555
Ga1 O39 1.873394 1_665
Ga1 O40 1.874576 1_655
Ga1 O4 2.127789 1_555
Ga1 O5 2.128047 1_565
Ga1 O3 2.139002 1_665
Ga2 O44 1.891755 1_455
Ga2 O43 1.902365 1_565
Ga2 O42 1.947115 1_465
Ga2 O8 2.064740 1_555
Ga2 O7 2.148794 1_565
Ga2 O6 2.160652 1_455
Ga3 O9 1.827626 1_545
Ga3 O10 1.831247 1_655
Ga3 O11 1.874621 1_645
Ga3 O46 2.299119 1_555
Ga3 O45 2.383601 1_545
Ga3 O47 2.389854 1_655
Ga4 O12 1.831866 1_555
Ga4 O14 1.851330 1_555
Ga4 O13 1.855187 1_555
Ga4 O48 2.286195 1_555
Ga4 O50 2.287803 1_555
Ga4 O49 2.295842 1_555
Ga5 O52 1.902504 1_555
Ga5 O51 1.904649 1_555
Ga5 O53 1.913097 1_555
Ga5 O15 2.090814 1_555
Ga5 O17 2.105788 1_555
Ga5 O16 2.113498 1_555
Ga6 O25 1.808346 1_554
Ga6 O24 1.811114 1_554
Ga6 O26 1.857710 1_554
Ga6 O60 2.297064 1_555
Ga6 O62 2.374618 1_555
Ga6 O61 2.378595 1_555
Ga7 O63 1.876632 1_555
Ga7 O65 1.877200 1_555
Ga7 O64 1.923434 1_555
Ga7 O29 2.059923 1_555
Ga7 O27 2.147998 1_555
Ga7 O28 2.150736 1_555
Ga8 O68 1.905455 1_555
Ga8 O67 1.907279 1_555
Ga8 O66 1.911431 1_555
Ga8 O32 2.107992 1_555
Ga8 O30 2.113065 1_555
Ga8 O31 2.113600 1_555
O0 Si0 1.622288 1_555
O1 Si1 1.624947 1_555
O2 Si2 1.626024 1_655
O3 S0 1.467848 1_555
O4 S1 1.469711 1_555
O5 S2 1.467780 1_555
O6 S2 1.484947 1_565
O7 S0 1.486774 1_555
O8 S1 1.480251 1_455
O9 Si1 1.631412 1_555
O10 Si2 1.632914 1_555
O11 Si0 1.651006 1_565
O12 Si3 1.597027 1_555
O13 Si4 1.611693 1_555
O14 Si5 1.610823 1_555
O15 S3 1.486256 1_555
O16 S4 1.500811 1_555
O17 S5 1.492450 1_555
O18 S5 1.514630 1_555
O18 Ta0 2.134576 1_554
O19 S3 1.500358 1_555
O19 Ta0 2.113050 1_554
O20 S4 1.506830 1_555
O20 Ta0 2.125214 1_554
O21 Si4 1.703456 1_555
O21 Ta1 1.879028 1_555
O22 Si5 1.686646 1_555
O22 Ta1 1.863613 1_555
O23 Si3 1.695313 1_555
O23 Ta1 1.876722 1_555
O24 Si6 1.600511 1_555
O25 Si7 1.599219 1_555
O26 Si8 1.620721 1_555
O27 S6 1.479599 1_555
O28 S7 1.478378 1_555
O29 S8 1.474696 1_555
O30 S8 1.486597 1_555
O31 S6 1.486019 1_555
O32 S7 1.484144 1_555
O33 Si7 1.665120 1_555
O33 Ta2 1.881064 1_555
O34 Si8 1.662022 1_555
O34 Ta2 1.887095 1_555
O35 Si6 1.665389 1_555
O35 Ta2 1.880054 1_555
O36 S8 1.472553 1_555
O37 S6 1.472178 1_555
O38 S7 1.472353 1_555
O39 Si7 1.583061 1_555
O40 Si8 1.582479 1_555
O41 Si6 1.582848 1_555
O42 Si3 1.631678 1_555
O43 Si4 1.610802 1_555
O44 Si5 1.609239 1_555
O45 S3 1.484021 1_555
O46 S4 1.465350 1_555
O47 S5 1.487657 1_555
O48 S2 1.478110 1_555
O49 S0 1.478689 1_555
O50 S1 1.477902 1_555
O51 Si1 1.636697 1_555
O52 Si2 1.636929 1_655
O53 Si0 1.636070 1_555
O54 Si6 1.673087 1_555
O54 Ta0 1.875005 1_555
O55 Si7 1.673349 1_655
O55 Ta0 1.875788 1_555
O56 Si8 1.670163 1_545
O56 Ta0 1.882876 1_555
O57 S6 1.528093 1_545
O57 Ta1 2.171442 1_555
O58 S7 1.529041 1_555
O58 Ta1 2.158147 1_555
O59 S8 1.527939 1_655
O59 Ta1 2.163164 1_555
O60 S5 1.465009 1_555
O61 S3 1.484998 1_455
O62 S4 1.486778 1_565
O63 Si4 1.610726 1_565
O64 Si5 1.629733 1_555
O65 Si3 1.612397 1_455
O66 Si0 1.634974 1_565
O67 Si1 1.636389 1_555
O68 Si2 1.636816 1_555
O69 S0 1.535523 1_555
O69 Ta2 2.145215 1_555
O70 S1 1.537233 1_455
O70 Ta2 2.138359 1_555
O71 S2 1.536715 1_565
O71 Ta2 2.143422 1_555
