# generated using pymatgen
data_CrHgH18N6Cl5
_symmetry_space_group_name_H-M   'P 1'
_cell_length_a   16.30488292
_cell_length_b   16.30488295
_cell_length_c   16.30488279
_cell_angle_alpha   60.00000034
_cell_angle_beta   60.00000028
_cell_angle_gamma   60.00000149
_symmetry_Int_Tables_number   1
_chemical_formula_structural   CrHgH18N6Cl5
_chemical_formula_sum   'Cr8 Hg8 H144 N48 Cl40'
_cell_volume   3065.05350452
_cell_formula_units_Z   8
loop_
 _symmetry_equiv_pos_site_id
 _symmetry_equiv_pos_as_xyz
  1  'x, y, z'
loop_
 _atom_site_type_symbol
 _atom_site_label
 _atom_site_symmetry_multiplicity
 _atom_site_fract_x
 _atom_site_fract_y
 _atom_site_fract_z
 _atom_site_occupancy
  H  H0  1  0.99743314  0.92735933  0.18708982  1
  H  H1  1  0.57264067  0.31291018  0.11188229  1
  H  H2  1  0.11188229  0.50256686  0.57264067  1
  H  H3  1  0.57264067  0.11188229  0.50256686  1
  H  H4  1  0.31291018  0.50256686  0.11188229  1
  H  H5  1  0.31291018  0.11188229  0.57264067  1
  H  H6  1  0.11188229  0.31291018  0.50256686  1
  H  H7  1  0.18708982  0.99743314  0.92735933  1
  H  H8  1  0.92735933  0.18708982  0.99743314  1
  H  H9  1  0.38811771  0.99743314  0.18708982  1
  H  H10  1  0.92735933  0.38811771  0.18708982  1
  H  H11  1  0.38811771  0.92735933  0.99743314  1
  H  H12  1  0.18708982  0.92735933  0.38811771  1
  H  H13  1  0.99743314  0.18708982  0.38811771  1
  H  H14  1  0.99743314  0.38811771  0.92735933  1
  H  H15  1  0.11188229  0.57264067  0.31291018  1
  H  H16  1  0.50256686  0.11188229  0.31291018  1
  H  H17  1  0.50256686  0.57264067  0.11188229  1
  H  H18  1  0.57264067  0.50256686  0.31291018  1
  H  H19  1  0.31291018  0.57264067  0.50256686  1
  H  H20  1  0.50256686  0.31291018  0.57264067  1
  H  H21  1  0.18708982  0.38811771  0.99743314  1
  H  H22  1  0.38811771  0.18708982  0.92735933  1
  H  H23  1  0.92735933  0.99743314  0.38811771  1
  H  H24  1  0.00256686  0.07264067  0.81291018  1
  H  H25  1  0.42735933  0.68708982  0.88811771  1
  H  H26  1  0.88811771  0.49743314  0.42735933  1
  H  H27  1  0.42735933  0.88811771  0.49743314  1
  H  H28  1  0.68708982  0.49743314  0.88811771  1
  H  H29  1  0.68708982  0.88811771  0.42735933  1
  H  H30  1  0.88811771  0.68708982  0.49743314  1
  H  H31  1  0.81291018  0.00256686  0.07264067  1
  H  H32  1  0.07264067  0.81291018  0.00256686  1
  H  H33  1  0.61188229  0.00256686  0.81291018  1
  H  H34  1  0.07264067  0.61188229  0.81291018  1
  H  H35  1  0.61188229  0.07264067  0.00256686  1
  H  H36  1  0.81291018  0.07264067  0.61188229  1
  H  H37  1  0.00256686  0.81291018  0.61188229  1
  H  H38  1  0.00256686  0.61188229  0.07264067  1
  H  H39  1  0.88811771  0.42735933  0.68708982  1
  H  H40  1  0.49743314  0.88811771  0.68708982  1
  H  H41  1  0.49743314  0.42735933  0.88811771  1
  H  H42  1  0.42735933  0.49743314  0.68708982  1
  H  H43  1  0.68708982  0.42735933  0.49743314  1
  H  H44  1  0.49743314  0.68708982  0.42735933  1
  H  H45  1  0.81291018  0.61188229  0.00256686  1
  H  H46  1  0.61188229  0.81291018  0.07264067  1
  H  H47  1  0.07264067  0.00256686  0.61188229  1
  H  H48  1  0.88071785  0.97921437  0.18889727  1
  H  H49  1  0.52078563  0.31110273  0.04882949  1
  H  H50  1  0.04882949  0.61928215  0.52078563  1
  H  H51  1  0.52078563  0.04882949  0.61928215  1
  H  H52  1  0.31110273  0.61928215  0.04882949  1
  H  H53  1  0.31110273  0.04882949  0.52078563  1
  H  H54  1  0.04882949  0.31110273  0.61928215  1
  H  H55  1  0.18889727  0.88071785  0.97921437  1
  H  H56  1  0.97921437  0.18889727  0.88071785  1
  H  H57  1  0.45117051  0.88071785  0.18889727  1
  H  H58  1  0.97921437  0.45117051  0.18889727  1
  H  H59  1  0.45117051  0.97921437  0.88071785  1
  H  H60  1  0.18889727  0.97921437  0.45117051  1
  H  H61  1  0.88071785  0.18889727  0.45117051  1
  H  H62  1  0.88071785  0.45117051  0.97921437  1
  H  H63  1  0.04882949  0.52078563  0.31110273  1
  H  H64  1  0.61928215  0.04882949  0.31110273  1
  H  H65  1  0.61928215  0.52078563  0.04882949  1
  H  H66  1  0.52078563  0.61928215  0.31110273  1
  H  H67  1  0.31110273  0.52078563  0.61928215  1
  H  H68  1  0.61928215  0.31110273  0.52078563  1
  H  H69  1  0.18889727  0.45117051  0.88071785  1
  H  H70  1  0.45117051  0.18889727  0.97921437  1
  H  H71  1  0.97921437  0.88071785  0.45117051  1
  H  H72  1  0.11928215  0.02078563  0.81110273  1
  H  H73  1  0.47921437  0.68889727  0.95117051  1
  H  H74  1  0.95117051  0.38071785  0.47921437  1
  H  H75  1  0.47921437  0.95117051  0.38071785  1
  H  H76  1  0.68889727  0.38071785  0.95117051  1
  H  H77  1  0.68889727  0.95117051  0.47921437  1
  H  H78  1  0.95117051  0.68889727  0.38071785  1
  H  H79  1  0.81110273  0.11928215  0.02078563  1
  H  H80  1  0.02078563  0.81110273  0.11928215  1
  H  H81  1  0.54882949  0.11928215  0.81110273  1
  H  H82  1  0.02078563  0.54882949  0.81110273  1
  H  H83  1  0.54882949  0.02078563  0.11928215  1
  H  H84  1  0.81110273  0.02078563  0.54882949  1
  H  H85  1  0.11928215  0.81110273  0.54882949  1
  H  H86  1  0.11928215  0.54882949  0.02078563  1
  H  H87  1  0.95117051  0.47921437  0.68889727  1
  H  H88  1  0.38071785  0.95117051  0.68889727  1
  H  H89  1  0.38071785  0.47921437  0.95117051  1
  H  H90  1  0.47921437  0.38071785  0.68889727  1
  H  H91  1  0.68889727  0.47921437  0.38071785  1
  H  H92  1  0.38071785  0.68889727  0.47921437  1
  H  H93  1  0.81110273  0.54882949  0.11928215  1
  H  H94  1  0.54882949  0.81110273  0.02078563  1
  H  H95  1  0.02078563  0.11928215  0.54882949  1
  H  H96  1  0.94311571  0.05116442  0.15946544  1
  H  H97  1  0.44883558  0.34053456  0.15374557  1
  H  H98  1  0.15374557  0.55688429  0.44883558  1
  H  H99  1  0.44883558  0.15374557  0.55688429  1
  H  H100  1  0.34053456  0.55688429  0.15374557  1
  H  H101  1  0.34053456  0.15374557  0.44883558  1
  H  H102  1  0.15374557  0.34053456  0.55688429  1
  H  H103  1  0.15946544  0.94311571  0.05116442  1
  H  H104  1  0.05116442  0.15946544  0.94311571  1
  H  H105  1  0.34625443  0.94311571  0.15946544  1
  H  H106  1  0.05116442  0.34625443  0.15946544  1
  H  H107  1  0.34625443  0.05116442  0.94311571  1
  H  H108  1  0.15946544  0.05116442  0.34625443  1
  H  H109  1  0.94311571  0.15946544  0.34625443  1
  H  H110  1  0.94311571  0.34625443  0.05116442  1
  H  H111  1  0.15374557  0.44883558  0.34053456  1
  H  H112  1  0.55688429  0.15374557  0.34053456  1
  H  H113  1  0.55688429  0.44883558  0.15374557  1
  H  H114  1  0.44883558  0.55688429  0.34053456  1
  H  H115  1  0.34053456  0.44883558  0.55688429  1
  H  H116  1  0.55688429  0.34053456  0.44883558  1
  H  H117  1  0.15946544  0.34625443  0.94311571  1
  H  H118  1  0.34625443  0.15946544  0.05116442  1
  H  H119  1  0.05116442  0.94311571  0.34625443  1
  H  H120  1  0.05688429  0.94883558  0.84053456  1
  H  H121  1  0.55116442  0.65946544  0.84625443  1
  H  H122  1  0.84625443  0.44311571  0.55116442  1
  H  H123  1  0.55116442  0.84625443  0.44311571  1
  H  H124  1  0.65946544  0.44311571  0.84625443  1
  H  H125  1  0.65946544  0.84625443  0.55116442  1
  H  H126  1  0.84625443  0.65946544  0.44311571  1
  H  H127  1  0.84053456  0.05688429  0.94883558  1
  H  H128  1  0.94883558  0.84053456  0.05688429  1
  H  H129  1  0.65374557  0.05688429  0.84053456  1
  H  H130  1  0.94883558  0.65374557  0.84053456  1
  H  H131  1  0.65374557  0.94883558  0.05688429  1
  H  H132  1  0.84053456  0.94883558  0.65374557  1
  H  H133  1  0.05688429  0.84053456  0.65374557  1
  H  H134  1  0.05688429  0.65374557  0.94883558  1
  H  H135  1  0.84625443  0.55116442  0.65946544  1
  H  H136  1  0.44311571  0.84625443  0.65946544  1
  H  H137  1  0.44311571  0.55116442  0.84625443  1
  H  H138  1  0.55116442  0.44311571  0.65946544  1
  H  H139  1  0.65946544  0.55116442  0.44311571  1
  H  H140  1  0.44311571  0.65946544  0.55116442  1
  H  H141  1  0.84053456  0.65374557  0.05688429  1
  H  H142  1  0.65374557  0.84053456  0.94883558  1
  H  H143  1  0.94883558  0.05688429  0.65374557  1
  N  N0  1  0.94971345  0.98975667  0.15025902  1
  N  N1  1  0.51024333  0.34974098  0.08972914  1
  N  N2  1  0.08972914  0.55028655  0.51024333  1
  N  N3  1  0.51024333  0.08972914  0.55028655  1
  N  N4  1  0.34974098  0.55028655  0.08972914  1
  N  N5  1  0.34974098  0.08972914  0.51024333  1
  N  N6  1  0.08972914  0.34974098  0.55028655  1
  N  N7  1  0.15025902  0.94971345  0.98975667  1
  N  N8  1  0.98975667  0.15025902  0.94971345  1
  N  N9  1  0.41027086  0.94971345  0.15025902  1
  N  N10  1  0.98975667  0.41027086  0.15025902  1
  N  N11  1  0.41027086  0.98975667  0.94971345  1
  N  N12  1  0.15025902  0.98975667  0.41027086  1
  N  N13  1  0.94971345  0.15025902  0.41027086  1
  N  N14  1  0.94971345  0.41027086  0.98975667  1
  N  N15  1  0.08972914  0.51024333  0.34974098  1
  N  N16  1  0.55028655  0.08972914  0.34974098  1
  N  N17  1  0.55028655  0.51024333  0.08972914  1
  N  N18  1  0.51024333  0.55028655  0.34974098  1
  N  N19  1  0.34974098  0.51024333  0.55028655  1
  N  N20  1  0.55028655  0.34974098  0.51024333  1
  N  N21  1  0.15025902  0.41027086  0.94971345  1
  N  N22  1  0.41027086  0.15025902  0.98975667  1
  N  N23  1  0.98975667  0.94971345  0.41027086  1
  N  N24  1  0.05028655  0.01024333  0.84974098  1
  N  N25  1  0.48975667  0.65025902  0.91027086  1
  N  N26  1  0.91027086  0.44971345  0.48975667  1
  N  N27  1  0.48975667  0.91027086  0.44971345  1
  N  N28  1  0.65025902  0.44971345  0.91027086  1
  N  N29  1  0.65025902  0.91027086  0.48975667  1
  N  N30  1  0.91027086  0.65025902  0.44971345  1
  N  N31  1  0.84974098  0.05028655  0.01024333  1
  N  N32  1  0.01024333  0.84974098  0.05028655  1
  N  N33  1  0.58972914  0.05028655  0.84974098  1
  N  N34  1  0.01024333  0.58972914  0.84974098  1
  N  N35  1  0.58972914  0.01024333  0.05028655  1
  N  N36  1  0.84974098  0.01024333  0.58972914  1
  N  N37  1  0.05028655  0.84974098  0.58972914  1
  N  N38  1  0.05028655  0.58972914  0.01024333  1
  N  N39  1  0.91027086  0.48975667  0.65025902  1
  N  N40  1  0.44971345  0.91027086  0.65025902  1
  N  N41  1  0.44971345  0.48975667  0.91027086  1
  N  N42  1  0.48975667  0.44971345  0.65025902  1
  N  N43  1  0.65025902  0.48975667  0.44971345  1
  N  N44  1  0.44971345  0.65025902  0.48975667  1
  N  N45  1  0.84974098  0.58972914  0.05028655  1
  N  N46  1  0.58972914  0.84974098  0.01024333  1
  N  N47  1  0.01024333  0.05028655  0.58972914  1
  Cl  Cl0  1  0.18698184  0.18698184  0.18698184  1
  Cl  Cl1  1  0.31301816  0.31301816  0.56094551  1
  Cl  Cl2  1  0.56094551  0.31301816  0.31301816  1
  Cl  Cl3  1  0.31301816  0.56094551  0.31301816  1
  Cl  Cl4  1  0.93905449  0.18698184  0.18698184  1
  Cl  Cl5  1  0.18698184  0.93905449  0.18698184  1
  Cl  Cl6  1  0.18698184  0.18698184  0.93905449  1
  Cl  Cl7  1  0.31301816  0.31301816  0.31301816  1
  Cl  Cl8  1  0.81301816  0.81301816  0.81301816  1
  Cl  Cl9  1  0.68698184  0.68698184  0.43905449  1
  Cl  Cl10  1  0.43905449  0.68698184  0.68698184  1
  Cl  Cl11  1  0.68698184  0.43905449  0.68698184  1
  Cl  Cl12  1  0.06094551  0.81301816  0.81301816  1
  Cl  Cl13  1  0.81301816  0.06094551  0.81301816  1
  Cl  Cl14  1  0.81301816  0.81301816  0.06094551  1
  Cl  Cl15  1  0.68698184  0.68698184  0.68698184  1
  Cl  Cl16  1  0.25000000  0.41938322  0.08061678  1
  Cl  Cl17  1  0.08061678  0.41938322  0.75000000  1
  Cl  Cl18  1  0.75000000  0.25000000  0.08061678  1
  Cl  Cl19  1  0.08061678  0.75000000  0.25000000  1
  Cl  Cl20  1  0.41938322  0.25000000  0.75000000  1
  Cl  Cl21  1  0.41938322  0.75000000  0.08061678  1
  Cl  Cl22  1  0.75000000  0.41938322  0.25000000  1
  Cl  Cl23  1  0.08061678  0.25000000  0.41938322  1
  Cl  Cl24  1  0.41938322  0.08061678  0.25000000  1
  Cl  Cl25  1  0.25000000  0.08061678  0.75000000  1
  Cl  Cl26  1  0.25000000  0.75000000  0.41938322  1
  Cl  Cl27  1  0.75000000  0.08061678  0.41938322  1
  Cl  Cl28  1  0.75000000  0.58061678  0.91938322  1
  Cl  Cl29  1  0.91938322  0.58061678  0.25000000  1
  Cl  Cl30  1  0.25000000  0.75000000  0.91938322  1
  Cl  Cl31  1  0.91938322  0.25000000  0.75000000  1
  Cl  Cl32  1  0.58061678  0.75000000  0.25000000  1
  Cl  Cl33  1  0.58061678  0.25000000  0.91938322  1
  Cl  Cl34  1  0.25000000  0.58061678  0.75000000  1
  Cl  Cl35  1  0.91938322  0.75000000  0.58061678  1
  Cl  Cl36  1  0.58061678  0.91938322  0.75000000  1
  Cl  Cl37  1  0.75000000  0.91938322  0.25000000  1
  Cl  Cl38  1  0.75000000  0.25000000  0.58061678  1
  Cl  Cl39  1  0.25000000  0.91938322  0.58061678  1
  Cr  Cr0  1  0.00000000  0.00000000  0.00000000  1
  Cr  Cr1  1  0.50000000  0.50000000  0.00000000  1
  Cr  Cr2  1  0.00000000  0.50000000  0.50000000  1
  Cr  Cr3  1  0.50000000  0.00000000  0.50000000  1
  Cr  Cr4  1  0.50000000  0.00000000  0.00000000  1
  Cr  Cr5  1  0.00000000  0.50000000  0.00000000  1
  Cr  Cr6  1  0.00000000  0.00000000  0.50000000  1
  Cr  Cr7  1  0.50000000  0.50000000  0.50000000  1
  Hg  Hg0  1  0.25000000  0.25000000  0.25000000  1
  Hg  Hg1  1  0.25000000  0.25000000  0.75000000  1
  Hg  Hg2  1  0.75000000  0.25000000  0.25000000  1
  Hg  Hg3  1  0.25000000  0.75000000  0.25000000  1
  Hg  Hg4  1  0.75000000  0.75000000  0.75000000  1
  Hg  Hg5  1  0.75000000  0.75000000  0.25000000  1
  Hg  Hg6  1  0.25000000  0.75000000  0.75000000  1
  Hg  Hg7  1  0.75000000  0.25000000  0.75000000  1
loop_
_geom_bond_atom_site_label_1
_geom_bond_atom_site_label_2
_geom_bond_distance
_geom_bond_site_symmetry_2
H0 N0 1.032362 1_555
H1 N1 1.032362 1_555
H2 N2 1.032362 1_555
H3 N3 1.032362 1_555
H4 N4 1.032362 1_555
H5 N5 1.032362 1_555
H6 N6 1.032362 1_555
H7 N7 1.032362 1_555
H8 N8 1.032362 1_555
H9 N9 1.032362 1_555
H10 N10 1.032362 1_555
H11 N11 1.032362 1_555
H12 N12 1.032362 1_555
H13 N13 1.032362 1_555
H14 N14 1.032362 1_555
H15 N15 1.032362 1_555
H16 N16 1.032362 1_555
H17 N17 1.032362 1_555
H18 N18 1.032362 1_555
H19 N19 1.032362 1_555
H20 N20 1.032362 1_555
H21 N21 1.032362 1_555
H22 N22 1.032362 1_555
H23 N23 1.032362 1_555
H24 N24 1.032362 1_555
H25 N25 1.032362 1_555
H26 N26 1.032362 1_555
H27 N27 1.032362 1_555
H28 N28 1.032362 1_555
H29 N29 1.032362 1_555
H30 N30 1.032362 1_555
H31 N31 1.032362 1_555
H32 N32 1.032362 1_555
H33 N33 1.032362 1_555
H34 N34 1.032362 1_555
H35 N35 1.032362 1_555
H36 N36 1.032362 1_555
H37 N37 1.032362 1_555
H38 N38 1.032362 1_555
H39 N39 1.032362 1_555
H40 N40 1.032362 1_555
H41 N41 1.032362 1_555
H42 N42 1.032362 1_555
H43 N43 1.032362 1_555
H44 N44 1.032362 1_555
H45 N45 1.032362 1_555
H46 N46 1.032362 1_555
H47 N47 1.032362 1_555
H48 N0 1.033608 1_555
H49 N1 1.033608 1_555
H50 N2 1.033608 1_555
H51 N3 1.033608 1_555
H52 N4 1.033608 1_555
H53 N5 1.033608 1_555
H54 N6 1.033608 1_555
H55 N7 1.033608 1_555
H56 N8 1.033608 1_555
H57 N9 1.033608 1_555
H58 N10 1.033608 1_555
H59 N11 1.033608 1_555
H60 N12 1.033608 1_555
H61 N13 1.033608 1_555
H62 N14 1.033608 1_555
H63 N15 1.033608 1_555
H64 N16 1.033608 1_555
H65 N17 1.033608 1_555
H66 N18 1.033608 1_555
H67 N19 1.033608 1_555
H68 N20 1.033608 1_555
H69 N21 1.033608 1_555
H70 N22 1.033608 1_555
H71 N23 1.033608 1_555
H72 N24 1.033608 1_555
H73 N25 1.033608 1_555
H74 N26 1.033608 1_555
H75 N27 1.033608 1_555
H76 N28 1.033608 1_555
H77 N29 1.033608 1_555
H78 N30 1.033608 1_555
H79 N31 1.033608 1_555
H80 N32 1.033608 1_555
H81 N33 1.033608 1_555
H82 N34 1.033608 1_555
H83 N35 1.033608 1_555
H84 N36 1.033608 1_555
H85 N37 1.033608 1_555
H86 N38 1.033608 1_555
H87 N39 1.033608 1_555
H88 N40 1.033608 1_555
H89 N41 1.033608 1_555
H90 N42 1.033608 1_555
H91 N43 1.033608 1_555
H92 N44 1.033608 1_555
H93 N45 1.033608 1_555
H94 N46 1.033608 1_555
H95 N47 1.033608 1_555
H96 N0 1.031038 1_545
H97 N1 1.031038 1_555
H98 N2 1.031038 1_555
H99 N3 1.031038 1_555
H100 N4 1.031038 1_555
H101 N5 1.031038 1_555
H102 N6 1.031038 1_555
H103 N7 1.031038 1_554
H104 N8 1.031038 1_455
H105 N9 1.031038 1_555
H106 N10 1.031038 1_455
H107 N11 1.031038 1_545
H108 N12 1.031038 1_545
H109 N13 1.031038 1_555
H110 N14 1.031038 1_554
H111 N15 1.031038 1_555
H112 N16 1.031038 1_555
H113 N17 1.031038 1_555
H114 N18 1.031038 1_555
H115 N19 1.031038 1_555
H116 N20 1.031038 1_555
H117 N21 1.031038 1_555
H118 N22 1.031038 1_554
H119 N23 1.031038 1_455
H120 N24 1.031038 1_565
H121 N25 1.031038 1_555
H122 N26 1.031038 1_555
H123 N27 1.031038 1_555
H124 N28 1.031038 1_555
H125 N29 1.031038 1_555
H126 N30 1.031038 1_555
H127 N31 1.031038 1_556
H128 N32 1.031038 1_655
H129 N33 1.031038 1_555
H130 N34 1.031038 1_655
H131 N35 1.031038 1_565
H132 N36 1.031038 1_565
H133 N37 1.031038 1_555
H134 N38 1.031038 1_556
H135 N39 1.031038 1_555
H136 N40 1.031038 1_555
H137 N41 1.031038 1_555
H138 N42 1.031038 1_555
H139 N43 1.031038 1_555
H140 N44 1.031038 1_555
H141 N45 1.031038 1_555
H142 N46 1.031038 1_556
H143 N47 1.031038 1_655
Cl0 Hg0 2.516860 1_555
Cl1 Hg1 2.516860 1_555
Cl2 Hg2 2.516860 1_555
Cl3 Hg3 2.516860 1_555
Cl4 Hg2 2.516860 1_555
Cl5 Hg3 2.516860 1_555
Cl6 Hg1 2.516860 1_555
Cl7 Hg0 2.516860 1_555
Cl8 Hg4 2.516860 1_555
Cl9 Hg5 2.516860 1_555
Cl10 Hg6 2.516860 1_555
Cl11 Hg7 2.516860 1_555
Cl12 Hg6 2.516860 1_555
Cl13 Hg7 2.516860 1_555
Cl14 Hg5 2.516860 1_555
Cl15 Hg4 2.516860 1_555
Cl16 Hg0 2.761774 1_555
Cl17 Hg1 2.761774 1_555
Cl18 Hg2 2.761774 1_555
Cl19 Hg3 2.761774 1_555
Cl20 Hg1 2.761774 1_555
Cl21 Hg3 2.761774 1_555
Cl22 Hg2 2.761774 1_555
Cl23 Hg0 2.761774 1_555
Cl24 Hg0 2.761774 1_555
Cl25 Hg1 2.761774 1_555
Cl26 Hg3 2.761774 1_555
Cl27 Hg2 2.761774 1_555
Cl28 Hg4 2.761774 1_555
Cl29 Hg5 2.761774 1_555
Cl30 Hg6 2.761774 1_555
Cl31 Hg7 2.761774 1_555
Cl32 Hg5 2.761774 1_555
Cl33 Hg7 2.761774 1_555
Cl34 Hg6 2.761774 1_555
Cl35 Hg4 2.761774 1_555
Cl36 Hg4 2.761774 1_555
Cl37 Hg5 2.761774 1_555
Cl38 Hg7 2.761774 1_555
Cl39 Hg6 2.761774 1_555
Cr0 N24 2.102722 1_554
Cr0 N0 2.102722 1_445
Cr0 N32 2.102722 1_545
Cr0 N8 2.102722 1_454
Cr0 N7 2.102722 1_544
Cr0 N31 2.102722 1_455
Cr1 N41 2.102722 1_554
Cr1 N17 2.102722 1_555
Cr1 N1 2.102722 1_555
Cr1 N25 2.102722 1_554
Cr1 N4 2.102722 1_555
Cr1 N28 2.102722 1_554
Cr2 N26 2.102722 1_455
Cr2 N2 2.102722 1_555
Cr2 N15 2.102722 1_555
Cr2 N39 2.102722 1_455
Cr2 N6 2.102722 1_555
Cr2 N30 2.102722 1_455
Cr3 N16 2.102722 1_555
Cr3 N40 2.102722 1_545
Cr3 N27 2.102722 1_545
Cr3 N3 2.102722 1_555
Cr3 N5 2.102722 1_555
Cr3 N29 2.102722 1_545
Cr4 N9 2.102722 1_545
Cr4 N33 2.102722 1_554
Cr4 N11 2.102722 1_544
Cr4 N35 2.102722 1_555
Cr4 N22 2.102722 1_554
Cr4 N46 2.102722 1_545
Cr5 N14 2.102722 1_454
Cr5 N38 2.102722 1_555
Cr5 N10 2.102722 1_455
Cr5 N34 2.102722 1_554
Cr5 N21 2.102722 1_554
Cr5 N45 2.102722 1_455
Cr6 N23 2.102722 1_445
Cr6 N47 2.102722 1_555
Cr6 N12 2.102722 1_545
Cr6 N36 2.102722 1_455
Cr6 N13 2.102722 1_455
Cr6 N37 2.102722 1_545
Cr7 N18 2.102722 1_555
Cr7 N42 2.102722 1_555
Cr7 N19 2.102722 1_555
Cr7 N43 2.102722 1_555
Cr7 N20 2.102722 1_555
Cr7 N44 2.102722 1_555
