# generated using pymatgen
data_Na6Mg16Ta8Si3(S11O48)3
_symmetry_space_group_name_H-M   'P 1'
_cell_length_a   17.43851040
_cell_length_b   8.71708736
_cell_length_c   22.58673662
_cell_angle_alpha   90.09672208
_cell_angle_beta   89.91882028
_cell_angle_gamma   119.97559119
_symmetry_Int_Tables_number   1
_chemical_formula_structural   Na6Mg16Ta8Si3(S11O48)3
_chemical_formula_sum   'Na6 Mg16 Ta8 Si3 S33 O144'
_cell_volume   2974.20537946
_cell_formula_units_Z   1
loop_
 _symmetry_equiv_pos_site_id
 _symmetry_equiv_pos_as_xyz
  1  'x, y, z'
loop_
 _atom_site_type_symbol
 _atom_site_label
 _atom_site_symmetry_multiplicity
 _atom_site_fract_x
 _atom_site_fract_y
 _atom_site_fract_z
 _atom_site_occupancy
  Na  Na0  1  0.00170937  0.98832468  0.49050767  1
  Na  Na1  1  0.49181408  0.00434024  0.99924027  1
  Na  Na2  1  0.33371698  0.33286155  0.83994817  1
  Na  Na3  1  0.84380039  0.35101686  0.82828632  1
  Na  Na4  1  0.33473777  0.33830321  0.33357476  1
  Na  Na5  1  0.83754876  0.34094192  0.33998919  1
  Mg  Mg0  1  0.00026435  0.99564446  0.35578924  1
  Mg  Mg1  1  0.49828499  0.99703229  0.35372402  1
  Mg  Mg2  1  0.00102211  0.99666482  0.85542425  1
  Mg  Mg3  1  0.49705856  0.00063747  0.85691279  1
  Mg  Mg4  1  0.49394421  0.99823743  0.14961097  1
  Mg  Mg5  1  0.33129411  0.33089790  0.68349215  1
  Mg  Mg6  1  0.83907142  0.34089995  0.68362734  1
  Mg  Mg7  1  0.33673885  0.33316802  0.18297292  1
  Mg  Mg8  1  0.83093213  0.33139887  0.18575742  1
  Mg  Mg9  1  0.33340750  0.32439250  0.97944398  1
  Mg  Mg10  1  0.83840482  0.34054359  0.98078788  1
  Mg  Mg11  1  0.33188905  0.32963354  0.47952136  1
  Mg  Mg12  1  0.84108163  0.34390438  0.47787110  1
  Mg  Mg13  1  0.17113284  0.67591441  0.02233958  1
  Mg  Mg14  1  0.16151470  0.66737106  0.52017100  1
  Mg  Mg15  1  0.66731732  0.66648769  0.52081507  1
  Ta  Ta0  1  0.00156294  0.99185056  0.64566212  1
  Ta  Ta1  1  0.49930193  0.00008891  0.64082529  1
  Ta  Ta2  1  0.00283044  0.00102408  0.14374927  1
  Ta  Ta3  1  0.66092691  0.65114422  0.02289057  1
  Ta  Ta4  1  0.16436946  0.66600884  0.31569202  1
  Ta  Ta5  1  0.66492518  0.66534625  0.31294924  1
  Ta  Ta6  1  0.16259267  0.66794514  0.81128282  1
  Ta  Ta7  1  0.66327723  0.65901903  0.81071391  1
  Si  Si0  1  0.99133163  0.70051873  0.75457143  1
  Si  Si1  1  0.51391440  0.36165003  0.91608666  1
  Si  Si2  1  0.01527140  0.66754870  0.42149678  1
  S  S0  1  0.14667117  0.00414739  0.25088403  1
  S  S1  1  0.64581669  0.00530844  0.25061405  1
  S  S2  1  0.35528314  0.70549637  0.25069088  1
  S  S3  1  0.85600934  0.70982416  0.25070316  1
  S  S4  1  0.99874322  0.28668815  0.25107069  1
  S  S5  1  0.49790448  0.28717109  0.25103258  1
  S  S6  1  0.14677496  0.28890078  0.75153462  1
  S  S7  1  0.64384442  0.28167328  0.75068576  1
  S  S8  1  0.49798494  0.71148946  0.75091741  1
  S  S9  1  0.35708410  0.00393554  0.75084287  1
  S  S10  1  0.85634330  0.00327326  0.75177060  1
  S  S11  1  0.47843139  0.34118314  0.58353201  1
  S  S12  1  0.97938404  0.33355250  0.58345789  1
  S  S13  1  0.19140750  0.04416680  0.58347582  1
  S  S14  1  0.69280406  0.04502675  0.58355046  1
  S  S15  1  0.32919051  0.61588105  0.58323528  1
  S  S16  1  0.82971582  0.61984009  0.58331054  1
  S  S17  1  0.47623570  0.62877612  0.08272995  1
  S  S18  1  0.97824762  0.61713757  0.08405694  1
  S  S19  1  0.33432850  0.04247140  0.08315393  1
  S  S20  1  0.83332973  0.04562488  0.08333355  1
  S  S21  1  0.19215214  0.34177650  0.08326946  1
  S  S22  1  0.68826313  0.32512487  0.08283437  1
  S  S23  1  0.31053885  0.66370280  0.91726447  1
  S  S24  1  0.81145309  0.66824210  0.91705214  1
  S  S25  1  0.02133486  0.37462321  0.91806571  1
  S  S26  1  0.16504229  0.95661310  0.91840160  1
  S  S27  1  0.66866222  0.95647121  0.91692901  1
  S  S28  1  0.31377044  0.95888351  0.41810262  1
  S  S29  1  0.81018009  0.95571550  0.41806453  1
  S  S30  1  0.16806186  0.37713190  0.41811360  1
  S  S31  1  0.66408041  0.37273739  0.41785020  1
  S  S32  1  0.52098579  0.66773122  0.41845500  1
  O  O0  1  0.10378693  0.02985554  0.30169757  1
  O  O1  1  0.60553654  0.02915200  0.30388326  1
  O  O2  1  0.40938339  0.78743109  0.30360522  1
  O  O3  1  0.90983834  0.79443663  0.30210321  1
  O  O4  1  0.48645566  0.18298702  0.30404931  1
  O  O5  1  0.98612160  0.17806282  0.30260884  1
  O  O6  1  0.10570120  0.18404548  0.80379511  1
  O  O7  1  0.60202388  0.17750217  0.80308905  1
  O  O8  1  0.48755918  0.79450210  0.80348346  1
  O  O9  1  0.98313375  0.79968412  0.80982944  1
  O  O10  1  0.41186274  0.03124009  0.80250111  1
  O  O11  1  0.90951570  0.03251190  0.80425629  1
  O  O12  1  0.39921907  0.97371967  0.69649735  1
  O  O13  1  0.89727444  0.97186715  0.69769628  1
  O  O14  1  0.09004540  0.21038524  0.69700285  1
  O  O15  1  0.58591236  0.20350224  0.69697984  1
  O  O16  1  0.01284724  0.83347140  0.69408202  1
  O  O17  1  0.51347398  0.82446206  0.69702825  1
  O  O18  1  0.39276384  0.81271024  0.19747020  1
  O  O19  1  0.89730185  0.82303783  0.19600532  1
  O  O20  1  0.01120024  0.19693664  0.19633013  1
  O  O21  1  0.51822353  0.22046930  0.19774196  1
  O  O22  1  0.08775991  0.97359992  0.19620556  1
  O  O23  1  0.59300968  0.96870181  0.19710084  1
  O  O24  1  0.43844831  0.36177692  0.63738758  1
  O  O25  1  0.93837466  0.35519642  0.63667041  1
  O  O26  1  0.24014023  0.12803743  0.63749053  1
  O  O27  1  0.74225585  0.12481476  0.63742718  1
  O  O28  1  0.32010917  0.51728485  0.63724816  1
  O  O29  1  0.81914220  0.51965475  0.63710328  1
  O  O30  1  0.44402166  0.52232545  0.13616853  1
  O  O31  1  0.93675406  0.51291053  0.13712025  1
  O  O32  1  0.32185276  0.12423352  0.13703018  1
  O  O33  1  0.81729405  0.11887584  0.13648418  1
  O  O34  1  0.24254899  0.36204654  0.13688847  1
  O  O35  1  0.74201693  0.36236260  0.13597138  1
  O  O36  1  0.22417020  0.29557739  0.03074546  1
  O  O37  1  0.72951189  0.30503133  0.02917344  1
  O  O38  1  0.42459002  0.54670170  0.02975418  1
  O  O39  1  0.92228828  0.55234012  0.03146201  1
  O  O40  1  0.34945088  0.15444710  0.03031584  1
  O  O41  1  0.85218904  0.15346641  0.03056481  1
  O  O42  1  0.22721382  0.15550661  0.53076344  1
  O  O43  1  0.72512767  0.15644521  0.53113577  1
  O  O44  1  0.35326419  0.54941677  0.53122563  1
  O  O45  1  0.85148143  0.55164810  0.53076156  1
  O  O46  1  0.42234814  0.29523494  0.53122582  1
  O  O47  1  0.92277962  0.28967461  0.53091254  1
  O  O48  1  0.27000486  0.69325157  0.96935278  1
  O  O49  1  0.76515858  0.68894775  0.97038612  1
  O  O50  1  0.07529775  0.46057571  0.96983937  1
  O  O51  1  0.58278061  0.48054629  0.97266007  1
  O  O52  1  0.15305113  0.84534968  0.96941403  1
  O  O53  1  0.65918739  0.84568457  0.97030128  1
  O  O54  1  0.27363394  0.85115787  0.46999638  1
  O  O55  1  0.76908044  0.84403395  0.46941102  1
  O  O56  1  0.15837393  0.46101248  0.47062796  1
  O  O57  1  0.65208317  0.45958435  0.46899276  1
  O  O58  1  0.07998924  0.69595020  0.47446890  1
  O  O59  1  0.57559874  0.69084943  0.46968008  1
  O  O60  1  0.07275097  0.64489322  0.35911645  1
  O  O61  1  0.56799689  0.64112446  0.36279753  1
  O  O62  1  0.25393314  0.86526005  0.36225942  1
  O  O63  1  0.75325428  0.85949320  0.36228987  1
  O  O64  1  0.18204847  0.49316292  0.36199077  1
  O  O65  1  0.67809986  0.49586194  0.36235272  1
  O  O66  1  0.06744580  0.49371799  0.86256070  1
  O  O67  1  0.57447179  0.50187337  0.85936389  1
  O  O68  1  0.17888885  0.86249074  0.86296401  1
  O  O69  1  0.68231855  0.86913265  0.86226528  1
  O  O70  1  0.25564543  0.64505967  0.86188985  1
  O  O71  1  0.75326974  0.64341549  0.86306268  1
  O  O72  1  0.00984606  0.84333173  0.41088993  1
  O  O73  1  0.51417872  0.82370293  0.40655866  1
  O  O74  1  0.39953158  0.97659129  0.40578040  1
  O  O75  1  0.89754207  0.97741694  0.40774032  1
  O  O76  1  0.08799775  0.20745756  0.40761722  1
  O  O77  1  0.58535674  0.20441335  0.40545439  1
  O  O78  1  0.01300634  0.20385713  0.90622192  1
  O  O79  1  0.51879794  0.18547156  0.91421264  1
  O  O80  1  0.08785283  0.97354322  0.90872060  1
  O  O81  1  0.58725537  0.96127339  0.91054253  1
  O  O82  1  0.39928004  0.81923986  0.90898060  1
  O  O83  1  0.89513055  0.82875781  0.91174068  1
  O  O84  1  0.48793318  0.17181171  0.59507910  1
  O  O85  1  0.98852437  0.16623381  0.59391536  1
  O  O86  1  0.09769233  0.02968772  0.59087972  1
  O  O87  1  0.59734545  0.02438036  0.59625785  1
  O  O88  1  0.41457954  0.80503303  0.59525386  1
  O  O89  1  0.91378876  0.81068275  0.59231747  1
  O  O90  1  0.49386158  0.81054957  0.08919177  1
  O  O91  1  0.98749952  0.80415677  0.09611665  1
  O  O92  1  0.41477237  0.02362185  0.08910412  1
  O  O93  1  0.91274055  0.01995704  0.09424047  1
  O  O94  1  0.09695149  0.16993251  0.09600072  1
  O  O95  1  0.59799556  0.17814930  0.08905117  1
  O  O96  1  0.34449468  0.15556523  0.74151913  1
  O  O97  1  0.83843768  0.14682435  0.74188420  1
  O  O98  1  0.23523801  0.31322808  0.74218552  1
  O  O99  1  0.73134320  0.30699864  0.74122928  1
  O  O100  1  0.42370702  0.53344337  0.74217340  1
  O  O101  1  0.91283619  0.50489401  0.74468887  1
  O  O102  1  0.34231699  0.52513298  0.24377239  1
  O  O103  1  0.84340156  0.53298775  0.24142556  1
  O  O104  1  0.42294375  0.31849406  0.24479247  1
  O  O105  1  0.92302632  0.31148115  0.24099408  1
  O  O106  1  0.23388373  0.15678092  0.24102818  1
  O  O107  1  0.73695628  0.15522221  0.24414568  1
  O  O108  1  0.31419307  0.49967897  0.92082478  1
  O  O109  1  0.81513244  0.50490892  0.92188113  1
  O  O110  1  0.42512323  0.36746049  0.91773892  1
  O  O111  1  0.93380059  0.36407716  0.92028476  1
  O  O112  1  0.24669885  0.12882539  0.91949241  1
  O  O113  1  0.74818881  0.13003023  0.92244171  1
  O  O114  1  0.31809229  0.13249926  0.41973551  1
  O  O115  1  0.81031309  0.12319970  0.41998032  1
  O  O116  1  0.24871149  0.36185419  0.41944096  1
  O  O117  1  0.74478532  0.36164413  0.41988884  1
  O  O118  1  0.43440873  0.50359749  0.42024252  1
  O  O119  1  0.92313140  0.48422689  0.41590300  1
  O  O120  1  0.17265254  0.48357057  0.07556847  1
  O  O121  1  0.68145523  0.49654604  0.07428658  1
  O  O122  1  0.06715815  0.64950509  0.07578439  1
  O  O123  1  0.57087013  0.64960929  0.07279059  1
  O  O124  1  0.25560501  0.86650345  0.07585718  1
  O  O125  1  0.75690996  0.86363302  0.07324411  1
  O  O126  1  0.17768210  0.86726483  0.57836906  1
  O  O127  1  0.67402158  0.86444520  0.57572267  1
  O  O128  1  0.25733539  0.65081582  0.57514909  1
  O  O129  1  0.75607710  0.65145090  0.57568271  1
  O  O130  1  0.06879977  0.48058298  0.57664000  1
  O  O131  1  0.56798051  0.48577944  0.57575476  1
  O  O132  1  0.15281126  0.83893611  0.25513458  1
  O  O133  1  0.65578339  0.83966301  0.26143771  1
  O  O134  1  0.26477204  0.68800295  0.26022639  1
  O  O135  1  0.76632865  0.69560540  0.25682645  1
  O  O136  1  0.08284315  0.46153443  0.25512144  1
  O  O137  1  0.58076694  0.47325721  0.26131158  1
  O  O138  1  0.15534299  0.46947413  0.75848466  1
  O  O139  1  0.65234151  0.46545408  0.75706998  1
  O  O140  1  0.08706166  0.69369471  0.76091757  1
  O  O141  1  0.58314649  0.70174290  0.75687235  1
  O  O142  1  0.26908614  0.83774997  0.75709011  1
  O  O143  1  0.76713692  0.83340494  0.75959740  1
loop_
_geom_bond_atom_site_label_1
_geom_bond_atom_site_label_2
_geom_bond_distance
_geom_bond_site_symmetry_2
Na0 O72 2.241055 1_555
Na0 O76 2.559334 1_565
Na0 O75 2.576829 1_455
Na0 O86 2.734260 1_565
Na0 O89 2.768782 1_455
Na0 O85 2.873289 1_465
Na1 O79 2.380760 1_555
Na1 O92 2.483908 1_556
Na1 O82 2.600002 1_545
Na1 O95 2.652545 1_556
Na1 O90 2.656104 1_546
Na1 O81 2.745355 1_545
Na2 O110 2.290132 1_555
Na2 O112 2.449520 1_555
Na2 O108 2.459975 1_555
Na2 O98 2.751391 1_555
Na2 O96 2.764773 1_555
Na2 O100 2.767369 1_555
Na3 O101 2.280859 1_555
Na3 O111 2.573702 1_555
Na3 O97 2.609212 1_555
Na3 O99 2.667585 1_555
Na3 O109 2.678826 1_555
Na3 O113 2.794247 1_555
Na4 O116 2.520364 1_555
Na4 O118 2.535094 1_555
Na4 O102 2.565018 1_555
Na4 O114 2.565116 1_555
Na4 O104 2.583130 1_555
Na4 O106 2.680452 1_555
Na5 O119 2.205616 1_555
Na5 O117 2.487682 1_555
Na5 O115 2.490161 1_555
Na5 O107 2.746916 1_555
Na5 O103 2.758671 1_555
Na5 O105 2.767413 1_555
Mg0 O72 1.888787 1_555
Mg0 O3 2.065864 1_455
Mg0 O76 2.072496 1_565
Mg0 O0 2.073080 1_565
Mg0 O75 2.078756 1_455
Mg0 O5 2.105092 1_465
Mg1 O74 2.016985 1_555
Mg1 O2 2.047135 1_555
Mg1 O77 2.047867 1_565
Mg1 O73 2.051663 1_555
Mg1 O4 2.066383 1_565
Mg1 O1 2.077390 1_565
Mg2 O9 1.888384 1_455
Mg2 O80 2.023236 1_555
Mg2 O78 2.058798 1_565
Mg2 O6 2.093097 1_565
Mg2 O83 2.114010 1_455
Mg2 O11 2.117644 1_465
Mg3 O79 1.949029 1_555
Mg3 O82 2.024160 1_545
Mg3 O10 2.047230 1_555
Mg3 O7 2.094147 1_555
Mg3 O8 2.099629 1_545
Mg3 O81 2.145968 1_545
Mg4 O18 2.011550 1_555
Mg4 O92 2.033350 1_565
Mg4 O21 2.070867 1_565
Mg4 O90 2.128201 1_555
Mg4 O23 2.156833 1_555
Mg4 O95 2.186235 1_565
Mg5 O26 1.980665 1_555
Mg5 O28 2.022825 1_555
Mg5 O24 2.035041 1_555
Mg5 O98 2.079336 1_555
Mg5 O96 2.113276 1_555
Mg5 O100 2.150830 1_555
Mg6 O101 1.939400 1_555
Mg6 O25 1.979593 1_555
Mg6 O29 2.049579 1_555
Mg6 O27 2.075558 1_555
Mg6 O97 2.140661 1_555
Mg6 O99 2.179188 1_555
Mg7 O32 1.995814 1_555
Mg7 O30 2.062585 1_555
Mg7 O34 2.064862 1_555
Mg7 O104 2.103470 1_555
Mg7 O102 2.127312 1_555
Mg7 O106 2.131916 1_555
Mg8 O35 2.041013 1_555
Mg8 O31 2.048948 1_555
Mg8 O107 2.066206 1_555
Mg8 O33 2.068994 1_555
Mg8 O103 2.080316 1_555
Mg8 O105 2.109721 1_555
Mg9 O40 2.003494 1_556
Mg9 O110 2.009195 1_555
Mg9 O112 2.109123 1_555
Mg9 O38 2.119814 1_556
Mg9 O36 2.133337 1_556
Mg9 O108 2.172494 1_555
Mg10 O39 2.038960 1_556
Mg10 O37 2.074606 1_556
Mg10 O111 2.080988 1_555
Mg10 O41 2.092820 1_556
Mg10 O109 2.139358 1_555
Mg10 O113 2.166127 1_555
Mg11 O42 2.051050 1_555
Mg11 O114 2.101035 1_555
Mg11 O46 2.102674 1_555
Mg11 O116 2.106724 1_555
Mg11 O44 2.110306 1_555
Mg11 O118 2.139976 1_555
Mg12 O119 1.937456 1_555
Mg12 O47 2.090033 1_555
Mg12 O45 2.098708 1_555
Mg12 O115 2.158932 1_555
Mg12 O117 2.196674 1_555
Mg12 O43 2.214575 1_555
Mg13 O124 1.985958 1_555
Mg13 O48 2.040183 1_554
Mg13 O52 2.045073 1_554
Mg13 O120 2.075740 1_555
Mg13 O122 2.091743 1_555
Mg13 O50 2.141506 1_554
Mg14 O58 1.872900 1_555
Mg14 O130 2.064603 1_555
Mg14 O126 2.084729 1_555
Mg14 O56 2.094270 1_555
Mg14 O54 2.131563 1_555
Mg14 O128 2.145326 1_555
Mg15 O55 2.036738 1_555
Mg15 O129 2.039000 1_555
Mg15 O57 2.051476 1_555
Mg15 O59 2.069475 1_555
Mg15 O131 2.072636 1_555
Mg15 O127 2.078714 1_555
O0 S0 1.445991 1_555
O1 S1 1.458385 1_555
O2 S2 1.468189 1_555
O3 S3 1.442687 1_555
O4 S5 1.456163 1_555
O5 S4 1.447367 1_555
O6 S6 1.445289 1_555
O7 S7 1.448044 1_555
O8 S8 1.447175 1_555
O9 Si0 1.563576 1_555
O10 S9 1.451066 1_555
O11 S10 1.447774 1_555
O12 S9 1.518465 1_565
O12 Ta1 2.067353 1_565
O13 S10 1.505929 1_565
O13 Ta0 2.096935 1_655
O14 S6 1.512680 1_555
O14 Ta0 2.101173 1_545
O15 S7 1.506384 1_555
O15 Ta1 2.087034 1_555
O16 Si0 1.708800 1_455
O16 Ta0 1.848795 1_555
O17 S8 1.503866 1_555
O17 Ta1 2.098073 1_565
O18 S2 1.461789 1_555
O19 S3 1.519960 1_555
O19 Ta2 2.081779 1_665
O20 S4 1.534213 1_455
O20 Ta2 2.023084 1_555
O21 S5 1.454212 1_555
O22 S0 1.542943 1_565
O22 Ta2 2.003535 1_565
O23 S1 1.455672 1_565
O24 S11 1.456020 1_555
O25 S12 1.457124 1_555
O26 S13 1.457475 1_555
O27 S14 1.452251 1_555
O28 S15 1.455710 1_555
O29 S16 1.454291 1_555
O30 S17 1.454122 1_555
O31 S18 1.459385 1_555
O32 S19 1.478985 1_555
O33 S20 1.449831 1_555
O34 S21 1.455137 1_555
O35 S22 1.456825 1_555
O36 S21 1.450019 1_555
O37 S22 1.462811 1_555
O38 S17 1.452932 1_555
O39 S18 1.460401 1_555
O40 S19 1.480689 1_555
O41 S20 1.451268 1_555
O42 S13 1.464793 1_555
O43 S14 1.455176 1_555
O44 S15 1.459881 1_555
O45 S16 1.458757 1_555
O46 S11 1.457030 1_555
O47 S12 1.467560 1_555
O48 S23 1.459009 1_555
O49 S24 1.509171 1_555
O49 Ta3 2.053161 1_556
O50 S25 1.452592 1_555
O51 Si1 1.704501 1_555
O51 Ta3 1.824667 1_556
O52 S26 1.453417 1_555
O53 S27 1.502368 1_555
O53 Ta3 2.084699 1_556
O54 S28 1.445741 1_555
O55 S29 1.452824 1_555
O56 S30 1.445693 1_555
O57 S31 1.451168 1_555
O58 Si2 1.578020 1_555
O59 S32 1.448046 1_555
O60 Si2 1.794933 1_555
O60 Ta4 1.802997 1_555
O61 S32 1.578708 1_555
O61 Ta5 1.951435 1_555
O62 S28 1.579586 1_555
O62 Ta4 1.962191 1_555
O63 S29 1.563315 1_555
O63 Ta5 1.967835 1_555
O64 S30 1.564082 1_555
O64 Ta4 1.982221 1_555
O65 S31 1.588857 1_555
O65 Ta5 1.956054 1_555
O66 S25 1.569532 1_555
O66 Ta6 1.970649 1_555
O67 Si1 1.721139 1_555
O67 Ta7 1.833752 1_555
O68 S26 1.578928 1_555
O68 Ta6 1.957556 1_555
O69 S27 1.529033 1_555
O69 Ta7 2.051068 1_555
O70 S23 1.534386 1_555
O70 Ta6 2.075819 1_555
O71 S24 1.531847 1_555
O71 Ta7 2.024464 1_555
O72 Si2 1.600159 1_555
O73 S32 1.448259 1_555
O74 S28 1.451286 1_555
O75 S29 1.456798 1_555
O76 S30 1.459254 1_555
O77 S31 1.450117 1_555
O78 S25 1.446120 1_555
O79 Si1 1.580530 1_555
O80 S26 1.442549 1_555
O81 S27 1.448395 1_555
O82 S23 1.473602 1_555
O83 S24 1.435736 1_555
O84 S11 1.587826 1_555
O84 Ta1 1.910512 1_555
O85 S12 1.562719 1_555
O85 Ta0 2.020061 1_645
O86 S13 1.583622 1_555
O86 Ta0 1.973067 1_545
O87 S14 1.607885 1_555
O87 Ta1 1.901423 1_555
O88 S15 1.598722 1_555
O88 Ta1 1.903029 1_565
O89 S16 1.587732 1_555
O89 Ta0 1.967734 1_655
O90 S17 1.462600 1_555
O91 S18 1.579170 1_555
O91 Ta2 1.926166 1_665
O92 S19 1.497968 1_555
O93 S20 1.529449 1_555
O93 Ta2 2.002634 1_655
O94 S21 1.611772 1_555
O94 Ta2 1.900125 1_555
O95 S22 1.457317 1_555
O96 S9 1.459678 1_555
O97 S10 1.450798 1_555
O98 S6 1.463455 1_555
O99 S7 1.444023 1_555
O100 S8 1.454804 1_555
O101 Si0 1.580688 1_555
O102 S2 1.480381 1_555
O103 S3 1.459055 1_555
O104 S5 1.469869 1_555
O105 S4 1.458805 1_555
O106 S0 1.452876 1_555
O107 S1 1.476364 1_555
O108 S23 1.465037 1_555
O109 S24 1.461171 1_555
O110 Si1 1.574692 1_555
O111 S25 1.483455 1_655
O112 S26 1.464844 1_545
O113 S27 1.459786 1_545
O114 S28 1.477611 1_545
O115 S29 1.459386 1_545
O116 S30 1.477809 1_555
O117 S31 1.458891 1_555
O118 S32 1.472965 1_555
O119 Si2 1.607956 1_655
O120 S21 1.447255 1_555
O121 S22 1.569265 1_555
O121 Ta3 1.944339 1_555
O122 S18 1.442458 1_455
O123 S17 1.583169 1_555
O123 Ta3 1.926358 1_555
O124 S19 1.469785 1_565
O125 S20 1.493890 1_565
O125 Ta3 2.103873 1_555
O126 S13 1.441953 1_565
O127 S14 1.449305 1_565
O128 S15 1.441654 1_555
O129 S16 1.452251 1_555
O130 S12 1.449388 1_455
O131 S11 1.446134 1_555
O132 S0 1.499777 1_565
O132 Ta4 2.120179 1_555
O133 S1 1.557897 1_565
O133 Ta5 1.984096 1_555
O134 S2 1.523009 1_555
O134 Ta4 2.081092 1_555
O135 S3 1.511958 1_555
O135 Ta5 2.081376 1_555
O136 S4 1.499510 1_455
O136 Ta4 2.129556 1_555
O137 S5 1.559057 1_555
O137 Ta5 1.964842 1_555
O138 S6 1.512909 1_555
O138 Ta6 2.050911 1_555
O139 S7 1.539913 1_555
O139 Ta7 2.005919 1_555
O140 Si0 1.706131 1_455
O140 Ta6 1.838452 1_555
O141 S8 1.535412 1_555
O141 Ta7 2.024008 1_555
O142 S9 1.500681 1_565
O142 Ta6 2.095442 1_555
O143 S10 1.530414 1_565
O143 Ta7 2.042776 1_555
