# generated using pymatgen
data_K6MgV2(SO3)2
_symmetry_space_group_name_H-M   'P 1'
_cell_length_a   5.96733895
_cell_length_b   7.36945792
_cell_length_c   8.76219052
_cell_angle_alpha   98.72923489
_cell_angle_beta   90.00000000
_cell_angle_gamma   90.00000000
_symmetry_Int_Tables_number   1
_chemical_formula_structural   K6MgV2(SO3)2
_chemical_formula_sum   'K6 Mg1 V2 S2 O6'
_cell_volume   380.86315698
_cell_formula_units_Z   1
loop_
 _symmetry_equiv_pos_site_id
 _symmetry_equiv_pos_as_xyz
  1  'x, y, z'
loop_
 _atom_site_type_symbol
 _atom_site_label
 _atom_site_symmetry_multiplicity
 _atom_site_fract_x
 _atom_site_fract_y
 _atom_site_fract_z
 _atom_site_occupancy
  K  K0  1  0.75000000  0.36554991  0.47313265  1
  K  K1  1  0.25000000  0.76549562  0.99454382  1
  K  K2  1  0.25000000  0.70729518  0.54246681  1
  K  K3  1  0.75000000  0.10787891  0.98835076  1
  K  K4  1  0.25000000  0.23959117  0.72125909  1
  K  K5  1  0.75000000  0.92397355  0.32565247  1
  Mg  Mg0  1  0.75000000  0.54221199  0.11821540  1
  V  V0  1  0.75000000  0.66448564  0.79233498  1
  V  V1  1  0.25000000  0.30205751  0.17873013  1
  S  S0  1  0.75000000  0.92383697  0.66404156  1
  S  S1  1  0.25000000  0.09644325  0.35725866  1
  O  O0  1  0.25000000  0.15389117  0.00386386  1
  O  O1  1  0.75000000  0.75328871  0.01443086  1
  O  O2  1  0.99564872  0.54311012  0.74017536  1
  O  O3  1  0.00385746  0.45389009  0.21554112  1
  O  O4  1  0.50435128  0.54311012  0.74017536  1
  O  O5  1  0.49614254  0.45389009  0.21554112  1
loop_
_geom_bond_atom_site_label_1
_geom_bond_atom_site_label_2
_geom_bond_distance
_geom_bond_site_symmetry_2
K0 O5 2.873841 1_555
K0 O3 2.873841 1_655
K0 O2 2.899430 1_555
K0 O4 2.899430 1_555
K0 S1 3.640733 1_555
K0 S1 3.640733 1_655
K1 O0 2.851014 1_566
K1 O4 2.974647 1_555
K1 O2 2.974647 1_455
K1 O1 2.990903 1_556
K1 O1 2.990903 1_456
K1 S1 3.700853 1_566
K2 O2 2.721213 1_455
K2 O4 2.721213 1_555
K2 S1 3.502932 1_565
K3 O1 2.657435 1_546
K3 S0 2.957145 1_545
K3 O0 3.003623 1_556
K3 O0 3.003623 1_656
K4 O0 2.646755 1_556
K4 O2 2.687341 1_455
K4 O4 2.687341 1_555
K4 S1 3.203769 1_555
K5 O1 2.824443 1_555
K5 S0 2.965183 1_555
K5 S1 3.238456 1_665
K5 S1 3.238456 1_565
Mg0 O5 1.901093 1_555
Mg0 O3 1.901093 1_655
Mg0 O1 1.917284 1_555
S0 V0 2.359831 1_555
S1 V1 2.337207 1_555
O0 V1 1.741297 1_555
O1 V0 1.956736 1_554
O2 V0 1.741737 1_555
O3 V1 1.844966 1_555
O4 V0 1.741737 1_555
O5 V1 1.844966 1_555
