# generated using pymatgen
data_Na3HfSi2SnPO12
_symmetry_space_group_name_H-M   'P 1'
_cell_length_a   9.07648747
_cell_length_b   9.06885371
_cell_length_c   22.63251858
_cell_angle_alpha   89.96544214
_cell_angle_beta   90.01276214
_cell_angle_gamma   120.06727802
_symmetry_Int_Tables_number   1
_chemical_formula_structural   Na3HfSi2SnPO12
_chemical_formula_sum   'Na18 Hf6 Si12 Sn6 P6 O72'
_cell_volume   1612.27389167
_cell_formula_units_Z   6
loop_
 _symmetry_equiv_pos_site_id
 _symmetry_equiv_pos_as_xyz
  1  'x, y, z'
loop_
 _atom_site_type_symbol
 _atom_site_label
 _atom_site_symmetry_multiplicity
 _atom_site_fract_x
 _atom_site_fract_y
 _atom_site_fract_z
 _atom_site_occupancy
  Na  Na0  1  0.99694090  0.99237656  0.50039516  1
  Na  Na1  1  0.00763654  0.00211825  0.00084254  1
  Na  Na2  1  0.66419574  0.32561731  0.83322410  1
  Na  Na3  1  0.67509933  0.33563570  0.33442007  1
  Na  Na4  1  0.33143619  0.65808503  0.16703704  1
  Na  Na5  1  0.34135438  0.66937059  0.66629164  1
  Na  Na6  1  0.64058298  0.00213911  0.25127027  1
  Na  Na7  1  0.99813902  0.63080924  0.25192346  1
  Na  Na8  1  -0.00001701  0.36080990  0.75077228  1
  Na  Na9  1  0.36848633  0.00121306  0.75092830  1
  Na  Na10  1  0.30548419  0.33451914  0.58453268  1
  Na  Na11  1  0.66519299  0.96419318  0.58483588  1
  Na  Na12  1  0.66473286  0.69329061  0.08452563  1
  Na  Na13  1  0.03477851  0.33420246  0.08547920  1
  Na  Na14  1  0.97391997  0.66825885  0.91769378  1
  Na  Na15  1  0.33169598  0.29851249  0.91839151  1
  Na  Na16  1  0.33155750  0.02656107  0.41814716  1
  Na  Na17  1  0.70249207  0.66922980  0.41858954  1
  Hf  Hf0  1  0.99818924  0.00647723  0.85196900  1
  Hf  Hf1  1  0.66560416  0.33937726  0.18635528  1
  Hf  Hf2  1  0.66349753  0.32698507  0.98153834  1
  Hf  Hf3  1  0.32684345  0.66816403  0.01936767  1
  Hf  Hf4  1  0.33104431  0.66085834  0.31458155  1
  Hf  Hf5  1  0.34091696  0.66949195  0.81386494  1
  Si  Si0  1  0.70837790  0.70938515  0.24976088  1
  Si  Si1  1  0.00171659  0.29181047  0.24875067  1
  Si  Si2  1  0.29407469  0.29333468  0.74839042  1
  Si  Si3  1  0.70691859  0.00104338  0.74662618  1
  Si  Si4  1  0.37194761  0.03897261  0.58319641  1
  Si  Si5  1  0.66755979  0.62659796  0.58171197  1
  Si  Si6  1  0.96058024  0.63005094  0.08371974  1
  Si  Si7  1  0.37019523  0.33044458  0.08256238  1
  Si  Si8  1  0.03880074  0.37366967  0.91618697  1
  Si  Si9  1  0.33423116  0.96172692  0.91485181  1
  Si  Si10  1  0.62880974  0.96291387  0.41708271  1
  Si  Si11  1  0.03872367  0.66529692  0.41590744  1
  Sn  Sn0  1  0.99517035  0.00058001  0.35241979  1
  Sn  Sn1  1  0.99784605  0.99281396  0.64768658  1
  Sn  Sn2  1  0.00669692  0.00284286  0.14817727  1
  Sn  Sn3  1  0.66192357  0.33452959  0.68490798  1
  Sn  Sn4  1  0.67223251  0.33566617  0.48173050  1
  Sn  Sn5  1  0.33267215  0.67207041  0.51841453  1
  P  P0  1  0.29183719  0.00114143  0.25185377  1
  P  P1  1  0.99782977  0.70561290  0.75059444  1
  P  P2  1  0.96095669  0.33580986  0.58439691  1
  P  P3  1  0.66593106  0.03960285  0.08494521  1
  P  P4  1  0.62576379  0.66764191  0.91826392  1
  P  P5  1  0.33047225  0.37257465  0.41827560  1
  O  O0  1  0.21697255  0.03300549  0.30849246  1
  O  O1  1  0.83078252  0.78613117  0.30831936  1
  O  O2  1  0.96090787  0.16588492  0.30542581  1
  O  O3  1  0.20501855  0.17000766  0.80618594  1
  O  O4  1  0.97020098  0.78629662  0.80632733  1
  O  O5  1  0.83231162  0.03362550  0.80276637  1
  O  O6  1  0.78663031  0.96886121  0.68654433  1
  O  O7  1  0.17287558  0.20974029  0.68968613  1
  O  O8  1  0.03700274  0.82210392  0.69607626  1
  O  O9  1  0.79056221  0.82991543  0.19080761  1
  O  O10  1  0.03401924  0.21370579  0.18811943  1
  O  O11  1  0.17359894  0.96091590  0.19783502  1
  O  O12  1  0.88555733  0.36678950  0.64125762  1
  O  O13  1  0.49425511  0.11839648  0.64173408  1
  O  O14  1  0.62689138  0.50176643  0.63866431  1
  O  O15  1  0.87319643  0.50743708  0.14156988  1
  O  O16  1  0.64053473  0.11984180  0.14142472  1
  O  O17  1  0.49554545  0.36105069  0.13840315  1
  O  O18  1  0.45727287  0.30498327  0.02320873  1
  O  O19  1  0.84000546  0.54108000  0.02561251  1
  O  O20  1  0.69537960  0.15782721  0.03167603  1
  O  O21  1  0.45463734  0.16097482  0.52433373  1
  O  O22  1  0.69935606  0.54742706  0.52132980  1
  O  O23  1  0.84242260  0.29775721  0.53059146  1
  O  O24  1  0.54654243  0.69415480  0.97426932  1
  O  O25  1  0.16102975  0.46047509  0.97427374  1
  O  O26  1  0.30322092  0.83642944  0.97097921  1
  O  O27  1  0.54934355  0.84088461  0.47584372  1
  O  O28  1  0.30087396  0.44749992  0.47550691  1
  O  O29  1  0.16336869  0.70545901  0.47293697  1
  O  O30  1  0.12511412  0.63860161  0.35681832  1
  O  O31  1  0.50730143  0.87366006  0.35925527  1
  O  O32  1  0.36007915  0.49097175  0.36540526  1
  O  O33  1  0.12942890  0.49354307  0.85821797  1
  O  O34  1  0.36027384  0.87422440  0.85577177  1
  O  O35  1  0.50910440  0.63706524  0.86459452  1
  O  O36  1  0.02856934  0.84336486  0.41159340  1
  O  O37  1  0.81427270  0.97341948  0.41288452  1
  O  O38  1  0.17757117  0.19045591  0.41109635  1
  O  O39  1  0.02772699  0.18823979  0.91133448  1
  O  O40  1  0.15810766  0.97197485  0.91089184  1
  O  O41  1  0.80718480  0.82102461  0.91024989  1
  O  O42  1  0.97696091  0.17215894  0.58840269  1
  O  O43  1  0.18824825  0.03324505  0.58868641  1
  O  O44  1  0.83052790  0.82135584  0.58679452  1
  O  O45  1  0.96618982  0.81347076  0.08892821  1
  O  O46  1  0.83087466  0.02617525  0.08756732  1
  O  O47  1  0.17628654  0.16644595  0.08670775  1
  O  O48  1  0.69932099  0.18041402  0.74394912  1
  O  O49  1  0.47884354  0.30168856  0.74573320  1
  O  O50  1  0.84230785  0.52400222  0.74404941  1
  O  O51  1  0.69490865  0.52298220  0.24433262  1
  O  O52  1  0.82649816  0.30419670  0.24449089  1
  O  O53  1  0.47256259  0.15369717  0.24414499  1
  O  O54  1  0.64134242  0.50432594  0.92249002  1
  O  O55  1  0.85600106  0.36587170  0.92264491  1
  O  O56  1  0.49625562  0.15491474  0.92062519  1
  O  O57  1  0.63251598  0.14610591  0.42241289  1
  O  O58  1  0.49593364  0.35961032  0.42120305  1
  O  O59  1  0.84408440  0.50175748  0.42046526  1
  O  O60  1  0.35924010  0.50608491  0.07852197  1
  O  O61  1  0.14522872  0.64072612  0.07875504  1
  O  O62  1  0.51321892  0.85946960  0.07760729  1
  O  O63  1  0.36157154  0.85351381  0.57897200  1
  O  O64  1  0.48971212  0.63690021  0.57740734  1
  O  O65  1  0.14243461  0.49017576  0.57735732  1
  O  O66  1  0.30844102  0.83820510  0.25706099  1
  O  O67  1  0.52469078  0.70048045  0.25606922  1
  O  O68  1  0.16362313  0.48590802  0.25436038  1
  O  O69  1  0.30303679  0.47688688  0.75505818  1
  O  O70  1  0.15933493  0.68765217  0.75618101  1
  O  O71  1  0.51368071  0.84017433  0.75331416  1
loop_
_geom_bond_atom_site_label_1
_geom_bond_atom_site_label_2
_geom_bond_distance
_geom_bond_site_symmetry_2
Na0 O44 2.482117 1_555
Na0 O36 2.517974 1_655
Na0 O37 2.532691 1_555
Na0 O43 2.549498 1_665
Na0 O42 2.637974 1_565
Na0 O38 2.654333 1_665
Na1 O47 2.461094 1_555
Na1 O45 2.528670 1_445
Na1 O40 2.541760 1_544
Na1 O39 2.583360 1_554
Na1 O46 2.612827 1_455
Na1 O41 2.686931 1_444
Na2 O56 2.503211 1_555
Na2 O48 2.518401 1_555
Na2 O49 2.536050 1_555
Na2 O55 2.573401 1_555
Na2 O50 2.646943 1_555
Na2 O54 2.663136 1_555
Na3 O59 2.470102 1_555
Na3 O57 2.529885 1_555
Na3 O52 2.550827 1_555
Na3 O51 2.601155 1_555
Na3 O58 2.627883 1_555
Na3 O53 2.690605 1_555
Na4 O68 2.505698 1_555
Na4 O60 2.515806 1_555
Na4 O61 2.570156 1_555
Na4 O67 2.570700 1_555
Na4 O62 2.670584 1_555
Na4 O66 2.684946 1_555
Na5 O71 2.509881 1_555
Na5 O64 2.519136 1_555
Na5 O63 2.533219 1_555
Na5 O69 2.567482 1_555
Na5 O65 2.648470 1_555
Na5 O70 2.678088 1_555
Na6 O67 2.391338 1_545
Na6 O52 2.396380 1_555
Na6 O53 2.518105 1_555
Na6 O66 2.612406 1_545
Na6 O16 2.705046 1_555
Na6 O31 2.716529 1_545
Na6 O2 2.799094 1_555
Na6 O9 2.880798 1_545
Na7 O51 2.421545 1_555
Na7 O68 2.442045 1_655
Na7 O66 2.485063 1_655
Na7 O52 2.570098 1_555
Na7 O30 2.624240 1_655
Na7 O15 2.739795 1_555
Na7 O1 2.840372 1_555
Na7 O11 2.866375 1_655
Na8 O48 2.382016 1_455
Na8 O69 2.404629 1_555
Na8 O50 2.526574 1_455
Na8 O70 2.568511 1_555
Na8 O12 2.698174 1_455
Na8 O33 2.707026 1_555
Na8 O5 2.824319 1_455
Na8 O7 2.899740 1_555
Na9 O49 2.388980 1_555
Na9 O71 2.408519 1_545
Na9 O70 2.508914 1_545
Na9 O48 2.606324 1_555
Na9 O34 2.621663 1_545
Na9 O13 2.706010 1_555
Na9 O8 2.887150 1_545
Na9 O3 2.896153 1_555
Na10 O43 2.385918 1_555
Na10 O64 2.397255 1_555
Na10 O65 2.510413 1_555
Na10 O42 2.582163 1_455
Na10 O7 2.650722 1_555
Na10 O28 2.679576 1_555
Na10 O14 2.806909 1_555
Na10 O21 2.881738 1_555
Na11 O63 2.418240 1_555
Na11 O44 2.424809 1_555
Na11 O42 2.494666 1_565
Na11 O6 2.543177 1_555
Na11 O64 2.576525 1_555
Na11 O27 2.695374 1_555
Na11 O13 2.863274 1_565
Na11 O23 2.892425 1_565
Na12 O45 2.386679 1_555
Na12 O60 2.423274 1_555
Na12 O62 2.502657 1_555
Na12 O46 2.613604 1_565
Na12 O9 2.685156 1_555
Na12 O24 2.717532 1_554
Na12 O17 2.878111 1_555
Na12 O19 2.901330 1_555
Na13 O47 2.433704 1_555
Na13 O61 2.441860 1_555
Na13 O46 2.459727 1_455
Na13 O60 2.554889 1_555
Na13 O10 2.565141 1_555
Na13 O25 2.764411 1_554
Na13 O15 2.922779 1_455
Na13 O20 2.931605 1_455
Na14 O55 2.395197 1_555
Na14 O40 2.406364 1_655
Na14 O41 2.517645 1_555
Na14 O54 2.614813 1_555
Na14 O19 2.714128 1_556
Na14 O4 2.744611 1_555
Na14 O26 2.854261 1_655
Na14 O33 2.925606 1_655
Na15 O39 2.423388 1_555
Na15 O56 2.424521 1_555
Na15 O54 2.476886 1_555
Na15 O40 2.570193 1_545
Na15 O18 2.619585 1_556
Na15 O3 2.790837 1_555
Na15 O25 2.905097 1_555
Na15 O35 2.923080 1_555
Na16 O57 2.383081 1_555
Na16 O36 2.401453 1_545
Na16 O38 2.503863 1_555
Na16 O58 2.614987 1_555
Na16 O21 2.673463 1_555
Na16 O0 2.702554 1_555
Na16 O29 2.808920 1_545
Na16 O31 2.909179 1_545
Na17 O37 2.418940 1_555
Na17 O59 2.432259 1_555
Na17 O58 2.475393 1_555
Na17 O22 2.567740 1_555
Na17 O36 2.568061 1_655
Na17 O1 2.733024 1_555
Na17 O27 2.864656 1_555
Na17 O32 2.947470 1_555
Hf0 O5 1.984395 1_555
Hf0 O3 2.001635 1_655
Hf0 O39 2.038123 1_655
Hf0 O40 2.106393 1_645
Hf0 O4 2.147751 1_545
Hf0 O41 2.156548 1_545
Hf1 O17 1.975339 1_555
Hf1 O15 2.005482 1_555
Hf1 O51 2.030703 1_555
Hf1 O52 2.105027 1_555
Hf1 O16 2.144309 1_555
Hf1 O53 2.158270 1_555
Hf2 O18 2.014745 1_556
Hf2 O20 2.041402 1_556
Hf2 O19 2.053333 1_556
Hf2 O56 2.065915 1_555
Hf2 O55 2.082533 1_555
Hf2 O54 2.175856 1_555
Hf3 O26 1.974755 1_554
Hf3 O25 2.003849 1_554
Hf3 O61 2.043369 1_555
Hf3 O60 2.114224 1_555
Hf3 O24 2.145558 1_554
Hf3 O62 2.161004 1_555
Hf4 O30 2.017592 1_555
Hf4 O32 2.042260 1_555
Hf4 O31 2.052798 1_555
Hf4 O68 2.066377 1_555
Hf4 O67 2.083198 1_555
Hf4 O66 2.156753 1_555
Hf5 O34 2.013185 1_555
Hf5 O33 2.041628 1_555
Hf5 O35 2.045410 1_555
Hf5 O71 2.073438 1_555
Hf5 O69 2.083612 1_555
Hf5 O70 2.172241 1_555
O0 P0 1.544679 1_555
O0 Sn0 2.129584 1_455
O1 Si0 1.643429 1_555
O1 Sn0 2.024534 1_565
O2 Si1 1.631340 1_655
O2 Sn0 1.985043 1_555
O3 Si2 1.645633 1_555
O4 P1 1.540932 1_555
O5 Si3 1.630915 1_555
O6 Si3 1.634076 1_565
O6 Sn1 2.019681 1_555
O7 Si2 1.647730 1_555
O7 Sn1 2.041434 1_445
O8 P1 1.545054 1_455
O8 Sn1 2.066786 1_455
O9 Si0 1.647163 1_555
O9 Sn2 2.038384 1_665
O10 Si1 1.637121 1_555
O10 Sn2 2.015521 1_555
O11 P0 1.545048 1_565
O11 Sn2 2.068443 1_565
O12 P2 1.548189 1_555
O12 Sn3 2.141773 1_555
O13 Si4 1.644898 1_555
O13 Sn3 2.031097 1_555
O14 Si5 1.630655 1_555
O14 Sn3 1.994462 1_555
O15 Si6 1.641573 1_555
O16 P3 1.544655 1_555
O17 Si7 1.628519 1_555
O18 Si7 1.632855 1_555
O19 Si6 1.641362 1_555
O20 P3 1.544637 1_555
O21 Si4 1.651915 1_555
O21 Sn4 2.050351 1_555
O22 Si5 1.635661 1_555
O22 Sn4 2.019930 1_555
O23 P2 1.545123 1_555
O23 Sn4 2.063540 1_555
O24 P4 1.534773 1_555
O25 Si8 1.644471 1_555
O26 Si9 1.631570 1_555
O27 Si10 1.646944 1_555
O27 Sn5 2.030232 1_555
O28 P5 1.547830 1_555
O28 Sn5 2.141809 1_555
O29 Si11 1.632657 1_555
O29 Sn5 1.994402 1_555
O30 Si11 1.628803 1_555
O31 Si10 1.640283 1_555
O32 P5 1.538309 1_555
O33 Si8 1.637823 1_555
O34 Si9 1.631835 1_555
O35 P4 1.542441 1_555
O36 Si11 1.665768 1_555
O36 Sn0 2.085398 1_465
O37 Si10 1.640468 1_555
O37 Sn0 2.055385 1_565
O38 P5 1.543913 1_555
O38 Sn0 2.148202 1_455
O39 Si8 1.637350 1_555
O40 Si9 1.649525 1_555
O41 P4 1.544005 1_555
O42 P2 1.564547 1_555
O42 Sn1 2.188095 1_545
O43 Si4 1.646657 1_555
O43 Sn1 2.066309 1_445
O44 Si5 1.644098 1_555
O44 Sn1 2.063698 1_555
O45 Si6 1.642797 1_555
O45 Sn2 2.062187 1_665
O46 P3 1.562790 1_555
O46 Sn2 2.193230 1_655
O47 Si7 1.641765 1_555
O47 Sn2 2.053337 1_555
O48 Si3 1.663375 1_555
O48 Sn3 2.080177 1_555
O49 Si2 1.641520 1_555
O49 Sn3 2.061490 1_555
O50 P1 1.548460 1_555
O50 Sn3 2.146527 1_555
O51 Si0 1.637332 1_555
O52 Si1 1.652304 1_655
O53 P0 1.536577 1_555
O54 P4 1.559628 1_555
O55 Si8 1.631490 1_655
O56 Si9 1.633310 1_545
O57 Si10 1.649236 1_545
O57 Sn4 2.066194 1_555
O58 P5 1.565412 1_555
O58 Sn4 2.197987 1_555
O59 Si11 1.644910 1_655
O59 Sn4 2.066068 1_555
O60 Si7 1.647412 1_555
O61 Si6 1.633502 1_455
O62 P3 1.532574 1_565
O63 Si4 1.639593 1_565
O63 Sn5 2.055466 1_555
O64 Si5 1.665836 1_555
O64 Sn5 2.090513 1_555
O65 P2 1.545188 1_455
O65 Sn5 2.150919 1_555
O66 P0 1.562997 1_565
O67 Si0 1.634550 1_555
O68 Si1 1.637774 1_555
O69 Si2 1.632460 1_555
O70 P1 1.559015 1_455
O71 Si3 1.631990 1_565
