# generated using pymatgen
data_MgMn(SbO3)2
_symmetry_space_group_name_H-M   'P 1'
_cell_length_a   5.26062506
_cell_length_b   5.46686437
_cell_length_c   5.46680591
_cell_angle_alpha   119.89192374
_cell_angle_beta   89.96284140
_cell_angle_gamma   89.96305318
_symmetry_Int_Tables_number   1
_chemical_formula_structural   MgMn(SbO3)2
_chemical_formula_sum   'Mg1 Mn1 Sb2 O6'
_cell_volume   136.30491371
_cell_formula_units_Z   1
loop_
 _symmetry_equiv_pos_site_id
 _symmetry_equiv_pos_as_xyz
  1  'x, y, z'
loop_
 _atom_site_type_symbol
 _atom_site_label
 _atom_site_symmetry_multiplicity
 _atom_site_fract_x
 _atom_site_fract_y
 _atom_site_fract_z
 _atom_site_occupancy
  Mg  Mg0  1  0.00000200  0.33440100  0.66561100  1
  Mn  Mn0  1  0.99997900  0.00073600  0.99929600  1
  Sb  Sb0  1  0.50000100  0.66669600  0.33330100  1
  Sb  Sb1  1  0.50000400  0.33320800  0.66678300  1
  O  O0  1  0.26006900  0.32786600  0.37175400  1
  O  O1  1  0.25864700  0.62752300  0.95376700  1
  O  O2  1  0.25877200  0.04529800  0.67268400  1
  O  O3  1  0.73993600  0.62823400  0.67212700  1
  O  O4  1  0.74122500  0.32730900  0.95470400  1
  O  O5  1  0.74136400  0.04623200  0.37247300  1
loop_
_geom_bond_atom_site_label_1
_geom_bond_atom_site_label_2
_geom_bond_distance
_geom_bond_site_symmetry_2
Mg0 O1 2.095292 1_555
Mg0 O5 2.095328 1_455
Mg0 O3 2.096045 1_455
Mg0 O0 2.096093 1_555
Mg0 O2 2.100180 1_555
Mg0 O4 2.100186 1_455
Mn0 O4 2.351768 1_555
Mn0 O2 2.351962 1_655
Mn0 O5 2.359009 1_556
Mn0 O1 2.359293 1_645
Mn0 O0 2.365068 1_656
Mn0 O3 2.365115 1_545
O0 Sb1 2.037425 1_555
O0 Sb0 2.336506 1_555
O1 Sb1 2.034959 1_555
O1 Sb0 2.350271 1_556
O2 Sb1 2.035185 1_555
O2 Sb0 2.345764 1_545
O3 Sb1 2.037408 1_555
O3 Sb0 2.336509 1_555
O4 Sb1 2.035182 1_555
O4 Sb0 2.345740 1_556
O5 Sb1 2.034940 1_555
O5 Sb0 2.350323 1_545
