# generated using pymatgen
data_Na2TaNb(SiO4)3
_symmetry_space_group_name_H-M   'P 1'
_cell_length_a   9.00159599
_cell_length_b   9.00174313
_cell_length_c   22.78604283
_cell_angle_alpha   90.30610789
_cell_angle_beta   89.69723319
_cell_angle_gamma   120.40200657
_symmetry_Int_Tables_number   1
_chemical_formula_structural   Na2TaNb(SiO4)3
_chemical_formula_sum   'Na12 Ta6 Nb6 Si18 O72'
_cell_volume   1592.44324553
_cell_formula_units_Z   6
loop_
 _symmetry_equiv_pos_site_id
 _symmetry_equiv_pos_as_xyz
  1  'x, y, z'
loop_
 _atom_site_type_symbol
 _atom_site_label
 _atom_site_symmetry_multiplicity
 _atom_site_fract_x
 _atom_site_fract_y
 _atom_site_fract_z
 _atom_site_occupancy
  Na  Na0  1  0.36449652  0.36515920  0.25009797  1
  Na  Na1  1  0.63523018  0.63465961  0.74992258  1
  Na  Na2  1  0.03112498  0.69852966  0.58344986  1
  Na  Na3  1  0.30107488  0.96835280  0.08341788  1
  Na  Na4  1  0.69814751  0.03152896  0.91672511  1
  Na  Na5  1  0.96780192  0.30115955  0.41663523  1
  Na  Na6  1  0.99993299  0.00002032  0.50000014  1
  Na  Na7  1  0.00009633  0.00000454  0.00025648  1
  Na  Na8  1  0.66670073  0.33346485  0.83319471  1
  Na  Na9  1  0.66674179  0.33327834  0.33350206  1
  Na  Na10  1  0.33322524  0.66654867  0.16682433  1
  Na  Na11  1  0.33329213  0.66664105  0.66674895  1
  Ta  Ta0  1  0.00449395  0.00012148  0.85463122  1
  Ta  Ta1  1  0.67124733  0.33365184  0.18731517  1
  Ta  Ta2  1  0.66697614  0.33794986  0.97887807  1
  Ta  Ta3  1  0.33298752  0.66207047  0.02095469  1
  Ta  Ta4  1  0.33785992  0.66678931  0.52092546  1
  Ta  Ta5  1  0.32869321  0.66632829  0.81267838  1
  Nb  Nb0  1  -0.00015988  0.99509632  0.35424208  1
  Nb  Nb1  1  0.00031582  0.00501912  0.64600457  1
  Nb  Nb2  1  0.99503424  -0.00013018  0.14541951  1
  Nb  Nb3  1  0.66655735  0.32847400  0.68769309  1
  Nb  Nb4  1  0.66157066  0.33314608  0.47900717  1
  Nb  Nb5  1  0.33364100  0.67176732  0.31242353  1
  Si  Si0  1  0.28793456  0.99724106  0.24878834  1
  Si  Si1  1  0.71080746  0.71005046  0.24981203  1
  Si  Si2  1  0.99569549  0.28727859  0.25084499  1
  Si  Si3  1  0.28864609  0.28927224  0.75056407  1
  Si  Si4  1  0.00426867  0.71340777  0.74948051  1
  Si  Si5  1  0.71261130  0.00282875  0.75145302  1
  Si  Si6  1  0.95447207  0.33030680  0.58220803  1
  Si  Si7  1  0.37733203  0.04340227  0.58326320  1
  Si  Si8  1  0.66258981  0.62078602  0.58427709  1
  Si  Si9  1  0.95543390  0.62130376  0.08311752  1
  Si  Si10  1  0.66935334  0.04657065  0.08215622  1
  Si  Si11  1  0.38066921  0.33769507  0.08406235  1
  Si  Si12  1  0.61993611  0.66296850  0.91580799  1
  Si  Si13  1  0.04467835  0.37804671  0.91675337  1
  Si  Si14  1  0.32978105  0.95339760  0.91769090  1
  Si  Si15  1  0.62227566  0.95543685  0.41696635  1
  Si  Si16  1  0.33660772  0.37989208  0.41585382  1
  Si  Si17  1  0.04652931  0.67022957  0.41788042  1
  O  O0  1  0.19768562  0.03507296  0.30575109  1
  O  O1  1  0.83386823  0.80370328  0.30698169  1
  O  O2  1  0.96975019  0.17053555  0.30924997  1
  O  O3  1  0.19430751  0.16584570  0.80721617  1
  O  O4  1  0.96647237  0.80452991  0.80595307  1
  O  O5  1  0.83008967  0.02870085  0.80945614  1
  O  O6  1  0.80243417  0.96498611  0.69438381  1
  O  O7  1  0.16623963  0.19627169  0.69313944  1
  O  O8  1  0.03023048  0.82947180  0.69084921  1
  O  O9  1  0.80463826  0.83360329  0.19288301  1
  O  O10  1  0.03385610  0.19658986  0.19414113  1
  O  O11  1  0.17079635  0.97069471  0.19059683  1
  O  O12  1  0.86425454  0.36839772  0.63911710  1
  O  O13  1  0.50064182  0.13714719  0.64035757  1
  O  O14  1  0.63640045  0.50380086  0.64262291  1
  O  O15  1  0.86183861  0.49896290  0.14029809  1
  O  O16  1  0.63202960  0.13695477  0.13903919  1
  O  O17  1  0.49709906  0.36292987  0.14253924  1
  O  O18  1  0.47152052  0.29995733  0.02744591  1
  O  O19  1  0.83246613  0.52749311  0.02616120  1
  O  O20  1  0.69528148  0.16356782  0.02391062  1
  O  O21  1  0.47103447  0.16671928  0.52632187  1
  O  O22  1  0.70063992  0.53019570  0.52756844  1
  O  O23  1  0.83761806  0.30395623  0.52400693  1
  O  O24  1  0.52943895  0.70102272  0.97241035  1
  O  O25  1  0.16757251  0.47170968  0.97369928  1
  O  O26  1  0.30406800  0.83641558  0.97593364  1
  O  O27  1  0.52785759  0.83234527  0.47382817  1
  O  O28  1  0.29953918  0.47096983  0.47258921  1
  O  O29  1  0.16365183  0.69570681  0.47608309  1
  O  O30  1  0.13667421  0.63254050  0.36096058  1
  O  O31  1  0.49959649  0.86219674  0.35971102  1
  O  O32  1  0.36296727  0.49618852  0.35739514  1
  O  O33  1  0.13830543  0.50078964  0.85965397  1
  O  O34  1  0.36767507  0.86287082  0.86092957  1
  O  O35  1  0.50314767  0.63741986  0.85740919  1
  O  O36  1  0.02628608  0.83874231  0.40984915  1
  O  O37  1  0.81538239  0.98192022  0.41023714  1
  O  O38  1  0.15927254  0.19215529  0.41006971  1
  O  O39  1  0.01748243  0.18434191  0.90947942  1
  O  O40  1  0.16159782  0.97436376  0.90912788  1
  O  O41  1  0.80814685  0.84037935  0.90926499  1
  O  O42  1  0.97503240  0.16202208  0.59042838  1
  O  O43  1  0.18428457  0.01684158  0.58991956  1
  O  O44  1  0.84012957  0.80826992  0.59016364  1
  O  O45  1  0.98264085  0.81497262  0.08980897  1
  O  O46  1  0.83775177  0.02569062  0.09019879  1
  O  O47  1  0.19269750  0.16021428  0.09003911  1
  O  O48  1  0.69218790  0.17135236  0.74315757  1
  O  O49  1  0.48194600  0.31599098  0.74354642  1
  O  O50  1  0.82660754  0.52557521  0.74336695  1
  O  O51  1  0.68445802  0.51698290  0.24277569  1
  O  O52  1  0.82740398  0.30767537  0.24232456  1
  O  O53  1  0.47574239  0.17460236  0.24257605  1
  O  O54  1  0.64107310  0.49491455  0.92418356  1
  O  O55  1  0.85093050  0.35070994  0.92383098  1
  O  O56  1  0.50710319  0.14160545  0.92404667  1
  O  O57  1  0.64897819  0.14870846  0.42325347  1
  O  O58  1  0.50493063  0.35914152  0.42374746  1
  O  O59  1  0.85892781  0.49298749  0.42352192  1
  O  O60  1  0.35971939  0.50582762  0.07568966  1
  O  O61  1  0.14907677  0.64840644  0.07606173  1
  O  O62  1  0.49228110  0.85837346  0.07585878  1
  O  O63  1  0.35104031  0.85034514  0.57624056  1
  O  O64  1  0.49420188  0.64107823  0.57581356  1
  O  O65  1  0.14228404  0.50780678  0.57604220  1
  O  O66  1  0.30840233  0.82886140  0.25695000  1
  O  O67  1  0.51775491  0.68349633  0.25646336  1
  O  O68  1  0.17330691  0.47476692  0.25671436  1
  O  O69  1  0.31555353  0.48281141  0.75733633  1
  O  O70  1  0.17240837  0.69242208  0.75781087  1
  O  O71  1  0.52458439  0.82563300  0.75757825  1
loop_
_geom_bond_atom_site_label_1
_geom_bond_atom_site_label_2
_geom_bond_distance
_geom_bond_site_symmetry_2
Na0 O68 2.381685 1_555
Na0 O53 2.389177 1_555
Na0 O67 2.476348 1_555
Na0 O51 2.490854 1_555
Na0 O32 2.711842 1_555
Na0 O17 2.724807 1_555
Na0 O0 2.862882 1_555
Na0 O10 2.869663 1_555
Na1 O50 2.379512 1_555
Na1 O71 2.388646 1_555
Na1 O49 2.478966 1_555
Na1 O69 2.488729 1_555
Na1 O14 2.710519 1_555
Na1 O35 2.722362 1_555
Na1 O6 2.863388 1_555
Na1 O4 2.874626 1_555
Na2 O44 2.381115 1_455
Na2 O65 2.389787 1_555
Na2 O43 2.476307 1_565
Na2 O63 2.490329 1_555
Na2 O8 2.712344 1_555
Na2 O29 2.721790 1_555
Na2 O12 2.863342 1_455
Na2 O22 2.867812 1_455
Na3 O47 2.378722 1_565
Na3 O62 2.385759 1_555
Na3 O45 2.477086 1_455
Na3 O61 2.490753 1_555
Na3 O11 2.708168 1_555
Na3 O26 2.722163 1_554
Na3 O16 2.868441 1_565
Na3 O18 2.876725 1_565
Na4 O56 2.384732 1_555
Na4 O41 2.385287 1_545
Na4 O55 2.484115 1_555
Na4 O39 2.485495 1_655
Na4 O20 2.716198 1_556
Na4 O5 2.717499 1_555
Na4 O24 2.866125 1_545
Na4 O34 2.866856 1_545
Na5 O38 2.379745 1_655
Na5 O59 2.382271 1_555
Na5 O57 2.480701 1_555
Na5 O37 2.483734 1_545
Na5 O23 2.712661 1_555
Na5 O2 2.712902 1_555
Na5 O30 2.872104 1_655
Na5 O28 2.877281 1_655
Na6 O36 2.587503 1_645
Na6 O42 2.591600 1_555
Na6 O37 2.593863 1_545
Na6 O38 2.596854 1_655
Na6 O43 2.598663 1_655
Na6 O44 2.600588 1_545
Na7 O46 2.587368 1_455
Na7 O45 2.594382 1_445
Na7 O47 2.597346 1_555
Na7 O40 2.604036 1_544
Na7 O39 2.612825 1_554
Na7 O41 2.615731 1_444
Na8 O48 2.587102 1_555
Na8 O49 2.594426 1_555
Na8 O50 2.596004 1_555
Na8 O54 2.601142 1_555
Na8 O55 2.609923 1_555
Na8 O56 2.612995 1_555
Na9 O58 2.590508 1_555
Na9 O57 2.594667 1_555
Na9 O59 2.599195 1_555
Na9 O52 2.600280 1_555
Na9 O51 2.607655 1_555
Na9 O53 2.609445 1_555
Na10 O66 2.587578 1_555
Na10 O67 2.594287 1_555
Na10 O68 2.595995 1_555
Na10 O60 2.602723 1_555
Na10 O61 2.609628 1_555
Na10 O62 2.613903 1_555
Na11 O64 2.597094 1_555
Na11 O70 2.599965 1_555
Na11 O63 2.603625 1_555
Na11 O69 2.605767 1_555
Na11 O65 2.605807 1_555
Na11 O71 2.609311 1_555
Nb0 O1 1.937006 1_455
Nb0 O0 1.963882 1_565
Nb0 O36 2.001106 1_555
Nb0 O2 2.017825 1_465
Nb0 O37 2.044231 1_455
Nb0 O38 2.059861 1_565
Nb1 O7 1.934651 1_555
Nb1 O6 1.962586 1_445
Nb1 O42 2.000153 1_455
Nb1 O8 2.016093 1_545
Nb1 O43 2.046359 1_555
Nb1 O44 2.060450 1_445
Nb2 O9 1.936116 1_545
Nb2 O10 1.961423 1_655
Nb2 O46 1.999184 1_555
Nb2 O11 2.018039 1_645
Nb2 O45 2.044344 1_545
Nb2 O47 2.058639 1_655
Nb3 O13 1.937497 1_555
Nb3 O12 1.964013 1_555
Nb3 O48 2.000839 1_555
Nb3 O14 2.018197 1_555
Nb3 O49 2.045502 1_555
Nb3 O50 2.059372 1_555
Nb4 O21 1.935320 1_555
Nb4 O22 1.961162 1_555
Nb4 O58 1.996048 1_555
Nb4 O23 2.018221 1_555
Nb4 O57 2.042487 1_555
Nb4 O59 2.057502 1_555
Nb5 O31 1.933012 1_555
Nb5 O30 1.959903 1_555
Nb5 O66 1.999101 1_555
Nb5 O32 2.015002 1_555
Nb5 O67 2.045913 1_555
Nb5 O68 2.060093 1_555
O0 Si0 1.650691 1_545
O1 Si1 1.641060 1_555
O2 Si2 1.641110 1_555
O3 Si3 1.634238 1_555
O3 Ta0 1.931325 1_555
O4 Si4 1.646496 1_655
O4 Ta0 1.954637 1_665
O5 Si5 1.637538 1_555
O5 Ta0 2.004769 1_655
O6 Si5 1.650368 1_565
O7 Si3 1.642242 1_555
O8 Si4 1.641797 1_555
O9 Si1 1.638937 1_555
O10 Si2 1.649760 1_455
O11 Si0 1.638123 1_555
O12 Si6 1.650621 1_555
O13 Si7 1.640778 1_555
O14 Si8 1.640855 1_555
O15 Si9 1.638559 1_555
O15 Ta1 1.928517 1_555
O16 Si10 1.647913 1_555
O16 Ta1 1.954583 1_555
O17 Si11 1.641957 1_555
O17 Ta1 2.001437 1_555
O18 Si11 1.647369 1_555
O18 Ta2 1.952348 1_554
O19 Si9 1.637089 1_555
O19 Ta2 1.927661 1_554
O20 Si10 1.639499 1_555
O20 Ta2 2.001675 1_554
O21 Si7 1.638070 1_555
O22 Si8 1.648866 1_555
O23 Si6 1.637157 1_555
O24 Si12 1.646511 1_555
O24 Ta3 1.956917 1_556
O25 Si13 1.636398 1_555
O25 Ta3 1.930714 1_556
O26 Si14 1.639731 1_555
O26 Ta3 2.004175 1_556
O27 Si15 1.636878 1_555
O27 Ta4 1.927607 1_555
O28 Si16 1.647961 1_555
O28 Ta4 1.951172 1_555
O29 Si17 1.640048 1_555
O29 Ta4 2.000955 1_555
O30 Si17 1.648792 1_555
O31 Si15 1.640553 1_555
O32 Si16 1.639123 1_555
O33 Si13 1.638646 1_555
O33 Ta5 1.927751 1_555
O34 Si14 1.648825 1_555
O34 Ta5 1.953722 1_555
O35 Si12 1.641827 1_555
O35 Ta5 2.001494 1_555
O36 Si17 1.628124 1_555
O37 Si15 1.637093 1_555
O38 Si16 1.640411 1_555
O39 Si13 1.641074 1_555
O39 Ta0 2.027003 1_555
O40 Si14 1.630442 1_555
O40 Ta0 1.987252 1_565
O41 Si12 1.644499 1_555
O41 Ta0 2.040797 1_665
O42 Si6 1.628277 1_555
O43 Si7 1.636147 1_555
O44 Si8 1.640213 1_555
O45 Si9 1.639494 1_555
O46 Si10 1.630460 1_555
O47 Si11 1.642510 1_555
O48 Si5 1.629890 1_555
O49 Si3 1.638579 1_555
O50 Si4 1.642819 1_655
O51 Si1 1.637871 1_555
O51 Ta1 2.028622 1_555
O52 Si2 1.628284 1_555
O52 Ta1 1.988998 1_555
O53 Si0 1.641683 1_545
O53 Ta1 2.044043 1_555
O54 Si12 1.629697 1_555
O54 Ta2 1.989810 1_555
O55 Si13 1.640522 1_655
O55 Ta2 2.028671 1_555
O56 Si14 1.643732 1_545
O56 Ta2 2.043742 1_555
O57 Si15 1.636943 1_545
O58 Si16 1.628708 1_555
O59 Si17 1.639133 1_655
O60 Si11 1.629400 1_555
O60 Ta3 1.988963 1_555
O61 Si9 1.640361 1_455
O61 Ta3 2.026345 1_555
O62 Si10 1.642553 1_565
O62 Ta3 2.043165 1_555
O63 Si7 1.637953 1_565
O63 Ta4 2.028249 1_555
O64 Si8 1.628431 1_555
O64 Ta4 1.987387 1_555
O65 Si6 1.642177 1_455
O65 Ta4 2.042184 1_555
O66 Si0 1.628474 1_555
O67 Si1 1.636205 1_555
O68 Si2 1.640495 1_455
O69 Si3 1.639553 1_555
O69 Ta5 2.028483 1_555
O70 Si4 1.629503 1_555
O70 Ta5 1.988343 1_555
O71 Si5 1.641903 1_565
O71 Ta5 2.044160 1_555
