# generated using pymatgen
data_CsTcO4
_symmetry_space_group_name_H-M   'P 1'
_cell_length_a   5.66422446
_cell_length_b   5.97483418
_cell_length_c   14.25451529
_cell_angle_alpha   90.00000000
_cell_angle_beta   90.00000000
_cell_angle_gamma   90.00000000
_symmetry_Int_Tables_number   1
_chemical_formula_structural   CsTcO4
_chemical_formula_sum   'Cs4 Tc4 O16'
_cell_volume   482.41273724
_cell_formula_units_Z   4
loop_
 _symmetry_equiv_pos_site_id
 _symmetry_equiv_pos_as_xyz
  1  'x, y, z'
loop_
 _atom_site_type_symbol
 _atom_site_label
 _atom_site_symmetry_multiplicity
 _atom_site_fract_x
 _atom_site_fract_y
 _atom_site_fract_z
 _atom_site_occupancy
  Cs  Cs0  1  0.47279044  0.75000000  0.62729033  1
  Cs  Cs1  1  0.97279044  0.75000000  0.87270967  1
  Cs  Cs2  1  0.52720956  0.25000000  0.37270967  1
  Cs  Cs3  1  0.02720956  0.25000000  0.12729033  1
  Tc  Tc0  1  0.54594831  0.75000000  0.11901435  1
  Tc  Tc1  1  0.04594831  0.75000000  0.38098565  1
  Tc  Tc2  1  0.45405169  0.25000000  0.88098565  1
  Tc  Tc3  1  0.95405169  0.25000000  0.61901435  1
  O  O0  1  0.48731260  0.98389479  0.18400615  1
  O  O1  1  0.98731260  0.51610521  0.31599385  1
  O  O2  1  0.51268740  0.48389479  0.81599385  1
  O  O3  1  0.01268740  0.01610521  0.68400615  1
  O  O4  1  0.51268740  0.01610521  0.81599385  1
  O  O5  1  0.01268740  0.48389479  0.68400615  1
  O  O6  1  0.48731260  0.51610521  0.18400615  1
  O  O7  1  0.98731260  0.98389479  0.31599385  1
  O  O8  1  0.16167603  0.25000000  0.91242666  1
  O  O9  1  0.66167603  0.25000000  0.58757334  1
  O  O10  1  0.83832397  0.75000000  0.08757334  1
  O  O11  1  0.33832397  0.75000000  0.41242666  1
  O  O12  1  0.62626057  0.25000000  0.97931451  1
  O  O13  1  0.12626057  0.25000000  0.52068549  1
  O  O14  1  0.37373943  0.75000000  0.02068549  1
  O  O15  1  0.87373943  0.75000000  0.47931451  1
loop_
_geom_bond_atom_site_label_1
_geom_bond_atom_site_label_2
_geom_bond_distance
_geom_bond_site_symmetry_2
Cs0 O15 3.099513 1_555
Cs0 O4 3.132794 1_565
Cs0 O2 3.132794 1_555
Cs0 O11 3.156060 1_555
Cs0 O3 3.158068 1_565
Cs0 O5 3.158068 1_555
Cs0 O9 3.223329 1_555
Cs0 O9 3.223329 1_565
Cs0 O5 3.540262 1_655
Cs0 O3 3.540262 1_665
Cs1 O14 3.099513 1_656
Cs1 O3 3.132794 1_665
Cs1 O5 3.132794 1_655
Cs1 O10 3.156060 1_556
Cs1 O2 3.158068 1_555
Cs1 O4 3.158068 1_565
Cs1 O8 3.223329 1_655
Cs1 O8 3.223329 1_665
Cs1 O2 3.540262 1_655
Cs1 O4 3.540262 1_665
Cs2 O13 3.099513 1_555
Cs2 O0 3.132794 1_545
Cs2 O6 3.132794 1_555
Cs2 O9 3.156060 1_555
Cs2 O1 3.158068 1_555
Cs2 O7 3.158068 1_545
Cs2 O11 3.223329 1_555
Cs2 O11 3.223329 1_545
Cs2 O1 3.540262 1_455
Cs2 O7 3.540262 1_445
Cs3 O12 3.099513 1_454
Cs3 O1 3.132794 1_455
Cs3 O7 3.132794 1_445
Cs3 O8 3.156060 1_554
Cs3 O6 3.158068 1_555
Cs3 O0 3.158068 1_545
Cs3 O10 3.223329 1_455
Cs3 O10 3.223329 1_445
Cs3 O0 3.540262 1_445
Cs3 O6 3.540262 1_455
O0 Tc0 1.709249 1_555
O1 Tc1 1.709249 1_655
O2 Tc2 1.709249 1_555
O3 Tc3 1.709249 1_455
O4 Tc2 1.709249 1_555
O5 Tc3 1.709249 1_455
O6 Tc0 1.709249 1_555
O7 Tc1 1.709249 1_655
O8 Tc2 1.715654 1_555
O9 Tc3 1.715654 1_555
O10 Tc0 1.715654 1_555
O11 Tc1 1.715654 1_555
O12 Tc2 1.707639 1_555
O13 Tc3 1.707639 1_455
O14 Tc0 1.707639 1_555
O15 Tc1 1.707639 1_655
