# generated using pymatgen
data_MgTe2Mo4(Se2S)2
_symmetry_space_group_name_H-M   'P 1'
_cell_length_a   6.67432400
_cell_length_b   6.67426992
_cell_length_c   76.06176000
_cell_angle_alpha   90.00068654
_cell_angle_beta   89.99990932
_cell_angle_gamma   120.00019405
_symmetry_Int_Tables_number   1
_chemical_formula_structural   MgTe2Mo4(Se2S)2
_chemical_formula_sum   'Mg8 Te16 Mo32 Se32 S16'
_cell_volume   2934.31818094
_cell_formula_units_Z   8
loop_
 _symmetry_equiv_pos_site_id
 _symmetry_equiv_pos_as_xyz
  1  'x, y, z'
loop_
 _atom_site_type_symbol
 _atom_site_label
 _atom_site_symmetry_multiplicity
 _atom_site_fract_x
 _atom_site_fract_y
 _atom_site_fract_z
 _atom_site_occupancy
  Mg  Mg0_0  1  0.30187950  0.11104850  0.44084450  1
  Mg  Mg0_1  1  0.30187950  0.11104850  0.94084450  1
  Mg  Mg0_2  1  0.30187950  0.61104850  0.44084450  1
  Mg  Mg0_3  1  0.30187950  0.61104850  0.94084450  1
  Mg  Mg0_4  1  0.80187950  0.11104850  0.44084450  1
  Mg  Mg0_5  1  0.80187950  0.11104850  0.94084450  1
  Mg  Mg0_6  1  0.80187950  0.61104850  0.44084450  1
  Mg  Mg0_7  1  0.80187950  0.61104850  0.94084450  1
  Te  Te0_0  1  0.16669200  0.33338400  0.35373500  1
  Te  Te0_1  1  0.16669200  0.33338400  0.85373500  1
  Te  Te0_2  1  0.16669200  0.83338400  0.35373500  1
  Te  Te0_3  1  0.16669200  0.83338400  0.85373500  1
  Te  Te0_4  1  0.66669200  0.33338400  0.35373500  1
  Te  Te0_5  1  0.66669200  0.33338400  0.85373500  1
  Te  Te0_6  1  0.66669200  0.83338400  0.35373500  1
  Te  Te0_7  1  0.66669200  0.83338400  0.85373500  1
  Te  Te1_0  1  0.16667650  0.33335400  0.30380800  1
  Te  Te1_1  1  0.16667650  0.33335400  0.80380800  1
  Te  Te1_2  1  0.16667650  0.83335400  0.30380800  1
  Te  Te1_3  1  0.16667650  0.83335400  0.80380800  1
  Te  Te1_4  1  0.66667650  0.33335400  0.30380800  1
  Te  Te1_5  1  0.66667650  0.33335400  0.80380800  1
  Te  Te1_6  1  0.66667650  0.83335400  0.30380800  1
  Te  Te1_7  1  0.66667650  0.83335400  0.80380800  1
  Mo  Mo0_0  1  0.16664400  0.33329000  0.04693900  1
  Mo  Mo0_1  1  0.16664400  0.33329000  0.54693900  1
  Mo  Mo0_2  1  0.16664400  0.83329000  0.04693900  1
  Mo  Mo0_3  1  0.16664400  0.83329000  0.54693900  1
  Mo  Mo0_4  1  0.66664400  0.33329000  0.04693900  1
  Mo  Mo0_5  1  0.66664400  0.33329000  0.54693900  1
  Mo  Mo0_6  1  0.66664400  0.83329000  0.04693900  1
  Mo  Mo0_7  1  0.66664400  0.83329000  0.54693900  1
  Mo  Mo1_0  1  0.16667950  0.33335600  0.23481600  1
  Mo  Mo1_1  1  0.16667950  0.33335600  0.73481600  1
  Mo  Mo1_2  1  0.16667950  0.83335600  0.23481600  1
  Mo  Mo1_3  1  0.16667950  0.83335600  0.73481600  1
  Mo  Mo1_4  1  0.66667950  0.33335600  0.23481600  1
  Mo  Mo1_5  1  0.66667950  0.33335600  0.73481600  1
  Mo  Mo1_6  1  0.66667950  0.83335600  0.23481600  1
  Mo  Mo1_7  1  0.66667950  0.83335600  0.73481600  1
  Mo  Mo2_0  1  0.33334150  0.16668150  0.14089300  1
  Mo  Mo2_1  1  0.33334150  0.16668150  0.64089300  1
  Mo  Mo2_2  1  0.33334150  0.66668150  0.14089300  1
  Mo  Mo2_3  1  0.33334150  0.66668150  0.64089300  1
  Mo  Mo2_4  1  0.83334150  0.16668150  0.14089300  1
  Mo  Mo2_5  1  0.83334150  0.16668150  0.64089300  1
  Mo  Mo2_6  1  0.83334150  0.66668150  0.14089300  1
  Mo  Mo2_7  1  0.83334150  0.66668150  0.64089300  1
  Mo  Mo3_0  1  0.33335050  0.16670000  0.32879750  1
  Mo  Mo3_1  1  0.33335050  0.16670000  0.82879750  1
  Mo  Mo3_2  1  0.33335050  0.66670000  0.32879750  1
  Mo  Mo3_3  1  0.33335050  0.66670000  0.82879750  1
  Mo  Mo3_4  1  0.83335050  0.16670000  0.32879750  1
  Mo  Mo3_5  1  0.83335050  0.16670000  0.82879750  1
  Mo  Mo3_6  1  0.83335050  0.66670000  0.32879750  1
  Mo  Mo3_7  1  0.83335050  0.66670000  0.82879750  1
  Se  Se0_0  1  0.16667500  0.33334900  0.16285650  1
  Se  Se0_1  1  0.16667500  0.33334900  0.66285650  1
  Se  Se0_2  1  0.16667500  0.83334900  0.16285650  1
  Se  Se0_3  1  0.16667500  0.83334900  0.66285650  1
  Se  Se0_4  1  0.66667500  0.33334900  0.16285650  1
  Se  Se0_5  1  0.66667500  0.33334900  0.66285650  1
  Se  Se0_6  1  0.66667500  0.83334900  0.16285650  1
  Se  Se0_7  1  0.66667500  0.83334900  0.66285650  1
  Se  Se1_0  1  0.33332050  0.16663950  0.02500600  1
  Se  Se1_1  1  0.33332050  0.16663950  0.52500600  1
  Se  Se1_2  1  0.33332050  0.66663950  0.02500600  1
  Se  Se1_3  1  0.33332050  0.66663950  0.52500600  1
  Se  Se1_4  1  0.83332050  0.16663950  0.02500600  1
  Se  Se1_5  1  0.83332050  0.16663950  0.52500600  1
  Se  Se1_6  1  0.83332050  0.66663950  0.02500600  1
  Se  Se1_7  1  0.83332050  0.66663950  0.52500600  1
  Se  Se2_0  1  0.33332150  0.16663950  0.06890850  1
  Se  Se2_1  1  0.33332150  0.16663950  0.56890850  1
  Se  Se2_2  1  0.33332150  0.66663950  0.06890850  1
  Se  Se2_3  1  0.33332150  0.66663950  0.56890850  1
  Se  Se2_4  1  0.83332150  0.16663950  0.06890850  1
  Se  Se2_5  1  0.83332150  0.16663950  0.56890850  1
  Se  Se2_6  1  0.83332150  0.66663950  0.06890850  1
  Se  Se2_7  1  0.83332150  0.66663950  0.56890850  1
  Se  Se3_0  1  0.16667150  0.33334400  0.11896600  1
  Se  Se3_1  1  0.16667150  0.33334400  0.61896600  1
  Se  Se3_2  1  0.16667150  0.83334400  0.11896600  1
  Se  Se3_3  1  0.16667150  0.83334400  0.61896600  1
  Se  Se3_4  1  0.66667150  0.33334400  0.11896600  1
  Se  Se3_5  1  0.66667150  0.33334400  0.61896600  1
  Se  Se3_6  1  0.66667150  0.83334400  0.11896600  1
  Se  Se3_7  1  0.66667150  0.83334400  0.61896600  1
  S  S0_0  1  0.33331000  0.16662300  0.21486200  1
  S  S0_1  1  0.33331000  0.16662300  0.71486200  1
  S  S0_2  1  0.33331000  0.66662300  0.21486200  1
  S  S0_3  1  0.33331000  0.66662300  0.71486200  1
  S  S0_4  1  0.83331000  0.16662300  0.21486200  1
  S  S0_5  1  0.83331000  0.16662300  0.71486200  1
  S  S0_6  1  0.83331000  0.66662300  0.21486200  1
  S  S0_7  1  0.83331000  0.66662300  0.71486200  1
  S  S1_0  1  0.33331400  0.16662800  0.25479250  1
  S  S1_1  1  0.33331400  0.16662800  0.75479250  1
  S  S1_2  1  0.33331400  0.66662800  0.25479250  1
  S  S1_3  1  0.33331400  0.66662800  0.75479250  1
  S  S1_4  1  0.83331400  0.16662800  0.25479250  1
  S  S1_5  1  0.83331400  0.16662800  0.75479250  1
  S  S1_6  1  0.83331400  0.66662800  0.25479250  1
  S  S1_7  1  0.83331400  0.66662800  0.75479250  1
loop_
_geom_bond_atom_site_label_1
_geom_bond_atom_site_label_2
_geom_bond_distance
_geom_bond_site_symmetry_2
Mg0_0 Mg0_2 3.337135 1_555
Mg0_0 Mg0_2 3.337135 1_545
Mg0_0 Mg0_6 3.337139 1_445
Mg0_0 Mg0_6 3.337139 1_555
Mg0_0 Mg0_4 3.337162 1_555
Mg0_0 Mg0_4 3.337162 1_455
Mg0_1 Mg0_3 3.337135 1_545
Mg0_1 Mg0_3 3.337135 1_555
Mg0_1 Mg0_7 3.337139 1_555
Mg0_1 Mg0_7 3.337139 1_445
Mg0_1 Mg0_5 3.337162 1_555
Mg0_1 Mg0_5 3.337162 1_455
Mg0_2 Mg0_4 3.337139 1_565
Mg0_2 Mg0_4 3.337139 1_455
Mg0_2 Mg0_6 3.337162 1_555
Mg0_2 Mg0_6 3.337162 1_455
Mg0_3 Mg0_5 3.337139 1_565
Mg0_3 Mg0_5 3.337139 1_455
Mg0_3 Mg0_7 3.337162 1_455
Mg0_3 Mg0_7 3.337162 1_555
Mg0_4 Mg0_6 3.337135 1_555
Mg0_4 Mg0_6 3.337135 1_545
Mg0_5 Mg0_7 3.337135 1_555
Mg0_5 Mg0_7 3.337135 1_545
Mo0_0 Se1_4 2.548539 1_455
Mo0_0 Se1_0 2.548549 1_555
Mo0_0 Se1_2 2.548663 1_555
Mo0_0 Se2_4 2.550366 1_455
Mo0_0 Se2_0 2.550391 1_555
Mo0_0 Se2_2 2.550449 1_555
Mo0_1 Se1_5 2.548539 1_455
Mo0_1 Se1_1 2.548549 1_555
Mo0_1 Se1_3 2.548663 1_555
Mo0_1 Se2_5 2.550366 1_455
Mo0_1 Se2_1 2.550391 1_555
Mo0_1 Se2_3 2.550449 1_555
Mo0_2 Se1_6 2.548539 1_455
Mo0_2 Se1_2 2.548549 1_555
Mo0_2 Se1_0 2.548663 1_565
Mo0_2 Se2_6 2.550366 1_455
Mo0_2 Se2_2 2.550391 1_555
Mo0_2 Se2_0 2.550449 1_565
Mo0_3 Se1_7 2.548539 1_455
Mo0_3 Se1_3 2.548549 1_555
Mo0_3 Se1_1 2.548663 1_565
Mo0_3 Se2_7 2.550366 1_455
Mo0_3 Se2_3 2.550391 1_555
Mo0_3 Se2_1 2.550449 1_565
Mo0_4 Se1_0 2.548539 1_555
Mo0_4 Se1_4 2.548549 1_555
Mo0_4 Se1_6 2.548663 1_555
Mo0_4 Se2_0 2.550366 1_555
Mo0_4 Se2_4 2.550391 1_555
Mo0_4 Se2_6 2.550449 1_555
Mo0_5 Se1_1 2.548539 1_555
Mo0_5 Se1_5 2.548549 1_555
Mo0_5 Se1_7 2.548663 1_555
Mo0_5 Se2_1 2.550366 1_555
Mo0_5 Se2_5 2.550391 1_555
Mo0_5 Se2_7 2.550449 1_555
Mo0_6 Se1_2 2.548539 1_555
Mo0_6 Se1_6 2.548549 1_555
Mo0_6 Se1_4 2.548663 1_565
Mo0_6 Se2_2 2.550366 1_555
Mo0_6 Se2_6 2.550391 1_555
Mo0_6 Se2_4 2.550449 1_565
Mo0_7 Se1_3 2.548539 1_555
Mo0_7 Se1_7 2.548549 1_555
Mo0_7 Se1_5 2.548663 1_565
Mo0_7 Se2_3 2.550366 1_555
Mo0_7 Se2_7 2.550391 1_555
Mo0_7 Se2_5 2.550449 1_565
Mo1_0 S0_2 2.452400 1_555
Mo1_0 S0_0 2.452824 1_555
Mo1_0 S0_4 2.452856 1_455
Mo1_0 S1_2 2.453451 1_555
Mo1_0 S1_0 2.453897 1_555
Mo1_0 S1_4 2.453909 1_455
Mo1_1 S0_3 2.452400 1_555
Mo1_1 S0_1 2.452824 1_555
Mo1_1 S0_5 2.452856 1_455
Mo1_1 S1_3 2.453451 1_555
Mo1_1 S1_1 2.453897 1_555
Mo1_1 S1_5 2.453909 1_455
Mo1_2 S0_0 2.452400 1_565
Mo1_2 S0_2 2.452824 1_555
Mo1_2 S0_6 2.452856 1_455
Mo1_2 S1_0 2.453451 1_565
Mo1_2 S1_2 2.453897 1_555
Mo1_2 S1_6 2.453909 1_455
Mo1_3 S0_1 2.452400 1_565
Mo1_3 S0_3 2.452824 1_555
Mo1_3 S0_7 2.452856 1_455
Mo1_3 S1_1 2.453451 1_565
Mo1_3 S1_3 2.453897 1_555
Mo1_3 S1_7 2.453909 1_455
Mo1_4 S0_6 2.452400 1_555
Mo1_4 S0_4 2.452824 1_555
Mo1_4 S0_0 2.452856 1_555
Mo1_4 S1_6 2.453451 1_555
Mo1_4 S1_4 2.453897 1_555
Mo1_4 S1_0 2.453909 1_555
Mo1_5 S0_7 2.452400 1_555
Mo1_5 S0_5 2.452824 1_555
Mo1_5 S0_1 2.452856 1_555
Mo1_5 S1_7 2.453451 1_555
Mo1_5 S1_5 2.453897 1_555
Mo1_5 S1_1 2.453909 1_555
Mo1_6 S0_4 2.452400 1_565
Mo1_6 S0_6 2.452824 1_555
Mo1_6 S0_2 2.452856 1_555
Mo1_6 S1_4 2.453451 1_565
Mo1_6 S1_6 2.453897 1_555
Mo1_6 S1_2 2.453909 1_555
Mo1_7 S0_5 2.452400 1_565
Mo1_7 S0_7 2.452824 1_555
Mo1_7 S0_3 2.452856 1_555
Mo1_7 S1_5 2.453451 1_565
Mo1_7 S1_7 2.453897 1_555
Mo1_7 S1_3 2.453909 1_555
Mo2_0 Se3_2 2.548280 1_545
Mo2_0 Se3_4 2.548281 1_555
Mo2_0 Se3_0 2.548294 1_555
Mo2_0 Se0_0 2.550099 1_555
Mo2_0 Se0_4 2.550102 1_555
Mo2_0 Se0_2 2.550108 1_545
Mo2_1 Se3_3 2.548280 1_545
Mo2_1 Se3_5 2.548281 1_555
Mo2_1 Se3_1 2.548294 1_555
Mo2_1 Se0_1 2.550099 1_555
Mo2_1 Se0_5 2.550102 1_555
Mo2_1 Se0_3 2.550108 1_545
Mo2_2 Se3_0 2.548280 1_555
Mo2_2 Se3_6 2.548281 1_555
Mo2_2 Se3_2 2.548294 1_555
Mo2_2 Se0_2 2.550099 1_555
Mo2_2 Se0_6 2.550102 1_555
Mo2_2 Se0_0 2.550108 1_555
Mo2_3 Se3_1 2.548280 1_555
Mo2_3 Se3_7 2.548281 1_555
Mo2_3 Se3_3 2.548294 1_555
Mo2_3 Se0_3 2.550099 1_555
Mo2_3 Se0_7 2.550102 1_555
Mo2_3 Se0_1 2.550108 1_555
Mo2_4 Se3_6 2.548280 1_545
Mo2_4 Se3_0 2.548281 1_655
Mo2_4 Se3_4 2.548294 1_555
Mo2_4 Se0_4 2.550099 1_555
Mo2_4 Se0_0 2.550102 1_655
Mo2_4 Se0_6 2.550108 1_545
Mo2_5 Se3_7 2.548280 1_545
Mo2_5 Se3_1 2.548281 1_655
Mo2_5 Se3_5 2.548294 1_555
Mo2_5 Se0_5 2.550099 1_555
Mo2_5 Se0_1 2.550102 1_655
Mo2_5 Se0_7 2.550108 1_545
Mo2_6 Se3_4 2.548280 1_555
Mo2_6 Se3_2 2.548281 1_655
Mo2_6 Se3_6 2.548294 1_555
Mo2_6 Se0_6 2.550099 1_555
Mo2_6 Se0_2 2.550102 1_655
Mo2_6 Se0_4 2.550108 1_555
Mo2_7 Se3_5 2.548280 1_555
Mo2_7 Se3_3 2.548281 1_655
Mo2_7 Se3_7 2.548294 1_555
Mo2_7 Se0_7 2.550099 1_555
Mo2_7 Se0_3 2.550102 1_655
Mo2_7 Se0_5 2.550108 1_555
Mo3_0 Te0_2 2.703639 1_545
Mo3_0 Te0_0 2.703730 1_555
Mo3_0 Te0_4 2.703731 1_555
Mo3_0 Te1_4 2.706457 1_555
Mo3_0 Te1_0 2.706467 1_555
Mo3_0 Te1_2 2.706504 1_545
Mo3_1 Te0_3 2.703639 1_545
Mo3_1 Te0_1 2.703730 1_555
Mo3_1 Te0_5 2.703731 1_555
Mo3_1 Te1_5 2.706457 1_555
Mo3_1 Te1_1 2.706467 1_555
Mo3_1 Te1_3 2.706504 1_545
Mo3_2 Te0_0 2.703639 1_555
Mo3_2 Te0_2 2.703730 1_555
Mo3_2 Te0_6 2.703731 1_555
Mo3_2 Te1_6 2.706457 1_555
Mo3_2 Te1_2 2.706467 1_555
Mo3_2 Te1_0 2.706504 1_555
Mo3_3 Te0_1 2.703639 1_555
Mo3_3 Te0_3 2.703730 1_555
Mo3_3 Te0_7 2.703731 1_555
Mo3_3 Te1_7 2.706457 1_555
Mo3_3 Te1_3 2.706467 1_555
Mo3_3 Te1_1 2.706504 1_555
Mo3_4 Te0_6 2.703639 1_545
Mo3_4 Te0_4 2.703730 1_555
Mo3_4 Te0_0 2.703731 1_655
Mo3_4 Te1_0 2.706457 1_655
Mo3_4 Te1_4 2.706467 1_555
Mo3_4 Te1_6 2.706504 1_545
Mo3_5 Te0_7 2.703639 1_545
Mo3_5 Te0_5 2.703730 1_555
Mo3_5 Te0_1 2.703731 1_655
Mo3_5 Te1_1 2.706457 1_655
Mo3_5 Te1_5 2.706467 1_555
Mo3_5 Te1_7 2.706504 1_545
Mo3_6 Te0_4 2.703639 1_555
Mo3_6 Te0_6 2.703730 1_555
Mo3_6 Te0_2 2.703731 1_655
Mo3_6 Te1_2 2.706457 1_655
Mo3_6 Te1_6 2.706467 1_555
Mo3_6 Te1_4 2.706504 1_555
Mo3_7 Te0_5 2.703639 1_555
Mo3_7 Te0_7 2.703730 1_555
Mo3_7 Te0_3 2.703731 1_655
Mo3_7 Te1_3 2.706457 1_655
Mo3_7 Te1_7 2.706467 1_555
Mo3_7 Te1_5 2.706504 1_555
