# generated using pymatgen
data_MgMn5O8
_symmetry_space_group_name_H-M   'P 1'
_cell_length_a   5.88340227
_cell_length_b   6.29362597
_cell_length_c   6.29733166
_cell_angle_alpha   97.31305156
_cell_angle_beta   62.18052597
_cell_angle_gamma   62.15910234
_symmetry_Int_Tables_number   1
_chemical_formula_structural   MgMn5O8
_chemical_formula_sum   'Mg1 Mn5 O8'
_cell_volume   163.62460825
_cell_formula_units_Z   1
loop_
 _symmetry_equiv_pos_site_id
 _symmetry_equiv_pos_as_xyz
  1  'x, y, z'
loop_
 _atom_site_type_symbol
 _atom_site_label
 _atom_site_symmetry_multiplicity
 _atom_site_fract_x
 _atom_site_fract_y
 _atom_site_fract_z
 _atom_site_occupancy
  Mg  Mg0  1  0.72949394  0.13518296  0.40606642  1
  Mn  Mn0  1  0.98195165  0.50721979  0.52911859  1
  Mn  Mn1  1  0.22981535  0.88479883  0.65576672  1
  Mn  Mn2  1  0.47904924  0.01040026  0.03163909  1
  Mn  Mn3  1  0.98076195  0.51037755  0.03062347  1
  Mn  Mn4  1  0.47795456  0.51048354  0.03042926  1
  O  O0  1  0.45536730  0.27977036  0.80853670  1
  O  O1  1  0.95092364  0.29542854  0.80208459  1
  O  O2  1  0.50915885  0.75133832  0.78714287  1
  O  O3  1  0.95198695  0.75189959  0.78758740  1
  O  O4  1  0.00431510  0.26323808  0.27610549  1
  O  O5  1  0.45635056  0.26371071  0.27632749  1
  O  O6  1  0.00380960  0.73219954  0.26037418  1
  O  O7  1  0.50781130  0.73936892  0.24528073  1
loop_
_geom_bond_atom_site_label_1
_geom_bond_atom_site_label_2
_geom_bond_distance
_geom_bond_site_symmetry_2
Mg0 O0 2.019798 1_555
Mg0 O6 2.020203 1_645
Mg0 O4 2.020786 1_655
Mg0 O5 2.020857 1_555
Mn0 O2 1.972867 1_555
Mn0 O3 1.972873 1_555
Mn0 O4 1.976503 1_655
Mn0 O5 1.977242 1_655
Mn0 O1 2.298381 1_555
Mn0 O6 2.337207 1_655
Mn1 O1 2.059625 1_465
Mn1 O2 2.060984 1_555
Mn1 O3 2.061021 1_455
Mn1 O7 2.061088 1_555
Mn2 O3 1.973533 1_544
Mn2 O2 1.974049 1_544
Mn2 O4 1.978619 1_555
Mn2 O5 1.979254 1_555
Mn2 O7 2.296832 1_545
Mn2 O0 2.331489 1_554
Mn3 O1 1.973359 1_554
Mn3 O7 1.973459 1_555
Mn3 O6 1.976456 1_655
Mn3 O0 1.977946 1_654
Mn3 O3 2.296805 1_554
Mn3 O4 2.332164 1_655
Mn4 O1 1.973520 1_554
Mn4 O7 1.974471 1_555
Mn4 O6 1.976164 1_555
Mn4 O0 1.978782 1_554
Mn4 O2 2.295068 1_554
Mn4 O5 2.332179 1_555
