# generated using pymatgen
data_HoHSe
_symmetry_space_group_name_H-M   'P 1'
_cell_length_a   3.80915841
_cell_length_b   3.80915696
_cell_length_c   3.88739471
_cell_angle_alpha   90.00000000
_cell_angle_beta   90.00000000
_cell_angle_gamma   119.99999462
_symmetry_Int_Tables_number   1
_chemical_formula_structural   HoHSe
_chemical_formula_sum   'Ho1 H1 Se1'
_cell_volume   48.84804615
_cell_formula_units_Z   1
loop_
 _symmetry_equiv_pos_site_id
 _symmetry_equiv_pos_as_xyz
  1  'x, y, z'
loop_
 _atom_site_type_symbol
 _atom_site_label
 _atom_site_symmetry_multiplicity
 _atom_site_fract_x
 _atom_site_fract_y
 _atom_site_fract_z
 _atom_site_occupancy
  Ho  Ho0  1  0.66666700  0.33333300  0.50000000  1
  H  H0  1  0.33333300  0.66666700  0.50000000  1
  Se  Se0  1  0.00000000  -0.00000000  -0.00000000  1
loop_
_geom_bond_atom_site_label_1
_geom_bond_atom_site_label_2
_geom_bond_distance
_geom_bond_site_symmetry_2
Ho0 Se0 2.935049 1_656
Ho0 Se0 2.935049 1_655
Ho0 Se0 2.935051 1_665
Ho0 Se0 2.935051 1_666
Ho0 Se0 2.935052 1_556
Ho0 Se0 2.935052 1_555
H0 Ho0 2.199216 1_565
H0 Ho0 2.199217 1_455
H0 Ho0 2.199223 1_555
