# generated using pymatgen
data_Na42Ca8Ta16Si33(SO48)3
_symmetry_space_group_name_H-M   'P 1'
_cell_length_a   18.45332942
_cell_length_b   9.22739119
_cell_length_c   22.59228905
_cell_angle_alpha   89.83979202
_cell_angle_beta   90.38409600
_cell_angle_gamma   119.91132023
_symmetry_Int_Tables_number   1
_chemical_formula_structural   Na42Ca8Ta16Si33(SO48)3
_chemical_formula_sum   'Na42 Ca8 Ta16 Si33 S3 O144'
_cell_volume   3334.43365407
_cell_formula_units_Z   1
loop_
 _symmetry_equiv_pos_site_id
 _symmetry_equiv_pos_as_xyz
  1  'x, y, z'
loop_
 _atom_site_type_symbol
 _atom_site_label
 _atom_site_symmetry_multiplicity
 _atom_site_fract_x
 _atom_site_fract_y
 _atom_site_fract_z
 _atom_site_occupancy
  Na  Na0  1  0.31715033  0.97920277  0.25497098  1
  Na  Na1  1  0.81895995  0.98104445  0.25568739  1
  Na  Na2  1  0.17682875  0.38236821  0.25437802  1
  Na  Na3  1  0.67792108  0.38322152  0.25464607  1
  Na  Na4  1  0.00367556  0.63634995  0.26103438  1
  Na  Na5  1  0.50316652  0.63436506  0.26016999  1
  Na  Na6  1  0.31848054  0.65718155  0.75659424  1
  Na  Na7  1  0.81073532  0.64451135  0.75476961  1
  Na  Na8  1  0.00257498  0.37663688  0.75836424  1
  Na  Na9  1  0.51359003  0.37437181  0.75811854  1
  Na  Na10  1  0.17660639  0.97126661  0.75501574  1
  Na  Na11  1  0.67719657  0.97710426  0.75463227  1
  Na  Na12  1  0.14276389  0.32012397  0.58175942  1
  Na  Na13  1  0.64275972  0.31667864  0.59158096  1
  Na  Na14  1  0.01619723  0.71672141  0.58994019  1
  Na  Na15  1  0.51920262  0.72205565  0.59020487  1
  Na  Na16  1  0.34190188  0.96210787  0.58939630  1
  Na  Na17  1  0.84212469  0.96798694  0.59093285  1
  Na  Na18  1  0.34135917  0.72110566  0.09012020  1
  Na  Na19  1  0.84167165  0.72134240  0.09053916  1
  Na  Na20  1  0.01759676  0.31694569  0.08986205  1
  Na  Na21  1  0.51601513  0.31410467  0.08905039  1
  Na  Na22  1  0.48748057  0.66147880  0.91438031  1
  Na  Na23  1  0.99069287  0.65565942  0.91461521  1
  Na  Na24  1  0.34373419  0.02366461  0.91565143  1
  Na  Na25  1  0.84036526  0.02422166  0.91394255  1
  Na  Na26  1  0.66611543  0.31017167  0.91363637  1
  Na  Na27  1  0.49000669  0.32350616  0.41465880  1
  Na  Na28  1  0.33878478  0.65534002  0.41380948  1
  Na  Na29  1  0.84162011  0.65585200  0.41482636  1
  Na  Na30  1  0.00417717  0.00653811  0.50325931  1
  Na  Na31  1  0.50625948  0.00033735  0.50524862  1
  Na  Na32  1  0.01234986  0.01035264  0.00745756  1
  Na  Na33  1  0.50474151  0.99837108  0.00603738  1
  Na  Na34  1  0.32990136  0.33460296  0.83633538  1
  Na  Na35  1  0.83223951  0.33252893  0.83151890  1
  Na  Na36  1  0.32725187  0.32238372  0.33425785  1
  Na  Na37  1  0.83693248  0.32417325  0.33773452  1
  Na  Na38  1  0.16578935  0.65926222  0.17151595  1
  Na  Na39  1  0.66688231  0.65922347  0.17204353  1
  Na  Na40  1  0.16688024  0.68426557  0.67285859  1
  Na  Na41  1  0.66624069  0.66475445  0.67895725  1
  Ca  Ca0  1  0.99907612  0.99679155  0.64567757  1
  Ca  Ca1  1  0.49983420  0.00002376  0.64690661  1
  Ca  Ca2  1  0.00323472  0.00096071  0.14404548  1
  Ca  Ca3  1  0.50325345  0.00090980  0.14316640  1
  Ca  Ca4  1  0.16460131  0.66228060  0.32336326  1
  Ca  Ca5  1  0.66680476  0.66501392  0.32273292  1
  Ca  Ca6  1  0.16685715  0.66845504  0.82417292  1
  Ca  Ca7  1  0.66631179  0.66755130  0.82144682  1
  Ta  Ta0  1  0.99178897  0.99958721  0.35764111  1
  Ta  Ta1  1  0.49261460  0.99719818  0.35633022  1
  Ta  Ta2  1  0.99354480  0.98889598  0.85605065  1
  Ta  Ta3  1  0.49820858  0.99850794  0.85073162  1
  Ta  Ta4  1  0.33991053  0.33565214  0.68446045  1
  Ta  Ta5  1  0.83285139  0.33339176  0.68807703  1
  Ta  Ta6  1  0.33802887  0.33974764  0.18400747  1
  Ta  Ta7  1  0.83917822  0.34206198  0.18441627  1
  Ta  Ta8  1  0.33048674  0.33221348  0.98103695  1
  Ta  Ta9  1  0.83319879  0.33124563  0.98211432  1
  Ta  Ta10  1  0.33087551  0.33119425  0.48011928  1
  Ta  Ta11  1  0.83438404  0.33125606  0.48018021  1
  Ta  Ta12  1  0.16751056  0.66891055  0.01843247  1
  Ta  Ta13  1  0.66653474  0.66905191  0.02051073  1
  Ta  Ta14  1  0.16419032  0.66464766  0.51689459  1
  Ta  Ta15  1  0.66685301  0.66750798  0.51782553  1
  Si  Si0  1  0.35181247  0.69923713  0.24661158  1
  Si  Si1  1  0.85253425  0.70094093  0.24718737  1
  Si  Si2  1  0.99770167  0.29349627  0.24687059  1
  Si  Si3  1  0.49754382  0.29466742  0.24698551  1
  Si  Si4  1  0.64958008  0.29390469  0.74719067  1
  Si  Si5  1  0.99913414  0.70190103  0.74727481  1
  Si  Si6  1  0.49563633  0.69791014  0.74701693  1
  Si  Si7  1  0.35039072  0.00281594  0.74630724  1
  Si  Si8  1  0.85311384  0.00618885  0.74695186  1
  Si  Si9  1  0.48291534  0.34615361  0.57930923  1
  Si  Si10  1  0.98134085  0.34864964  0.58356448  1
  Si  Si11  1  0.19281737  0.03929091  0.58276461  1
  Si  Si12  1  0.69323703  0.04042666  0.58185865  1
  Si  Si13  1  0.32691374  0.61568440  0.58181856  1
  Si  Si14  1  0.82772716  0.61512485  0.58107935  1
  Si  Si15  1  0.48206426  0.61840777  0.07990788  1
  Si  Si16  1  0.98381892  0.62114803  0.08028239  1
  Si  Si17  1  0.32596440  0.03831335  0.08191375  1
  Si  Si18  1  0.82593501  0.03712260  0.08320924  1
  Si  Si19  1  0.19161036  0.34529066  0.08246472  1
  Si  Si20  1  0.69157139  0.34399436  0.08177548  1
  Si  Si21  1  0.31662883  0.66525009  0.91479555  1
  Si  Si22  1  0.81450215  0.66118048  0.91789543  1
  Si  Si23  1  0.01696322  0.36315236  0.91725427  1
  Si  Si24  1  0.51562508  0.36492748  0.91756857  1
  Si  Si25  1  0.16643157  0.96880774  0.91565325  1
  Si  Si26  1  0.66632126  0.96737925  0.91634468  1
  Si  Si27  1  0.31320700  0.96758021  0.41528293  1
  Si  Si28  1  0.81344928  0.96853650  0.41486629  1
  Si  Si29  1  0.16421624  0.36255622  0.41575804  1
  Si  Si30  1  0.66617513  0.36246373  0.41629433  1
  Si  Si31  1  0.01556721  0.66948165  0.41514582  1
  Si  Si32  1  0.51615805  0.66935569  0.41663466  1
  S  S0  1  0.14891075  0.00998191  0.25131184  1
  S  S1  1  0.64790831  0.01016094  0.25158183  1
  S  S2  1  0.14872449  0.28766105  0.75007200  1
  O  O0  1  0.10519916  0.02832375  0.30389668  1
  O  O1  1  0.60273357  0.02679534  0.30431768  1
  O  O2  1  0.41555251  0.80642298  0.30649009  1
  O  O3  1  0.91533395  0.80489298  0.30679220  1
  O  O4  1  0.48737717  0.16626571  0.30620598  1
  O  O5  1  0.98698464  0.16061526  0.30393313  1
  O  O6  1  0.10147727  0.17735196  0.80135718  1
  O  O7  1  0.59527357  0.16535949  0.80568203  1
  O  O8  1  0.48452013  0.80467148  0.80520116  1
  O  O9  1  0.98970568  0.81151179  0.80589375  1
  O  O10  1  0.41496098  0.02636682  0.80512650  1
  O  O11  1  0.91674892  0.02327588  0.80608765  1
  O  O12  1  0.38857185  0.98241625  0.68634655  1
  O  O13  1  0.89254044  0.98442614  0.68788992  1
  O  O14  1  0.10457734  0.22012191  0.69403391  1
  O  O15  1  0.59907726  0.22306739  0.68715272  1
  O  O16  1  0.01859510  0.81031712  0.68855420  1
  O  O17  1  0.50796673  0.79539014  0.68672044  1
  O  O18  1  0.39469129  0.79992356  0.18823481  1
  O  O19  1  0.89386830  0.79946837  0.18798684  1
  O  O20  1  0.01356164  0.22192635  0.18761066  1
  O  O21  1  0.51425733  0.22026503  0.18887161  1
  O  O22  1  0.10229017  0.98747357  0.19706579  1
  O  O23  1  0.60141082  0.98764726  0.19755619  1
  O  O24  1  0.43302446  0.36409517  0.64027925  1
  O  O25  1  0.93348671  0.36846363  0.64350442  1
  O  O26  1  0.25055048  0.13664492  0.64340165  1
  O  O27  1  0.75170827  0.13515443  0.64235396  1
  O  O28  1  0.31676017  0.49551858  0.64124766  1
  O  O29  1  0.81688103  0.49756857  0.64107910  1
  O  O30  1  0.43241330  0.49795991  0.14057940  1
  O  O31  1  0.93301562  0.49954807  0.14059185  1
  O  O32  1  0.31828218  0.13734330  0.14219564  1
  O  O33  1  0.81868993  0.13758015  0.14267468  1
  O  O34  1  0.25035155  0.36286002  0.14296522  1
  O  O35  1  0.75077129  0.36061302  0.14164254  1
  O  O36  1  0.24887175  0.34228266  0.02841689  1
  O  O37  1  0.74722971  0.34343915  0.02574259  1
  O  O38  1  0.42512521  0.50576942  0.02490941  1
  O  O39  1  0.92510361  0.50517431  0.02584437  1
  O  O40  1  0.33176371  0.15606636  0.02649450  1
  O  O41  1  0.82913764  0.15169772  0.02679475  1
  O  O42  1  0.24963061  0.15767305  0.52869940  1
  O  O43  1  0.74837490  0.16183878  0.52843594  1
  O  O44  1  0.33120879  0.50770393  0.52636806  1
  O  O45  1  0.83385169  0.51194450  0.52542769  1
  O  O46  1  0.42427980  0.34129784  0.52497970  1
  O  O47  1  0.92154969  0.33623445  0.52871813  1
  O  O48  1  0.26299799  0.69530842  0.96913172  1
  O  O49  1  0.76566169  0.69735206  0.97266607  1
  O  O50  1  0.08137984  0.47014805  0.97303140  1
  O  O51  1  0.58397884  0.46974634  0.97290663  1
  O  O52  1  0.15032457  0.82677492  0.96861696  1
  O  O53  1  0.65263089  0.82933257  0.97028390  1
  O  O54  1  0.26295695  0.83215477  0.47037407  1
  O  O55  1  0.76182111  0.82902330  0.46916631  1
  O  O56  1  0.15315395  0.47069894  0.47228746  1
  O  O57  1  0.64954357  0.46895195  0.47092941  1
  O  O58  1  0.08219216  0.69109783  0.47120416  1
  O  O59  1  0.58100950  0.69094803  0.47276269  1
  O  O60  1  0.04467984  0.63332328  0.35433032  1
  O  O61  1  0.54239179  0.61324888  0.35794245  1
  O  O62  1  0.26999977  0.91114438  0.35282588  1
  O  O63  1  0.77029041  0.91215496  0.35226282  1
  O  O64  1  0.19534907  0.47398192  0.35757123  1
  O  O65  1  0.69108617  0.46908234  0.35693288  1
  O  O66  1  0.04150553  0.47121232  0.85815649  1
  O  O67  1  0.54281179  0.47536690  0.85916816  1
  O  O68  1  0.19283500  0.91740237  0.85589803  1
  O  O69  1  0.69669251  0.91879085  0.85786859  1
  O  O70  1  0.27072626  0.62714520  0.85266373  1
  O  O71  1  0.76242248  0.60982696  0.85828742  1
  O  O72  1  0.00744765  0.84160415  0.41136269  1
  O  O73  1  0.50848761  0.84017468  0.40983064  1
  O  O74  1  0.40707490  0.97388114  0.41194673  1
  O  O75  1  0.90547762  0.97023008  0.41233974  1
  O  O76  1  0.07838194  0.18026559  0.40835875  1
  O  O77  1  0.57654400  0.18270746  0.40941900  1
  O  O78  1  0.00894068  0.17657996  0.90912017  1
  O  O79  1  0.51313676  0.18273758  0.91036436  1
  O  O80  1  0.07702399  0.97031513  0.90913611  1
  O  O81  1  0.57796913  0.97179692  0.91032550  1
  O  O82  1  0.40897069  0.84417676  0.91114380  1
  O  O83  1  0.90697027  0.83904100  0.91063503  1
  O  O84  1  0.49102490  0.18248277  0.57691301  1
  O  O85  1  0.99512290  0.19072836  0.58164522  1
  O  O86  1  0.10332118  0.02656069  0.57965258  1
  O  O87  1  0.60182642  0.01870573  0.57938328  1
  O  O88  1  0.40813220  0.79695331  0.57809861  1
  O  O89  1  0.90836041  0.79868181  0.57920381  1
  O  O90  1  0.48491957  0.79228212  0.07876899  1
  O  O91  1  0.98498535  0.79344469  0.07810775  1
  O  O92  1  0.40796492  0.02087024  0.07969299  1
  O  O93  1  0.90842912  0.02221921  0.07925076  1
  O  O94  1  0.09937216  0.19186241  0.07936334  1
  O  O95  1  0.59904100  0.19097963  0.07753382  1
  O  O96  1  0.34800721  0.18470537  0.74562248  1
  O  O97  1  0.85477803  0.19024868  0.74694890  1
  O  O98  1  0.23214648  0.29324816  0.74955516  1
  O  O99  1  0.74018754  0.29078099  0.74589762  1
  O  O100  1  0.40260441  0.51458846  0.74555509  1
  O  O101  1  0.90625062  0.52402770  0.74557481  1
  O  O102  1  0.34884082  0.51140939  0.24630404  1
  O  O103  1  0.84826150  0.51120949  0.24552821  1
  O  O104  1  0.40409454  0.28976751  0.24563947  1
  O  O105  1  0.90432999  0.29005206  0.24532995  1
  O  O106  1  0.23313861  0.17243662  0.24887145  1
  O  O107  1  0.73172769  0.17157726  0.24984273  1
  O  O108  1  0.33929798  0.51584707  0.92800070  1
  O  O109  1  0.83902460  0.51405679  0.92903242  1
  O  O110  1  0.41876021  0.32348962  0.92903108  1
  O  O111  1  0.91917549  0.32263886  0.92923834  1
  O  O112  1  0.24498289  0.15583566  0.92982345  1
  O  O113  1  0.74256386  0.16130989  0.92942138  1
  O  O114  1  0.33906090  0.16307277  0.42782782  1
  O  O115  1  0.83384562  0.15794701  0.42911291  1
  O  O116  1  0.24396651  0.33308365  0.43057468  1
  O  O117  1  0.74585473  0.33651303  0.43034618  1
  O  O118  1  0.41940091  0.51386568  0.42885361  1
  O  O119  1  0.91987521  0.51485117  0.42850028  1
  O  O120  1  0.19054396  0.52456878  0.07660166  1
  O  O121  1  0.69017611  0.52345368  0.07735897  1
  O  O122  1  0.07330738  0.62275627  0.07708422  1
  O  O123  1  0.57249923  0.62152194  0.07714826  1
  O  O124  1  0.24186220  0.85094625  0.07495981  1
  O  O125  1  0.74169182  0.84984680  0.07690793  1
  O  O126  1  0.18738851  0.85503270  0.57657282  1
  O  O127  1  0.68873588  0.85606427  0.57505129  1
  O  O128  1  0.23944744  0.62501503  0.57667873  1
  O  O129  1  0.74033552  0.62556980  0.57512049  1
  O  O130  1  0.07346787  0.52408321  0.57715277  1
  O  O131  1  0.57383345  0.52145032  0.57734861  1
  O  O132  1  0.16405083  0.86779889  0.25661230  1
  O  O133  1  0.66166034  0.86644520  0.25776974  1
  O  O134  1  0.25948413  0.67547218  0.25179600  1
  O  O135  1  0.75954786  0.67513872  0.25171947  1
  O  O136  1  0.07299335  0.48328121  0.25388756  1
  O  O137  1  0.57268939  0.48472001  0.25373801  1
  O  O138  1  0.16131299  0.45743057  0.75662631  1
  O  O139  1  0.66557182  0.47984727  0.75542711  1
  O  O140  1  0.07467286  0.66325361  0.75463888  1
  O  O141  1  0.57244965  0.66527801  0.75474089  1
  O  O142  1  0.25834459  0.84292213  0.75287148  1
  O  O143  1  0.76045822  0.85085180  0.75354148  1
loop_
_geom_bond_atom_site_label_1
_geom_bond_atom_site_label_2
_geom_bond_distance
_geom_bond_site_symmetry_2
Na0 O62 2.347764 1_555
Na0 O134 2.453169 1_555
Na0 O132 2.478829 1_555
Na0 O104 2.499310 1_565
Na1 O63 2.328163 1_555
Na1 O135 2.468084 1_555
Na1 O105 2.487569 1_565
Na1 O133 2.546843 1_555
Na2 O134 2.351762 1_555
Na2 O64 2.445183 1_555
Na2 O136 2.513513 1_555
Na2 O106 2.618818 1_555
Na2 O102 2.786345 1_555
Na2 O34 2.915593 1_555
Na3 O135 2.341532 1_555
Na3 O65 2.416132 1_555
Na3 O137 2.541974 1_555
Na3 O107 2.597705 1_555
Na3 O103 2.760945 1_555
Na4 O60 2.239503 1_555
Na4 O136 2.337332 1_555
Na4 O103 2.523299 1_455
Na4 O132 2.651180 1_555
Na4 O105 2.802277 1_455
Na4 O3 2.950424 1_455
Na4 O31 3.004659 1_455
Na5 O137 2.311732 1_555
Na5 O61 2.357536 1_555
Na5 O102 2.502623 1_555
Na5 O133 2.626404 1_555
Na5 O104 2.785857 1_555
Na5 O2 2.970123 1_555
Na5 O30 2.986896 1_555
Na6 O70 2.311458 1_555
Na6 O142 2.463890 1_555
Na6 O100 2.499472 1_555
Na6 O138 2.545093 1_555
Na7 O139 2.329321 1_555
Na7 O71 2.471032 1_555
Na7 O143 2.499560 1_555
Na7 O101 2.519186 1_555
Na7 O99 2.855005 1_555
Na8 O140 2.294073 1_555
Na8 O66 2.392622 1_555
Na8 O97 2.403713 1_455
Na8 O138 2.638418 1_555
Na8 O101 2.737627 1_455
Na8 O25 2.868043 1_455
Na9 O141 2.341637 1_555
Na9 O67 2.421837 1_555
Na9 O139 2.469057 1_555
Na9 O96 2.671514 1_555
Na10 O142 2.337261 1_555
Na10 O68 2.379970 1_555
Na10 O140 2.506843 1_555
Na10 O98 2.618312 1_565
Na10 O96 2.778848 1_565
Na10 O26 2.914978 1_565
Na10 O16 2.932107 1_555
Na11 O143 2.346122 1_555
Na11 O69 2.456336 1_555
Na11 O99 2.532234 1_565
Na11 O141 2.543337 1_555
Na11 O97 2.866147 1_565
Na12 O85 2.367278 1_455
Na12 O86 2.429750 1_555
Na12 O128 2.471083 1_555
Na12 O14 2.672909 1_555
Na12 O130 2.754134 1_555
Na12 O56 2.793836 1_555
Na13 O15 2.318721 1_555
Na13 O84 2.452586 1_555
Na13 O87 2.477192 1_555
Na13 O129 2.527661 1_555
Na13 O131 2.771170 1_555
Na14 O16 2.383857 1_555
Na14 O89 2.466600 1_455
Na14 O86 2.495967 1_565
Na14 O130 2.498107 1_555
Na14 O126 2.772962 1_555
Na15 O17 2.325886 1_555
Na15 O87 2.390858 1_565
Na15 O88 2.481435 1_555
Na15 O131 2.528860 1_555
Na15 O127 2.754516 1_555
Na16 O12 2.321723 1_555
Na16 O88 2.396902 1_555
Na16 O84 2.492694 1_565
Na16 O126 2.524064 1_555
Na16 O128 2.732191 1_555
Na17 O13 2.349583 1_555
Na17 O89 2.432240 1_555
Na17 O127 2.506051 1_555
Na17 O85 2.541220 1_565
Na17 O129 2.778014 1_555
Na18 O18 2.382623 1_555
Na18 O90 2.405855 1_555
Na18 O92 2.413876 1_565
Na18 O120 2.466900 1_555
Na18 O124 2.665884 1_555
Na19 O19 2.362685 1_555
Na19 O91 2.402008 1_555
Na19 O93 2.424829 1_565
Na19 O121 2.477724 1_555
Na19 O125 2.660245 1_555
Na19 O49 2.958316 1_554
Na20 O94 2.325716 1_555
Na20 O20 2.361658 1_555
Na20 O93 2.458657 1_455
Na20 O122 2.491825 1_555
Na20 O120 2.803077 1_555
Na21 O95 2.334267 1_555
Na21 O21 2.408061 1_555
Na21 O92 2.441014 1_555
Na21 O123 2.501217 1_555
Na21 O121 2.819056 1_555
Na22 O108 2.392075 1_555
Na22 O81 2.495576 1_555
Na22 O67 2.706566 1_555
Na22 O82 2.716615 1_555
Na22 O110 2.738584 1_555
Na22 O8 2.808008 1_555
Na22 O38 2.827289 1_556
Na22 O53 2.921223 1_555
Na23 O109 2.451376 1_555
Na23 O80 2.524058 1_655
Na23 O66 2.650027 1_655
Na23 O111 2.692442 1_555
Na23 O83 2.804079 1_555
Na23 O52 2.825384 1_655
Na23 O39 2.837777 1_556
Na23 O9 2.847370 1_555
Na24 O110 2.416874 1_555
Na24 O82 2.488699 1_545
Na24 O112 2.671547 1_555
Na24 O79 2.714546 1_555
Na24 O68 2.787787 1_545
Na24 O10 2.823868 1_555
Na24 O40 2.847119 1_556
Na24 O48 2.891597 1_545
Na25 O111 2.412785 1_555
Na25 O83 2.555875 1_545
Na25 O69 2.640059 1_545
Na25 O113 2.695806 1_555
Na25 O78 2.703210 1_655
Na25 O11 2.825376 1_555
Na25 O41 2.862491 1_556
Na25 O49 2.934807 1_545
Na26 O113 2.434590 1_555
Na26 O79 2.458539 1_555
Na26 O81 2.708287 1_545
Na26 O71 2.734432 1_555
Na26 O7 2.770601 1_555
Na26 O109 2.800589 1_555
Na26 O37 2.871367 1_556
Na26 O51 2.919343 1_555
Na27 O114 2.436179 1_555
Na27 O77 2.514870 1_555
Na27 O61 2.672864 1_555
Na27 O118 2.678992 1_555
Na27 O74 2.798143 1_545
Na27 O46 2.819840 1_555
Na27 O4 2.838848 1_555
Na27 O57 2.846627 1_555
Na28 O118 2.441373 1_555
Na28 O74 2.556410 1_555
Na28 O116 2.619311 1_555
Na28 O64 2.640062 1_555
Na28 O73 2.720286 1_555
Na28 O2 2.808292 1_555
Na28 O44 2.852625 1_555
Na28 O54 2.926682 1_555
Na29 O119 2.395644 1_555
Na29 O75 2.529365 1_555
Na29 O117 2.595750 1_555
Na29 O72 2.660737 1_655
Na29 O65 2.754392 1_555
Na29 O45 2.797129 1_555
Na29 O3 2.803375 1_555
Na29 O55 2.934426 1_555
Na30 O86 2.445895 1_555
Na30 O85 2.521249 1_455
Na30 O89 2.527625 1_445
Na30 O72 2.596387 1_545
Na30 O76 2.621561 1_555
Na30 O75 2.644595 1_445
Na31 O87 2.368087 1_555
Na31 O84 2.453119 1_555
Na31 O88 2.478558 1_545
Na31 O73 2.629168 1_545
Na31 O77 2.653642 1_555
Na31 O74 2.712625 1_545
Na32 O94 2.306696 1_555
Na32 O91 2.406996 1_445
Na32 O93 2.563671 1_455
Na32 O80 2.641000 1_544
Na32 O78 2.714359 1_554
Na32 O83 2.821664 1_444
Na33 O95 2.385338 1_565
Na33 O90 2.397289 1_555
Na33 O92 2.532382 1_565
Na33 O81 2.633341 1_554
Na33 O82 2.683718 1_554
Na33 O79 2.703923 1_564
Na34 O98 2.552203 1_555
Na34 O100 2.561284 1_555
Na34 O96 2.590519 1_555
Na34 O108 2.615552 1_555
Na34 O112 2.661680 1_555
Na34 O110 2.684294 1_555
Na35 O99 2.466412 1_555
Na35 O97 2.473133 1_555
Na35 O101 2.523350 1_555
Na35 O109 2.735437 1_555
Na35 O113 2.747516 1_555
Na35 O111 2.748334 1_555
Na36 O106 2.495072 1_555
Na36 O102 2.539231 1_555
Na36 O104 2.564515 1_555
Na36 O114 2.640684 1_555
Na36 O116 2.702631 1_555
Na36 O118 2.748947 1_555
Na37 O105 2.536368 1_555
Na37 O115 2.552365 1_555
Na37 O107 2.632908 1_555
Na37 O119 2.633566 1_555
Na37 O103 2.643426 1_555
Na37 O117 2.730343 1_555
Na38 O134 2.450070 1_555
Na38 O136 2.506985 1_555
Na38 O120 2.635491 1_555
Na38 O122 2.638057 1_555
Na38 O124 2.720458 1_555
Na38 O132 2.735496 1_555
Na39 O135 2.428087 1_555
Na39 O137 2.501116 1_555
Na39 O121 2.625755 1_555
Na39 O123 2.664699 1_555
Na39 O125 2.686304 1_555
Na39 O133 2.761060 1_555
Na40 O142 2.401928 1_555
Na40 O140 2.461214 1_555
Na40 O126 2.599096 1_555
Na40 O130 2.694089 1_555
Na40 O128 2.754911 1_555
Na40 O138 2.781937 1_555
Na41 O143 2.410446 1_555
Na41 O139 2.420498 1_555
Na41 O141 2.444388 1_555
Na41 O131 2.764354 1_555
Na41 O129 2.836252 1_555
Na41 O127 2.838708 1_555
Ca0 O13 2.142018 1_555
Ca0 O16 2.152418 1_655
Ca0 O14 2.283266 1_665
Ca0 O89 2.308487 1_555
Ca0 O85 2.326974 1_565
Ca0 O86 2.347376 1_665
Ca1 O15 2.155354 1_555
Ca1 O17 2.160632 1_545
Ca1 O12 2.174132 1_545
Ca1 O88 2.368532 1_545
Ca1 O87 2.369097 1_555
Ca1 O84 2.369849 1_555
Ca2 O20 2.187121 1_555
Ca2 O19 2.188532 1_445
Ca2 O22 2.233438 1_545
Ca2 O94 2.299868 1_555
Ca2 O91 2.316303 1_445
Ca2 O93 2.355496 1_455
Ca3 O18 2.191107 1_545
Ca3 O21 2.191649 1_555
Ca3 O23 2.235220 1_545
Ca3 O90 2.301441 1_545
Ca3 O95 2.308218 1_555
Ca3 O92 2.338794 1_555
Ca4 O60 2.210883 1_555
Ca4 O64 2.215393 1_555
Ca4 O62 2.244112 1_555
Ca4 O136 2.289925 1_555
Ca4 O134 2.349265 1_555
Ca4 O132 2.423567 1_555
Ca5 O65 2.204964 1_555
Ca5 O63 2.222746 1_555
Ca5 O61 2.249545 1_555
Ca5 O137 2.304415 1_555
Ca5 O135 2.321240 1_555
Ca5 O133 2.403460 1_555
Ca6 O68 2.219619 1_555
Ca6 O70 2.223561 1_555
Ca6 O66 2.251654 1_555
Ca6 O140 2.290647 1_555
Ca6 O142 2.312604 1_555
Ca6 O138 2.438585 1_555
Ca7 O71 2.245407 1_555
Ca7 O67 2.247624 1_555
Ca7 O69 2.252579 1_555
Ca7 O141 2.280486 1_555
Ca7 O139 2.283712 1_555
Ca7 O143 2.307219 1_555
O0 S0 1.496925 1_555
O0 Ta0 2.324486 1_445
O1 S1 1.509944 1_555
O1 Ta1 2.249760 1_545
O2 Si0 1.737147 1_555
O2 Ta1 1.970275 1_555
O3 Si1 1.718747 1_555
O3 Ta0 1.999924 1_555
O4 Si3 1.732582 1_555
O4 Ta1 1.965835 1_545
O5 Si2 1.719666 1_555
O5 Ta0 1.951365 1_545
O6 S2 1.503515 1_555
O6 Ta2 2.254882 1_445
O7 Si4 1.726541 1_555
O7 Ta3 1.969751 1_545
O8 Si6 1.718401 1_555
O8 Ta3 1.969068 1_555
O9 Si5 1.730084 1_555
O9 Ta2 1.965149 1_555
O10 Si7 1.719012 1_555
O10 Ta3 1.964354 1_545
O11 Si8 1.727488 1_555
O11 Ta2 1.951404 1_545
O12 Si7 1.585376 1_565
O13 Si8 1.584411 1_565
O14 S2 1.462578 1_555
O15 Si4 1.586210 1_555
O16 Si5 1.590718 1_455
O17 Si6 1.584210 1_555
O18 Si0 1.581975 1_555
O19 Si1 1.585076 1_555
O20 Si2 1.586562 1_455
O21 Si3 1.584891 1_555
O22 S0 1.447171 1_565
O23 S1 1.441789 1_565
O24 Si9 1.715422 1_555
O24 Ta4 1.894569 1_555
O25 Si10 1.680916 1_555
O25 Ta5 1.997827 1_555
O26 Si11 1.688650 1_555
O26 Ta4 1.980092 1_555
O27 Si12 1.685972 1_555
O27 Ta5 1.978221 1_555
O28 Si13 1.689707 1_555
O28 Ta4 1.981548 1_555
O29 Si14 1.683173 1_555
O29 Ta5 1.985274 1_555
O30 Si15 1.716480 1_555
O30 Ta6 1.899072 1_555
O31 Si16 1.718678 1_555
O31 Ta7 1.896273 1_555
O32 Si17 1.687790 1_555
O32 Ta6 1.959536 1_555
O33 Si18 1.677793 1_555
O33 Ta7 1.971324 1_555
O34 Si19 1.695775 1_555
O34 Ta6 1.961093 1_555
O35 Si20 1.691318 1_555
O35 Ta7 1.970043 1_555
O36 Si19 1.629431 1_555
O36 Ta8 1.893252 1_554
O37 Si20 1.637122 1_555
O37 Ta9 1.923670 1_554
O38 Si15 1.621343 1_555
O38 Ta8 1.947667 1_554
O39 Si16 1.632443 1_555
O39 Ta9 1.923513 1_554
O40 Si17 1.624160 1_555
O40 Ta8 1.930196 1_554
O41 Si18 1.636099 1_555
O41 Ta9 1.907159 1_554
O42 Si11 1.628462 1_555
O42 Ta10 1.906344 1_555
O43 Si12 1.618376 1_555
O43 Ta11 1.921097 1_555
O44 Si13 1.629575 1_555
O44 Ta10 1.934933 1_555
O45 Si14 1.617391 1_555
O45 Ta11 1.962374 1_555
O46 Si9 1.616635 1_555
O46 Ta10 1.955399 1_555
O47 Si10 1.619346 1_555
O47 Ta11 1.922188 1_555
O48 Si21 1.689754 1_555
O48 Ta12 2.000380 1_556
O49 Si22 1.664963 1_555
O49 Ta13 2.032528 1_556
O50 Si23 1.670963 1_555
O50 Ta12 2.005862 1_556
O51 Si24 1.690691 1_555
O51 Ta13 2.013604 1_556
O52 Si25 1.686795 1_555
O52 Ta12 1.983907 1_556
O53 Si26 1.686989 1_555
O53 Ta13 1.976355 1_556
O54 Si27 1.679779 1_555
O54 Ta14 2.005621 1_555
O55 Si28 1.689235 1_555
O55 Ta15 1.978059 1_555
O56 Si29 1.697723 1_555
O56 Ta14 1.975789 1_555
O57 Si30 1.701737 1_555
O57 Ta15 2.001001 1_555
O58 Si31 1.700380 1_555
O58 Ta14 1.939244 1_555
O59 Si32 1.680207 1_555
O59 Ta15 1.977745 1_555
O60 Si31 1.574460 1_555
O61 Si32 1.588408 1_555
O62 Si27 1.572542 1_555
O63 Si28 1.575163 1_555
O64 Si29 1.590205 1_555
O65 Si30 1.589852 1_555
O66 Si23 1.591310 1_555
O67 Si24 1.588230 1_555
O68 Si25 1.589906 1_555
O69 Si26 1.588800 1_555
O70 Si21 1.581547 1_555
O71 Si22 1.579157 1_555
O72 Si31 1.669931 1_555
O72 Ta0 2.021670 1_455
O73 Si32 1.658003 1_555
O73 Ta1 2.013661 1_555
O74 Si27 1.706100 1_555
O74 Ta1 1.950154 1_555
O75 Si28 1.691837 1_555
O75 Ta0 1.931713 1_555
O76 Si29 1.645302 1_555
O76 Ta0 1.993752 1_445
O77 Si30 1.665218 1_555
O77 Ta1 2.027301 1_545
O78 Si23 1.663350 1_555
O78 Ta2 2.008436 1_445
O79 Si24 1.667113 1_555
O79 Ta3 2.078845 1_545
O80 Si25 1.662394 1_555
O80 Ta2 2.019481 1_455
O81 Si26 1.655780 1_555
O81 Ta3 2.091208 1_555
O82 Si21 1.682753 1_555
O82 Ta3 2.069546 1_555
O83 Si22 1.685628 1_555
O83 Ta2 1.949050 1_555
O84 Si9 1.591277 1_555
O85 Si10 1.600033 1_555
O86 Si11 1.597253 1_555
O87 Si12 1.596970 1_555
O88 Si13 1.597434 1_555
O89 Si14 1.603613 1_555
O90 Si15 1.578935 1_555
O91 Si16 1.579856 1_555
O92 Si17 1.600659 1_555
O93 Si18 1.598423 1_555
O94 Si19 1.581793 1_555
O95 Si20 1.585064 1_555
O96 Si7 1.700750 1_555
O96 Ta4 2.016358 1_555
O97 Si8 1.683289 1_555
O97 Ta5 2.047761 1_555
O98 S2 1.514488 1_555
O98 Ta4 2.351682 1_555
O99 Si4 1.687016 1_555
O99 Ta5 2.035071 1_555
O100 Si6 1.706776 1_555
O100 Ta4 2.013959 1_555
O101 Si5 1.681366 1_555
O101 Ta5 2.056527 1_555
O102 Si0 1.706510 1_555
O102 Ta6 2.055039 1_555
O103 Si1 1.713278 1_555
O103 Ta7 2.029388 1_555
O104 Si3 1.702423 1_555
O104 Ta6 2.042587 1_555
O105 Si2 1.707514 1_555
O105 Ta7 2.029581 1_555
O106 S0 1.530670 1_555
O106 Ta6 2.307064 1_555
O107 S1 1.521610 1_555
O107 Ta7 2.346618 1_555
O108 Si21 1.653999 1_555
O108 Ta8 2.012417 1_555
O109 Si22 1.649338 1_555
O109 Ta9 2.026036 1_555
O110 Si24 1.652987 1_555
O110 Ta8 2.048744 1_555
O111 Si23 1.674072 1_655
O111 Ta9 2.025368 1_555
O112 Si25 1.638277 1_545
O112 Ta8 1.975363 1_555
O113 Si26 1.659946 1_545
O113 Ta9 2.010344 1_555
O114 Si27 1.644592 1_545
O114 Ta10 2.017776 1_555
O115 Si28 1.626469 1_545
O115 Ta11 1.970511 1_555
O116 Si29 1.656450 1_555
O116 Ta10 1.956770 1_555
O117 Si30 1.632337 1_555
O117 Ta11 1.998209 1_555
O118 Si32 1.665005 1_555
O118 Ta10 2.029663 1_555
O119 Si31 1.654388 1_655
O119 Ta11 2.017475 1_555
O120 Si19 1.669055 1_555
O120 Ta12 2.056450 1_555
O121 Si20 1.671623 1_555
O121 Ta13 2.052361 1_555
O122 Si16 1.646082 1_455
O122 Ta12 2.061185 1_555
O123 Si15 1.656277 1_555
O123 Ta13 2.026927 1_555
O124 Si17 1.656697 1_565
O124 Ta12 2.006220 1_555
O125 Si18 1.656013 1_565
O125 Ta13 2.002678 1_555
O126 Si11 1.658804 1_565
O126 Ta14 2.083930 1_555
O127 Si12 1.668816 1_565
O127 Ta15 2.041231 1_555
O128 Si13 1.661945 1_555
O128 Ta14 2.089314 1_555
O129 Si14 1.667374 1_555
O129 Ta15 2.039857 1_555
O130 Si10 1.670026 1_455
O130 Ta14 2.047792 1_555
O131 Si9 1.651442 1_555
O131 Ta15 2.069980 1_555
O132 S0 1.475778 1_565
O133 S1 1.475350 1_565
O134 Si0 1.610758 1_555
O135 Si1 1.614401 1_555
O136 Si2 1.610682 1_455
O137 Si3 1.610889 1_555
O138 S2 1.472349 1_555
O139 Si4 1.600513 1_555
O140 Si5 1.609425 1_455
O141 Si6 1.597614 1_555
O142 Si7 1.608329 1_565
O143 Si8 1.599418 1_565
