# generated using pymatgen
data_K6Mg(SbO4)2
_symmetry_space_group_name_H-M   'P 1'
_cell_length_a   6.38380259
_cell_length_b   6.66149760
_cell_length_c   7.93561431
_cell_angle_alpha   82.38468291
_cell_angle_beta   91.29660891
_cell_angle_gamma   103.62540635
_symmetry_Int_Tables_number   1
_chemical_formula_structural   K6Mg(SbO4)2
_chemical_formula_sum   'K6 Mg1 Sb2 O8'
_cell_volume   325.06439814
_cell_formula_units_Z   1
loop_
 _symmetry_equiv_pos_site_id
 _symmetry_equiv_pos_as_xyz
  1  'x, y, z'
loop_
 _atom_site_type_symbol
 _atom_site_label
 _atom_site_symmetry_multiplicity
 _atom_site_fract_x
 _atom_site_fract_y
 _atom_site_fract_z
 _atom_site_occupancy
  K  K0  1  0.68118330  0.89513920  0.32519106  1
  K  K1  1  0.33408002  0.09194285  0.63948090  1
  K  K2  1  0.28186743  0.50295228  0.36009491  1
  K  K3  1  0.86560609  0.68091538  0.66240144  1
  K  K4  1  0.20301361  0.01772624  0.15041158  1
  K  K5  1  0.78620116  0.05263561  0.87973017  1
  Mg  Mg0  1  0.83040401  0.29412726  0.41233095  1
  Sb  Sb0  1  0.76316823  0.49009025  0.11340286  1
  Sb  Sb1  1  0.34114389  0.53180982  0.88970647  1
  O  O0  1  0.97499591  0.70859986  0.97630156  1
  O  O1  1  0.58669932  0.37147589  0.90680935  1
  O  O2  1  0.54557104  0.27424076  0.29106329  1
  O  O3  1  0.88469028  0.60206383  0.33509872  1
  O  O4  1  0.43451227  0.72525336  0.68409866  1
  O  O5  1  0.94875285  0.12181512  0.57432975  1
  O  O6  1  0.93467373  0.27240086  0.16320838  1
  O  O7  1  0.52010385  0.67681143  0.07383998  1
loop_
_geom_bond_atom_site_label_1
_geom_bond_atom_site_label_2
_geom_bond_distance
_geom_bond_site_symmetry_2
K0 O3 2.579770 1_555
K0 O7 2.668822 1_555
K0 Mg0 2.777458 1_565
K0 O6 2.812238 1_565
K0 O2 2.835235 1_565
K0 O5 2.920576 1_565
K0 O4 3.222024 1_555
K1 O5 2.550211 1_455
K1 O4 2.646049 1_545
K1 O2 3.073889 1_555
K1 O1 3.169526 1_555
K2 O2 2.631848 1_555
K2 O7 2.728318 1_555
K2 O3 2.763196 1_455
K2 O6 2.930506 1_455
K2 O4 3.157421 1_555
K3 O0 2.590184 1_555
K3 O3 2.728193 1_555
K3 O4 2.847520 1_555
K3 O5 2.852142 1_565
K3 O1 2.923770 1_555
K4 O6 2.691786 1_455
K4 O0 2.742109 1_444
K4 O2 2.753608 1_555
K4 O3 3.217552 1_445
K5 O5 2.599082 1_555
K5 O1 2.754484 1_555
K5 O0 2.843635 1_545
K5 O6 2.867884 1_556
K5 O7 2.935775 1_546
K5 O4 3.261831 1_545
Mg0 O5 1.874719 1_555
Mg0 O3 2.011243 1_555
Mg0 O2 2.022627 1_555
Mg0 O6 2.133798 1_555
O0 Sb0 1.962285 1_556
O1 Sb1 2.087405 1_555
O1 Sb0 2.102757 1_556
O2 Sb0 2.143606 1_555
O3 Sb0 2.065606 1_555
O4 Sb1 1.950100 1_555
O6 Sb0 2.008573 1_555
O7 Sb1 2.037636 1_554
O7 Sb0 2.199361 1_555
