# generated using pymatgen
data_Na2Sc3NbSi2(SO6)4
_symmetry_space_group_name_H-M   'P 1'
_cell_length_a   8.88633191
_cell_length_b   8.86868934
_cell_length_c   23.19497379
_cell_angle_alpha   90.42365497
_cell_angle_beta   89.64361688
_cell_angle_gamma   119.96105017
_symmetry_Int_Tables_number   1
_chemical_formula_structural   Na2Sc3NbSi2(SO6)4
_chemical_formula_sum   'Na6 Sc9 Nb3 Si6 S12 O72'
_cell_volume   1583.66416721
_cell_formula_units_Z   3
loop_
 _symmetry_equiv_pos_site_id
 _symmetry_equiv_pos_as_xyz
  1  'x, y, z'
loop_
 _atom_site_type_symbol
 _atom_site_label
 _atom_site_symmetry_multiplicity
 _atom_site_fract_x
 _atom_site_fract_y
 _atom_site_fract_z
 _atom_site_occupancy
  Na  Na0  1  0.00046670  0.98875150  0.49727611  1
  Na  Na1  1  0.99752857  0.97692579  0.99715715  1
  Na  Na2  1  0.64798941  0.32692089  0.83309213  1
  Na  Na3  1  0.68537228  0.33753203  0.33027923  1
  Na  Na4  1  0.31692362  0.65804487  0.15682817  1
  Na  Na5  1  0.32967212  0.65660532  0.66886528  1
  Sc  Sc0  1  0.99535188  0.99958190  0.35205290  1
  Sc  Sc1  1  0.01650271  0.00087977  0.85499866  1
  Sc  Sc2  1  0.01139912  0.01376795  0.65106689  1
  Sc  Sc3  1  0.00005003  0.00201052  0.14400967  1
  Sc  Sc4  1  0.65582502  0.33513041  0.68772069  1
  Sc  Sc5  1  0.68894452  0.34229329  0.18595812  1
  Sc  Sc6  1  0.67865561  0.34315084  0.47800218  1
  Sc  Sc7  1  0.33211780  0.67763400  0.01902858  1
  Sc  Sc8  1  0.32387440  0.66990065  0.51793812  1
  Nb  Nb0  1  0.66628585  0.34612766  0.97799726  1
  Nb  Nb1  1  0.31490047  0.65656229  0.31209964  1
  Nb  Nb2  1  0.34518916  0.66681109  0.81747941  1
  Si  Si0  1  0.99016386  0.27822410  0.25034286  1
  Si  Si1  1  0.29171902  0.29531101  0.75070362  1
  Si  Si2  1  0.96507500  0.63036812  0.08428777  1
  Si  Si3  1  0.62981426  0.67741553  0.92050356  1
  Si  Si4  1  0.33650818  0.96010729  0.91875247  1
  Si  Si5  1  0.03734228  0.67173110  0.41864963  1
  S  S0  1  0.29209354  0.00017781  0.25098000  1
  S  S1  1  0.70451805  0.70812841  0.25125178  1
  S  S2  1  0.00241485  0.70695169  0.74925554  1
  S  S3  1  0.70782760  0.99970201  0.75018070  1
  S  S4  1  0.95720590  0.33119676  0.58327076  1
  S  S5  1  0.37602853  0.04253835  0.58265384  1
  S  S6  1  0.66723615  0.62750687  0.58282577  1
  S  S7  1  0.66739778  0.04587347  0.08316306  1
  S  S8  1  0.37908789  0.33314771  0.08408461  1
  S  S9  1  0.04255612  0.37850171  0.91715898  1
  S  S10  1  0.62011849  0.95412682  0.41706290  1
  S  S11  1  0.33445952  0.37882361  0.41655427  1
  O  O0  1  0.20833956  0.01738675  0.30337964  1
  O  O1  1  0.81153521  0.78617894  0.30306640  1
  O  O2  1  0.97935676  0.17511569  0.30843691  1
  O  O3  1  0.20093711  0.17932126  0.80599979  1
  O  O4  1  0.97125702  0.78237489  0.80099794  1
  O  O5  1  0.80811696  0.02064217  0.80153154  1
  O  O6  1  0.78375155  0.96861073  0.69723863  1
  O  O7  1  0.17685392  0.21094960  0.69203305  1
  O  O8  1  0.02568220  0.81313671  0.69716099  1
  O  O9  1  0.78113383  0.81265351  0.19948592  1
  O  O10  1  0.03118358  0.20106595  0.19331228  1
  O  O11  1  0.18513549  0.96127762  0.19935942  1
  O  O12  1  0.87506427  0.35414032  0.63529128  1
  O  O13  1  0.47985834  0.12732964  0.63479625  1
  O  O14  1  0.64516365  0.52124530  0.63455442  1
  O  O15  1  0.86538456  0.51256444  0.14001043  1
  O  O16  1  0.64276693  0.12554101  0.13594723  1
  O  O17  1  0.48123757  0.34875210  0.13531926  1
  O  O18  1  0.46671796  0.31170189  0.03000974  1
  O  O19  1  0.83540412  0.51836933  0.02682659  1
  O  O20  1  0.68319116  0.15060528  0.03114915  1
  O  O21  1  0.45903038  0.14629371  0.53069315  1
  O  O22  1  0.68841787  0.54117347  0.53065524  1
  O  O23  1  0.85338967  0.31264499  0.53106067  1
  O  O24  1  0.53006436  0.68499533  0.97573595  1
  O  O25  1  0.14470811  0.45580848  0.96862141  1
  O  O26  1  0.30385378  0.84027480  0.97335734  1
  O  O27  1  0.54007393  0.84904049  0.46929968  1
  O  O28  1  0.31476921  0.46385170  0.46855618  1
  O  O29  1  0.15863030  0.69161175  0.47330693  1
  O  O30  1  0.14495671  0.64800413  0.36090786  1
  O  O31  1  0.51514066  0.86684181  0.36492709  1
  O  O32  1  0.35901832  0.48900697  0.36419354  1
  O  O33  1  0.12662045  0.48916517  0.86431530  1
  O  O34  1  0.35959934  0.85908278  0.85992856  1
  O  O35  1  0.50115191  0.63551878  0.86094822  1
  O  O36  1  0.02113010  0.84225352  0.41059998  1
  O  O37  1  0.79526986  0.97564381  0.41196689  1
  O  O38  1  0.17791874  0.20723979  0.41055227  1
  O  O39  1  0.01607639  0.20363766  0.90848315  1
  O  O40  1  0.17525533  0.99179711  0.91084422  1
  O  O41  1  0.81538467  0.83967811  0.90758892  1
  O  O42  1  0.97140171  0.17100634  0.58686623  1
  O  O43  1  0.19859469  0.01936640  0.58795981  1
  O  O44  1  0.82437724  0.80147057  0.58819531  1
  O  O45  1  0.97393923  0.81800531  0.08672889  1
  O  O46  1  0.82821978  0.03508653  0.08661077  1
  O  O47  1  0.20712035  0.17301174  0.08539991  1
  O  O48  1  0.68507505  0.15324563  0.74247418  1
  O  O49  1  0.48874320  0.32566003  0.74273506  1
  O  O50  1  0.85098620  0.52885470  0.74153897  1
  O  O51  1  0.67174894  0.52865384  0.24562232  1
  O  O52  1  0.83043877  0.31617005  0.24784967  1
  O  O53  1  0.46527690  0.15277139  0.24522663  1
  O  O54  1  0.64150984  0.49382697  0.92472503  1
  O  O55  1  0.86854922  0.36651576  0.92117066  1
  O  O56  1  0.51980015  0.14857676  0.92568148  1
  O  O57  1  0.63145704  0.12630120  0.42224375  1
  O  O58  1  0.49105439  0.36154660  0.42050460  1
  O  O59  1  0.85093329  0.49102145  0.42102051  1
  O  O60  1  0.36336128  0.48839974  0.07807002  1
  O  O61  1  0.15037123  0.63990161  0.07936734  1
  O  O62  1  0.51488647  0.86968540  0.07930499  1
  O  O63  1  0.36118622  0.86735824  0.57887101  1
  O  O64  1  0.50973391  0.64397505  0.57752072  1
  O  O65  1  0.13499723  0.48601780  0.57801536  1
  O  O66  1  0.31794798  0.84158245  0.25938237  1
  O  O67  1  0.52977762  0.69566530  0.26071507  1
  O  O68  1  0.17367764  0.48192154  0.26135017  1
  O  O69  1  0.30885304  0.49169102  0.75843013  1
  O  O70  1  0.16136770  0.69156152  0.75511625  1
  O  O71  1  0.52746554  0.84015844  0.75532113  1
loop_
_geom_bond_atom_site_label_1
_geom_bond_atom_site_label_2
_geom_bond_distance
_geom_bond_site_symmetry_2
Na0 O36 2.441052 1_555
Na0 O44 2.658833 1_455
Na0 O37 2.661516 1_455
Na0 O43 2.675446 1_565
Na0 O38 2.693304 1_565
Na0 O42 2.712604 1_465
Na1 O45 2.467725 1_556
Na1 O40 2.505261 1_655
Na1 O41 2.540505 1_555
Na1 O47 2.728026 1_666
Na1 O46 2.748684 1_566
Na1 O39 2.833046 1_665
Na2 O49 2.532967 1_555
Na2 O56 2.575214 1_555
Na2 O54 2.597869 1_555
Na2 O48 2.710989 1_555
Na2 O55 2.736843 1_555
Na2 O50 2.784367 1_555
Na3 O52 2.358214 1_555
Na3 O59 2.538357 1_555
Na3 O51 2.645864 1_555
Na3 O53 2.683532 1_555
Na3 O57 2.727459 1_555
Na3 O58 2.778956 1_555
Na4 O61 2.288118 1_555
Na4 O60 2.518170 1_555
Na4 O62 2.561946 1_555
Na4 O68 2.823020 1_555
Na4 O66 2.869884 1_555
Na4 O67 2.984955 1_555
Na5 O69 2.501810 1_555
Na5 O70 2.598468 1_555
Na5 O71 2.626486 1_555
Na5 O65 2.665739 1_555
Na5 O64 2.682388 1_555
Na5 O63 2.730728 1_555
Nb0 O19 1.891389 1_556
Nb0 O54 1.899082 1_555
Nb0 O56 1.986654 1_555
Nb0 O18 2.032670 1_556
Nb0 O55 2.156403 1_555
Nb0 O20 2.200787 1_556
Nb1 O68 1.846463 1_555
Nb1 O30 1.852990 1_555
Nb1 O66 2.042865 1_555
Nb1 O32 2.106241 1_555
Nb1 O67 2.122091 1_555
Nb1 O31 2.196451 1_555
Nb2 O35 1.849356 1_555
Nb2 O34 1.911070 1_555
Nb2 O69 1.966067 1_555
Nb2 O33 2.092223 1_555
Nb2 O71 2.140629 1_555
Nb2 O70 2.280597 1_555
O0 S0 1.467618 1_555
O0 Sc0 2.135251 1_445
O1 S1 1.473892 1_555
O1 Sc0 2.108226 1_555
O2 Si0 1.609361 1_555
O2 Sc0 1.926982 1_545
O3 Si1 1.591157 1_555
O3 Sc1 1.973590 1_555
O4 S2 1.460640 1_655
O4 Sc1 2.162854 1_665
O5 S3 1.446385 1_545
O5 Sc1 2.313828 1_655
O6 S3 1.486504 1_555
O6 Sc2 2.137719 1_665
O7 Si1 1.641048 1_555
O7 Sc2 1.883460 1_555
O8 S2 1.486235 1_555
O8 Sc2 2.140240 1_565
O9 S1 1.463033 1_555
O9 Sc3 2.235653 1_665
O10 Si0 1.606469 1_455
O10 Sc3 1.996759 1_555
O11 S0 1.461695 1_565
O11 Sc3 2.260632 1_565
O12 S4 1.471019 1_555
O12 Sc4 2.224504 1_555
O13 S5 1.478839 1_555
O13 Sc4 2.111992 1_555
O14 S6 1.481683 1_555
O14 Sc4 2.107593 1_555
O15 Si2 1.621147 1_555
O15 Sc5 1.874205 1_555
O16 S7 1.477983 1_555
O16 Sc5 2.096263 1_555
O17 S8 1.463186 1_555
O17 Sc5 2.218842 1_555
O18 S8 1.532319 1_555
O19 Si2 1.716713 1_555
O20 S7 1.490718 1_555
O21 S5 1.473349 1_555
O21 Sc6 2.224697 1_555
O22 S6 1.487754 1_555
O22 Sc6 2.097793 1_555
O23 S4 1.484606 1_555
O23 Sc6 2.108815 1_555
O24 Si3 1.573408 1_555
O24 Sc7 1.992753 1_556
O25 S9 1.448680 1_555
O25 Sc7 2.174522 1_556
O26 Si4 1.589067 1_555
O26 Sc7 1.911439 1_556
O27 S10 1.478656 1_555
O27 Sc8 2.106836 1_555
O28 S11 1.473043 1_555
O28 Sc8 2.116688 1_555
O29 Si5 1.619842 1_555
O29 Sc8 1.889249 1_555
O30 Si5 1.712733 1_555
O31 S10 1.486863 1_555
O32 S11 1.509564 1_555
O33 S9 1.515827 1_555
O34 Si4 1.693679 1_555
O35 Si3 1.715003 1_555
O36 Si5 1.601508 1_555
O36 Sc0 2.048079 1_455
O37 S10 1.474556 1_555
O37 Sc0 2.175825 1_555
O38 S11 1.468009 1_555
O38 Sc0 2.207035 1_445
O39 S9 1.460266 1_555
O39 Sc1 2.178600 1_555
O40 Si4 1.603825 1_555
O40 Sc1 1.952516 1_565
O41 Si3 1.584270 1_555
O41 Sc1 2.042688 1_665
O42 S4 1.490666 1_555
O42 Sc2 2.195639 1_655
O43 S5 1.489225 1_555
O43 Sc2 2.191013 1_555
O44 S6 1.480956 1_555
O44 Sc2 2.301686 1_665
O45 Si2 1.626764 1_555
O45 Sc3 2.018838 1_665
O46 S7 1.481896 1_555
O46 Sc3 2.160691 1_655
O47 S8 1.478341 1_555
O47 Sc3 2.178544 1_555
O48 S3 1.485325 1_545
O48 Sc4 2.176164 1_555
O49 Si1 1.642561 1_555
O49 Sc4 1.921796 1_555
O50 S2 1.487772 1_655
O50 Sc4 2.129996 1_555
O51 S1 1.473029 1_555
O51 Sc5 2.210434 1_555
O52 Si0 1.615431 1_555
O52 Sc5 2.003459 1_555
O53 S0 1.462031 1_555
O53 Sc5 2.308433 1_555
O54 Si3 1.686089 1_555
O55 S9 1.498376 1_655
O56 Si4 1.659106 1_545
O57 S10 1.483229 1_545
O57 Sc6 2.170591 1_555
O58 S11 1.477518 1_555
O58 Sc6 2.210648 1_555
O59 Si5 1.632179 1_655
O59 Sc6 1.950779 1_555
O60 S8 1.459478 1_555
O60 Sc7 2.296344 1_555
O61 Si2 1.609418 1_455
O61 Sc7 2.029321 1_555
O62 S7 1.473293 1_565
O62 Sc7 2.173378 1_555
O63 S5 1.494082 1_565
O63 Sc8 2.136212 1_555
O64 S6 1.483908 1_555
O64 Sc8 2.258992 1_555
O65 S4 1.493183 1_455
O65 Sc8 2.165408 1_555
O66 S0 1.548059 1_565
O67 S1 1.515347 1_555
O68 Si0 1.744686 1_455
O69 Si1 1.679120 1_555
O70 S2 1.492487 1_555
O71 S3 1.523184 1_555
