# generated using pymatgen
data_Na6Zr4Sc4Si5S7O48
_symmetry_space_group_name_H-M   'P 1'
_cell_length_a   18.04943630
_cell_length_b   9.00869208
_cell_length_c   23.44597045
_cell_angle_alpha   89.99112629
_cell_angle_beta   89.89552179
_cell_angle_gamma   119.97799694
_symmetry_Int_Tables_number   1
_chemical_formula_structural   Na6Zr4Sc4Si5S7O48
_chemical_formula_sum   'Na18 Zr12 Sc12 Si15 S21 O144'
_cell_volume   3302.32207766
_cell_formula_units_Z   3
loop_
 _symmetry_equiv_pos_site_id
 _symmetry_equiv_pos_as_xyz
  1  'x, y, z'
loop_
 _atom_site_type_symbol
 _atom_site_label
 _atom_site_symmetry_multiplicity
 _atom_site_fract_x
 _atom_site_fract_y
 _atom_site_fract_z
 _atom_site_occupancy
  Na  Na0  1  0.00060815  0.63193600  0.25447845  1
  Na  Na1  1  0.49619130  0.62945179  0.25084659  1
  Na  Na2  1  0.99588958  0.36521506  0.75009437  1
  Na  Na3  1  0.50310720  0.36451692  0.75321604  1
  Na  Na4  1  0.66390114  0.30217867  0.91709464  1
  Na  Na5  1  0.16523163  0.02387766  0.42475838  1
  Na  Na6  1  0.00162138  0.99673449  0.50463657  1
  Na  Na7  1  0.50440550  0.99729489  0.50267248  1
  Na  Na8  1  0.00524724  0.00928666  0.99679581  1
  Na  Na9  1  0.50215522  0.00928600  0.99890592  1
  Na  Na10  1  0.33164107  0.32570223  0.83600664  1
  Na  Na11  1  0.83168035  0.33062630  0.82309570  1
  Na  Na12  1  0.33948100  0.34394006  0.32797647  1
  Na  Na13  1  0.82885606  0.33466965  0.33874901  1
  Na  Na14  1  0.18042429  0.66105976  0.16720843  1
  Na  Na15  1  0.67159904  0.65919133  0.16390283  1
  Na  Na16  1  0.17267092  0.68562401  0.66662880  1
  Na  Na17  1  0.67865168  0.68716874  0.67329375  1
  Zr  Zr0  1  0.49847263  0.00958973  0.35055244  1
  Zr  Zr1  1  0.99831076  0.98621741  0.84997185  1
  Zr  Zr2  1  0.00023696  0.98754154  0.64992279  1
  Zr  Zr3  1  0.50641914  0.99914043  0.64435031  1
  Zr  Zr4  1  0.00046489  0.01275005  0.14097910  1
  Zr  Zr5  1  0.49971514  0.01313834  0.14890066  1
  Zr  Zr6  1  0.32768856  0.32233788  0.97681589  1
  Zr  Zr7  1  0.82826489  0.33457649  0.47830106  1
  Zr  Zr8  1  0.16541086  0.66477818  0.01782179  1
  Zr  Zr9  1  0.66519853  0.65410034  0.02230881  1
  Zr  Zr10  1  0.16488396  0.67644670  0.52460356  1
  Zr  Zr11  1  0.66414272  0.66213636  0.51988675  1
  Sc  Sc0  1  0.99689239  0.99042328  0.35551447  1
  Sc  Sc1  1  0.50374296  0.01343105  0.85208495  1
  Sc  Sc2  1  0.32414359  0.33148242  0.67948062  1
  Sc  Sc3  1  0.82304458  0.31441753  0.69255644  1
  Sc  Sc4  1  0.33037211  0.34411385  0.18803826  1
  Sc  Sc5  1  0.82286162  0.31725372  0.17899453  1
  Sc  Sc6  1  0.82976321  0.31762865  0.98583691  1
  Sc  Sc7  1  0.33206737  0.34491630  0.48827358  1
  Sc  Sc8  1  0.17027730  0.66445194  0.31569172  1
  Sc  Sc9  1  0.66566132  0.64572873  0.31511636  1
  Sc  Sc10  1  0.16752630  0.68798650  0.81451679  1
  Sc  Sc11  1  0.66786584  0.66248077  0.81111288  1
  Si  Si0  1  0.35156202  0.70883720  0.25048684  1
  Si  Si1  1  0.49950943  0.30107808  0.24938795  1
  Si  Si2  1  0.64472945  0.29277828  0.75129952  1
  Si  Si3  1  0.00145608  0.69928271  0.74918676  1
  Si  Si4  1  0.85250369  0.99592614  0.75062574  1
  Si  Si5  1  0.18526467  0.04765837  0.58153057  1
  Si  Si6  1  0.69105706  0.04298559  0.58369447  1
  Si  Si7  1  0.33302716  0.62810676  0.58361469  1
  Si  Si8  1  0.82982093  0.03943274  0.08301735  1
  Si  Si9  1  0.19150302  0.34085346  0.08421226  1
  Si  Si10  1  0.68533251  0.32588877  0.08149703  1
  Si  Si11  1  0.52070484  0.37629875  0.91382163  1
  Si  Si12  1  0.16239334  0.95707892  0.91709072  1
  Si  Si13  1  0.66361151  0.36848942  0.41678977  1
  Si  Si14  1  0.02167476  0.66330262  0.41261850  1
  S  S0  1  0.14380342  0.99786324  0.25107507  1
  S  S1  1  0.64795588  0.00208181  0.25105398  1
  S  S2  1  0.85617811  0.71075543  0.25003381  1
  S  S3  1  0.99885829  0.29103093  0.25126175  1
  S  S4  1  0.14812436  0.29416905  0.75117051  1
  S  S5  1  0.49744183  0.70448969  0.75127768  1
  S  S6  1  0.35498699  0.00071055  0.74962533  1
  S  S7  1  0.47815995  0.33300285  0.58423593  1
  S  S8  1  0.97688169  0.33018570  0.58363687  1
  S  S9  1  0.83299024  0.62393148  0.58341574  1
  S  S10  1  0.47767024  0.62470658  0.08374915  1
  S  S11  1  0.97917305  0.62326080  0.08512695  1
  S  S12  1  0.33206083  0.04190289  0.08381718  1
  S  S13  1  0.31243266  0.66879346  0.91521738  1
  S  S14  1  0.81278388  0.66537611  0.91738248  1
  S  S15  1  0.01930372  0.37551625  0.91556722  1
  S  S16  1  0.66708870  0.95783840  0.91621197  1
  S  S17  1  0.31234846  0.95923317  0.41694373  1
  S  S18  1  0.81184202  0.95551424  0.41508430  1
  S  S19  1  0.16704997  0.37297540  0.41575350  1
  S  S20  1  0.51948919  0.66334029  0.41536101  1
  O  O0  1  0.10377773  0.02198233  0.30354250  1
  O  O1  1  0.60618874  0.02579312  0.30250487  1
  O  O2  1  0.41543446  0.79884315  0.30602142  1
  O  O3  1  0.91021988  0.79574272  0.30119344  1
  O  O4  1  0.48870440  0.18077076  0.30527559  1
  O  O5  1  0.98890552  0.18642385  0.30196712  1
  O  O6  1  0.10642503  0.18657409  0.80264133  1
  O  O7  1  0.60026136  0.17867102  0.80953397  1
  O  O8  1  0.48450676  0.78510316  0.80218765  1
  O  O9  1  0.99041244  0.79767483  0.80516958  1
  O  O10  1  0.40769261  0.02293092  0.80122243  1
  O  O11  1  0.91687049  0.03070710  0.80615026  1
  O  O12  1  0.39425679  0.97692618  0.69766663  1
  O  O13  1  0.90316849  0.97654800  0.69437500  1
  O  O14  1  0.09426024  0.21418925  0.69944903  1
  O  O15  1  0.57854913  0.19391026  0.69766492  1
  O  O16  1  0.01909212  0.82657050  0.69414765  1
  O  O17  1  0.50663125  0.80782214  0.69898631  1
  O  O18  1  0.40171941  0.82632121  0.19416027  1
  O  O19  1  0.89868650  0.81446241  0.19852897  1
  O  O20  1  0.00890352  0.20635327  0.19936277  1
  O  O21  1  0.51708863  0.21013592  0.19421446  1
  O  O22  1  0.08728944  0.97052309  0.20124742  1
  O  O23  1  0.59399089  0.97430409  0.19947525  1
  O  O24  1  0.44100181  0.35833219  0.63699832  1
  O  O25  1  0.94194978  0.36041571  0.63585068  1
  O  O26  1  0.24480332  0.13234700  0.63739361  1
  O  O27  1  0.74804482  0.12839551  0.63932772  1
  O  O28  1  0.31985427  0.51147815  0.63986935  1
  O  O29  1  0.82190005  0.52373080  0.63443390  1
  O  O30  1  0.44139710  0.52311926  0.13679083  1
  O  O31  1  0.94167339  0.52410834  0.13836743  1
  O  O32  1  0.32113207  0.12053607  0.13525151  1
  O  O33  1  0.82082619  0.12890961  0.14084882  1
  O  O34  1  0.24634890  0.36252238  0.14089666  1
  O  O35  1  0.74434214  0.35913124  0.13816203  1
  O  O36  1  0.23476159  0.31153955  0.02748892  1
  O  O37  1  0.73017672  0.30936679  0.02296486  1
  O  O38  1  0.42494204  0.53933604  0.03308231  1
  O  O39  1  0.92699264  0.54479904  0.03413944  1
  O  O40  1  0.34458948  0.14561368  0.03162313  1
  O  O41  1  0.85133092  0.16041444  0.02707486  1
  O  O42  1  0.22896279  0.14911619  0.52152978  1
  O  O43  1  0.73538666  0.15858138  0.52611400  1
  O  O44  1  0.35077362  0.54409444  0.52680287  1
  O  O45  1  0.84534133  0.54545318  0.53069178  1
  O  O46  1  0.42683827  0.31259772  0.53277476  1
  O  O47  1  0.92520268  0.31163273  0.53196316  1
  O  O48  1  0.26980228  0.68885817  0.96771761  1
  O  O49  1  0.77314451  0.69137887  0.96948870  1
  O  O50  1  0.07419461  0.46188118  0.96737654  1
  O  O51  1  0.58495702  0.47061355  0.96880578  1
  O  O52  1  0.15390228  0.83989740  0.97361296  1
  O  O53  1  0.65831648  0.85763908  0.96850096  1
  O  O54  1  0.27234752  0.85424545  0.46855588  1
  O  O55  1  0.77141424  0.85064923  0.46709512  1
  O  O56  1  0.15536045  0.45213328  0.46700746  1
  O  O57  1  0.65409563  0.46817718  0.47246505  1
  O  O58  1  0.08697517  0.70409404  0.46667326  1
  O  O59  1  0.57378704  0.68586593  0.46670335  1
  O  O60  1  0.06486658  0.64452175  0.35329302  1
  O  O61  1  0.56179464  0.64789751  0.36291421  1
  O  O62  1  0.25842602  0.87591980  0.36576759  1
  O  O63  1  0.75983719  0.87769070  0.36382025  1
  O  O64  1  0.17884948  0.47782309  0.36399551  1
  O  O65  1  0.67892897  0.48773018  0.36063299  1
  O  O66  1  0.06207280  0.47591082  0.86353985  1
  O  O67  1  0.56306866  0.48599295  0.85607082  1
  O  O68  1  0.17795029  0.86821602  0.86163762  1
  O  O69  1  0.67886814  0.87833730  0.86504278  1
  O  O70  1  0.25913229  0.64046827  0.86450137  1
  O  O71  1  0.75938897  0.64002577  0.86657852  1
  O  O72  1  0.01529721  0.84304815  0.40705853  1
  O  O73  1  0.51116294  0.81896849  0.41196816  1
  O  O74  1  0.39810850  0.97473668  0.41129665  1
  O  O75  1  0.89869830  0.97423533  0.40950562  1
  O  O76  1  0.08930248  0.19752414  0.40868101  1
  O  O77  1  0.57963504  0.17627221  0.41185859  1
  O  O78  1  0.01124026  0.20329234  0.91291408  1
  O  O79  1  0.51340889  0.18463829  0.91154128  1
  O  O80  1  0.07889337  0.98216704  0.91354076  1
  O  O81  1  0.58860506  0.97584054  0.91238641  1
  O  O82  1  0.39801290  0.82205288  0.91085441  1
  O  O83  1  0.89895506  0.82223007  0.91245837  1
  O  O84  1  0.48805245  0.17928405  0.58843460  1
  O  O85  1  0.98719293  0.17635764  0.58736732  1
  O  O86  1  0.08995265  0.02851745  0.58661051  1
  O  O87  1  0.59461884  0.02165354  0.58829934  1
  O  O88  1  0.41506770  0.82146146  0.59154275  1
  O  O89  1  0.90992873  0.80008803  0.58628692  1
  O  O90  1  0.48733127  0.79789148  0.08893120  1
  O  O91  1  0.99026800  0.79891208  0.09179742  1
  O  O92  1  0.40905727  0.02006374  0.08743151  1
  O  O93  1  0.91451043  0.01270897  0.09143161  1
  O  O94  1  0.09486343  0.16702015  0.09119458  1
  O  O95  1  0.59031593  0.15301578  0.08791315  1
  O  O96  1  0.34987414  0.16173479  0.74519716  1
  O  O97  1  0.85247158  0.17618545  0.74601814  1
  O  O98  1  0.23364493  0.30991776  0.74597215  1
  O  O99  1  0.73894475  0.31493849  0.74640749  1
  O  O100  1  0.42277591  0.52633204  0.74511508  1
  O  O101  1  0.91873076  0.51227327  0.74259316  1
  O  O102  1  0.34712765  0.52240635  0.24569307  1
  O  O103  1  0.85121409  0.54010296  0.24583740  1
  O  O104  1  0.41513868  0.31992699  0.24335820  1
  O  O105  1  0.92377676  0.31710713  0.24563264  1
  O  O106  1  0.22968582  0.14799299  0.24472689  1
  O  O107  1  0.73369337  0.15785298  0.24598666  1
  O  O108  1  0.32163598  0.51398794  0.92284800  1
  O  O109  1  0.82130346  0.51041339  0.92335565  1
  O  O110  1  0.42666518  0.35776710  0.92539824  1
  O  O111  1  0.93541918  0.36476570  0.92244828  1
  O  O112  1  0.24938273  0.14686597  0.92211666  1
  O  O113  1  0.74281732  0.13747914  0.92106182  1
  O  O114  1  0.32030517  0.13116149  0.42151536  1
  O  O115  1  0.82335530  0.13036964  0.42203834  1
  O  O116  1  0.24279222  0.34699588  0.41954154  1
  O  O117  1  0.75042407  0.35217353  0.42173408  1
  O  O118  1  0.43475302  0.50566879  0.42125578  1
  O  O119  1  0.92741397  0.49613699  0.42262185  1
  O  O120  1  0.17582763  0.50533223  0.07611312  1
  O  O121  1  0.67413925  0.49725837  0.07788299  1
  O  O122  1  0.06646956  0.64364705  0.07853787  1
  O  O123  1  0.56498400  0.64556709  0.07687275  1
  O  O124  1  0.25496417  0.86684799  0.07680187  1
  O  O125  1  0.74544006  0.85130569  0.07545986  1
  O  O126  1  0.17398258  0.85292998  0.57782809  1
  O  O127  1  0.67626419  0.84785873  0.57317037  1
  O  O128  1  0.24586458  0.63996458  0.57366085  1
  O  O129  1  0.75582387  0.64437214  0.57555374  1
  O  O130  1  0.06498935  0.48369457  0.57526070  1
  O  O131  1  0.56574571  0.48896731  0.57749450  1
  O  O132  1  0.14938255  0.83847210  0.25576606  1
  O  O133  1  0.65466690  0.84581025  0.25771880  1
  O  O134  1  0.25691674  0.68969461  0.25738496  1
  O  O135  1  0.77082897  0.69432781  0.25554518  1
  O  O136  1  0.07721680  0.46495733  0.25454423  1
  O  O137  1  0.58274803  0.49613479  0.25565380  1
  O  O138  1  0.15452529  0.46357348  0.75781607  1
  O  O139  1  0.64728529  0.47771618  0.75447933  1
  O  O140  1  0.08554551  0.67383657  0.75548003  1
  O  O141  1  0.57616564  0.69129364  0.75472400  1
  O  O142  1  0.26852117  0.84688943  0.75563683  1
  O  O143  1  0.75855646  0.83001798  0.75737405  1
loop_
_geom_bond_atom_site_label_1
_geom_bond_atom_site_label_2
_geom_bond_distance
_geom_bond_site_symmetry_2
Na0 O132 2.383474 1_555
Na0 O103 2.401917 1_455
Na0 O105 2.465938 1_455
Na0 O136 2.500681 1_555
Na0 O60 2.569845 1_555
Na0 O3 2.904966 1_455
Na0 O31 2.909469 1_455
Na0 O22 2.920955 1_555
Na1 O102 2.364698 1_555
Na1 O137 2.402417 1_555
Na1 O104 2.422972 1_555
Na1 O133 2.537146 1_555
Na1 O30 2.847892 1_555
Na1 O61 2.854557 1_555
Na1 O2 2.888484 1_555
Na1 O23 2.954467 1_555
Na2 O97 2.281593 1_555
Na2 O101 2.360123 1_555
Na2 O140 2.422658 1_655
Na2 O138 2.546143 1_655
Na2 O25 2.844621 1_555
Na2 O66 2.884120 1_655
Na2 O11 2.922227 1_555
Na2 O14 2.969932 1_655
Na3 O139 2.271831 1_555
Na3 O96 2.444358 1_555
Na3 O100 2.525182 1_555
Na3 O141 2.554824 1_555
Na3 O67 2.647852 1_555
Na3 O15 2.828134 1_555
Na3 O10 2.897934 1_555
Na3 O24 2.938228 1_555
Na4 O79 2.375600 1_555
Na4 O109 2.507520 1_555
Na4 O113 2.520206 1_555
Na4 O81 2.551462 1_545
Na4 O37 2.744104 1_556
Na4 O7 2.766122 1_555
Na4 O51 2.820933 1_555
Na4 O71 2.895836 1_555
Na5 O72 2.397573 1_545
Na5 O114 2.463744 1_555
Na5 O116 2.524857 1_555
Na5 O42 2.541139 1_555
Na5 O76 2.571298 1_555
Na5 O58 2.680991 1_545
Na6 O86 2.423417 1_565
Na6 O89 2.568973 1_455
Na6 O85 2.620878 1_465
Na6 O72 2.748152 1_555
Na6 O76 2.821879 1_565
Na6 O75 2.847097 1_455
Na7 O87 2.526851 1_565
Na7 O77 2.603369 1_565
Na7 O88 2.623942 1_555
Na7 O84 2.701981 1_565
Na7 O73 2.704486 1_555
Na7 O74 2.817387 1_555
Na8 O80 2.439705 1_545
Na8 O78 2.596802 1_555
Na8 O83 2.685972 1_445
Na8 O94 2.692808 1_556
Na8 O93 2.764705 1_456
Na8 O91 2.847920 1_446
Na9 O79 2.531650 1_555
Na9 O95 2.552951 1_556
Na9 O81 2.664388 1_545
Na9 O92 2.700264 1_556
Na9 O82 2.736257 1_545
Na9 O90 2.764228 1_546
Na10 O112 2.544348 1_555
Na10 O110 2.633627 1_555
Na10 O96 2.703253 1_555
Na10 O108 2.713152 1_555
Na10 O98 2.714266 1_555
Na10 O100 2.743867 1_555
Na11 O99 2.414380 1_555
Na11 O97 2.421253 1_555
Na11 O101 2.475445 1_555
Na11 O113 2.841186 1_555
Na11 O111 2.909880 1_555
Na11 O109 2.913214 1_555
Na12 O102 2.470240 1_555
Na12 O104 2.476521 1_555
Na12 O106 2.715214 1_555
Na12 O118 2.715479 1_555
Na12 O116 2.773023 1_555
Na12 O114 2.817230 1_555
Na13 O117 2.455134 1_555
Na13 O119 2.564217 1_555
Na13 O115 2.650698 1_555
Na13 O107 2.738298 1_555
Na13 O103 2.753639 1_555
Na13 O105 2.825604 1_555
Na14 O134 2.469370 1_555
Na14 O120 2.534165 1_555
Na14 O124 2.689946 1_555
Na14 O136 2.735016 1_555
Na14 O132 2.840969 1_555
Na14 O122 2.875844 1_555
Na15 O121 2.503035 1_555
Na15 O125 2.599092 1_555
Na15 O137 2.643771 1_555
Na15 O135 2.715216 1_555
Na15 O123 2.767703 1_555
Na15 O133 2.875800 1_555
Na16 O126 2.563246 1_555
Na16 O140 2.577805 1_555
Na16 O142 2.638390 1_555
Na16 O128 2.683008 1_555
Na16 O138 2.832161 1_555
Na16 O130 2.856386 1_555
Na17 O143 2.403895 1_555
Na17 O139 2.536043 1_555
Na17 O141 2.669105 1_555
Na17 O127 2.769438 1_555
Na17 O129 2.804573 1_555
Na17 O131 2.961040 1_555
O0 S0 1.495363 1_545
O0 Sc0 2.175026 1_445
O1 S1 1.492260 1_555
O1 Zr0 2.186020 1_555
O2 Si0 1.659383 1_555
O2 Zr0 2.025745 1_565
O3 S2 1.494872 1_555
O3 Sc0 2.100333 1_555
O4 Si1 1.648354 1_555
O4 Zr0 1.951412 1_555
O5 S3 1.470839 1_555
O5 Sc0 2.229139 1_545
O6 S4 1.493186 1_555
O6 Zr1 2.183784 1_445
O7 Si2 1.654138 1_555
O7 Sc1 1.909917 1_555
O8 S5 1.474910 1_555
O8 Sc1 2.238014 1_565
O9 Si3 1.650523 1_655
O9 Zr1 1.941089 1_555
O10 S6 1.490807 1_555
O10 Sc1 2.142608 1_555
O11 Si4 1.668692 1_545
O11 Zr1 1.992777 1_545
O12 S6 1.476845 1_565
O12 Zr3 2.299342 1_555
O13 Si4 1.661720 1_555
O13 Zr2 1.996387 1_655
O14 S4 1.496473 1_555
O14 Zr2 2.223174 1_545
O15 Si2 1.656539 1_555
O15 Zr3 2.014937 1_545
O16 Si3 1.647653 1_555
O16 Zr2 1.946249 1_555
O17 S5 1.497265 1_555
O17 Zr3 2.148822 1_555
O18 Si0 1.649697 1_555
O18 Zr5 2.026028 1_565
O19 S2 1.483142 1_555
O19 Zr4 2.257686 1_665
O20 S3 1.494372 1_455
O20 Zr4 2.162160 1_555
O21 Si1 1.644347 1_555
O21 Zr5 1.955062 1_555
O22 S0 1.489748 1_555
O22 Zr4 2.280569 1_565
O23 S1 1.494863 1_565
O23 Zr5 2.241898 1_565
O24 S7 1.477232 1_555
O24 Sc2 2.232006 1_555
O25 S8 1.462618 1_555
O25 Sc3 2.376146 1_555
O26 Si5 1.624348 1_555
O26 Sc2 1.918625 1_555
O27 Si6 1.601789 1_555
O27 Sc3 1.984473 1_555
O28 Si7 1.627526 1_555
O28 Sc2 1.903450 1_555
O29 S9 1.450496 1_555
O29 Sc3 2.334813 1_555
O30 S10 1.486829 1_555
O30 Sc4 2.195719 1_555
O31 S11 1.485453 1_555
O31 Sc5 2.230959 1_555
O32 S12 1.460827 1_555
O32 Sc4 2.298297 1_555
O33 Si8 1.626323 1_555
O33 Sc5 1.902219 1_555
O34 Si9 1.611254 1_555
O34 Sc4 1.951033 1_555
O35 Si10 1.635763 1_555
O35 Sc5 1.899093 1_555
O36 Si9 1.628028 1_555
O36 Zr6 2.015912 1_554
O37 Si10 1.636165 1_555
O37 Sc6 1.963371 1_554
O38 S10 1.476948 1_555
O38 Zr6 2.285430 1_554
O39 S11 1.467942 1_555
O39 Sc6 2.229219 1_554
O40 S12 1.486301 1_555
O40 Zr6 2.182905 1_554
O41 Si8 1.622895 1_555
O41 Sc6 1.908974 1_554
O42 Si5 1.646708 1_555
O42 Sc7 1.973942 1_555
O43 Si6 1.646263 1_555
O43 Zr7 1.979198 1_555
O44 Si7 1.640328 1_555
O44 Sc7 1.883049 1_555
O45 S9 1.494791 1_555
O45 Zr7 2.151686 1_555
O46 S7 1.477034 1_555
O46 Sc7 2.145583 1_555
O47 S8 1.488027 1_555
O47 Zr7 2.248643 1_555
O48 S13 1.508476 1_555
O48 Zr8 2.135577 1_556
O49 S14 1.491194 1_555
O49 Zr9 2.186269 1_556
O50 S15 1.515528 1_555
O50 Zr8 2.109719 1_556
O51 Si11 1.658272 1_555
O51 Zr9 2.004588 1_556
O52 Si12 1.652646 1_555
O52 Zr8 1.983454 1_556
O53 S16 1.482899 1_555
O53 Zr9 2.279612 1_556
O54 S17 1.481284 1_555
O54 Zr10 2.222603 1_555
O55 S18 1.489788 1_555
O55 Zr11 2.206713 1_555
O56 S19 1.465203 1_555
O56 Zr10 2.364571 1_555
O57 Si13 1.641238 1_555
O57 Zr11 2.001723 1_555
O58 Si14 1.644140 1_555
O58 Zr10 2.059398 1_555
O59 S20 1.502121 1_555
O59 Zr11 2.148492 1_555
O60 Si14 1.642874 1_555
O60 Sc8 2.020350 1_555
O61 S20 1.489057 1_555
O61 Sc9 2.190857 1_555
O62 S17 1.491580 1_555
O62 Sc8 2.125461 1_555
O63 S18 1.471048 1_555
O63 Sc9 2.240133 1_555
O64 S19 1.485870 1_555
O64 Sc8 2.096015 1_555
O65 Si13 1.632594 1_555
O65 Sc9 1.887663 1_555
O66 S15 1.483376 1_555
O66 Sc10 2.225166 1_555
O67 Si11 1.623358 1_555
O67 Sc11 2.050282 1_555
O68 Si12 1.622877 1_555
O68 Sc10 1.894251 1_555
O69 S16 1.465934 1_555
O69 Sc11 2.243974 1_555
O70 S13 1.470886 1_555
O70 Sc10 2.237136 1_555
O71 S14 1.477877 1_555
O71 Sc11 2.191504 1_555
O72 Si14 1.684799 1_555
O72 Sc0 1.942992 1_455
O73 S20 1.484959 1_555
O73 Zr0 2.338457 1_565
O74 S17 1.488722 1_555
O74 Zr0 2.197860 1_565
O75 S18 1.496088 1_555
O75 Sc0 2.120941 1_555
O76 S19 1.509757 1_555
O76 Sc0 2.171463 1_445
O77 Si13 1.639237 1_555
O77 Zr0 2.068080 1_555
O78 S15 1.485478 1_555
O78 Zr1 2.366977 1_445
O79 Si11 1.665597 1_555
O79 Sc1 2.021189 1_555
O80 Si12 1.634104 1_555
O80 Zr1 2.097412 1_455
O81 S16 1.507018 1_555
O81 Sc1 2.232898 1_565
O82 S13 1.473378 1_555
O82 Sc1 2.283552 1_565
O83 S14 1.494023 1_555
O83 Zr1 2.210666 1_555
O84 S7 1.485388 1_555
O84 Zr3 2.236256 1_545
O85 S8 1.490122 1_555
O85 Zr2 2.345338 1_645
O86 Si5 1.645068 1_555
O86 Zr2 2.087021 1_545
O87 Si6 1.656349 1_555
O87 Zr3 1.993020 1_545
O88 Si7 1.638560 1_555
O88 Zr3 2.045560 1_555
O89 S9 1.499817 1_555
O89 Zr2 2.234642 1_655
O90 S10 1.485785 1_555
O90 Zr5 2.314270 1_565
O91 S11 1.500677 1_555
O91 Zr4 2.172949 1_665
O92 S12 1.500312 1_555
O92 Zr5 2.206606 1_555
O93 Si8 1.674017 1_555
O93 Zr4 1.939705 1_655
O94 Si9 1.670586 1_555
O94 Zr4 1.955217 1_555
O95 Si10 1.648972 1_555
O95 Zr5 2.058724 1_555
O96 S6 1.502450 1_555
O96 Sc2 2.374823 1_555
O97 Si4 1.627762 1_545
O97 Sc3 2.016669 1_555
O98 S4 1.482611 1_555
O98 Sc2 2.193115 1_555
O99 Si2 1.613953 1_555
O99 Sc3 1.974455 1_555
O100 S5 1.500758 1_555
O100 Sc2 2.346612 1_555
O101 Si3 1.605836 1_655
O101 Sc3 2.113726 1_555
O102 Si0 1.644843 1_555
O102 Sc4 2.003823 1_555
O103 S2 1.497864 1_555
O103 Sc5 2.392818 1_555
O104 Si1 1.620823 1_555
O104 Sc4 2.100221 1_555
O105 S3 1.492613 1_555
O105 Sc5 2.402412 1_555
O106 S0 1.469088 1_545
O106 Sc4 2.229924 1_555
O107 S1 1.485683 1_555
O107 Sc5 2.190873 1_555
O108 S13 1.495339 1_555
O108 Zr6 2.186817 1_555
O109 S14 1.485480 1_555
O109 Sc6 2.334662 1_555
O110 Si11 1.642471 1_555
O110 Zr6 2.041785 1_555
O111 S15 1.476611 1_655
O111 Sc6 2.281688 1_555
O112 Si12 1.649355 1_545
O112 Zr6 1.978817 1_555
O113 S16 1.513370 1_545
O113 Sc6 2.206216 1_555
O114 S17 1.486226 1_545
O114 Sc7 2.407632 1_555
O115 S18 1.491361 1_545
O115 Zr7 2.229461 1_555
O116 S19 1.500607 1_555
O116 Sc7 2.287658 1_555
O117 Si13 1.649573 1_555
O117 Zr7 1.996848 1_555
O118 S20 1.484601 1_555
O118 Sc7 2.303850 1_555
O119 Si14 1.629563 1_655
O119 Zr7 2.100745 1_555
O120 Si9 1.652489 1_555
O120 Zr8 2.058317 1_555
O121 Si10 1.656224 1_555
O121 Zr9 1.987030 1_555
O122 S11 1.500066 1_455
O122 Zr8 2.214237 1_555
O123 S10 1.499356 1_555
O123 Zr9 2.183327 1_555
O124 S12 1.502772 1_565
O124 Zr8 2.215222 1_555
O125 Si8 1.626310 1_565
O125 Zr9 2.059783 1_555
O126 Si5 1.664185 1_565
O126 Zr10 1.962751 1_555
O127 Si6 1.659370 1_565
O127 Zr11 2.010904 1_555
O128 Si7 1.646276 1_555
O128 Zr10 2.013325 1_555
O129 S9 1.505004 1_555
O129 Zr11 2.177123 1_555
O130 S8 1.510316 1_455
O130 Zr10 2.130633 1_555
O131 S7 1.509166 1_555
O131 Zr11 2.152678 1_555
O132 S0 1.492834 1_555
O132 Sc8 2.272897 1_555
O133 S1 1.480342 1_565
O133 Sc9 2.336018 1_555
O134 Si0 1.636689 1_555
O134 Sc8 2.000685 1_555
O135 S2 1.477562 1_555
O135 Sc9 2.214795 1_555
O136 S3 1.499044 1_455
O136 Sc8 2.258206 1_555
O137 Si1 1.652025 1_555
O137 Sc9 1.998044 1_555
O138 S4 1.480062 1_555
O138 Sc10 2.331823 1_555
O139 Si2 1.645190 1_555
O139 Sc11 2.014008 1_555
O140 Si3 1.651193 1_555
O140 Sc10 1.985132 1_555
O141 S5 1.486236 1_555
O141 Sc11 2.234275 1_555
O142 S6 1.487848 1_565
O142 Sc10 2.158797 1_555
O143 Si4 1.612610 1_555
O143 Sc11 2.016903 1_555
