# generated using pymatgen
data_MgZn2CuWO6
_symmetry_space_group_name_H-M   'P 1'
_cell_length_a   5.99781351
_cell_length_b   6.08848555
_cell_length_c   8.01085663
_cell_angle_alpha   81.15723172
_cell_angle_beta   138.73822461
_cell_angle_gamma   126.64670765
_symmetry_Int_Tables_number   1
_chemical_formula_structural   MgZn2CuWO6
_chemical_formula_sum   'Mg1 Zn2 Cu1 W1 O6'
_cell_volume   128.51322287
_cell_formula_units_Z   1
loop_
 _symmetry_equiv_pos_site_id
 _symmetry_equiv_pos_as_xyz
  1  'x, y, z'
loop_
 _atom_site_type_symbol
 _atom_site_label
 _atom_site_symmetry_multiplicity
 _atom_site_fract_x
 _atom_site_fract_y
 _atom_site_fract_z
 _atom_site_occupancy
  Mg  Mg0  1  0.01891077  0.28870018  0.64615571  1
  Zn  Zn0  1  0.00807669  0.48727676  0.23964054  1
  Zn  Zn1  1  0.02469895  0.65513216  0.83063620  1
  Cu  Cu0  1  0.01576733  0.81739316  0.43565222  1
  W  W0  1  0.99207813  0.00912200  0.00407775  1
  O  O0  1  0.63166918  0.78602645  0.04462436  1
  O  O1  1  0.28959571  0.12862282  0.91298617  1
  O  O2  1  0.65312980  0.43028503  0.42503607  1
  O  O3  1  0.76905970  0.19488219  0.80607292  1
  O  O4  1  0.32089239  0.85410746  0.22380528  1
  O  O5  1  0.42488535  0.54147079  0.63376177  1
loop_
_geom_bond_atom_site_label_1
_geom_bond_atom_site_label_2
_geom_bond_distance
_geom_bond_site_symmetry_2
Mg0 O5 2.037252 1_555
Mg0 O1 2.045940 1_555
Mg0 O4 2.051560 1_445
Mg0 O2 2.153986 1_455
Mg0 O0 2.216928 1_556
Mg0 O3 2.419190 1_455
Cu0 O2 1.989198 1_455
Cu0 O0 1.991375 1_455
Cu0 O3 2.011351 1_565
O0 W0 2.009511 1_565
O0 Zn1 2.097918 1_554
O1 Zn0 1.938121 1_656
O1 W0 2.119124 1_456
O1 Zn1 2.193508 1_545
O2 W0 2.021876 1_455
O2 Zn1 2.058433 1_655
O3 W0 1.910234 1_556
O3 Zn1 2.197493 1_655
O4 Zn0 1.947538 1_555
O4 W0 2.090646 1_465
O4 Zn1 2.176141 1_554
O5 Zn0 1.948351 1_555
O5 W0 2.083754 1_566
O5 Zn1 2.177661 1_655
