# generated using pymatgen
data_CaLaMn2O6
_symmetry_space_group_name_H-M   'P 1'
_cell_length_a   5.52975000
_cell_length_b   7.67389500
_cell_length_c   11.00373500
_cell_angle_alpha   90.00000000
_cell_angle_beta   90.00000000
_cell_angle_gamma   90.00000000
_symmetry_Int_Tables_number   1
_chemical_formula_structural   CaLaMn2O6
_chemical_formula_sum   'Ca4 La4 Mn8 O24'
_cell_volume   466.94042332
_cell_formula_units_Z   4
loop_
 _symmetry_equiv_pos_site_id
 _symmetry_equiv_pos_as_xyz
  1  'x, y, z'
loop_
 _atom_site_type_symbol
 _atom_site_label
 _atom_site_symmetry_multiplicity
 _atom_site_fract_x
 _atom_site_fract_y
 _atom_site_fract_z
 _atom_site_occupancy
  Ca  Ca0  1  0.25985200  0.00000000  0.11778700  1
  Ca  Ca1  1  0.24014800  0.50000000  0.61778700  1
  Ca  Ca2  1  0.75985200  0.50000000  0.38221300  1
  Ca  Ca3  1  0.74014800  0.00000000  0.88221300  1
  La  La0  1  0.24117700  0.50000000  0.12816500  1
  La  La1  1  0.25882300  0.00000000  0.62816500  1
  La  La2  1  0.75882300  0.50000000  0.87183500  1
  La  La3  1  0.74117700  0.00000000  0.37183500  1
  Mn  Mn0  1  0.75521600  0.74707400  0.62468600  1
  Mn  Mn1  1  0.74478400  0.75292600  0.12468600  1
  Mn  Mn2  1  0.75521600  0.25292600  0.62468600  1
  Mn  Mn3  1  0.74478400  0.24707400  0.12468600  1
  Mn  Mn4  1  0.24478400  0.74707400  0.37531400  1
  Mn  Mn5  1  0.25521600  0.24707400  0.87531400  1
  Mn  Mn6  1  0.25521600  0.75292600  0.87531400  1
  Mn  Mn7  1  0.24478400  0.25292600  0.37531400  1
  O  O0  1  0.67500400  0.50000000  0.11439300  1
  O  O1  1  0.82499600  0.00000000  0.61439300  1
  O  O2  1  0.83249900  0.00000000  0.13273100  1
  O  O3  1  0.66750100  0.50000000  0.63273100  1
  O  O4  1  0.33249900  0.50000000  0.36726900  1
  O  O5  1  0.16750100  0.00000000  0.86726900  1
  O  O6  1  0.17500400  0.00000000  0.38560700  1
  O  O7  1  0.32499600  0.50000000  0.88560700  1
  O  O8  1  0.00000000  0.71183800  0.00000000  1
  O  O9  1  0.50000000  0.78816200  0.50000000  1
  O  O10  1  0.50000000  0.21183800  0.50000000  1
  O  O11  1  0.00000000  0.28816200  0.00000000  1
  O  O12  1  0.51715800  0.79321100  0.75436200  1
  O  O13  1  0.98284200  0.70678900  0.25436200  1
  O  O14  1  0.98284200  0.29321100  0.25436200  1
  O  O15  1  0.51715800  0.20678900  0.75436200  1
  O  O16  1  0.50000000  0.20445400  0.00000000  1
  O  O17  1  0.00000000  0.29554600  0.50000000  1
  O  O18  1  0.00000000  0.70445400  0.50000000  1
  O  O19  1  0.50000000  0.79554600  0.00000000  1
  O  O20  1  0.48284200  0.20678900  0.24563800  1
  O  O21  1  0.01715800  0.29321100  0.74563800  1
  O  O22  1  0.01715800  0.70678900  0.74563800  1
  O  O23  1  0.48284200  0.79321100  0.24563800  1
loop_
_geom_bond_atom_site_label_1
_geom_bond_atom_site_label_2
_geom_bond_distance
_geom_bond_site_symmetry_2
Ca0 O2 2.368870 1_455
Ca0 O19 2.430015 1_545
Ca0 O16 2.430015 1_555
Ca0 O20 2.453132 1_555
Ca0 O23 2.453132 1_545
Ca0 O5 2.803537 1_554
Ca0 O11 2.938461 1_555
Ca0 O8 2.938461 1_545
Ca1 O3 2.368870 1_555
Ca1 O17 2.430015 1_555
Ca1 O18 2.430015 1_555
Ca1 O21 2.453132 1_555
Ca1 O22 2.453132 1_555
Ca1 O4 2.803537 1_555
Ca1 O9 2.938461 1_555
Ca1 O10 2.938461 1_555
Ca2 O4 2.368870 1_555
Ca2 O18 2.430015 1_655
Ca2 O17 2.430015 1_655
Ca2 O14 2.453132 1_555
Ca2 O13 2.453132 1_555
Ca2 O3 2.803537 1_555
Ca2 O9 2.938461 1_555
Ca2 O10 2.938461 1_555
Ca3 O5 2.368870 1_655
Ca3 O19 2.430015 1_546
Ca3 O16 2.430015 1_556
Ca3 O15 2.453132 1_555
Ca3 O12 2.453132 1_545
Ca3 O2 2.803537 1_556
Ca3 O11 2.938461 1_656
Ca3 O8 2.938461 1_646
La0 O0 2.403737 1_555
La0 O11 2.531836 1_555
La0 O8 2.531836 1_555
La0 O13 2.546996 1_455
La0 O14 2.546996 1_455
La0 O4 2.679061 1_555
La0 O7 2.708990 1_554
La0 O20 2.918829 1_555
La0 O23 2.918829 1_555
La0 O19 3.030035 1_555
La0 O16 3.030035 1_555
La0 O0 3.134461 1_455
La1 O1 2.403737 1_455
La1 O10 2.531836 1_555
La1 O9 2.531836 1_545
La1 O12 2.546996 1_545
La1 O15 2.546996 1_555
La1 O5 2.679061 1_555
La1 O6 2.708990 1_555
La1 O22 2.918829 1_545
La1 O21 2.918829 1_555
La1 O18 3.030035 1_545
La1 O17 3.030035 1_555
La1 O1 3.134461 1_555
La2 O7 2.403737 1_555
La2 O8 2.531836 1_656
La2 O11 2.531836 1_656
La2 O22 2.546996 1_655
La2 O21 2.546996 1_655
La2 O3 2.679061 1_555
La2 O0 2.708990 1_556
La2 O15 2.918829 1_555
La2 O12 2.918829 1_555
La2 O19 3.030035 1_556
La2 O16 3.030035 1_556
La2 O7 3.134461 1_655
La3 O6 2.403737 1_655
La3 O9 2.531836 1_545
La3 O10 2.531836 1_555
La3 O20 2.546996 1_555
La3 O23 2.546996 1_545
La3 O2 2.679061 1_555
La3 O1 2.708990 1_555
La3 O14 2.918829 1_555
La3 O13 2.918829 1_545
La3 O18 3.030035 1_645
La3 O17 3.030035 1_655
La3 O6 3.134461 1_555
Mn0 O18 1.954892 1_655
Mn0 O3 1.959080 1_555
Mn0 O12 1.973415 1_555
Mn0 O1 1.982150 1_565
Mn0 O22 1.991232 1_655
Mn0 O9 1.993376 1_555
Mn1 O19 1.954892 1_555
Mn1 O2 1.959080 1_565
Mn1 O13 1.973415 1_555
Mn1 O0 1.982150 1_555
Mn1 O23 1.991232 1_555
Mn1 O8 1.993376 1_655
Mn2 O17 1.954892 1_655
Mn2 O3 1.959080 1_555
Mn2 O15 1.973415 1_555
Mn2 O1 1.982150 1_555
Mn2 O21 1.991232 1_655
Mn2 O10 1.993376 1_555
Mn3 O16 1.954892 1_555
Mn3 O2 1.959080 1_555
Mn3 O14 1.973415 1_555
Mn3 O0 1.982150 1_555
Mn3 O20 1.991232 1_555
Mn3 O11 1.993376 1_655
Mn4 O18 1.954892 1_555
Mn4 O4 1.959080 1_555
Mn4 O23 1.973415 1_555
Mn4 O6 1.982150 1_565
Mn4 O13 1.991232 1_455
Mn4 O9 1.993376 1_555
Mn5 O16 1.954892 1_556
Mn5 O5 1.959080 1_555
Mn5 O21 1.973415 1_555
Mn5 O7 1.982150 1_555
Mn5 O15 1.991232 1_555
Mn5 O11 1.993376 1_556
Mn6 O19 1.954892 1_556
Mn6 O5 1.959080 1_565
Mn6 O22 1.973415 1_555
Mn6 O7 1.982150 1_555
Mn6 O12 1.991232 1_555
Mn6 O8 1.993376 1_556
Mn7 O17 1.954892 1_555
Mn7 O4 1.959080 1_555
Mn7 O20 1.973415 1_555
Mn7 O6 1.982150 1_555
Mn7 O14 1.991232 1_455
Mn7 O10 1.993376 1_555
