# generated using pymatgen
data_Sr4MgRe2NiO12
_symmetry_space_group_name_H-M   'P 1'
_cell_length_a   10.04601916
_cell_length_b   10.04601935
_cell_length_c   10.04601976
_cell_angle_alpha   32.76141490
_cell_angle_beta   32.76141537
_cell_angle_gamma   32.76141286
_symmetry_Int_Tables_number   1
_chemical_formula_structural   Sr4MgRe2NiO12
_chemical_formula_sum   'Sr4 Mg1 Re2 Ni1 O12'
_cell_volume   264.11023317
_cell_formula_units_Z   1
loop_
 _symmetry_equiv_pos_site_id
 _symmetry_equiv_pos_as_xyz
  1  'x, y, z'
loop_
 _atom_site_type_symbol
 _atom_site_label
 _atom_site_symmetry_multiplicity
 _atom_site_fract_x
 _atom_site_fract_y
 _atom_site_fract_z
 _atom_site_occupancy
  Sr  Sr0  1  0.86773066  0.86773066  0.86773066  1
  Sr  Sr1  1  0.28218828  0.28218828  0.28218828  1
  Sr  Sr2  1  0.13226934  0.13226934  0.13226934  1
  Sr  Sr3  1  0.71781172  0.71781172  0.71781172  1
  Mg  Mg0  1  0.50000000  0.50000000  0.50000000  1
  Re  Re0  1  0.59113427  0.59113427  0.59113427  1
  Re  Re1  1  0.40886573  0.40886573  0.40886573  1
  Ni  Ni0  1  -0.00000000  0.00000000  -0.00000000  1
  O  O0  1  0.38794030  0.38794030  0.86398906  1
  O  O1  1  0.38794030  0.86398906  0.38794030  1
  O  O2  1  0.86398906  0.38794030  0.38794030  1
  O  O3  1  0.13601094  0.61205970  0.61205970  1
  O  O4  1  0.61205970  0.61205970  0.13601094  1
  O  O5  1  0.61205970  0.13601094  0.61205970  1
  O  O6  1  0.21092951  0.21092951  0.70043326  1
  O  O7  1  0.78907049  0.29956674  0.78907049  1
  O  O8  1  0.78907049  0.78907049  0.29956674  1
  O  O9  1  0.29956674  0.78907049  0.78907049  1
  O  O10  1  0.70043326  0.21092951  0.21092951  1
  O  O11  1  0.21092951  0.70043326  0.21092951  1
loop_
_geom_bond_atom_site_label_1
_geom_bond_atom_site_label_2
_geom_bond_distance
_geom_bond_site_symmetry_2
Mg0 O2 2.047054 1_555
Mg0 O3 2.047054 1_555
Mg0 O1 2.047054 1_555
Mg0 O5 2.047054 1_555
Mg0 O0 2.047054 1_555
Mg0 O4 2.047054 1_555
Ni0 O7 2.034305 1_454
Ni0 O11 2.034305 1_545
Ni0 O8 2.034305 1_445
Ni0 O6 2.034305 1_554
Ni0 O9 2.034305 1_544
Ni0 O10 2.034305 1_455
O0 Re0 2.008514 1_555
O0 Sr1 2.606251 1_556
O0 Sr0 2.855576 1_455
O0 Sr0 2.855577 1_545
O0 Sr2 2.875446 1_556
O1 Re0 2.008514 1_555
O1 Sr1 2.606251 1_565
O1 Sr0 2.855577 1_455
O1 Sr0 2.855577 1_554
O1 Sr2 2.875446 1_565
O2 Re0 2.008515 1_555
O2 Sr1 2.606251 1_655
O2 Sr0 2.855577 1_545
O2 Sr0 2.855577 1_554
O2 Sr2 2.875446 1_655
O3 Re1 2.008515 1_555
O3 Sr3 2.606251 1_455
O3 Sr2 2.855577 1_565
O3 Sr2 2.855577 1_556
O3 Sr0 2.875446 1_455
O4 Re1 2.008514 1_555
O4 Sr3 2.606251 1_554
O4 Sr2 2.855576 1_655
O4 Sr2 2.855577 1_565
O4 Sr0 2.875446 1_554
O5 Re1 2.008514 1_555
O5 Sr3 2.606251 1_545
O5 Sr2 2.855577 1_655
O5 Sr2 2.855577 1_556
O5 Sr0 2.875446 1_545
O6 Re1 1.883082 1_555
O6 Sr3 2.848770 1_545
O6 Sr3 2.848770 1_455
O6 Sr1 3.069770 1_555
O6 Sr2 3.096450 1_556
O7 Re0 1.883082 1_555
O7 Sr1 2.848770 1_556
O7 Sr1 2.848770 1_655
O7 Sr3 3.069770 1_555
O7 Sr0 3.096450 1_545
O8 Re0 1.883082 1_555
O8 Sr1 2.848770 1_565
O8 Sr1 2.848770 1_655
O8 Sr3 3.069770 1_555
O8 Sr0 3.096450 1_554
O9 Re0 1.883082 1_555
O9 Sr1 2.848770 1_556
O9 Sr1 2.848770 1_565
O9 Sr3 3.069770 1_555
O9 Sr0 3.096450 1_455
O10 Re1 1.883082 1_555
O10 Sr3 2.848770 1_554
O10 Sr3 2.848770 1_545
O10 Sr1 3.069770 1_555
O10 Sr2 3.096450 1_655
O11 Re1 1.883082 1_555
O11 Sr3 2.848770 1_554
O11 Sr3 2.848770 1_455
O11 Sr1 3.069770 1_555
O11 Sr2 3.096450 1_565
