# generated using pymatgen
data_Ba2CoCl6
_symmetry_space_group_name_H-M   'P 1'
_cell_length_a   8.18976800
_cell_length_b   9.23340100
_cell_length_c   15.86150469
_cell_angle_alpha   54.53913242
_cell_angle_beta   90.00000000
_cell_angle_gamma   90.00000000
_symmetry_Int_Tables_number   1
_chemical_formula_structural   Ba2CoCl6
_chemical_formula_sum   'Ba8 Co4 Cl24'
_cell_volume   976.95629763
_cell_formula_units_Z   4
loop_
 _symmetry_equiv_pos_site_id
 _symmetry_equiv_pos_as_xyz
  1  'x, y, z'
loop_
 _atom_site_type_symbol
 _atom_site_label
 _atom_site_symmetry_multiplicity
 _atom_site_fract_x
 _atom_site_fract_y
 _atom_site_fract_z
 _atom_site_occupancy
  Ba  Ba0  1  0.39049500  0.06640500  0.79498500  1
  Ba  Ba1  1  0.89049500  0.93359500  0.70501500  1
  Ba  Ba2  1  0.60950500  0.93359500  0.20501500  1
  Ba  Ba3  1  0.10950500  0.06640500  0.29498500  1
  Ba  Ba4  1  0.27988700  0.47318400  0.90448600  1
  Ba  Ba5  1  0.77988700  0.52681600  0.59551400  1
  Ba  Ba6  1  0.72011300  0.52681600  0.09551400  1
  Ba  Ba7  1  0.22011300  0.47318400  0.40448600  1
  Co  Co0  1  0.85708900  0.20049500  0.93225200  1
  Co  Co1  1  0.35708900  0.79950500  0.56774800  1
  Co  Co2  1  0.14291100  0.79950500  0.06774800  1
  Co  Co3  1  0.64291100  0.20049500  0.43225200  1
  Cl  Cl0  1  0.57920600  0.21304700  0.96128000  1
  Cl  Cl1  1  0.07920600  0.78695300  0.53872000  1
  Cl  Cl2  1  0.42079400  0.78695300  0.03872000  1
  Cl  Cl3  1  0.92079400  0.21304700  0.46128000  1
  Cl  Cl4  1  0.41951700  0.49584600  0.70305200  1
  Cl  Cl5  1  0.91951700  0.50415400  0.79694800  1
  Cl  Cl6  1  0.58048300  0.50415400  0.29694800  1
  Cl  Cl7  1  0.08048300  0.49584600  0.20305200  1
  Cl  Cl8  1  0.92835900  0.25019000  0.06992600  1
  Cl  Cl9  1  0.42835900  0.74981000  0.43007400  1
  Cl  Cl10  1  0.07164100  0.74981000  0.93007400  1
  Cl  Cl11  1  0.57164100  0.25019000  0.56992600  1
  Cl  Cl12  1  0.35432800  0.12769700  0.42729200  1
  Cl  Cl13  1  0.85432800  0.87230300  0.07270800  1
  Cl  Cl14  1  0.64567200  0.87230300  0.57270800  1
  Cl  Cl15  1  0.14567200  0.12769700  0.92729200  1
  Cl  Cl16  1  0.10098200  0.28611300  0.63358200  1
  Cl  Cl17  1  0.60098200  0.71388700  0.86641800  1
  Cl  Cl18  1  0.89901800  0.71388700  0.36641800  1
  Cl  Cl19  1  0.39901800  0.28611300  0.13358200  1
  Cl  Cl20  1  0.23331100  0.85907800  0.19720600  1
  Cl  Cl21  1  0.73331100  0.14092200  0.30279400  1
  Cl  Cl22  1  0.76668900  0.14092200  0.80279400  1
  Cl  Cl23  1  0.26668900  0.85907800  0.69720600  1
loop_
_geom_bond_atom_site_label_1
_geom_bond_atom_site_label_2
_geom_bond_distance
_geom_bond_site_symmetry_2
Ba0 Cl22 3.174875 1_555
Ba0 Cl2 3.176642 1_546
Ba0 Cl15 3.181602 1_555
Ba0 Cl16 3.203956 1_555
Ba0 Cl23 3.246999 1_545
Ba0 Cl17 3.251293 1_545
Ba0 Cl11 3.285587 1_555
Ba0 Cl4 3.346160 1_555
Ba0 Cl10 3.562021 1_545
Ba1 Cl23 3.174875 1_655
Ba1 Cl3 3.176642 1_565
Ba1 Cl14 3.181602 1_555
Ba1 Cl17 3.203956 1_555
Ba1 Cl22 3.246999 1_565
Ba1 Cl16 3.251293 1_665
Ba1 Cl10 3.285587 1_655
Ba1 Cl5 3.346160 1_555
Ba1 Cl11 3.562021 1_565
Ba2 Cl20 3.174875 1_555
Ba2 Cl0 3.176642 1_564
Ba2 Cl13 3.181602 1_555
Ba2 Cl18 3.203956 1_555
Ba2 Cl21 3.246999 1_565
Ba2 Cl19 3.251293 1_565
Ba2 Cl9 3.285587 1_555
Ba2 Cl6 3.346160 1_555
Ba2 Cl8 3.562021 1_565
Ba3 Cl21 3.174875 1_455
Ba3 Cl1 3.176642 1_545
Ba3 Cl12 3.181602 1_555
Ba3 Cl19 3.203956 1_555
Ba3 Cl20 3.246999 1_545
Ba3 Cl18 3.251293 1_445
Ba3 Cl8 3.285587 1_455
Ba3 Cl7 3.346160 1_555
Ba3 Cl9 3.562021 1_545
Ba4 Cl19 3.139624 1_556
Ba4 Cl23 3.150304 1_555
Ba4 Cl0 3.174806 1_555
Ba4 Cl15 3.190044 1_555
Ba4 Cl17 3.265321 1_555
Ba4 Cl4 3.283910 1_555
Ba4 Cl10 3.286361 1_555
Ba4 Cl5 3.337025 1_455
Ba4 Cl8 3.625550 1_456
Ba5 Cl18 3.139624 1_555
Ba5 Cl22 3.150304 1_555
Ba5 Cl1 3.174806 1_655
Ba5 Cl14 3.190044 1_555
Ba5 Cl16 3.265321 1_655
Ba5 Cl5 3.283910 1_555
Ba5 Cl11 3.286361 1_555
Ba5 Cl4 3.337025 1_555
Ba5 Cl9 3.625550 1_555
Ba6 Cl17 3.139624 1_554
Ba6 Cl21 3.150304 1_555
Ba6 Cl2 3.174806 1_555
Ba6 Cl13 3.190044 1_555
Ba6 Cl19 3.265321 1_555
Ba6 Cl6 3.283910 1_555
Ba6 Cl8 3.286361 1_555
Ba6 Cl7 3.337025 1_655
Ba6 Cl10 3.625550 1_654
Ba7 Cl16 3.139624 1_555
Ba7 Cl20 3.150304 1_555
Ba7 Cl3 3.174806 1_455
Ba7 Cl12 3.190044 1_555
Ba7 Cl18 3.265321 1_455
Ba7 Cl7 3.283910 1_555
Ba7 Cl9 3.286361 1_555
Ba7 Cl6 3.337025 1_555
Ba7 Cl11 3.625550 1_555
Cl0 Co0 2.338075 1_555
Cl1 Co1 2.338075 1_555
Cl2 Co2 2.338075 1_555
Cl3 Co3 2.338075 1_555
Cl4 Co1 2.397232 1_555
Cl5 Co0 2.397232 1_555
Cl6 Co3 2.397232 1_555
Cl7 Co2 2.397232 1_555
Cl8 Co0 2.546071 1_554
Cl9 Co1 2.546071 1_555
Cl10 Co2 2.546071 1_556
Cl11 Co3 2.546071 1_555
Cl12 Co3 2.470861 1_555
Cl12 Co1 2.512655 1_545
Cl13 Co2 2.470861 1_655
Cl13 Co0 2.512655 1_564
Cl14 Co1 2.470861 1_555
Cl14 Co3 2.512655 1_565
Cl15 Co0 2.470861 1_455
Cl15 Co2 2.512655 1_546
Cl20 Co2 2.525408 1_555
Cl21 Co3 2.525408 1_555
Cl22 Co0 2.525408 1_555
Cl23 Co1 2.525408 1_555
