# generated using pymatgen
data_Ag7Te4
_symmetry_space_group_name_H-M   'P 1'
_cell_length_a   13.41100473
_cell_length_b   13.41100473
_cell_length_c   9.19866400
_cell_angle_alpha   90.00000000
_cell_angle_beta   90.00000000
_cell_angle_gamma   120.00000361
_symmetry_Int_Tables_number   1
_chemical_formula_structural   Ag7Te4
_chemical_formula_sum   'Ag35 Te20'
_cell_volume   1432.77502644
_cell_formula_units_Z   5
loop_
 _symmetry_equiv_pos_site_id
 _symmetry_equiv_pos_as_xyz
  1  'x, y, z'
loop_
 _atom_site_type_symbol
 _atom_site_label
 _atom_site_symmetry_multiplicity
 _atom_site_fract_x
 _atom_site_fract_y
 _atom_site_fract_z
 _atom_site_occupancy
  Ag  Ag0  1  0.46160900  0.12542400  0.50000000  1
  Ag  Ag1  1  0.33618500  0.46160900  0.50000000  1
  Ag  Ag2  1  0.12542400  0.66381500  0.50000000  1
  Ag  Ag3  1  0.87457600  0.33618500  0.50000000  1
  Ag  Ag4  1  0.66381500  0.53839100  0.50000000  1
  Ag  Ag5  1  0.33618500  0.87457600  0.50000000  1
  Ag  Ag6  1  0.53839100  0.66381500  0.50000000  1
  Ag  Ag7  1  0.53839100  0.87457600  0.50000000  1
  Ag  Ag8  1  0.12542400  0.46160900  0.50000000  1
  Ag  Ag9  1  0.87457600  0.53839100  0.50000000  1
  Ag  Ag10  1  0.66381500  0.12542400  0.50000000  1
  Ag  Ag11  1  0.46160900  0.33618500  0.50000000  1
  Ag  Ag12  1  0.25401100  0.50802100  0.23511100  1
  Ag  Ag13  1  0.74598900  0.25401100  0.23511100  1
  Ag  Ag14  1  0.50802100  0.25401100  0.23511100  1
  Ag  Ag15  1  0.49197900  0.74598900  0.23511100  1
  Ag  Ag16  1  0.25401100  0.74598900  0.23511100  1
  Ag  Ag17  1  0.74598900  0.49197900  0.76488900  1
  Ag  Ag18  1  0.74598900  0.25401100  0.76488900  1
  Ag  Ag19  1  0.74598900  0.49197900  0.23511100  1
  Ag  Ag20  1  0.50802100  0.25401100  0.76488900  1
  Ag  Ag21  1  0.49197900  0.74598900  0.76488900  1
  Ag  Ag22  1  0.25401100  0.50802100  0.76488900  1
  Ag  Ag23  1  0.25401100  0.74598900  0.76488900  1
  Ag  Ag24  1  0.12237400  0.24474800  0.00000000  1
  Ag  Ag25  1  0.87762600  0.12237400  0.00000000  1
  Ag  Ag26  1  0.24474800  0.12237400  0.00000000  1
  Ag  Ag27  1  0.75525200  0.87762600  0.00000000  1
  Ag  Ag28  1  0.12237400  0.87762600  0.00000000  1
  Ag  Ag29  1  0.87762600  0.75525200  0.00000000  1
  Ag  Ag30  1  0.50000000  0.00000000  0.00000000  1
  Ag  Ag31  1  0.50000000  0.50000000  0.00000000  1
  Ag  Ag32  1  0.00000000  0.50000000  0.00000000  1
  Ag  Ag33  1  0.00000000  0.00000000  0.14537200  1
  Ag  Ag34  1  0.00000000  0.00000000  0.85462800  1
  Te  Te0  1  0.33905000  0.00000000  0.18808800  1
  Te  Te1  1  0.33905000  0.33905000  0.18808800  1
  Te  Te2  1  0.00000000  0.66095000  0.18808800  1
  Te  Te3  1  0.00000000  0.33905000  0.18808800  1
  Te  Te4  1  0.66095000  0.66095000  0.18808800  1
  Te  Te5  1  0.33905000  0.00000000  0.81191200  1
  Te  Te6  1  0.66095000  0.66095000  0.81191200  1
  Te  Te7  1  0.66095000  0.00000000  0.18808800  1
  Te  Te8  1  0.00000000  0.33905000  0.81191200  1
  Te  Te9  1  0.00000000  0.66095000  0.81191200  1
  Te  Te10  1  0.66095000  0.00000000  0.81191200  1
  Te  Te11  1  0.33905000  0.33905000  0.81191200  1
  Te  Te12  1  0.21237300  0.00000000  0.50000000  1
  Te  Te13  1  0.21237300  0.21237300  0.50000000  1
  Te  Te14  1  0.00000000  0.78762700  0.50000000  1
  Te  Te15  1  0.00000000  0.21237300  0.50000000  1
  Te  Te16  1  0.78762700  0.78762700  0.50000000  1
  Te  Te17  1  0.78762700  0.00000000  0.50000000  1
  Te  Te18  1  0.33333300  0.66666700  0.00000000  1
  Te  Te19  1  0.66666700  0.33333300  0.00000000  1
loop_
_geom_bond_atom_site_label_1
_geom_bond_atom_site_label_2
_geom_bond_distance
_geom_bond_site_symmetry_2
Ag0 Ag10 2.711786 1_555
Ag0 Ag11 2.826517 1_555
Ag0 Ag14 2.867930 1_555
Ag0 Ag20 2.867930 1_555
Ag0 Te12 2.894714 1_555
Ag0 Ag5 2.913416 1_545
Ag0 Te5 3.316374 1_555
Ag0 Te0 3.316374 1_555
Ag1 Ag6 2.711785 1_555
Ag1 Ag8 2.826517 1_555
Ag1 Ag22 2.867924 1_555
Ag1 Ag12 2.867924 1_555
Ag1 Te13 2.894714 1_555
Ag1 Ag11 2.913417 1_555
Ag1 Te1 3.316374 1_555
Ag1 Te11 3.316374 1_555
Ag2 Ag8 2.711786 1_555
Ag2 Ag5 2.826517 1_555
Ag2 Ag23 2.867929 1_555
Ag2 Te14 2.894715 1_555
Ag2 Ag9 2.913416 1_455
Ag2 Te9 3.316374 1_555
Ag2 Te2 3.316374 1_555
Ag3 Ag9 2.711786 1_555
Ag3 Te15 2.894715 1_655
Ag3 Ag8 2.913416 1_655
Ag3 Te8 3.316374 1_655
Ag3 Te3 3.316374 1_655
Ag4 Ag9 2.826517 1_555
Ag4 Te16 2.894714 1_555
Ag4 Ag6 2.913417 1_555
Ag4 Te6 3.316374 1_555
Ag4 Te4 3.316374 1_555
Ag5 Ag7 2.711786 1_555
Ag5 Te12 2.894715 1_565
Ag5 Te5 3.316374 1_565
Ag5 Te0 3.316374 1_565
Ag6 Ag7 2.826517 1_555
Ag6 Te16 2.894714 1_555
Ag6 Te6 3.316374 1_555
Ag6 Te4 3.316374 1_555
Ag7 Te17 2.894714 1_565
Ag7 Te10 3.316374 1_565
Ag7 Te7 3.316374 1_565
Ag8 Te15 2.894714 1_555
Ag8 Te8 3.316374 1_555
Ag8 Te3 3.316374 1_555
Ag9 Te14 2.894714 1_655
Ag9 Te2 3.316374 1_655
Ag9 Te9 3.316374 1_655
Ag10 Ag3 2.826517 1_555
Ag10 Ag18 2.867929 1_555
Ag10 Ag13 2.867929 1_555
Ag10 Te17 2.894715 1_555
Ag10 Ag7 2.913416 1_545
Ag10 Te7 3.316374 1_555
Ag10 Te10 3.316374 1_555
Ag11 Ag4 2.711785 1_555
Ag11 Ag20 2.867924 1_555
Ag11 Ag14 2.867924 1_555
Ag11 Te13 2.894714 1_555
Ag11 Te1 3.316374 1_555
Ag11 Te11 3.316374 1_555
Ag12 Te18 2.841183 1_555
Ag12 Ag8 2.867930 1_555
Ag12 Te1 3.034334 1_555
Ag12 Te3 3.034344 1_555
Ag12 Ag15 3.191390 1_555
Ag12 Ag16 3.191390 1_555
Ag13 Te19 2.841168 1_555
Ag13 Ag3 2.867929 1_555
Ag13 Te3 3.034346 1_655
Ag13 Te7 3.034346 1_555
Ag13 Ag19 3.191390 1_555
Ag13 Ag14 3.191390 1_555
Ag14 Te19 2.841183 1_555
Ag14 Te1 3.034334 1_555
Ag14 Te0 3.034344 1_555
Ag14 Ag19 3.191390 1_555
Ag15 Te18 2.841183 1_555
Ag15 Ag6 2.867924 1_555
Ag15 Ag7 2.867930 1_555
Ag15 Te4 3.034334 1_555
Ag15 Te7 3.034344 1_565
Ag15 Ag16 3.191390 1_555
Ag16 Te18 2.841168 1_555
Ag16 Ag2 2.867929 1_555
Ag16 Ag5 2.867929 1_555
Ag16 Te2 3.034346 1_555
Ag16 Te0 3.034346 1_565
Ag17 Te19 2.841183 1_556
Ag17 Ag4 2.867924 1_555
Ag17 Ag9 2.867930 1_555
Ag17 Te6 3.034334 1_555
Ag17 Te9 3.034344 1_655
Ag17 Ag20 3.191390 1_555
Ag17 Ag18 3.191390 1_555
Ag18 Te19 2.841168 1_556
Ag18 Ag3 2.867929 1_555
Ag18 Te8 3.034346 1_655
Ag18 Te10 3.034346 1_555
Ag18 Ag20 3.191390 1_555
Ag19 Te19 2.841183 1_555
Ag19 Ag4 2.867924 1_555
Ag19 Ag9 2.867930 1_555
Ag19 Te4 3.034334 1_555
Ag19 Te2 3.034344 1_655
Ag20 Te19 2.841183 1_556
Ag20 Te11 3.034334 1_555
Ag20 Te5 3.034344 1_555
Ag21 Te18 2.841183 1_556
Ag21 Ag6 2.867924 1_555
Ag21 Ag7 2.867930 1_555
Ag21 Te6 3.034334 1_555
Ag21 Te10 3.034344 1_565
Ag21 Ag22 3.191390 1_555
Ag21 Ag23 3.191390 1_555
Ag22 Te18 2.841183 1_556
Ag22 Ag8 2.867930 1_555
Ag22 Te11 3.034334 1_555
Ag22 Te8 3.034344 1_555
Ag22 Ag23 3.191390 1_555
Ag23 Te18 2.841168 1_556
Ag23 Ag5 2.867929 1_555
Ag23 Te5 3.034346 1_565
Ag23 Te9 3.034346 1_555
Ag24 Ag25 2.842569 1_455
Ag24 Ag26 2.842570 1_555
Ag24 Te1 3.059710 1_555
Ag24 Te11 3.059710 1_554
Ag24 Te8 3.059710 1_554
Ag24 Te3 3.059710 1_555
Ag24 Ag34 3.141398 1_554
Ag24 Ag33 3.141398 1_555
Ag25 Ag27 2.842569 1_545
Ag25 Te10 3.059710 1_554
Ag25 Te7 3.059710 1_555
Ag25 Te3 3.059710 1_655
Ag25 Te8 3.059710 1_654
Ag25 Ag34 3.141398 1_654
Ag25 Ag33 3.141398 1_655
Ag26 Ag28 2.842569 1_545
Ag26 Te1 3.059710 1_555
Ag26 Te11 3.059710 1_554
Ag26 Te0 3.059710 1_555
Ag26 Te5 3.059710 1_554
Ag26 Ag34 3.141398 1_554
Ag26 Ag33 3.141398 1_555
Ag27 Ag29 2.842570 1_555
Ag27 Te4 3.059710 1_555
Ag27 Te6 3.059710 1_554
Ag27 Te7 3.059710 1_565
Ag27 Te10 3.059710 1_564
Ag27 Ag33 3.141398 1_665
Ag27 Ag34 3.141398 1_664
Ag28 Ag29 2.842569 1_455
Ag28 Te0 3.059710 1_565
Ag28 Te9 3.059710 1_554
Ag28 Te2 3.059710 1_555
Ag28 Te5 3.059710 1_564
Ag28 Ag34 3.141398 1_564
Ag28 Ag33 3.141398 1_565
Ag29 Te4 3.059710 1_555
Ag29 Te6 3.059710 1_554
Ag29 Te2 3.059710 1_655
Ag29 Te9 3.059710 1_654
Ag29 Ag33 3.141398 1_665
Ag29 Ag34 3.141398 1_664
Ag30 Te0 2.766329 1_555
Ag30 Te5 2.766329 1_554
Ag30 Te10 2.766329 1_554
Ag30 Te7 2.766329 1_555
Ag31 Te1 2.766329 1_555
Ag31 Te4 2.766329 1_555
Ag31 Te11 2.766329 1_554
Ag31 Te6 2.766329 1_554
Ag32 Te3 2.766329 1_555
Ag32 Te8 2.766329 1_554
Ag32 Te9 2.766329 1_554
Ag32 Te2 2.766329 1_555
Ag33 Ag34 2.674456 1_554
Te0 Te12 3.334412 1_555
Te1 Te13 3.334412 1_555
Te10 Te17 3.334412 1_555
Te11 Te13 3.334412 1_555
Te12 Te14 2.848135 1_545
Te12 Te13 2.848135 1_555
Te12 Te5 3.334412 1_555
Te13 Te15 2.848135 1_555
Te14 Te16 2.848135 1_455
Te14 Te2 3.334412 1_555
Te14 Te9 3.334412 1_555
Te15 Te17 2.848135 1_455
Te15 Te8 3.334412 1_555
Te15 Te3 3.334412 1_555
Te16 Te17 2.848135 1_565
Te16 Te6 3.334412 1_555
Te16 Te4 3.334412 1_555
Te17 Te7 3.334412 1_555
