# generated using pymatgen
data_Na2Hf6Mg2Si3(S3O16)3
_symmetry_space_group_name_H-M   'P 1'
_cell_length_a   17.80012864
_cell_length_b   8.88335378
_cell_length_c   23.00651564
_cell_angle_alpha   90.06338099
_cell_angle_beta   89.97908436
_cell_angle_gamma   119.97168986
_symmetry_Int_Tables_number   1
_chemical_formula_structural   Na2Hf6Mg2Si3(S3O16)3
_chemical_formula_sum   'Na6 Hf18 Mg6 Si9 S27 O144'
_cell_volume   3151.41157191
_cell_formula_units_Z   3
loop_
 _symmetry_equiv_pos_site_id
 _symmetry_equiv_pos_as_xyz
  1  'x, y, z'
loop_
 _atom_site_type_symbol
 _atom_site_label
 _atom_site_symmetry_multiplicity
 _atom_site_fract_x
 _atom_site_fract_y
 _atom_site_fract_z
 _atom_site_occupancy
  Na  Na0  1  0.00153822  0.99499437  0.49598172  1
  Na  Na1  1  0.50030956  0.00624523  0.99873855  1
  Na  Na2  1  0.33111605  0.32751952  0.83650456  1
  Na  Na3  1  0.83417822  0.33359713  0.83578657  1
  Na  Na4  1  0.32903241  0.32788002  0.33346587  1
  Na  Na5  1  0.83246495  0.33608704  0.33490302  1
  Hf  Hf0  1  0.50882945  0.00892900  0.35433739  1
  Hf  Hf1  1  0.01006935  0.01032822  0.85560640  1
  Hf  Hf2  1  0.50186566  0.00078322  0.64166246  1
  Hf  Hf3  1  0.00849640  0.00291104  0.14515619  1
  Hf  Hf4  1  0.32639513  0.32734208  0.68718154  1
  Hf  Hf5  1  0.83238988  0.32550452  0.68331485  1
  Hf  Hf6  1  0.32601106  0.33119069  0.18722883  1
  Hf  Hf7  1  0.82894277  0.32526750  0.18824784  1
  Hf  Hf8  1  0.32883623  0.32308177  0.97826752  1
  Hf  Hf9  1  0.82904938  0.33416724  0.47609749  1
  Hf  Hf10  1  0.16524076  0.66995040  0.02400199  1
  Hf  Hf11  1  0.66161363  0.65439649  0.02239798  1
  Hf  Hf12  1  0.16227304  0.66750540  0.51796552  1
  Hf  Hf13  1  0.66579291  0.66387021  0.52097477  1
  Hf  Hf14  1  0.16040652  0.66958395  0.31030285  1
  Hf  Hf15  1  0.66771946  0.66444098  0.30955167  1
  Hf  Hf16  1  0.16694584  0.66824629  0.81143484  1
  Hf  Hf17  1  0.66225978  0.66133839  0.81468931  1
  Mg  Mg0  1  0.00644952  0.99439898  0.35294841  1
  Mg  Mg1  1  0.49940561  0.00647010  0.85532241  1
  Mg  Mg2  1  0.00341372  0.00751134  0.64966408  1
  Mg  Mg3  1  0.50211441  0.99701619  0.15071721  1
  Mg  Mg4  1  0.83391407  0.33353199  0.98373939  1
  Mg  Mg5  1  0.33170213  0.33126825  0.48035106  1
  Si  Si0  1  0.14371612  0.00185592  0.25282644  1
  Si  Si1  1  0.64234462  0.99613330  0.24708279  1
  Si  Si2  1  0.14220475  0.28912678  0.74719774  1
  Si  Si3  1  0.68879577  0.04004495  0.58191803  1
  Si  Si4  1  0.18775412  0.33538375  0.08224609  1
  Si  Si5  1  0.51924904  0.36641283  0.91673517  1
  Si  Si6  1  0.16682178  0.95384885  0.91692935  1
  Si  Si7  1  0.66541339  0.37793992  0.41636200  1
  Si  Si8  1  0.01941351  0.67398237  0.41560907  1
  S  S0  1  0.35621334  0.71397312  0.24945408  1
  S  S1  1  0.85691460  0.71357168  0.25038051  1
  S  S2  1  0.99932900  0.28499860  0.25110312  1
  S  S3  1  0.49953915  0.28699851  0.24876973  1
  S  S4  1  0.64423202  0.28736222  0.75122867  1
  S  S5  1  0.99925352  0.71172894  0.74905207  1
  S  S6  1  0.49984555  0.71348360  0.75111140  1
  S  S7  1  0.35709126  0.00048466  0.75067573  1
  S  S8  1  0.85558199  0.99830023  0.74936897  1
  S  S9  1  0.47609933  0.33352219  0.58248722  1
  S  S10  1  0.97899115  0.32878669  0.58273012  1
  S  S11  1  0.18693979  0.04390130  0.58146902  1
  S  S12  1  0.33257996  0.61985645  0.58191980  1
  S  S13  1  0.83595926  0.62890323  0.58370076  1
  S  S14  1  0.47795170  0.62803983  0.08331342  1
  S  S15  1  0.97544118  0.61945298  0.08232644  1
  S  S16  1  0.33651829  0.04397477  0.08390142  1
  S  S17  1  0.83361068  0.04506161  0.08179523  1
  S  S18  1  0.68741895  0.32822243  0.08199960  1
  S  S19  1  0.31303102  0.67059957  0.91668601  1
  S  S20  1  0.81152191  0.66429094  0.91705646  1
  S  S21  1  0.01951985  0.37769102  0.91709661  1
  S  S22  1  0.66712870  0.95981936  0.91711530  1
  S  S23  1  0.31183058  0.95919628  0.41669185  1
  S  S24  1  0.81334554  0.95508101  0.41624275  1
  S  S25  1  0.16741939  0.37462386  0.41663664  1
  S  S26  1  0.51945326  0.66161253  0.41668020  1
  O  O0  1  0.10369413  0.04135740  0.30711865  1
  O  O1  1  0.60180885  0.03274207  0.30663592  1
  O  O2  1  0.40950378  0.79086181  0.30268760  1
  O  O3  1  0.90782623  0.78685016  0.30227948  1
  O  O4  1  0.48364254  0.17913119  0.30220634  1
  O  O5  1  0.98206965  0.17999502  0.30275050  1
  O  O6  1  0.10174026  0.17085470  0.80649596  1
  O  O7  1  0.60599724  0.17982523  0.80182593  1
  O  O8  1  0.48546918  0.79027731  0.80224402  1
  O  O9  1  0.98267168  0.78694985  0.80224281  1
  O  O10  1  0.40991823  0.03033591  0.80167638  1
  O  O11  1  0.90811054  0.02880371  0.80260526  1
  O  O12  1  0.39652985  0.97392706  0.69739069  1
  O  O13  1  0.89258673  0.97084677  0.69749273  1
  O  O14  1  0.08575211  0.20208526  0.69186799  1
  O  O15  1  0.59079676  0.20946027  0.69797225  1
  O  O16  1  0.01245788  0.81399236  0.69738187  1
  O  O17  1  0.51301542  0.81970912  0.69776164  1
  O  O18  1  0.39346005  0.81684622  0.19763654  1
  O  O19  1  0.89364621  0.81698957  0.19699553  1
  O  O20  1  0.01136674  0.20661055  0.19745562  1
  O  O21  1  0.51355773  0.21114565  0.19736467  1
  O  O22  1  0.08543909  0.96806182  0.19339911  1
  O  O23  1  0.58601640  0.96946839  0.19167615  1
  O  O24  1  0.43693419  0.36092425  0.63581654  1
  O  O25  1  0.93895861  0.36314578  0.63566612  1
  O  O26  1  0.24345832  0.12603207  0.63489095  1
  O  O27  1  0.74842656  0.13475556  0.64017524  1
  O  O28  1  0.32034378  0.51315338  0.63559263  1
  O  O29  1  0.82052046  0.51509991  0.63599703  1
  O  O30  1  0.44118024  0.51676544  0.13523442  1
  O  O31  1  0.93655334  0.51203242  0.13509574  1
  O  O32  1  0.32079562  0.12464030  0.13544464  1
  O  O33  1  0.81881661  0.12676181  0.13487826  1
  O  O34  1  0.24953274  0.36682324  0.13887046  1
  O  O35  1  0.74354696  0.36178957  0.13470365  1
  O  O36  1  0.23477405  0.30378402  0.02717624  1
  O  O37  1  0.72920397  0.30536795  0.03056661  1
  O  O38  1  0.42508205  0.54300725  0.03096579  1
  O  O39  1  0.92299733  0.54054718  0.03063944  1
  O  O40  1  0.34983027  0.15255784  0.03129411  1
  O  O41  1  0.84729729  0.15372627  0.03092548  1
  O  O42  1  0.22963195  0.15409799  0.53128876  1
  O  O43  1  0.73481370  0.16742733  0.52807412  1
  O  O44  1  0.34908103  0.54333087  0.53154315  1
  O  O45  1  0.84968508  0.54596211  0.53204368  1
  O  O46  1  0.42298483  0.30269400  0.53139671  1
  O  O47  1  0.92430777  0.30604945  0.53180985  1
  O  O48  1  0.27142703  0.69541890  0.96874279  1
  O  O49  1  0.77075324  0.69448512  0.96879478  1
  O  O50  1  0.07506684  0.45522442  0.96864717  1
  O  O51  1  0.58379522  0.47278162  0.97236646  1
  O  O52  1  0.15254746  0.83351010  0.97310440  1
  O  O53  1  0.65486024  0.84868505  0.96890802  1
  O  O54  1  0.27111874  0.84799552  0.46959023  1
  O  O55  1  0.77074563  0.84749559  0.46908596  1
  O  O56  1  0.15631952  0.46431242  0.47001836  1
  O  O57  1  0.65259233  0.47013818  0.47370882  1
  O  O58  1  0.08218348  0.69466015  0.47301648  1
  O  O59  1  0.57533081  0.69486841  0.46900112  1
  O  O60  1  0.06708383  0.63287023  0.36150520  1
  O  O61  1  0.56145597  0.63631384  0.36485340  1
  O  O62  1  0.25675696  0.87547466  0.36494324  1
  O  O63  1  0.75700900  0.87682996  0.36461102  1
  O  O64  1  0.18309180  0.48623032  0.36501226  1
  O  O65  1  0.68161622  0.50018691  0.36019650  1
  O  O66  1  0.06124702  0.48590199  0.86452746  1
  O  O67  1  0.56865269  0.49921153  0.86035880  1
  O  O68  1  0.18155420  0.86422631  0.85953845  1
  O  O69  1  0.68225971  0.87652857  0.86396567  1
  O  O70  1  0.25750926  0.63816845  0.86420954  1
  O  O71  1  0.75578799  0.63787274  0.86411708  1
  O  O72  1  0.00908822  0.84101346  0.41309610  1
  O  O73  1  0.51041838  0.81721488  0.40875604  1
  O  O74  1  0.39688833  0.97268308  0.40851074  1
  O  O75  1  0.89894905  0.97599427  0.40946594  1
  O  O76  1  0.08802062  0.20730482  0.41214633  1
  O  O77  1  0.57967777  0.18860269  0.40845611  1
  O  O78  1  0.00991638  0.20341929  0.90810681  1
  O  O79  1  0.51278353  0.18246218  0.91007685  1
  O  O80  1  0.08048091  0.97052917  0.90819093  1
  O  O81  1  0.58898109  0.97111680  0.90880979  1
  O  O82  1  0.39899568  0.82186358  0.90884636  1
  O  O83  1  0.89619185  0.82043861  0.90735507  1
  O  O84  1  0.48652636  0.17823866  0.59343216  1
  O  O85  1  0.98667331  0.17469442  0.59037403  1
  O  O86  1  0.10064005  0.02073095  0.59017582  1
  O  O87  1  0.59419533  0.02287128  0.59566698  1
  O  O88  1  0.40986738  0.79538555  0.59362612  1
  O  O89  1  0.91200457  0.80014258  0.59210243  1
  O  O90  1  0.48769542  0.80031114  0.08914578  1
  O  O91  1  0.98463040  0.79281638  0.09101790  1
  O  O92  1  0.41249406  0.02367070  0.09094650  1
  O  O93  1  0.90875741  0.02299520  0.09265932  1
  O  O94  1  0.09257957  0.16711277  0.09250285  1
  O  O95  1  0.60038997  0.18056786  0.08965369  1
  O  O96  1  0.34689407  0.15751894  0.74113123  1
  O  O97  1  0.84607162  0.15951178  0.74322740  1
  O  O98  1  0.24240249  0.31299708  0.74181318  1
  O  O99  1  0.73367819  0.31254359  0.74239015  1
  O  O100  1  0.42375399  0.53522890  0.74118979  1
  O  O101  1  0.92096436  0.53234161  0.74304119  1
  O  O102  1  0.34881822  0.53716916  0.24358589  1
  O  O103  1  0.84581547  0.53478477  0.24088365  1
  O  O104  1  0.42303336  0.31186354  0.24301056  1
  O  O105  1  0.92292647  0.31286266  0.24095447  1
  O  O106  1  0.24330100  0.16841877  0.24174563  1
  O  O107  1  0.74225239  0.17214435  0.24178639  1
  O  O108  1  0.32100250  0.51256771  0.92332717  1
  O  O109  1  0.81969284  0.50848781  0.92353904  1
  O  O110  1  0.42810677  0.36439293  0.92419377  1
  O  O111  1  0.93295505  0.35864501  0.92382516  1
  O  O112  1  0.25154582  0.14726110  0.92218740  1
  O  O113  1  0.74565630  0.13204873  0.92349198  1
  O  O114  1  0.32064489  0.13151857  0.42495993  1
  O  O115  1  0.82037092  0.12845419  0.42404568  1
  O  O116  1  0.24560471  0.35874331  0.42542413  1
  O  O117  1  0.75065672  0.35578458  0.42267859  1
  O  O118  1  0.43352871  0.50765992  0.42474803  1
  O  O119  1  0.92813795  0.49221550  0.42568026  1
  O  O120  1  0.17792307  0.50418369  0.07202786  1
  O  O121  1  0.68204204  0.49162666  0.07544498  1
  O  O122  1  0.06297298  0.63988538  0.07564354  1
  O  O123  1  0.56630736  0.64610818  0.07434837  1
  O  O124  1  0.25734967  0.87239353  0.07517195  1
  O  O125  1  0.75525833  0.87146278  0.07386302  1
  O  O126  1  0.18206485  0.87147641  0.57576340  1
  O  O127  1  0.67694005  0.85014649  0.57370326  1
  O  O128  1  0.25657381  0.64199484  0.57547670  1
  O  O129  1  0.75661860  0.64135348  0.57601239  1
  O  O130  1  0.06583900  0.48754643  0.57590102  1
  O  O131  1  0.56385720  0.48619530  0.57606628  1
  O  O132  1  0.15804265  0.83368933  0.25824978  1
  O  O133  1  0.65766668  0.83460261  0.26241269  1
  O  O134  1  0.26835170  0.68649653  0.25960239  1
  O  O135  1  0.76836181  0.68939283  0.25709328  1
  O  O136  1  0.07747428  0.45922090  0.25705294  1
  O  O137  1  0.57668070  0.46172691  0.25878592  1
  O  O138  1  0.15799903  0.48182237  0.76203181  1
  O  O139  1  0.65589710  0.46477829  0.75784941  1
  O  O140  1  0.07553989  0.68912871  0.75861045  1
  O  O141  1  0.57846941  0.69531339  0.75750142  1
  O  O142  1  0.26940387  0.84742136  0.75685496  1
  O  O143  1  0.76718797  0.84740253  0.75936432  1
loop_
_geom_bond_atom_site_label_1
_geom_bond_atom_site_label_2
_geom_bond_distance
_geom_bond_site_symmetry_2
Na0 O72 2.388124 1_555
Na0 O76 2.598458 1_565
Na0 O75 2.649318 1_455
Na0 O86 2.731120 1_565
Na0 O89 2.770560 1_455
Na0 O85 2.783569 1_465
Na1 O79 2.513960 1_555
Na1 O95 2.680634 1_556
Na1 O92 2.684438 1_556
Na1 O82 2.693704 1_545
Na1 O90 2.705726 1_546
Na1 O81 2.712465 1_545
Na2 O112 2.488973 1_555
Na2 O110 2.567871 1_555
Na2 O108 2.648159 1_555
Na2 O98 2.656037 1_555
Na2 O96 2.755004 1_555
Na2 O100 2.810453 1_555
Na3 O111 2.618038 1_555
Na3 O113 2.635691 1_555
Na3 O109 2.636096 1_555
Na3 O97 2.700088 1_555
Na3 O101 2.708733 1_555
Na3 O99 2.742234 1_555
Na4 O106 2.573725 1_555
Na4 O116 2.675746 1_555
Na4 O102 2.685195 1_555
Na4 O114 2.691391 1_555
Na4 O104 2.717613 1_555
Na4 O118 2.729118 1_555
Na5 O117 2.545742 1_555
Na5 O119 2.611848 1_555
Na5 O107 2.635899 1_555
Na5 O115 2.695512 1_555
Na5 O103 2.727609 1_555
Na5 O105 2.763252 1_555
Hf0 O1 1.907272 1_555
Hf0 O77 1.916713 1_555
Hf0 O73 2.126396 1_545
Hf0 O4 2.146433 1_555
Hf0 O2 2.205659 1_545
Hf0 O74 2.232802 1_545
Hf1 O80 1.898478 1_545
Hf1 O6 1.910504 1_555
Hf1 O78 2.097912 1_555
Hf1 O9 2.170459 1_445
Hf1 O83 2.226672 1_445
Hf1 O11 2.259925 1_455
Hf2 O87 1.880504 1_555
Hf2 O84 2.055473 1_555
Hf2 O88 2.060029 1_545
Hf2 O17 2.148564 1_545
Hf2 O15 2.164433 1_555
Hf2 O12 2.183644 1_545
Hf3 O22 1.904993 1_545
Hf3 O94 1.912194 1_555
Hf3 O91 2.101936 1_445
Hf3 O20 2.151194 1_555
Hf3 O19 2.226784 1_445
Hf3 O93 2.227328 1_455
Hf4 O98 1.907848 1_555
Hf4 O26 2.045355 1_555
Hf4 O28 2.080128 1_555
Hf4 O96 2.122272 1_555
Hf4 O100 2.180933 1_555
Hf4 O24 2.183935 1_555
Hf5 O27 1.886016 1_555
Hf5 O25 2.068197 1_555
Hf5 O29 2.103845 1_555
Hf5 O97 2.120648 1_555
Hf5 O99 2.178132 1_555
Hf5 O101 2.202621 1_555
Hf6 O34 1.903578 1_555
Hf6 O106 1.925387 1_555
Hf6 O102 2.108781 1_555
Hf6 O32 2.149361 1_555
Hf6 O104 2.226515 1_555
Hf6 O30 2.230943 1_555
Hf7 O107 1.911471 1_555
Hf7 O33 2.080255 1_555
Hf7 O35 2.104357 1_555
Hf7 O103 2.111287 1_555
Hf7 O105 2.113568 1_555
Hf7 O31 2.178200 1_555
Hf8 O36 1.952209 1_556
Hf8 O112 1.961312 1_555
Hf8 O110 2.038680 1_555
Hf8 O40 2.119589 1_556
Hf8 O108 2.165608 1_555
Hf8 O38 2.207694 1_556
Hf9 O117 1.940084 1_555
Hf9 O119 1.988834 1_555
Hf9 O43 1.989373 1_555
Hf9 O115 2.123830 1_555
Hf9 O45 2.153127 1_555
Hf9 O47 2.237371 1_555
Hf10 O120 1.943233 1_555
Hf10 O52 1.966033 1_554
Hf10 O122 2.076061 1_555
Hf10 O124 2.087798 1_555
Hf10 O50 2.184891 1_554
Hf10 O48 2.193547 1_554
Hf11 O51 1.900191 1_554
Hf11 O123 2.045928 1_555
Hf11 O121 2.059606 1_555
Hf11 O125 2.164166 1_555
Hf11 O53 2.172516 1_554
Hf11 O49 2.174792 1_554
Hf12 O58 1.872210 1_555
Hf12 O56 2.071416 1_555
Hf12 O54 2.112289 1_555
Hf12 O126 2.129003 1_555
Hf12 O130 2.130733 1_555
Hf12 O128 2.236509 1_555
Hf13 O57 1.947182 1_555
Hf13 O127 1.979111 1_555
Hf13 O131 2.128680 1_555
Hf13 O55 2.129303 1_555
Hf13 O59 2.131579 1_555
Hf13 O129 2.140617 1_555
Hf14 O132 1.904286 1_555
Hf14 O60 1.926545 1_555
Hf14 O136 2.100518 1_555
Hf14 O62 2.174683 1_555
Hf14 O134 2.187556 1_555
Hf14 O64 2.249964 1_555
Hf15 O133 1.940914 1_555
Hf15 O65 1.977989 1_555
Hf15 O137 2.077014 1_555
Hf15 O135 2.077800 1_555
Hf15 O63 2.165747 1_555
Hf15 O61 2.187624 1_555
Hf16 O138 1.947364 1_555
Hf16 O68 1.966460 1_555
Hf16 O140 2.112378 1_555
Hf16 O142 2.130425 1_555
Hf16 O70 2.139336 1_555
Hf16 O66 2.147880 1_555
Hf17 O67 1.886503 1_555
Hf17 O69 2.093266 1_555
Hf17 O71 2.111123 1_555
Hf17 O141 2.121020 1_555
Hf17 O139 2.137581 1_555
Hf17 O143 2.181506 1_555
Mg0 O0 1.886841 1_565
Mg0 O72 1.960066 1_555
Mg0 O3 2.145429 1_455
Mg0 O76 2.189096 1_565
Mg0 O5 2.227057 1_465
Mg0 O75 2.250572 1_455
Mg1 O79 1.926572 1_555
Mg1 O10 2.108302 1_555
Mg1 O82 2.115299 1_545
Mg1 O7 2.137605 1_555
Mg1 O81 2.158193 1_545
Mg1 O8 2.181776 1_545
Mg2 O14 1.882725 1_555
Mg2 O16 2.113585 1_545
Mg2 O13 2.136776 1_445
Mg2 O85 2.145239 1_455
Mg2 O86 2.162773 1_555
Mg2 O89 2.189989 1_445
Mg3 O23 1.882817 1_555
Mg3 O18 2.092106 1_555
Mg3 O21 2.102396 1_565
Mg3 O90 2.161612 1_555
Mg3 O95 2.201319 1_565
Mg3 O92 2.207163 1_565
Mg4 O39 2.035643 1_556
Mg4 O41 2.042243 1_556
Mg4 O37 2.056793 1_556
Mg4 O111 2.159565 1_555
Mg4 O113 2.186202 1_555
Mg4 O109 2.189963 1_555
Mg5 O42 2.072888 1_555
Mg5 O116 2.093077 1_555
Mg5 O44 2.108246 1_555
Mg5 O114 2.111307 1_555
Mg5 O46 2.120817 1_555
Mg5 O118 2.131209 1_555
O0 Si0 1.561724 1_555
O1 Si1 1.654185 1_545
O2 S0 1.489264 1_555
O3 S1 1.442336 1_555
O4 S3 1.497032 1_555
O5 S2 1.446448 1_555
O6 Si2 1.652324 1_555
O7 S4 1.443297 1_555
O8 S6 1.444703 1_555
O9 S5 1.492026 1_555
O10 S7 1.443002 1_555
O11 S8 1.481460 1_545
O12 S7 1.488465 1_565
O13 S8 1.441199 1_555
O14 Si2 1.565391 1_555
O15 S4 1.492024 1_555
O16 S5 1.443083 1_455
O17 S6 1.494399 1_555
O18 S0 1.446502 1_555
O19 S1 1.477068 1_555
O20 S2 1.483629 1_455
O21 S3 1.442565 1_555
O22 Si0 1.650592 1_565
O23 Si1 1.565017 1_555
O24 S9 1.489588 1_555
O25 S10 1.516578 1_555
O26 S11 1.523331 1_555
O27 Si3 1.654441 1_555
O28 S12 1.505598 1_555
O29 S13 1.506651 1_555
O30 S14 1.479190 1_555
O31 S15 1.485131 1_555
O32 S16 1.481977 1_555
O33 S17 1.508747 1_555
O34 Si4 1.636384 1_555
O35 S18 1.503249 1_555
O36 Si4 1.617926 1_555
O37 S18 1.464347 1_555
O38 S14 1.481625 1_555
O39 S15 1.456708 1_555
O40 S16 1.491786 1_555
O41 S17 1.458827 1_555
O42 S11 1.458480 1_555
O43 Si3 1.600693 1_555
O44 S12 1.445398 1_555
O45 S13 1.480771 1_555
O46 S9 1.446329 1_555
O47 S10 1.471234 1_555
O48 S19 1.480977 1_555
O49 S20 1.486126 1_555
O50 S21 1.475541 1_555
O51 Si5 1.662735 1_555
O52 Si6 1.615256 1_555
O53 S22 1.493045 1_555
O54 S23 1.506270 1_555
O55 S24 1.498074 1_555
O56 S25 1.528746 1_555
O57 Si7 1.627183 1_555
O58 Si8 1.679874 1_555
O59 S26 1.493991 1_555
O60 Si8 1.646400 1_555
O61 S26 1.482511 1_555
O62 S23 1.483915 1_555
O63 S24 1.484049 1_555
O64 S25 1.482369 1_555
O65 Si7 1.619291 1_555
O66 S21 1.492313 1_555
O67 Si5 1.677293 1_555
O68 Si6 1.628499 1_555
O69 S22 1.520550 1_555
O70 S19 1.494296 1_555
O71 S20 1.513378 1_555
O72 Si8 1.584754 1_555
O73 S26 1.480696 1_555
O74 S23 1.469931 1_555
O75 S24 1.448343 1_555
O76 S25 1.455421 1_555
O77 Si7 1.620471 1_555
O78 S21 1.484442 1_555
O79 Si5 1.586993 1_555
O80 Si6 1.628557 1_555
O81 S22 1.456465 1_555
O82 S19 1.457924 1_555
O83 S20 1.468680 1_555
O84 S9 1.502436 1_555
O85 S10 1.452916 1_555
O86 S11 1.458146 1_555
O87 Si3 1.643743 1_555
O88 S12 1.500852 1_555
O89 S13 1.458025 1_555
O90 S14 1.457537 1_555
O91 S15 1.478561 1_555
O92 S16 1.460025 1_555
O93 S17 1.467127 1_555
O94 Si4 1.621866 1_555
O95 S18 1.456498 1_555
O96 S7 1.510252 1_555
O97 S8 1.530432 1_545
O98 Si2 1.692136 1_555
O99 S4 1.506769 1_555
O100 S6 1.500196 1_555
O101 S5 1.510430 1_555
O102 S0 1.515042 1_555
O103 S1 1.514922 1_555
O104 S3 1.490511 1_555
O105 S2 1.517240 1_555
O106 Si0 1.666259 1_555
O107 Si1 1.686486 1_545
O108 S19 1.487884 1_555
O109 S20 1.469900 1_555
O110 Si5 1.622494 1_555
O111 S21 1.471821 1_655
O112 Si6 1.628430 1_545
O113 S22 1.476169 1_545
O114 S23 1.470903 1_545
O115 S24 1.492264 1_545
O116 S25 1.481236 1_555
O117 Si7 1.631191 1_555
O118 S26 1.467827 1_555
O119 Si8 1.637075 1_655
O120 Si4 1.611648 1_555
O121 S18 1.509399 1_555
O122 S15 1.483750 1_455
O123 S14 1.513089 1_555
O124 S16 1.484208 1_565
O125 S17 1.485680 1_565
O126 S11 1.495882 1_565
O127 Si3 1.603007 1_565
O128 S12 1.468704 1_555
O129 S13 1.481326 1_555
O130 S10 1.491799 1_455
O131 S9 1.478135 1_555
O132 Si0 1.641145 1_565
O133 Si1 1.627888 1_555
O134 S0 1.475966 1_555
O135 S1 1.488683 1_555
O136 S2 1.482435 1_455
O137 S3 1.489214 1_555
O138 Si2 1.625931 1_555
O139 S4 1.490896 1_555
O140 S5 1.485019 1_455
O141 S6 1.494060 1_555
O142 S7 1.478193 1_565
O143 S8 1.489466 1_555
