# generated using pymatgen
data_BaMgZn(FeO2)4
_symmetry_space_group_name_H-M   'P 1'
_cell_length_a   5.37681859
_cell_length_b   5.26038477
_cell_length_c   8.21888900
_cell_angle_alpha   89.50404334
_cell_angle_beta   90.97038996
_cell_angle_gamma   120.73495473
_symmetry_Int_Tables_number   1
_chemical_formula_structural   BaMgZn(FeO2)4
_chemical_formula_sum   'Ba1 Mg1 Zn1 Fe4 O8'
_cell_volume   199.78373869
_cell_formula_units_Z   1
loop_
 _symmetry_equiv_pos_site_id
 _symmetry_equiv_pos_as_xyz
  1  'x, y, z'
loop_
 _atom_site_type_symbol
 _atom_site_label
 _atom_site_symmetry_multiplicity
 _atom_site_fract_x
 _atom_site_fract_y
 _atom_site_fract_z
 _atom_site_occupancy
  Ba  Ba0  1  0.99014700  0.98029300  0.99999900  1
  Mg  Mg0  1  0.67343200  0.34686400  0.49999900  1
  Zn  Zn0  1  0.99781700  0.99563200  0.49999900  1
  Fe  Fe0  1  0.32086700  0.67367000  0.74642700  1
  Fe  Fe1  1  0.60828300  0.28613700  0.79346100  1
  Fe  Fe2  1  0.35280600  0.67366700  0.25357100  1
  Fe  Fe3  1  0.67784300  0.28612700  0.20654800  1
  O  O0  1  0.31884300  0.32168000  0.66607400  1
  O  O1  1  0.66127100  0.00412000  0.65559200  1
  O  O2  1  0.97406300  0.64857700  0.66327900  1
  O  O3  1  0.67451200  0.64857300  0.33671800  1
  O  O4  1  0.00283800  0.32167800  0.33392400  1
  O  O5  1  0.34284700  0.00411700  0.34440800  1
  O  O6  1  0.35478500  0.70956800  0.00000000  1
  O  O7  1  0.71214800  0.42429600  0.00000100  1
loop_
_geom_bond_atom_site_label_1
_geom_bond_atom_site_label_2
_geom_bond_distance
_geom_bond_site_symmetry_2
Ba0 O7 2.513948 1_556
Mg0 O3 2.067327 1_555
Mg0 O2 2.067335 1_555
Mg0 O1 2.175479 1_555
Mg0 O5 2.175481 1_555
Mg0 O0 2.311378 1_555
Mg0 O4 2.311387 1_655
Fe0 O2 1.915297 1_455
Fe0 O1 1.923745 1_565
Fe0 O0 1.965967 1_555
Fe0 O6 2.090713 1_556
Fe1 O7 1.815508 1_556
Fe1 O0 1.947287 1_555
Fe1 O1 2.009487 1_555
Fe1 O2 2.202521 1_555
Fe2 O3 1.915272 1_555
Fe2 O5 1.923767 1_565
Fe2 O4 1.965968 1_555
Fe2 O6 2.090698 1_555
Fe3 O7 1.815574 1_555
Fe3 O4 1.947279 1_655
Fe3 O5 2.009407 1_555
Fe3 O3 2.202479 1_555
O0 Zn0 2.172305 1_445
O1 Zn0 2.252496 1_545
O2 Zn0 2.207997 1_555
O3 Zn0 2.208020 1_555
O4 Zn0 2.172297 1_445
O5 Zn0 2.252476 1_445
