# generated using pymatgen
data_Na14Al4Ga4Si7S5O48
_symmetry_space_group_name_H-M   'P 1'
_cell_length_a   17.64498540
_cell_length_b   8.83332219
_cell_length_c   21.81262278
_cell_angle_alpha   89.73725615
_cell_angle_beta   89.71425197
_cell_angle_gamma   119.99888109
_symmetry_Int_Tables_number   1
_chemical_formula_structural   Na14Al4Ga4Si7S5O48
_chemical_formula_sum   'Na42 Al12 Ga12 Si21 S15 O144'
_cell_volume   2944.21065592
_cell_formula_units_Z   3
loop_
 _symmetry_equiv_pos_site_id
 _symmetry_equiv_pos_as_xyz
  1  'x, y, z'
loop_
 _atom_site_type_symbol
 _atom_site_label
 _atom_site_symmetry_multiplicity
 _atom_site_fract_x
 _atom_site_fract_y
 _atom_site_fract_z
 _atom_site_occupancy
  Na  Na0  1  0.81385488  0.99557740  0.24466784  1
  Na  Na1  1  0.18536478  0.36503767  0.25423439  1
  Na  Na2  1  0.68633842  0.36710091  0.25303191  1
  Na  Na3  1  0.99920145  0.64084836  0.24486722  1
  Na  Na4  1  0.49920494  0.64112050  0.24605979  1
  Na  Na5  1  0.31323808  0.63260831  0.75202853  1
  Na  Na6  1  0.99832662  0.35616526  0.74921375  1
  Na  Na7  1  0.50106057  0.35929705  0.74977345  1
  Na  Na8  1  0.18405323  0.00286259  0.75623543  1
  Na  Na9  1  0.68657493  0.00698829  0.75715526  1
  Na  Na10  1  0.14586321  0.33415438  0.58275859  1
  Na  Na11  1  0.64781023  0.33517406  0.58406394  1
  Na  Na12  1  0.33632894  0.97368618  0.58103417  1
  Na  Na13  1  0.83662187  0.97397101  0.58305692  1
  Na  Na14  1  0.14577753  0.95846796  0.08484217  1
  Na  Na15  1  0.65221270  0.96230300  0.08451407  1
  Na  Na16  1  0.33678281  0.69920807  0.08306709  1
  Na  Na17  1  0.83640881  0.70597229  0.08081799  1
  Na  Na18  1  0.48537761  0.67524975  0.92237410  1
  Na  Na19  1  0.98055428  0.67338555  0.92258893  1
  Na  Na20  1  0.34760163  0.02766592  0.91477855  1
  Na  Na21  1  0.84538203  0.02508244  0.91885267  1
  Na  Na22  1  0.16886875  0.29769659  0.91211163  1
  Na  Na23  1  0.67128820  0.30091148  0.91228730  1
  Na  Na24  1  0.48263515  0.28966728  0.41863412  1
  Na  Na25  1  0.98328364  0.29075822  0.41906330  1
  Na  Na26  1  0.16920279  0.03909242  0.40846047  1
  Na  Na27  1  0.66938913  0.04010289  0.40933331  1
  Na  Na28  1  0.34599205  0.66744487  0.41117816  1
  Na  Na29  1  0.84712707  0.66776851  0.41217568  1
  Na  Na30  1  0.99898558  0.00480199  0.49857074  1
  Na  Na31  1  0.49935326  0.00478796  0.49846541  1
  Na  Na32  1  0.99430806  0.99333732  0.00215088  1
  Na  Na33  1  0.50119294  0.99505543  0.99981438  1
  Na  Na34  1  0.32820205  0.32714859  0.83467417  1
  Na  Na35  1  0.82571136  0.33330773  0.83374149  1
  Na  Na36  1  0.32585409  0.31807848  0.32970276  1
  Na  Na37  1  0.82756298  0.32836594  0.33084165  1
  Na  Na38  1  0.16559029  0.67293495  0.16874111  1
  Na  Na39  1  0.66609274  0.67187788  0.16423477  1
  Na  Na40  1  0.16110861  0.65987817  0.66764790  1
  Na  Na41  1  0.66794082  0.66039378  0.67012804  1
  Al  Al0  1  0.99645246  0.02237975  0.65178603  1
  Al  Al1  1  0.49992583  0.02804239  0.65195332  1
  Al  Al2  1  0.99269760  0.97225039  0.14581523  1
  Al  Al3  1  0.49814044  0.97112741  0.15048382  1
  Al  Al4  1  0.83701189  0.33300738  0.68997604  1
  Al  Al5  1  0.33565820  0.34090485  0.18886966  1
  Al  Al6  1  0.16198046  0.67223814  0.01512434  1
  Al  Al7  1  0.67249174  0.69641691  0.02088880  1
  Al  Al8  1  0.16131190  0.64967114  0.51406824  1
  Al  Al9  1  0.66266278  0.65050586  0.51479342  1
  Al  Al10  1  0.18520153  0.69387195  0.31094041  1
  Al  Al11  1  0.68654810  0.67751898  0.81332606  1
  Ga  Ga0  1  0.00280328  0.00201181  0.34866030  1
  Ga  Ga1  1  0.49860711  0.00135676  0.34882745  1
  Ga  Ga2  1  0.99839092  0.99647569  0.85089353  1
  Ga  Ga3  1  0.50384696  0.00594537  0.85157950  1
  Ga  Ga4  1  0.33593912  0.32648236  0.68698264  1
  Ga  Ga5  1  0.83462210  0.33241538  0.18267519  1
  Ga  Ga6  1  0.33303360  0.34378976  0.98121626  1
  Ga  Ga7  1  0.83347173  0.33262379  0.98390946  1
  Ga  Ga8  1  0.33133978  0.31891084  0.47916207  1
  Ga  Ga9  1  0.83209365  0.32057227  0.48072125  1
  Ga  Ga10  1  0.68137766  0.68430833  0.31404165  1
  Ga  Ga11  1  0.17945686  0.67706684  0.81594880  1
  Si  Si0  1  0.14737631  0.99948263  0.24752833  1
  Si  Si1  1  0.64560436  0.99908110  0.25070418  1
  Si  Si2  1  0.35418768  0.71045266  0.24920673  1
  Si  Si3  1  0.85587531  0.70709600  0.25011058  1
  Si  Si4  1  0.14577254  0.29219250  0.74909347  1
  Si  Si5  1  0.65019397  0.30142761  0.74920827  1
  Si  Si6  1  0.35576924  0.99943868  0.74989620  1
  Si  Si7  1  0.85397521  0.99758859  0.74942036  1
  Si  Si8  1  0.48191874  0.34397645  0.58292524  1
  Si  Si9  1  0.98037097  0.34379070  0.58425283  1
  Si  Si10  1  0.47985369  0.61671310  0.08408273  1
  Si  Si11  1  0.98280704  0.61962547  0.08270100  1
  Si  Si12  1  0.83927561  0.04755983  0.08393837  1
  Si  Si13  1  0.31161088  0.66751846  0.91946039  1
  Si  Si14  1  0.81038560  0.66366430  0.91931970  1
  Si  Si15  1  0.16661269  0.95923514  0.91673483  1
  Si  Si16  1  0.66618456  0.95376803  0.91424702  1
  Si  Si17  1  0.30933502  0.95100502  0.41898461  1
  Si  Si18  1  0.81152888  0.95516584  0.41961458  1
  Si  Si19  1  0.16675615  0.37842328  0.41547201  1
  Si  Si20  1  0.66646010  0.37399346  0.41715126  1
  S  S0  1  0.00157087  0.29085919  0.24954482  1
  S  S1  1  0.49607232  0.28390525  0.24733145  1
  S  S2  1  0.99623502  0.70990070  0.74713408  1
  S  S3  1  0.49943445  0.71384515  0.74800926  1
  S  S4  1  0.18244172  0.03206488  0.58396337  1
  S  S5  1  0.68365457  0.03527530  0.58473743  1
  S  S6  1  0.33687511  0.62847538  0.58354929  1
  S  S7  1  0.83736257  0.62529495  0.58403817  1
  S  S8  1  0.33717180  0.04942894  0.08433508  1
  S  S9  1  0.18578389  0.33451651  0.08425811  1
  S  S10  1  0.68088549  0.33134470  0.08395793  1
  S  S11  1  0.02460569  0.38267040  0.91654517  1
  S  S12  1  0.52494929  0.38335585  0.91750295  1
  S  S13  1  0.02449815  0.66569269  0.41687262  1
  S  S14  1  0.52327109  0.66502158  0.41774277  1
  O  O0  1  0.10931387  0.04801179  0.30990460  1
  O  O1  1  0.60429214  0.04103315  0.31166456  1
  O  O2  1  0.41576100  0.78906641  0.31073806  1
  O  O3  1  0.91515823  0.78917341  0.31231769  1
  O  O4  1  0.48219948  0.18610365  0.30667723  1
  O  O5  1  0.98378742  0.18361010  0.30756390  1
  O  O6  1  0.10645163  0.16638813  0.80954889  1
  O  O7  1  0.60885313  0.16997292  0.80875061  1
  O  O8  1  0.48222226  0.78362202  0.80481743  1
  O  O9  1  0.98323438  0.77989825  0.80534963  1
  O  O10  1  0.41665914  0.03763317  0.81011570  1
  O  O11  1  0.91804902  0.04513778  0.80915687  1
  O  O12  1  0.39851435  0.95971982  0.68968074  1
  O  O13  1  0.89711567  0.96415815  0.68845064  1
  O  O14  1  0.08633917  0.20020616  0.68862108  1
  O  O15  1  0.58624760  0.20817938  0.68937836  1
  O  O16  1  0.01268813  0.82867221  0.69450209  1
  O  O17  1  0.51371310  0.82883301  0.69437761  1
  O  O18  1  0.39881976  0.83269353  0.18910635  1
  O  O19  1  0.89945503  0.83586223  0.19197962  1
  O  O20  1  0.01641631  0.20732165  0.19715352  1
  O  O21  1  0.51237089  0.19756976  0.19565025  1
  O  O22  1  0.08266437  0.97009180  0.18948685  1
  O  O23  1  0.58493240  0.96986509  0.19083521  1
  O  O24  1  0.43664771  0.37036124  0.64414150  1
  O  O25  1  0.93075761  0.36534918  0.64362519  1
  O  O26  1  0.23924401  0.11315205  0.63819956  1
  O  O27  1  0.74206929  0.12153385  0.63782510  1
  O  O28  1  0.31851931  0.51451259  0.63846356  1
  O  O29  1  0.81956773  0.50591163  0.63693837  1
  O  O30  1  0.42928155  0.49620347  0.14375093  1
  O  O31  1  0.93876617  0.50709323  0.14510215  1
  O  O32  1  0.31933572  0.13266204  0.13678206  1
  O  O33  1  0.81238753  0.12525108  0.14342605  1
  O  O34  1  0.24453084  0.36597603  0.13756566  1
  O  O35  1  0.73774170  0.36565734  0.13876710  1
  O  O36  1  0.22277203  0.29525121  0.02806729  1
  O  O37  1  0.71904131  0.29196783  0.02913210  1
  O  O38  1  0.41561593  0.53873015  0.02379008  1
  O  O39  1  0.91880398  0.54093288  0.02315675  1
  O  O40  1  0.34787909  0.14817537  0.02643870  1
  O  O41  1  0.85084363  0.16060884  0.02143286  1
  O  O42  1  0.22094515  0.14939433  0.52894000  1
  O  O43  1  0.72022603  0.14874704  0.52863018  1
  O  O44  1  0.34740877  0.54603477  0.52779535  1
  O  O45  1  0.84800039  0.54839906  0.52673482  1
  O  O46  1  0.41642904  0.29688064  0.52388298  1
  O  O47  1  0.91744690  0.29744342  0.52368238  1
  O  O48  1  0.26161996  0.69430815  0.97842616  1
  O  O49  1  0.76398283  0.69490630  0.97897357  1
  O  O50  1  0.08042041  0.46692101  0.97002228  1
  O  O51  1  0.57906777  0.46557315  0.97094385  1
  O  O52  1  0.14860219  0.83430616  0.97601690  1
  O  O53  1  0.64581900  0.83299735  0.97548013  1
  O  O54  1  0.26312987  0.83094612  0.48096321  1
  O  O55  1  0.76204554  0.82935840  0.47971076  1
  O  O56  1  0.14803236  0.45922546  0.47744577  1
  O  O57  1  0.64772231  0.45993359  0.47729338  1
  O  O58  1  0.07948037  0.69260787  0.47184099  1
  O  O59  1  0.57986539  0.69240473  0.47191999  1
  O  O60  1  0.06140329  0.63418957  0.36177719  1
  O  O61  1  0.55901037  0.63211043  0.36205713  1
  O  O62  1  0.24581828  0.86782125  0.36146374  1
  O  O63  1  0.75053228  0.88291524  0.35897092  1
  O  O64  1  0.18199630  0.50384633  0.35642371  1
  O  O65  1  0.68351583  0.49525228  0.35613088  1
  O  O66  1  0.06270791  0.48853741  0.85962641  1
  O  O67  1  0.56087439  0.48747191  0.86003825  1
  O  O68  1  0.18478672  0.87547530  0.85477008  1
  O  O69  1  0.67914185  0.85618865  0.85434054  1
  O  O70  1  0.25191161  0.61872612  0.85731029  1
  O  O71  1  0.74804348  0.61994474  0.86007268  1
  O  O72  1  0.01562750  0.82436829  0.41494745  1
  O  O73  1  0.51465089  0.82358299  0.41565070  1
  O  O74  1  0.40743341  0.97084719  0.41286863  1
  O  O75  1  0.90831511  0.97167340  0.41341367  1
  O  O76  1  0.08097534  0.17955855  0.41154847  1
  O  O77  1  0.57978227  0.17776463  0.41253185  1
  O  O78  1  0.01622077  0.20740384  0.91380994  1
  O  O79  1  0.51462525  0.20516883  0.91371677  1
  O  O80  1  0.07994348  0.98209518  0.91173217  1
  O  O81  1  0.57884044  0.97862109  0.91051912  1
  O  O82  1  0.40776566  0.84502030  0.91295499  1
  O  O83  1  0.90800621  0.84288788  0.91160358  1
  O  O84  1  0.49039328  0.16183502  0.58882174  1
  O  O85  1  0.99063303  0.16287823  0.58930370  1
  O  O86  1  0.09439961  0.01420924  0.59123041  1
  O  O87  1  0.59539493  0.01594721  0.59236312  1
  O  O88  1  0.41573495  0.80372196  0.58905903  1
  O  O89  1  0.91542663  0.80144375  0.58989745  1
  O  O90  1  0.48975990  0.81781547  0.08920461  1
  O  O91  1  0.99408087  0.81852693  0.08802154  1
  O  O92  1  0.41557846  0.03032315  0.09010706  1
  O  O93  1  0.92537965  0.02480306  0.09184428  1
  O  O94  1  0.09897552  0.17878240  0.09202592  1
  O  O95  1  0.59319785  0.17074770  0.09235523  1
  O  O96  1  0.34531379  0.17461237  0.74531632  1
  O  O97  1  0.84503360  0.17620443  0.74224081  1
  O  O98  1  0.24604847  0.32146048  0.74043353  1
  O  O99  1  0.74558288  0.31590337  0.73688141  1
  O  O100  1  0.41913459  0.53731391  0.74328905  1
  O  O101  1  0.91867155  0.53329153  0.74118791  1
  O  O102  1  0.34502990  0.51391629  0.24311787  1
  O  O103  1  0.84497396  0.51185379  0.24431607  1
  O  O104  1  0.41838319  0.30438352  0.24190081  1
  O  O105  1  0.92135449  0.30699539  0.24623117  1
  O  O106  1  0.24436162  0.17487197  0.23678205  1
  O  O107  1  0.74371952  0.17151208  0.24543375  1
  O  O108  1  0.32342705  0.49377366  0.92209063  1
  O  O109  1  0.82386036  0.49145845  0.92390673  1
  O  O110  1  0.43387831  0.35777238  0.92220689  1
  O  O111  1  0.93623984  0.36310572  0.92041176  1
  O  O112  1  0.25661043  0.15207933  0.92482607  1
  O  O113  1  0.75407208  0.14908298  0.92023208  1
  O  O114  1  0.32277118  0.15068482  0.42178689  1
  O  O115  1  0.82368562  0.15290761  0.42279597  1
  O  O116  1  0.25712132  0.36377325  0.42437809  1
  O  O117  1  0.75686657  0.36188071  0.42552701  1
  O  O118  1  0.43372999  0.50984262  0.42453833  1
  O  O119  1  0.93444835  0.51017789  0.42358977  1
  O  O120  1  0.18110987  0.49553140  0.07687147  1
  O  O121  1  0.67413010  0.48813679  0.07592870  1
  O  O122  1  0.08262643  0.64583166  0.07554068  1
  O  O123  1  0.57787248  0.64332600  0.07639403  1
  O  O124  1  0.25723512  0.86877696  0.08036745  1
  O  O125  1  0.75034286  0.84913681  0.07858964  1
  O  O126  1  0.17751262  0.86233964  0.57640759  1
  O  O127  1  0.67873901  0.86449626  0.57748124  1
  O  O128  1  0.25676180  0.64844333  0.57977481  1
  O  O129  1  0.75679167  0.64541977  0.58042252  1
  O  O130  1  0.08046479  0.51467250  0.57635591  1
  O  O131  1  0.58140311  0.51480737  0.57573953  1
  O  O132  1  0.14868455  0.81535955  0.25790601  1
  O  O133  1  0.64929213  0.81588793  0.25649882  1
  O  O134  1  0.25487646  0.67868881  0.25369810  1
  O  O135  1  0.75676609  0.68336269  0.25220442  1
  O  O136  1  0.07845115  0.46704452  0.25619949  1
  O  O137  1  0.57521637  0.46163592  0.25245803  1
  O  O138  1  0.15041052  0.48274967  0.75478970  1
  O  O139  1  0.64990982  0.48586416  0.75822332  1
  O  O140  1  0.07537008  0.68898443  0.75131143  1
  O  O141  1  0.57630189  0.69005047  0.75279063  1
  O  O142  1  0.25654537  0.82768895  0.75156884  1
  O  O143  1  0.75468241  0.83114514  0.75388350  1
loop_
_geom_bond_atom_site_label_1
_geom_bond_atom_site_label_2
_geom_bond_distance
_geom_bond_site_symmetry_2
Na0 O135 2.421547 1_555
Na0 O107 2.422844 1_565
Na0 O105 2.439284 1_565
Na0 O33 2.489288 1_565
Na0 O133 2.529327 1_555
Na0 O63 2.700491 1_555
Na0 O19 2.778663 1_555
Na0 O5 2.951864 1_565
Na1 O134 2.404601 1_555
Na1 O106 2.408490 1_555
Na1 O102 2.451688 1_555
Na1 O136 2.464126 1_555
Na1 O64 2.563609 1_555
Na1 O0 2.704124 1_555
Na1 O34 2.744247 1_555
Na1 O20 2.877147 1_555
Na2 O107 2.405767 1_555
Na2 O135 2.424219 1_555
Na2 O103 2.433035 1_555
Na2 O137 2.485848 1_555
Na2 O65 2.533749 1_555
Na2 O35 2.650334 1_555
Na2 O1 2.793840 1_555
Na2 O21 2.948009 1_555
Na3 O132 2.315153 1_655
Na3 O103 2.367259 1_555
Na3 O31 2.460798 1_555
Na3 O136 2.553488 1_655
Na3 O105 2.555891 1_555
Na3 O22 2.784507 1_655
Na3 O60 2.793251 1_655
Na3 O3 2.831818 1_555
Na4 O133 2.317225 1_555
Na4 O102 2.369196 1_555
Na4 O137 2.541296 1_555
Na4 O30 2.572040 1_555
Na4 O104 2.579078 1_555
Na4 O61 2.762360 1_555
Na4 O23 2.780131 1_555
Na4 O2 2.790410 1_555
Na5 O142 2.386194 1_555
Na5 O98 2.403040 1_555
Na5 O100 2.409793 1_555
Na5 O138 2.490985 1_555
Na5 O70 2.509922 1_555
Na5 O28 2.711417 1_555
Na5 O12 2.838773 1_555
Na5 O8 2.840240 1_555
Na6 O138 2.338877 1_655
Na6 O97 2.360731 1_555
Na6 O140 2.549226 1_655
Na6 O101 2.579356 1_555
Na6 O25 2.618207 1_555
Na6 O66 2.680098 1_655
Na6 O11 2.705794 1_555
Na6 O14 2.862181 1_655
Na7 O139 2.291844 1_555
Na7 O96 2.396701 1_555
Na7 O141 2.535128 1_555
Na7 O24 2.597188 1_555
Na7 O100 2.618298 1_555
Na7 O67 2.652546 1_555
Na7 O10 2.781804 1_555
Na7 O15 2.789180 1_555
Na8 O68 2.424563 1_545
Na8 O142 2.453610 1_545
Na8 O140 2.462587 1_545
Na8 O96 2.475502 1_555
Na8 O98 2.478808 1_555
Na8 O6 2.700208 1_555
Na8 O26 2.744028 1_555
Na9 O143 2.393480 1_545
Na9 O99 2.422599 1_555
Na9 O97 2.442339 1_555
Na9 O69 2.466181 1_545
Na9 O141 2.487969 1_545
Na9 O7 2.682136 1_555
Na9 O27 2.778020 1_555
Na10 O85 2.379484 1_455
Na10 O130 2.394442 1_555
Na10 O128 2.470918 1_555
Na10 O86 2.504651 1_555
Na10 O56 2.536235 1_555
Na10 O14 2.557988 1_555
Na10 O42 2.821519 1_555
Na10 O28 2.914972 1_555
Na11 O131 2.404680 1_555
Na11 O84 2.411063 1_555
Na11 O129 2.437464 1_555
Na11 O87 2.495070 1_555
Na11 O15 2.539369 1_555
Na11 O57 2.572293 1_555
Na11 O43 2.813113 1_555
Na11 O29 2.875737 1_555
Na12 O84 2.381258 1_565
Na12 O126 2.465382 1_555
Na12 O128 2.488684 1_555
Na12 O88 2.520189 1_555
Na12 O54 2.539204 1_555
Na12 O12 2.644634 1_555
Na12 O46 2.759879 1_565
Na12 O26 2.847844 1_565
Na13 O85 2.378918 1_565
Na13 O127 2.453856 1_555
Na13 O129 2.514886 1_555
Na13 O89 2.529299 1_555
Na13 O13 2.558721 1_555
Na13 O55 2.611537 1_555
Na13 O47 2.783591 1_565
Na13 O27 2.842304 1_565
Na14 O91 2.320821 1_455
Na14 O122 2.416524 1_555
Na14 O124 2.462087 1_555
Na14 O94 2.470316 1_565
Na14 O22 2.559687 1_555
Na14 O52 2.630112 1_554
Na14 O36 2.852617 1_565
Na14 O32 2.892791 1_565
Na15 O125 2.396631 1_555
Na15 O123 2.449914 1_555
Na15 O90 2.488698 1_555
Na15 O95 2.534208 1_565
Na15 O23 2.616389 1_555
Na15 O53 2.621539 1_554
Na15 O33 2.774204 1_565
Na15 O37 2.801708 1_565
Na16 O90 2.361918 1_555
Na16 O120 2.421668 1_555
Na16 O124 2.513871 1_555
Na16 O92 2.539922 1_565
Na16 O18 2.588070 1_555
Na16 O48 2.635200 1_554
Na16 O38 2.754417 1_555
Na16 O34 2.807953 1_555
Na17 O125 2.414221 1_555
Na17 O91 2.448101 1_555
Na17 O93 2.458238 1_565
Na17 O121 2.531476 1_555
Na17 O49 2.546204 1_554
Na17 O19 2.685025 1_555
Na17 O39 2.817616 1_555
Na17 O35 2.894005 1_555
Na18 O81 2.353286 1_555
Na18 O110 2.478339 1_555
Na18 O108 2.480986 1_555
Na18 O82 2.494025 1_555
Na18 O38 2.515367 1_556
Na18 O53 2.720449 1_555
Na18 O8 2.743524 1_555
Na18 O67 2.930335 1_555
Na19 O80 2.403247 1_655
Na19 O109 2.404901 1_555
Na19 O83 2.419563 1_555
Na19 O111 2.446260 1_555
Na19 O39 2.458868 1_556
Na19 O9 2.712832 1_555
Na19 O52 2.829493 1_655
Na20 O82 2.333317 1_545
Na20 O112 2.365724 1_555
Na20 O110 2.532658 1_555
Na20 O79 2.553970 1_555
Na20 O10 2.562738 1_555
Na20 O40 2.661582 1_556
Na20 O68 2.822341 1_545
Na20 O48 2.893846 1_545
Na21 O113 2.358185 1_555
Na21 O83 2.369610 1_545
Na21 O41 2.521984 1_556
Na21 O111 2.588727 1_555
Na21 O78 2.614033 1_655
Na21 O11 2.671905 1_555
Na21 O49 2.836586 1_545
Na21 O69 2.914545 1_545
Na22 O78 2.396422 1_555
Na22 O108 2.402245 1_555
Na22 O80 2.420776 1_545
Na22 O112 2.474012 1_555
Na22 O6 2.516781 1_555
Na22 O36 2.710440 1_556
Na22 O70 2.722840 1_555
Na22 O50 2.931941 1_555
Na23 O109 2.371588 1_555
Na23 O113 2.433473 1_555
Na23 O79 2.453322 1_555
Na23 O81 2.474887 1_545
Na23 O7 2.535044 1_555
Na23 O71 2.685488 1_555
Na23 O37 2.701516 1_556
Na24 O77 2.372005 1_555
Na24 O74 2.444556 1_545
Na24 O114 2.450142 1_555
Na24 O118 2.494639 1_555
Na24 O46 2.586170 1_555
Na24 O4 2.610422 1_555
Na24 O57 2.838730 1_555
Na24 O61 2.891716 1_555
Na25 O76 2.377999 1_655
Na25 O75 2.446608 1_545
Na25 O115 2.446962 1_555
Na25 O119 2.485942 1_555
Na25 O47 2.569825 1_555
Na25 O5 2.615394 1_555
Na25 O56 2.831135 1_655
Na25 O60 2.903615 1_655
Na26 O114 2.395460 1_555
Na26 O72 2.411404 1_545
Na26 O0 2.418417 1_555
Na26 O76 2.428763 1_555
Na26 O116 2.513580 1_555
Na26 O62 2.685681 1_545
Na26 O42 2.801253 1_555
Na27 O115 2.406104 1_555
Na27 O1 2.427297 1_555
Na27 O73 2.429770 1_545
Na27 O77 2.430170 1_555
Na27 O117 2.492754 1_555
Na27 O63 2.677850 1_545
Na27 O43 2.771701 1_555
Na28 O74 2.335647 1_555
Na28 O116 2.349364 1_555
Na28 O2 2.469528 1_555
Na28 O118 2.564308 1_555
Na28 O73 2.582242 1_555
Na28 O44 2.761114 1_555
Na28 O64 2.785144 1_555
Na28 O54 2.941131 1_555
Na29 O75 2.339999 1_555
Na29 O117 2.367938 1_555
Na29 O3 2.449623 1_555
Na29 O119 2.553276 1_555
Na29 O72 2.578160 1_655
Na29 O45 2.710849 1_555
Na29 O65 2.793581 1_555
Na29 O55 2.932794 1_555
Na30 O75 2.379498 1_545
Na30 O76 2.406569 1_655
Na30 O85 2.473183 1_555
Na30 O72 2.538303 1_645
Na30 O89 2.580403 1_545
Na30 O86 2.611892 1_655
Na31 O77 2.375090 1_555
Na31 O74 2.399091 1_545
Na31 O84 2.464795 1_555
Na31 O73 2.520261 1_545
Na31 O88 2.560199 1_545
Na31 O87 2.635515 1_555
Na32 O93 2.388196 1_565
Na32 O91 2.420747 1_555
Na32 O83 2.452830 1_554
Na32 O80 2.510987 1_654
Na32 O78 2.581908 1_664
Na32 O94 2.641550 1_665
Na33 O81 2.422161 1_555
Na33 O82 2.435806 1_555
Na33 O90 2.438434 1_556
Na33 O79 2.559601 1_565
Na33 O95 2.580825 1_566
Na33 O92 2.589349 1_566
Na34 O112 2.418274 1_555
Na34 O108 2.440781 1_555
Na34 O96 2.476044 1_555
Na34 O98 2.507456 1_555
Na34 O110 2.594508 1_555
Na34 O100 2.636261 1_555
Na35 O113 2.386698 1_555
Na35 O109 2.427121 1_555
Na35 O99 2.510354 1_555
Na35 O97 2.552902 1_555
Na35 O101 2.631271 1_555
Na35 O111 2.640999 1_555
Na36 O106 2.451454 1_555
Na36 O102 2.460156 1_555
Na36 O114 2.472861 1_555
Na36 O116 2.524017 1_555
Na36 O104 2.552774 1_555
Na36 O118 2.760236 1_555
Na37 O107 2.362307 1_555
Na37 O103 2.398276 1_555
Na37 O117 2.501710 1_555
Na37 O115 2.508782 1_555
Na37 O105 2.542789 1_555
Na37 O119 2.695943 1_555
Na38 O132 2.417933 1_555
Na38 O134 2.422531 1_555
Na38 O122 2.452930 1_555
Na38 O136 2.540419 1_555
Na38 O124 2.542531 1_555
Na38 O120 2.645525 1_555
Na39 O125 2.401972 1_555
Na39 O123 2.408225 1_555
Na39 O135 2.474298 1_555
Na39 O133 2.480111 1_555
Na39 O121 2.573072 1_555
Na39 O137 2.584966 1_555
Na40 O138 2.402191 1_555
Na40 O130 2.421144 1_555
Na40 O142 2.437920 1_555
Na40 O140 2.459855 1_555
Na40 O128 2.583167 1_555
Na40 O126 2.585926 1_555
Na41 O139 2.376289 1_555
Na41 O143 2.387453 1_555
Na41 O131 2.513236 1_555
Na41 O141 2.516578 1_555
Na41 O129 2.546226 1_555
Na41 O127 2.643845 1_555
Al0 O13 1.748491 1_545
Al0 O14 1.778069 1_655
Al0 O85 1.876597 1_555
Al0 O16 2.087160 1_645
Al0 O86 2.199931 1_655
Al0 O89 2.220013 1_545
Al1 O15 1.766092 1_555
Al1 O12 1.773211 1_545
Al1 O84 1.872831 1_555
Al1 O17 2.104134 1_545
Al1 O87 2.167501 1_555
Al1 O88 2.262080 1_545
Al2 O19 1.778367 1_555
Al2 O22 1.863603 1_655
Al2 O91 1.866061 1_555
Al2 O93 1.890147 1_565
Al2 O94 2.181492 1_665
Al2 O20 2.213107 1_665
Al3 O18 1.763299 1_555
Al3 O23 1.774985 1_555
Al3 O90 1.860336 1_555
Al3 O95 2.128620 1_565
Al3 O21 2.133758 1_565
Al3 O92 2.214650 1_565
Al4 O25 1.829785 1_555
Al4 O99 1.846788 1_555
Al4 O97 1.849690 1_555
Al4 O101 1.984704 1_555
Al4 O29 2.055063 1_555
Al4 O27 2.121128 1_555
Al5 O30 1.812385 1_555
Al5 O106 1.856043 1_555
Al5 O102 1.878552 1_555
Al5 O104 2.014228 1_555
Al5 O32 2.061591 1_555
Al5 O34 2.063640 1_555
Al6 O52 1.778091 1_554
Al6 O122 1.844953 1_555
Al6 O48 1.847057 1_554
Al6 O50 1.936163 1_554
Al6 O120 2.208283 1_555
Al6 O124 2.234485 1_555
Al7 O53 1.794319 1_554
Al7 O49 1.857195 1_554
Al7 O125 1.862984 1_555
Al7 O123 1.914384 1_555
Al7 O51 2.176989 1_554
Al7 O121 2.204620 1_555
Al8 O56 1.772875 1_555
Al8 O54 1.847411 1_555
Al8 O130 1.888845 1_555
Al8 O58 1.906522 1_555
Al8 O128 2.221046 1_555
Al8 O126 2.224875 1_555
Al9 O57 1.772959 1_555
Al9 O55 1.833539 1_555
Al9 O131 1.872886 1_555
Al9 O59 1.922782 1_555
Al9 O129 2.215327 1_555
Al9 O127 2.239338 1_555
Al10 O62 1.761640 1_555
Al10 O134 1.799879 1_555
Al10 O132 1.895397 1_555
Al10 O64 1.922049 1_555
Al10 O60 2.257907 1_555
Al10 O136 2.293191 1_555
Al11 O71 1.741803 1_555
Al11 O143 1.817955 1_555
Al11 O69 1.877854 1_555
Al11 O139 1.913283 1_555
Al11 O67 2.238972 1_555
Al11 O141 2.404075 1_555
Ga0 O0 1.905041 1_555
Ga0 O3 1.916561 1_445
Ga0 O5 2.004338 1_455
Ga0 O76 2.029623 1_555
Ga0 O75 2.091114 1_445
Ga0 O72 2.222988 1_545
Ga1 O1 1.893734 1_555
Ga1 O2 1.904974 1_545
Ga1 O4 2.013370 1_555
Ga1 O74 2.037809 1_545
Ga1 O77 2.053895 1_555
Ga1 O73 2.257945 1_545
Ga2 O11 1.908371 1_565
Ga2 O6 1.952008 1_665
Ga2 O83 1.984079 1_555
Ga2 O80 2.012011 1_655
Ga2 O9 2.055928 1_555
Ga2 O78 2.212574 1_665
Ga3 O7 1.921171 1_555
Ga3 O10 1.924908 1_555
Ga3 O81 1.948232 1_545
Ga3 O82 2.058449 1_545
Ga3 O8 2.077416 1_545
Ga3 O79 2.158681 1_555
Ga4 O24 1.863489 1_555
Ga4 O96 1.911649 1_555
Ga4 O98 1.946226 1_555
Ga4 O26 2.101384 1_555
Ga4 O100 2.106398 1_555
Ga4 O28 2.114441 1_555
Ga5 O33 1.880263 1_555
Ga5 O31 1.888755 1_555
Ga5 O103 2.021387 1_555
Ga5 O107 2.036519 1_555
Ga5 O35 2.107471 1_555
Ga5 O105 2.162485 1_555
Ga6 O38 1.862780 1_556
Ga6 O108 1.912679 1_555
Ga6 O112 1.987773 1_555
Ga6 O36 2.038486 1_556
Ga6 O40 2.113510 1_556
Ga6 O110 2.143411 1_555
Ga7 O41 1.878691 1_556
Ga7 O39 1.908571 1_556
Ga7 O109 1.983327 1_555
Ga7 O113 2.071066 1_555
Ga7 O37 2.104911 1_556
Ga7 O111 2.182284 1_555
Ga8 O46 1.883788 1_555
Ga8 O114 1.895146 1_555
Ga8 O116 1.957102 1_555
Ga8 O42 2.064651 1_555
Ga8 O118 2.107448 1_555
Ga8 O44 2.164370 1_555
Ga9 O47 1.872992 1_555
Ga9 O115 1.900324 1_555
Ga9 O117 1.959790 1_555
Ga9 O43 2.064231 1_555
Ga9 O119 2.133907 1_555
Ga9 O45 2.143053 1_555
Ga10 O63 1.847765 1_555
Ga10 O135 1.892681 1_555
Ga10 O65 1.918972 1_555
Ga10 O133 1.974480 1_555
Ga10 O61 2.224642 1_555
Ga10 O137 2.355247 1_555
Ga11 O70 1.838499 1_555
Ga11 O68 1.909743 1_555
Ga11 O142 1.935607 1_555
Ga11 O138 2.033893 1_555
Ga11 O66 2.111897 1_555
Ga11 O140 2.364290 1_555
O0 Si0 1.664378 1_545
O1 Si1 1.643713 1_545
O2 Si2 1.653078 1_555
O3 Si3 1.651013 1_555
O4 S1 1.502358 1_555
O5 S0 1.511740 1_655
O6 Si4 1.631469 1_555
O7 Si5 1.642249 1_555
O8 S3 1.482577 1_555
O9 S2 1.481060 1_555
O10 Si6 1.627647 1_545
O11 Si7 1.642355 1_545
O12 Si6 1.635878 1_555
O13 Si7 1.628985 1_555
O14 Si4 1.634462 1_555
O15 Si5 1.658292 1_555
O16 S2 1.477853 1_455
O17 S3 1.481208 1_555
O18 Si2 1.622072 1_555
O19 Si3 1.610989 1_555
O20 S0 1.455041 1_555
O21 S1 1.469384 1_555
O22 Si0 1.641662 1_555
O23 Si1 1.630591 1_555
O24 Si8 1.629045 1_555
O25 Si9 1.624036 1_555
O26 S4 1.489594 1_555
O27 S5 1.489479 1_555
O28 S6 1.487315 1_555
O29 S7 1.481976 1_555
O30 Si10 1.627647 1_555
O31 Si11 1.627659 1_555
O32 S8 1.477787 1_555
O33 Si12 1.645416 1_555
O34 S9 1.493562 1_555
O35 S10 1.496279 1_555
O36 S9 1.506919 1_555
O37 S10 1.494785 1_555
O38 Si10 1.652660 1_555
O39 Si11 1.638116 1_555
O40 S8 1.487986 1_555
O41 Si12 1.636661 1_555
O42 S4 1.500853 1_555
O43 S5 1.500990 1_555
O44 S6 1.478198 1_555
O45 S7 1.480503 1_555
O46 Si8 1.645005 1_555
O47 Si9 1.646507 1_555
O48 Si13 1.639693 1_555
O49 Si14 1.630433 1_555
O50 S11 1.473416 1_555
O51 S12 1.457229 1_555
O52 Si15 1.619573 1_555
O53 Si16 1.627877 1_555
O54 Si17 1.651766 1_555
O55 Si18 1.649433 1_555
O56 Si19 1.638957 1_555
O57 Si20 1.631675 1_555
O58 S13 1.489603 1_555
O59 S14 1.491677 1_555
O60 S13 1.456784 1_555
O61 S14 1.461674 1_555
O62 Si17 1.602878 1_555
O63 Si18 1.628055 1_555
O64 Si19 1.626112 1_555
O65 Si20 1.634030 1_555
O66 S11 1.490065 1_555
O67 S12 1.489074 1_555
O68 Si15 1.649006 1_555
O69 Si16 1.645343 1_555
O70 Si13 1.642805 1_555
O71 Si14 1.619653 1_555
O72 S13 1.486520 1_555
O73 S14 1.483065 1_555
O74 Si17 1.654930 1_555
O75 Si18 1.644569 1_555
O76 Si19 1.651665 1_555
O77 Si20 1.644994 1_555
O78 S11 1.481288 1_555
O79 S12 1.494006 1_555
O80 Si15 1.643664 1_555
O81 Si16 1.664176 1_555
O82 Si13 1.640909 1_555
O83 Si14 1.664179 1_555
O84 Si8 1.693038 1_555
O85 Si9 1.699016 1_555
O86 S4 1.488512 1_555
O87 S5 1.487751 1_555
O88 S6 1.482032 1_555
O89 S7 1.481597 1_555
O90 Si10 1.700047 1_555
O91 Si11 1.671095 1_555
O92 S8 1.481008 1_555
O93 Si12 1.638940 1_555
O94 S9 1.468177 1_555
O95 S10 1.496628 1_555
O96 Si6 1.650024 1_545
O97 Si7 1.669037 1_545
O98 Si4 1.664925 1_555
O99 Si5 1.643640 1_555
O100 S3 1.497778 1_555
O101 S2 1.480628 1_555
O102 Si2 1.667182 1_555
O103 Si3 1.642517 1_555
O104 S1 1.474888 1_555
O105 S0 1.493858 1_655
O106 Si0 1.650828 1_545
O107 Si1 1.640104 1_545
O108 Si13 1.649694 1_555
O109 Si14 1.655578 1_555
O110 S12 1.509596 1_555
O111 S11 1.482305 1_655
O112 Si15 1.659886 1_545
O113 Si16 1.651421 1_545
O114 Si17 1.659529 1_545
O115 Si18 1.651799 1_545
O116 Si19 1.675137 1_555
O117 Si20 1.662215 1_555
O118 S14 1.492422 1_555
O119 S13 1.498806 1_655
O120 S9 1.473437 1_555
O121 S10 1.458136 1_555
O122 Si11 1.664156 1_455
O123 Si10 1.632445 1_555
O124 S8 1.514980 1_565
O125 Si12 1.673770 1_565
O126 S4 1.467808 1_565
O127 S5 1.476406 1_565
O128 S6 1.512119 1_555
O129 S7 1.520751 1_555
O130 Si9 1.660170 1_455
O131 Si8 1.652078 1_555
O132 Si0 1.652643 1_555
O133 Si1 1.655988 1_555
O134 Si2 1.632610 1_555
O135 Si3 1.654321 1_555
O136 S0 1.475222 1_555
O137 S1 1.496083 1_555
O138 Si4 1.649166 1_555
O139 Si5 1.644397 1_555
O140 S2 1.500430 1_455
O141 S3 1.476805 1_555
O142 Si6 1.646531 1_555
O143 Si7 1.631518 1_555
