# generated using pymatgen
data_Na14Y4Si9Sn4(SO16)3
_symmetry_space_group_name_H-M   'P 1'
_cell_length_a   18.60687571
_cell_length_b   9.30417703
_cell_length_c   23.00194584
_cell_angle_alpha   89.95020458
_cell_angle_beta   89.45045237
_cell_angle_gamma   120.00433782
_symmetry_Int_Tables_number   1
_chemical_formula_structural   Na14Y4Si9Sn4(SO16)3
_chemical_formula_sum   'Na42 Y12 Si27 Sn12 S9 O144'
_cell_volume   3448.24705089
_cell_formula_units_Z   3
loop_
 _symmetry_equiv_pos_site_id
 _symmetry_equiv_pos_as_xyz
  1  'x, y, z'
loop_
 _atom_site_type_symbol
 _atom_site_label
 _atom_site_symmetry_multiplicity
 _atom_site_fract_x
 _atom_site_fract_y
 _atom_site_fract_z
 _atom_site_occupancy
  Na  Na0  1  0.82077487  0.00925579  0.25479840  1
  Na  Na1  1  0.17809064  0.35983058  0.25289535  1
  Na  Na2  1  0.69269002  0.37010251  0.25358809  1
  Na  Na3  1  0.99843875  0.63080487  0.24642708  1
  Na  Na4  1  0.50042881  0.64814638  0.24768421  1
  Na  Na5  1  0.32036699  0.63098356  0.75119542  1
  Na  Na6  1  0.99789762  0.35118788  0.74120240  1
  Na  Na7  1  0.50045578  0.36820048  0.74308264  1
  Na  Na8  1  0.19102932  0.01448707  0.74915595  1
  Na  Na9  1  0.68173099  0.00089077  0.74738362  1
  Na  Na10  1  0.14426490  0.31947052  0.58197994  1
  Na  Na11  1  0.65364631  0.33331432  0.58335870  1
  Na  Na12  1  0.33570841  0.98536999  0.58618331  1
  Na  Na13  1  0.83311785  0.96853750  0.58373694  1
  Na  Na14  1  0.14598911  0.96964180  0.08112940  1
  Na  Na15  1  0.64772435  0.97083290  0.08081135  1
  Na  Na16  1  0.33275044  0.68801440  0.08258888  1
  Na  Na17  1  0.83568020  0.68804162  0.08649403  1
  Na  Na18  1  0.48077614  0.67875609  0.91538457  1
  Na  Na19  1  0.98080611  0.67914365  0.92404177  1
  Na  Na20  1  0.34334073  0.01952222  0.90808091  1
  Na  Na21  1  0.84266675  0.01921052  0.91007619  1
  Na  Na22  1  0.17251478  0.29494205  0.91074653  1
  Na  Na23  1  0.66997918  0.29095628  0.91039652  1
  Na  Na24  1  0.48390558  0.28897255  0.42782915  1
  Na  Na25  1  0.97823396  0.28041526  0.42012535  1
  Na  Na26  1  0.16918070  0.04920177  0.41433846  1
  Na  Na27  1  0.67559804  0.05219912  0.41678766  1
  Na  Na28  1  0.34360988  0.66680437  0.41354313  1
  Na  Na29  1  0.84375133  0.66564442  0.41973433  1
  Na  Na30  1  0.99677942  0.99838595  0.50406628  1
  Na  Na31  1  0.50637573  0.01570139  0.50493457  1
  Na  Na32  1  0.00324777  0.99300144  0.00261051  1
  Na  Na33  1  0.50375681  0.99387914  0.99866107  1
  Na  Na34  1  0.32908014  0.33369349  0.82561308  1
  Na  Na35  1  0.82113730  0.32764869  0.82723695  1
  Na  Na36  1  0.32118437  0.31365106  0.33369393  1
  Na  Na37  1  0.82816782  0.32261499  0.33193795  1
  Na  Na38  1  0.15900857  0.65398363  0.16911535  1
  Na  Na39  1  0.66613905  0.66295225  0.16735973  1
  Na  Na40  1  0.16355401  0.66747042  0.66506666  1
  Na  Na41  1  0.66554131  0.66533025  0.66487571  1
  Y  Y0  1  0.00200942  0.00851738  0.34976485  1
  Y  Y1  1  0.49942942  0.00233035  0.35092780  1
  Y  Y2  1  0.99757192  0.99575329  0.84816245  1
  Y  Y3  1  0.50252639  0.99600918  0.84829798  1
  Y  Y4  1  0.33608051  0.32743152  0.68098231  1
  Y  Y5  1  0.83619180  0.34471045  0.18179048  1
  Y  Y6  1  0.32914330  0.33657145  0.98534274  1
  Y  Y7  1  0.82640124  0.33895607  0.98553151  1
  Y  Y8  1  0.32795727  0.31593767  0.48567067  1
  Y  Y9  1  0.82983288  0.33142662  0.48872235  1
  Y  Y10  1  0.67459975  0.67661364  0.31556643  1
  Y  Y11  1  0.17353402  0.67104526  0.81296827  1
  Si  Si0  1  0.15489349  0.00204440  0.24939769  1
  Si  Si1  1  0.64793461  0.99609369  0.24892904  1
  Si  Si2  1  0.35341166  0.70447659  0.24805630  1
  Si  Si3  1  0.85432209  0.70935670  0.24811609  1
  Si  Si4  1  0.00243579  0.30069973  0.25113696  1
  Si  Si5  1  0.14567087  0.29404760  0.74815897  1
  Si  Si6  1  0.65486679  0.30737037  0.75088281  1
  Si  Si7  1  0.50201479  0.70351957  0.75192593  1
  Si  Si8  1  0.35457373  0.00024680  0.74869306  1
  Si  Si9  1  0.85343510  0.01013815  0.74850312  1
  Si  Si10  1  0.48760900  0.33098314  0.58241852  1
  Si  Si11  1  0.98412577  0.33947629  0.58441162  1
  Si  Si12  1  0.17714614  0.02036438  0.58437111  1
  Si  Si13  1  0.67851616  0.02346408  0.58406987  1
  Si  Si14  1  0.83748241  0.63439996  0.58395786  1
  Si  Si15  1  0.48364708  0.62993869  0.08475478  1
  Si  Si16  1  0.98831117  0.64380356  0.08228646  1
  Si  Si17  1  0.17890121  0.33357347  0.08423624  1
  Si  Si18  1  0.67494276  0.33153842  0.08467680  1
  Si  Si19  1  0.31473384  0.67002825  0.92014212  1
  Si  Si20  1  0.80791597  0.66551020  0.91725581  1
  Si  Si21  1  0.16595889  0.95966710  0.91782083  1
  Si  Si22  1  0.66772118  0.95313053  0.91771407  1
  Si  Si23  1  0.30766980  0.95098595  0.41685158  1
  Si  Si24  1  0.81564608  0.96471199  0.41922460  1
  Si  Si25  1  0.16824707  0.38275325  0.41709783  1
  Si  Si26  1  0.66614787  0.37101289  0.41705824  1
  Sn  Sn0  1  0.99692191  0.00276801  0.64672729  1
  Sn  Sn1  1  0.50932929  0.01428675  0.65461785  1
  Sn  Sn2  1  0.00866041  0.00467957  0.15488956  1
  Sn  Sn3  1  0.50167137  0.99083829  0.15042974  1
  Sn  Sn4  1  0.82808339  0.32273970  0.67814173  1
  Sn  Sn5  1  0.32996207  0.34520710  0.18154815  1
  Sn  Sn6  1  0.16332958  0.66167935  0.01825291  1
  Sn  Sn7  1  0.66280248  0.66107754  0.01882586  1
  Sn  Sn8  1  0.16243773  0.66446562  0.51887413  1
  Sn  Sn9  1  0.67265440  0.66333738  0.52327640  1
  Sn  Sn10  1  0.17562798  0.67371845  0.30971438  1
  Sn  Sn11  1  0.67667122  0.68003788  0.80856361  1
  S  S0  1  0.49498367  0.29128433  0.24654168  1
  S  S1  1  0.99619368  0.69826164  0.74804051  1
  S  S2  1  0.33397076  0.63834007  0.58223162  1
  S  S3  1  0.33616648  0.04011532  0.08534866  1
  S  S4  1  0.83408910  0.03006515  0.08218492  1
  S  S5  1  0.01925508  0.37226013  0.91790517  1
  S  S6  1  0.52283533  0.37875009  0.91661298  1
  S  S7  1  0.02378623  0.66591148  0.41504765  1
  S  S8  1  0.52013543  0.66573158  0.41800287  1
  O  O0  1  0.12008762  0.04889324  0.30687577  1
  O  O1  1  0.60691261  0.02994440  0.30622170  1
  O  O2  1  0.40893477  0.77824022  0.30541188  1
  O  O3  1  0.90924932  0.78992217  0.30562463  1
  O  O4  1  0.48322373  0.19753806  0.30114574  1
  O  O5  1  0.98550723  0.19421070  0.31028343  1
  O  O6  1  0.10835585  0.18741372  0.80859900  1
  O  O7  1  0.61800275  0.19455243  0.80961491  1
  O  O8  1  0.48438325  0.77262596  0.81216959  1
  O  O9  1  0.98509659  0.76882095  0.80341090  1
  O  O10  1  0.40624404  0.02581135  0.80819510  1
  O  O11  1  0.90601716  0.04397989  0.80820900  1
  O  O12  1  0.40092286  0.96879378  0.69172577  1
  O  O13  1  0.89812798  0.97871332  0.69256016  1
  O  O14  1  0.08506166  0.19400412  0.69282977  1
  O  O15  1  0.59381122  0.22582164  0.69406454  1
  O  O16  1  0.00985969  0.81053118  0.69863513  1
  O  O17  1  0.52174688  0.83678229  0.69810881  1
  O  O18  1  0.39564353  0.82174243  0.18936624  1
  O  O19  1  0.89958284  0.83114200  0.18973114  1
  O  O20  1  0.02356042  0.21037187  0.19645457  1
  O  O21  1  0.50795797  0.20606190  0.19623840  1
  O  O22  1  0.09594960  0.96454833  0.19138998  1
  O  O23  1  0.58883480  0.96902240  0.19112783  1
  O  O24  1  0.44766115  0.36039974  0.64035849  1
  O  O25  1  0.94002958  0.36636250  0.64302896  1
  O  O26  1  0.23788593  0.10004288  0.63969733  1
  O  O27  1  0.74081996  0.10739797  0.64065805  1
  O  O28  1  0.32084395  0.53467212  0.63395454  1
  O  O29  1  0.81694377  0.50070444  0.63743265  1
  O  O30  1  0.43912571  0.51034897  0.14286343  1
  O  O31  1  0.94911092  0.53442126  0.14008586  1
  O  O32  1  0.32283995  0.12513239  0.13511404  1
  O  O33  1  0.82090626  0.10707626  0.13377509  1
  O  O34  1  0.24308177  0.37615782  0.13985345  1
  O  O35  1  0.73503298  0.37001223  0.13992736  1
  O  O36  1  0.21694351  0.28999635  0.02763741  1
  O  O37  1  0.71199374  0.28549870  0.02713516  1
  O  O38  1  0.42835668  0.55210168  0.02773657  1
  O  O39  1  0.93156038  0.56229144  0.02450940  1
  O  O40  1  0.34832141  0.13237302  0.03057855  1
  O  O41  1  0.84379807  0.12837050  0.02929589  1
  O  O42  1  0.21510565  0.13847448  0.52629378  1
  O  O43  1  0.71517178  0.14166297  0.52681630  1
  O  O44  1  0.34390502  0.55952754  0.52932623  1
  O  O45  1  0.85262339  0.56888514  0.52266681  1
  O  O46  1  0.42935366  0.29529882  0.52499854  1
  O  O47  1  0.93032697  0.30622464  0.52643394  1
  O  O48  1  0.26675932  0.69289706  0.97870870  1
  O  O49  1  0.76625698  0.69363889  0.97730158  1
  O  O50  1  0.07302722  0.45284219  0.96935109  1
  O  O51  1  0.57391625  0.45682659  0.96925867  1
  O  O52  1  0.15186628  0.83950625  0.97602650  1
  O  O53  1  0.65122978  0.83753264  0.97736494  1
  O  O54  1  0.26513829  0.83742180  0.47610153  1
  O  O55  1  0.76588934  0.84299722  0.47580831  1
  O  O56  1  0.15262708  0.46819725  0.47573344  1
  O  O57  1  0.65090035  0.46470312  0.47333550  1
  O  O58  1  0.07489237  0.69064300  0.46742986  1
  O  O59  1  0.57377294  0.68850893  0.46783279  1
  O  O60  1  0.06283696  0.64404910  0.36166066  1
  O  O61  1  0.55456417  0.64042521  0.36293294  1
  O  O62  1  0.24646834  0.86505358  0.36114850  1
  O  O63  1  0.76041039  0.88794674  0.36055537  1
  O  O64  1  0.18061246  0.49605338  0.35818915  1
  O  O65  1  0.67307763  0.46887962  0.35653067  1
  O  O66  1  0.05569232  0.47121493  0.86476663  1
  O  O67  1  0.56050260  0.47970657  0.86368723  1
  O  O68  1  0.17509399  0.87401253  0.85911311  1
  O  O69  1  0.67948261  0.86117428  0.86026648  1
  O  O70  1  0.25719944  0.63334031  0.86330214  1
  O  O71  1  0.74564818  0.62909378  0.86251707  1
  O  O72  1  0.01668377  0.81768879  0.41194869  1
  O  O73  1  0.51169204  0.81679331  0.41450331  1
  O  O74  1  0.39870984  0.96460231  0.41359688  1
  O  O75  1  0.90486643  0.96823952  0.41873664  1
  O  O76  1  0.08778197  0.19591450  0.41674242  1
  O  O77  1  0.58184888  0.18496241  0.41823841  1
  O  O78  1  0.01201386  0.20597313  0.91474212  1
  O  O79  1  0.51555074  0.21267721  0.91378842  1
  O  O80  1  0.08271755  0.97983021  0.91840314  1
  O  O81  1  0.58691808  0.97859357  0.91765064  1
  O  O82  1  0.40425831  0.84291264  0.92016099  1
  O  O83  1  0.89954911  0.83340405  0.91415280  1
  O  O84  1  0.49244278  0.15581453  0.58900607  1
  O  O85  1  0.99340183  0.17121750  0.58996802  1
  O  O86  1  0.08701148  0.01124309  0.59228415  1
  O  O87  1  0.58838948  0.01582199  0.59277580  1
  O  O88  1  0.40642663  0.80757539  0.58691767  1
  O  O89  1  0.91496671  0.82443721  0.59291652  1
  O  O90  1  0.48818923  0.81440745  0.09014386  1
  O  O91  1  0.99433572  0.82980866  0.08826870  1
  O  O92  1  0.40830892  0.01446175  0.09201821  1
  O  O93  1  0.90663426  0.00541956  0.08659531  1
  O  O94  1  0.08890802  0.16292577  0.09264654  1
  O  O95  1  0.58190585  0.16030222  0.09199526  1
  O  O96  1  0.34354622  0.16320353  0.74608951  1
  O  O97  1  0.84657245  0.18200059  0.74158268  1
  O  O98  1  0.23940972  0.32311224  0.74275695  1
  O  O99  1  0.74471188  0.31354040  0.74136931  1
  O  O100  1  0.41996280  0.52262288  0.74394841  1
  O  O101  1  0.92301823  0.52996776  0.74281292  1
  O  O102  1  0.34778561  0.51900389  0.24232590  1
  O  O103  1  0.84328229  0.52436010  0.24498930  1
  O  O104  1  0.42105496  0.31189808  0.24033729  1
  O  O105  1  0.92070927  0.31787428  0.24296669  1
  O  O106  1  0.24722477  0.17374730  0.23816313  1
  O  O107  1  0.74080857  0.15509505  0.24280170  1
  O  O108  1  0.32722720  0.50776726  0.92267374  1
  O  O109  1  0.82009388  0.50188888  0.91898928  1
  O  O110  1  0.43895871  0.35864124  0.92332667  1
  O  O111  1  0.93597602  0.35310945  0.92558879  1
  O  O112  1  0.25256671  0.13866460  0.92201159  1
  O  O113  1  0.75424921  0.13348378  0.92048140  1
  O  O114  1  0.31987419  0.13898260  0.41815886  1
  O  O115  1  0.82835136  0.15177767  0.42173491  1
  O  O116  1  0.25491320  0.37564510  0.41942605  1
  O  O117  1  0.75132646  0.36042808  0.41941392  1
  O  O118  1  0.43568125  0.51791920  0.42443674  1
  O  O119  1  0.94077307  0.51668612  0.42016431  1
  O  O120  1  0.17822246  0.51077108  0.07767462  1
  O  O121  1  0.67396791  0.50843671  0.07632155  1
  O  O122  1  0.08508996  0.67399764  0.07720511  1
  O  O123  1  0.58031626  0.66562114  0.08075468  1
  O  O124  1  0.25849901  0.87114163  0.08254366  1
  O  O125  1  0.75584327  0.86068871  0.07879482  1
  O  O126  1  0.17618386  0.84147917  0.57617490  1
  O  O127  1  0.67581110  0.84470050  0.57754211  1
  O  O128  1  0.25586898  0.65074761  0.57863894  1
  O  O129  1  0.75142623  0.64836086  0.58259463  1
  O  O130  1  0.08126967  0.49957952  0.58042265  1
  O  O131  1  0.58204820  0.49234452  0.57638611  1
  O  O132  1  0.15468471  0.82483555  0.25502851  1
  O  O133  1  0.64735876  0.81966563  0.24926805  1
  O  O134  1  0.25828970  0.67177749  0.25030574  1
  O  O135  1  0.76177033  0.69164429  0.24716088  1
  O  O136  1  0.08737733  0.48835530  0.25531627  1
  O  O137  1  0.57058504  0.45844578  0.24977379  1
  O  O138  1  0.14613801  0.47093427  0.74850585  1
  O  O139  1  0.65420602  0.48432315  0.75636346  1
  O  O140  1  0.07228284  0.68349010  0.75174247  1
  O  O141  1  0.58698497  0.68648568  0.75617618  1
  O  O142  1  0.26217023  0.83224908  0.74727461  1
  O  O143  1  0.75845411  0.84987067  0.75124725  1
loop_
_geom_bond_atom_site_label_1
_geom_bond_atom_site_label_2
_geom_bond_distance
_geom_bond_site_symmetry_2
Na0 O107 2.481482 1_555
Na0 O105 2.534905 1_555
Na0 O135 2.593975 1_545
Na0 O63 2.669837 1_545
Na0 O133 2.802719 1_545
Na0 O33 2.927624 1_555
Na0 O5 2.964598 1_555
Na1 O136 2.509789 1_555
Na1 O134 2.514089 1_555
Na1 O106 2.643344 1_555
Na1 O64 2.724435 1_555
Na1 O102 2.744089 1_555
Na1 O0 2.814494 1_555
Na1 O20 2.821790 1_555
Na1 O34 2.828721 1_555
Na2 O103 2.432542 1_555
Na2 O107 2.579337 1_555
Na2 O135 2.602663 1_555
Na2 O65 2.628172 1_555
Na2 O35 2.723431 1_555
Na2 O137 2.777895 1_555
Na2 O1 2.988969 1_555
Na3 O105 2.523168 1_555
Na3 O103 2.541435 1_555
Na3 O132 2.552030 1_655
Na3 O136 2.595506 1_655
Na3 O31 2.617917 1_555
Na3 O60 2.896630 1_655
Na3 O22 2.975111 1_655
Na3 O3 3.035996 1_555
Na4 O133 2.379253 1_555
Na4 O102 2.473779 1_555
Na4 O137 2.669641 1_555
Na4 O30 2.711768 1_555
Na4 O104 2.716982 1_555
Na4 O2 2.854269 1_555
Na4 O61 2.858420 1_555
Na4 O23 2.889971 1_555
Na5 O98 2.490613 1_555
Na5 O100 2.518230 1_555
Na5 O142 2.591719 1_555
Na5 O138 2.811903 1_555
Na5 O70 2.828289 1_555
Na5 O28 2.843822 1_555
Na6 O138 2.411096 1_655
Na6 O97 2.443918 1_555
Na6 O25 2.544959 1_555
Na6 O101 2.650748 1_555
Na6 O140 2.694728 1_655
Na6 O14 2.889230 1_655
Na6 O11 2.919391 1_555
Na6 O66 3.056932 1_655
Na7 O139 2.524069 1_555
Na7 O100 2.541562 1_555
Na7 O24 2.554773 1_555
Na7 O96 2.567736 1_555
Na7 O141 2.587470 1_555
Na7 O15 2.882698 1_555
Na7 O67 2.987588 1_555
Na8 O96 2.458006 1_555
Na8 O98 2.547352 1_555
Na8 O142 2.621608 1_545
Na8 O26 2.644468 1_555
Na8 O140 2.749813 1_545
Na8 O68 2.790241 1_545
Na9 O143 2.455326 1_545
Na9 O99 2.537957 1_555
Na9 O141 2.557437 1_545
Na9 O27 2.659260 1_555
Na9 O97 2.662245 1_555
Na9 O17 2.828298 1_545
Na9 O69 2.893305 1_545
Na9 O7 2.968271 1_555
Na10 O85 2.435841 1_455
Na10 O130 2.479636 1_555
Na10 O86 2.520681 1_555
Na10 O128 2.722788 1_555
Na10 O56 2.771837 1_555
Na10 O14 2.780709 1_555
Na10 O42 2.899216 1_555
Na11 O131 2.442341 1_555
Na11 O129 2.562853 1_555
Na11 O87 2.579526 1_555
Na11 O84 2.603676 1_555
Na11 O15 2.748046 1_555
Na11 O57 2.821575 1_555
Na11 O43 2.863359 1_555
Na11 O29 2.923682 1_555
Na12 O84 2.530314 1_565
Na12 O88 2.577905 1_555
Na12 O126 2.587497 1_555
Na12 O128 2.703762 1_555
Na12 O12 2.762767 1_555
Na12 O26 2.805017 1_565
Na12 O46 2.872771 1_565
Na12 O54 2.879696 1_555
Na13 O89 2.491857 1_555
Na13 O127 2.559393 1_555
Na13 O129 2.580247 1_555
Na13 O85 2.618230 1_565
Na13 O13 2.771620 1_555
Na13 O55 2.774087 1_555
Na13 O27 2.917494 1_565
Na13 O47 3.023883 1_565
Na14 O122 2.396596 1_555
Na14 O91 2.449734 1_455
Na14 O94 2.517539 1_565
Na14 O124 2.672753 1_555
Na14 O22 2.685492 1_555
Na14 O52 2.730403 1_554
Na14 O36 2.857962 1_565
Na15 O123 2.464774 1_555
Na15 O90 2.577276 1_555
Na15 O95 2.612973 1_565
Na15 O125 2.675769 1_555
Na15 O53 2.699519 1_554
Na15 O23 2.750992 1_555
Na15 O37 2.826612 1_565
Na16 O120 2.502772 1_555
Na16 O90 2.527146 1_555
Na16 O92 2.642952 1_565
Na16 O124 2.676982 1_555
Na16 O48 2.707602 1_554
Na16 O18 2.748480 1_555
Na16 O34 2.836772 1_555
Na16 O38 2.926635 1_555
Na17 O93 2.562005 1_565
Na17 O91 2.562092 1_555
Na17 O121 2.624197 1_555
Na17 O125 2.685061 1_555
Na17 O19 2.702188 1_555
Na17 O49 2.847621 1_554
Na17 O35 2.860212 1_555
Na17 O39 2.937036 1_555
Na18 O108 2.483213 1_555
Na18 O81 2.485504 1_555
Na18 O8 2.517654 1_555
Na18 O82 2.558138 1_555
Na18 O110 2.681091 1_555
Na18 O38 2.795621 1_556
Na19 O80 2.475543 1_655
Na19 O39 2.514122 1_556
Na19 O83 2.563989 1_555
Na19 O109 2.598123 1_555
Na19 O111 2.714334 1_555
Na19 O9 2.885631 1_555
Na20 O82 2.435194 1_545
Na20 O112 2.459083 1_555
Na20 O10 2.555747 1_555
Na20 O110 2.764657 1_555
Na20 O79 2.786323 1_555
Na20 O68 2.955224 1_545
Na20 O40 2.993865 1_556
Na21 O113 2.374155 1_555
Na21 O83 2.439115 1_545
Na21 O11 2.570463 1_555
Na21 O111 2.722562 1_555
Na21 O78 2.736897 1_655
Na21 O69 2.880726 1_545
Na21 O41 2.921758 1_556
Na22 O80 2.551991 1_545
Na22 O112 2.563757 1_555
Na22 O108 2.568722 1_555
Na22 O6 2.609606 1_555
Na22 O78 2.671058 1_555
Na22 O36 2.827576 1_556
Na22 O70 2.930227 1_555
Na23 O109 2.494246 1_555
Na23 O7 2.508550 1_555
Na23 O81 2.522862 1_545
Na23 O79 2.587603 1_555
Na23 O113 2.638780 1_555
Na23 O37 2.811377 1_556
Na23 O71 2.937214 1_555
Na24 O46 2.458829 1_555
Na24 O77 2.462290 1_555
Na24 O74 2.637283 1_545
Na24 O114 2.658206 1_555
Na24 O118 2.694723 1_555
Na24 O57 2.899696 1_555
Na24 O4 3.034684 1_555
Na25 O115 2.423046 1_555
Na25 O75 2.517210 1_545
Na25 O76 2.525644 1_655
Na25 O119 2.617418 1_555
Na25 O47 2.646708 1_555
Na25 O5 2.674086 1_555
Na26 O76 2.495314 1_555
Na26 O114 2.495972 1_555
Na26 O72 2.566046 1_545
Na26 O116 2.634759 1_555
Na26 O0 2.642950 1_555
Na26 O42 2.718048 1_555
Na27 O117 2.484743 1_555
Na27 O115 2.514457 1_555
Na27 O77 2.593031 1_555
Na27 O43 2.658344 1_555
Na27 O73 2.724653 1_545
Na27 O1 2.818305 1_555
Na27 O63 2.979125 1_545
Na28 O116 2.367349 1_555
Na28 O74 2.426359 1_555
Na28 O118 2.701433 1_555
Na28 O73 2.713938 1_555
Na28 O2 2.723204 1_555
Na28 O44 2.844337 1_555
Na28 O64 2.932931 1_555
Na28 O54 3.000731 1_555
Na29 O75 2.453067 1_555
Na29 O117 2.477477 1_555
Na29 O45 2.568251 1_555
Na29 O119 2.771742 1_555
Na29 O72 2.796972 1_655
Na29 O3 2.869767 1_555
Na29 O55 2.973929 1_555
Na30 O75 2.538006 1_555
Na30 O89 2.565941 1_555
Na30 O85 2.568699 1_565
Na30 O86 2.610675 1_665
Na30 O76 2.663709 1_665
Na30 O72 2.840295 1_655
Na31 O84 2.416417 1_555
Na31 O77 2.481518 1_555
Na31 O87 2.543359 1_555
Na31 O88 2.662555 1_545
Na31 O74 2.789842 1_545
Na31 O73 2.819117 1_545
Na32 O91 2.439626 1_455
Na32 O80 2.465754 1_554
Na32 O94 2.622560 1_565
Na32 O93 2.668032 1_465
Na32 O83 2.698706 1_454
Na32 O78 2.775165 1_564
Na33 O81 2.460098 1_555
Na33 O82 2.475602 1_555
Na33 O90 2.607433 1_556
Na33 O95 2.633418 1_566
Na33 O79 2.746212 1_565
Na33 O92 2.840744 1_566
Na34 O98 2.514528 1_555
Na34 O96 2.521367 1_555
Na34 O100 2.537425 1_555
Na34 O112 2.754080 1_555
Na34 O108 2.769372 1_555
Na34 O110 2.983285 1_555
Na35 O99 2.410015 1_555
Na35 O97 2.563260 1_555
Na35 O113 2.665735 1_555
Na35 O109 2.668205 1_555
Na35 O101 2.694855 1_555
Na36 O114 2.523959 1_555
Na36 O116 2.531546 1_555
Na36 O106 2.586148 1_555
Na36 O102 2.709183 1_555
Na36 O104 2.831705 1_555
Na36 O118 2.924064 1_555
Na37 O117 2.581820 1_555
Na37 O115 2.606279 1_555
Na37 O107 2.609773 1_555
Na37 O103 2.656533 1_555
Na37 O105 2.676498 1_555
Na37 O119 2.841295 1_555
Na38 O136 2.443863 1_555
Na38 O132 2.563003 1_555
Na38 O134 2.586214 1_555
Na38 O122 2.589809 1_555
Na38 O120 2.606553 1_555
Na38 O124 2.766969 1_555
Na39 O135 2.489038 1_555
Na39 O133 2.509883 1_555
Na39 O123 2.572875 1_555
Na39 O121 2.584942 1_555
Na39 O137 2.630754 1_555
Na39 O125 2.679146 1_555
Na40 O130 2.499095 1_555
Na40 O126 2.541978 1_555
Na40 O138 2.553764 1_555
Na40 O142 2.559528 1_555
Na40 O140 2.658939 1_555
Na40 O128 2.670051 1_555
Na41 O129 2.521025 1_555
Na41 O127 2.554413 1_555
Na41 O131 2.590860 1_555
Na41 O141 2.610599 1_555
Na41 O139 2.634257 1_555
Na41 O143 2.643287 1_555
O0 Si0 1.619969 1_555
O0 Y0 2.252506 1_555
O1 Si1 1.624924 1_545
O1 Y1 2.137607 1_555
O2 Si2 1.611663 1_555
O2 Y1 2.192011 1_565
O3 Si3 1.617931 1_555
O3 Y0 2.161657 1_665
O4 S0 1.479238 1_555
O4 Y1 2.291646 1_555
O5 Si4 1.615275 1_655
O5 Y0 2.106476 1_655
O6 Si5 1.639914 1_555
O6 Y2 2.131219 1_445
O7 Si6 1.630047 1_555
O7 Y3 2.193550 1_545
O8 Si7 1.626367 1_555
O8 Y3 2.104982 1_555
O9 S1 1.492558 1_555
O9 Y2 2.256050 1_555
O10 Si8 1.628264 1_555
O10 Y3 2.159952 1_545
O11 Si9 1.631227 1_555
O11 Y2 2.177568 1_545
O12 Si8 1.666685 1_565
O12 Sn1 2.022096 1_565
O13 Si9 1.629781 1_565
O13 Sn0 2.022775 1_565
O14 Si5 1.654593 1_555
O14 Sn0 2.024416 1_455
O15 Si6 1.656048 1_555
O15 Sn1 2.025874 1_555
O16 S1 1.474446 1_455
O16 Sn0 2.261655 1_465
O17 Si7 1.654650 1_555
O17 Sn1 2.040809 1_565
O18 Si2 1.658307 1_555
O18 Sn3 2.007210 1_555
O19 Si3 1.678693 1_555
O19 Sn2 2.014356 1_665
O20 Si4 1.663015 1_555
O20 Sn2 2.032529 1_555
O21 S0 1.487787 1_555
O21 Sn3 2.214865 1_545
O22 Si0 1.658653 1_565
O22 Sn2 2.028402 1_565
O23 Si1 1.670925 1_555
O23 Sn3 1.976347 1_555
O24 Si10 1.608939 1_555
O24 Y4 2.145477 1_555
O25 Si11 1.654803 1_555
O25 Sn4 2.068196 1_555
O26 Si12 1.624100 1_555
O26 Y4 2.210626 1_555
O27 Si13 1.665329 1_555
O27 Sn4 2.042139 1_555
O28 S2 1.470465 1_555
O28 Y4 2.348929 1_555
O29 Si14 1.649012 1_555
O29 Sn4 2.001447 1_555
O30 Si15 1.662875 1_555
O30 Sn5 2.029776 1_555
O31 Si16 1.603732 1_555
O31 Y5 2.167862 1_555
O32 S3 1.479807 1_555
O32 Sn5 2.255260 1_555
O33 S4 1.467463 1_555
O33 Y5 2.360195 1_555
O34 Si17 1.666339 1_555
O34 Sn5 2.027528 1_555
O35 Si18 1.618992 1_555
O35 Y5 2.236752 1_555
O36 Si17 1.621916 1_555
O36 Y6 2.132647 1_554
O37 Si18 1.639952 1_555
O37 Y7 2.143821 1_554
O38 Si15 1.607907 1_555
O38 Y6 2.171557 1_554
O39 Si16 1.638336 1_555
O39 Y7 2.218285 1_554
O40 S3 1.474316 1_555
O40 Y6 2.345498 1_554
O41 S4 1.475740 1_555
O41 Y7 2.365218 1_554
O42 Si12 1.641392 1_555
O42 Y8 2.121499 1_555
O43 Si13 1.624513 1_555
O43 Y9 2.151966 1_555
O44 S2 1.478373 1_555
O44 Y8 2.360092 1_555
O45 Si14 1.613733 1_555
O45 Y9 2.177852 1_555
O46 Si10 1.642531 1_555
O46 Y8 2.193059 1_555
O47 Si11 1.610232 1_555
O47 Y9 2.184757 1_555
O48 Si19 1.680565 1_555
O48 Sn6 2.005579 1_556
O49 Si20 1.661311 1_555
O49 Sn7 2.022507 1_556
O50 S5 1.495837 1_555
O50 Sn6 2.153780 1_556
O51 S6 1.493505 1_555
O51 Sn7 2.131490 1_556
O52 Si21 1.675901 1_555
O52 Sn6 2.020027 1_556
O53 Si22 1.671183 1_555
O53 Sn7 2.001518 1_556
O54 Si23 1.655487 1_555
O54 Sn8 2.023584 1_555
O55 Si24 1.661122 1_555
O55 Sn9 2.013989 1_555
O56 Si25 1.661621 1_555
O56 Sn8 2.006477 1_555
O57 Si26 1.660821 1_555
O57 Sn9 2.040455 1_555
O58 S7 1.487479 1_555
O58 Sn8 2.132205 1_555
O59 S8 1.471578 1_555
O59 Sn9 2.354115 1_555
O60 S7 1.486094 1_555
O60 Sn10 2.297892 1_555
O61 S8 1.485327 1_555
O61 Y10 2.342958 1_555
O62 Si23 1.642220 1_555
O62 Sn10 1.998256 1_555
O63 Si24 1.637595 1_555
O63 Y10 2.093277 1_555
O64 Si25 1.658079 1_555
O64 Sn10 2.033831 1_555
O65 Si26 1.631274 1_555
O65 Y10 2.136801 1_555
O66 S5 1.469415 1_555
O66 Y11 2.356475 1_555
O67 S6 1.476078 1_555
O67 Sn11 2.380754 1_555
O68 Si21 1.618801 1_555
O68 Y11 2.154746 1_555
O69 Si22 1.646117 1_555
O69 Sn11 2.043017 1_555
O70 Si19 1.622988 1_555
O70 Y11 2.113543 1_555
O71 Si20 1.636647 1_555
O71 Sn11 2.012467 1_555
O72 S7 1.484387 1_555
O72 Y0 2.400165 1_565
O73 S8 1.492479 1_555
O73 Y1 2.359345 1_565
O74 Si23 1.635270 1_555
O74 Y1 2.236671 1_565
O75 Si24 1.643875 1_555
O75 Y0 2.278382 1_665
O76 Si25 1.631215 1_555
O76 Y0 2.286794 1_555
O77 Si26 1.655629 1_555
O77 Y1 2.253948 1_555
O78 S5 1.486291 1_555
O78 Y2 2.393879 1_445
O79 S6 1.483586 1_555
O79 Y3 2.432199 1_545
O80 Si21 1.650623 1_555
O80 Y2 2.329327 1_455
O81 Si22 1.634903 1_555
O81 Y3 2.310601 1_555
O82 Si19 1.637806 1_555
O82 Y3 2.331893 1_555
O83 Si20 1.638917 1_555
O83 Y2 2.258281 1_555
O84 Si10 1.683370 1_555
O84 Sn1 2.128335 1_555
O85 Si11 1.663509 1_555
O85 Sn0 2.065416 1_555
O86 Si12 1.644642 1_555
O86 Sn0 2.052258 1_455
O87 Si13 1.652781 1_555
O87 Sn1 2.031381 1_555
O88 S2 1.479365 1_555
O88 Sn1 2.483842 1_565
O89 Si14 1.644445 1_555
O89 Sn0 2.029706 1_565
O90 Si15 1.680415 1_555
O90 Sn3 2.068645 1_555
O91 Si16 1.683225 1_555
O91 Sn2 2.155225 1_665
O92 S3 1.485505 1_555
O92 Sn3 2.301621 1_545
O93 S4 1.482259 1_555
O93 Sn2 2.478288 1_655
O94 Si17 1.642104 1_555
O94 Sn2 2.050297 1_555
O95 Si18 1.673019 1_555
O95 Sn3 2.031027 1_545
O96 Si8 1.629633 1_555
O96 Y4 2.192985 1_555
O97 Si9 1.674135 1_555
O97 Sn4 2.102225 1_555
O98 Si5 1.629359 1_555
O98 Y4 2.265993 1_555
O99 Si6 1.656159 1_555
O99 Sn4 2.086306 1_555
O100 Si7 1.622753 1_555
O100 Y4 2.246103 1_555
O101 S1 1.480325 1_555
O101 Sn4 2.387419 1_555
O102 Si2 1.681148 1_555
O102 Sn5 2.038551 1_555
O103 Si3 1.630006 1_555
O103 Y5 2.170685 1_555
O104 S0 1.488946 1_555
O104 Sn5 2.316491 1_555
O105 Si4 1.619186 1_655
O105 Y5 2.224886 1_555
O106 Si0 1.678179 1_555
O106 Sn5 2.027934 1_555
O107 Si1 1.622608 1_545
O107 Y5 2.246817 1_555
O108 Si19 1.639433 1_555
O108 Y6 2.161050 1_555
O109 Si20 1.647904 1_555
O109 Y7 2.198177 1_555
O110 S6 1.482522 1_555
O110 Y6 2.403362 1_555
O111 S5 1.477391 1_655
O111 Y7 2.398448 1_555
O112 Si21 1.642845 1_545
O112 Y6 2.227862 1_555
O113 Si22 1.646859 1_545
O113 Y7 2.274337 1_555
O114 Si23 1.647718 1_545
O114 Y8 2.214972 1_555
O115 Si24 1.636293 1_545
O115 Y9 2.264514 1_555
O116 Si25 1.648026 1_555
O116 Y8 2.295874 1_555
O117 Si26 1.637776 1_555
O117 Y9 2.277352 1_555
O118 S8 1.488766 1_555
O118 Y8 2.388955 1_555
O119 S7 1.476066 1_655
O119 Y9 2.468461 1_555
O120 Si17 1.661778 1_555
O120 Sn6 2.075926 1_555
O121 Si18 1.666015 1_555
O121 Sn7 2.026390 1_555
O122 Si16 1.680845 1_455
O122 Sn6 2.024976 1_555
O123 Si15 1.659391 1_555
O123 Sn7 2.099915 1_555
O124 S3 1.514585 1_565
O124 Sn6 2.392585 1_555
O125 S4 1.522154 1_565
O125 Sn7 2.276771 1_555
O126 Si12 1.666382 1_565
O126 Sn8 2.025846 1_555
O127 Si13 1.645699 1_565
O127 Sn9 2.077227 1_555
O128 S2 1.517269 1_555
O128 Sn8 2.279435 1_555
O129 Si14 1.670566 1_555
O129 Sn9 2.066800 1_555
O130 Si11 1.672808 1_455
O130 Sn8 2.068031 1_555
O131 Si10 1.648490 1_555
O131 Sn9 2.034779 1_555
O132 Si0 1.651813 1_565
O132 Sn10 2.065267 1_555
O133 Si1 1.636197 1_555
O133 Y10 2.245005 1_555
O134 Si2 1.639369 1_555
O134 Sn10 2.054476 1_555
O135 Si3 1.646257 1_555
O135 Y10 2.202256 1_555
O136 Si4 1.673017 1_555
O136 Sn10 2.108855 1_555
O137 S0 1.489086 1_555
O137 Y10 2.507745 1_555
O138 Si5 1.641482 1_555
O138 Y11 2.234963 1_555
O139 Si6 1.657484 1_555
O139 Sn11 2.045602 1_555
O140 S1 1.492473 1_455
O140 Y11 2.411404 1_555
O141 Si7 1.669692 1_555
O141 Sn11 2.092620 1_555
O142 Si8 1.647350 1_565
O142 Y11 2.174226 1_555
O143 Si9 1.647092 1_565
O143 Sn11 2.025759 1_555
