# generated using pymatgen
data_Na6Al4In4Si3(S3O16)3
_symmetry_space_group_name_H-M   'P 1'
_cell_length_a   17.43097660
_cell_length_b   8.73367783
_cell_length_c   22.44487456
_cell_angle_alpha   90.26548007
_cell_angle_beta   89.77134895
_cell_angle_gamma   119.97831962
_symmetry_Int_Tables_number   1
_chemical_formula_structural   Na6Al4In4Si3(S3O16)3
_chemical_formula_sum   'Na18 Al12 In12 Si9 S27 O144'
_cell_volume   2959.75705201
_cell_formula_units_Z   3
loop_
 _symmetry_equiv_pos_site_id
 _symmetry_equiv_pos_as_xyz
  1  'x, y, z'
loop_
 _atom_site_type_symbol
 _atom_site_label
 _atom_site_symmetry_multiplicity
 _atom_site_fract_x
 _atom_site_fract_y
 _atom_site_fract_z
 _atom_site_occupancy
  Na  Na0  1  0.00645952  0.64763157  0.25613604  1
  Na  Na1  1  0.50474134  0.36877763  0.73963854  1
  Na  Na2  1  0.16082071  0.31227945  0.91010505  1
  Na  Na3  1  0.66004368  0.30620128  0.90857314  1
  Na  Na4  1  0.16121918  0.01778815  0.41641774  1
  Na  Na5  1  0.65974552  0.00734636  0.41650297  1
  Na  Na6  1  0.99467174  0.98298895  0.49603986  1
  Na  Na7  1  0.48897091  0.99779368  0.49941620  1
  Na  Na8  1  0.99097916  0.00065760  0.99318901  1
  Na  Na9  1  0.49503422  0.00754547  0.99344381  1
  Na  Na10  1  0.33301435  0.33229376  0.82797434  1
  Na  Na11  1  0.84374481  0.33682466  0.83532212  1
  Na  Na12  1  0.34492953  0.35230498  0.33835452  1
  Na  Na13  1  0.83036162  0.32843950  0.33418038  1
  Na  Na14  1  0.17613342  0.68720199  0.17337081  1
  Na  Na15  1  0.66352536  0.68301945  0.17186836  1
  Na  Na16  1  0.16804787  0.64782477  0.67022934  1
  Na  Na17  1  0.66700414  0.65147814  0.66697492  1
  Al  Al0  1  0.00097402  0.99252733  0.35166131  1
  Al  Al1  1  0.50700799  0.99623515  0.34778859  1
  Al  Al2  1  0.00857022  0.02366155  0.84480517  1
  Al  Al3  1  0.50170142  0.01351668  0.84836691  1
  Al  Al4  1  0.32645336  0.33029443  0.68147818  1
  Al  Al5  1  0.82622339  0.32147422  0.18783354  1
  Al  Al6  1  0.34091835  0.33342514  0.97814943  1
  Al  Al7  1  0.83462791  0.32820625  0.98156345  1
  Al  Al8  1  0.34526377  0.34815700  0.48618856  1
  Al  Al9  1  0.84096474  0.34654638  0.47937466  1
  Al  Al10  1  0.16193804  0.67020512  0.31982022  1
  Al  Al11  1  0.65919219  0.65528170  0.81733223  1
  In  In0  1  0.99837154  0.00634318  0.64756184  1
  In  In1  1  0.50702106  0.01945916  0.64714468  1
  In  In2  1  0.00781942  0.00043675  0.14988603  1
  In  In3  1  0.49877724  0.98816098  0.14933253  1
  In  In4  1  0.83115589  0.33870743  0.69128483  1
  In  In5  1  0.33152515  0.32672527  0.19216530  1
  In  In6  1  0.15911194  0.65165496  0.01280394  1
  In  In7  1  0.66544003  0.65523957  0.01354626  1
  In  In8  1  0.16759557  0.67520923  0.51428621  1
  In  In9  1  0.64334494  0.64396046  0.51952749  1
  In  In10  1  0.65834861  0.67185133  0.31920149  1
  In  In11  1  0.15884696  0.64394485  0.81677956  1
  Si  Si0  1  0.14811485  0.99333697  0.25590695  1
  Si  Si1  1  0.65190663  0.00660602  0.24890935  1
  Si  Si2  1  0.15489767  0.29565610  0.74752245  1
  Si  Si3  1  0.64972469  0.30529864  0.75718921  1
  Si  Si4  1  0.47044409  0.32590773  0.58886129  1
  Si  Si5  1  0.00739610  0.34969050  0.91694551  1
  Si  Si6  1  0.51454347  0.36059297  0.91421755  1
  Si  Si7  1  0.01433461  0.66649136  0.41475271  1
  Si  Si8  1  0.50575732  0.66536665  0.41557666  1
  S  S0  1  0.34873852  0.71287648  0.25513931  1
  S  S1  1  0.85257071  0.70417807  0.24888262  1
  S  S2  1  0.00108140  0.29356438  0.25138817  1
  S  S3  1  0.50232439  0.28611674  0.25187085  1
  S  S4  1  0.00199851  0.71972452  0.75264734  1
  S  S5  1  0.50321370  0.71984112  0.75428691  1
  S  S6  1  0.35237410  0.99589516  0.75318283  1
  S  S7  1  0.84896547  0.98506844  0.75557643  1
  S  S8  1  0.97547654  0.33293606  0.58123907  1
  S  S9  1  0.19278123  0.05260984  0.57925454  1
  S  S10  1  0.69554167  0.05127474  0.57789330  1
  S  S11  1  0.32991741  0.61160755  0.58327766  1
  S  S12  1  0.83446345  0.62631598  0.57907160  1
  S  S13  1  0.47495729  0.61742954  0.08100924  1
  S  S14  1  0.96936392  0.60828870  0.08500753  1
  S  S15  1  0.33239484  0.04079421  0.07920755  1
  S  S16  1  0.83276886  0.05174870  0.08442188  1
  S  S17  1  0.19133605  0.33551130  0.07919223  1
  S  S18  1  0.69623689  0.33594596  0.08138658  1
  S  S19  1  0.32426446  0.67063728  0.91910673  1
  S  S20  1  0.81871986  0.67124113  0.91564867  1
  S  S21  1  0.16736346  0.97225387  0.91839494  1
  S  S22  1  0.66488613  0.95970754  0.91594494  1
  S  S23  1  0.31860701  0.96426403  0.41293680  1
  S  S24  1  0.82283344  0.97226757  0.41866679  1
  S  S25  1  0.16228217  0.37008702  0.41266604  1
  S  S26  1  0.66790444  0.36331441  0.41629070  1
  O  O0  1  0.09217075  0.01777100  0.30951079  1
  O  O1  1  0.60275161  0.02577957  0.30845169  1
  O  O2  1  0.41012722  0.81893630  0.30252513  1
  O  O3  1  0.91081332  0.79589307  0.30055647  1
  O  O4  1  0.49419167  0.17208636  0.30209287  1
  O  O5  1  0.98186497  0.17130271  0.30137534  1
  O  O6  1  0.10854994  0.18414816  0.80934926  1
  O  O7  1  0.59932031  0.17767264  0.81400207  1
  O  O8  1  0.48963219  0.81128764  0.80539797  1
  O  O9  1  0.99406517  0.81868096  0.80357625  1
  O  O10  1  0.40893125  0.01153971  0.80510276  1
  O  O11  1  0.91053718  0.00473057  0.80389386  1
  O  O12  1  0.38474489  0.95554754  0.69764288  1
  O  O13  1  0.87577833  0.94318422  0.69732156  1
  O  O14  1  0.09095760  0.21798502  0.68945880  1
  O  O15  1  0.58955530  0.23382055  0.69716621  1
  O  O16  1  0.00111969  0.79551527  0.69405849  1
  O  O17  1  0.51531404  0.81376155  0.69716399  1
  O  O18  1  0.37450414  0.80482525  0.19594929  1
  O  O19  1  0.88461751  0.81171403  0.19346696  1
  O  O20  1  0.01520318  0.22578633  0.19365335  1
  O  O21  1  0.50183883  0.20867376  0.19246737  1
  O  O22  1  0.08874666  0.93510220  0.19357301  1
  O  O23  1  0.59373650  0.96181447  0.18760182  1
  O  O24  1  0.42196108  0.34026418  0.65012586  1
  O  O25  1  0.93719501  0.34755494  0.63864968  1
  O  O26  1  0.24087694  0.14737785  0.63326954  1
  O  O27  1  0.74002222  0.13414474  0.63458546  1
  O  O28  1  0.31978876  0.50952984  0.63820714  1
  O  O29  1  0.82556767  0.53516695  0.63631791  1
  O  O30  1  0.43654461  0.52674223  0.13816992  1
  O  O31  1  0.92659594  0.51060208  0.14094316  1
  O  O32  1  0.32331321  0.11505417  0.13622111  1
  O  O33  1  0.82819977  0.14192971  0.13946096  1
  O  O34  1  0.23680883  0.34441150  0.13537413  1
  O  O35  1  0.74733945  0.34286920  0.13469971  1
  O  O36  1  0.23944862  0.32749064  0.02568210  1
  O  O37  1  0.74013604  0.32497912  0.02506536  1
  O  O38  1  0.42232083  0.51555067  0.02914085  1
  O  O39  1  0.91913640  0.51461186  0.03113784  1
  O  O40  1  0.33798822  0.14995265  0.02735646  1
  O  O41  1  0.83680686  0.15146491  0.03021539  1
  O  O42  1  0.23554338  0.14969087  0.52285887  1
  O  O43  1  0.74305852  0.16226698  0.52507294  1
  O  O44  1  0.32930289  0.51675393  0.52842145  1
  O  O45  1  0.84161509  0.52812983  0.52735081  1
  O  O46  1  0.41917765  0.32227562  0.52858416  1
  O  O47  1  0.92337539  0.32899002  0.52923523  1
  O  O48  1  0.29003544  0.72048795  0.97249921  1
  O  O49  1  0.79187325  0.72460081  0.97251543  1
  O  O50  1  0.07929732  0.41717609  0.97299864  1
  O  O51  1  0.58235592  0.42358320  0.97255793  1
  O  O52  1  0.15298712  0.86973094  0.97427017  1
  O  O53  1  0.65227535  0.86311380  0.97295861  1
  O  O54  1  0.29178397  0.85919334  0.46930177  1
  O  O55  1  0.78682142  0.85421631  0.47013266  1
  O  O56  1  0.14851121  0.43979542  0.46989832  1
  O  O57  1  0.65611189  0.44244009  0.47107531  1
  O  O58  1  0.08413956  0.73660702  0.47121928  1
  O  O59  1  0.58240542  0.74089392  0.46823329  1
  O  O60  1  0.06240483  0.63092828  0.35750847  1
  O  O61  1  0.54154817  0.60162078  0.35866983  1
  O  O62  1  0.25336093  0.86330267  0.36495928  1
  O  O63  1  0.76519798  0.90170408  0.36494592  1
  O  O64  1  0.17869636  0.49290967  0.36260608  1
  O  O65  1  0.69148293  0.47971215  0.36381022  1
  O  O66  1  0.04721629  0.48979621  0.86272417  1
  O  O67  1  0.56578465  0.49994706  0.86008874  1
  O  O68  1  0.19059957  0.89831608  0.86733344  1
  O  O69  1  0.68384422  0.87468042  0.86550747  1
  O  O70  1  0.26321286  0.62554285  0.86773899  1
  O  O71  1  0.75350087  0.63652931  0.86771829  1
  O  O72  1  0.00166255  0.83939203  0.40556183  1
  O  O73  1  0.50010306  0.84449022  0.40393771  1
  O  O74  1  0.40873883  0.00481376  0.39844994  1
  O  O75  1  0.91330997  0.00631326  0.40496935  1
  O  O76  1  0.07976191  0.19544623  0.40391248  1
  O  O77  1  0.58526153  0.19005400  0.40738284  1
  O  O78  1  0.00056047  0.15854194  0.90302329  1
  O  O79  1  0.49981504  0.16104305  0.90489007  1
  O  O80  1  0.08585302  0.98383452  0.90940104  1
  O  O81  1  0.58401184  0.97298478  0.90763479  1
  O  O82  1  0.41391678  0.81520938  0.90651225  1
  O  O83  1  0.90911485  0.81064275  0.90214946  1
  O  O84  1  0.47778879  0.14651774  0.58313587  1
  O  O85  1  0.97728158  0.16376608  0.57883140  1
  O  O86  1  0.10149084  0.02556738  0.57924194  1
  O  O87  1  0.60477217  0.02550076  0.57713165  1
  O  O88  1  0.41328890  0.78247731  0.58516009  1
  O  O89  1  0.91892577  0.80209305  0.58003557  1
  O  O90  1  0.47714893  0.79047873  0.07874501  1
  O  O91  1  0.97446933  0.78428620  0.08395255  1
  O  O92  1  0.41496765  0.02814038  0.07973126  1
  O  O93  1  0.91474206  0.03750951  0.08536596  1
  O  O94  1  0.10135474  0.17315432  0.07818970  1
  O  O95  1  0.60621582  0.17890451  0.08124133  1
  O  O96  1  0.35408742  0.16756540  0.74980671  1
  O  O97  1  0.84880435  0.15496507  0.75234243  1
  O  O98  1  0.25048920  0.30348750  0.73903218  1
  O  O99  1  0.74604541  0.31749761  0.75619067  1
  O  O100  1  0.42594406  0.53773582  0.75118647  1
  O  O101  1  0.92518786  0.53650595  0.75593462  1
  O  O102  1  0.34876850  0.54260966  0.25218541  1
  O  O103  1  0.85633210  0.53591497  0.24090651  1
  O  O104  1  0.42480894  0.31461111  0.25458541  1
  O  O105  1  0.92439349  0.32698459  0.24438117  1
  O  O106  1  0.24333089  0.17486320  0.25462924  1
  O  O107  1  0.74811478  0.19289969  0.24214341  1
  O  O108  1  0.32584012  0.50309291  0.93037528  1
  O  O109  1  0.81683428  0.49778179  0.92516850  1
  O  O110  1  0.41868544  0.34695144  0.92525104  1
  O  O111  1  0.91201256  0.33265445  0.93123583  1
  O  O112  1  0.24216525  0.15939451  0.92759572  1
  O  O113  1  0.74124338  0.14613686  0.92302627  1
  O  O114  1  0.31589955  0.13218854  0.42045128  1
  O  O115  1  0.82733548  0.14673399  0.42948901  1
  O  O116  1  0.23736479  0.33634141  0.41763967  1
  O  O117  1  0.74202825  0.32276024  0.42499106  1
  O  O118  1  0.40951981  0.49576877  0.42973084  1
  O  O119  1  0.91864127  0.48946779  0.42546850  1
  O  O120  1  0.18398032  0.49836243  0.07933074  1
  O  O121  1  0.69310375  0.50367742  0.08217621  1
  O  O122  1  0.06010966  0.63081643  0.08357143  1
  O  O123  1  0.56604828  0.64441896  0.07842261  1
  O  O124  1  0.25278627  0.86095231  0.07490282  1
  O  O125  1  0.75210999  0.87310042  0.08207343  1
  O  O126  1  0.18991487  0.87881714  0.58135824  1
  O  O127  1  0.69490285  0.88155610  0.57576215  1
  O  O128  1  0.25090794  0.63703165  0.58102720  1
  O  O129  1  0.75776645  0.65184784  0.57359350  1
  O  O130  1  0.06642203  0.48734815  0.57873432  1
  O  O131  1  0.56994846  0.50404795  0.59123452  1
  O  O132  1  0.15962313  0.81857842  0.26412063  1
  O  O133  1  0.67199408  0.84366167  0.25306407  1
  O  O134  1  0.25775101  0.67708097  0.26697791  1
  O  O135  1  0.76094714  0.65967073  0.25843892  1
  O  O136  1  0.08254628  0.46900562  0.26039922  1
  O  O137  1  0.58596591  0.45649003  0.25372151  1
  O  O138  1  0.17359792  0.49813142  0.75185710  1
  O  O139  1  0.65888971  0.50209083  0.76380768  1
  O  O140  1  0.08595346  0.71733155  0.75482037  1
  O  O141  1  0.58557978  0.70739329  0.76239995  1
  O  O142  1  0.26061188  0.85366588  0.76191382  1
  O  O143  1  0.75900392  0.83925507  0.76875686  1
loop_
_geom_bond_atom_site_label_1
_geom_bond_atom_site_label_2
_geom_bond_distance
_geom_bond_site_symmetry_2
Na0 O103 2.317170 1_455
Na0 O132 2.325275 1_555
Na0 O105 2.439490 1_455
Na0 O136 2.504402 1_555
Na0 O60 2.512402 1_555
Na0 O22 2.598163 1_555
Na0 O3 2.753627 1_455
Na0 O31 2.896564 1_455
Na1 O96 2.328848 1_555
Na1 O139 2.397709 1_555
Na1 O24 2.416606 1_555
Na1 O100 2.479974 1_555
Na1 O15 2.490661 1_555
Na1 O141 2.611474 1_555
Na1 O67 2.920535 1_555
Na2 O112 2.418432 1_555
Na2 O78 2.425884 1_555
Na2 O50 2.474745 1_555
Na2 O6 2.484082 1_555
Na2 O80 2.487985 1_545
Na2 O108 2.543842 1_555
Na2 O70 2.589547 1_555
Na2 O36 2.910108 1_556
Na3 O7 2.386310 1_555
Na3 O109 2.416645 1_555
Na3 O79 2.424249 1_555
Na3 O113 2.459278 1_555
Na3 O51 2.511062 1_555
Na3 O81 2.524172 1_545
Na3 O71 2.670891 1_555
Na3 O37 2.934062 1_556
Na4 O114 2.363282 1_555
Na4 O116 2.410821 1_555
Na4 O72 2.427665 1_545
Na4 O58 2.462986 1_545
Na4 O76 2.590598 1_555
Na4 O42 2.687162 1_555
Na4 O0 2.688706 1_555
Na4 O62 2.805417 1_545
Na5 O59 2.336312 1_545
Na5 O117 2.393912 1_555
Na5 O73 2.427613 1_545
Na5 O77 2.519801 1_555
Na5 O115 2.559351 1_555
Na5 O1 2.660290 1_555
Na5 O63 2.690184 1_545
Na5 O43 2.812811 1_555
Na6 O89 2.390961 1_555
Na6 O72 2.416372 1_655
Na6 O86 2.534159 1_665
Na6 O85 2.546433 1_565
Na6 O75 2.558661 1_565
Na6 O76 2.679439 1_665
Na7 O84 2.341699 1_565
Na7 O88 2.552347 1_555
Na7 O73 2.579245 1_555
Na7 O87 2.590696 1_565
Na7 O77 2.663020 1_565
Na7 O74 2.684669 1_565
Na8 O78 2.412033 1_655
Na8 O80 2.551194 1_645
Na8 O93 2.559138 1_556
Na8 O83 2.567285 1_545
Na8 O94 2.591740 1_656
Na8 O91 2.700271 1_546
Na9 O79 2.380407 1_555
Na9 O92 2.440712 1_556
Na9 O82 2.499220 1_545
Na9 O81 2.577710 1_545
Na9 O90 2.606731 1_546
Na9 O95 2.642647 1_556
Na10 O98 2.402989 1_555
Na10 O96 2.404675 1_555
Na10 O100 2.432197 1_555
Na10 O110 2.616465 1_555
Na10 O112 2.720468 1_555
Na10 O108 2.770507 1_555
Na11 O101 2.401280 1_555
Na11 O99 2.411907 1_555
Na11 O97 2.471950 1_555
Na11 O111 2.473110 1_555
Na11 O113 2.620988 1_555
Na11 O109 2.624490 1_555
Na12 O118 2.372485 1_555
Na12 O104 2.452272 1_555
Na12 O106 2.515199 1_555
Na12 O114 2.529897 1_555
Na12 O116 2.533006 1_555
Na12 O102 2.534778 1_555
Na13 O107 2.455398 1_555
Na13 O119 2.525814 1_555
Na13 O117 2.535195 1_555
Na13 O105 2.596783 1_555
Na13 O115 2.654102 1_555
Na13 O103 2.660644 1_555
Na14 O132 2.419057 1_555
Na14 O134 2.568514 1_555
Na14 O124 2.637012 1_555
Na14 O136 2.647760 1_555
Na14 O120 2.717495 1_555
Na14 O122 2.724532 1_555
Na15 O133 2.254532 1_555
Na15 O137 2.541274 1_555
Na15 O125 2.578116 1_555
Na15 O123 2.617081 1_555
Na15 O135 2.660243 1_555
Na15 O121 2.746158 1_555
Na16 O138 2.285886 1_555
Na16 O128 2.492938 1_555
Na16 O130 2.615495 1_555
Na16 O140 2.618547 1_555
Na16 O142 2.676461 1_555
Na16 O126 2.730721 1_555
Na17 O131 2.288173 1_555
Na17 O139 2.507054 1_555
Na17 O129 2.620001 1_555
Na17 O141 2.738418 1_555
Na17 O127 2.742113 1_555
Na17 O143 2.801139 1_555
Al0 O0 1.763608 1_565
Al0 O72 1.812076 1_555
Al0 O75 1.987215 1_465
Al0 O76 1.990873 1_565
Al0 O3 2.008433 1_455
Al0 O5 2.088482 1_465
Al1 O1 1.786438 1_565
Al1 O73 1.792763 1_555
Al1 O2 1.915088 1_555
Al1 O4 1.954459 1_565
Al1 O77 2.049696 1_565
Al1 O74 2.084375 1_565
Al2 O6 1.786959 1_555
Al2 O78 1.806456 1_555
Al2 O11 1.875987 1_455
Al2 O9 1.912947 1_445
Al2 O80 2.127509 1_545
Al2 O83 2.214596 1_445
Al3 O7 1.762844 1_555
Al3 O79 1.815908 1_555
Al3 O10 1.882195 1_555
Al3 O8 1.925713 1_545
Al3 O82 2.097818 1_545
Al3 O81 2.116735 1_545
Al4 O24 1.766540 1_555
Al4 O98 1.776571 1_555
Al4 O26 1.887709 1_555
Al4 O28 1.898394 1_555
Al4 O96 2.305241 1_555
Al4 O100 2.365024 1_555
Al5 O107 1.752754 1_555
Al5 O35 1.902571 1_555
Al5 O33 1.917489 1_555
Al5 O31 2.002615 1_555
Al5 O103 2.050382 1_555
Al5 O105 2.115626 1_555
Al6 O110 1.757722 1_555
Al6 O38 1.895759 1_556
Al6 O40 1.929825 1_556
Al6 O108 1.954702 1_555
Al6 O112 1.986385 1_555
Al6 O36 2.040364 1_556
Al7 O111 1.741516 1_555
Al7 O37 1.899489 1_556
Al7 O41 1.910792 1_556
Al7 O39 1.912620 1_556
Al7 O113 2.077365 1_555
Al7 O109 2.090781 1_555
Al8 O46 1.708606 1_555
Al8 O118 1.755872 1_555
Al8 O44 1.881081 1_555
Al8 O42 2.006848 1_555
Al8 O114 2.238784 1_555
Al8 O116 2.396428 1_555
Al9 O119 1.779659 1_555
Al9 O47 1.890500 1_555
Al9 O45 1.908147 1_555
Al9 O43 1.952250 1_555
Al9 O115 1.981208 1_555
Al9 O117 2.040498 1_555
Al10 O60 1.799872 1_555
Al10 O132 1.819735 1_555
Al10 O62 1.929094 1_555
Al10 O64 1.968061 1_555
Al10 O134 2.020940 1_555
Al10 O136 2.084346 1_555
Al11 O67 1.790139 1_555
Al11 O139 1.792041 1_555
Al11 O141 1.993783 1_555
Al11 O143 2.001197 1_555
Al11 O69 2.046253 1_555
Al11 O71 2.072141 1_555
In0 O14 1.979990 1_655
In0 O16 2.142001 1_645
In0 O89 2.218098 1_545
In0 O13 2.219626 1_545
In0 O85 2.221369 1_555
In0 O86 2.299846 1_655
In1 O15 2.033966 1_555
In1 O84 2.034884 1_555
In1 O17 2.188197 1_545
In1 O12 2.221871 1_545
In1 O87 2.294560 1_555
In1 O88 2.345380 1_545
In2 O22 2.024254 1_545
In2 O20 2.141277 1_555
In2 O19 2.178588 1_445
In2 O91 2.230690 1_445
In2 O94 2.251005 1_555
In2 O93 2.319979 1_455
In3 O23 1.980994 1_555
In3 O21 2.128295 1_565
In3 O18 2.209573 1_555
In3 O90 2.227545 1_555
In3 O92 2.286825 1_565
In3 O95 2.345442 1_565
In4 O99 2.016966 1_555
In4 O27 2.119849 1_555
In4 O25 2.158423 1_555
In4 O29 2.159441 1_555
In4 O101 2.223174 1_555
In4 O97 2.250559 1_555
In5 O106 2.012569 1_555
In5 O34 2.155903 1_555
In5 O30 2.162775 1_555
In5 O32 2.174906 1_555
In5 O104 2.193051 1_555
In5 O102 2.207594 1_555
In6 O50 2.018234 1_554
In6 O52 2.146195 1_554
In6 O120 2.193985 1_555
In6 O124 2.227549 1_555
In6 O48 2.237271 1_554
In6 O122 2.280577 1_555
In7 O51 2.025426 1_554
In7 O53 2.147544 1_554
In7 O49 2.174133 1_554
In7 O123 2.224486 1_555
In7 O121 2.240579 1_555
In7 O125 2.321033 1_555
In8 O58 2.033152 1_555
In8 O56 2.151893 1_555
In8 O54 2.192926 1_555
In8 O126 2.206426 1_555
In8 O128 2.229345 1_555
In8 O130 2.237088 1_555
In9 O59 2.021881 1_555
In9 O131 2.039556 1_555
In9 O57 2.168314 1_555
In9 O127 2.197239 1_555
In9 O129 2.310092 1_555
In9 O55 2.502617 1_555
In10 O61 2.012143 1_555
In10 O133 2.042771 1_555
In10 O63 2.193780 1_555
In10 O137 2.215233 1_555
In10 O65 2.267325 1_555
In10 O135 2.288876 1_555
In11 O66 2.010245 1_555
In11 O138 2.029357 1_555
In11 O142 2.185059 1_555
In11 O140 2.189839 1_555
In11 O70 2.225768 1_555
In11 O68 2.298297 1_555
O0 Si0 1.624876 1_545
O1 Si1 1.637185 1_555
O2 S0 1.464119 1_555
O3 S1 1.485120 1_555
O4 S3 1.466493 1_555
O5 S2 1.470318 1_655
O6 Si2 1.656539 1_555
O7 Si3 1.632771 1_555
O8 S5 1.479266 1_555
O9 S4 1.477071 1_655
O10 S6 1.490521 1_545
O11 S7 1.476767 1_545
O12 S6 1.478362 1_555
O13 S7 1.491111 1_555
O14 Si2 1.627457 1_555
O15 Si3 1.629067 1_555
O16 S4 1.478521 1_555
O17 S5 1.481838 1_555
O18 S0 1.502078 1_555
O19 S1 1.490681 1_555
O20 S2 1.492043 1_555
O21 S3 1.490385 1_555
O22 Si0 1.663124 1_555
O23 Si1 1.638411 1_565
O24 Si4 1.647962 1_555
O25 S8 1.482817 1_555
O26 S9 1.470742 1_555
O27 S10 1.477380 1_555
O28 S11 1.482271 1_555
O29 S12 1.480955 1_555
O30 S13 1.481292 1_555
O31 S14 1.492210 1_555
O32 S15 1.475304 1_555
O33 S16 1.485139 1_555
O34 S17 1.473065 1_555
O35 S18 1.477498 1_555
O36 S17 1.483441 1_555
O37 S18 1.502372 1_555
O38 S13 1.473743 1_555
O39 S14 1.476908 1_555
O40 S15 1.479624 1_555
O41 S16 1.480384 1_555
O42 S9 1.499187 1_555
O43 S10 1.493876 1_555
O44 S11 1.477882 1_555
O45 S12 1.481537 1_555
O46 Si4 1.615817 1_555
O47 S8 1.471455 1_555
O48 S19 1.493562 1_555
O49 S20 1.507628 1_555
O50 Si5 1.663881 1_555
O51 Si6 1.664429 1_555
O52 S21 1.490303 1_555
O53 S22 1.489964 1_555
O54 S23 1.496145 1_555
O55 S24 1.466247 1_555
O56 S25 1.488197 1_555
O57 S26 1.471013 1_555
O58 Si7 1.649933 1_555
O59 Si8 1.655784 1_555
O60 Si7 1.642306 1_555
O61 Si8 1.632400 1_555
O62 S23 1.493108 1_555
O63 S24 1.492316 1_555
O64 S25 1.482187 1_555
O65 S26 1.476326 1_555
O66 Si5 1.618154 1_555
O67 Si6 1.635159 1_555
O68 S21 1.464693 1_555
O69 S22 1.475359 1_555
O70 S19 1.484461 1_555
O71 S20 1.484567 1_555
O72 Si7 1.645663 1_555
O73 Si8 1.638111 1_555
O74 S23 1.463016 1_545
O75 S24 1.482735 1_545
O76 S25 1.496998 1_555
O77 S26 1.491983 1_555
O78 Si5 1.641803 1_555
O79 Si6 1.642260 1_555
O80 S21 1.488542 1_555
O81 S22 1.483645 1_555
O82 S19 1.464310 1_555
O83 S20 1.462644 1_555
O84 Si4 1.638906 1_555
O85 S8 1.494172 1_555
O86 S9 1.487406 1_555
O87 S10 1.482761 1_555
O88 S11 1.474229 1_555
O89 S12 1.505337 1_555
O90 S13 1.493732 1_555
O91 S14 1.494922 1_555
O92 S15 1.497704 1_555
O93 S16 1.495138 1_555
O94 S17 1.499545 1_555
O95 S18 1.480757 1_555
O96 S6 1.486896 1_545
O97 S7 1.487337 1_545
O98 Si2 1.643499 1_555
O99 Si3 1.628414 1_555
O100 S5 1.485747 1_555
O101 S4 1.489252 1_655
O102 S0 1.488487 1_555
O103 S1 1.513175 1_555
O104 S3 1.492159 1_555
O105 S2 1.512890 1_655
O106 Si0 1.624623 1_545
O107 Si1 1.660161 1_555
O108 S19 1.499852 1_555
O109 S20 1.514912 1_555
O110 Si6 1.632622 1_555
O111 Si5 1.624290 1_655
O112 S21 1.511095 1_545
O113 S22 1.510444 1_545
O114 S23 1.499466 1_545
O115 S24 1.504709 1_545
O116 S25 1.482945 1_555
O117 S26 1.514252 1_555
O118 Si8 1.620479 1_555
O119 Si7 1.628969 1_655
O120 S17 1.490488 1_555
O121 S18 1.492973 1_555
O122 S14 1.493465 1_455
O123 S13 1.485066 1_555
O124 S15 1.491137 1_565
O125 S16 1.490475 1_565
O126 S9 1.494473 1_565
O127 S10 1.477289 1_565
O128 S11 1.501610 1_555
O129 S12 1.466845 1_555
O130 S8 1.482715 1_455
O131 Si4 1.653781 1_555
O132 Si0 1.647012 1_555
O133 Si1 1.629716 1_565
O134 S0 1.478393 1_555
O135 S1 1.457886 1_555
O136 S2 1.493372 1_555
O137 S3 1.474237 1_555
O138 Si2 1.632609 1_555
O139 Si3 1.650762 1_555
O140 S4 1.474974 1_555
O141 S5 1.504834 1_555
O142 S6 1.467657 1_555
O143 S7 1.473906 1_555
