# generated using pymatgen
data_MgMn4(HO4)2
_symmetry_space_group_name_H-M   'P 1'
_cell_length_a   9.89512353
_cell_length_b   3.03075694
_cell_length_c   5.18274133
_cell_angle_alpha   88.95254123
_cell_angle_beta   89.84849050
_cell_angle_gamma   91.51636853
_symmetry_Int_Tables_number   1
_chemical_formula_structural   MgMn4(HO4)2
_chemical_formula_sum   'Mg1 Mn4 H2 O8'
_cell_volume   155.34777713
_cell_formula_units_Z   1
loop_
 _symmetry_equiv_pos_site_id
 _symmetry_equiv_pos_as_xyz
  1  'x, y, z'
loop_
 _atom_site_type_symbol
 _atom_site_label
 _atom_site_symmetry_multiplicity
 _atom_site_fract_x
 _atom_site_fract_y
 _atom_site_fract_z
 _atom_site_occupancy
  Mg  Mg0  1  0.59736900  0.81424800  0.96879800  1
  Mn  Mn0  1  0.65468800  0.30457000  0.45674800  1
  Mn  Mn1  1  0.14131200  0.24088000  0.03906400  1
  Mn  Mn2  1  0.34436000  0.75077500  0.53543700  1
  Mn  Mn3  1  0.87362900  0.74679800  0.92325800  1
  H  H0  1  0.40008000  0.29219700  0.94968100  1
  H  H1  1  0.00538800  0.17459800  0.56669000  1
  O  O0  1  0.47458500  0.30867700  0.82270700  1
  O  O1  1  0.98455200  0.21714400  0.74960000  1
  O  O2  1  0.53648100  0.79982000  0.33959800  1
  O  O3  1  0.02440800  0.72411200  0.16961600  1
  O  O4  1  0.74475200  0.32567100  0.08877200  1
  O  O5  1  0.26709000  0.24328900  0.33918800  1
  O  O6  1  0.23293600  0.75621800  0.86934600  1
  O  O7  1  0.73050900  0.80100300  0.65371700  1
loop_
_geom_bond_atom_site_label_1
_geom_bond_atom_site_label_2
_geom_bond_distance
_geom_bond_site_symmetry_2
Mg0 O2 2.011836 1_556
Mg0 O0 2.084706 1_555
Mg0 O0 2.086777 1_565
Mg0 O7 2.097070 1_555
Mg0 O4 2.188961 1_556
Mg0 O4 2.199176 1_566
Mn0 O7 1.967025 1_555
Mn0 O7 1.985433 1_545
Mn0 O2 2.004994 1_545
Mn0 O2 2.013226 1_555
Mn0 O4 2.102136 1_555
Mn0 O0 2.599558 1_555
Mn1 O6 1.966426 1_544
Mn1 O6 1.976288 1_554
Mn1 O5 1.994668 1_555
Mn1 O3 2.015598 1_555
Mn1 O3 2.027352 1_545
Mn1 O1 2.161543 1_454
Mn2 O5 1.963733 1_565
Mn2 O5 1.995954 1_555
Mn2 O6 2.050040 1_555
Mn2 O2 2.153054 1_555
Mn2 O0 2.387684 1_555
Mn2 O0 2.592881 1_565
Mn3 O4 1.964482 1_556
Mn3 O3 1.968060 1_656
Mn3 O1 1.977849 1_565
Mn3 O7 1.999617 1_555
Mn3 O1 2.175419 1_555
Mn3 O4 2.368073 1_566
H0 O0 0.986588 1_555
H1 O1 0.981140 1_455
