# generated using pymatgen
data_Mg(CrS2)4
_symmetry_space_group_name_H-M   'P 1'
_cell_length_a   8.39644113
_cell_length_b   8.35216495
_cell_length_c   6.55022087
_cell_angle_alpha   67.85878022
_cell_angle_beta   67.87696889
_cell_angle_gamma   45.83365428
_symmetry_Int_Tables_number   1
_chemical_formula_structural   Mg(CrS2)4
_chemical_formula_sum   'Mg1 Cr4 S8'
_cell_volume   300.68132117
_cell_formula_units_Z   1
loop_
 _symmetry_equiv_pos_site_id
 _symmetry_equiv_pos_as_xyz
  1  'x, y, z'
loop_
 _atom_site_type_symbol
 _atom_site_label
 _atom_site_symmetry_multiplicity
 _atom_site_fract_x
 _atom_site_fract_y
 _atom_site_fract_z
 _atom_site_occupancy
  Mg  Mg0  1  0.38041846  0.37216725  0.36330756  1
  Cr  Cr0  1  0.56291768  0.56637867  0.42987367  1
  Cr  Cr1  1  0.95116909  0.41748718  0.56846303  1
  Cr  Cr2  1  0.56607681  0.56681280  0.94293665  1
  Cr  Cr3  1  0.41856096  0.94838135  0.56793183  1
  S  S0  1  0.28773068  0.76818661  0.72209151  1
  S  S1  1  0.71962467  0.72540458  0.75915999  1
  S  S2  1  0.76400790  0.29128226  0.72185741  1
  S  S3  1  0.71907024  0.72204172  0.30597478  1
  S  S4  1  0.23525798  0.23215455  0.28000722  1
  S  S5  1  0.75048576  0.27890803  0.23344375  1
  S  S6  1  0.24435176  0.24243943  0.74046113  1
  S  S7  1  0.27995601  0.74798956  0.23448948  1
loop_
_geom_bond_atom_site_label_1
_geom_bond_atom_site_label_2
_geom_bond_distance
_geom_bond_site_symmetry_2
Mg0 S4 2.473623 1_555
Mg0 S5 2.474124 1_555
Mg0 S7 2.475155 1_555
Mg0 S6 2.482696 1_555
Cr0 S3 2.201499 1_555
Cr0 S7 2.321318 1_555
Cr0 S5 2.331042 1_555
Cr0 S2 2.345588 1_555
Cr0 S0 2.348897 1_555
Cr1 S2 2.216054 1_555
Cr1 S6 2.301912 1_655
Cr1 S4 2.306664 1_655
Cr1 S3 2.354505 1_555
Cr1 S1 2.362006 1_555
Cr2 S1 2.207858 1_555
Cr2 S7 2.316315 1_556
Cr2 S5 2.320010 1_556
Cr2 S2 2.350483 1_555
Cr2 S0 2.370327 1_555
Cr3 S0 2.194137 1_555
Cr3 S4 2.297138 1_565
Cr3 S6 2.299948 1_565
Cr3 S3 2.328472 1_555
Cr3 S1 2.343866 1_555
