# generated using pymatgen
data_Na3Mg2P(SO6)2
_symmetry_space_group_name_H-M   'P 1'
_cell_length_a   8.93722337
_cell_length_b   8.93912388
_cell_length_c   21.92302758
_cell_angle_alpha   89.81217711
_cell_angle_beta   90.00000000
_cell_angle_gamma   119.99296727
_symmetry_Int_Tables_number   1
_chemical_formula_structural   Na3Mg2P(SO6)2
_chemical_formula_sum   'Na18 Mg12 P6 S12 O72'
_cell_volume   1516.89804615
_cell_formula_units_Z   6
loop_
 _symmetry_equiv_pos_site_id
 _symmetry_equiv_pos_as_xyz
  1  'x, y, z'
loop_
 _atom_site_type_symbol
 _atom_site_label
 _atom_site_symmetry_multiplicity
 _atom_site_fract_x
 _atom_site_fract_y
 _atom_site_fract_z
 _atom_site_occupancy
  Na  Na0  1  0.63099377  0.99871755  0.25575446  1
  Na  Na1  1  0.00862769  0.64628173  0.24225695  1
  Na  Na2  1  0.63765404  0.64628173  0.74225695  1
  Na  Na3  1  0.36772378  0.99871755  0.75575446  1
  Na  Na4  1  0.31416422  0.34001879  0.58511489  1
  Na  Na5  1  0.66471428  0.96081326  0.58360100  1
  Na  Na6  1  0.29609999  0.96081326  0.08360100  1
  Na  Na7  1  0.02585556  0.34001879  0.08511489  1
  Na  Na8  1  0.97943272  0.67227434  0.92492397  1
  Na  Na9  1  0.68703409  0.02620973  0.90799570  1
  Na  Na10  1  0.33917464  0.02620973  0.40799570  1
  Na  Na11  1  0.69284062  0.67227434  0.42492397  1
  Na  Na12  1  0.98224836  0.99078101  0.49974019  1
  Na  Na13  1  0.00853265  0.99078101  0.99974019  1
  Na  Na14  1  0.66014533  0.31728568  0.83331013  1
  Na  Na15  1  0.65714135  0.31728568  0.33331013  1
  Na  Na16  1  0.34092199  0.65905464  0.16679926  1
  Na  Na17  1  0.31813165  0.65905464  0.66679926  1
  Mg  Mg0  1  0.00560089  0.00765228  0.34991817  1
  Mg  Mg1  1  0.00205138  0.00765228  0.84991817  1
  Mg  Mg2  1  0.98995676  0.99109329  0.64966857  1
  Mg  Mg3  1  0.00113653  0.99109329  0.14966857  1
  Mg  Mg4  1  0.67742479  0.33621764  0.68320361  1
  Mg  Mg5  1  0.65879384  0.33621764  0.18320361  1
  Mg  Mg6  1  0.66026489  0.33574928  0.98346103  1
  Mg  Mg7  1  0.67548539  0.33574928  0.48346103  1
  Mg  Mg8  1  0.33098701  0.66934166  0.01628656  1
  Mg  Mg9  1  0.33835364  0.66934166  0.51628656  1
  Mg  Mg10  1  0.33530041  0.67117131  0.31749065  1
  Mg  Mg11  1  0.33586990  0.67117131  0.81749065  1
  P  P0  1  0.30135687  0.00124695  0.25059111  1
  P  P1  1  0.69989008  0.00124695  0.75059111  1
  P  P2  1  0.66701507  0.63021748  0.58285181  1
  P  P3  1  0.96320341  0.63021748  0.08285181  1
  P  P4  1  0.33306569  0.97092366  0.91684652  1
  P  P5  1  0.63785697  0.97092366  0.41684652  1
  S  S0  1  0.70310335  0.70298350  0.25228809  1
  S  S1  1  0.00169088  0.29771062  0.24749649  1
  S  S2  1  0.29601974  0.29771062  0.74749649  1
  S  S3  1  -0.00011985  0.70298350  0.75228809  1
  S  S4  1  0.96751379  0.33564485  0.58365989  1
  S  S5  1  0.36692564  0.03595587  0.58338233  1
  S  S6  1  0.66903123  0.03595587  0.08338233  1
  S  S7  1  0.36813207  0.33564485  0.08365989  1
  S  S8  1  0.62782803  0.66377842  0.91516103  1
  S  S9  1  0.03854441  0.36876861  0.91802691  1
  S  S10  1  0.33022320  0.36876861  0.41802691  1
  S  S11  1  0.03594939  0.66377842  0.41516103  1
  O  O0  1  0.21347535  0.01411080  0.30939243  1
  O  O1  1  0.80389838  0.78253461  0.30866892  1
  O  O2  1  0.97770345  0.18452392  0.29972080  1
  O  O3  1  0.20682048  0.18452392  0.79972080  1
  O  O4  1  0.97863622  0.78253461  0.80866892  1
  O  O5  1  0.80063546  0.01411080  0.80939243  1
  O  O6  1  0.78918035  0.97905326  0.69379111  1
  O  O7  1  0.20388173  0.21961672  0.68972035  1
  O  O8  1  0.02937631  0.81804456  0.69945412  1
  O  O9  1  0.78866826  0.81804456  0.19945412  1
  O  O10  1  0.01573498  0.21961672  0.18972035  1
  O  O11  1  0.18987290  0.97905326  0.19379111  1
  O  O12  1  0.88666065  0.35195738  0.63937295  1
  O  O13  1  0.47608053  0.11903794  0.63789350  1
  O  O14  1  0.64731363  0.52022818  0.64012779  1
  O  O15  1  0.87291556  0.52022818  0.14012779  1
  O  O16  1  0.64295842  0.11903794  0.13789350  1
  O  O17  1  0.46529773  0.35195738  0.13937295  1
  O  O18  1  0.45024192  0.30795518  0.02965923  1
  O  O19  1  0.86354717  0.53944990  0.02429527  1
  O  O20  1  0.69014217  0.14155308  0.02810352  1
  O  O21  1  0.45141191  0.14155308  0.52810352  1
  O  O22  1  0.67590373  0.53944990  0.52429527  1
  O  O23  1  0.85771426  0.30795518  0.52965923  1
  O  O24  1  0.53313844  0.67909452  0.96746787  1
  O  O25  1  0.13061368  0.44501657  0.97590266  1
  O  O26  1  0.30709429  0.85647572  0.97391733  1
  O  O27  1  0.54938043  0.85647572  0.47391733  1
  O  O28  1  0.31440188  0.44501657  0.47590266  1
  O  O29  1  0.14595509  0.67909452  0.46746787  1
  O  O30  1  0.11184159  0.64736743  0.35731823  1
  O  O31  1  0.52340064  0.88283264  0.35994833  1
  O  O32  1  0.34531916  0.47895474  0.36577030  1
  O  O33  1  0.13363458  0.47895474  0.86577030  1
  O  O34  1  0.35943100  0.88283264  0.85994833  1
  O  O35  1  0.53552484  0.64736743  0.85731823  1
  O  O36  1  0.02271419  0.82536305  0.41429312  1
  O  O37  1  0.81738262  0.98454194  0.41107935  1
  O  O38  1  0.18087666  0.19062789  0.41327256  1
  O  O39  1  0.00975123  0.19062789  0.91327256  1
  O  O40  1  0.16715932  0.98454194  0.91107935  1
  O  O41  1  0.80264886  0.82536305  0.91429312  1
  O  O42  1  0.99097269  0.17998204  0.58721459  1
  O  O43  1  0.19594441  0.02489487  0.58898064  1
  O  O44  1  0.82556427  0.81598191  0.58592305  1
  O  O45  1  0.99041765  0.81598191  0.08592305  1
  O  O46  1  0.82895046  0.02489487  0.08898064  1
  O  O47  1  0.18900935  0.17998204  0.08721459  1
  O  O48  1  0.67084281  0.15874012  0.74619453  1
  O  O49  1  0.47384122  0.31833284  0.74579326  1
  O  O50  1  0.83965653  0.53294626  0.74555506  1
  O  O51  1  0.69329073  0.53294626  0.24555506  1
  O  O52  1  0.84449262  0.31833284  0.24579326  1
  O  O53  1  0.48789832  0.15874012  0.24619453  1
  O  O54  1  0.65767032  0.51488155  0.92019423  1
  O  O55  1  0.86335058  0.35475608  0.91881859  1
  O  O56  1  0.50026740  0.14981509  0.92228038  1
  O  O57  1  0.64954868  0.14981509  0.42228038  1
  O  O58  1  0.49140650  0.35475608  0.41881859  1
  O  O59  1  0.85721224  0.51488155  0.42019423  1
  O  O60  1  0.34690659  0.48993348  0.07754939  1
  O  O61  1  0.14824026  0.64814563  0.08124069  1
  O  O62  1  0.51464124  0.86081339  0.07865152  1
  O  O63  1  0.34617115  0.86081339  0.57865152  1
  O  O64  1  0.49990437  0.64814563  0.58124069  1
  O  O65  1  0.14302589  0.48993348  0.57754939  1
  O  O66  1  0.31833566  0.83371505  0.25273835  1
  O  O67  1  0.52673585  0.68015121  0.25648813  1
  O  O68  1  0.15580956  0.47337832  0.25337849  1
  O  O69  1  0.31756776  0.47337832  0.75337849  1
  O  O70  1  0.15341436  0.68015121  0.75648813  1
  O  O71  1  0.51537838  0.83371505  0.75273835  1
loop_
_geom_bond_atom_site_label_1
_geom_bond_atom_site_label_2
_geom_bond_distance
_geom_bond_site_symmetry_2
Na0 O53 2.356416 1_565
Na0 O66 2.422398 1_555
Na0 O31 2.490805 1_555
Na0 O67 2.514900 1_555
Na0 O52 2.529210 1_565
Na0 O16 2.776947 1_565
Na0 O2 2.855556 1_565
Na0 O9 2.899326 1_555
Na1 O66 2.426391 1_555
Na1 O51 2.473664 1_455
Na1 O68 2.491745 1_555
Na1 O15 2.530606 1_455
Na1 O52 2.539889 1_455
Na1 O30 2.684246 1_555
Na1 O11 2.786282 1_555
Na2 O71 2.426398 1_555
Na2 O50 2.473672 1_555
Na2 O69 2.491753 1_555
Na2 O14 2.530609 1_555
Na2 O49 2.539889 1_555
Na2 O35 2.684249 1_555
Na2 O6 2.786282 1_555
Na3 O48 2.356424 1_565
Na3 O71 2.422390 1_555
Na3 O34 2.490804 1_555
Na3 O70 2.514902 1_555
Na3 O49 2.529209 1_565
Na3 O13 2.776948 1_565
Na3 O3 2.855556 1_565
Na3 O8 2.899326 1_555
Na4 O64 2.403457 1_555
Na4 O43 2.466053 1_555
Na4 O65 2.492101 1_555
Na4 O42 2.502008 1_455
Na4 O7 2.512400 1_555
Na4 O28 2.568408 1_555
Na4 O14 2.851678 1_555
Na4 O21 2.899038 1_555
Na5 O44 2.367621 1_555
Na5 O64 2.422624 1_555
Na5 O63 2.524272 1_555
Na5 O42 2.576116 1_565
Na5 O27 2.601538 1_555
Na5 O6 2.630748 1_555
Na5 O23 2.937296 1_565
Na5 O13 2.941825 1_565
Na6 O45 2.367629 1_455
Na6 O61 2.422623 1_555
Na6 O62 2.524255 1_555
Na6 O47 2.576123 1_565
Na6 O26 2.601534 1_554
Na6 O11 2.630752 1_555
Na6 O18 2.937296 1_565
Na6 O16 2.941825 1_565
Na7 O61 2.403459 1_555
Na7 O46 2.466054 1_455
Na7 O60 2.492086 1_555
Na7 O47 2.502000 1_555
Na7 O10 2.512399 1_555
Na7 O25 2.568405 1_554
Na7 O15 2.851677 1_455
Na7 O20 2.899038 1_455
Na8 O19 2.445805 1_556
Na8 O40 2.451744 1_655
Na8 O55 2.491756 1_555
Na8 O54 2.493110 1_555
Na8 O41 2.565717 1_555
Na8 O4 2.730887 1_555
Na8 O26 2.762449 1_655
Na9 O5 2.413851 1_555
Na9 O56 2.439521 1_555
Na9 O41 2.482593 1_545
Na9 O39 2.501020 1_655
Na9 O55 2.557827 1_555
Na9 O34 2.753486 1_545
Na9 O20 2.826021 1_556
Na10 O0 2.413847 1_555
Na10 O57 2.439537 1_555
Na10 O36 2.482587 1_545
Na10 O38 2.501012 1_555
Na10 O58 2.557826 1_555
Na10 O31 2.753486 1_545
Na10 O21 2.826025 1_555
Na11 O22 2.445808 1_555
Na11 O37 2.451743 1_555
Na11 O58 2.491753 1_555
Na11 O59 2.493126 1_555
Na11 O36 2.565725 1_655
Na11 O1 2.730889 1_555
Na11 O27 2.762449 1_555
Na12 O44 2.401102 1_555
Na12 O37 2.422956 1_555
Na12 O36 2.525715 1_655
Na12 O42 2.536445 1_565
Na12 O38 2.596789 1_665
Na12 O43 2.643810 1_665
Na13 O45 2.401102 1_456
Na13 O40 2.422956 1_555
Na13 O41 2.525715 1_455
Na13 O47 2.536445 1_566
Na13 O39 2.596789 1_565
Na13 O46 2.643810 1_466
Na14 O48 2.412148 1_555
Na14 O56 2.435050 1_555
Na14 O55 2.514053 1_555
Na14 O49 2.543438 1_555
Na14 O54 2.609534 1_555
Na14 O50 2.622035 1_555
Na15 O53 2.412148 1_555
Na15 O57 2.435050 1_555
Na15 O58 2.514053 1_555
Na15 O52 2.543438 1_555
Na15 O59 2.609534 1_555
Na15 O51 2.622035 1_555
Na16 O60 2.493394 1_555
Na16 O61 2.515253 1_555
Na16 O68 2.515669 1_555
Na16 O67 2.519687 1_555
Na16 O66 2.522389 1_555
Na16 O62 2.564232 1_555
Na17 O65 2.493394 1_555
Na17 O64 2.515253 1_555
Na17 O69 2.515669 1_555
Na17 O70 2.519687 1_555
Na17 O71 2.522389 1_555
Na17 O63 2.564232 1_555
Mg0 O0 2.033862 1_555
Mg0 O2 2.038562 1_455
Mg0 O37 2.078677 1_445
Mg0 O1 2.121801 1_445
Mg0 O38 2.124034 1_555
Mg0 O36 2.214617 1_545
Mg1 O5 2.033862 1_455
Mg1 O3 2.038562 1_555
Mg1 O40 2.078677 1_545
Mg1 O4 2.121801 1_445
Mg1 O39 2.124034 1_555
Mg1 O41 2.214617 1_445
Mg2 O6 1.993313 1_555
Mg2 O8 2.059632 1_655
Mg2 O44 2.068063 1_555
Mg2 O43 2.166052 1_665
Mg2 O42 2.166861 1_565
Mg2 O7 2.169407 1_665
Mg3 O11 1.993313 1_555
Mg3 O9 2.059632 1_455
Mg3 O45 2.068063 1_455
Mg3 O46 2.166052 1_465
Mg3 O47 2.166861 1_565
Mg3 O10 2.169407 1_565
Mg4 O14 2.025407 1_555
Mg4 O12 2.043537 1_555
Mg4 O48 2.078408 1_555
Mg4 O13 2.124549 1_555
Mg4 O50 2.128347 1_555
Mg4 O49 2.219591 1_555
Mg5 O15 2.025407 1_555
Mg5 O17 2.043537 1_555
Mg5 O53 2.078408 1_555
Mg5 O16 2.124549 1_555
Mg5 O51 2.128347 1_555
Mg5 O52 2.219591 1_555
Mg6 O19 2.030022 1_556
Mg6 O18 2.035389 1_556
Mg6 O56 2.060263 1_555
Mg6 O20 2.120129 1_556
Mg6 O54 2.123908 1_555
Mg6 O55 2.240896 1_555
Mg7 O22 2.030022 1_555
Mg7 O23 2.035389 1_555
Mg7 O57 2.060263 1_555
Mg7 O21 2.120129 1_555
Mg7 O59 2.123908 1_555
Mg7 O58 2.240896 1_555
Mg8 O26 2.013363 1_554
Mg8 O24 2.063740 1_554
Mg8 O61 2.102377 1_555
Mg8 O25 2.105524 1_554
Mg8 O60 2.147114 1_555
Mg8 O62 2.167837 1_555
Mg9 O27 2.013363 1_555
Mg9 O29 2.063739 1_555
Mg9 O64 2.102377 1_555
Mg9 O28 2.105524 1_555
Mg9 O65 2.147114 1_555
Mg9 O63 2.167837 1_555
Mg10 O31 2.025800 1_555
Mg10 O32 2.054890 1_555
Mg10 O66 2.087125 1_555
Mg10 O30 2.090451 1_555
Mg10 O67 2.141062 1_555
Mg10 O68 2.203540 1_555
Mg11 O34 2.025800 1_555
Mg11 O33 2.054890 1_555
Mg11 O71 2.087125 1_555
Mg11 O35 2.090451 1_555
Mg11 O70 2.141062 1_555
Mg11 O69 2.203540 1_555
O0 P0 1.543748 1_555
O1 S0 1.486699 1_555
O2 S1 1.468350 1_655
O3 S2 1.468350 1_555
O4 S3 1.486699 1_655
O5 P1 1.543748 1_555
O6 P1 1.544886 1_565
O7 S2 1.483520 1_555
O8 S3 1.479905 1_555
O9 S0 1.479905 1_555
O10 S1 1.483520 1_555
O11 P0 1.544886 1_565
O12 S4 1.463471 1_555
O13 S5 1.487568 1_555
O14 P2 1.547001 1_555
O15 P3 1.547001 1_555
O16 S6 1.487568 1_555
O17 S7 1.463471 1_555
O18 S7 1.478114 1_555
O19 P3 1.543990 1_555
O20 S6 1.486514 1_555
O21 S5 1.486514 1_555
O22 P2 1.543990 1_555
O23 S4 1.478114 1_555
O24 S8 1.471988 1_555
O25 S9 1.482048 1_555
O26 P4 1.555681 1_555
O27 P5 1.555681 1_555
O28 S10 1.482048 1_555
O29 S11 1.471988 1_555
O30 S11 1.479971 1_555
O31 P5 1.556766 1_555
O32 S10 1.469884 1_555
O33 S9 1.469884 1_555
O34 P4 1.556766 1_555
O35 S8 1.479971 1_555
O36 S11 1.507102 1_555
O37 P5 1.552327 1_555
O38 S10 1.484681 1_555
O39 S9 1.484684 1_555
O40 P4 1.552319 1_555
O41 S8 1.507107 1_555
O42 S4 1.509051 1_555
O43 S5 1.486197 1_555
O44 P2 1.555028 1_555
O45 P3 1.555031 1_555
O46 S6 1.486188 1_555
O47 S7 1.509056 1_555
O48 P1 1.556676 1_555
O49 S2 1.506015 1_555
O50 S3 1.485940 1_655
O51 S0 1.485944 1_555
O52 S1 1.506006 1_655
O53 P0 1.556682 1_555
O54 S8 1.486217 1_555
O55 S9 1.507135 1_655
O56 P4 1.554525 1_545
O57 P5 1.554517 1_545
O58 S10 1.507153 1_555
O59 S11 1.486206 1_655
O60 S7 1.488792 1_555
O61 P3 1.580094 1_455
O62 S6 1.485622 1_565
O63 S5 1.485615 1_565
O64 P2 1.580112 1_555
O65 S4 1.488781 1_455
O66 P0 1.579478 1_565
O67 S0 1.487578 1_555
O68 S1 1.489489 1_555
O69 S2 1.489492 1_555
O70 S3 1.487569 1_555
O71 P1 1.579483 1_565
