# generated using pymatgen
data_Ca2Ta4Si3(SO6)6
_symmetry_space_group_name_H-M   'P 1'
_cell_length_a   9.01795531
_cell_length_b   8.99778231
_cell_length_c   23.02139912
_cell_angle_alpha   90.26292364
_cell_angle_beta   90.00000000
_cell_angle_gamma   120.07419237
_symmetry_Int_Tables_number   1
_chemical_formula_structural   Ca2Ta4Si3(SO6)6
_chemical_formula_sum   'Ca4 Ta8 Si6 S12 O72'
_cell_volume   1616.49598914
_cell_formula_units_Z   2
loop_
 _symmetry_equiv_pos_site_id
 _symmetry_equiv_pos_as_xyz
  1  'x, y, z'
loop_
 _atom_site_type_symbol
 _atom_site_label
 _atom_site_symmetry_multiplicity
 _atom_site_fract_x
 _atom_site_fract_y
 _atom_site_fract_z
 _atom_site_occupancy
  Ca  Ca0  1  0.99428064  0.00136606  0.36404200  1
  Ca  Ca1  1  0.00708543  0.00136606  0.86404200  1
  Ca  Ca2  1  0.66994153  0.33856160  0.68633305  1
  Ca  Ca3  1  0.66862107  0.33856160  0.18633305  1
  Ta  Ta0  1  0.99635257  0.00254845  0.64197663  1
  Ta  Ta1  1  0.00619587  0.00254845  0.14197663  1
  Ta  Ta2  1  0.65487022  0.33914973  0.97956266  1
  Ta  Ta3  1  0.68428051  0.33914973  0.47956266  1
  Ta  Ta4  1  0.32597832  0.67187593  0.02411620  1
  Ta  Ta5  1  0.34589661  0.67187593  0.52411620  1
  Ta  Ta6  1  0.34058675  0.67623585  0.30916759  1
  Ta  Ta7  1  0.33564810  0.67623585  0.80916759  1
  Si  Si0  1  0.96290673  0.33839937  0.58370393  1
  Si  Si1  1  0.66920025  0.62012611  0.58427373  1
  Si  Si2  1  0.95092687  0.62012611  0.08427373  1
  Si  Si3  1  0.37549364  0.33839937  0.08370393  1
  Si  Si4  1  0.35256403  0.96155660  0.91767741  1
  Si  Si5  1  0.60899157  0.96155660  0.41767741  1
  S  S0  1  0.27841309  0.98685241  0.25052290  1
  S  S1  1  0.70800508  0.71924370  0.25079111  1
  S  S2  1  0.01121168  0.29153940  0.25146143  1
  S  S3  1  0.28032772  0.29153940  0.75146143  1
  S  S4  1  0.01123862  0.71924370  0.75079111  1
  S  S5  1  0.70843932  0.98685241  0.75052290  1
  S  S6  1  0.37018182  0.04059994  0.58191033  1
  S  S7  1  0.67041912  0.04059994  0.08191033  1
  S  S8  1  0.60305469  0.65208502  0.91691957  1
  S  S9  1  0.04713219  0.39877949  0.91702457  1
  S  S10  1  0.35164630  0.39877949  0.41702457  1
  S  S11  1  0.04902933  0.65208502  0.41691957  1
  O  O0  1  0.20310792  0.01135500  0.30219486  1
  O  O1  1  0.80616124  0.79877212  0.30250981  1
  O  O2  1  0.99230475  0.19156872  0.30256635  1
  O  O3  1  0.19926397  0.19156872  0.80256635  1
  O  O4  1  0.99261087  0.79877212  0.80250981  1
  O  O5  1  0.80824708  0.01135500  0.80219486  1
  O  O6  1  0.79539679  0.96006166  0.69765799  1
  O  O7  1  0.16806304  0.20474393  0.69816024  1
  O  O8  1  0.04452016  0.82986930  0.69829532  1
  O  O9  1  0.78534913  0.82986930  0.19829532  1
  O  O10  1  0.03668089  0.20474393  0.19816024  1
  O  O11  1  0.16466487  0.96006166  0.19765799  1
  O  O12  1  0.89393173  0.37742760  0.64003177  1
  O  O13  1  0.47360767  0.09573996  0.63392118  1
  O  O14  1  0.61297134  0.51072551  0.64047180  1
  O  O15  1  0.89775516  0.51072551  0.14047180  1
  O  O16  1  0.62213329  0.09573996  0.13392118  1
  O  O17  1  0.48349687  0.37742760  0.14003177  1
  O  O18  1  0.46843309  0.29737356  0.02597852  1
  O  O19  1  0.82627635  0.52486147  0.02665217  1
  O  O20  1  0.70474118  0.15469980  0.03116961  1
  O  O21  1  0.44995962  0.15469980  0.53116961  1
  O  O22  1  0.69858612  0.52486147  0.52665217  1
  O  O23  1  0.82894147  0.29737356  0.52597852  1
  O  O24  1  0.51762722  0.66700250  0.96855955  1
  O  O25  1  0.15812996  0.48462483  0.96852404  1
  O  O26  1  0.34417538  0.83753628  0.97051483  1
  O  O27  1  0.49335991  0.83753628  0.47051483  1
  O  O28  1  0.32649387  0.48462483  0.46852404  1
  O  O29  1  0.14937428  0.66700250  0.46855955  1
  O  O30  1  0.12616354  0.62152886  0.36332686  1
  O  O31  1  0.48184661  0.85729203  0.35858502  1
  O  O32  1  0.37007193  0.50545174  0.36359097  1
  O  O33  1  0.13537880  0.50545174  0.86359097  1
  O  O34  1  0.37544442  0.85729203  0.85858502  1
  O  O35  1  0.49536433  0.62152886  0.86332686  1
  O  O36  1  0.02932655  0.80100193  0.41134870  1
  O  O37  1  0.78913999  0.97784674  0.41502004  1
  O  O38  1  0.20256547  0.22970010  0.41234446  1
  O  O39  1  0.02713463  0.22970010  0.91234446  1
  O  O40  1  0.18870675  0.97784674  0.91502004  1
  O  O41  1  0.77167539  0.80100193  0.91134870  1
  O  O42  1  0.98111440  0.16233666  0.59553762  1
  O  O43  1  0.19815956  0.02669331  0.59245948  1
  O  O44  1  0.84548926  0.81338008  0.59724289  1
  O  O45  1  0.96789082  0.81338008  0.09724289  1
  O  O46  1  0.82853375  0.02669331  0.09245948  1
  O  O47  1  0.18122226  0.16233666  0.09553762  1
  O  O48  1  0.66665231  0.11914842  0.74034897  1
  O  O49  1  0.45065087  0.31930725  0.74288004  1
  O  O50  1  0.87375638  0.54510582  0.74370700  1
  O  O51  1  0.67135045  0.54510582  0.24370700  1
  O  O52  1  0.86865738  0.31930725  0.24288004  1
  O  O53  1  0.45249710  0.11914842  0.24034897  1
  O  O54  1  0.61864662  0.49183036  0.92327450  1
  O  O55  1  0.88105067  0.39183337  0.92431260  1
  O  O56  1  0.53389578  0.14503552  0.92889875  1
  O  O57  1  0.61114074  0.14503552  0.42889875  1
  O  O58  1  0.51078370  0.39183337  0.42431260  1
  O  O59  1  0.87318473  0.49183036  0.42327450  1
  O  O60  1  0.34001531  0.49045681  0.06240157  1
  O  O61  1  0.14853607  0.66960860  0.06519101  1
  O  O62  1  0.53090970  0.86023537  0.06798843  1
  O  O63  1  0.32932467  0.86023537  0.56798843  1
  O  O64  1  0.52107153  0.66960860  0.56519101  1
  O  O65  1  0.15044051  0.49045681  0.56240157  1
  O  O66  1  0.27847695  0.81410360  0.25720902  1
  O  O67  1  0.52778276  0.70663408  0.25867347  1
  O  O68  1  0.17631134  0.46618744  0.25896742  1
  O  O69  1  0.28987510  0.46618744  0.75896742  1
  O  O70  1  0.17885033  0.70663408  0.75867347  1
  O  O71  1  0.53562565  0.81410360  0.75720902  1
loop_
_geom_bond_atom_site_label_1
_geom_bond_atom_site_label_2
_geom_bond_distance
_geom_bond_site_symmetry_2
Ca0 O37 2.110524 1_545
Ca0 O2 2.232701 1_555
Ca0 O1 2.254872 1_545
Ca0 O38 2.257636 1_655
Ca0 O36 2.263896 1_645
Ca0 O0 2.326643 1_655
Ca1 O40 2.110524 1_545
Ca1 O3 2.232701 1_555
Ca1 O4 2.254872 1_445
Ca1 O39 2.257637 1_555
Ca1 O41 2.263896 1_445
Ca1 O5 2.326643 1_455
Ca2 O14 2.142656 1_555
Ca2 O12 2.152688 1_555
Ca2 O50 2.265087 1_555
Ca2 O49 2.300889 1_555
Ca2 O48 2.325652 1_555
Ca2 O13 2.337311 1_555
Ca3 O15 2.142656 1_555
Ca3 O17 2.152688 1_555
Ca3 O51 2.265087 1_555
Ca3 O52 2.300889 1_555
Ca3 O53 2.325652 1_555
Ca3 O16 2.337311 1_555
O0 S0 1.439613 1_545
O1 S1 1.438939 1_555
O2 S2 1.441654 1_655
O3 S3 1.441654 1_555
O4 S4 1.438939 1_655
O5 S5 1.439613 1_545
O6 S5 1.530018 1_555
O6 Ta0 2.093700 1_565
O7 S3 1.529489 1_555
O7 Ta0 2.129683 1_455
O8 S4 1.501010 1_555
O8 Ta0 2.231291 1_465
O9 S1 1.501010 1_555
O9 Ta1 2.231291 1_665
O10 S2 1.529489 1_555
O10 Ta1 2.129683 1_555
O11 S0 1.530018 1_555
O11 Ta1 2.093701 1_565
O12 Si0 1.551293 1_555
O13 S6 1.442396 1_555
O14 Si1 1.552845 1_555
O15 Si2 1.552845 1_555
O16 S7 1.442396 1_555
O17 Si3 1.551293 1_555
O18 Si3 1.705967 1_555
O18 Ta2 1.865505 1_554
O19 Si2 1.667894 1_555
O19 Ta2 1.936849 1_554
O20 S7 1.485545 1_555
O20 Ta2 2.265906 1_554
O21 S6 1.485545 1_555
O21 Ta3 2.265906 1_555
O22 Si1 1.667894 1_555
O22 Ta3 1.936849 1_555
O23 Si0 1.705967 1_555
O23 Ta3 1.865505 1_555
O24 S8 1.458416 1_555
O24 Ta4 2.167980 1_556
O25 S9 1.490266 1_555
O25 Ta4 2.047432 1_556
O26 Si4 1.630470 1_555
O26 Ta4 1.882333 1_556
O27 Si5 1.630470 1_555
O27 Ta5 1.882333 1_555
O28 S10 1.490266 1_555
O28 Ta5 2.047432 1_555
O29 S11 1.458416 1_555
O29 Ta5 2.167980 1_555
O30 S11 1.506722 1_555
O30 Ta6 2.141863 1_555
O31 Si5 1.719201 1_555
O31 Ta6 1.863885 1_555
O32 S10 1.520866 1_555
O32 Ta6 2.104526 1_555
O33 S9 1.520866 1_555
O33 Ta7 2.104526 1_555
O34 Si4 1.719201 1_555
O34 Ta7 1.863885 1_555
O35 S8 1.506722 1_555
O35 Ta7 2.141863 1_555
O36 S11 1.443466 1_555
O37 Si5 1.557525 1_555
O38 S10 1.442955 1_555
O39 S9 1.442959 1_555
O40 Si4 1.557516 1_555
O41 S8 1.443472 1_555
O42 Si0 1.695713 1_555
O42 Ta0 1.855008 1_555
O43 S6 1.512239 1_555
O43 Ta0 2.065114 1_455
O44 Si1 1.692568 1_555
O44 Ta0 1.863235 1_565
O45 Si2 1.692572 1_555
O45 Ta1 1.863235 1_665
O46 S7 1.512230 1_555
O46 Ta1 2.065114 1_655
O47 Si3 1.695718 1_555
O47 Ta1 1.855008 1_555
O48 S5 1.437352 1_545
O49 S3 1.440999 1_555
O50 S4 1.438560 1_655
O51 S1 1.438563 1_555
O52 S2 1.440990 1_655
O53 S0 1.437358 1_545
O54 S8 1.524957 1_555
O54 Ta2 2.034525 1_555
O55 S9 1.476986 1_655
O55 Ta2 2.244844 1_555
O56 Si4 1.660313 1_545
O56 Ta2 1.916438 1_555
O57 Si5 1.660304 1_545
O57 Ta3 1.916438 1_555
O58 S10 1.477004 1_555
O58 Ta3 2.244844 1_555
O59 S11 1.524946 1_655
O59 Ta3 2.034524 1_555
O60 Si3 1.630846 1_555
O60 Ta4 1.917757 1_555
O61 Si2 1.665370 1_455
O61 Ta4 1.850018 1_555
O62 S7 1.506045 1_565
O62 Ta4 2.037886 1_555
O63 S6 1.506040 1_565
O63 Ta5 2.037886 1_555
O64 Si1 1.665387 1_555
O64 Ta5 1.850018 1_555
O65 Si0 1.630835 1_455
O65 Ta5 1.917757 1_555
O66 S0 1.562949 1_555
O66 Ta6 1.998337 1_555
O67 S1 1.581953 1_555
O67 Ta6 1.953461 1_555
O68 S2 1.539027 1_555
O68 Ta6 2.067856 1_555
O69 S3 1.539032 1_555
O69 Ta7 2.067856 1_555
O70 S4 1.581944 1_555
O70 Ta7 1.953461 1_555
O71 S5 1.562953 1_555
O71 Ta7 1.998337 1_555
