# generated using pymatgen
data_Ta4Zn2P6(SO12)3
_symmetry_space_group_name_H-M   'P 1'
_cell_length_a   8.75800496
_cell_length_b   8.75800468
_cell_length_c   22.54966491
_cell_angle_alpha   90.00000000
_cell_angle_beta   90.00000000
_cell_angle_gamma   120.00000105
_symmetry_Int_Tables_number   1
_chemical_formula_structural   Ta4Zn2P6(SO12)3
_chemical_formula_sum   'Ta8 Zn4 P12 S6 O72'
_cell_volume   1497.89399430
_cell_formula_units_Z   2
loop_
 _symmetry_equiv_pos_site_id
 _symmetry_equiv_pos_as_xyz
  1  'x, y, z'
loop_
 _atom_site_type_symbol
 _atom_site_label
 _atom_site_symmetry_multiplicity
 _atom_site_fract_x
 _atom_site_fract_y
 _atom_site_fract_z
 _atom_site_occupancy
  Ta  Ta0  1  -0.00000000  0.00000000  0.64182691  1
  Ta  Ta1  1  -0.00000000  0.00000000  0.14182691  1
  Ta  Ta2  1  0.66666700  0.33333300  0.97593512  1
  Ta  Ta3  1  0.66666700  0.33333300  0.47593512  1
  Ta  Ta4  1  0.33333300  0.66666700  0.02245221  1
  Ta  Ta5  1  0.33333300  0.66666700  0.52245221  1
  Ta  Ta6  1  0.33333300  0.66666700  0.31140564  1
  Ta  Ta7  1  0.33333300  0.66666700  0.81140564  1
  Zn  Zn0  1  -0.00000000  0.00000000  0.35916881  1
  Zn  Zn1  1  -0.00000000  0.00000000  0.85916881  1
  Zn  Zn2  1  0.66666700  0.33333300  0.68338582  1
  Zn  Zn3  1  0.66666700  0.33333300  0.18338582  1
  P  P0  1  0.95149162  0.33541968  0.58460551  1
  P  P1  1  0.38392906  0.04850838  0.58460551  1
  P  P2  1  0.66458032  0.61607094  0.58460551  1
  P  P3  1  0.95149162  0.61607094  0.08460551  1
  P  P4  1  0.66458032  0.04850838  0.08460551  1
  P  P5  1  0.38392906  0.33541968  0.08460551  1
  P  P6  1  0.62235839  0.66951551  0.91639831  1
  P  P7  1  0.04715612  0.37764161  0.91639831  1
  P  P8  1  0.33048449  0.95284388  0.91639831  1
  P  P9  1  0.62235839  0.95284388  0.41639831  1
  P  P10  1  0.33048449  0.37764161  0.41639831  1
  P  P11  1  0.04715612  0.66951551  0.41639831  1
  S  S0  1  0.29055896  0.00436333  0.25103736  1
  S  S1  1  0.71380437  0.70944104  0.25103736  1
  S  S2  1  0.99563667  0.28619563  0.25103736  1
  S  S3  1  0.29055896  0.28619563  0.75103736  1
  S  S4  1  0.99563667  0.70944104  0.75103736  1
  S  S5  1  0.71380437  0.00436333  0.75103736  1
  O  O0  1  0.20692407  0.02643852  0.30325912  1
  O  O1  1  0.81951445  0.79307593  0.30325912  1
  O  O2  1  0.97356148  0.18048555  0.30325912  1
  O  O3  1  0.20692407  0.18048555  0.80325912  1
  O  O4  1  0.97356148  0.79307593  0.80325912  1
  O  O5  1  0.81951445  0.02643852  0.80325912  1
  O  O6  1  0.79640579  0.96905374  0.69662852  1
  O  O7  1  0.17264795  0.20359421  0.69662852  1
  O  O8  1  0.03094626  0.82735205  0.69662852  1
  O  O9  1  0.79640579  0.82735205  0.19662852  1
  O  O10  1  0.03094626  0.20359421  0.19662852  1
  O  O11  1  0.17264795  0.96905374  0.19662852  1
  O  O12  1  0.88235803  0.37197368  0.63980090  1
  O  O13  1  0.48961665  0.11764197  0.63980090  1
  O  O14  1  0.62802632  0.51038335  0.63980090  1
  O  O15  1  0.88235803  0.51038335  0.13980090  1
  O  O16  1  0.62802632  0.11764197  0.13980090  1
  O  O17  1  0.48961665  0.37197368  0.13980090  1
  O  O18  1  0.46566090  0.30035380  0.02855626  1
  O  O19  1  0.83469390  0.53433910  0.02855626  1
  O  O20  1  0.69964620  0.16530610  0.02855626  1
  O  O21  1  0.46566090  0.16530610  0.52855626  1
  O  O22  1  0.69964620  0.53433910  0.52855626  1
  O  O23  1  0.83469390  0.30035380  0.52855626  1
  O  O24  1  0.52560059  0.68844016  0.97102362  1
  O  O25  1  0.16283857  0.47439941  0.97102362  1
  O  O26  1  0.31155984  0.83716143  0.97102362  1
  O  O27  1  0.52560059  0.83716143  0.47102362  1
  O  O28  1  0.31155984  0.47439941  0.47102362  1
  O  O29  1  0.16283857  0.68844016  0.47102362  1
  O  O30  1  0.13563251  0.63270543  0.36126289  1
  O  O31  1  0.49707192  0.86436749  0.36126289  1
  O  O32  1  0.36729457  0.50292808  0.36126289  1
  O  O33  1  0.13563251  0.50292808  0.86126289  1
  O  O34  1  0.36729457  0.86436749  0.86126289  1
  O  O35  1  0.49707192  0.63270543  0.86126289  1
  O  O36  1  0.02709360  0.82634407  0.40879273  1
  O  O37  1  0.79925047  0.97290640  0.40879273  1
  O  O38  1  0.17365593  0.20074953  0.40879273  1
  O  O39  1  0.02709360  0.20074953  0.90879273  1
  O  O40  1  0.17365593  0.97290640  0.90879273  1
  O  O41  1  0.79925047  0.82634407  0.90879273  1
  O  O42  1  0.97511307  0.16917780  0.59382553  1
  O  O43  1  0.19406473  0.02488693  0.59382553  1
  O  O44  1  0.83082220  0.80593527  0.59382553  1
  O  O45  1  0.97511307  0.80593527  0.09382553  1
  O  O46  1  0.83082220  0.02488693  0.09382553  1
  O  O47  1  0.19406473  0.16917780  0.09382553  1
  O  O48  1  0.68582268  0.15101798  0.74132768  1
  O  O49  1  0.46519629  0.31417731  0.74132768  1
  O  O50  1  0.84898202  0.53480371  0.74132768  1
  O  O51  1  0.68582269  0.53480371  0.24132768  1
  O  O52  1  0.84898202  0.31417731  0.24132768  1
  O  O53  1  0.46519629  0.15101798  0.24132768  1
  O  O54  1  0.63054774  0.49715282  0.92684993  1
  O  O55  1  0.86660608  0.36945226  0.92684993  1
  O  O56  1  0.50284718  0.13339392  0.92684993  1
  O  O57  1  0.63054774  0.13339392  0.42684993  1
  O  O58  1  0.50284718  0.36945226  0.42684993  1
  O  O59  1  0.86660608  0.49715282  0.42684993  1
  O  O60  1  0.35114059  0.49042611  0.07076408  1
  O  O61  1  0.13928452  0.64885941  0.07076408  1
  O  O62  1  0.50957389  0.86071548  0.07076408  1
  O  O63  1  0.35114059  0.86071548  0.57076408  1
  O  O64  1  0.50957389  0.64885941  0.57076408  1
  O  O65  1  0.13928452  0.49042611  0.57076408  1
  O  O66  1  0.30128330  0.83523599  0.25780938  1
  O  O67  1  0.53395169  0.69871670  0.25780938  1
  O  O68  1  0.16476401  0.46604831  0.25780938  1
  O  O69  1  0.30128330  0.46604831  0.75780938  1
  O  O70  1  0.16476401  0.69871670  0.75780938  1
  O  O71  1  0.53395169  0.83523599  0.75780938  1
loop_
_geom_bond_atom_site_label_1
_geom_bond_atom_site_label_2
_geom_bond_distance
_geom_bond_site_symmetry_2
O0 S0 1.449901 1_555
O0 Zn0 2.123132 1_555
O1 S1 1.449901 1_555
O1 Zn0 2.123132 1_665
O2 S2 1.449901 1_555
O2 Zn0 2.123132 1_655
O3 S3 1.449901 1_555
O3 Zn1 2.123132 1_555
O4 S4 1.449901 1_555
O4 Zn1 2.123132 1_665
O5 S5 1.449901 1_555
O5 Zn1 2.123132 1_655
O6 S5 1.532309 1_565
O6 Ta0 2.072839 1_665
O7 S3 1.532309 1_555
O7 Ta0 2.072839 1_555
O8 S4 1.532309 1_455
O8 Ta0 2.072839 1_565
O9 S1 1.532309 1_555
O9 Ta1 2.072839 1_665
O10 S2 1.532309 1_455
O10 Ta1 2.072839 1_555
O11 S0 1.532309 1_565
O11 Ta1 2.072839 1_565
O12 P0 1.487295 1_555
O12 Zn2 2.002400 1_555
O13 P1 1.487295 1_555
O13 Zn2 2.002400 1_555
O14 P2 1.487295 1_555
O14 Zn2 2.002400 1_555
O15 P3 1.487295 1_555
O15 Zn3 2.002400 1_555
O16 P4 1.487295 1_555
O16 Zn3 2.002400 1_555
O17 P5 1.487295 1_555
O17 Zn3 2.002400 1_555
O18 P5 1.556903 1_555
O18 Ta2 2.020397 1_554
O19 P3 1.556903 1_555
O19 Ta2 2.020397 1_554
O20 P4 1.556903 1_555
O20 Ta2 2.020397 1_554
O21 P1 1.556903 1_555
O21 Ta3 2.020397 1_555
O22 P2 1.556903 1_555
O22 Ta3 2.020397 1_555
O23 P0 1.556903 1_555
O23 Ta3 2.020397 1_555
O24 P6 1.550260 1_555
O24 Ta4 1.973731 1_556
O25 P7 1.550260 1_555
O25 Ta4 1.973731 1_556
O26 P8 1.550260 1_555
O26 Ta4 1.973731 1_556
O27 P9 1.550260 1_555
O27 Ta5 1.973731 1_555
O28 P10 1.550260 1_555
O28 Ta5 1.973731 1_555
O29 P11 1.550260 1_555
O29 Ta5 1.973731 1_555
O30 P11 1.581117 1_555
O30 Ta6 1.958418 1_555
O31 P9 1.581117 1_555
O31 Ta6 1.958418 1_555
O32 P10 1.581117 1_555
O32 Ta6 1.958418 1_555
O33 P7 1.581117 1_555
O33 Ta7 1.958418 1_555
O34 P8 1.581117 1_555
O34 Ta7 1.958418 1_555
O35 P6 1.581117 1_555
O35 Ta7 1.958418 1_555
O36 P11 1.479236 1_555
O36 Zn0 1.995602 1_565
O37 P9 1.479245 1_555
O37 Zn0 1.995603 1_665
O38 P10 1.479241 1_555
O38 Zn0 1.995602 1_555
O39 P7 1.479244 1_555
O39 Zn1 1.995602 1_555
O40 P8 1.479236 1_555
O40 Zn1 1.995603 1_565
O41 P6 1.479241 1_555
O41 Zn1 1.995602 1_665
O42 P0 1.583353 1_555
O42 Ta0 1.933232 1_655
O43 P1 1.583362 1_555
O43 Ta0 1.933232 1_555
O44 P2 1.583358 1_555
O44 Ta0 1.933232 1_665
O45 P3 1.583362 1_555
O45 Ta1 1.933232 1_665
O46 P4 1.583353 1_555
O46 Ta1 1.933232 1_655
O47 P5 1.583358 1_555
O47 Ta1 1.933232 1_555
O48 S5 1.439599 1_555
O48 Zn2 2.133693 1_555
O49 S3 1.439607 1_555
O49 Zn2 2.133693 1_555
O50 S4 1.439604 1_555
O50 Zn2 2.133693 1_555
O51 S1 1.439607 1_555
O51 Zn3 2.133693 1_555
O52 S2 1.439599 1_555
O52 Zn3 2.133693 1_555
O53 S0 1.439604 1_555
O53 Zn3 2.133693 1_555
O54 P6 1.564516 1_555
O54 Ta2 1.958957 1_555
O55 P7 1.564498 1_655
O55 Ta2 1.958957 1_555
O56 P8 1.564506 1_545
O56 Ta2 1.958957 1_555
O57 P9 1.564498 1_545
O57 Ta3 1.958957 1_555
O58 P10 1.564516 1_555
O58 Ta3 1.958957 1_555
O59 P11 1.564506 1_655
O59 Ta3 1.958957 1_555
O60 P5 1.553271 1_555
O60 Ta4 1.958144 1_555
O61 P3 1.553254 1_455
O61 Ta4 1.958144 1_555
O62 P4 1.553260 1_565
O62 Ta4 1.958144 1_555
O63 P1 1.553254 1_565
O63 Ta5 1.958144 1_555
O64 P2 1.553271 1_555
O64 Ta5 1.958144 1_555
O65 P0 1.553260 1_455
O65 Ta5 1.958144 1_555
O66 S0 1.537943 1_565
O66 Ta6 2.033073 1_555
O67 S1 1.537952 1_555
O67 Ta6 2.033073 1_555
O68 S2 1.537948 1_455
O68 Ta6 2.033073 1_555
O69 S3 1.537952 1_555
O69 Ta7 2.033073 1_555
O70 S4 1.537943 1_455
O70 Ta7 2.033073 1_555
O71 S5 1.537948 1_565
O71 Ta7 2.033073 1_555
