# generated using pymatgen
data_Na5Y3Si3Sn(SO8)3
_symmetry_space_group_name_H-M   'P 1'
_cell_length_a   9.32236959
_cell_length_b   9.29228828
_cell_length_c   23.51799663
_cell_angle_alpha   90.92730677
_cell_angle_beta   89.83429451
_cell_angle_gamma   119.99551468
_symmetry_Int_Tables_number   1
_chemical_formula_structural   Na5Y3Si3Sn(SO8)3
_chemical_formula_sum   'Na15 Y9 Si9 Sn3 S9 O72'
_cell_volume   1764.14738561
_cell_formula_units_Z   3
loop_
 _symmetry_equiv_pos_site_id
 _symmetry_equiv_pos_as_xyz
  1  'x, y, z'
loop_
 _atom_site_type_symbol
 _atom_site_label
 _atom_site_symmetry_multiplicity
 _atom_site_fract_x
 _atom_site_fract_y
 _atom_site_fract_z
 _atom_site_occupancy
  Na  Na0  1  0.65353064  0.01302163  0.25938270  1
  Na  Na1  1  -0.00001128  0.62018496  0.24777607  1
  Na  Na2  1  0.62851476  0.64046430  0.74643113  1
  Na  Na3  1  0.36910081  0.01212369  0.76036725  1
  Na  Na4  1  0.66693562  0.94813487  0.58476743  1
  Na  Na5  1  0.97215959  0.68275833  0.92399981  1
  Na  Na6  1  0.68926780  0.01090770  0.91123746  1
  Na  Na7  1  0.96016383  0.30680125  0.40883651  1
  Na  Na8  1  0.70570557  0.68312052  0.42854978  1
  Na  Na9  1  0.99651410  0.96554945  0.50190707  1
  Na  Na10  1  0.00610689  0.97496511  0.99801886  1
  Na  Na11  1  0.64151180  0.32048926  0.83301809  1
  Na  Na12  1  0.67244074  0.32017342  0.33751493  1
  Na  Na13  1  0.28838689  0.62459013  0.16049073  1
  Na  Na14  1  0.33692248  0.63333273  0.67064805  1
  Y  Y0  1  0.99819360  0.00331820  0.35267984  1
  Y  Y1  1  0.00750875  0.01171453  0.85021505  1
  Y  Y2  1  0.99658081  0.00233110  0.65245840  1
  Y  Y3  1  0.00119061  0.00150146  0.14320332  1
  Y  Y4  1  0.66397990  0.33898033  0.68658132  1
  Y  Y5  1  0.67698759  0.33936968  0.18151599  1
  Y  Y6  1  0.33298659  0.67212553  0.01857347  1
  Y  Y7  1  0.33458745  0.67134049  0.51694143  1
  Y  Y8  1  0.32201060  0.66454160  0.32076930  1
  Si  Si0  1  0.00083219  0.30076700  0.25122900  1
  Si  Si1  1  0.29686655  0.30639700  0.75141673  1
  Si  Si2  1  0.69331230  0.99761334  0.75243853  1
  Si  Si3  1  0.66877161  0.63397172  0.58285725  1
  Si  Si4  1  0.96239260  0.62843772  0.08181951  1
  Si  Si5  1  0.63250747  0.66315860  0.91755422  1
  Si  Si6  1  0.33866034  0.96457281  0.91727443  1
  Si  Si7  1  0.63220334  0.97421128  0.41835591  1
  Si  Si8  1  0.02459580  0.66205218  0.41803841  1
  Sn  Sn0  1  0.65759511  0.34212022  0.98027785  1
  Sn  Sn1  1  0.67509014  0.34215053  0.48362466  1
  Sn  Sn2  1  0.35969513  0.67448956  0.81872798  1
  S  S0  1  0.29704849  0.99924110  0.24938298  1
  S  S1  1  0.70161998  0.70483353  0.24991925  1
  S  S2  1  0.01037501  0.70497447  0.75229090  1
  S  S3  1  0.95786172  0.33014981  0.58143885  1
  S  S4  1  0.37665726  0.04740375  0.58087304  1
  S  S5  1  0.66924304  0.04249877  0.08080657  1
  S  S6  1  0.37323542  0.33112606  0.08169166  1
  S  S7  1  0.03657102  0.37886269  0.91634033  1
  S  S8  1  0.34184704  0.36999971  0.41777347  1
  O  O0  1  0.21782359  0.01712916  0.30148260  1
  O  O1  1  0.80289118  0.77920378  0.30239825  1
  O  O2  1  0.97855223  0.19951308  0.31051893  1
  O  O3  1  0.21954893  0.17894189  0.80361477  1
  O  O4  1  0.97981273  0.77792587  0.80426366  1
  O  O5  1  0.79599299  0.01287104  0.80999572  1
  O  O6  1  0.77565675  0.96168360  0.69548172  1
  O  O7  1  0.19067694  0.22067801  0.69348600  1
  O  O8  1  0.03587431  0.81166416  0.70257347  1
  O  O9  1  0.78913772  0.80722869  0.20050202  1
  O  O10  1  0.00718288  0.19206872  0.19744764  1
  O  O11  1  0.19311471  0.97486794  0.19898323  1
  O  O12  1  0.87244986  0.34751600  0.63103320  1
  O  O13  1  0.47374729  0.12417921  0.63323693  1
  O  O14  1  0.66081475  0.53236569  0.63901985  1
  O  O15  1  0.87448624  0.53310834  0.14109580  1
  O  O16  1  0.65152289  0.12056966  0.13393576  1
  O  O17  1  0.47005268  0.34333032  0.13284466  1
  O  O18  1  0.45118991  0.30598585  0.02915502  1
  O  O19  1  0.84255577  0.52427090  0.02420943  1
  O  O20  1  0.68071498  0.14157205  0.02993397  1
  O  O21  1  0.46396193  0.14962837  0.53000455  1
  O  O22  1  0.67940960  0.53526439  0.52252603  1
  O  O23  1  0.85637585  0.30547877  0.52773496  1
  O  O24  1  0.53619677  0.68767247  0.96984395  1
  O  O25  1  0.13224130  0.45266349  0.96836378  1
  O  O26  1  0.30373003  0.84089974  0.96883975  1
  O  O27  1  0.54869070  0.84955261  0.47140676  1
  O  O28  1  0.31491821  0.44676824  0.46891635  1
  O  O29  1  0.13785626  0.67403821  0.47137149  1
  O  O30  1  0.09704167  0.62344962  0.35922479  1
  O  O31  1  0.53140767  0.89623106  0.35823850  1
  O  O32  1  0.36933751  0.47578021  0.36753453  1
  O  O33  1  0.11822853  0.48332524  0.86568569  1
  O  O34  1  0.37490437  0.88236850  0.85749563  1
  O  O35  1  0.52828347  0.63442393  0.85682766  1
  O  O36  1  0.99287988  0.81906415  0.41370340  1
  O  O37  1  0.82274002  0.00531492  0.41430807  1
  O  O38  1  0.19445360  0.20481868  0.41071024  1
  O  O39  1  0.00772657  0.20783055  0.91092909  1
  O  O40  1  0.17613780  0.98309409  0.91099828  1
  O  O41  1  0.81821807  0.82791477  0.91378877  1
  O  O42  1  0.96644530  0.17489766  0.58428137  1
  O  O43  1  0.20971298  0.02741518  0.58343540  1
  O  O44  1  0.83388295  0.82166143  0.58119485  1
  O  O45  1  0.97649598  0.81141776  0.08113248  1
  O  O46  1  0.82112897  0.03000791  0.08314520  1
  O  O47  1  0.20618310  0.18239534  0.08406440  1
  O  O48  1  0.65850794  0.15250590  0.74653008  1
  O  O49  1  0.49038512  0.34418318  0.74691631  1
  O  O50  1  0.86260674  0.53922780  0.74458019  1
  O  O51  1  0.67949301  0.53538043  0.24492306  1
  O  O52  1  0.82703345  0.31448159  0.24885137  1
  O  O53  1  0.46572508  0.14523744  0.24495459  1
  O  O54  1  0.65946933  0.49745795  0.92053121  1
  O  O55  1  0.86770309  0.36502358  0.91977035  1
  O  O56  1  0.52225480  0.14514657  0.92582225  1
  O  O57  1  0.65113281  0.16245854  0.42808538  1
  O  O58  1  0.49389274  0.35575880  0.42278255  1
  O  O59  1  0.83487826  0.49002477  0.42241867  1
  O  O60  1  0.36173465  0.48278701  0.07855254  1
  O  O61  1  0.14128995  0.63760027  0.08018404  1
  O  O62  1  0.52162682  0.87383818  0.07862154  1
  O  O63  1  0.36675191  0.88310478  0.57620938  1
  O  O64  1  0.50421377  0.65668706  0.58045853  1
  O  O65  1  0.12381039  0.47667882  0.57712449  1
  O  O66  1  0.31421380  0.84703469  0.25303181  1
  O  O67  1  0.53996313  0.69791051  0.25481633  1
  O  O68  1  0.16080804  0.49183399  0.25140008  1
  O  O69  1  0.30920555  0.49194346  0.75984336  1
  O  O70  1  0.16308604  0.69348194  0.75824680  1
  O  O71  1  0.50426646  0.82339033  0.75441200  1
loop_
_geom_bond_atom_site_label_1
_geom_bond_atom_site_label_2
_geom_bond_distance
_geom_bond_site_symmetry_2
Na0 O52 2.452422 1_555
Na0 O67 2.568476 1_545
Na0 O31 2.590368 1_545
Na0 O53 2.618679 1_555
Na0 O66 2.743052 1_545
Na0 O2 2.886811 1_555
Na1 O68 2.338643 1_555
Na1 O52 2.468265 1_455
Na1 O66 2.619026 1_555
Na1 O51 2.682840 1_455
Na1 O15 2.706085 1_455
Na1 O30 2.770040 1_555
Na2 O49 2.386259 1_555
Na2 O71 2.494633 1_555
Na2 O69 2.601167 1_555
Na2 O35 2.748688 1_555
Na2 O14 2.774296 1_555
Na2 O50 2.774890 1_555
Na2 O6 2.870399 1_555
Na3 O48 2.361411 1_555
Na3 O70 2.601530 1_545
Na3 O34 2.613359 1_545
Na3 O71 2.623672 1_545
Na3 O49 2.727744 1_555
Na3 O3 2.735455 1_555
Na4 O64 2.351634 1_555
Na4 O44 2.373876 1_555
Na4 O42 2.520751 1_565
Na4 O63 2.558390 1_555
Na4 O6 2.774859 1_555
Na4 O27 2.844330 1_555
Na5 O41 2.425792 1_555
Na5 O40 2.493214 1_655
Na5 O54 2.539100 1_555
Na5 O55 2.606083 1_555
Na5 O19 2.738539 1_556
Na5 O26 2.872798 1_655
Na5 O4 2.955178 1_555
Na6 O56 2.454112 1_555
Na6 O41 2.527389 1_545
Na6 O5 2.574675 1_555
Na6 O39 2.594365 1_655
Na6 O34 2.843453 1_545
Na6 O55 2.853537 1_555
Na6 O24 2.965589 1_545
Na6 O20 3.042838 1_556
Na7 O37 2.434823 1_555
Na7 O59 2.516622 1_555
Na7 O57 2.540098 1_555
Na7 O2 2.542379 1_555
Na7 O38 2.782420 1_655
Na7 O30 2.827666 1_655
Na7 O23 2.954473 1_555
Na8 O36 2.347817 1_555
Na8 O22 2.567263 1_555
Na8 O59 2.615610 1_555
Na8 O37 2.651495 1_565
Na8 O58 2.674552 1_555
Na8 O27 2.784720 1_555
Na9 O44 2.366614 1_555
Na9 O36 2.453548 1_555
Na9 O43 2.607876 1_665
Na9 O37 2.765428 1_565
Na9 O42 2.834786 1_565
Na9 O38 2.996277 1_665
Na10 O45 2.424885 1_456
Na10 O41 2.529539 1_455
Na10 O40 2.563807 1_555
Na10 O47 2.755019 1_566
Na10 O46 2.841135 1_466
Na10 O39 2.998019 1_565
Na11 O49 2.544568 1_555
Na11 O54 2.566189 1_555
Na11 O48 2.596456 1_555
Na11 O56 2.635190 1_555
Na11 O55 2.811628 1_555
Na11 O50 2.937472 1_555
Na12 O59 2.509385 1_555
Na12 O52 2.546182 1_555
Na12 O57 2.555741 1_555
Na12 O58 2.722268 1_555
Na12 O53 2.805753 1_555
Na12 O51 2.958697 1_555
Na13 O61 2.377014 1_555
Na13 O68 2.472057 1_555
Na13 O60 2.593895 1_555
Na13 O66 2.902927 1_555
Na13 O62 2.980610 1_555
Na13 O67 3.044527 1_555
Na14 O69 2.437186 1_555
Na14 O71 2.565906 1_555
Na14 O64 2.575971 1_555
Na14 O65 2.816696 1_555
Na14 O70 2.834063 1_555
O0 S0 1.478288 1_545
O0 Y0 2.320857 1_455
O1 S1 1.489604 1_555
O1 Y0 2.278556 1_565
O2 Si0 1.648662 1_655
O2 Y0 2.175707 1_555
O3 Si1 1.617899 1_555
O3 Y1 2.120030 1_555
O4 S2 1.482899 1_655
O4 Y1 2.306252 1_665
O5 Si2 1.623048 1_545
O5 Y1 2.194359 1_655
O6 Si2 1.652535 1_555
O6 Y2 2.151895 1_565
O7 Si1 1.629379 1_555
O7 Y2 2.144216 1_455
O8 S2 1.485529 1_555
O8 Y2 2.319769 1_465
O9 S1 1.475056 1_555
O9 Y3 2.340473 1_665
O10 Si0 1.625275 1_555
O10 Y3 2.143528 1_555
O11 S0 1.474300 1_555
O11 Y3 2.334559 1_565
O12 S3 1.462000 1_555
O12 Y4 2.307466 1_555
O13 S4 1.475514 1_555
O13 Y4 2.257316 1_555
O14 Si3 1.615951 1_555
O14 Y4 2.144639 1_555
O15 Si4 1.645356 1_555
O15 Y5 2.065338 1_555
O16 S5 1.484621 1_555
O16 Y5 2.210773 1_555
O17 S6 1.474536 1_555
O17 Y5 2.262350 1_555
O18 S6 1.504828 1_555
O18 Sn0 2.119025 1_554
O19 Si4 1.704628 1_555
O19 Sn0 1.985211 1_554
O20 S5 1.492269 1_555
O20 Sn0 2.314425 1_554
O21 S4 1.501353 1_555
O21 Sn1 2.189564 1_555
O22 Si3 1.706553 1_555
O22 Sn1 1.983325 1_555
O23 S3 1.524305 1_555
O23 Sn1 2.155419 1_555
O24 Si5 1.599792 1_555
O24 Y6 2.154564 1_556
O25 S7 1.459541 1_555
O25 Y6 2.274709 1_556
O26 Si6 1.601886 1_555
O26 Y6 2.095447 1_556
O27 Si7 1.626041 1_555
O27 Y7 2.147821 1_555
O28 S8 1.472451 1_555
O28 Y7 2.281732 1_555
O29 Si8 1.608113 1_555
O29 Y7 2.137981 1_555
O30 Si8 1.648859 1_555
O30 Y8 2.135807 1_555
O31 Si7 1.643378 1_555
O31 Y8 2.229045 1_555
O32 S8 1.487216 1_555
O32 Y8 2.306489 1_555
O33 S7 1.494749 1_555
O33 Sn2 2.343763 1_555
O34 Si6 1.701382 1_555
O34 Sn2 2.062187 1_555
O35 Si5 1.670712 1_555
O35 Sn2 2.003877 1_555
O36 Si8 1.631810 1_655
O36 Y0 2.233353 1_565
O37 Si7 1.653565 1_545
O37 Y0 2.189090 1_555
O38 S8 1.468289 1_555
O38 Y0 2.285247 1_455
O39 S7 1.476708 1_555
O39 Y1 2.296070 1_555
O40 Si6 1.615474 1_555
O40 Y1 2.242494 1_565
O41 Si5 1.643874 1_555
O41 Y1 2.306574 1_665
O42 S3 1.486836 1_555
O42 Y2 2.399451 1_555
O43 S4 1.473445 1_555
O43 Y2 2.483479 1_455
O44 Si3 1.652340 1_555
O44 Y2 2.303364 1_565
O45 Si4 1.638882 1_555
O45 Y3 2.194478 1_665
O46 S5 1.478633 1_555
O46 Y3 2.313716 1_655
O47 S6 1.479330 1_555
O47 Y3 2.293544 1_555
O48 Si2 1.633968 1_545
O48 Y4 2.232293 1_555
O49 Si1 1.660071 1_555
O49 Y4 2.167360 1_555
O50 S2 1.474339 1_655
O50 Y4 2.288900 1_555
O51 S1 1.484970 1_555
O51 Y5 2.326253 1_555
O52 Si0 1.688690 1_655
O52 Y5 2.205892 1_555
O53 S0 1.481422 1_545
O53 Y5 2.424190 1_555
O54 Si5 1.682088 1_555
O54 Sn0 2.024472 1_555
O55 S7 1.516077 1_655
O55 Sn0 2.341723 1_555
O56 Si6 1.704365 1_545
O56 Sn0 2.051005 1_555
O57 Si7 1.679881 1_545
O57 Sn1 2.025403 1_555
O58 S8 1.493151 1_555
O58 Sn1 2.269403 1_555
O59 Si8 1.694516 1_655
O59 Sn1 2.045503 1_555
O60 S6 1.468841 1_555
O60 Y6 2.389769 1_555
O61 Si4 1.627228 1_455
O61 Y6 2.196095 1_555
O62 S5 1.481213 1_565
O62 Y6 2.287598 1_555
O63 S4 1.484954 1_565
O63 Y7 2.286610 1_555
O64 Si3 1.650986 1_555
O64 Y7 2.232951 1_555
O65 S3 1.467979 1_455
O65 Y7 2.376811 1_555
O66 S0 1.504542 1_555
O66 Y8 2.372784 1_555
O67 S1 1.480144 1_555
O67 Y8 2.449031 1_555
O68 Si0 1.651882 1_555
O68 Y8 2.239080 1_555
O69 Si1 1.678087 1_555
O69 Sn2 2.036203 1_555
O70 S2 1.487075 1_555
O70 Sn2 2.400077 1_555
O71 Si2 1.696526 1_555
O71 Sn2 2.051872 1_555
