# generated using pymatgen
data_CsSr2MgNb3O10
_symmetry_space_group_name_H-M   'P 1'
_cell_length_a   4.11917548
_cell_length_b   4.12968578
_cell_length_c   15.43449873
_cell_angle_alpha   90.00000000
_cell_angle_beta   90.00000000
_cell_angle_gamma   90.00000000
_symmetry_Int_Tables_number   1
_chemical_formula_structural   CsSr2MgNb3O10
_chemical_formula_sum   'Cs1 Sr2 Mg1 Nb3 O10'
_cell_volume   262.55472070
_cell_formula_units_Z   1
loop_
 _symmetry_equiv_pos_site_id
 _symmetry_equiv_pos_as_xyz
  1  'x, y, z'
loop_
 _atom_site_type_symbol
 _atom_site_label
 _atom_site_symmetry_multiplicity
 _atom_site_fract_x
 _atom_site_fract_y
 _atom_site_fract_z
 _atom_site_occupancy
  Cs  Cs0  1  0.50000000  0.27727873  0.50000000  1
  Sr  Sr0  1  0.50000000  0.50006492  0.85987707  1
  Sr  Sr1  1  0.50000000  0.50006492  0.14012293  1
  Mg  Mg0  1  -0.00000000  0.80156419  0.50000000  1
  Nb  Nb0  1  -0.00000000  0.00064568  0.73308414  1
  Nb  Nb1  1  -0.00000000  0.00064568  0.26691586  1
  Nb  Nb2  1  -0.00000000  0.00319482  0.00000000  1
  O  O0  1  0.00000000  0.02256557  0.61018854  1
  O  O1  1  0.00000000  0.02256557  0.38981146  1
  O  O2  1  0.50000000  0.00639307  0.75005427  1
  O  O3  1  -0.00000000  0.51549469  0.74983101  1
  O  O4  1  0.50000000  0.00639307  0.24994573  1
  O  O5  1  -0.00000000  0.51549469  0.25016899  1
  O  O6  1  0.00000000  0.51161170  0.00000000  1
  O  O7  1  0.50000000  0.00486134  0.00000000  1
  O  O8  1  0.00000000  0.02224717  0.12800067  1
  O  O9  1  -0.00000000  0.02224717  0.87199933  1
loop_
_geom_bond_atom_site_label_1
_geom_bond_atom_site_label_2
_geom_bond_distance
_geom_bond_site_symmetry_2
Cs0 Mg0 2.846290 1_545
Cs0 Mg0 2.846290 1_645
Cs0 O0 2.870673 1_555
Cs0 O1 2.870673 1_555
Cs0 O1 2.870673 1_655
Cs0 O0 2.870673 1_655
Cs0 Mg0 2.988262 1_555
Cs0 Mg0 2.988262 1_655
Mg0 O1 1.930118 1_565
Mg0 O0 1.930118 1_565
Nb0 O0 1.898991 1_555
Nb0 O3 2.020126 1_545
Nb0 O2 2.076312 1_455
Nb0 O2 2.076312 1_555
Nb0 O3 2.141819 1_555
Nb0 O9 2.145941 1_555
Nb1 O1 1.898991 1_555
Nb1 O5 2.020126 1_545
Nb1 O4 2.076312 1_555
Nb1 O4 2.076312 1_455
Nb1 O5 2.141819 1_555
Nb1 O8 2.145941 1_555
Nb2 O8 1.977192 1_555
Nb2 O9 1.977192 1_554
Nb2 O6 2.030084 1_545
Nb2 O7 2.059599 1_555
Nb2 O7 2.059599 1_455
Nb2 O6 2.099602 1_555
O2 Sr0 2.651333 1_555
O2 Sr0 2.691730 1_545
O3 Sr0 2.670371 1_555
O3 Sr0 2.670371 1_455
O4 Sr1 2.651333 1_555
O4 Sr1 2.691730 1_545
O5 Sr1 2.670371 1_555
O5 Sr1 2.670371 1_455
O6 Sr1 2.986899 1_555
O6 Sr0 2.986899 1_454
O6 Sr0 2.986899 1_554
O6 Sr1 2.986899 1_455
O7 Sr1 2.976501 1_555
O7 Sr0 2.976501 1_554
O7 Sr1 3.003857 1_545
O7 Sr0 3.003857 1_544
O8 Sr1 2.858421 1_455
O8 Sr1 2.858421 1_555
O8 Sr1 2.987839 1_545
O8 Sr1 2.987839 1_445
O9 Sr0 2.858421 1_555
O9 Sr0 2.858421 1_455
O9 Sr0 2.987839 1_545
O9 Sr0 2.987839 1_445
