# generated using pymatgen
data_Rb2Na2MgTi2O6
_symmetry_space_group_name_H-M   'P 1'
_cell_length_a   5.65382725
_cell_length_b   6.31200978
_cell_length_c   6.96882882
_cell_angle_alpha   56.56957139
_cell_angle_beta   94.47401032
_cell_angle_gamma   96.41562506
_symmetry_Int_Tables_number   1
_chemical_formula_structural   Rb2Na2MgTi2O6
_chemical_formula_sum   'Rb2 Na2 Mg1 Ti2 O6'
_cell_volume   206.21080600
_cell_formula_units_Z   1
loop_
 _symmetry_equiv_pos_site_id
 _symmetry_equiv_pos_as_xyz
  1  'x, y, z'
loop_
 _atom_site_type_symbol
 _atom_site_label
 _atom_site_symmetry_multiplicity
 _atom_site_fract_x
 _atom_site_fract_y
 _atom_site_fract_z
 _atom_site_occupancy
  Rb  Rb0  1  0.29812370  0.25074426  0.48286204  1
  Rb  Rb1  1  0.70170045  0.75372806  0.65869740  1
  Na  Na0  1  0.23250610  0.56142992  0.84407839  1
  Na  Na1  1  0.78720864  0.31298322  0.17563982  1
  Mg  Mg0  1  0.88670011  0.62873265  0.34839081  1
  Ti  Ti0  1  0.76622225  0.06211033  0.90648354  1
  Ti  Ti1  1  0.30013074  0.93941449  0.09257493  1
  O  O0  1  0.03156093  0.18416820  0.01172552  1
  O  O1  1  0.45484547  0.83774457  0.92448014  1
  O  O2  1  0.79421906  0.25722500  0.56764379  1
  O  O3  1  0.96939122  0.75931645  0.02573016  1
  O  O4  1  0.52524899  0.24188411  0.94941706  1
  O  O5  1  0.21642832  0.74176874  0.40810941  1
loop_
_geom_bond_atom_site_label_1
_geom_bond_atom_site_label_2
_geom_bond_distance
_geom_bond_site_symmetry_2
Na0 O0 2.205277 1_556
Na0 O1 2.326576 1_555
Na0 O4 2.504306 1_555
Na0 O5 2.589216 1_555
Na0 O3 2.797661 1_456
Na1 O4 2.268722 1_554
Na1 O0 2.322747 1_655
Na1 O3 2.523042 1_555
Na1 O2 2.552463 1_555
Mg0 O3 1.997440 1_555
Mg0 O2 2.002395 1_555
Mg0 O5 2.016551 1_655
Mg0 Rb1 2.968163 1_555
O0 Ti0 1.890672 1_454
O0 Ti1 2.107486 1_545
O1 Ti1 1.913857 1_556
O1 Ti0 2.098136 1_565
O1 Rb1 2.703842 1_555
O1 Rb0 2.881514 1_565
O2 Ti0 1.981936 1_555
O2 Rb0 2.821403 1_555
O2 Rb1 2.869618 1_545
O2 Rb0 2.963576 1_655
O3 Ti0 2.062659 1_564
O3 Ti1 2.231252 1_655
O3 Rb1 2.884037 1_554
O4 Ti1 1.953623 1_546
O4 Ti0 2.004123 1_555
O4 Rb1 2.814358 1_555
O5 Ti1 1.903495 1_555
O5 Rb0 2.931565 1_555
O5 Rb1 3.151877 1_555
