# generated using pymatgen
data_Na6Mg6SiSn2S11O48
_symmetry_space_group_name_H-M   'P 1'
_cell_length_a   17.42115421
_cell_length_b   8.71964375
_cell_length_c   22.68178439
_cell_angle_alpha   89.84769603
_cell_angle_beta   90.16102738
_cell_angle_gamma   119.80019877
_symmetry_Int_Tables_number   1
_chemical_formula_structural   Na6Mg6SiSn2S11O48
_chemical_formula_sum   'Na18 Mg18 Si3 Sn6 S33 O144'
_cell_volume   2989.86930254
_cell_formula_units_Z   3
loop_
 _symmetry_equiv_pos_site_id
 _symmetry_equiv_pos_as_xyz
  1  'x, y, z'
loop_
 _atom_site_type_symbol
 _atom_site_label
 _atom_site_symmetry_multiplicity
 _atom_site_fract_x
 _atom_site_fract_y
 _atom_site_fract_z
 _atom_site_occupancy
  Na  Na0  1  0.68719322  0.36572729  0.24185803  1
  Na  Na1  1  0.99380759  0.63590246  0.25501018  1
  Na  Na2  1  0.33419726  0.96420427  0.59298251  1
  Na  Na3  1  0.83537444  0.96605702  0.59289882  1
  Na  Na4  1  0.33406766  0.69799273  0.08084139  1
  Na  Na5  1  0.34440146  0.66494052  0.41306577  1
  Na  Na6  1  0.00781516  0.99807996  0.49593542  1
  Na  Na7  1  0.51190331  0.01766961  0.50041845  1
  Na  Na8  1  0.99759856  0.99730264  0.99843011  1
  Na  Na9  1  0.51047240  0.01778960  0.00223971  1
  Na  Na10  1  0.33502800  0.31999304  0.83749802  1
  Na  Na11  1  0.83433726  0.32022383  0.83777853  1
  Na  Na12  1  0.32843709  0.31938835  0.32896247  1
  Na  Na13  1  0.83827355  0.34104238  0.33369522  1
  Na  Na14  1  0.16827763  0.67104778  0.16563039  1
  Na  Na15  1  0.67140468  0.67736072  0.15810494  1
  Na  Na16  1  0.16879266  0.66991051  0.67677157  1
  Na  Na17  1  0.67033902  0.67108148  0.67733912  1
  Mg  Mg0  1  0.99942325  0.99150089  0.35180603  1
  Mg  Mg1  1  0.49862948  0.00236948  0.34907307  1
  Mg  Mg2  1  0.99863273  0.99942425  0.65168950  1
  Mg  Mg3  1  0.49893333  0.99928053  0.65205921  1
  Mg  Mg4  1  0.50192009  0.00434370  0.14804178  1
  Mg  Mg5  1  0.33508024  0.33489493  0.18278371  1
  Mg  Mg6  1  0.83381042  0.33472507  0.18183727  1
  Mg  Mg7  1  0.33466712  0.32946191  0.98218668  1
  Mg  Mg8  1  0.83168185  0.33304680  0.98257298  1
  Mg  Mg9  1  0.32979540  0.32284727  0.48123487  1
  Mg  Mg10  1  0.83613682  0.34007607  0.47961698  1
  Mg  Mg11  1  0.16276805  0.67056861  0.01498200  1
  Mg  Mg12  1  0.66680840  0.66603967  0.01669643  1
  Mg  Mg13  1  0.16208613  0.65879550  0.51544657  1
  Mg  Mg14  1  0.66536196  0.66115558  0.51793495  1
  Mg  Mg15  1  0.16978701  0.66792292  0.31687700  1
  Mg  Mg16  1  0.17160332  0.67597006  0.81524719  1
  Mg  Mg17  1  0.67216826  0.67656045  0.81534871  1
  Si  Si0  1  0.85216917  0.70115798  0.25231494  1
  Si  Si1  1  0.34852933  0.99144122  0.74494568  1
  Si  Si2  1  0.84831325  0.99245932  0.74480655  1
  Sn  Sn0  1  0.99551364  0.00412472  0.85020716  1
  Sn  Sn1  1  0.49627457  0.00406851  0.85082188  1
  Sn  Sn2  1  0.99337697  0.99426651  0.15013773  1
  Sn  Sn3  1  0.33497075  0.32889621  0.68659023  1
  Sn  Sn4  1  0.83500060  0.32928064  0.68611043  1
  Sn  Sn5  1  0.66965272  0.67275054  0.31651460  1
  S  S0  1  0.14967516  0.00425189  0.25079092  1
  S  S1  1  0.64390159  0.99730767  0.25064465  1
  S  S2  1  0.35210328  0.70354187  0.25022446  1
  S  S3  1  0.00232738  0.29615381  0.25109200  1
  S  S4  1  0.49679906  0.29089195  0.25149209  1
  S  S5  1  0.14616936  0.29402561  0.74918199  1
  S  S6  1  0.64652250  0.29470677  0.74904024  1
  S  S7  1  0.00078379  0.70777764  0.74921833  1
  S  S8  1  0.50077129  0.70764287  0.74923468  1
  S  S9  1  0.48263138  0.33821631  0.58070888  1
  S  S10  1  0.98278347  0.33730534  0.58098449  1
  S  S11  1  0.18379022  0.03695876  0.58135240  1
  S  S12  1  0.68482639  0.03960002  0.58024261  1
  S  S13  1  0.33404040  0.62443652  0.58052148  1
  S  S14  1  0.83374767  0.62328249  0.58193995  1
  S  S15  1  0.48054488  0.62569333  0.08364178  1
  S  S16  1  0.98276091  0.62954109  0.08388352  1
  S  S17  1  0.33245124  0.03816645  0.08370822  1
  S  S18  1  0.83305007  0.04210332  0.08257373  1
  S  S19  1  0.18492361  0.33017794  0.08394049  1
  S  S20  1  0.68485314  0.33332820  0.08384182  1
  S  S21  1  0.31361762  0.66292035  0.91880512  1
  S  S22  1  0.81335474  0.66332582  0.91746600  1
  S  S23  1  0.02106320  0.37669271  0.91665281  1
  S  S24  1  0.52157542  0.37730269  0.91639511  1
  S  S25  1  0.16522539  0.96316184  0.91553107  1
  S  S26  1  0.66529315  0.96077770  0.91612674  1
  S  S27  1  0.31445215  0.96229982  0.41800024  1
  S  S28  1  0.81500270  0.96620180  0.42053568  1
  S  S29  1  0.16609698  0.37035120  0.41711998  1
  S  S30  1  0.66540912  0.36770849  0.41746920  1
  S  S31  1  0.01967785  0.66784031  0.41591415  1
  S  S32  1  0.51950980  0.66684548  0.41730806  1
  O  O0  1  0.10869265  0.03414012  0.30227269  1
  O  O1  1  0.60455230  0.02618466  0.30414006  1
  O  O2  1  0.40461767  0.78587647  0.30508314  1
  O  O3  1  0.91665189  0.79100505  0.30668718  1
  O  O4  1  0.48769140  0.19032118  0.30568479  1
  O  O5  1  0.99237009  0.18712795  0.30219996  1
  O  O6  1  0.11186782  0.18035506  0.80345173  1
  O  O7  1  0.61224647  0.18083580  0.80339139  1
  O  O8  1  0.48678686  0.78565296  0.80409314  1
  O  O9  1  0.98736455  0.78623887  0.80424133  1
  O  O10  1  0.41316357  0.03868713  0.80426449  1
  O  O11  1  0.91292444  0.04109905  0.80420794  1
  O  O12  1  0.39147379  0.97849853  0.68351073  1
  O  O13  1  0.89132201  0.97848087  0.68363680  1
  O  O14  1  0.09565825  0.20629967  0.69610833  1
  O  O15  1  0.59569885  0.20693931  0.69590771  1
  O  O16  1  0.01435180  0.81627372  0.69670081  1
  O  O17  1  0.51412309  0.81557483  0.69655842  1
  O  O18  1  0.39517516  0.81250942  0.19722435  1
  O  O19  1  0.88708263  0.81806214  0.19045968  1
  O  O20  1  0.02182928  0.22598772  0.19516767  1
  O  O21  1  0.51547956  0.21382206  0.19942161  1
  O  O22  1  0.09254185  0.96819673  0.19555082  1
  O  O23  1  0.59086620  0.97305554  0.19773594  1
  O  O24  1  0.44430625  0.36949426  0.63620514  1
  O  O25  1  0.94448484  0.36984233  0.63661082  1
  O  O26  1  0.24214643  0.11639304  0.63577920  1
  O  O27  1  0.74173605  0.11693113  0.63526400  1
  O  O28  1  0.32040473  0.51484495  0.63541527  1
  O  O29  1  0.81902950  0.51729252  0.63813905  1
  O  O30  1  0.43975418  0.51982974  0.13735360  1
  O  O31  1  0.94428127  0.53621922  0.14014522  1
  O  O32  1  0.32058494  0.11983959  0.13708764  1
  O  O33  1  0.82626900  0.12362712  0.13766746  1
  O  O34  1  0.23822493  0.35517501  0.13753584  1
  O  O35  1  0.73469295  0.35314847  0.13983521  1
  O  O36  1  0.22465251  0.30215822  0.03104739  1
  O  O37  1  0.72993186  0.31070152  0.03255344  1
  O  O38  1  0.42274737  0.54243570  0.03157376  1
  O  O39  1  0.92680750  0.54378379  0.03264237  1
  O  O40  1  0.34354121  0.14316048  0.03030990  1
  O  O41  1  0.84361620  0.14865508  0.03013273  1
  O  O42  1  0.22653773  0.14900752  0.52974408  1
  O  O43  1  0.72806818  0.15169877  0.52891625  1
  O  O44  1  0.34268319  0.53620773  0.52779540  1
  O  O45  1  0.84154468  0.53045385  0.53111846  1
  O  O46  1  0.42290873  0.30863489  0.53057263  1
  O  O47  1  0.92249622  0.30610139  0.53118804  1
  O  O48  1  0.27507169  0.68999749  0.97351827  1
  O  O49  1  0.77327085  0.69224947  0.97008286  1
  O  O50  1  0.07389856  0.45809020  0.97004666  1
  O  O51  1  0.57366034  0.45926987  0.96972894  1
  O  O52  1  0.15097118  0.85799216  0.96954813  1
  O  O53  1  0.65173265  0.85510755  0.96971419  1
  O  O54  1  0.27521137  0.85498670  0.47238219  1
  O  O55  1  0.77116557  0.85435806  0.47236982  1
  O  O56  1  0.15590683  0.45372795  0.47084892  1
  O  O57  1  0.65347128  0.46028136  0.46727394  1
  O  O58  1  0.07410371  0.68456337  0.46816065  1
  O  O59  1  0.57569180  0.69097404  0.46820606  1
  O  O60  1  0.05958670  0.64648805  0.36061520  1
  O  O61  1  0.55813783  0.63610775  0.36160487  1
  O  O62  1  0.25965171  0.87544734  0.36571556  1
  O  O63  1  0.75809785  0.88698752  0.36517512  1
  O  O64  1  0.18225172  0.48507197  0.36487285  1
  O  O65  1  0.67865128  0.47124812  0.36002119  1
  O  O66  1  0.06277332  0.47495448  0.86272407  1
  O  O67  1  0.56315234  0.47458196  0.86223591  1
  O  O68  1  0.17412862  0.87839518  0.86257965  1
  O  O69  1  0.67354495  0.87724645  0.86255071  1
  O  O70  1  0.26199084  0.64790241  0.86613081  1
  O  O71  1  0.76429127  0.64696849  0.86316262  1
  O  O72  1  0.01276026  0.83082018  0.41402639  1
  O  O73  1  0.50950579  0.82571644  0.41034461  1
  O  O74  1  0.40331868  0.97408264  0.41209520  1
  O  O75  1  0.90215093  0.98092989  0.41318142  1
  O  O76  1  0.08805628  0.19359132  0.41064451  1
  O  O77  1  0.58516368  0.19241462  0.41122722  1
  O  O78  1  0.01501800  0.19374670  0.91485171  1
  O  O79  1  0.51512835  0.19369395  0.91501105  1
  O  O80  1  0.08141914  0.98008128  0.91074629  1
  O  O81  1  0.58118676  0.97833838  0.91158848  1
  O  O82  1  0.40599394  0.82775855  0.91498115  1
  O  O83  1  0.90648044  0.82845406  0.91420781  1
  O  O84  1  0.49039383  0.17663581  0.58638376  1
  O  O85  1  0.99065725  0.17610830  0.58713993  1
  O  O86  1  0.09646976  0.02000760  0.58983622  1
  O  O87  1  0.59684299  0.02139701  0.58861685  1
  O  O88  1  0.41515344  0.80030160  0.58536066  1
  O  O89  1  0.91468034  0.79926395  0.58617552  1
  O  O90  1  0.48691939  0.80375852  0.08938389  1
  O  O91  1  0.99331363  0.81549607  0.08635658  1
  O  O92  1  0.41191033  0.01442398  0.08926723  1
  O  O93  1  0.91906940  0.03138396  0.08430178  1
  O  O94  1  0.09345596  0.16785137  0.08977662  1
  O  O95  1  0.59546044  0.17305204  0.08822498  1
  O  O96  1  0.34299315  0.17955081  0.74727751  1
  O  O97  1  0.84237582  0.17984877  0.74697762  1
  O  O98  1  0.23927192  0.32388539  0.74473015  1
  O  O99  1  0.73929169  0.32423665  0.74441055  1
  O  O100  1  0.41468880  0.53403938  0.74437289  1
  O  O101  1  0.91499447  0.53427028  0.74444661  1
  O  O102  1  0.34321686  0.52551374  0.24513011  1
  O  O103  1  0.83876141  0.50266152  0.24478145  1
  O  O104  1  0.41918808  0.31303460  0.24475142  1
  O  O105  1  0.92114171  0.30941015  0.24301343  1
  O  O106  1  0.23805119  0.15856174  0.24183310  1
  O  O107  1  0.73431731  0.14978563  0.24483617  1
  O  O108  1  0.32489473  0.50633771  0.92372184  1
  O  O109  1  0.82540636  0.50772324  0.92343371  1
  O  O110  1  0.43061856  0.34903558  0.92098478  1
  O  O111  1  0.93043761  0.34915093  0.92198619  1
  O  O112  1  0.24286278  0.14224306  0.92140985  1
  O  O113  1  0.74250643  0.14077467  0.92162667  1
  O  O114  1  0.32580750  0.14128302  0.42278631  1
  O  O115  1  0.82214324  0.14130368  0.42455083  1
  O  O116  1  0.24914546  0.35696357  0.42229454  1
  O  O117  1  0.74545775  0.35257084  0.42243799  1
  O  O118  1  0.42975724  0.50970203  0.42196058  1
  O  O119  1  0.93034668  0.50804294  0.42093272  1
  O  O120  1  0.17605055  0.49109697  0.07802411  1
  O  O121  1  0.67621873  0.49387269  0.07795512  1
  O  O122  1  0.07200809  0.65052679  0.07825528  1
  O  O123  1  0.56979710  0.64778819  0.07680078  1
  O  O124  1  0.25366458  0.85504364  0.07826233  1
  O  O125  1  0.75662524  0.86186773  0.07782989  1
  O  O126  1  0.17893787  0.86252320  0.57624748  1
  O  O127  1  0.67910928  0.86388559  0.57561171  1
  O  O128  1  0.25558831  0.64905093  0.57704402  1
  O  O129  1  0.75523513  0.64857045  0.57784867  1
  O  O130  1  0.07024525  0.49566295  0.57544731  1
  O  O131  1  0.57008410  0.49612457  0.57493013  1
  O  O132  1  0.15436673  0.83857373  0.25632426  1
  O  O133  1  0.64901655  0.82926758  0.25620873  1
  O  O134  1  0.26314012  0.68760934  0.25554076  1
  O  O135  1  0.74982075  0.67338382  0.25512516  1
  O  O136  1  0.07889141  0.47979826  0.25612921  1
  O  O137  1  0.57979144  0.47297491  0.25689290  1
  O  O138  1  0.14962517  0.46357841  0.75707468  1
  O  O139  1  0.64978332  0.46406239  0.75682185  1
  O  O140  1  0.07467820  0.67481356  0.75645115  1
  O  O141  1  0.57437799  0.67422816  0.75653449  1
  O  O142  1  0.25297245  0.82159504  0.75317043  1
  O  O143  1  0.75280425  0.82268828  0.75318825  1
loop_
_geom_bond_atom_site_label_1
_geom_bond_atom_site_label_2
_geom_bond_distance
_geom_bond_site_symmetry_2
Na0 O103 2.295208 1_555
Na0 O135 2.360258 1_555
Na0 O107 2.399885 1_555
Na0 O35 2.480723 1_555
Na0 O137 2.497227 1_555
Na0 O21 2.771624 1_555
Na0 O65 2.864157 1_555
Na0 O1 2.930276 1_555
Na1 O103 2.361825 1_555
Na1 O132 2.456507 1_655
Na1 O136 2.460801 1_655
Na1 O105 2.490270 1_555
Na1 O3 2.614164 1_555
Na1 O60 2.634358 1_655
Na1 O31 2.746223 1_555
Na1 O22 2.865559 1_655
Na2 O12 2.256906 1_555
Na2 O128 2.412404 1_555
Na2 O84 2.418453 1_565
Na2 O126 2.420433 1_555
Na2 O88 2.463258 1_555
Na2 O26 2.721345 1_565
Na2 O54 2.910470 1_555
Na2 O46 2.964527 1_565
Na3 O13 2.254430 1_555
Na3 O85 2.401197 1_565
Na3 O129 2.426992 1_555
Na3 O127 2.437966 1_555
Na3 O89 2.459038 1_555
Na3 O27 2.731998 1_565
Na3 O47 2.927666 1_565
Na3 O55 2.930475 1_555
Na4 O90 2.352863 1_555
Na4 O124 2.397175 1_555
Na4 O92 2.402249 1_565
Na4 O120 2.429034 1_555
Na4 O48 2.627266 1_554
Na4 O38 2.752437 1_555
Na4 O18 2.835563 1_555
Na4 O34 2.899617 1_555
Na5 O74 2.360096 1_555
Na5 O116 2.361944 1_555
Na5 O118 2.466107 1_555
Na5 O73 2.496978 1_555
Na5 O2 2.666913 1_555
Na5 O64 2.687474 1_555
Na5 O44 2.825641 1_555
Na5 O54 2.831162 1_555
Na6 O72 2.392960 1_555
Na6 O76 2.496369 1_565
Na6 O75 2.577305 1_455
Na6 O86 2.578429 1_565
Na6 O89 2.651673 1_455
Na6 O85 2.694497 1_465
Na7 O77 2.471515 1_555
Na7 O87 2.475601 1_555
Na7 O84 2.529509 1_555
Na7 O73 2.631622 1_545
Na7 O88 2.639846 1_545
Na7 O74 2.646569 1_545
Na8 O83 2.451872 1_555
Na8 O78 2.467630 1_665
Na8 O93 2.485097 1_566
Na8 O80 2.519161 1_655
Na8 O91 2.522393 1_556
Na8 O94 2.611813 1_666
Na9 O95 2.415395 1_555
Na9 O79 2.476847 1_554
Na9 O81 2.510553 1_544
Na9 O90 2.604235 1_545
Na9 O92 2.610415 1_555
Na9 O82 2.641052 1_544
Na10 O96 2.427001 1_555
Na10 O110 2.447209 1_555
Na10 O112 2.476018 1_555
Na10 O108 2.607695 1_555
Na10 O98 2.692129 1_555
Na10 O100 2.700371 1_555
Na11 O97 2.438214 1_555
Na11 O111 2.465639 1_555
Na11 O113 2.477467 1_555
Na11 O109 2.596755 1_555
Na11 O99 2.695416 1_555
Na11 O101 2.707087 1_555
Na12 O106 2.480728 1_555
Na12 O104 2.501101 1_555
Na12 O102 2.537106 1_555
Na12 O114 2.618204 1_555
Na12 O116 2.639486 1_555
Na12 O118 2.721234 1_555
Na13 O103 2.454861 1_555
Na13 O119 2.506884 1_555
Na13 O105 2.608879 1_555
Na13 O115 2.618547 1_555
Na13 O117 2.618613 1_555
Na13 O107 2.668067 1_555
Na14 O124 2.518196 1_555
Na14 O122 2.541125 1_555
Na14 O134 2.579972 1_555
Na14 O120 2.580339 1_555
Na14 O132 2.606697 1_555
Na14 O136 2.614954 1_555
Na15 O125 2.394426 1_555
Na15 O121 2.453869 1_555
Na15 O123 2.476107 1_555
Na15 O135 2.596115 1_555
Na15 O133 2.718830 1_555
Na15 O137 2.813497 1_555
Na16 O142 2.229977 1_555
Na16 O140 2.458260 1_555
Na16 O138 2.460658 1_555
Na16 O128 2.780447 1_555
Na16 O126 2.781648 1_555
Na16 O130 2.818051 1_555
Na17 O143 2.209471 1_555
Na17 O139 2.445542 1_555
Na17 O141 2.466760 1_555
Na17 O129 2.761873 1_555
Na17 O127 2.810636 1_555
Na17 O131 2.849728 1_555
Mg0 O3 1.917941 1_555
Mg0 O72 2.078436 1_655
Mg0 O0 2.080988 1_665
Mg0 O5 2.094796 1_565
Mg0 O76 2.137032 1_665
Mg0 O75 2.162273 1_555
Mg1 O4 1.997871 1_555
Mg1 O1 2.028670 1_555
Mg1 O2 2.041880 1_545
Mg1 O74 2.113192 1_545
Mg1 O77 2.126867 1_555
Mg1 O73 2.148772 1_545
Mg2 O13 1.928974 1_555
Mg2 O16 2.022914 1_655
Mg2 O14 2.023752 1_665
Mg2 O86 2.147929 1_665
Mg2 O85 2.176244 1_565
Mg2 O89 2.204022 1_555
Mg3 O12 1.927697 1_555
Mg3 O17 2.016408 1_555
Mg3 O15 2.018863 1_565
Mg3 O87 2.168559 1_565
Mg3 O84 2.201798 1_565
Mg3 O88 2.216705 1_555
Mg4 O23 2.038316 1_545
Mg4 O95 2.068683 1_555
Mg4 O21 2.081156 1_555
Mg4 O92 2.090069 1_555
Mg4 O18 2.100133 1_545
Mg4 O90 2.110367 1_545
Mg5 O30 2.016530 1_555
Mg5 O32 2.047589 1_555
Mg5 O34 2.053663 1_555
Mg5 O104 2.103201 1_555
Mg5 O106 2.105639 1_555
Mg5 O102 2.135347 1_555
Mg6 O103 2.018643 1_555
Mg6 O33 2.043974 1_555
Mg6 O35 2.044676 1_555
Mg6 O31 2.079782 1_555
Mg6 O105 2.146885 1_555
Mg6 O107 2.206824 1_555
Mg7 O40 2.023241 1_556
Mg7 O38 2.055989 1_556
Mg7 O108 2.101190 1_555
Mg7 O110 2.116258 1_555
Mg7 O36 2.124895 1_556
Mg7 O112 2.127835 1_555
Mg8 O41 2.028252 1_556
Mg8 O37 2.032748 1_556
Mg8 O109 2.070017 1_555
Mg8 O39 2.094367 1_556
Mg8 O113 2.132289 1_555
Mg8 O111 2.154121 1_555
Mg9 O42 2.009036 1_555
Mg9 O46 2.021852 1_555
Mg9 O114 2.042086 1_555
Mg9 O44 2.054466 1_555
Mg9 O116 2.062173 1_555
Mg9 O118 2.162438 1_555
Mg10 O45 1.995838 1_555
Mg10 O47 2.037338 1_555
Mg10 O115 2.052636 1_555
Mg10 O119 2.055034 1_555
Mg10 O117 2.085243 1_555
Mg10 O43 2.102673 1_555
Mg11 O50 2.004612 1_554
Mg11 O52 2.024532 1_554
Mg11 O122 2.080141 1_555
Mg11 O48 2.102610 1_554
Mg11 O124 2.150076 1_555
Mg11 O120 2.212093 1_555
Mg12 O51 2.027630 1_554
Mg12 O49 2.049001 1_554
Mg12 O53 2.083727 1_554
Mg12 O121 2.107943 1_555
Mg12 O123 2.117679 1_555
Mg12 O125 2.152087 1_555
Mg13 O58 1.970261 1_555
Mg13 O56 2.012428 1_555
Mg13 O130 2.043338 1_555
Mg13 O54 2.101304 1_555
Mg13 O126 2.153167 1_555
Mg13 O128 2.176404 1_555
Mg14 O57 2.019890 1_555
Mg14 O131 2.031043 1_555
Mg14 O59 2.042655 1_555
Mg14 O55 2.053943 1_555
Mg14 O129 2.113814 1_555
Mg14 O127 2.117401 1_555
Mg15 O64 2.026806 1_555
Mg15 O62 2.034106 1_555
Mg15 O134 2.084184 1_555
Mg15 O60 2.087554 1_555
Mg15 O136 2.124798 1_555
Mg15 O132 2.134733 1_555
Mg16 O142 1.953693 1_555
Mg16 O68 2.050033 1_555
Mg16 O70 2.059803 1_555
Mg16 O66 2.127167 1_555
Mg16 O140 2.144824 1_555
Mg16 O138 2.150055 1_555
Mg17 O143 1.951215 1_555
Mg17 O69 2.043796 1_555
Mg17 O71 2.053956 1_555
Mg17 O67 2.125198 1_555
Mg17 O141 2.152964 1_555
Mg17 O139 2.153959 1_555
O0 S0 1.460284 1_555
O1 S1 1.477654 1_545
O2 S2 1.498724 1_555
O3 Si0 1.587209 1_555
O4 S4 1.470431 1_555
O5 S3 1.452242 1_655
O6 S5 1.504540 1_555
O6 Sn0 2.121842 1_455
O7 S6 1.506820 1_555
O7 Sn1 2.126766 1_555
O8 S8 1.497072 1_555
O8 Sn1 2.115347 1_565
O9 S7 1.498474 1_655
O9 Sn0 2.111474 1_565
O10 Si1 1.667697 1_545
O10 Sn1 1.930488 1_555
O11 Si2 1.667982 1_545
O11 Sn0 1.927043 1_555
O12 Si1 1.613935 1_555
O13 Si2 1.612065 1_555
O14 S5 1.462363 1_555
O15 S6 1.465399 1_555
O16 S7 1.463946 1_555
O17 S8 1.464702 1_555
O18 S2 1.483686 1_555
O19 Si0 1.660829 1_555
O19 Sn2 1.949426 1_555
O20 S3 1.520497 1_555
O20 Sn2 2.093814 1_445
O21 S4 1.475182 1_555
O22 S0 1.530831 1_565
O22 Sn2 2.115715 1_455
O23 S1 1.462685 1_555
O24 S9 1.513991 1_555
O24 Sn3 2.097455 1_555
O25 S10 1.520637 1_555
O25 Sn4 2.088779 1_555
O26 S11 1.528026 1_555
O26 Sn3 2.097441 1_555
O27 S12 1.525817 1_555
O27 Sn4 2.099760 1_555
O28 S13 1.513127 1_555
O28 Sn3 2.106647 1_555
O29 S14 1.518146 1_555
O29 Sn4 2.095505 1_555
O30 S15 1.479247 1_555
O31 S16 1.482264 1_555
O32 S17 1.472455 1_555
O33 S18 1.473043 1_555
O34 S19 1.476963 1_555
O35 S20 1.497514 1_555
O36 S19 1.467084 1_555
O37 S20 1.472859 1_555
O38 S15 1.485580 1_555
O39 S16 1.460788 1_555
O40 S17 1.470384 1_555
O41 S18 1.461940 1_555
O42 S11 1.467999 1_555
O43 S12 1.464655 1_555
O44 S13 1.471664 1_555
O45 S14 1.455171 1_555
O46 S9 1.473222 1_555
O47 S10 1.470966 1_555
O48 S21 1.486798 1_555
O49 S22 1.468634 1_555
O50 S23 1.471948 1_555
O51 S24 1.466758 1_555
O52 S25 1.474159 1_555
O53 S26 1.470184 1_555
O54 S27 1.492377 1_555
O55 S28 1.474868 1_555
O56 S29 1.476288 1_555
O57 S30 1.464236 1_555
O58 S31 1.477085 1_555
O59 S32 1.457828 1_555
O60 S31 1.492002 1_555
O61 S32 1.518830 1_555
O61 Sn5 2.077180 1_555
O62 S27 1.473473 1_555
O63 S28 1.534144 1_555
O63 Sn5 2.054854 1_555
O64 S29 1.483228 1_555
O65 S30 1.534473 1_555
O65 Sn5 2.085475 1_555
O66 S23 1.462512 1_555
O67 S24 1.463545 1_555
O68 S25 1.460334 1_555
O69 S26 1.462070 1_555
O70 S21 1.459867 1_555
O71 S22 1.463505 1_555
O72 S31 1.485204 1_555
O73 S32 1.487624 1_555
O74 S27 1.506081 1_555
O75 S28 1.468615 1_555
O76 S29 1.470650 1_555
O77 S30 1.478795 1_555
O78 S23 1.546233 1_555
O78 Sn0 2.109709 1_455
O79 S24 1.548653 1_555
O79 Sn1 2.105197 1_555
O80 S25 1.542163 1_555
O80 Sn0 2.113756 1_465
O81 S26 1.550166 1_555
O81 Sn1 2.110697 1_565
O82 S21 1.537629 1_555
O82 Sn1 2.133668 1_565
O83 S22 1.545628 1_555
O83 Sn0 2.121025 1_565
O84 S9 1.486015 1_555
O85 S10 1.484740 1_555
O86 S11 1.466629 1_555
O87 S12 1.473201 1_555
O88 S13 1.485464 1_555
O89 S14 1.483710 1_555
O90 S15 1.506544 1_555
O91 S16 1.539551 1_555
O91 Sn2 2.129091 1_555
O92 S17 1.502892 1_555
O93 S18 1.547519 1_555
O93 Sn2 2.100815 1_545
O94 S19 1.522661 1_555
O94 Sn2 2.141163 1_445
O95 S20 1.491691 1_555
O96 Si1 1.691226 1_545
O96 Sn3 1.944322 1_555
O97 Si2 1.688617 1_545
O97 Sn4 1.943227 1_555
O98 S5 1.513193 1_555
O98 Sn3 2.111889 1_555
O99 S6 1.508788 1_555
O99 Sn4 2.114197 1_555
O100 S8 1.515310 1_555
O100 Sn3 2.092647 1_555
O101 S7 1.512224 1_655
O101 Sn4 2.100978 1_555
O102 S2 1.486294 1_555
O103 Si0 1.636765 1_555
O104 S4 1.465234 1_555
O105 S3 1.486016 1_655
O106 S0 1.470840 1_555
O107 S1 1.478111 1_545
O108 S21 1.476781 1_555
O109 S22 1.478280 1_555
O110 S24 1.481570 1_555
O111 S23 1.479520 1_655
O112 S25 1.478625 1_545
O113 S26 1.479858 1_545
O114 S27 1.476658 1_545
O115 S28 1.472025 1_545
O116 S29 1.512441 1_555
O117 S30 1.468626 1_555
O118 S32 1.484630 1_555
O119 S31 1.490367 1_655
O120 S19 1.491717 1_555
O121 S20 1.486049 1_555
O122 S16 1.478294 1_455
O123 S15 1.477255 1_555
O124 S17 1.506825 1_565
O125 S18 1.474598 1_565
O126 S11 1.485639 1_565
O127 S12 1.489163 1_565
O128 S13 1.486975 1_555
O129 S14 1.492315 1_555
O130 S10 1.467309 1_455
O131 S9 1.466041 1_555
O132 S0 1.491911 1_565
O133 S1 1.516428 1_555
O133 Sn5 2.082748 1_555
O134 S2 1.490905 1_555
O135 Si0 1.677276 1_555
O135 Sn5 1.972978 1_555
O136 S3 1.494495 1_555
O137 S4 1.531203 1_555
O137 Sn5 2.145712 1_555
O138 S5 1.460936 1_555
O139 S6 1.460490 1_555
O140 S7 1.460509 1_555
O141 S8 1.458269 1_555
O142 Si1 1.596612 1_555
O143 Si2 1.596280 1_555
