# generated using pymatgen
data_MgV2Bi2(PbO5)2
_symmetry_space_group_name_H-M   'P 1'
_cell_length_a   6.00386049
_cell_length_b   7.73882361
_cell_length_c   7.09046488
_cell_angle_alpha   103.50415227
_cell_angle_beta   115.29875613
_cell_angle_gamma   90.13701663
_symmetry_Int_Tables_number   1
_chemical_formula_structural   MgV2Bi2(PbO5)2
_chemical_formula_sum   'Mg1 V2 Bi2 Pb2 O10'
_cell_volume   287.64907197
_cell_formula_units_Z   1
loop_
 _symmetry_equiv_pos_site_id
 _symmetry_equiv_pos_as_xyz
  1  'x, y, z'
loop_
 _atom_site_type_symbol
 _atom_site_label
 _atom_site_symmetry_multiplicity
 _atom_site_fract_x
 _atom_site_fract_y
 _atom_site_fract_z
 _atom_site_occupancy
  Mg  Mg0  1  0.71076400  0.60241500  0.41776300  1
  V  V0  1  0.16346000  0.61738400  0.32507300  1
  V  V1  1  0.83664200  0.36411300  0.67366500  1
  Bi  Bi0  1  0.50038000  0.23416700  0.00321800  1
  Bi  Bi1  1  0.48856600  0.76851800  0.98087500  1
  Pb  Pb0  1  0.16924400  0.13654200  0.34225000  1
  Pb  Pb1  1  0.86705600  0.96808300  0.73979900  1
  O  O0  1  0.27913100  0.00961900  0.02055000  1
  O  O1  1  0.73935400  0.01029500  0.02133800  1
  O  O2  1  0.68531900  0.33635200  0.37388100  1
  O  O3  1  0.31052000  0.70722300  0.61244200  1
  O  O4  1  0.61699000  0.22492700  0.71161400  1
  O  O5  1  0.85583400  0.69683200  0.25347900  1
  O  O6  1  0.87440700  0.60151500  0.73679600  1
  O  O7  1  0.10051700  0.37773300  0.20444800  1
  O  O8  1  0.09280000  0.22291700  0.70940700  1
  O  O9  1  0.39949100  0.69543900  0.25303200  1
loop_
_geom_bond_atom_site_label_1
_geom_bond_atom_site_label_2
_geom_bond_distance
_geom_bond_site_symmetry_2
Mg0 O9 1.977018 1_555
Mg0 O5 1.977613 1_555
Mg0 O2 2.004584 1_555
Mg0 O6 2.047018 1_555
Bi0 O0 2.242222 1_555
Bi0 O1 2.243866 1_555
Bi0 O2 2.301426 1_555
Bi0 O8 2.427525 1_554
Bi0 O4 2.436934 1_554
Bi1 O0 2.282542 1_566
Bi1 O1 2.284063 1_566
Bi1 O3 2.285665 1_555
Bi1 O9 2.391639 1_556
Bi1 O5 2.402066 1_556
O0 Pb1 2.382229 1_444
O0 Pb0 2.616474 1_555
O1 Pb1 2.384173 1_544
O1 Pb0 2.593051 1_655
O2 V1 1.877512 1_555
O3 V0 1.792352 1_555
O4 V1 1.844884 1_555
O4 Pb1 2.487611 1_545
O4 Pb0 2.773204 1_555
O5 V0 1.843038 1_655
O6 V1 1.776038 1_555
O7 V0 1.814804 1_555
O7 Pb0 2.262687 1_555
O8 V1 1.851405 1_455
O8 Pb1 2.491571 1_445
O8 Pb0 2.764894 1_555
O9 V0 1.841913 1_555
