# generated using pymatgen
data_Yb2MgTi2O6
_symmetry_space_group_name_H-M   'P 1'
_cell_length_a   5.97997920
_cell_length_b   5.97997865
_cell_length_c   5.97997872
_cell_angle_alpha   53.62461906
_cell_angle_beta   53.62461899
_cell_angle_gamma   53.62461202
_symmetry_Int_Tables_number   1
_chemical_formula_structural   Yb2MgTi2O6
_chemical_formula_sum   'Yb2 Mg1 Ti2 O6'
_cell_volume   128.66339878
_cell_formula_units_Z   1
loop_
 _symmetry_equiv_pos_site_id
 _symmetry_equiv_pos_as_xyz
  1  'x, y, z'
loop_
 _atom_site_type_symbol
 _atom_site_label
 _atom_site_symmetry_multiplicity
 _atom_site_fract_x
 _atom_site_fract_y
 _atom_site_fract_z
 _atom_site_occupancy
  Yb  Yb0  1  0.36653500  0.36653500  0.36653500  1
  Yb  Yb1  1  0.63346500  0.63346500  0.63346500  1
  Mg  Mg0  1  0.00000000  0.00000000  0.00000000  1
  Ti  Ti0  1  0.17382700  0.17382700  0.17382700  1
  Ti  Ti1  1  0.82617300  0.82617300  0.82617300  1
  O  O0  1  0.02584800  0.81191700  0.41410000  1
  O  O1  1  0.41410000  0.02584800  0.81191700  1
  O  O2  1  0.81191700  0.41410000  0.02584800  1
  O  O3  1  0.18808300  0.58590000  0.97415200  1
  O  O4  1  0.58590000  0.97415200  0.18808300  1
  O  O5  1  0.97415200  0.18808300  0.58590000  1
loop_
_geom_bond_atom_site_label_1
_geom_bond_atom_site_label_2
_geom_bond_distance
_geom_bond_site_symmetry_2
Mg0 O3 2.089303 1_544
Mg0 O2 2.089303 1_455
Mg0 O5 2.089303 1_454
Mg0 O0 2.089303 1_545
Mg0 O4 2.089304 1_445
Mg0 O1 2.089304 1_554
O0 Ti1 2.035585 1_455
O0 Ti0 2.146255 1_565
O0 Yb0 2.258351 1_555
O0 Yb1 2.454384 1_455
O1 Ti1 2.035585 1_545
O1 Ti0 2.146255 1_556
O1 Yb0 2.258351 1_555
O1 Yb1 2.454383 1_545
O2 Ti1 2.035585 1_554
O2 Ti0 2.146255 1_655
O2 Yb0 2.258352 1_555
O2 Yb1 2.454384 1_554
O3 Ti0 2.035585 1_556
O3 Ti1 2.146255 1_455
O3 Yb1 2.258352 1_555
O3 Yb0 2.454384 1_556
O4 Ti0 2.035585 1_565
O4 Ti1 2.146255 1_554
O4 Yb1 2.258351 1_555
O4 Yb0 2.454383 1_565
O5 Ti0 2.035585 1_655
O5 Ti1 2.146255 1_545
O5 Yb1 2.258351 1_555
O5 Yb0 2.454384 1_655
