# generated using pymatgen
data_Na7Ca2La2P5SO24
_symmetry_space_group_name_H-M   'P 1'
_cell_length_a   9.61496498
_cell_length_b   9.60823012
_cell_length_c   22.96458317
_cell_angle_alpha   90.26573269
_cell_angle_beta   89.88046594
_cell_angle_gamma   120.01397082
_symmetry_Int_Tables_number   1
_chemical_formula_structural   Na7Ca2La2P5SO24
_chemical_formula_sum   'Na21 Ca6 La6 P15 S3 O72'
_cell_volume   1837.02242374
_cell_formula_units_Z   3
loop_
 _symmetry_equiv_pos_site_id
 _symmetry_equiv_pos_as_xyz
  1  'x, y, z'
loop_
 _atom_site_type_symbol
 _atom_site_label
 _atom_site_symmetry_multiplicity
 _atom_site_fract_x
 _atom_site_fract_y
 _atom_site_fract_z
 _atom_site_occupancy
  Na  Na0  1  0.64794659  0.99177402  0.25189194  1
  Na  Na1  1  0.99508683  0.62622110  0.26036726  1
  Na  Na2  1  0.62648098  0.63862492  0.74683868  1
  Na  Na3  1  0.02406866  0.38189975  0.75465302  1
  Na  Na4  1  0.35772645  0.98659894  0.75325853  1
  Na  Na5  1  0.29478674  0.33500735  0.58937031  1
  Na  Na6  1  0.03782014  0.70280333  0.58140366  1
  Na  Na7  1  0.67018950  0.95778593  0.58470408  1
  Na  Na8  1  0.29121416  0.95506203  0.07703585  1
  Na  Na9  1  0.67179371  0.70573249  0.09029825  1
  Na  Na10  1  0.04194227  0.34011499  0.08462979  1
  Na  Na11  1  0.99684128  0.67126742  0.91660564  1
  Na  Na12  1  0.32425521  0.29872835  0.92309133  1
  Na  Na13  1  0.96604102  0.31192444  0.41065904  1
  Na  Na14  1  0.70241998  0.67795569  0.42112042  1
  Na  Na15  1  0.00290455  0.98614702  0.50951326  1
  Na  Na16  1  -0.00245879  0.00777333  0.00800527  1
  Na  Na17  1  0.66442607  0.29771463  0.83298000  1
  Na  Na18  1  0.66506926  0.32841790  0.33318482  1
  Na  Na19  1  0.33237069  0.62821817  0.17022721  1
  Na  Na20  1  0.33344945  0.66951808  0.66627693  1
  Ca  Ca0  1  0.99686704  0.99956440  0.65463362  1
  Ca  Ca1  1  0.00328480  0.00844457  0.15396396  1
  Ca  Ca2  1  0.33632153  0.67557412  0.01329843  1
  Ca  Ca3  1  0.33249843  0.68146573  0.51192278  1
  Ca  Ca4  1  0.33377928  0.66871315  0.31819432  1
  Ca  Ca5  1  0.33555436  0.67600337  0.82013312  1
  La  La0  1  0.00615486  0.00101141  0.34835812  1
  La  La1  1  0.99519720  0.00459037  0.84734089  1
  La  La2  1  0.66695804  0.33217397  0.67769715  1
  La  La3  1  0.66507798  0.33617616  0.17943985  1
  La  La4  1  0.66634167  0.31747105  0.98497973  1
  La  La5  1  0.66170950  0.31978503  0.48560443  1
  P  P0  1  0.69161757  0.69398584  0.24832205  1
  P  P1  1  -0.00205023  0.31463147  0.25040387  1
  P  P2  1  0.31244466  0.31574583  0.74915246  1
  P  P3  1  0.00041593  0.68847777  0.74988943  1
  P  P4  1  0.68319943  0.99605762  0.74355577  1
  P  P5  1  0.98630304  0.33270364  0.58243884  1
  P  P6  1  0.34650884  0.01637372  0.58939913  1
  P  P7  1  0.66566179  0.64847783  0.58104935  1
  P  P8  1  0.97939423  0.64864376  0.08167444  1
  P  P9  1  0.66735841  0.01529129  0.09026621  1
  P  P10  1  0.35156817  0.33272747  0.07663891  1
  P  P11  1  0.03255442  0.36797458  0.91560675  1
  P  P12  1  0.32758242  0.97880943  0.91620739  1
  P  P13  1  0.64636699  0.97554155  0.41376548  1
  P  P14  1  0.01626209  0.65956291  0.41616210  1
  S  S0  1  0.31204920  0.99053146  0.24581383  1
  S  S1  1  0.63964324  0.66006749  0.91690755  1
  S  S2  1  0.33568632  0.37296778  0.42010428  1
  O  O0  1  0.22232814  -0.00082209  0.29686955  1
  O  O1  1  0.79336236  0.78616634  0.30319319  1
  O  O2  1  0.99907142  0.22087906  0.30578210  1
  O  O3  1  0.22419041  0.21445229  0.80406779  1
  O  O4  1  0.98791685  0.77353651  0.80599127  1
  O  O5  1  0.79681179  0.00875008  0.79394977  1
  O  O6  1  0.76119429  0.99419198  0.68529651  1
  O  O7  1  0.21476611  0.22670439  0.69457043  1
  O  O8  1  -0.00090263  0.78301038  0.69612603  1
  O  O9  1  0.78578467  0.78677024  0.19379305  1
  O  O10  1  -0.00183738  0.22356959  0.19524895  1
  O  O11  1  0.23577920  0.00283606  0.19160161  1
  O  O12  1  0.89822033  0.34497271  0.63767902  1
  O  O13  1  0.43037611  0.09146613  0.64818316  1
  O  O14  1  0.65351074  0.54980799  0.63665006  1
  O  O15  1  0.88927341  0.54543786  0.13608346  1
  O  O16  1  0.65341985  0.09066607  0.14829281  1
  O  O17  1  0.46681987  0.34236952  0.12610227  1
  O  O18  1  0.42806281  0.32175566  0.01849099  1
  O  O19  1  0.87449026  0.55878285  0.02749702  1
  O  O20  1  0.68012957  0.13303536  0.04127233  1
  O  O21  1  0.45387257  0.13523324  0.54098772  1
  O  O22  1  0.67339950  0.55271134  0.52716730  1
  O  O23  1  0.88013469  0.32028607  0.52897572  1
  O  O24  1  0.55391290  0.66353902  0.96992360  1
  O  O25  1  0.12505507  0.46160332  0.97021636  1
  O  O26  1  0.33784223  0.89505944  0.97181876  1
  O  O27  1  0.55674507  0.88654730  0.46907872  1
  O  O28  1  0.33698343  0.45099141  0.47559774  1
  O  O29  1  0.10001239  0.65468696  0.47227049  1
  O  O30  1  0.10889302  0.66046178  0.36090379  1
  O  O31  1  0.55875022  0.88630654  0.35781737  1
  O  O32  1  0.33494274  0.46918736  0.37053459  1
  O  O33  1  0.12177138  0.45561262  0.85962646  1
  O  O34  1  0.32586260  0.88887671  0.86037938  1
  O  O35  1  0.55864208  0.67135247  0.86372617  1
  O  O36  1  0.98750378  0.80709343  0.41807670  1
  O  O37  1  0.81920670  0.99294367  0.41636755  1
  O  O38  1  0.18764640  0.20997105  0.41849252  1
  O  O39  1  0.01499841  0.19684092  0.91825406  1
  O  O40  1  0.16711455  0.98618690  0.92044733  1
  O  O41  1  0.81053364  0.79470294  0.91959267  1
  O  O42  1  0.00144955  0.17913344  0.58281450  1
  O  O43  1  0.17701406  -0.00225012  0.58521074  1
  O  O44  1  0.82260323  0.81457939  0.58163761  1
  O  O45  1  0.99702922  0.81837230  0.08472650  1
  O  O46  1  0.82175127  0.00174174  0.08694227  1
  O  O47  1  0.18332617  0.17907573  0.08216419  1
  O  O48  1  0.65909328  0.14564982  0.74957128  1
  O  O49  1  0.48510992  0.33618867  0.74911150  1
  O  O50  1  0.85151401  0.51290918  0.74987886  1
  O  O51  1  0.67759300  0.52423035  0.25050126  1
  O  O52  1  0.83662315  0.32112401  0.25437587  1
  O  O53  1  0.48186357  0.12551146  0.25079350  1
  O  O54  1  0.64163991  0.50495034  0.91385273  1
  O  O55  1  0.86317226  0.35666072  0.91403061  1
  O  O56  1  0.47050658  0.15692782  0.91260229  1
  O  O57  1  0.67692625  0.15248423  0.41190047  1
  O  O58  1  0.48320127  0.35715322  0.41506795  1
  O  O59  1  0.84365251  0.50385277  0.41229964  1
  O  O60  1  0.33530818  0.48563045  0.08039866  1
  O  O61  1  0.14720416  0.66260624  0.07959922  1
  O  O62  1  0.51647599  0.84695462  0.08301645  1
  O  O63  1  0.33416544  0.84975576  0.58308440  1
  O  O64  1  0.51560155  0.66906557  0.57972001  1
  O  O65  1  0.15437696  0.48617946  0.58020547  1
  O  O66  1  0.31082378  0.83454803  0.24616620  1
  O  O67  1  0.52656138  0.68659849  0.24951701  1
  O  O68  1  0.14047565  0.49004078  0.25023411  1
  O  O69  1  0.33064060  0.48608624  0.75189572  1
  O  O70  1  0.15667743  0.67700742  0.75023772  1
  O  O71  1  0.51707616  0.84062973  0.74907333  1
loop_
_geom_bond_atom_site_label_1
_geom_bond_atom_site_label_2
_geom_bond_distance
_geom_bond_site_symmetry_2
Na0 O53 2.501028 1_565
Na0 O16 2.556599 1_565
Na0 O67 2.556958 1_555
Na0 O31 2.612344 1_555
Na0 O52 2.750229 1_565
Na0 O66 2.812008 1_555
Na1 O68 2.355001 1_655
Na1 O30 2.505875 1_655
Na1 O52 2.542154 1_555
Na1 O66 2.692915 1_655
Na1 O51 2.708993 1_555
Na1 O15 2.997521 1_555
Na2 O69 2.466206 1_555
Na2 O49 2.518736 1_555
Na2 O71 2.630153 1_555
Na2 O14 2.719926 1_555
Na2 O35 2.814199 1_555
Na2 O50 2.959981 1_555
Na3 O70 2.461936 1_555
Na3 O50 2.537816 1_455
Na3 O33 2.554102 1_555
Na3 O69 2.596673 1_555
Na3 O12 2.895040 1_455
Na4 O48 2.511768 1_565
Na4 O71 2.543934 1_555
Na4 O13 2.576275 1_565
Na4 O34 2.599518 1_555
Na4 O70 2.614582 1_555
Na4 O49 2.945912 1_565
Na5 O65 2.437705 1_555
Na5 O42 2.448329 1_555
Na5 O7 2.593428 1_555
Na5 O28 2.793415 1_555
Na5 O64 2.836573 1_555
Na5 O43 2.849302 1_555
Na6 O43 2.456362 1_565
Na6 O63 2.467590 1_555
Na6 O29 2.666815 1_555
Na6 O44 2.767429 1_455
Na6 O65 2.814553 1_555
Na6 O8 2.817357 1_555
Na7 O64 2.406382 1_555
Na7 O6 2.432925 1_555
Na7 O44 2.462054 1_555
Na7 O42 2.809471 1_665
Na7 O27 2.820840 1_555
Na7 O63 2.856992 1_555
Na8 O61 2.434221 1_555
Na8 O45 2.457747 1_455
Na8 O26 2.571547 1_554
Na8 O11 2.764857 1_565
Na8 O47 2.820193 1_565
Na8 O62 2.835864 1_555
Na9 O46 2.464336 1_565
Na9 O62 2.475813 1_555
Na9 O9 2.568316 1_555
Na9 O45 2.753253 1_555
Na9 O60 2.853929 1_555
Na9 O24 2.938305 1_554
Na10 O60 2.444446 1_555
Na10 O47 2.519619 1_555
Na10 O10 2.726670 1_555
Na10 O61 2.739395 1_555
Na10 O25 2.826867 1_554
Na10 O46 2.858362 1_455
Na11 O41 2.596989 1_555
Na11 O40 2.624108 1_655
Na11 O55 2.627684 1_555
Na11 O4 2.744815 1_555
Na11 O19 2.788925 1_556
Na12 O18 2.372453 1_556
Na12 O56 2.409136 1_555
Na12 O40 2.600754 1_545
Na12 O39 2.626895 1_555
Na12 O54 2.689912 1_555
Na12 O3 2.874626 1_555
Na13 O57 2.411399 1_555
Na13 O2 2.630963 1_555
Na13 O59 2.637613 1_555
Na13 O37 2.660413 1_545
Na13 O38 2.761036 1_655
Na13 O23 2.850667 1_555
Na14 O36 2.378107 1_555
Na14 O59 2.636598 1_555
Na14 O37 2.652370 1_555
Na14 O22 2.673050 1_555
Na14 O58 2.731392 1_555
Na14 O1 2.878608 1_555
Na15 O44 2.370758 1_455
Na15 O43 2.379166 1_565
Na15 O42 2.503792 1_565
Na15 O36 2.665288 1_455
Na15 O37 2.798552 1_455
Na15 O38 2.890298 1_565
Na16 O47 2.417766 1_555
Na16 O46 2.456921 1_455
Na16 O45 2.537057 1_445
Na16 O40 2.658037 1_544
Na16 O39 2.702702 1_554
Na16 O41 2.800111 1_444
Na17 O48 2.388682 1_555
Na17 O56 2.476927 1_555
Na17 O55 2.521742 1_555
Na17 O50 2.730246 1_555
Na17 O49 2.734376 1_555
Na17 O54 2.803997 1_555
Na18 O52 2.470456 1_555
Na18 O59 2.485882 1_555
Na18 O57 2.521937 1_555
Na18 O51 2.639159 1_555
Na18 O53 2.650997 1_555
Na18 O58 2.671036 1_555
Na19 O67 2.464406 1_555
Na19 O68 2.469923 1_555
Na19 O60 2.479001 1_555
Na19 O66 2.718752 1_555
Na19 O62 2.804269 1_555
Na19 O61 2.867186 1_555
Na20 O71 2.552751 1_555
Na20 O63 2.582190 1_555
Na20 O70 2.592117 1_555
Na20 O65 2.630997 1_555
Na20 O69 2.637655 1_555
Na20 O64 2.647925 1_555
Ca0 O8 2.302352 1_655
Ca0 O7 2.325647 1_665
Ca0 O6 2.347308 1_555
Ca0 O43 2.358097 1_665
Ca0 O42 2.376754 1_665
Ca0 O44 2.404438 1_555
Ca1 O10 2.292846 1_555
Ca1 O9 2.302274 1_445
Ca1 O46 2.305958 1_455
Ca1 O47 2.361596 1_555
Ca1 O45 2.393855 1_445
Ca1 O11 2.424069 1_555
Ca2 O25 2.267895 1_554
Ca2 O26 2.311413 1_554
Ca2 O61 2.324589 1_555
Ca2 O62 2.325701 1_555
Ca2 O24 2.369566 1_554
Ca2 O60 2.390292 1_555
Ca3 O63 2.288038 1_555
Ca3 O27 2.293128 1_555
Ca3 O29 2.307182 1_555
Ca3 O28 2.383227 1_555
Ca3 O65 2.390382 1_555
Ca3 O64 2.400148 1_555
Ca4 O32 2.272219 1_555
Ca4 O31 2.311754 1_555
Ca4 O30 2.337534 1_555
Ca4 O67 2.371577 1_555
Ca4 O68 2.373282 1_555
Ca4 O66 2.387763 1_555
Ca5 O33 2.277563 1_555
Ca5 O34 2.284531 1_555
Ca5 O71 2.336944 1_555
Ca5 O70 2.358559 1_555
Ca5 O69 2.382262 1_555
Ca5 O35 2.389644 1_555
La0 O1 2.299308 1_445
La0 O37 2.350803 1_445
La0 O2 2.363644 1_455
La0 O0 2.396821 1_555
La0 O36 2.399853 1_445
La0 O38 2.479290 1_555
La1 O5 2.286886 1_555
La1 O3 2.338614 1_655
La1 O4 2.379146 1_545
La1 O39 2.392048 1_655
La1 O40 2.426709 1_645
La1 O41 2.531609 1_545
La2 O12 2.350096 1_555
La2 O14 2.359480 1_555
La2 O13 2.389861 1_555
La2 O49 2.408970 1_555
La2 O50 2.411415 1_555
La2 O48 2.415215 1_555
La3 O17 2.293803 1_555
La3 O15 2.313944 1_555
La3 O51 2.387109 1_555
La3 O16 2.410152 1_555
La3 O52 2.440419 1_555
La3 O53 2.517309 1_555
La4 O20 2.255232 1_556
La4 O55 2.378654 1_555
La4 O19 2.383159 1_556
La4 O56 2.402307 1_555
La4 O18 2.435060 1_556
La4 O54 2.534990 1_555
La5 O21 2.284866 1_555
La5 O23 2.324058 1_555
La5 O22 2.379352 1_555
La5 O57 2.383106 1_555
La5 O59 2.437654 1_555
La5 O58 2.516377 1_555
O0 S0 1.480662 1_545
O1 P0 1.567571 1_555
O2 P1 1.565013 1_655
O3 P2 1.561530 1_555
O4 P3 1.558868 1_655
O5 P4 1.555039 1_545
O6 P4 1.536787 1_555
O7 P2 1.541513 1_555
O8 P3 1.539971 1_555
O9 P0 1.542965 1_555
O10 P1 1.536662 1_555
O11 S0 1.481078 1_545
O12 P5 1.560266 1_555
O13 P6 1.551335 1_555
O14 P7 1.562873 1_555
O15 P8 1.562921 1_555
O16 P9 1.550988 1_555
O17 P10 1.558336 1_555
O18 P10 1.551570 1_555
O19 P8 1.560388 1_555
O20 P9 1.559841 1_555
O21 P6 1.559946 1_555
O22 P7 1.562322 1_555
O23 P5 1.563872 1_555
O24 S1 1.478446 1_555
O25 P11 1.538438 1_555
O26 P12 1.541977 1_555
O27 P13 1.534795 1_555
O28 S2 1.472435 1_555
O29 P14 1.534116 1_555
O30 P14 1.546393 1_555
O31 P13 1.538599 1_555
O32 S2 1.472071 1_555
O33 P11 1.542848 1_555
O34 P12 1.538228 1_555
O35 S1 1.483087 1_555
O36 P14 1.574551 1_655
O37 P13 1.586065 1_555
O38 S2 1.499892 1_555
O39 P11 1.568150 1_555
O40 P12 1.582323 1_555
O41 S1 1.500090 1_555
O42 P5 1.553575 1_455
O43 P6 1.551097 1_555
O44 P7 1.553984 1_555
O45 P8 1.554187 1_555
O46 P9 1.555390 1_555
O47 P10 1.556953 1_555
O48 P4 1.571620 1_545
O49 P2 1.571151 1_555
O50 P3 1.574557 1_655
O51 P0 1.568983 1_555
O52 P1 1.585698 1_655
O53 S0 1.497308 1_545
O54 S1 1.501411 1_555
O55 P11 1.577521 1_655
O56 P12 1.572332 1_545
O57 P13 1.574613 1_545
O58 S2 1.504309 1_555
O59 P14 1.586167 1_655
O60 P10 1.555242 1_555
O61 P8 1.551386 1_455
O62 P9 1.549018 1_565
O63 P6 1.551080 1_565
O64 P7 1.551635 1_555
O65 P5 1.550810 1_455
O66 S0 1.492925 1_555
O67 P0 1.552911 1_555
O68 P1 1.551742 1_555
O69 P2 1.557528 1_555
O70 P3 1.560537 1_555
O71 P4 1.553091 1_555
