# generated using pymatgen
data_Na7Mg3Ta(PO4)6
_symmetry_space_group_name_H-M   'P 1'
_cell_length_a   9.01366200
_cell_length_b   9.00179435
_cell_length_c   22.02526718
_cell_angle_alpha   90.04614020
_cell_angle_beta   90.09834322
_cell_angle_gamma   119.96236155
_symmetry_Int_Tables_number   1
_chemical_formula_structural   Na7Mg3Ta(PO4)6
_chemical_formula_sum   'Na21 Mg9 Ta3 P18 O72'
_cell_volume   1548.26509757
_cell_formula_units_Z   3
loop_
 _symmetry_equiv_pos_site_id
 _symmetry_equiv_pos_as_xyz
  1  'x, y, z'
loop_
 _atom_site_type_symbol
 _atom_site_label
 _atom_site_symmetry_multiplicity
 _atom_site_fract_x
 _atom_site_fract_y
 _atom_site_fract_z
 _atom_site_occupancy
  Na  Na0  1  0.63561866  0.99941043  0.24800494  1
  Na  Na1  1  0.36352608  0.36422793  0.24800578  1
  Na  Na2  1  0.00057798  0.63646459  0.24811664  1
  Na  Na3  1  0.65693481  0.63998507  0.74635107  1
  Na  Na4  1  0.98774467  0.34787365  0.74620645  1
  Na  Na5  1  0.29360332  0.33495631  0.58753432  1
  Na  Na6  1  0.04047967  0.70683784  0.58752694  1
  Na  Na7  1  0.66577633  0.96084851  0.58764383  1
  Na  Na8  1  0.29282279  0.95868120  0.08887535  1
  Na  Na9  1  0.66441920  0.70606886  0.08924560  1
  Na  Na10  1  0.04274677  0.33402456  0.08983354  1
  Na  Na11  1  0.31822486  0.29558394  0.91034600  1
  Na  Na12  1  0.98469316  0.30237531  0.40221966  1
  Na  Na13  1  0.31749811  0.01480133  0.40249656  1
  Na  Na14  1  0.69803884  0.68230580  0.40218801  1
  Na  Na15  1  0.00011030  0.99991363  0.49848121  1
  Na  Na16  1  0.98418077  0.98511645  0.99570085  1
  Na  Na17  1  0.66336505  0.31708396  0.82543005  1
  Na  Na18  1  0.66690858  0.33347178  0.31974822  1
  Na  Na19  1  0.33342491  0.66651561  0.17103802  1
  Na  Na20  1  0.33488332  0.68248670  0.66231148  1
  Mg  Mg0  1  0.00034007  0.99991600  0.34544346  1
  Mg  Mg1  1  0.99532876  0.99393236  0.85080674  1
  Mg  Mg2  1  0.00239924  0.99862259  0.65255431  1
  Mg  Mg3  1  0.99997332  0.99953585  0.15128879  1
  Mg  Mg4  1  0.66070437  0.32723007  0.68656009  1
  Mg  Mg5  1  0.66683782  0.33352609  0.18402470  1
  Mg  Mg6  1  0.33428138  0.66886815  0.01781971  1
  Mg  Mg7  1  0.33331395  0.66690658  0.51620611  1
  Mg  Mg8  1  0.33317302  0.66656834  0.31596473  1
  Ta  Ta0  1  0.67100387  0.33429444  0.97833170  1
  Ta  Ta1  1  0.66587511  0.33273359  0.48212192  1
  Ta  Ta2  1  0.33316773  0.67339340  0.81581666  1
  P  P0  1  0.29776885  0.99847389  0.24969433  1
  P  P1  1  0.70061019  0.70222214  0.24965836  1
  P  P2  1  0.00154171  0.29921063  0.24974057  1
  P  P3  1  0.29738994  0.29873399  0.75219057  1
  P  P4  1  0.00166595  0.70556487  0.74867045  1
  P  P5  1  0.70573421  0.99934301  0.74942938  1
  P  P6  1  0.96290191  0.33515203  0.58650245  1
  P  P7  1  0.37329271  0.03827257  0.58497020  1
  P  P8  1  0.66521561  0.62846387  0.58640628  1
  P  P9  1  0.96118652  0.62618950  0.08483092  1
  P  P10  1  0.66512197  0.03926179  0.08471356  1
  P  P11  1  0.37454049  0.33449350  0.08325661  1
  P  P12  1  0.62947029  0.66905788  0.91991593  1
  P  P13  1  0.03997519  0.37301738  0.91930882  1
  P  P14  1  0.33163690  0.96214982  0.92160862  1
  P  P15  1  0.62992498  0.96303000  0.41907763  1
  P  P16  1  0.33358097  0.37053653  0.41909130  1
  P  P17  1  0.03636845  0.66631368  0.41915485  1
  O  O0  1  0.21286570  0.02123486  0.30732914  1
  O  O1  1  0.80848165  0.78713919  0.30737892  1
  O  O2  1  0.97905724  0.19144396  0.30733824  1
  O  O3  1  0.21095347  0.19789179  0.80919716  1
  O  O4  1  0.97556050  0.79796599  0.80118459  1
  O  O5  1  0.82297704  0.02338131  0.80231474  1
  O  O6  1  0.76585785  0.95258205  0.69000220  1
  O  O7  1  0.18653278  0.22701897  0.69423127  1
  O  O8  1  0.03358552  0.80115099  0.68796312  1
  O  O9  1  0.78660445  0.81166710  0.19267265  1
  O  O10  1  0.02478799  0.21306958  0.19260292  1
  O  O11  1  0.18842829  0.97504030  0.19251555  1
  O  O12  1  0.87758545  0.35743626  0.64240575  1
  O  O13  1  0.48953411  0.12930151  0.63797414  1
  O  O14  1  0.64505729  0.52160188  0.64242222  1
  O  O15  1  0.87819204  0.51931389  0.14120658  1
  O  O16  1  0.64220262  0.12232662  0.14135390  1
  O  O17  1  0.48340174  0.35753056  0.13918340  1
  O  O18  1  0.47725868  0.32076842  0.02524803  1
  O  O19  1  0.83985637  0.51971265  0.02806749  1
  O  O20  1  0.67887739  0.16092813  0.02832208  1
  O  O21  1  0.47212569  0.15099935  0.52578840  1
  O  O22  1  0.67661209  0.52183741  0.52928063  1
  O  O23  1  0.84386830  0.32099597  0.52930886  1
  O  O24  1  0.54321976  0.67971773  0.97712389  1
  O  O25  1  0.14447526  0.45823888  0.97563256  1
  O  O26  1  0.31734309  0.86612917  0.97912507  1
  O  O27  1  0.54833270  0.85971743  0.47657234  1
  O  O28  1  0.31175180  0.45190338  0.47674581  1
  O  O29  1  0.14003260  0.68836551  0.47668792  1
  O  O30  1  0.11048788  0.62669242  0.36286458  1
  O  O31  1  0.51590699  0.88843487  0.36277709  1
  O  O32  1  0.37219834  0.48416400  0.36286105  1
  O  O33  1  0.13431052  0.49236706  0.86228063  1
  O  O34  1  0.35281169  0.86109889  0.86591575  1
  O  O35  1  0.50458326  0.64030969  0.86357619  1
  O  O36  1  0.00612107  0.81987574  0.41310790  1
  O  O37  1  0.81352379  0.99337180  0.41317321  1
  O  O38  1  0.18070027  0.18651379  0.41309368  1
  O  O39  1  0.01929282  0.19629120  0.91017865  1
  O  O40  1  0.18463912  0.99686056  0.91169426  1
  O  O41  1  0.80743918  0.81804217  0.91049281  1
  O  O42  1  0.97055772  0.16777460  0.58425584  1
  O  O43  1  0.19915375  0.03229641  0.58406800  1
  O  O44  1  0.83229339  0.80289279  0.58317827  1
  O  O45  1  0.96746562  0.80028845  0.08264643  1
  O  O46  1  0.83218182  0.03199834  0.08222969  1
  O  O47  1  0.19985965  0.16735839  0.08154361  1
  O  O48  1  0.68202599  0.15584711  0.74455325  1
  O  O49  1  0.48350648  0.33833207  0.74737183  1
  O  O50  1  0.84946772  0.51877894  0.74641043  1
  O  O51  1  0.68116390  0.52070081  0.24585722  1
  O  O52  1  0.83962970  0.31860321  0.24612565  1
  O  O53  1  0.47874850  0.16073303  0.24602323  1
  O  O54  1  0.63203097  0.49153540  0.92011596  1
  O  O55  1  0.85815547  0.36060092  0.92112475  1
  O  O56  1  0.50370225  0.14482821  0.92071999  1
  O  O57  1  0.65228477  0.15184556  0.42522290  1
  O  O58  1  0.50105522  0.35025151  0.42520756  1
  O  O59  1  0.84831715  0.49975137  0.42569253  1
  O  O60  1  0.35392397  0.49374119  0.07758736  1
  O  O61  1  0.13937846  0.64511375  0.07763353  1
  O  O62  1  0.50634899  0.86034340  0.07781927  1
  O  O63  1  0.35164828  0.85816666  0.57827910  1
  O  O64  1  0.50546261  0.64731079  0.57924114  1
  O  O65  1  0.14128107  0.49458393  0.57890926  1
  O  O66  1  0.31708123  0.83654796  0.25452915  1
  O  O67  1  0.51959888  0.68289381  0.25445384  1
  O  O68  1  0.16330844  0.48035203  0.25455785  1
  O  O69  1  0.31343722  0.48736602  0.75924570  1
  O  O70  1  0.16723657  0.68362537  0.75923045  1
  O  O71  1  0.52039020  0.83242292  0.76117253  1
loop_
_geom_bond_atom_site_label_1
_geom_bond_atom_site_label_2
_geom_bond_distance
_geom_bond_site_symmetry_2
Na0 O53 2.482138 1_565
Na0 O66 2.492171 1_555
Na0 O67 2.501356 1_555
Na0 O52 2.522279 1_565
Na0 O16 2.585488 1_565
Na0 O31 2.736644 1_555
Na0 O9 2.914337 1_555
Na0 O2 2.986019 1_565
Na1 O51 2.481099 1_555
Na1 O67 2.489111 1_555
Na1 O68 2.501089 1_555
Na1 O53 2.517231 1_555
Na1 O17 2.643810 1_555
Na1 O32 2.735293 1_555
Na1 O10 2.915079 1_555
Na1 O0 2.984769 1_555
Na2 O52 2.479316 1_455
Na2 O68 2.490986 1_555
Na2 O66 2.503691 1_555
Na2 O51 2.525899 1_455
Na2 O15 2.588209 1_455
Na2 O30 2.730483 1_555
Na2 O11 2.917902 1_555
Na2 O1 2.981975 1_455
Na3 O49 2.361761 1_555
Na3 O50 2.468494 1_555
Na3 O14 2.503630 1_555
Na3 O71 2.598510 1_555
Na3 O69 2.703556 1_555
Na3 O4 2.763147 1_555
Na3 O6 2.769967 1_555
Na3 O35 2.927159 1_555
Na4 O48 2.413404 1_555
Na4 O50 2.415710 1_555
Na4 O12 2.509606 1_555
Na4 O69 2.567467 1_655
Na4 O70 2.635769 1_655
Na4 O7 2.767085 1_655
Na4 O5 2.818528 1_555
Na4 O33 2.870504 1_655
Na5 O43 2.415789 1_555
Na5 O65 2.440519 1_555
Na5 O64 2.494940 1_555
Na5 O42 2.524034 1_455
Na5 O7 2.544195 1_555
Na5 O28 2.631124 1_555
Na6 O8 2.380824 1_555
Na6 O44 2.428660 1_455
Na6 O63 2.439242 1_555
Na6 O65 2.499250 1_555
Na6 O43 2.539667 1_565
Na6 O29 2.636004 1_555
Na7 O42 2.431432 1_565
Na7 O6 2.441782 1_555
Na7 O64 2.452089 1_555
Na7 O63 2.509480 1_555
Na7 O44 2.533025 1_555
Na7 O27 2.638005 1_555
Na7 O13 2.908844 1_565
Na8 O47 2.414361 1_565
Na8 O61 2.457610 1_555
Na8 O62 2.500051 1_555
Na8 O11 2.502619 1_555
Na8 O45 2.544385 1_455
Na8 O26 2.601676 1_554
Na9 O45 2.426793 1_555
Na9 O62 2.449029 1_555
Na9 O60 2.491069 1_555
Na9 O9 2.499609 1_555
Na9 O46 2.547263 1_565
Na9 O24 2.660668 1_554
Na9 O17 2.934971 1_555
Na10 O46 2.421977 1_455
Na10 O60 2.445850 1_555
Na10 O10 2.482827 1_555
Na10 O61 2.497706 1_555
Na10 O47 2.532277 1_555
Na10 O25 2.721425 1_554
Na10 O15 2.955702 1_455
Na11 O40 2.334045 1_545
Na11 O39 2.377697 1_555
Na11 O3 2.410727 1_555
Na11 O54 2.484355 1_555
Na11 O56 2.637095 1_555
Na11 O18 2.858838 1_556
Na11 O35 2.883878 1_555
Na11 O25 2.993177 1_555
Na12 O2 2.304900 1_555
Na12 O37 2.427239 1_545
Na12 O38 2.471033 1_655
Na12 O57 2.649734 1_555
Na12 O59 2.667846 1_555
Na12 O30 2.694638 1_655
Na13 O0 2.309628 1_555
Na13 O38 2.422463 1_555
Na13 O36 2.468713 1_545
Na13 O58 2.666514 1_555
Na13 O57 2.674699 1_555
Na13 O31 2.700634 1_545
Na14 O1 2.305224 1_555
Na14 O36 2.421797 1_655
Na14 O37 2.463639 1_555
Na14 O59 2.650608 1_555
Na14 O58 2.654913 1_555
Na14 O32 2.704417 1_555
Na15 O36 2.499685 1_555
Na15 O44 2.499774 1_455
Na15 O37 2.500488 1_455
Na15 O38 2.508508 1_565
Na15 O43 2.514441 1_565
Na15 O42 2.514462 1_465
Na16 O41 2.431857 1_555
Na16 O45 2.492756 1_556
Na16 O46 2.504505 1_566
Na16 O40 2.553510 1_655
Na16 O39 2.582399 1_665
Na16 O47 2.615755 1_666
Na17 O48 2.355586 1_555
Na17 O49 2.433382 1_555
Na17 O50 2.472325 1_555
Na17 O56 2.582060 1_555
Na17 O55 2.641508 1_555
Na17 O54 2.708294 1_555
Na18 O53 2.298559 1_555
Na18 O52 2.299477 1_555
Na18 O51 2.300989 1_555
Na18 O57 2.806993 1_555
Na18 O58 2.808887 1_555
Na18 O59 2.809933 1_555
Na19 O67 2.440317 1_555
Na19 O66 2.442879 1_555
Na19 O68 2.447739 1_555
Na19 O60 2.640593 1_555
Na19 O61 2.641798 1_555
Na19 O62 2.643779 1_555
Na20 O63 2.390886 1_555
Na20 O64 2.511362 1_555
Na20 O65 2.513234 1_555
Na20 O70 2.620472 1_555
Na20 O71 2.662207 1_555
Na20 O69 2.710900 1_555
Mg0 O2 2.011427 1_465
Mg0 O1 2.011477 1_455
Mg0 O0 2.012406 1_565
Mg0 O36 2.222249 1_555
Mg0 O38 2.223633 1_565
Mg0 O37 2.230254 1_455
Mg1 O4 2.005093 1_555
Mg1 O5 2.007622 1_565
Mg1 O3 2.105410 1_665
Mg1 O41 2.106148 1_555
Mg1 O40 2.158249 1_655
Mg1 O39 2.162651 1_665
Mg2 O8 2.085114 1_555
Mg2 O7 2.099429 1_565
Mg2 O6 2.126471 1_455
Mg2 O43 2.232805 1_565
Mg2 O44 2.253740 1_455
Mg2 O42 2.258877 1_465
Mg3 O11 2.031695 1_655
Mg3 O10 2.034671 1_665
Mg3 O9 2.037000 1_555
Mg3 O45 2.248934 1_555
Mg3 O46 2.262885 1_565
Mg3 O47 2.276542 1_665
Mg4 O13 1.986338 1_555
Mg4 O14 2.067645 1_555
Mg4 O12 2.077816 1_555
Mg4 O48 2.084958 1_555
Mg4 O49 2.126402 1_555
Mg4 O50 2.159626 1_555
Mg5 O17 2.026714 1_555
Mg5 O16 2.030218 1_555
Mg5 O15 2.035179 1_555
Mg5 O51 2.118650 1_555
Mg5 O52 2.125236 1_555
Mg5 O53 2.129718 1_555
Mg6 O25 2.033940 1_554
Mg6 O26 2.043421 1_554
Mg6 O24 2.044991 1_554
Mg6 O62 2.107557 1_555
Mg6 O61 2.121505 1_555
Mg6 O60 2.128569 1_555
Mg7 O28 2.039599 1_555
Mg7 O29 2.039924 1_555
Mg7 O27 2.044251 1_555
Mg7 O63 2.138201 1_555
Mg7 O64 2.152397 1_555
Mg7 O65 2.153913 1_555
Mg8 O68 2.099776 1_555
Mg8 O66 2.101816 1_555
Mg8 O67 2.107655 1_555
Mg8 O32 2.113075 1_555
Mg8 O31 2.114196 1_555
Mg8 O30 2.124341 1_555
O0 P0 1.548746 1_545
O1 P1 1.548464 1_555
O2 P2 1.548546 1_655
O3 P3 1.518647 1_555
O4 P4 1.509939 1_655
O5 P5 1.512405 1_545
O6 P5 1.553545 1_555
O7 P3 1.547515 1_555
O8 P4 1.538462 1_555
O9 P1 1.545744 1_555
O10 P2 1.546145 1_555
O11 P0 1.545803 1_555
O12 P6 1.518099 1_555
O13 P7 1.506260 1_555
O14 P8 1.519419 1_555
O15 P9 1.520929 1_555
O16 P10 1.520448 1_555
O17 P11 1.521630 1_555
O18 P11 1.619556 1_555
O18 Ta0 1.981510 1_554
O19 P9 1.619917 1_555
O19 Ta0 1.938090 1_554
O20 P10 1.620064 1_555
O20 Ta0 1.940612 1_554
O21 P7 1.620363 1_555
O21 Ta1 1.950827 1_555
O22 P8 1.616136 1_555
O22 Ta1 1.954025 1_555
O23 P6 1.616417 1_555
O23 Ta1 1.956809 1_555
O24 P12 1.509618 1_555
O25 P13 1.512408 1_555
O26 P14 1.503204 1_555
O27 P15 1.526858 1_555
O28 P16 1.526775 1_555
O29 P17 1.525943 1_555
O30 P17 1.533237 1_555
O31 P15 1.532892 1_555
O32 P16 1.532685 1_555
O33 P13 1.596341 1_555
O33 Ta2 2.001755 1_555
O34 P14 1.594042 1_555
O34 Ta2 1.949735 1_555
O35 P12 1.605516 1_555
O35 Ta2 2.009240 1_555
O36 P17 1.542576 1_555
O37 P15 1.542565 1_555
O38 P16 1.542522 1_555
O39 P13 1.519581 1_555
O40 P14 1.521039 1_555
O41 P12 1.505877 1_555
O42 P6 1.543079 1_555
O43 P7 1.543559 1_555
O44 P8 1.541774 1_555
O45 P9 1.540511 1_555
O46 P10 1.540580 1_555
O47 P11 1.541948 1_555
O48 P5 1.530638 1_545
O49 P3 1.534929 1_555
O50 P4 1.551520 1_655
O51 P1 1.556081 1_555
O52 P2 1.555899 1_655
O53 P0 1.556187 1_545
O54 P12 1.609682 1_555
O54 Ta0 2.066163 1_555
O55 P13 1.586576 1_655
O55 Ta0 2.024385 1_555
O56 P14 1.600812 1_545
O56 Ta0 2.052799 1_555
O57 P15 1.614068 1_545
O57 Ta1 2.008462 1_555
O58 P16 1.613978 1_555
O58 Ta1 2.007809 1_555
O59 P17 1.613865 1_655
O59 Ta1 2.012424 1_555
O60 P11 1.539930 1_555
O61 P9 1.536724 1_455
O62 P10 1.536782 1_565
O63 P7 1.540094 1_565
O64 P8 1.539628 1_555
O65 P6 1.539242 1_455
O66 P0 1.555617 1_555
O67 P1 1.555806 1_555
O68 P2 1.555795 1_555
O69 P3 1.637843 1_555
O69 Ta2 2.021569 1_555
O70 P4 1.616675 1_555
O70 Ta2 1.982463 1_555
O71 P5 1.615660 1_555
O71 Ta2 1.985548 1_555
