# generated using pymatgen
data_TbCdF6
_symmetry_space_group_name_H-M   'P 1'
_cell_length_a   5.38053900
_cell_length_b   5.38053900
_cell_length_c   7.88737000
_cell_angle_alpha   90.00000000
_cell_angle_beta   90.00000000
_cell_angle_gamma   90.00000000
_symmetry_Int_Tables_number   1
_chemical_formula_structural   TbCdF6
_chemical_formula_sum   'Tb2 Cd2 F12'
_cell_volume   228.34093843
_cell_formula_units_Z   2
loop_
 _symmetry_equiv_pos_site_id
 _symmetry_equiv_pos_as_xyz
  1  'x, y, z'
loop_
 _atom_site_type_symbol
 _atom_site_label
 _atom_site_symmetry_multiplicity
 _atom_site_fract_x
 _atom_site_fract_y
 _atom_site_fract_z
 _atom_site_occupancy
  Tb  Tb0  1  0.50000000  0.50000000  0.75000000  1
  Tb  Tb1  1  0.50000000  0.50000000  0.25000000  1
  Cd  Cd0  1  0.00000000  0.00000000  0.50000000  1
  Cd  Cd1  1  0.00000000  0.00000000  0.00000000  1
  F  F0  1  0.65340300  0.30329400  0.50000000  1
  F  F1  1  0.69670600  0.65340300  0.00000000  1
  F  F2  1  0.30329400  0.34659700  0.00000000  1
  F  F3  1  0.34659700  0.69670600  0.50000000  1
  F  F4  1  0.18770800  0.25236500  0.32602300  1
  F  F5  1  0.74763500  0.18770800  0.82602300  1
  F  F6  1  0.25236500  0.81229200  0.82602300  1
  F  F7  1  0.81229200  0.74763500  0.32602300  1
  F  F8  1  0.81229200  0.74763500  0.67397700  1
  F  F9  1  0.25236500  0.81229200  0.17397700  1
  F  F10  1  0.74763500  0.18770800  0.17397700  1
  F  F11  1  0.18770800  0.25236500  0.67397700  1
loop_
_geom_bond_atom_site_label_1
_geom_bond_atom_site_label_2
_geom_bond_distance
_geom_bond_site_symmetry_2
Cd0 F11 2.178718 1_555
Cd0 F4 2.178718 1_555
Cd0 F8 2.178718 1_445
Cd0 F7 2.178718 1_445
Cd0 F0 2.478068 1_455
Cd0 F3 2.478068 1_545
Cd1 F9 2.178718 1_545
Cd1 F6 2.178718 1_544
Cd1 F5 2.178718 1_454
Cd1 F10 2.178718 1_455
Cd1 F2 2.478068 1_555
Cd1 F1 2.478068 1_445
F0 Tb1 2.385290 1_555
F0 Tb0 2.385290 1_555
F1 Tb0 2.385290 1_554
F1 Tb1 2.385290 1_555
F2 Tb1 2.385290 1_555
F2 Tb0 2.385290 1_554
F3 Tb0 2.385290 1_555
F3 Tb1 2.385290 1_555
F4 Tb1 2.226717 1_555
F5 Tb0 2.226717 1_555
F6 Tb0 2.226717 1_555
F7 Tb1 2.226717 1_555
F8 Tb0 2.226717 1_555
F9 Tb1 2.226717 1_555
F10 Tb1 2.226717 1_555
F11 Tb0 2.226717 1_555
