# generated using pymatgen
data_Na4Ga3Si3ClO12
_symmetry_space_group_name_H-M   'P 1'
_cell_length_a   9.05200500
_cell_length_b   9.05200500
_cell_length_c   9.05200500
_cell_angle_alpha   90.00000000
_cell_angle_beta   90.00000000
_cell_angle_gamma   90.00000000
_symmetry_Int_Tables_number   1
_chemical_formula_structural   Na4Ga3Si3ClO12
_chemical_formula_sum   'Na8 Ga6 Si6 Cl2 O24'
_cell_volume   741.71037769
_cell_formula_units_Z   2
loop_
 _symmetry_equiv_pos_site_id
 _symmetry_equiv_pos_as_xyz
  1  'x, y, z'
loop_
 _atom_site_type_symbol
 _atom_site_label
 _atom_site_symmetry_multiplicity
 _atom_site_fract_x
 _atom_site_fract_y
 _atom_site_fract_z
 _atom_site_occupancy
  Na  Na0  1  0.67326100  0.32673900  0.32673900  1
  Na  Na1  1  0.32673900  0.32673900  0.67326100  1
  Na  Na2  1  0.32673900  0.67326100  0.32673900  1
  Na  Na3  1  0.17326100  0.17326100  0.17326100  1
  Na  Na4  1  0.67326100  0.67326100  0.67326100  1
  Na  Na5  1  0.82673900  0.17326100  0.82673900  1
  Na  Na6  1  0.82673900  0.82673900  0.17326100  1
  Na  Na7  1  0.17326100  0.82673900  0.82673900  1
  Ga  Ga0  1  0.50000000  0.25000000  0.00000000  1
  Ga  Ga1  1  0.50000000  0.75000000  0.00000000  1
  Ga  Ga2  1  0.75000000  0.00000000  0.50000000  1
  Ga  Ga3  1  0.00000000  0.50000000  0.25000000  1
  Ga  Ga4  1  0.00000000  0.50000000  0.75000000  1
  Ga  Ga5  1  0.25000000  0.00000000  0.50000000  1
  Si  Si0  1  0.25000000  0.50000000  0.00000000  1
  Si  Si1  1  0.50000000  0.00000000  0.75000000  1
  Si  Si2  1  0.50000000  0.00000000  0.25000000  1
  Si  Si3  1  0.75000000  0.50000000  0.00000000  1
  Si  Si4  1  0.00000000  0.25000000  0.50000000  1
  Si  Si5  1  0.00000000  0.75000000  0.50000000  1
  Cl  Cl0  1  0.00000000  0.00000000  0.00000000  1
  Cl  Cl1  1  0.50000000  0.50000000  0.50000000  1
  O  O0  1  0.84850900  0.42739200  0.86565700  1
  O  O1  1  0.63434300  0.92739200  0.65149100  1
  O  O2  1  0.63434300  0.07260800  0.34850900  1
  O  O3  1  0.92739200  0.65149100  0.63434300  1
  O  O4  1  0.07260800  0.65149100  0.36565700  1
  O  O5  1  0.65149100  0.63434300  0.92739200  1
  O  O6  1  0.34850900  0.36565700  0.92739200  1
  O  O7  1  0.86565700  0.84850900  0.42739200  1
  O  O8  1  0.86565700  0.15149100  0.57260800  1
  O  O9  1  0.13434300  0.84850900  0.57260800  1
  O  O10  1  0.15149100  0.57260800  0.86565700  1
  O  O11  1  0.57260800  0.13434300  0.84850900  1
  O  O12  1  0.13434300  0.15149100  0.42739200  1
  O  O13  1  0.36565700  0.92739200  0.34850900  1
  O  O14  1  0.36565700  0.07260800  0.65149100  1
  O  O15  1  0.07260800  0.34850900  0.63434300  1
  O  O16  1  0.92739200  0.34850900  0.36565700  1
  O  O17  1  0.65149100  0.36565700  0.07260800  1
  O  O18  1  0.34850900  0.63434300  0.07260800  1
  O  O19  1  0.57260800  0.86565700  0.15149100  1
  O  O20  1  0.15149100  0.42739200  0.13434300  1
  O  O21  1  0.84850900  0.57260800  0.13434300  1
  O  O22  1  0.42739200  0.86565700  0.84850900  1
  O  O23  1  0.42739200  0.13434300  0.15149100  1
loop_
_geom_bond_atom_site_label_1
_geom_bond_atom_site_label_2
_geom_bond_distance
_geom_bond_site_symmetry_2
Na0 O16 2.335542 1_555
Na0 O2 2.335542 1_555
Na0 O17 2.335542 1_555
Na1 O6 2.335542 1_555
Na1 O15 2.335542 1_555
Na1 O14 2.335542 1_555
Na2 O13 2.335542 1_555
Na2 O18 2.335542 1_555
Na2 O4 2.335542 1_555
Na3 O23 2.335542 1_555
Na3 O12 2.335542 1_555
Na3 O20 2.335542 1_555
Na4 O5 2.335542 1_555
Na4 O3 2.335542 1_555
Na4 O1 2.335542 1_555
Na5 O8 2.335542 1_555
Na5 O11 2.335542 1_555
Na5 O0 2.335542 1_555
Na6 O21 2.335542 1_555
Na6 O19 2.335542 1_555
Na6 O7 2.335542 1_555
Na7 O22 2.335542 1_555
Na7 O10 2.335542 1_555
Na7 O9 2.335542 1_555
Ga0 O17 1.846209 1_555
Ga0 O23 1.846209 1_555
Ga0 O11 1.846209 1_554
Ga0 O6 1.846209 1_554
Ga1 O5 1.846209 1_554
Ga1 O19 1.846209 1_555
Ga1 O22 1.846209 1_554
Ga1 O18 1.846209 1_555
Ga2 O1 1.846209 1_545
Ga2 O8 1.846209 1_555
Ga2 O7 1.846209 1_545
Ga2 O2 1.846209 1_555
Ga3 O4 1.846209 1_555
Ga3 O20 1.846209 1_555
Ga3 O21 1.846209 1_455
Ga3 O16 1.846209 1_455
Ga4 O3 1.846209 1_455
Ga4 O10 1.846209 1_555
Ga4 O0 1.846209 1_455
Ga4 O15 1.846209 1_555
Ga5 O14 1.846209 1_555
Ga5 O12 1.846209 1_555
Ga5 O9 1.846209 1_545
Ga5 O13 1.846209 1_545
Cl0 Na5 2.716478 1_454
Cl0 Na6 2.716478 1_445
Cl0 Na3 2.716478 1_555
Cl0 Na7 2.716478 1_544
Cl1 Na4 2.716478 1_555
Cl1 Na2 2.716478 1_555
Cl1 Na0 2.716478 1_555
Cl1 Na1 2.716478 1_555
O0 Si3 1.644976 1_556
O1 Si1 1.644976 1_565
O2 Si2 1.644976 1_555
O3 Si5 1.644976 1_655
O4 Si5 1.644976 1_555
O5 Si3 1.644976 1_556
O6 Si0 1.644976 1_556
O7 Si5 1.644976 1_655
O8 Si4 1.644976 1_655
O9 Si5 1.644976 1_555
O10 Si0 1.644976 1_556
O11 Si1 1.644976 1_555
O12 Si4 1.644976 1_555
O13 Si2 1.644976 1_565
O14 Si1 1.644976 1_555
O15 Si4 1.644976 1_555
O16 Si4 1.644976 1_655
O17 Si3 1.644976 1_555
O18 Si0 1.644976 1_555
O19 Si2 1.644976 1_565
O20 Si0 1.644976 1_555
O21 Si3 1.644976 1_555
O22 Si1 1.644976 1_565
O23 Si2 1.644976 1_555
