# generated using pymatgen
data_MgHg4(WO4)2
_symmetry_space_group_name_H-M   'P 1'
_cell_length_a   5.30567601
_cell_length_b   7.29892188
_cell_length_c   7.99966841
_cell_angle_alpha   111.53083563
_cell_angle_beta   102.92235469
_cell_angle_gamma   101.57820507
_symmetry_Int_Tables_number   1
_chemical_formula_structural   MgHg4(WO4)2
_chemical_formula_sum   'Mg1 Hg4 W2 O8'
_cell_volume   266.86665705
_cell_formula_units_Z   1
loop_
 _symmetry_equiv_pos_site_id
 _symmetry_equiv_pos_as_xyz
  1  'x, y, z'
loop_
 _atom_site_type_symbol
 _atom_site_label
 _atom_site_symmetry_multiplicity
 _atom_site_fract_x
 _atom_site_fract_y
 _atom_site_fract_z
 _atom_site_occupancy
  Mg  Mg0  1  0.40277626  0.63380724  0.08127889  1
  Hg  Hg0  1  0.55447879  0.72958359  0.50584912  1
  Hg  Hg1  1  0.97994873  0.60139868  0.35367344  1
  Hg  Hg2  1  0.52040274  0.20306698  0.45098452  1
  Hg  Hg3  1  0.92194173  0.51598148  0.72890190  1
  W  W0  1  0.26094216  0.07968051  0.92017612  1
  W  W1  1  0.77666171  0.93867252  0.07352575  1
  O  O0  1  0.31000620  0.02673404  0.69521210  1
  O  O1  1  0.23012288  0.34262000  0.98671880  1
  O  O2  1  0.64750485  0.91790178  0.28733433  1
  O  O3  1  0.76182152  0.65974849  0.00891407  1
  O  O4  1  0.87349526  0.92671918  0.83053016  1
  O  O5  1  0.63838838  0.17570945  0.08802906  1
  O  O6  1  0.32185908  0.79613335  0.91933840  1
  O  O7  1  0.16214969  0.09509972  0.18560435  1
loop_
_geom_bond_atom_site_label_1
_geom_bond_atom_site_label_2
_geom_bond_distance
_geom_bond_site_symmetry_2
Mg0 O1 1.912319 1_554
Mg0 O2 2.038613 1_555
Mg0 O6 2.085272 1_554
Mg0 O3 2.104473 1_555
Hg0 O4 2.448345 1_555
Hg0 O2 2.658147 1_555
Hg2 O7 2.259830 1_555
Hg2 O2 2.336468 1_545
Hg3 O6 2.351673 1_655
Hg3 O3 2.514785 1_556
O0 W0 1.787523 1_555
O1 W0 1.846176 1_555
O2 W1 2.022593 1_555
O3 W1 1.887618 1_555
O4 W0 1.954030 1_665
O4 W1 2.095339 1_556
O5 W0 1.961577 1_554
O5 W1 1.986254 1_545
O6 W0 2.155689 1_565
O6 W1 2.268408 1_556
O7 W1 1.944655 1_445
O7 W0 2.267606 1_554
