# generated using pymatgen
data_MgCo5SbO12
_symmetry_space_group_name_H-M   'P 1'
_cell_length_a   5.04066565
_cell_length_b   5.19576185
_cell_length_c   10.33625879
_cell_angle_alpha   90.51639825
_cell_angle_beta   91.06463056
_cell_angle_gamma   60.98264071
_symmetry_Int_Tables_number   1
_chemical_formula_structural   MgCo5SbO12
_chemical_formula_sum   'Mg1 Co5 Sb1 O12'
_cell_volume   236.68559172
_cell_formula_units_Z   1
loop_
 _symmetry_equiv_pos_site_id
 _symmetry_equiv_pos_as_xyz
  1  'x, y, z'
loop_
 _atom_site_type_symbol
 _atom_site_label
 _atom_site_symmetry_multiplicity
 _atom_site_fract_x
 _atom_site_fract_y
 _atom_site_fract_z
 _atom_site_occupancy
  Mg  Mg0  1  0.13800700  0.00000000  0.27805700  1
  Co  Co0  1  0.15878300  0.67159600  0.51368500  1
  Co  Co1  1  0.66971700  0.66575400  0.99932300  1
  Co  Co2  1  0.33547100  0.33424600  0.99932300  1
  Co  Co3  1  0.83037900  0.32840400  0.51368500  1
  Co  Co4  1  0.49478200  0.00000000  0.50100400  1
  Sb  Sb0  1  0.00524800  0.00000000  0.97914000  1
  O  O0  1  0.00641500  0.66814800  0.08968400  1
  O  O1  1  0.35529400  0.66328300  0.89638600  1
  O  O2  1  0.16069100  0.29707700  0.40467900  1
  O  O3  1  0.45776800  0.70292300  0.40467900  1
  O  O4  1  0.51248800  0.31397600  0.59108800  1
  O  O5  1  0.19824800  0.00000000  0.60348000  1
  O  O6  1  0.82646400  0.68602400  0.59108800  1
  O  O7  1  0.67456100  0.33185200  0.08968400  1
  O  O8  1  0.31107700  0.00000000  0.10769900  1
  O  O9  1  0.01857500  0.33671700  0.89638600  1
  O  O10  1  0.63677400  0.00000000  0.90473400  1
  O  O11  1  0.82592600  0.00000000  0.40240100  1
loop_
_geom_bond_atom_site_label_1
_geom_bond_atom_site_label_2
_geom_bond_distance
_geom_bond_site_symmetry_2
Mg0 O8 1.979593 1_555
Mg0 O11 2.049789 1_455
Mg0 O2 2.058590 1_555
Mg0 O3 2.058590 1_545
Co0 O6 1.838096 1_455
Co0 O3 1.967655 1_555
Co0 O4 2.007801 1_555
Co0 O5 2.026428 1_565
Co0 O11 2.058133 1_465
Co0 O2 2.235816 1_555
Co1 O1 1.897622 1_555
Co1 O0 1.927250 1_656
Co1 O10 1.935010 1_565
Co1 O7 1.967231 1_556
Co1 O9 2.065724 1_655
Co1 O8 2.129161 1_566
Co2 O9 1.897630 1_555
Co2 O7 1.927241 1_556
Co2 O10 1.935010 1_555
Co2 O0 1.967227 1_556
Co2 O1 2.065729 1_555
Co2 O8 2.129161 1_556
Co3 O4 1.838096 1_555
Co3 O2 1.967655 1_655
Co3 O6 2.007801 1_555
Co3 O5 2.026428 1_655
Co3 O11 2.058133 1_555
Co3 O3 2.235816 1_555
Co4 O5 1.847970 1_555
Co4 O4 1.909722 1_555
Co4 O6 1.909722 1_545
Co4 O3 1.911391 1_545
Co4 O2 1.911391 1_555
Co4 O11 1.971837 1_555
O0 Sb0 2.074600 1_564
O1 Sb0 1.984960 1_565
O7 Sb0 2.074605 1_654
O8 Sb0 2.016460 1_554
O9 Sb0 1.984955 1_555
O10 Sb0 1.997039 1_655
