# generated using pymatgen
data_Na6Zn7Sn(SO4)12
_symmetry_space_group_name_H-M   'P 1'
_cell_length_a   17.51779303
_cell_length_b   8.75788920
_cell_length_c   22.70152361
_cell_angle_alpha   89.98025740
_cell_angle_beta   89.98943344
_cell_angle_gamma   120.01312598
_symmetry_Int_Tables_number   1
_chemical_formula_structural   Na6Zn7Sn(SO4)12
_chemical_formula_sum   'Na18 Zn21 Sn3 S36 O144'
_cell_volume   3015.83067724
_cell_formula_units_Z   3
loop_
 _symmetry_equiv_pos_site_id
 _symmetry_equiv_pos_as_xyz
  1  'x, y, z'
loop_
 _atom_site_type_symbol
 _atom_site_label
 _atom_site_symmetry_multiplicity
 _atom_site_fract_x
 _atom_site_fract_y
 _atom_site_fract_z
 _atom_site_occupancy
  Na  Na0  1  0.32007754  0.63953498  0.74966410  1
  Na  Na1  1  0.64940267  0.33159852  0.58419834  1
  Na  Na2  1  0.98579852  0.66681991  0.91718548  1
  Na  Na3  1  0.66585676  0.30160535  0.91523418  1
  Na  Na4  1  0.16708727  0.03052006  0.41707488  1
  Na  Na5  1  0.66642022  0.03020564  0.41705048  1
  Na  Na6  1  0.99498494  0.00210555  0.49579742  1
  Na  Na7  1  0.48606992  0.98305649  0.50099670  1
  Na  Na8  1  0.00271976  0.01594398  0.99727942  1
  Na  Na9  1  0.49142116  0.98560336  0.99542683  1
  Na  Na10  1  0.33705104  0.32536135  0.83612602  1
  Na  Na11  1  0.83121704  0.31829723  0.82937458  1
  Na  Na12  1  0.33956667  0.34477715  0.33282471  1
  Na  Na13  1  0.84026781  0.34547536  0.33250218  1
  Na  Na14  1  0.16763182  0.66687090  0.16672020  1
  Na  Na15  1  0.66603434  0.66611996  0.16686912  1
  Na  Na16  1  0.16504723  0.67143284  0.66384132  1
  Na  Na17  1  0.66336405  0.67489180  0.66951690  1
  Zn  Zn0  1  0.99582644  0.99932422  0.35000257  1
  Zn  Zn1  1  0.49452608  0.99845319  0.35022601  1
  Zn  Zn2  1  0.00109230  0.00922117  0.85009190  1
  Zn  Zn3  1  0.49610139  0.99475095  0.84796773  1
  Zn  Zn4  1  0.49641270  0.99201571  0.65185703  1
  Zn  Zn5  1  0.33800166  0.33175613  0.67996199  1
  Zn  Zn6  1  0.83066971  0.32795658  0.68405697  1
  Zn  Zn7  1  0.33341715  0.33317487  0.18225047  1
  Zn  Zn8  1  0.83343344  0.33313855  0.18311562  1
  Zn  Zn9  1  0.33367282  0.33714425  0.98341992  1
  Zn  Zn10  1  0.83311325  0.32066480  0.98654887  1
  Zn  Zn11  1  0.33810317  0.34461052  0.48547726  1
  Zn  Zn12  1  0.84015061  0.33965781  0.48429498  1
  Zn  Zn13  1  0.17041412  0.66828582  0.01538476  1
  Zn  Zn14  1  0.66411739  0.66841411  0.01541987  1
  Zn  Zn15  1  0.16919075  0.66206123  0.51580353  1
  Zn  Zn16  1  0.66471386  0.67137406  0.51402171  1
  Zn  Zn17  1  0.16683064  0.66332657  0.31835192  1
  Zn  Zn18  1  0.66657395  0.66310582  0.31741157  1
  Zn  Zn19  1  0.16805510  0.67421313  0.82031117  1
  Zn  Zn20  1  0.66351066  0.66388320  0.81667408  1
  Sn  Sn0  1  0.00054384  0.00182230  0.65029451  1
  Sn  Sn1  1  0.00050749  0.00069049  0.15045987  1
  Sn  Sn2  1  0.49930576  0.99967998  0.15005454  1
  S  S0  1  0.14882942  0.00001934  0.25178096  1
  S  S1  1  0.64843881  0.00039379  0.25168871  1
  S  S2  1  0.35129341  0.70239466  0.25081429  1
  S  S3  1  0.85177086  0.70368658  0.25072441  1
  S  S4  1  0.00006587  0.29712985  0.25082155  1
  S  S5  1  0.50006295  0.29648993  0.25071471  1
  S  S6  1  0.14842695  0.29646424  0.75097610  1
  S  S7  1  0.64882160  0.29745915  0.74997178  1
  S  S8  1  -0.00000384  0.70318672  0.75167286  1
  S  S9  1  0.50109355  0.70513403  0.74967835  1
  S  S10  1  0.35156159  0.00210320  0.75013120  1
  S  S11  1  0.85206918  0.99932439  0.75095277  1
  S  S12  1  0.48172117  0.33341009  0.58268699  1
  S  S13  1  0.98090929  0.33493603  0.58486311  1
  S  S14  1  0.18507092  0.03636626  0.58347599  1
  S  S15  1  0.68646988  0.03732782  0.58231917  1
  S  S16  1  0.33260834  0.62922159  0.58485862  1
  S  S17  1  0.83423688  0.62845067  0.58395099  1
  S  S18  1  0.48100711  0.62748529  0.08437072  1
  S  S19  1  0.98157536  0.62845175  0.08326362  1
  S  S20  1  0.33256214  0.03914625  0.08394141  1
  S  S21  1  0.83259531  0.03594850  0.08478150  1
  S  S22  1  0.18649997  0.33437956  0.08414461  1
  S  S23  1  0.68577085  0.33453064  0.08345072  1
  S  S24  1  0.31506525  0.66551706  0.91572705  1
  S  S25  1  0.81400091  0.66954584  0.91732004  1
  S  S26  1  0.01987485  0.37215315  0.91718548  1
  S  S27  1  0.51856120  0.37251039  0.91697634  1
  S  S28  1  0.16742571  0.96371722  0.91719876  1
  S  S29  1  0.66689162  0.96120684  0.91656224  1
  S  S30  1  0.31415226  0.96127191  0.41706836  1
  S  S31  1  0.81411154  0.95959446  0.41679332  1
  S  S32  1  0.16672337  0.37106328  0.41654473  1
  S  S33  1  0.66708812  0.37127486  0.41760480  1
  S  S34  1  0.01952403  0.66452707  0.41673319  1
  S  S35  1  0.51832408  0.66519436  0.41532741  1
  O  O0  1  0.10686553  0.02465391  0.30451181  1
  O  O1  1  0.60686635  0.02487026  0.30457422  1
  O  O2  1  0.40770575  0.78792662  0.30205270  1
  O  O3  1  0.90797121  0.78895429  0.30197049  1
  O  O4  1  0.48768153  0.18528569  0.30208714  1
  O  O5  1  0.98704758  0.18501481  0.30205597  1
  O  O6  1  0.10562772  0.18478442  0.80209972  1
  O  O7  1  0.60774307  0.19171449  0.80410491  1
  O  O8  1  0.48478538  0.78456243  0.80245895  1
  O  O9  1  0.98776018  0.78659809  0.80466314  1
  O  O10  1  0.40434283  0.02781207  0.80377499  1
  O  O11  1  0.90825743  0.02508783  0.80219005  1
  O  O12  1  0.39122190  0.96861744  0.69743929  1
  O  O13  1  0.89180348  0.96831371  0.69506884  1
  O  O14  1  0.09374025  0.21873616  0.69539983  1
  O  O15  1  0.59650759  0.21527074  0.69558489  1
  O  O16  1  0.01508383  0.81720549  0.69681540  1
  O  O17  1  0.51347550  0.81046609  0.69603634  1
  O  O18  1  0.39074225  0.81351098  0.19498839  1
  O  O19  1  0.89129336  0.81436541  0.19491013  1
  O  O20  1  0.01542099  0.21796005  0.19488119  1
  O  O21  1  0.51587597  0.21744740  0.19489682  1
  O  O22  1  0.09182285  0.96885940  0.19687450  1
  O  O23  1  0.59185567  0.97046825  0.19686971  1
  O  O24  1  0.44317977  0.36015352  0.63652440  1
  O  O25  1  0.93974250  0.35407554  0.63831629  1
  O  O26  1  0.23633441  0.12204423  0.63653576  1
  O  O27  1  0.74101948  0.12225824  0.63481270  1
  O  O28  1  0.32057070  0.52665813  0.63999726  1
  O  O29  1  0.82200635  0.52287492  0.63718349  1
  O  O30  1  0.44065453  0.52743098  0.13834876  1
  O  O31  1  0.93845909  0.52370681  0.13596620  1
  O  O32  1  0.32302438  0.11899671  0.13819635  1
  O  O33  1  0.82288630  0.11903860  0.13815607  1
  O  O34  1  0.23608350  0.35334335  0.13831771  1
  O  O35  1  0.73814330  0.35292511  0.13615998  1
  O  O36  1  0.22386809  0.30174653  0.03117465  1
  O  O37  1  0.72195541  0.30365339  0.02864509  1
  O  O38  1  0.42769085  0.55329204  0.03115438  1
  O  O39  1  0.92956631  0.55674171  0.02849872  1
  O  O40  1  0.34789555  0.14592188  0.03093685  1
  O  O41  1  0.84960608  0.14235785  0.03108136  1
  O  O42  1  0.22073425  0.13856229  0.52876525  1
  O  O43  1  0.72564446  0.14703829  0.52801125  1
  O  O44  1  0.34453051  0.54404062  0.53220964  1
  O  O45  1  0.84972382  0.55371045  0.53041483  1
  O  O46  1  0.42836780  0.30739079  0.52959704  1
  O  O47  1  0.92782578  0.30075098  0.53116088  1
  O  O48  1  0.27250327  0.69133792  0.96790240  1
  O  O49  1  0.77415710  0.69330388  0.97085285  1
  O  O50  1  0.07210810  0.45269148  0.97064212  1
  O  O51  1  0.57525356  0.45154529  0.96972626  1
  O  O52  1  0.15011716  0.84884524  0.96931479  1
  O  O53  1  0.65539380  0.85913833  0.97063330  1
  O  O54  1  0.27386227  0.85545844  0.47048859  1
  O  O55  1  0.77406421  0.85397071  0.47044597  1
  O  O56  1  0.15326338  0.44967297  0.46984248  1
  O  O57  1  0.65555509  0.44874481  0.47282421  1
  O  O58  1  0.07534711  0.69606312  0.46945427  1
  O  O59  1  0.57391804  0.69911605  0.46857682  1
  O  O60  1  0.05917640  0.63970846  0.36274958  1
  O  O61  1  0.55943220  0.64059613  0.36218783  1
  O  O62  1  0.25848361  0.88224156  0.36386325  1
  O  O63  1  0.75817830  0.88030119  0.36391852  1
  O  O64  1  0.17921513  0.47533232  0.36272951  1
  O  O65  1  0.67896101  0.47949736  0.36516085  1
  O  O66  1  0.05920608  0.48286787  0.86385221  1
  O  O67  1  0.55892441  0.47832403  0.86345498  1
  O  O68  1  0.17928880  0.88462779  0.86291349  1
  O  O69  1  0.68046876  0.88180339  0.86330746  1
  O  O70  1  0.26384942  0.63988010  0.86021035  1
  O  O71  1  0.75924245  0.63876128  0.86427781  1
  O  O72  1  0.01272299  0.82891441  0.41135812  1
  O  O73  1  0.51202355  0.82975359  0.40999643  1
  O  O74  1  0.40283883  0.98128571  0.41110969  1
  O  O75  1  0.90283724  0.98040888  0.41099407  1
  O  O76  1  0.08764533  0.18877390  0.41146571  1
  O  O77  1  0.58800582  0.19045468  0.41226173  1
  O  O78  1  0.00869518  0.19390917  0.91108208  1
  O  O79  1  0.51239583  0.19542064  0.91134859  1
  O  O80  1  0.08453981  0.97559921  0.91168989  1
  O  O81  1  0.58849890  0.98554333  0.91139825  1
  O  O82  1  0.40364319  0.82605390  0.91103822  1
  O  O83  1  0.90492492  0.82319953  0.91148124  1
  O  O84  1  0.49346750  0.17583507  0.58788359  1
  O  O85  1  0.98920683  0.16709282  0.58937361  1
  O  O86  1  0.09302901  0.02032332  0.58870359  1
  O  O87  1  0.59852410  0.02565771  0.58810216  1
  O  O88  1  0.41300184  0.80683036  0.58889124  1
  O  O89  1  0.91575769  0.81133627  0.58934128  1
  O  O90  1  0.48985113  0.81222051  0.08908310  1
  O  O91  1  0.98943930  0.81147007  0.08873616  1
  O  O92  1  0.41648229  0.02236366  0.08844941  1
  O  O93  1  0.91638569  0.02056573  0.08938916  1
  O  O94  1  0.09406786  0.16639140  0.08879890  1
  O  O95  1  0.59453236  0.16711497  0.08875241  1
  O  O96  1  0.34056055  0.15752049  0.74351853  1
  O  O97  1  0.84621329  0.16028423  0.74377421  1
  O  O98  1  0.23663473  0.31578613  0.74380917  1
  O  O99  1  0.73767698  0.31360066  0.74542987  1
  O  O100  1  0.41849321  0.52776408  0.74446689  1
  O  O101  1  0.91989843  0.53079061  0.74360198  1
  O  O102  1  0.34449916  0.52899214  0.24329994  1
  O  O103  1  0.84489919  0.52993347  0.24315346  1
  O  O104  1  0.42015698  0.30988080  0.24337315  1
  O  O105  1  0.91985164  0.31047237  0.24347520  1
  O  O106  1  0.23502067  0.16054443  0.24369040  1
  O  O107  1  0.73506719  0.16123373  0.24374984  1
  O  O108  1  0.32336115  0.50545960  0.92174169  1
  O  O109  1  0.82329329  0.50656984  0.92236209  1
  O  O110  1  0.43010737  0.35209946  0.92356617  1
  O  O111  1  0.93090811  0.35952156  0.92230009  1
  O  O112  1  0.24554250  0.14026447  0.92351430  1
  O  O113  1  0.74630712  0.14459175  0.92151715  1
  O  O114  1  0.32083975  0.13864860  0.42260747  1
  O  O115  1  0.82071454  0.13709374  0.42216699  1
  O  O116  1  0.24544518  0.34700266  0.42171530  1
  O  O117  1  0.74606424  0.34768193  0.42171805  1
  O  O118  1  0.42987440  0.50834874  0.42160369  1
  O  O119  1  0.93029398  0.50783821  0.42262016  1
  O  O120  1  0.17322667  0.48709545  0.07869440  1
  O  O121  1  0.67347285  0.48809506  0.07870057  1
  O  O122  1  0.07060550  0.65306449  0.07838256  1
  O  O123  1  0.57045741  0.65290843  0.07911441  1
  O  O124  1  0.25603814  0.85955559  0.07876384  1
  O  O125  1  0.75587287  0.85831064  0.07910071  1
  O  O126  1  0.17194573  0.85726476  0.57911104  1
  O  O127  1  0.67660775  0.86023372  0.57693434  1
  O  O128  1  0.25263825  0.64658470  0.57932028  1
  O  O129  1  0.75492763  0.64673921  0.57850719  1
  O  O130  1  0.06986606  0.48803549  0.57916278  1
  O  O131  1  0.57271242  0.49170456  0.57742578  1
  O  O132  1  0.15629722  0.84018648  0.25496555  1
  O  O133  1  0.65632030  0.84082358  0.25469357  1
  O  O134  1  0.26414485  0.68834396  0.25501106  1
  O  O135  1  0.76450986  0.68914007  0.25477540  1
  O  O136  1  0.07985000  0.47172910  0.25472428  1
  O  O137  1  0.58031779  0.47144293  0.25450026  1
  O  O138  1  0.15792724  0.47414894  0.75504961  1
  O  O139  1  0.65807276  0.47516059  0.75472296  1
  O  O140  1  0.07996654  0.68857364  0.75475285  1
  O  O141  1  0.57951189  0.68512286  0.75555998  1
  O  O142  1  0.26312653  0.83586496  0.75562081  1
  O  O143  1  0.76490922  0.84043784  0.75487955  1
loop_
_geom_bond_atom_site_label_1
_geom_bond_atom_site_label_2
_geom_bond_distance
_geom_bond_site_symmetry_2
Na0 O100 2.373324 1_555
Na0 O142 2.384588 1_555
Na0 O98 2.459213 1_555
Na0 O138 2.462774 1_555
Na0 O28 2.680614 1_555
Na0 O70 2.696335 1_555
Na0 O12 2.769285 1_555
Na0 O8 2.776849 1_555
Na1 O87 2.364775 1_555
Na1 O84 2.366802 1_555
Na1 O131 2.383078 1_555
Na1 O129 2.438640 1_555
Na1 O15 2.709896 1_555
Na1 O57 2.710038 1_555
Na1 O43 2.860739 1_555
Na1 O29 2.886350 1_555
Na2 O111 2.364737 1_555
Na2 O80 2.375021 1_655
Na2 O83 2.416727 1_555
Na2 O109 2.467854 1_555
Na2 O39 2.707905 1_556
Na2 O9 2.754769 1_555
Na2 O52 2.763969 1_655
Na2 O66 2.790743 1_655
Na3 O79 2.366156 1_555
Na3 O81 2.398678 1_545
Na3 O113 2.415801 1_555
Na3 O109 2.429483 1_555
Na3 O7 2.711018 1_555
Na3 O37 2.752811 1_556
Na3 O51 2.803428 1_555
Na3 O71 2.810301 1_555
Na4 O114 2.369719 1_555
Na4 O72 2.381279 1_545
Na4 O116 2.402465 1_555
Na4 O76 2.409004 1_555
Na4 O42 2.705629 1_555
Na4 O0 2.755405 1_555
Na4 O62 2.790941 1_545
Na4 O58 2.804311 1_545
Na5 O115 2.380003 1_555
Na5 O73 2.381845 1_545
Na5 O77 2.407681 1_555
Na5 O117 2.409986 1_555
Na5 O43 2.722009 1_555
Na5 O1 2.750022 1_555
Na5 O59 2.774604 1_545
Na5 O63 2.806001 1_545
Na6 O75 2.458177 1_545
Na6 O76 2.512883 1_655
Na6 O72 2.558319 1_645
Na6 O85 2.599845 1_555
Na6 O89 2.627541 1_545
Na6 O86 2.674154 1_655
Na7 O88 2.454058 1_555
Na7 O74 2.503699 1_555
Na7 O84 2.557615 1_565
Na7 O73 2.624738 1_555
Na7 O87 2.682683 1_565
Na7 O77 2.701327 1_565
Na8 O78 2.470609 1_555
Na8 O80 2.541770 1_545
Na8 O94 2.550912 1_556
Na8 O83 2.586226 1_445
Na8 O93 2.592582 1_456
Na8 O91 2.674335 1_446
Na9 O82 2.416712 1_555
Na9 O79 2.544927 1_565
Na9 O81 2.555493 1_555
Na9 O92 2.590125 1_566
Na9 O90 2.604409 1_556
Na9 O95 2.722038 1_566
Na10 O110 2.504427 1_555
Na10 O112 2.555417 1_555
Na10 O96 2.583943 1_555
Na10 O108 2.589069 1_555
Na10 O100 2.640784 1_555
Na10 O98 2.710604 1_555
Na11 O97 2.475013 1_555
Na11 O99 2.500424 1_555
Na11 O113 2.575900 1_555
Na11 O101 2.602367 1_555
Na11 O111 2.646031 1_555
Na11 O109 2.724966 1_555
Na12 O118 2.520473 1_555
Na12 O102 2.568847 1_555
Na12 O104 2.577047 1_555
Na12 O116 2.611896 1_555
Na12 O114 2.631652 1_555
Na12 O106 2.664469 1_555
Na13 O119 2.540518 1_555
Na13 O105 2.559130 1_555
Na13 O103 2.568478 1_555
Na13 O117 2.618462 1_555
Na13 O115 2.638766 1_555
Na13 O107 2.662349 1_555
Na14 O134 2.567999 1_555
Na14 O124 2.571999 1_555
Na14 O120 2.576482 1_555
Na14 O136 2.577629 1_555
Na14 O132 2.580709 1_555
Na14 O122 2.592490 1_555
Na15 O137 2.560191 1_555
Na15 O123 2.567678 1_555
Na15 O133 2.570495 1_555
Na15 O125 2.574173 1_555
Na15 O135 2.579262 1_555
Na15 O121 2.580578 1_555
Na16 O126 2.482786 1_555
Na16 O130 2.525753 1_555
Na16 O128 2.533104 1_555
Na16 O140 2.593493 1_555
Na16 O142 2.625849 1_555
Na16 O138 2.658932 1_555
Na17 O141 2.472217 1_555
Na17 O143 2.538657 1_555
Na17 O139 2.577852 1_555
Na17 O127 2.593601 1_555
Na17 O131 2.630807 1_555
Na17 O129 2.701285 1_555
O0 S0 1.475952 1_555
O0 Zn0 2.113474 1_445
O1 S1 1.474359 1_555
O1 Zn1 2.131671 1_545
O2 S2 1.466692 1_555
O2 Zn1 2.026154 1_555
O3 S3 1.464876 1_555
O3 Zn0 2.029135 1_555
O4 S5 1.464054 1_555
O4 Zn1 2.020166 1_545
O5 S4 1.464248 1_655
O5 Zn0 2.025376 1_545
O6 S6 1.459798 1_555
O6 Zn2 2.021352 1_555
O7 S7 1.489261 1_555
O7 Zn3 2.101214 1_545
O8 S9 1.483391 1_555
O8 Zn3 2.032619 1_555
O9 S8 1.477787 1_655
O9 Zn2 2.113157 1_665
O10 S10 1.476810 1_555
O10 Zn3 2.034721 1_545
O11 S11 1.466670 1_545
O11 Zn2 2.018216 1_655
O12 S10 1.484360 1_565
O12 Zn4 2.032179 1_555
O13 S11 1.535173 1_555
O13 Sn0 2.046395 1_665
O14 S6 1.523676 1_555
O14 Sn0 2.054756 1_555
O15 S7 1.491130 1_555
O15 Zn4 2.110729 1_545
O16 S8 1.533907 1_555
O16 Sn0 2.050693 1_565
O17 S9 1.476453 1_555
O17 Zn4 2.024291 1_555
O18 S2 1.535176 1_555
O18 Sn2 2.052278 1_555
O19 S3 1.533571 1_555
O19 Sn1 2.053368 1_665
O20 S4 1.533913 1_555
O20 Sn1 2.051835 1_555
O21 S5 1.534249 1_555
O21 Sn2 2.050738 1_545
O22 S0 1.534099 1_565
O22 Sn1 2.047768 1_565
O23 S1 1.529935 1_565
O23 Sn2 2.058846 1_555
O24 S12 1.470557 1_555
O24 Zn5 1.992425 1_555
O25 S13 1.463355 1_555
O25 Zn6 2.084048 1_555
O26 S14 1.465370 1_555
O26 Zn5 2.060727 1_555
O27 S15 1.475291 1_555
O27 Zn6 2.033029 1_555
O28 S16 1.492572 1_555
O28 Zn5 2.085768 1_555
O29 S17 1.470427 1_555
O29 Zn6 2.080245 1_555
O30 S18 1.465732 1_555
O30 Zn7 2.053664 1_555
O31 S19 1.466018 1_555
O31 Zn8 2.059685 1_555
O32 S20 1.466760 1_555
O32 Zn7 2.052193 1_555
O33 S21 1.466626 1_555
O33 Zn8 2.060713 1_555
O34 S22 1.466525 1_555
O34 Zn7 2.057900 1_555
O35 S23 1.467021 1_555
O35 Zn8 2.059779 1_555
O36 S22 1.464001 1_555
O36 Zn9 2.091371 1_554
O37 S23 1.481319 1_555
O37 Zn10 2.106228 1_554
O38 S18 1.465557 1_555
O38 Zn9 2.086478 1_554
O39 S19 1.482801 1_555
O39 Zn10 2.131593 1_554
O40 S20 1.463671 1_555
O40 Zn9 2.108695 1_554
O41 S21 1.471288 1_555
O41 Zn10 1.998611 1_554
O42 S14 1.474293 1_555
O42 Zn11 2.176177 1_555
O43 S15 1.501117 1_555
O43 Zn12 2.113584 1_555
O44 S16 1.478196 1_555
O44 Zn11 1.998333 1_555
O45 S17 1.468748 1_555
O45 Zn12 2.079792 1_555
O46 S12 1.471587 1_555
O46 Zn11 2.031190 1_555
O47 S13 1.470637 1_555
O47 Zn12 2.032451 1_555
O48 S24 1.475982 1_555
O48 Zn13 2.009704 1_556
O49 S25 1.467142 1_555
O49 Zn14 2.089437 1_556
O50 S26 1.470646 1_555
O50 Zn13 2.076425 1_556
O51 S27 1.487528 1_555
O51 Zn14 2.037362 1_556
O52 S28 1.482460 1_555
O52 Zn13 2.069368 1_556
O53 S29 1.471534 1_555
O53 Zn14 2.025183 1_556
O54 S30 1.473839 1_555
O54 Zn15 2.044598 1_555
O55 S31 1.476846 1_555
O55 Zn16 2.034458 1_555
O56 S32 1.468464 1_555
O56 Zn15 2.026975 1_555
O57 S33 1.486670 1_555
O57 Zn16 2.095320 1_555
O58 S34 1.481715 1_555
O58 Zn15 2.094868 1_555
O59 S35 1.486355 1_555
O59 Zn16 2.010030 1_555
O60 S34 1.477339 1_555
O60 Zn17 2.055247 1_555
O61 S35 1.474897 1_555
O61 Zn18 2.055195 1_555
O62 S30 1.488187 1_555
O62 Zn17 2.059995 1_555
O63 S31 1.484395 1_555
O63 Zn18 2.063100 1_555
O64 S32 1.474287 1_555
O64 Zn17 2.031997 1_555
O65 S33 1.470012 1_555
O65 Zn18 2.038576 1_555
O66 S26 1.487060 1_555
O66 Zn19 2.054912 1_555
O67 S27 1.475940 1_555
O67 Zn20 2.035926 1_555
O68 S28 1.478568 1_555
O68 Zn19 2.002115 1_555
O69 S29 1.472308 1_555
O69 Zn20 2.070208 1_555
O70 S24 1.497611 1_555
O70 Zn19 2.057189 1_555
O71 S25 1.478081 1_555
O71 Zn20 2.097200 1_555
O72 S34 1.507732 1_555
O72 Zn0 2.166949 1_455
O73 S35 1.504286 1_555
O73 Zn1 2.137699 1_555
O74 S30 1.479918 1_555
O74 Zn1 2.066434 1_555
O75 S31 1.477433 1_555
O75 Zn0 2.080178 1_555
O76 S32 1.506238 1_555
O76 Zn0 2.149313 1_445
O77 S33 1.499060 1_555
O77 Zn1 2.177211 1_545
O78 S26 1.479432 1_555
O78 Zn2 2.082572 1_555
O79 S27 1.505306 1_555
O79 Zn3 2.177245 1_545
O80 S28 1.511926 1_555
O80 Zn2 2.147121 1_565
O81 S29 1.495956 1_555
O81 Zn3 2.198007 1_555
O82 S24 1.487668 1_555
O82 Zn3 2.111859 1_555
O83 S25 1.490290 1_555
O83 Zn2 2.164789 1_665
O84 S12 1.498233 1_555
O84 Zn4 2.187466 1_545
O85 S13 1.551136 1_555
O85 Sn0 2.081692 1_655
O86 S14 1.551403 1_555
O86 Sn0 2.083860 1_555
O87 S15 1.497856 1_555
O87 Zn4 2.202902 1_545
O88 S16 1.489939 1_555
O88 Zn4 2.107192 1_555
O89 S17 1.527001 1_555
O89 Sn0 2.104131 1_665
O90 S18 1.549963 1_555
O90 Sn2 2.090038 1_555
O91 S19 1.543633 1_555
O91 Sn1 2.104162 1_665
O92 S20 1.552245 1_555
O92 Sn2 2.095071 1_545
O93 S21 1.543200 1_555
O93 Sn1 2.093126 1_655
O94 S22 1.553757 1_555
O94 Sn1 2.090446 1_555
O95 S23 1.540859 1_555
O95 Sn2 2.102458 1_545
O96 S10 1.474661 1_555
O96 Zn5 2.116409 1_555
O97 S11 1.472670 1_545
O97 Zn6 2.113556 1_555
O98 S6 1.476846 1_555
O98 Zn5 2.241441 1_555
O99 S7 1.494411 1_555
O99 Zn6 2.098774 1_555
O100 S9 1.507425 1_555
O100 Zn5 2.158787 1_555
O101 S8 1.470676 1_655
O101 Zn6 2.156563 1_555
O102 S2 1.472718 1_555
O102 Zn7 2.137327 1_555
O103 S3 1.475320 1_555
O103 Zn8 2.126938 1_555
O104 S5 1.471462 1_555
O104 Zn7 2.141620 1_555
O105 S4 1.476592 1_655
O105 Zn8 2.123670 1_555
O106 S0 1.471772 1_555
O106 Zn7 2.143107 1_555
O107 S1 1.476771 1_555
O107 Zn8 2.129087 1_555
O108 S24 1.486061 1_555
O108 Zn9 2.105029 1_555
O109 S25 1.519601 1_555
O109 Zn10 2.254399 1_555
O110 S27 1.475850 1_555
O110 Zn9 2.120118 1_555
O111 S26 1.510659 1_655
O111 Zn10 2.143259 1_555
O112 S28 1.472203 1_545
O112 Zn9 2.131976 1_555
O113 S29 1.514085 1_545
O113 Zn10 2.127517 1_555
O114 S30 1.503599 1_545
O114 Zn11 2.199626 1_555
O115 S31 1.505006 1_545
O115 Zn12 2.156384 1_555
O116 S32 1.500220 1_555
O116 Zn11 2.182934 1_555
O117 S33 1.500487 1_555
O117 Zn12 2.203679 1_555
O118 S35 1.475981 1_555
O118 Zn11 2.105911 1_555
O119 S34 1.482644 1_655
O119 Zn12 2.072274 1_555
O120 S22 1.472822 1_555
O120 Zn13 2.159350 1_555
O121 S23 1.468522 1_555
O121 Zn14 2.200442 1_555
O122 S19 1.467901 1_455
O122 Zn13 2.210398 1_555
O123 S18 1.473125 1_555
O123 Zn14 2.139462 1_555
O124 S20 1.474979 1_565
O124 Zn13 2.148228 1_555
O125 S21 1.466884 1_565
O125 Zn14 2.183494 1_555
O126 S14 1.470497 1_565
O126 Zn15 2.215766 1_555
O127 S15 1.477289 1_565
O127 Zn16 2.115641 1_555
O128 S16 1.488158 1_555
O128 Zn15 2.105538 1_555
O129 S17 1.481151 1_555
O129 Zn16 2.242505 1_555
O130 S13 1.467132 1_455
O130 Zn15 2.182616 1_555
O131 S12 1.505349 1_555
O131 Zn16 2.146114 1_555
O132 S0 1.471361 1_565
O132 Zn17 2.188221 1_555
O133 S1 1.472983 1_565
O133 Zn18 2.181784 1_555
O134 S2 1.472034 1_555
O134 Zn17 2.155688 1_555
O135 S3 1.471900 1_555
O135 Zn18 2.150534 1_555
O136 S4 1.470235 1_555
O136 Zn17 2.160661 1_555
O137 S5 1.475382 1_555
O137 Zn18 2.146056 1_555
O138 S6 1.482853 1_555
O138 Zn19 2.233232 1_555
O139 S7 1.485848 1_555
O139 Zn20 2.136100 1_555
O140 S8 1.470779 1_555
O140 Zn19 2.192454 1_555
O141 S9 1.475309 1_555
O141 Zn20 2.097395 1_555
O142 S10 1.509503 1_565
O142 Zn19 2.138597 1_555
O143 S11 1.466258 1_555
O143 Zn20 2.182638 1_555
