# generated using pymatgen
data_LiNiP2O7
_symmetry_space_group_name_H-M   'P 1'
_cell_length_a   6.34724052
_cell_length_b   6.34701728
_cell_length_c   13.28883271
_cell_angle_alpha   78.84433109
_cell_angle_beta   77.93444427
_cell_angle_gamma   99.05569491
_symmetry_Int_Tables_number   1
_chemical_formula_structural   LiNiP2O7
_chemical_formula_sum   'Li4 Ni4 P8 O28'
_cell_volume   502.59772511
_cell_formula_units_Z   4
loop_
 _symmetry_equiv_pos_site_id
 _symmetry_equiv_pos_as_xyz
  1  'x, y, z'
loop_
 _atom_site_type_symbol
 _atom_site_label
 _atom_site_symmetry_multiplicity
 _atom_site_fract_x
 _atom_site_fract_y
 _atom_site_fract_z
 _atom_site_occupancy
  Li  Li0  1  0.41711000  0.01985700  0.34622200  1
  Li  Li1  1  0.13391700  0.23637700  0.84631700  1
  Li  Li2  1  0.86608300  0.76362300  0.15368300  1
  Li  Li3  1  0.58289100  0.98014300  0.65377800  1
  Ni  Ni0  1  0.22794800  0.60038300  0.64147100  1
  Ni  Ni1  1  0.74182600  0.86949700  0.85851900  1
  Ni  Ni2  1  0.25817400  0.13050300  0.14148100  1
  Ni  Ni3  1  0.77205200  0.39961700  0.35852900  1
  P  P0  1  0.77184800  0.25037700  0.13603400  1
  P  P1  1  0.65508900  0.32820200  0.92844300  1
  P  P2  1  0.75659400  0.58345200  0.57152700  1
  P  P3  1  0.11359800  0.09215000  0.63606500  1
  P  P4  1  0.22815100  0.74962300  0.86396600  1
  P  P5  1  0.34491200  0.67179800  0.07155700  1
  P  P6  1  0.88640200  0.90785000  0.36393500  1
  P  P7  1  0.24340600  0.41654800  0.42847300  1
  O  O0  1  0.29736600  0.60997600  0.47792800  1
  O  O1  1  0.72773200  0.06509900  0.37821100  1
  O  O2  1  0.78942100  0.18645500  0.87175200  1
  O  O3  1  0.54300800  0.10037700  0.18476700  1
  O  O4  1  0.05657000  0.89393300  0.87827000  1
  O  O5  1  0.27226800  0.93490100  0.62178900  1
  O  O6  1  0.21057800  0.81354500  0.12824800  1
  O  O7  1  0.45699200  0.89962300  0.81523300  1
  O  O8  1  0.17485900  0.56908600  0.80696000  1
  O  O9  1  0.09820600  0.46042100  0.35088200  1
  O  O10  1  0.22814000  0.61679400  0.98028400  1
  O  O11  1  0.94343000  0.10606700  0.12173000  1
  O  O12  1  0.58778500  0.77518000  0.02212000  1
  O  O13  1  0.31121800  0.44902700  0.14917500  1
  O  O14  1  0.09717400  0.20846300  0.51973500  1
  O  O15  1  0.55819700  0.66100200  0.62830300  1
  O  O16  1  0.87608000  0.98188400  0.69303200  1
  O  O17  1  0.21486400  0.27226700  0.68479700  1
  O  O18  1  0.82514000  0.43091400  0.19304000  1
  O  O19  1  0.12392000  0.01811600  0.30696800  1
  O  O20  1  0.44180300  0.33899800  0.37169700  1
  O  O21  1  0.90282700  0.79153700  0.48026500  1
  O  O22  1  0.68878200  0.55097400  0.85082500  1
  O  O23  1  0.41221400  0.22482000  0.97788000  1
  O  O24  1  0.70263400  0.39002400  0.52207200  1
  O  O25  1  0.77186000  0.38320700  0.01971600  1
  O  O26  1  0.90179400  0.53957900  0.64911800  1
  O  O27  1  0.78513600  0.72773300  0.31520300  1
loop_
_geom_bond_atom_site_label_1
_geom_bond_atom_site_label_2
_geom_bond_distance
_geom_bond_site_symmetry_2
Li0 O19 2.033948 1_555
Li0 O3 2.057548 1_555
Li0 O1 2.090393 1_555
Li0 O20 2.104706 1_555
Li1 O8 2.035548 1_555
Li1 O17 2.058125 1_555
Li1 O4 2.089318 1_545
Li1 O2 2.104125 1_455
Li2 O18 2.035548 1_555
Li2 O27 2.058125 1_555
Li2 O11 2.089318 1_565
Li2 O6 2.104118 1_655
Li3 O16 2.033942 1_555
Li3 O7 2.057549 1_555
Li3 O5 2.090399 1_555
Li3 O15 2.104705 1_555
Ni0 O26 2.022445 1_455
Ni0 O17 2.033970 1_555
Ni0 O15 2.034528 1_555
Ni0 O5 2.054709 1_555
Ni0 O0 2.112128 1_555
Ni0 O8 2.118816 1_555
Ni1 O22 2.022640 1_555
Ni1 O7 2.033962 1_555
Ni1 O2 2.033978 1_565
Ni1 O4 2.054604 1_655
Ni1 O12 2.112909 1_556
Ni1 O16 2.118811 1_555
Ni2 O13 2.022646 1_555
Ni2 O3 2.033962 1_555
Ni2 O6 2.033978 1_545
Ni2 O11 2.054604 1_455
Ni2 O23 2.112908 1_554
Ni2 O19 2.118811 1_555
Ni3 O9 2.022445 1_655
Ni3 O27 2.033970 1_555
Ni3 O20 2.034528 1_555
Ni3 O1 2.054709 1_555
Ni3 O24 2.112128 1_555
Ni3 O18 2.118816 1_555
O0 P7 1.526560 1_555
O1 P6 1.534995 1_545
O2 P1 1.529426 1_555
O3 P0 1.538969 1_555
O4 P4 1.534917 1_555
O5 P3 1.534995 1_565
O6 P5 1.529433 1_555
O7 P4 1.538974 1_555
O8 P4 1.523915 1_555
O9 P7 1.535264 1_555
O10 P4 1.611126 1_555
O10 P5 1.612641 1_556
O11 P0 1.534922 1_555
O12 P5 1.526429 1_555
O13 P5 1.535283 1_555
O14 P3 1.611098 1_555
O14 P7 1.612555 1_555
O15 P2 1.529348 1_555
O16 P3 1.523624 1_665
O17 P3 1.539030 1_555
O18 P0 1.523915 1_555
O19 P6 1.523624 1_445
O20 P7 1.529348 1_555
O21 P6 1.611100 1_555
O21 P2 1.612557 1_555
O22 P1 1.535289 1_555
O23 P1 1.526439 1_555
O24 P2 1.526560 1_555
O25 P0 1.611126 1_555
O25 P1 1.612639 1_554
O26 P2 1.535264 1_555
O27 P6 1.539030 1_555
