# generated using pymatgen
data_Na6Nb20Zn4Si21(S5O48)3
_symmetry_space_group_name_H-M   'P 1'
_cell_length_a   17.78653892
_cell_length_b   8.89355120
_cell_length_c   23.00271229
_cell_angle_alpha   89.99875123
_cell_angle_beta   89.99132401
_cell_angle_gamma   119.92391957
_symmetry_Int_Tables_number   1
_chemical_formula_structural   Na6Nb20Zn4Si21(S5O48)3
_chemical_formula_sum   'Na6 Nb20 Zn4 Si21 S15 O144'
_cell_volume   3153.61566406
_cell_formula_units_Z   1
loop_
 _symmetry_equiv_pos_site_id
 _symmetry_equiv_pos_as_xyz
  1  'x, y, z'
loop_
 _atom_site_type_symbol
 _atom_site_label
 _atom_site_symmetry_multiplicity
 _atom_site_fract_x
 _atom_site_fract_y
 _atom_site_fract_z
 _atom_site_occupancy
  Na  Na0  1  0.99865710  0.99744119  0.49898412  1
  Na  Na1  1  0.49992075  0.00151826  0.00172029  1
  Na  Na2  1  0.33518362  0.32308068  0.83687200  1
  Na  Na3  1  0.83232682  0.33226127  0.83437971  1
  Na  Na4  1  0.33463882  0.33380815  0.33280761  1
  Na  Na5  1  0.83173220  0.34380332  0.33413323  1
  Nb  Nb0  1  0.50259788  0.99104141  0.36012303  1
  Nb  Nb1  1  0.99454340  0.00163822  0.86186095  1
  Nb  Nb2  1  0.49275977  0.99125844  0.63852871  1
  Nb  Nb3  1  0.99261656  0.99408021  0.13865934  1
  Nb  Nb4  1  0.33556230  0.33620437  0.68714202  1
  Nb  Nb5  1  0.83772057  0.32108946  0.68497057  1
  Nb  Nb6  1  0.33920462  0.35769774  0.18632831  1
  Nb  Nb7  1  0.83176856  0.32567389  0.19129515  1
  Nb  Nb8  1  0.33432879  0.33496312  0.97889290  1
  Nb  Nb9  1  0.84079330  0.34231374  0.97829114  1
  Nb  Nb10  1  0.34046777  0.33953696  0.47604273  1
  Nb  Nb11  1  0.83332547  0.33070102  0.47701388  1
  Nb  Nb12  1  0.16028873  0.66143036  0.02539364  1
  Nb  Nb13  1  0.66480743  0.65709652  0.02535775  1
  Nb  Nb14  1  0.16545635  0.67351409  0.52373468  1
  Nb  Nb15  1  0.66055312  0.65993181  0.52379432  1
  Nb  Nb16  1  0.16716060  0.67773234  0.31203573  1
  Nb  Nb17  1  0.66618216  0.65879994  0.30607315  1
  Nb  Nb18  1  0.16777989  0.67951126  0.81026601  1
  Nb  Nb19  1  0.66687646  0.65876233  0.81259090  1
  Zn  Zn0  1  0.99649549  0.97126307  0.35442485  1
  Zn  Zn1  1  0.49641609  0.02412308  0.85452133  1
  Zn  Zn2  1  0.99061181  0.01097507  0.64684041  1
  Zn  Zn3  1  0.49435059  0.95929259  0.15164524  1
  Si  Si0  1  0.64115313  0.99919864  0.24981287  1
  Si  Si1  1  0.35661008  0.71997428  0.25049439  1
  Si  Si2  1  0.85954801  0.71612075  0.25088425  1
  Si  Si3  1  0.35819890  0.00113564  0.75071546  1
  Si  Si4  1  0.85613996  0.99655445  0.74999301  1
  Si  Si5  1  0.47646430  0.33353117  0.58294674  1
  Si  Si6  1  0.97969166  0.32512796  0.58033682  1
  Si  Si7  1  0.69060463  0.04605713  0.58218420  1
  Si  Si8  1  0.32795173  0.61074671  0.58245312  1
  Si  Si9  1  0.47911687  0.63628632  0.08097077  1
  Si  Si10  1  0.97460819  0.61644688  0.08563031  1
  Si  Si11  1  0.82834098  0.04573333  0.08300036  1
  Si  Si12  1  0.19089093  0.33394327  0.08282296  1
  Si  Si13  1  0.80569002  0.65739573  0.91824778  1
  Si  Si14  1  0.02652091  0.38801297  0.91596712  1
  Si  Si15  1  0.52293603  0.37272397  0.91733069  1
  Si  Si16  1  0.16832992  0.95661622  0.91719649  1
  Si  Si17  1  0.30934365  0.95403590  0.41739446  1
  Si  Si18  1  0.66768775  0.38410465  0.41581152  1
  Si  Si19  1  0.02272134  0.67388054  0.41668974  1
  Si  Si20  1  0.52698924  0.66565243  0.41537944  1
  S  S0  1  0.14593340  0.00492920  0.24952510  1
  S  S1  1  0.00131462  0.28634291  0.25188869  1
  S  S2  1  0.49765964  0.28238855  0.24854567  1
  S  S3  1  0.14463166  0.28870302  0.75097056  1
  S  S4  1  0.64575073  0.28780574  0.74973701  1
  S  S5  1  0.99916699  0.71474590  0.74910852  1
  S  S6  1  0.49973195  0.71346061  0.75148251  1
  S  S7  1  0.18853964  0.04931674  0.58325934  1
  S  S8  1  0.83523446  0.62077872  0.58246465  1
  S  S9  1  0.33515466  0.04811501  0.08270280  1
  S  S10  1  0.68916490  0.32844574  0.08283927  1
  S  S11  1  0.31040055  0.66782062  0.91689942  1
  S  S12  1  0.66445679  0.95074301  0.91717035  1
  S  S13  1  0.81069423  0.95248648  0.41703046  1
  S  S14  1  0.16451150  0.37868528  0.41734181  1
  O  O0  1  0.11343779  0.04154827  0.30274299  1
  O  O1  1  0.59735308  0.03375415  0.30788384  1
  O  O2  1  0.41823041  0.80650759  0.30751242  1
  O  O3  1  0.91490292  0.78341602  0.30828470  1
  O  O4  1  0.48381535  0.18055291  0.30158214  1
  O  O5  1  0.98611685  0.18220484  0.30393013  1
  O  O6  1  0.10524031  0.17789931  0.80288903  1
  O  O7  1  0.61299276  0.18498961  0.80271525  1
  O  O8  1  0.48356361  0.78510420  0.80358940  1
  O  O9  1  0.98720162  0.79509318  0.80187588  1
  O  O10  1  0.41289710  0.04437977  0.80834404  1
  O  O11  1  0.91883908  0.02941889  0.80741789  1
  O  O12  1  0.40543268  0.97501803  0.69290476  1
  O  O13  1  0.89129738  0.95598807  0.69306768  1
  O  O14  1  0.09610404  0.21872526  0.69767671  1
  O  O15  1  0.59202381  0.20688282  0.69813374  1
  O  O16  1  0.01616585  0.81526167  0.69651498  1
  O  O17  1  0.51180796  0.81550792  0.69826145  1
  O  O18  1  0.38515541  0.82186877  0.19131265  1
  O  O19  1  0.90677197  0.83969440  0.19298524  1
  O  O20  1  0.01336577  0.20870881  0.19837482  1
  O  O21  1  0.51262508  0.21421497  0.19556813  1
  O  O22  1  0.09221979  0.97847805  0.19797773  1
  O  O23  1  0.59230391  0.96907188  0.19024357  1
  O  O24  1  0.42766148  0.35942946  0.63959323  1
  O  O25  1  0.93219308  0.35792889  0.63955312  1
  O  O26  1  0.24412112  0.13185505  0.63624031  1
  O  O27  1  0.75304999  0.14307762  0.64004098  1
  O  O28  1  0.31630413  0.49383892  0.64061515  1
  O  O29  1  0.82021754  0.51123359  0.63545356  1
  O  O30  1  0.43270275  0.50773265  0.13937264  1
  O  O31  1  0.92762995  0.49299957  0.14008538  1
  O  O32  1  0.31855013  0.12552473  0.13481062  1
  O  O33  1  0.81635263  0.13818315  0.14007622  1
  O  O34  1  0.25339470  0.36184885  0.13975531  1
  O  O35  1  0.74279819  0.35674186  0.13549727  1
  O  O36  1  0.23520227  0.29943190  0.02611107  1
  O  O37  1  0.73364923  0.30993291  0.03004654  1
  O  O38  1  0.41410210  0.51511566  0.02753202  1
  O  O39  1  0.91646418  0.53091949  0.02581968  1
  O  O40  1  0.34340675  0.15508899  0.02905928  1
  O  O41  1  0.84420297  0.17088951  0.02619218  1
  O  O42  1  0.23065678  0.15600356  0.53100704  1
  O  O43  1  0.73511635  0.17120481  0.52663238  1
  O  O44  1  0.34368503  0.51535064  0.52698961  1
  O  O45  1  0.84445302  0.53207507  0.52977742  1
  O  O46  1  0.41546730  0.30058222  0.52581530  1
  O  O47  1  0.91356950  0.30898348  0.52753941  1
  O  O48  1  0.26807744  0.68858684  0.96899997  1
  O  O49  1  0.76380562  0.69396605  0.97415012  1
  O  O50  1  0.08306656  0.47512856  0.97439229  1
  O  O51  1  0.58546510  0.48518283  0.97208523  1
  O  O52  1  0.15595120  0.83359719  0.97276310  1
  O  O53  1  0.65536771  0.84792358  0.96988348  1
  O  O54  1  0.26327790  0.83396580  0.47388949  1
  O  O55  1  0.76830927  0.84881685  0.46985044  1
  O  O56  1  0.15564304  0.46345726  0.47045280  1
  O  O57  1  0.65815411  0.48274043  0.47375464  1
  O  O58  1  0.08488335  0.68561225  0.47223465  1
  O  O59  1  0.58261811  0.68987139  0.47495592  1
  O  O60  1  0.06771797  0.63726300  0.35927134  1
  O  O61  1  0.57044282  0.63236889  0.35977309  1
  O  O62  1  0.24593526  0.85954704  0.36029553  1
  O  O63  1  0.75822995  0.87555448  0.36433107  1
  O  O64  1  0.18131313  0.48920757  0.36469576  1
  O  O65  1  0.68401867  0.50679849  0.35925455  1
  O  O66  1  0.07210568  0.50455507  0.85884328  1
  O  O67  1  0.56887904  0.49889870  0.85926192  1
  O  O68  1  0.18276240  0.86119175  0.85905705  1
  O  O69  1  0.68072243  0.87115904  0.86417865  1
  O  O70  1  0.25646922  0.64176948  0.86368107  1
  O  O71  1  0.74705129  0.63378410  0.85962929  1
  O  O72  1  0.01773435  0.84801030  0.41767799  1
  O  O73  1  0.51384003  0.83304157  0.41081971  1
  O  O74  1  0.40410823  0.98337502  0.40356836  1
  O  O75  1  0.89912799  0.98241882  0.41347876  1
  O  O76  1  0.08770326  0.20819764  0.41069653  1
  O  O77  1  0.58117084  0.19793898  0.40535801  1
  O  O78  1  0.01568351  0.19523637  0.90766370  1
  O  O79  1  0.51729558  0.18798311  0.91745275  1
  O  O80  1  0.08312277  0.97109289  0.90075274  1
  O  O81  1  0.58726492  0.96626253  0.90949018  1
  O  O82  1  0.39804681  0.81512118  0.91158832  1
  O  O83  1  0.90264471  0.82415862  0.90503775  1
  O  O84  1  0.48804135  0.16579388  0.59379173  1
  O  O85  1  0.99058591  0.15866101  0.58309813  1
  O  O86  1  0.10225389  0.02483583  0.59086939  1
  O  O87  1  0.59666580  0.02193588  0.60030592  1
  O  O88  1  0.41698301  0.79792845  0.59346911  1
  O  O89  1  0.91427330  0.78871299  0.58688399  1
  O  O90  1  0.48550215  0.81979096  0.08008448  1
  O  O91  1  0.98864616  0.81073881  0.09346256  1
  O  O92  1  0.41364547  0.03766769  0.08622445  1
  O  O93  1  0.91712007  0.03498232  0.09236204  1
  O  O94  1  0.09693211  0.17144220  0.09946511  1
  O  O95  1  0.60211481  0.18217935  0.08646081  1
  O  O96  1  0.33784028  0.16262250  0.73705742  1
  O  O97  1  0.84594234  0.17657527  0.74413706  1
  O  O98  1  0.23485111  0.31044563  0.74563314  1
  O  O99  1  0.73730976  0.32378417  0.74059152  1
  O  O100  1  0.42036937  0.53049250  0.74291257  1
  O  O101  1  0.92007755  0.53623863  0.74458599  1
  O  O102  1  0.34562154  0.51710029  0.24371513  1
  O  O103  1  0.84295060  0.51896307  0.23648276  1
  O  O104  1  0.41785167  0.30456355  0.24357361  1
  O  O105  1  0.92272025  0.31050824  0.24415352  1
  O  O106  1  0.23738959  0.15163646  0.24043954  1
  O  O107  1  0.74195966  0.17178201  0.24434496  1
  O  O108  1  0.31431517  0.50169190  0.92144303  1
  O  O109  1  0.81399867  0.48311690  0.92332163  1
  O  O110  1  0.42736697  0.36186619  0.92482760  1
  O  O111  1  0.92789441  0.35977612  0.92266736  1
  O  O112  1  0.25329627  0.14767901  0.92341170  1
  O  O113  1  0.74450339  0.12720312  0.92270139  1
  O  O114  1  0.31298339  0.14226046  0.42499218  1
  O  O115  1  0.81545849  0.12847480  0.42280594  1
  O  O116  1  0.24463334  0.36121342  0.42378177  1
  O  O117  1  0.75253289  0.35938165  0.42542273  1
  O  O118  1  0.42761720  0.49442970  0.42331075  1
  O  O119  1  0.92733596  0.49417148  0.42563273  1
  O  O120  1  0.18547764  0.50927768  0.07116228  1
  O  O121  1  0.68627879  0.49478481  0.07604514  1
  O  O122  1  0.07063097  0.63889817  0.07475641  1
  O  O123  1  0.57068040  0.63705349  0.07172734  1
  O  O124  1  0.25641394  0.87433999  0.07316232  1
  O  O125  1  0.74718020  0.85601155  0.07081238  1
  O  O126  1  0.18534958  0.87819056  0.57755805  1
  O  O127  1  0.68577426  0.86140826  0.57185429  1
  O  O128  1  0.24687144  0.63866913  0.57188326  1
  O  O129  1  0.75714431  0.63842710  0.57474588  1
  O  O130  1  0.07131209  0.50655617  0.57169790  1
  O  O131  1  0.57107558  0.50393051  0.57578868  1
  O  O132  1  0.15276105  0.84144704  0.25596231  1
  O  O133  1  0.65744082  0.83711763  0.26676323  1
  O  O134  1  0.25635901  0.67463073  0.26711476  1
  O  O135  1  0.76163615  0.69165310  0.25808171  1
  O  O136  1  0.07823738  0.46392454  0.25777281  1
  O  O137  1  0.57354093  0.46464987  0.25705258  1
  O  O138  1  0.15763423  0.46590765  0.76187265  1
  O  O139  1  0.65264000  0.46449896  0.75654645  1
  O  O140  1  0.07569097  0.68538901  0.75911592  1
  O  O141  1  0.57610465  0.68807573  0.75722970  1
  O  O142  1  0.26041485  0.82591906  0.75901932  1
  O  O143  1  0.75726189  0.83928871  0.76655615  1
loop_
_geom_bond_atom_site_label_1
_geom_bond_atom_site_label_2
_geom_bond_distance
_geom_bond_site_symmetry_2
Na0 O72 2.414333 1_655
Na0 O85 2.454686 1_565
Na0 O75 2.604871 1_555
Na0 O89 2.646895 1_555
Na0 O76 2.680141 1_665
Na0 O86 2.734098 1_665
Na1 O90 2.348064 1_545
Na1 O79 2.468050 1_554
Na1 O92 2.593832 1_555
Na1 O95 2.602413 1_555
Na1 O82 2.708185 1_544
Na1 O81 2.738211 1_544
Na2 O112 2.499928 1_555
Na2 O110 2.517443 1_555
Na2 O108 2.652108 1_555
Na2 O96 2.716195 1_555
Na2 O98 2.720864 1_555
Na2 O100 2.753186 1_555
Na3 O109 2.555051 1_555
Na3 O97 2.572807 1_555
Na3 O111 2.580640 1_555
Na3 O113 2.655217 1_555
Na3 O101 2.677165 1_555
Na3 O99 2.718485 1_555
Na4 O102 2.564642 1_555
Na4 O118 2.598791 1_555
Na4 O104 2.618144 1_555
Na4 O114 2.625233 1_555
Na4 O106 2.708608 1_555
Na4 O116 2.718406 1_555
Na5 O117 2.570413 1_555
Na5 O107 2.592262 1_555
Na5 O119 2.615774 1_555
Na5 O103 2.683589 1_555
Na5 O115 2.712597 1_555
Na5 O105 2.732743 1_555
Nb0 O73 1.911747 1_555
Nb0 O1 1.946620 1_565
Nb0 O77 1.963799 1_565
Nb0 O74 1.988075 1_555
Nb0 O2 1.988302 1_555
Nb0 O4 2.308119 1_565
Nb1 O78 1.889504 1_655
Nb1 O83 1.890759 1_545
Nb1 O11 1.942915 1_555
Nb1 O80 1.945208 1_645
Nb1 O9 2.248570 1_545
Nb1 O6 2.256954 1_655
Nb2 O88 1.880327 1_555
Nb2 O84 1.898791 1_565
Nb2 O87 1.938940 1_565
Nb2 O12 1.942551 1_555
Nb2 O17 2.230293 1_555
Nb2 O15 2.301606 1_565
Nb3 O93 1.886108 1_565
Nb3 O91 1.905198 1_555
Nb3 O19 1.919872 1_555
Nb3 O94 1.955247 1_665
Nb3 O20 2.228007 1_665
Nb3 O22 2.294691 1_655
Nb4 O24 1.893219 1_555
Nb4 O28 1.925439 1_555
Nb4 O96 1.940494 1_555
Nb4 O100 2.075342 1_555
Nb4 O26 2.090631 1_555
Nb4 O98 2.159012 1_555
Nb5 O27 1.861273 1_555
Nb5 O25 1.863469 1_555
Nb5 O97 1.926923 1_555
Nb5 O29 2.186147 1_555
Nb5 O99 2.206624 1_555
Nb5 O101 2.211744 1_555
Nb6 O30 1.870341 1_555
Nb6 O34 1.880224 1_555
Nb6 O102 1.898422 1_555
Nb6 O104 2.138717 1_555
Nb6 O106 2.208023 1_555
Nb6 O32 2.246395 1_555
Nb7 O107 1.931853 1_555
Nb7 O103 1.932375 1_555
Nb7 O33 1.946207 1_555
Nb7 O31 1.994270 1_555
Nb7 O105 2.081310 1_555
Nb7 O35 2.159812 1_555
Nb8 O38 1.887993 1_556
Nb8 O36 1.957472 1_556
Nb8 O110 1.986629 1_555
Nb8 O112 2.021354 1_555
Nb8 O40 2.043156 1_556
Nb8 O108 2.144411 1_555
Nb9 O39 1.889040 1_556
Nb9 O41 1.906376 1_556
Nb9 O111 1.954657 1_555
Nb9 O109 1.997399 1_555
Nb9 O37 2.140977 1_556
Nb9 O113 2.227125 1_555
Nb10 O118 1.908055 1_555
Nb10 O46 1.916213 1_555
Nb10 O44 1.931932 1_555
Nb10 O114 1.959781 1_555
Nb10 O116 2.171707 1_555
Nb10 O42 2.212705 1_555
Nb11 O47 1.923715 1_555
Nb11 O119 1.969887 1_555
Nb11 O43 1.973153 1_555
Nb11 O117 1.976016 1_555
Nb11 O115 2.078567 1_555
Nb11 O45 2.089546 1_555
Nb12 O122 1.884980 1_555
Nb12 O50 1.933440 1_554
Nb12 O120 1.935239 1_555
Nb12 O52 1.983410 1_554
Nb12 O124 2.118181 1_555
Nb12 O48 2.225747 1_554
Nb13 O123 1.916794 1_555
Nb13 O51 1.917997 1_554
Nb13 O125 1.945256 1_555
Nb13 O49 2.004706 1_554
Nb13 O121 2.034486 1_555
Nb13 O53 2.195684 1_554
Nb14 O58 1.903449 1_555
Nb14 O130 1.935116 1_555
Nb14 O128 1.966689 1_555
Nb14 O54 1.974946 1_555
Nb14 O126 2.080667 1_555
Nb14 O56 2.167362 1_555
Nb15 O59 1.903472 1_555
Nb15 O131 1.919525 1_555
Nb15 O57 1.934703 1_555
Nb15 O127 1.957641 1_555
Nb15 O129 2.165697 1_555
Nb15 O55 2.195906 1_555
Nb16 O62 1.884220 1_555
Nb16 O134 1.904922 1_555
Nb16 O60 1.950086 1_555
Nb16 O132 2.054582 1_555
Nb16 O136 2.162274 1_555
Nb16 O64 2.182414 1_555
Nb17 O133 1.898105 1_555
Nb17 O135 1.921209 1_555
Nb17 O65 1.962786 1_555
Nb17 O61 2.020109 1_555
Nb17 O137 2.032262 1_555
Nb17 O63 2.245964 1_555
Nb18 O68 1.874024 1_555
Nb18 O142 1.912769 1_555
Nb18 O66 1.980686 1_555
Nb18 O140 2.038618 1_555
Nb18 O138 2.130423 1_555
Nb18 O70 2.153979 1_555
Nb19 O71 1.889492 1_555
Nb19 O143 1.925559 1_555
Nb19 O67 1.933647 1_555
Nb19 O139 2.067541 1_555
Nb19 O69 2.138467 1_555
Nb19 O141 2.171835 1_555
O0 S0 1.458181 1_555
O0 Zn0 2.198286 1_445
O1 Si0 1.650537 1_545
O2 Si1 1.634829 1_555
O3 Si2 1.575902 1_555
O3 Zn0 1.898738 1_555
O4 S2 1.465130 1_555
O5 S1 1.453942 1_655
O5 Zn0 2.290882 1_545
O6 S3 1.482936 1_555
O7 S4 1.459071 1_555
O7 Zn1 2.192218 1_555
O8 S6 1.451918 1_555
O8 Zn1 2.336433 1_565
O9 S5 1.476782 1_555
O10 Si3 1.574417 1_555
O10 Zn1 1.906556 1_555
O11 Si4 1.658075 1_545
O12 Si3 1.650003 1_565
O13 Si4 1.568656 1_555
O13 Zn2 1.904677 1_565
O14 S3 1.448993 1_555
O14 Zn2 2.200861 1_455
O15 S4 1.467780 1_555
O16 S5 1.443721 1_455
O16 Zn2 2.308952 1_465
O17 S6 1.474424 1_555
O18 Si1 1.572556 1_555
O18 Zn3 1.931222 1_555
O19 Si2 1.663048 1_555
O20 S1 1.478358 1_555
O21 S2 1.443767 1_555
O21 Zn3 2.351906 1_545
O22 S0 1.466345 1_565
O23 Si0 1.572393 1_555
O23 Zn3 1.918489 1_555
O24 Si5 1.644246 1_555
O25 Si6 1.702884 1_555
O26 S7 1.509239 1_555
O27 Si7 1.671431 1_555
O28 Si8 1.642813 1_555
O29 S8 1.498804 1_555
O30 Si9 1.688582 1_555
O31 Si10 1.599047 1_555
O32 S9 1.483463 1_555
O33 Si11 1.618665 1_555
O34 Si12 1.654617 1_555
O35 S10 1.483709 1_555
O36 Si12 1.630406 1_555
O37 S10 1.502511 1_555
O38 Si9 1.663354 1_555
O39 Si10 1.660300 1_555
O40 S9 1.519824 1_555
O41 Si11 1.647009 1_555
O42 S7 1.482109 1_555
O43 Si7 1.618317 1_555
O44 Si8 1.631753 1_555
O45 S8 1.499029 1_555
O46 Si5 1.635010 1_555
O47 Si6 1.646428 1_555
O48 S11 1.474966 1_555
O49 Si13 1.598685 1_555
O50 Si14 1.625113 1_555
O51 Si15 1.647509 1_555
O52 Si16 1.624423 1_555
O53 S12 1.478169 1_555
O54 Si17 1.620841 1_555
O55 S13 1.483522 1_555
O56 S14 1.484742 1_555
O57 Si18 1.650197 1_555
O58 Si19 1.658661 1_555
O59 Si20 1.640501 1_555
O60 Si19 1.658548 1_555
O61 Si20 1.596571 1_555
O62 Si17 1.660773 1_555
O63 S13 1.473700 1_555
O64 S14 1.492905 1_555
O65 Si18 1.628238 1_555
O66 Si14 1.618473 1_555
O67 Si15 1.672094 1_555
O68 Si16 1.670918 1_555
O69 S12 1.508222 1_555
O70 S11 1.500353 1_555
O71 Si13 1.652867 1_555
O72 Si19 1.594897 1_555
O72 Zn0 1.968376 1_455
O73 Si20 1.621497 1_555
O74 Si17 1.603527 1_555
O75 S13 1.460771 1_555
O75 Zn0 2.241663 1_555
O76 S14 1.456759 1_555
O76 Zn0 2.310340 1_445
O77 Si18 1.620270 1_555
O78 Si14 1.638092 1_555
O79 Si15 1.595329 1_555
O79 Zn1 1.953832 1_555
O80 Si16 1.628299 1_555
O81 S12 1.457554 1_555
O81 Zn1 2.303229 1_565
O82 S11 1.457305 1_555
O82 Zn1 2.234715 1_565
O83 Si13 1.647397 1_555
O84 Si5 1.623735 1_555
O85 Si6 1.587332 1_555
O85 Zn2 1.968642 1_555
O86 S7 1.449127 1_555
O86 Zn2 2.317525 1_455
O87 Si7 1.629014 1_555
O88 Si8 1.647169 1_555
O89 S8 1.456899 1_555
O89 Zn2 2.230682 1_565
O90 Si9 1.578556 1_555
O90 Zn3 2.019652 1_555
O91 Si10 1.627935 1_555
O92 S9 1.446957 1_555
O92 Zn3 2.410369 1_545
O93 Si11 1.643083 1_555
O94 Si12 1.618085 1_555
O95 S10 1.444604 1_555
O95 Zn3 2.461662 1_545
O96 Si3 1.676708 1_555
O97 Si4 1.704126 1_545
O98 S3 1.522451 1_555
O99 S4 1.509542 1_555
O100 S6 1.545229 1_555
O101 S5 1.510623 1_555
O102 Si1 1.722237 1_555
O103 Si2 1.659828 1_555
O104 S2 1.531773 1_555
O105 S1 1.527040 1_655
O106 S0 1.508149 1_555
O107 Si0 1.685449 1_545
O108 S11 1.517015 1_555
O109 Si13 1.632898 1_555
O110 Si15 1.662731 1_555
O111 Si14 1.650612 1_655
O112 Si16 1.621643 1_545
O113 S12 1.508962 1_545
O114 Si17 1.651924 1_545
O115 S13 1.530440 1_545
O116 S14 1.515904 1_555
O117 Si18 1.644919 1_555
O118 Si20 1.670550 1_555
O119 Si19 1.664229 1_655
O120 Si12 1.631735 1_555
O121 S10 1.513697 1_555
O122 Si10 1.636775 1_455
O123 Si9 1.639023 1_555
O124 S9 1.496242 1_565
O125 Si11 1.606078 1_565
O126 S7 1.500171 1_565
O127 Si7 1.618601 1_565
O128 Si8 1.599359 1_555
O129 S8 1.484227 1_555
O130 Si6 1.635582 1_455
O131 Si5 1.615893 1_555
O132 S0 1.525373 1_565
O133 Si0 1.652408 1_555
O134 Si1 1.664534 1_555
O135 Si2 1.652105 1_555
O136 S1 1.492904 1_555
O137 S2 1.518142 1_555
O138 S3 1.495486 1_555
O139 S4 1.522119 1_555
O140 S5 1.525903 1_455
O141 S6 1.489878 1_555
O142 Si3 1.669012 1_565
O143 Si4 1.655304 1_555
