# generated using pymatgen
data_Na2ScCuF7
_symmetry_space_group_name_H-M   'P 1'
_cell_length_a   7.34252300
_cell_length_b   7.77302600
_cell_length_c   10.63958700
_cell_angle_alpha   90.00000000
_cell_angle_beta   90.00000000
_cell_angle_gamma   90.00000000
_symmetry_Int_Tables_number   1
_chemical_formula_structural   Na2ScCuF7
_chemical_formula_sum   'Na8 Sc4 Cu4 F28'
_cell_volume   607.23976864
_cell_formula_units_Z   4
loop_
 _symmetry_equiv_pos_site_id
 _symmetry_equiv_pos_as_xyz
  1  'x, y, z'
loop_
 _atom_site_type_symbol
 _atom_site_label
 _atom_site_symmetry_multiplicity
 _atom_site_fract_x
 _atom_site_fract_y
 _atom_site_fract_z
 _atom_site_occupancy
  Na  Na0  1  0.00000000  0.50000000  0.00000000  1
  Na  Na1  1  0.50000000  0.50000000  0.00000000  1
  Na  Na2  1  0.00000000  0.00000000  0.50000000  1
  Na  Na3  1  0.50000000  0.00000000  0.50000000  1
  Na  Na4  1  0.25000000  0.21625100  0.76162900  1
  Na  Na5  1  0.25000000  0.28374900  0.26162900  1
  Na  Na6  1  0.75000000  0.71625100  0.73837100  1
  Na  Na7  1  0.75000000  0.78374900  0.23837100  1
  Sc  Sc0  1  0.25000000  0.72225600  0.76761600  1
  Sc  Sc1  1  0.75000000  0.22225600  0.73238400  1
  Sc  Sc2  1  0.75000000  0.27774400  0.23238400  1
  Sc  Sc3  1  0.25000000  0.77774400  0.26761600  1
  Cu  Cu0  1  0.50000000  0.50000000  0.50000000  1
  Cu  Cu1  1  0.00000000  0.50000000  0.50000000  1
  Cu  Cu2  1  0.50000000  0.00000000  0.00000000  1
  Cu  Cu3  1  0.00000000  0.00000000  0.00000000  1
  F  F0  1  0.53035300  0.26431100  0.62146500  1
  F  F1  1  0.03035300  0.73568900  0.37853500  1
  F  F2  1  0.46964700  0.76431100  0.87853500  1
  F  F3  1  0.96964700  0.23568900  0.12146500  1
  F  F4  1  0.46964700  0.73568900  0.37853500  1
  F  F5  1  0.96964700  0.26431100  0.62146500  1
  F  F6  1  0.53035300  0.23568900  0.12146500  1
  F  F7  1  0.03035300  0.76431100  0.87853500  1
  F  F8  1  0.44673300  0.64398500  0.64359000  1
  F  F9  1  0.94673300  0.35601500  0.35641000  1
  F  F10  1  0.55326700  0.14398500  0.85641000  1
  F  F11  1  0.05326700  0.85601500  0.14359000  1
  F  F12  1  0.55326700  0.35601500  0.35641000  1
  F  F13  1  0.05326700  0.64398500  0.64359000  1
  F  F14  1  0.44673300  0.85601500  0.14359000  1
  F  F15  1  0.94673300  0.14398500  0.85641000  1
  F  F16  1  0.25000000  0.06500600  0.96691400  1
  F  F17  1  0.75000000  0.93499400  0.03308600  1
  F  F18  1  0.75000000  0.56500600  0.53308600  1
  F  F19  1  0.25000000  0.43499400  0.46691400  1
  F  F20  1  0.25000000  0.94835900  0.67127700  1
  F  F21  1  0.75000000  0.05164100  0.32872300  1
  F  F22  1  0.75000000  0.44835900  0.82872300  1
  F  F23  1  0.25000000  0.55164100  0.17127700  1
  F  F24  1  0.25000000  0.48317900  0.85550100  1
  F  F25  1  0.75000000  0.51682100  0.14449900  1
  F  F26  1  0.75000000  0.98317900  0.64449900  1
  F  F27  1  0.25000000  0.01682100  0.35550100  1
loop_
_geom_bond_atom_site_label_1
_geom_bond_atom_site_label_2
_geom_bond_distance
_geom_bond_site_symmetry_2
Cu0 F12 1.933795 1_555
Cu0 F8 1.933795 1_555
Cu0 F18 1.936177 1_555
Cu0 F19 1.936177 1_555
Cu0 F0 2.253018 1_555
Cu0 F4 2.253018 1_555
Cu1 F9 1.933795 1_455
Cu1 F13 1.933795 1_555
Cu1 F18 1.936177 1_455
Cu1 F19 1.936177 1_555
Cu1 F5 2.253018 1_455
Cu1 F1 2.253018 1_555
Cu2 F10 1.933795 1_554
Cu2 F14 1.933795 1_545
Cu2 F16 1.936177 1_554
Cu2 F17 1.936177 1_545
Cu2 F6 2.253018 1_555
Cu2 F2 2.253018 1_544
Cu3 F15 1.933795 1_454
Cu3 F11 1.933795 1_545
Cu3 F16 1.936177 1_554
Cu3 F17 1.936177 1_445
Cu3 F3 2.253018 1_455
Cu3 F7 2.253018 1_544
F0 Sc1 2.024988 1_555
F0 Na3 2.437368 1_555
F0 Na4 2.569223 1_555
F1 Sc3 2.024988 1_555
F1 Na2 2.437368 1_565
F1 Na7 2.569223 1_455
F2 Sc0 2.024988 1_555
F2 Na1 2.437368 1_556
F2 Na6 2.569223 1_555
F3 Sc2 2.024988 1_555
F3 Na0 2.437368 1_655
F3 Na5 2.569223 1_655
F4 Sc3 2.024988 1_555
F4 Na3 2.437368 1_565
F4 Na7 2.569223 1_555
F5 Sc1 2.024988 1_555
F5 Na2 2.437368 1_655
F5 Na4 2.569223 1_655
F6 Sc2 2.024988 1_555
F6 Na1 2.437368 1_555
F6 Na5 2.569223 1_555
F7 Sc0 2.024988 1_555
F7 Na0 2.437368 1_556
F7 Na6 2.569223 1_455
F8 Sc0 2.048923 1_555
F8 Na6 2.508159 1_555
F9 Sc2 2.048923 1_555
F9 Na5 2.508159 1_655
F10 Sc1 2.048923 1_555
F10 Na4 2.508159 1_555
F11 Sc3 2.048923 1_555
F11 Na7 2.508159 1_455
F12 Sc2 2.048923 1_555
F12 Na5 2.508159 1_555
F13 Sc0 2.048923 1_555
F13 Na6 2.508159 1_455
F14 Sc3 2.048923 1_555
F14 Na7 2.508159 1_555
F15 Sc1 2.048923 1_555
F15 Na4 2.508159 1_655
F16 Na4 2.480445 1_555
F17 Na7 2.480445 1_555
F18 Na6 2.480445 1_555
F19 Na5 2.480445 1_555
F20 Sc0 2.034567 1_555
F20 Na4 2.293516 1_565
F20 Na2 2.617538 1_565
F20 Na3 2.617538 1_565
F21 Sc2 2.034567 1_555
F21 Na7 2.293516 1_545
F21 Na2 2.617538 1_655
F21 Na3 2.617538 1_555
F22 Sc1 2.034567 1_555
F22 Na6 2.293516 1_555
F22 Na1 2.617538 1_556
F22 Na0 2.617538 1_656
F23 Sc3 2.034567 1_555
F23 Na5 2.293516 1_555
F23 Na0 2.617538 1_555
F23 Na1 2.617538 1_555
F24 Sc0 2.080339 1_555
F24 Na4 2.302710 1_555
F24 Na1 2.397971 1_556
F24 Na0 2.397971 1_556
F25 Sc2 2.080339 1_555
F25 Na7 2.302710 1_555
F25 Na0 2.397971 1_655
F25 Na1 2.397971 1_555
F26 Sc1 2.080339 1_565
F26 Na6 2.302710 1_555
F26 Na2 2.397971 1_665
F26 Na3 2.397971 1_565
F27 Sc3 2.080339 1_545
F27 Na5 2.302710 1_555
F27 Na2 2.397971 1_555
F27 Na3 2.397971 1_555
