# generated using pymatgen
data_Na4SnSe4
_symmetry_space_group_name_H-M   'P 1'
_cell_length_a   7.28296050
_cell_length_b   8.16402997
_cell_length_c   8.16402997
_cell_angle_alpha   90.00000000
_cell_angle_beta   90.00000000
_cell_angle_gamma   90.00000000
_symmetry_Int_Tables_number   1
_chemical_formula_structural   Na4SnSe4
_chemical_formula_sum   'Na8 Sn2 Se8'
_cell_volume   485.41940678
_cell_formula_units_Z   2
loop_
 _symmetry_equiv_pos_site_id
 _symmetry_equiv_pos_as_xyz
  1  'x, y, z'
loop_
 _atom_site_type_symbol
 _atom_site_label
 _atom_site_symmetry_multiplicity
 _atom_site_fract_x
 _atom_site_fract_y
 _atom_site_fract_z
 _atom_site_occupancy
  Na  Na0  1  0.02826506  0.19682128  0.59547319  1
  Na  Na1  1  0.97173494  0.59547319  0.80317872  1
  Na  Na2  1  0.97173494  0.40452681  0.19682128  1
  Na  Na3  1  0.02826506  0.80317872  0.40452681  1
  Na  Na4  1  0.47173494  0.69682128  0.90452681  1
  Na  Na5  1  0.47173494  0.30317872  0.09547319  1
  Na  Na6  1  0.52826506  0.90452681  0.30317872  1
  Na  Na7  1  0.52826506  0.09547319  0.69682128  1
  Sn  Sn0  1  0.00000000  -0.00000000  -0.00000000  1
  Sn  Sn1  1  0.50000000  0.50000000  0.50000000  1
  Se  Se0  1  0.69147623  0.25729724  0.40493841  1
  Se  Se1  1  0.69147623  0.74270276  0.59506159  1
  Se  Se2  1  0.19147623  0.09506159  0.24270276  1
  Se  Se3  1  0.80852377  0.24270276  0.90493841  1
  Se  Se4  1  0.80852377  0.75729724  0.09506159  1
  Se  Se5  1  0.19147623  0.90493841  0.75729724  1
  Se  Se6  1  0.30852377  0.59506159  0.25729724  1
  Se  Se7  1  0.30852377  0.40493841  0.74270276  1
loop_
_geom_bond_atom_site_label_1
_geom_bond_atom_site_label_2
_geom_bond_distance
_geom_bond_site_symmetry_2
Na0 Se7 2.915093 1_555
Na0 Se0 2.946145 1_455
Na0 Se5 2.972662 1_545
Na0 Se3 3.014067 1_455
Na0 Se2 3.224539 1_555
Na1 Se1 2.915093 1_555
Na1 Se7 2.946145 1_655
Na1 Se4 2.972662 1_556
Na1 Se5 3.014067 1_655
Na1 Se3 3.224539 1_555
Na2 Se0 2.915093 1_555
Na2 Se6 2.946145 1_655
Na2 Se3 2.972662 1_554
Na2 Se2 3.014067 1_655
Na2 Se4 3.224539 1_555
Na3 Se6 2.915093 1_555
Na3 Se1 2.946145 1_455
Na3 Se2 2.972662 1_565
Na3 Se4 3.014067 1_455
Na3 Se5 3.224539 1_555
Na4 Se5 2.915093 1_555
Na4 Se4 2.946145 1_556
Na4 Se7 2.972662 1_555
Na4 Se1 3.014067 1_555
Na4 Se6 3.224539 1_556
Na5 Se2 2.915093 1_555
Na5 Se3 2.946145 1_554
Na5 Se6 2.972662 1_555
Na5 Se0 3.014067 1_555
Na5 Se7 3.224539 1_554
Na6 Se4 2.915093 1_555
Na6 Se2 2.946145 1_565
Na6 Se1 2.972662 1_555
Na6 Se6 3.014067 1_555
Na6 Se0 3.224539 1_565
Na7 Se3 2.915093 1_555
Na7 Se5 2.946145 1_545
Na7 Se0 2.972662 1_555
Na7 Se7 3.014067 1_555
Na7 Se1 3.224539 1_545
Se0 Sn1 2.544220 1_555
Se1 Sn1 2.544220 1_555
Se2 Sn0 2.544220 1_555
Se3 Sn0 2.544220 1_656
Se4 Sn0 2.544220 1_665
Se5 Sn0 2.544220 1_566
Se6 Sn1 2.544220 1_555
Se7 Sn1 2.544220 1_555
