# generated using pymatgen
data_Na6Sc2In2Si3(SO8)3
_symmetry_space_group_name_H-M   'P 1'
_cell_length_a   9.19514435
_cell_length_b   9.16553343
_cell_length_c   22.75500981
_cell_angle_alpha   90.36132076
_cell_angle_beta   89.61775954
_cell_angle_gamma   120.09946413
_symmetry_Int_Tables_number   1
_chemical_formula_structural   Na6Sc2In2Si3(SO8)3
_chemical_formula_sum   'Na18 Sc6 In6 Si9 S9 O72'
_cell_volume   1659.11158768
_cell_formula_units_Z   3
loop_
 _symmetry_equiv_pos_site_id
 _symmetry_equiv_pos_as_xyz
  1  'x, y, z'
loop_
 _atom_site_type_symbol
 _atom_site_label
 _atom_site_symmetry_multiplicity
 _atom_site_fract_x
 _atom_site_fract_y
 _atom_site_fract_z
 _atom_site_occupancy
  Na  Na0  1  0.63374437  0.00661554  0.25838647  1
  Na  Na1  1  0.34899897  0.35135278  0.25396807  1
  Na  Na2  1  0.64822058  0.64626598  0.73727512  1
  Na  Na3  1  0.98603060  0.36550894  0.74560074  1
  Na  Na4  1  0.01876505  0.68667181  0.59163147  1
  Na  Na5  1  0.67557747  0.96655860  0.58280554  1
  Na  Na6  1  0.31008410  0.96965892  0.09504627  1
  Na  Na7  1  0.02381260  0.32182831  0.08293281  1
  Na  Na8  1  0.97040971  0.65733884  0.90096960  1
  Na  Na9  1  0.71429227  0.04565306  0.90975087  1
  Na  Na10  1  0.95264788  0.28800814  0.42152391  1
  Na  Na11  1  0.34446809  0.03113463  0.41378319  1
  Na  Na12  1  0.97459564  0.99376102  0.50627066  1
  Na  Na13  1  0.99167568  0.01431645  0.99804892  1
  Na  Na14  1  0.66762192  0.32335176  0.82224688  1
  Na  Na15  1  0.67455510  0.33169769  0.33516353  1
  Na  Na16  1  0.32540070  0.67184749  0.17331137  1
  Na  Na17  1  0.33331928  0.66642140  0.66495908  1
  Sc  Sc0  1  0.99125294  0.00321759  0.34896927  1
  Sc  Sc1  1  0.98657920  0.99298365  0.64870135  1
  Sc  Sc2  1  0.68070569  0.34250833  0.68279626  1
  Sc  Sc3  1  0.66653655  0.31524194  0.18862957  1
  Sc  Sc4  1  0.67560326  0.33492801  0.48680606  1
  Sc  Sc5  1  0.32867057  0.68130926  0.31385286  1
  In  In0  1  0.99847350  0.01170499  0.84331480  1
  In  In1  1  0.99468023  0.00276962  0.15455217  1
  In  In2  1  0.67852163  0.32879102  0.98413188  1
  In  In3  1  0.33675319  0.66214350  0.01624559  1
  In  In4  1  0.34961416  0.66097209  0.52089760  1
  In  In5  1  0.32224124  0.67030050  0.81075082  1
  Si  Si0  1  0.29069646  0.99858287  0.24843752  1
  Si  Si1  1  0.00509968  0.30456217  0.24911923  1
  Si  Si2  1  0.99880728  0.70604723  0.75006328  1
  Si  Si3  1  0.69539507  0.00024681  0.75095097  1
  Si  Si4  1  0.96980995  0.33522240  0.58183400  1
  Si  Si5  1  0.66757282  0.62646249  0.58564153  1
  Si  Si6  1  0.66511716  0.02486978  0.08320640  1
  Si  Si7  1  0.04165888  0.36914915  0.91844778  1
  Si  Si8  1  0.63155974  0.96501037  0.41680863  1
  S  S0  1  0.70064934  0.69933116  0.25053497  1
  S  S1  1  0.29867528  0.29249137  0.74929238  1
  S  S2  1  0.37161539  0.04382828  0.58221488  1
  S  S3  1  0.95901325  0.63159911  0.08340967  1
  S  S4  1  0.37775811  0.33491825  0.08369080  1
  S  S5  1  0.63273575  0.66253093  0.91727757  1
  S  S6  1  0.33231471  0.96784294  0.91948246  1
  S  S7  1  0.33288348  0.36770400  0.41353803  1
  S  S8  1  0.03737848  0.66839255  0.41719935  1
  O  O0  1  0.19443928  0.02204169  0.30493220  1
  O  O1  1  0.80837704  0.78201192  0.30161070  1
  O  O2  1  0.96667080  0.17245936  0.30350578  1
  O  O3  1  0.23149164  0.20141043  0.80594705  1
  O  O4  1  0.98228146  0.79140307  0.81284910  1
  O  O5  1  0.80567916  0.04390255  0.81270792  1
  O  O6  1  0.79423147  0.97278044  0.69576743  1
  O  O7  1  0.18555837  0.20399267  0.69997586  1
  O  O8  1  0.01801006  0.82312486  0.69427799  1
  O  O9  1  0.76901429  0.80263323  0.19643213  1
  O  O10  1  0.04500666  0.23412411  0.18759765  1
  O  O11  1  0.18588066  0.96948974  0.18687672  1
  O  O12  1  0.88083161  0.36619560  0.64000383  1
  O  O13  1  0.48230747  0.13158909  0.63245494  1
  O  O14  1  0.64751346  0.52107665  0.64534115  1
  O  O15  1  0.86366645  0.52211631  0.13292858  1
  O  O16  1  0.63574413  0.12105515  0.13963241  1
  O  O17  1  0.47369066  0.35051088  0.13730350  1
  O  O18  1  0.46537011  0.32401941  0.03010718  1
  O  O19  1  0.86919910  0.56315585  0.02663102  1
  O  O20  1  0.70134631  0.13872936  0.02318097  1
  O  O21  1  0.44844315  0.13561972  0.52610001  1
  O  O22  1  0.68381672  0.52392589  0.52886460  1
  O  O23  1  0.85094335  0.30152855  0.52265486  1
  O  O24  1  0.55508602  0.69353106  0.97028133  1
  O  O25  1  0.13832908  0.44850878  0.98182199  1
  O  O26  1  0.30952331  0.86846608  0.97449206  1
  O  O27  1  0.54210885  0.85984488  0.47660299  1
  O  O28  1  0.29752673  0.44244344  0.46585498  1
  O  O29  1  0.13826414  0.69531417  0.47091846  1
  O  O30  1  0.12224085  0.64031468  0.36559545  1
  O  O31  1  0.51313824  0.87146540  0.35860086  1
  O  O32  1  0.35233024  0.46790251  0.36005793  1
  O  O33  1  0.13320198  0.49511263  0.86331439  1
  O  O34  1  0.36766962  0.88742930  0.86876014  1
  O  O35  1  0.53563529  0.64315206  0.86376522  1
  O  O36  1  0.02468358  0.82220700  0.40913579  1
  O  O37  1  0.82409185  0.99390790  0.41196717  1
  O  O38  1  0.17952768  0.19405076  0.40907376  1
  O  O39  1  0.01220581  0.17684724  0.91409677  1
  O  O40  1  0.17738577  0.97559099  0.91340538  1
  O  O41  1  0.80564320  0.81363519  0.91512328  1
  O  O42  1  0.98440683  0.16622523  0.58819356  1
  O  O43  1  0.20295581  0.02341899  0.58745185  1
  O  O44  1  0.84395804  0.81279214  0.58616605  1
  O  O45  1  0.98988198  0.80612486  0.08756473  1
  O  O46  1  0.83809534  0.01369265  0.08853030  1
  O  O47  1  0.20963231  0.17580655  0.08336447  1
  O  O48  1  0.67297674  0.16378917  0.74261716  1
  O  O49  1  0.46837134  0.31732075  0.74275667  1
  O  O50  1  0.82367692  0.51951258  0.74859941  1
  O  O51  1  0.67816381  0.52873816  0.24353528  1
  O  O52  1  0.83310508  0.31739867  0.24426354  1
  O  O53  1  0.47685990  0.17732965  0.24512769  1
  O  O54  1  0.64911051  0.50934743  0.92374458  1
  O  O55  1  0.85182974  0.35580591  0.91874537  1
  O  O56  1  0.48371805  0.13990839  0.92346477  1
  O  O57  1  0.64513650  0.15406155  0.41836948  1
  O  O58  1  0.48163491  0.34745179  0.41952630  1
  O  O59  1  0.86888374  0.51397637  0.42034495  1
  O  O60  1  0.34990208  0.48183948  0.08214552  1
  O  O61  1  0.12690770  0.63915697  0.08261340  1
  O  O62  1  0.48477038  0.84279809  0.07887361  1
  O  O63  1  0.35416350  0.87182139  0.58011889  1
  O  O64  1  0.51180904  0.66623588  0.58499682  1
  O  O65  1  0.14733830  0.51637523  0.57577828  1
  O  O66  1  0.33177392  0.84348605  0.25300071  1
  O  O67  1  0.52999039  0.68004370  0.25804357  1
  O  O68  1  0.17806347  0.48414818  0.25885744  1
  O  O69  1  0.31157358  0.46275033  0.75258199  1
  O  O70  1  0.15446635  0.66567191  0.74922102  1
  O  O71  1  0.52084506  0.81599762  0.75637894  1
loop_
_geom_bond_atom_site_label_1
_geom_bond_atom_site_label_2
_geom_bond_distance
_geom_bond_site_symmetry_2
Na0 O66 2.408023 1_545
Na0 O52 2.518711 1_555
Na0 O31 2.566798 1_545
Na0 O53 2.626026 1_555
Na0 O67 2.646719 1_545
Na0 O2 2.844499 1_555
Na0 O16 2.901452 1_555
Na1 O53 2.416713 1_555
Na1 O68 2.424680 1_555
Na1 O67 2.612270 1_555
Na1 O32 2.627828 1_555
Na1 O51 2.630640 1_555
Na1 O0 2.862610 1_555
Na1 O10 2.876149 1_555
Na1 O17 2.886193 1_555
Na2 O14 2.378097 1_555
Na2 O71 2.406893 1_555
Na2 O50 2.430691 1_555
Na2 O49 2.615614 1_555
Na2 O69 2.702475 1_555
Na2 O6 2.763962 1_555
Na3 O70 2.387355 1_655
Na3 O50 2.517277 1_555
Na3 O48 2.524291 1_555
Na3 O12 2.597458 1_555
Na3 O69 2.666220 1_655
Na4 O65 2.408777 1_555
Na4 O44 2.409044 1_455
Na4 O8 2.644137 1_555
Na4 O43 2.676234 1_565
Na4 O63 2.684252 1_555
Na4 O12 2.780939 1_455
Na4 O29 2.938347 1_555
Na5 O64 2.385419 1_555
Na5 O42 2.493498 1_565
Na5 O44 2.565322 1_555
Na5 O63 2.630617 1_555
Na5 O27 2.666226 1_555
Na5 O6 2.788188 1_555
Na6 O11 2.374276 1_555
Na6 O62 2.434648 1_555
Na6 O47 2.500788 1_565
Na6 O45 2.553743 1_455
Na6 O61 2.640307 1_555
Na6 O16 2.788704 1_565
Na6 O26 2.889424 1_554
Na7 O46 2.464332 1_455
Na7 O25 2.554522 1_554
Na7 O10 2.558102 1_555
Na7 O61 2.567629 1_555
Na7 O60 2.594372 1_555
Na7 O47 2.646662 1_555
Na7 O20 2.913925 1_455
Na8 O4 2.331559 1_555
Na8 O55 2.444649 1_555
Na8 O41 2.572128 1_555
Na8 O40 2.576699 1_655
Na8 O54 2.608809 1_555
Na8 O33 2.717528 1_655
Na8 O19 2.996239 1_556
Na9 O5 2.360278 1_555
Na9 O39 2.378659 1_655
Na9 O55 2.472353 1_555
Na9 O41 2.653132 1_545
Na9 O56 2.676506 1_555
Na9 O20 2.733865 1_556
Na9 O34 2.918595 1_545
Na10 O37 2.347519 1_545
Na10 O57 2.455096 1_555
Na10 O23 2.503906 1_555
Na10 O59 2.546467 1_555
Na10 O38 2.639143 1_655
Na10 O2 2.906313 1_555
Na10 O28 2.932600 1_655
Na11 O57 2.408710 1_555
Na11 O58 2.518545 1_555
Na11 O36 2.584253 1_545
Na11 O38 2.610953 1_555
Na11 O21 2.728834 1_555
Na11 O0 2.823614 1_555
Na11 O31 2.889853 1_545
Na11 O29 2.987188 1_545
Na12 O44 2.347299 1_555
Na12 O42 2.409141 1_565
Na12 O37 2.561544 1_555
Na12 O43 2.714484 1_665
Na12 O36 2.870350 1_655
Na12 O38 2.887651 1_665
Na13 O39 2.377640 1_655
Na13 O46 2.487301 1_556
Na13 O41 2.591036 1_545
Na13 O47 2.648889 1_656
Na13 O40 2.703171 1_645
Na13 O45 2.794200 1_546
Na14 O48 2.337120 1_555
Na14 O50 2.349106 1_555
Na14 O49 2.563771 1_555
Na14 O55 2.704658 1_555
Na14 O56 2.852443 1_555
Na14 O54 2.916411 1_555
Na15 O57 2.428799 1_555
Na15 O52 2.563008 1_555
Na15 O59 2.598505 1_555
Na15 O53 2.633861 1_555
Na15 O58 2.657219 1_555
Na15 O51 2.756150 1_555
Na16 O66 2.374743 1_555
Na16 O68 2.500735 1_555
Na16 O62 2.630182 1_555
Na16 O67 2.677125 1_555
Na16 O61 2.678504 1_555
Na16 O60 2.780084 1_555
Na17 O64 2.442809 1_555
Na17 O70 2.515512 1_555
Na17 O65 2.566344 1_555
Na17 O71 2.611724 1_555
Na17 O63 2.643273 1_555
Na17 O69 2.677213 1_555
In0 O5 2.063653 1_555
In0 O4 2.064474 1_545
In0 O3 2.143546 1_655
In0 O39 2.163659 1_655
In0 O41 2.424821 1_545
In0 O40 2.438768 1_645
In1 O10 2.067934 1_655
In1 O11 2.069543 1_645
In1 O46 2.124956 1_555
In1 O9 2.180978 1_545
In1 O45 2.336751 1_545
In1 O47 2.427239 1_655
In2 O20 2.063233 1_556
In2 O55 2.095674 1_555
In2 O18 2.196603 1_556
In2 O19 2.200548 1_556
In2 O56 2.236937 1_555
In2 O54 2.276519 1_555
In3 O25 2.047676 1_554
In3 O62 2.088239 1_555
In3 O24 2.145614 1_554
In3 O26 2.245490 1_554
In3 O60 2.286567 1_555
In3 O61 2.367631 1_555
In4 O27 2.057841 1_555
In4 O65 2.071923 1_555
In4 O64 2.076063 1_555
In4 O28 2.196372 1_555
In4 O63 2.332227 1_555
In4 O29 2.411805 1_555
In5 O71 2.047845 1_555
In5 O33 2.056055 1_555
In5 O70 2.074730 1_555
In5 O34 2.240049 1_555
In5 O69 2.272271 1_555
In5 O35 2.427438 1_555
O0 Si0 1.629247 1_545
O0 Sc0 2.044121 1_455
O1 S0 1.468883 1_555
O1 Sc0 2.162561 1_565
O2 Si1 1.645110 1_655
O2 Sc0 1.975490 1_555
O3 S1 1.492044 1_555
O4 Si2 1.666895 1_555
O5 Si3 1.663794 1_555
O6 Si3 1.635961 1_565
O6 Sc1 1.989527 1_555
O7 S1 1.468675 1_555
O7 Sc1 2.213626 1_445
O8 Si2 1.618080 1_455
O8 Sc1 2.014579 1_455
O9 S0 1.488174 1_555
O10 Si1 1.652454 1_555
O11 Si0 1.648583 1_555
O12 Si4 1.647977 1_555
O12 Sc2 1.989884 1_555
O13 S2 1.474002 1_555
O13 Sc2 2.200031 1_555
O14 Si5 1.626946 1_555
O14 Sc2 2.005080 1_555
O15 S3 1.471038 1_555
O15 Sc3 2.244941 1_555
O16 Si6 1.648836 1_555
O16 Sc3 1.991167 1_555
O17 S4 1.473960 1_555
O17 Sc3 2.284793 1_555
O18 S4 1.487190 1_555
O19 S3 1.493053 1_555
O20 Si6 1.651932 1_555
O21 S2 1.497571 1_555
O21 Sc4 2.160563 1_555
O22 Si5 1.642439 1_555
O22 Sc4 1.941962 1_555
O23 Si4 1.667105 1_555
O23 Sc4 1.968329 1_555
O24 S5 1.494281 1_555
O25 Si7 1.659571 1_555
O26 S6 1.503275 1_555
O27 Si8 1.631970 1_555
O28 S7 1.483278 1_555
O29 S8 1.482357 1_555
O30 S8 1.496452 1_555
O30 Sc5 2.095434 1_555
O31 Si8 1.656405 1_555
O31 Sc5 1.996762 1_555
O32 S7 1.484185 1_555
O32 Sc5 2.331191 1_555
O33 Si7 1.626292 1_555
O34 S6 1.485140 1_555
O35 S5 1.471115 1_555
O36 S8 1.484391 1_555
O36 Sc0 2.295031 1_465
O37 Si8 1.656479 1_555
O37 Sc0 2.065293 1_565
O38 S7 1.510226 1_555
O38 Sc0 2.211612 1_455
O39 Si7 1.645937 1_555
O40 S6 1.468965 1_555
O41 S5 1.496515 1_555
O42 Si4 1.627824 1_555
O42 Sc1 2.115929 1_545
O43 S2 1.470090 1_555
O43 Sc1 2.321658 1_445
O44 Si5 1.664055 1_555
O44 Sc1 2.072492 1_555
O45 S3 1.480318 1_555
O46 Si6 1.649609 1_555
O47 S4 1.501826 1_555
O48 Si3 1.624606 1_555
O48 Sc2 2.109806 1_555
O49 S1 1.466238 1_555
O49 Sc2 2.289817 1_555
O50 Si2 1.660090 1_555
O50 Sc2 2.111575 1_555
O51 S0 1.478490 1_555
O51 Sc3 2.272132 1_555
O52 Si1 1.648140 1_655
O52 Sc3 1.985970 1_555
O53 Si0 1.675392 1_545
O53 Sc3 2.017880 1_555
O54 S5 1.493486 1_555
O55 Si7 1.687464 1_655
O56 S6 1.493734 1_545
O57 Si8 1.673799 1_545
O57 Sc4 2.181545 1_555
O58 S7 1.476935 1_555
O58 Sc4 2.404599 1_555
O59 S8 1.486296 1_655
O59 Sc4 2.282307 1_555
O60 S4 1.492274 1_555
O61 S3 1.510254 1_455
O62 Si6 1.664028 1_565
O63 S2 1.502961 1_565
O64 Si5 1.645767 1_555
O65 Si4 1.649813 1_455
O66 Si0 1.647779 1_555
O66 Sc5 2.027453 1_555
O67 S0 1.497164 1_555
O67 Sc5 2.242695 1_555
O68 Si1 1.631647 1_555
O68 Sc5 2.057661 1_555
O69 S1 1.505949 1_555
O70 Si2 1.648260 1_455
O71 Si3 1.650624 1_565
