# generated using pymatgen
data_Na3Hf3AlSi3(SO8)3
_symmetry_space_group_name_H-M   'P 1'
_cell_length_a   8.86738145
_cell_length_b   8.92157532
_cell_length_c   22.85502142
_cell_angle_alpha   90.14888532
_cell_angle_beta   89.98116108
_cell_angle_gamma   120.02054551
_symmetry_Int_Tables_number   1
_chemical_formula_structural   Na3Hf3AlSi3(SO8)3
_chemical_formula_sum   'Na9 Hf9 Al3 Si9 S9 O72'
_cell_volume   1565.51600825
_cell_formula_units_Z   3
loop_
 _symmetry_equiv_pos_site_id
 _symmetry_equiv_pos_as_xyz
  1  'x, y, z'
loop_
 _atom_site_type_symbol
 _atom_site_label
 _atom_site_symmetry_multiplicity
 _atom_site_fract_x
 _atom_site_fract_y
 _atom_site_fract_z
 _atom_site_occupancy
  Na  Na0  1  0.35524719  0.35951150  0.24231585  1
  Na  Na1  1  0.64310392  0.62968152  0.75292428  1
  Na  Na2  1  0.97295872  0.29622666  0.41664999  1
  Na  Na3  1  0.99320185  0.00545962  0.49490334  1
  Na  Na4  1  0.99656193  0.98137920  0.00312693  1
  Na  Na5  1  0.66301572  0.33957250  0.82963274  1
  Na  Na6  1  0.66343863  0.31715107  0.32778978  1
  Na  Na7  1  0.29982106  0.65259187  0.16478573  1
  Na  Na8  1  0.29278503  0.64501200  0.66632243  1
  Hf  Hf0  1  0.00701024  0.99181201  0.85019686  1
  Hf  Hf1  1  0.01234560  0.01451575  0.64573412  1
  Hf  Hf2  1  0.00845729  0.00924927  0.14514375  1
  Hf  Hf3  1  0.66572996  0.35322982  0.98103552  1
  Hf  Hf4  1  0.66213090  0.32040305  0.47815085  1
  Hf  Hf5  1  0.34249980  0.65793865  0.02697172  1
  Hf  Hf6  1  0.33013770  0.65109348  0.51852525  1
  Hf  Hf7  1  0.33649739  0.66500230  0.31369738  1
  Hf  Hf8  1  0.32836537  0.65460354  0.81099928  1
  Al  Al0  1  0.98824427  0.02561698  0.35245929  1
  Al  Al1  1  0.68460151  0.34770674  0.68903598  1
  Al  Al2  1  0.69605550  0.34518330  0.17947016  1
  Si  Si0  1  0.98061453  0.29006763  0.25048817  1
  Si  Si1  1  0.30779998  0.28923075  0.74768383  1
  Si  Si2  1  0.99848052  0.70272525  0.74549842  1
  Si  Si3  1  0.95008576  0.33609117  0.58638502  1
  Si  Si4  1  0.95808027  0.62645198  0.08555975  1
  Si  Si5  1  0.39284106  0.33496332  0.09169109  1
  Si  Si6  1  0.63209405  0.67475934  0.91524776  1
  Si  Si7  1  0.62901181  0.95054406  0.41599810  1
  Si  Si8  1  0.32853396  0.36274715  0.41246843  1
  S  S0  1  0.28239710  -0.00042559  0.25329797  1
  S  S1  1  0.71896978  0.71401947  0.25307277  1
  S  S2  1  0.71107998  0.00896520  0.74941757  1
  S  S3  1  0.38212835  0.04448924  0.58593235  1
  S  S4  1  0.66598365  0.61885048  0.58566578  1
  S  S5  1  0.66649014  0.05184553  0.08418010  1
  S  S6  1  0.04236146  0.37232948  0.91765636  1
  S  S7  1  0.33737758  0.95456167  0.91740343  1
  S  S8  1  0.04403890  0.67615461  0.41626453  1
  O  O0  1  0.18794462  0.01690098  0.30391352  1
  O  O1  1  0.82421814  0.80382881  0.30518431  1
  O  O2  1  0.96333219  0.18198575  0.31057852  1
  O  O3  1  0.21164825  0.17547744  0.80595110  1
  O  O4  1  0.95883310  0.79220025  0.80300103  1
  O  O5  1  0.81935750  0.03482011  0.80230206  1
  O  O6  1  0.78839034  0.97234007  0.69763530  1
  O  O7  1  0.17611036  0.20671163  0.69229583  1
  O  O8  1  0.01827938  0.82464787  0.69029533  1
  O  O9  1  0.79681567  0.81229451  0.19907177  1
  O  O10  1  0.02629756  0.19555894  0.19729221  1
  O  O11  1  0.18181938  0.97336663  0.19812599  1
  O  O12  1  0.84183360  0.34914854  0.64117899  1
  O  O13  1  0.48300452  0.13151336  0.63792050  1
  O  O14  1  0.64286523  0.51932921  0.63968783  1
  O  O15  1  0.87293250  0.50473297  0.14165542  1
  O  O16  1  0.64250123  0.13396624  0.13675529  1
  O  O17  1  0.50496156  0.34873430  0.15020584  1
  O  O18  1  0.47228923  0.30710432  0.03080022  1
  O  O19  1  0.84699435  0.53582604  0.02566392  1
  O  O20  1  0.69209318  0.15023673  0.03012037  1
  O  O21  1  0.46064375  0.14756979  0.53151344  1
  O  O22  1  0.68276136  0.53206463  0.53299980  1
  O  O23  1  0.85039722  0.32081671  0.52407402  1
  O  O24  1  0.52647707  0.68856982  0.97136710  1
  O  O25  1  0.14625803  0.45987922  0.97017394  1
  O  O26  1  0.31140636  0.85097335  0.97001623  1
  O  O27  1  0.52983243  0.83660960  0.47399931  1
  O  O28  1  0.28442292  0.45396778  0.46860238  1
  O  O29  1  0.15030654  0.70049810  0.46953283  1
  O  O30  1  0.12215696  0.63619692  0.36493134  1
  O  O31  1  0.50242396  0.86614956  0.35965992  1
  O  O32  1  0.35623346  0.48397171  0.35519891  1
  O  O33  1  0.12319167  0.48087747  0.86443914  1
  O  O34  1  0.34893184  0.86667381  0.86392509  1
  O  O35  1  0.52190045  0.65614842  0.85539164  1
  O  O36  1  0.02573285  0.82734373  0.40714080  1
  O  O37  1  0.82125690  0.97145474  0.40815415  1
  O  O38  1  0.15563206  0.17339011  0.40426833  1
  O  O39  1  0.03377934  0.20405558  0.91117193  1
  O  O40  1  0.18224831  0.97860942  0.91203901  1
  O  O41  1  0.82476421  0.84910727  0.91188847  1
  O  O42  1  0.96918833  0.16103188  0.58905678  1
  O  O43  1  0.20316161  0.02372252  0.58728089  1
  O  O44  1  0.82055663  0.79475079  0.58831113  1
  O  O45  1  0.96757390  0.81333801  0.09128056  1
  O  O46  1  0.81909574  0.02669701  0.09072061  1
  O  O47  1  0.19354165  0.16978205  0.09291455  1
  O  O48  1  0.68880840  0.15952792  0.74243800  1
  O  O49  1  0.49918493  0.31308156  0.73600178  1
  O  O50  1  0.82491479  0.51287735  0.74131565  1
  O  O51  1  0.69010287  0.53591039  0.25000907  1
  O  O52  1  0.80556858  0.30371020  0.23921841  1
  O  O53  1  0.45453175  0.15810062  0.24919611  1
  O  O54  1  0.64699551  0.49775006  0.91839831  1
  O  O55  1  0.86448201  0.34606959  0.92149346  1
  O  O56  1  0.49746878  0.12671337  0.92058307  1
  O  O57  1  0.66302810  0.15101201  0.42227736  1
  O  O58  1  0.50471315  0.35590250  0.42335208  1
  O  O59  1  0.87014159  0.51542664  0.42321222  1
  O  O60  1  0.37377204  0.50966560  0.08412761  1
  O  O61  1  0.15389159  0.65421308  0.07602361  1
  O  O62  1  0.50787732  0.87720791  0.07968854  1
  O  O63  1  0.36382071  0.87107459  0.57963100  1
  O  O64  1  0.50655156  0.63609482  0.57993955  1
  O  O65  1  0.14592358  0.51071010  0.58074083  1
  O  O66  1  0.30387547  0.84515487  0.25741000  1
  O  O67  1  0.53797047  0.69473199  0.25570915  1
  O  O68  1  0.16232487  0.48328678  0.25517416  1
  O  O69  1  0.33460473  0.48693096  0.75522318  1
  O  O70  1  0.17334920  0.69057874  0.75547217  1
  O  O71  1  0.53715509  0.84934907  0.75656136  1
loop_
_geom_bond_atom_site_label_1
_geom_bond_atom_site_label_2
_geom_bond_distance
_geom_bond_site_symmetry_2
Na0 O53 2.369220 1_555
Na0 O68 2.473979 1_555
Na0 O17 2.515611 1_555
Na0 O51 2.578252 1_555
Na0 O67 2.609609 1_555
Na0 O10 2.726118 1_555
Na0 O32 2.804380 1_555
Na1 O50 2.331268 1_555
Na1 O69 2.371134 1_555
Na1 O49 2.478743 1_555
Na1 O71 2.563538 1_555
Na1 O35 2.635286 1_555
Na1 O4 2.679937 1_555
Na1 O14 2.766190 1_555
Na1 O6 2.946220 1_555
Na2 O38 2.383126 1_655
Na2 O57 2.384511 1_555
Na2 O37 2.517892 1_545
Na2 O59 2.541769 1_555
Na2 O2 2.612159 1_555
Na2 O28 2.668813 1_655
Na2 O23 2.737002 1_555
Na2 O30 2.889533 1_655
Na3 O37 2.425631 1_545
Na3 O38 2.542647 1_655
Na3 O42 2.623401 1_555
Na3 O36 2.659585 1_645
Na3 O44 2.752109 1_545
Na3 O43 2.765435 1_655
Na4 O45 2.450027 1_555
Na4 O41 2.500414 1_554
Na4 O40 2.661559 1_654
Na4 O47 2.670951 1_665
Na4 O46 2.697787 1_565
Na4 O39 2.799582 1_664
Na5 O54 2.512559 1_555
Na5 O50 2.513790 1_555
Na5 O49 2.530125 1_555
Na5 O48 2.637143 1_555
Na5 O56 2.703924 1_555
Na5 O55 2.738776 1_555
Na6 O52 2.418442 1_555
Na6 O53 2.455679 1_555
Na6 O51 2.565367 1_555
Na6 O57 2.621399 1_555
Na6 O58 2.711398 1_555
Na6 O59 2.825456 1_555
Na7 O61 2.410549 1_555
Na7 O68 2.491485 1_555
Na7 O60 2.505577 1_555
Na7 O66 2.711722 1_555
Na7 O62 2.742370 1_555
Na7 O67 2.850193 1_555
Na8 O65 2.320678 1_555
Na8 O70 2.421466 1_555
Na8 O69 2.606451 1_555
Na8 O63 2.671860 1_555
Na8 O64 2.764931 1_555
Na8 O71 2.881508 1_555
Hf0 O4 1.935589 1_455
Hf0 O3 2.008115 1_565
Hf0 O41 2.041959 1_455
Hf0 O40 2.147476 1_555
Hf0 O5 2.180954 1_465
Hf0 O39 2.262896 1_565
Hf1 O7 1.918691 1_555
Hf1 O8 2.001888 1_545
Hf1 O42 2.010657 1_455
Hf1 O43 2.124739 1_555
Hf1 O6 2.178419 1_445
Hf1 O44 2.260626 1_445
Hf2 O47 1.955836 1_555
Hf2 O10 1.983705 1_555
Hf2 O45 2.014177 1_445
Hf2 O11 2.104198 1_545
Hf2 O46 2.157500 1_455
Hf2 O9 2.199716 1_445
Hf3 O19 1.910519 1_556
Hf3 O18 1.923564 1_556
Hf3 O54 1.990854 1_555
Hf3 O20 2.242167 1_556
Hf3 O55 2.252258 1_555
Hf3 O56 2.277898 1_555
Hf4 O23 1.970681 1_555
Hf4 O57 1.979038 1_555
Hf4 O58 2.015675 1_555
Hf4 O21 2.075785 1_555
Hf4 O59 2.191954 1_555
Hf4 O22 2.193850 1_555
Hf5 O24 1.976239 1_554
Hf5 O60 1.977236 1_555
Hf5 O61 1.999598 1_555
Hf5 O62 2.132460 1_555
Hf5 O25 2.179066 1_554
Hf5 O26 2.285473 1_554
Hf6 O28 1.958475 1_555
Hf6 O27 1.996376 1_555
Hf6 O65 2.054125 1_555
Hf6 O64 2.155706 1_555
Hf6 O29 2.167473 1_555
Hf6 O63 2.300179 1_555
Hf7 O32 1.956959 1_555
Hf7 O31 1.959063 1_555
Hf7 O68 2.070583 1_555
Hf7 O67 2.131823 1_555
Hf7 O30 2.135639 1_555
Hf7 O66 2.190451 1_555
Hf8 O69 1.984608 1_555
Hf8 O35 1.988002 1_555
Hf8 O70 2.011907 1_555
Hf8 O33 2.095424 1_555
Hf8 O34 2.172349 1_555
Hf8 O71 2.187560 1_555
Al0 O2 1.796282 1_555
Al0 O37 1.825481 1_545
Al0 O38 1.838012 1_655
Al0 O1 2.075654 1_545
Al0 O0 2.123421 1_655
Al0 O36 2.324129 1_645
Al1 O12 1.766784 1_555
Al1 O50 1.817807 1_555
Al1 O49 1.855595 1_555
Al1 O14 2.080789 1_555
Al1 O48 2.093540 1_555
Al1 O13 2.195498 1_555
Al2 O15 1.733392 1_555
Al2 O52 1.818703 1_555
Al2 O17 1.836915 1_555
Al2 O16 1.955715 1_555
Al2 O51 2.360684 1_555
Al2 O53 2.519299 1_555
O0 S0 1.480403 1_555
O1 S1 1.476153 1_555
O2 Si0 1.642650 1_555
O3 Si1 1.634249 1_555
O4 Si2 1.662246 1_555
O5 S2 1.487842 1_555
O6 S2 1.482892 1_565
O7 Si1 1.626039 1_555
O8 Si2 1.619170 1_455
O9 S1 1.472386 1_555
O10 Si0 1.639909 1_455
O11 S0 1.493534 1_565
O12 Si3 1.616677 1_555
O13 S3 1.454548 1_555
O14 S4 1.475870 1_555
O15 Si4 1.605985 1_555
O16 S5 1.475493 1_555
O17 Si5 1.633975 1_555
O18 Si5 1.633273 1_555
O19 Si4 1.642003 1_555
O20 S5 1.467880 1_555
O21 S3 1.497355 1_555
O22 S4 1.476744 1_555
O23 Si3 1.645413 1_555
O24 Si6 1.628262 1_555
O25 S6 1.474912 1_555
O26 S7 1.464815 1_555
O27 Si7 1.635747 1_555
O28 Si8 1.665543 1_555
O29 S8 1.487248 1_555
O30 S8 1.492565 1_555
O31 Si7 1.623292 1_555
O32 Si8 1.638459 1_555
O33 S6 1.497300 1_555
O34 S7 1.481392 1_555
O35 Si6 1.640477 1_555
O36 S8 1.452511 1_555
O37 Si7 1.629335 1_555
O38 Si8 1.626825 1_555
O39 S6 1.471766 1_555
O40 S7 1.499622 1_555
O41 Si6 1.638799 1_555
O42 Si3 1.654351 1_555
O43 S3 1.503174 1_555
O44 S4 1.480651 1_555
O45 Si4 1.631734 1_555
O46 S5 1.485926 1_555
O47 Si5 1.640096 1_555
O48 S2 1.461289 1_555
O49 Si1 1.623364 1_555
O50 Si2 1.624036 1_555
O51 S1 1.479130 1_555
O52 Si0 1.637054 1_555
O53 S0 1.476271 1_555
O54 Si6 1.651036 1_555
O55 S6 1.476747 1_655
O56 S7 1.482306 1_545
O57 Si7 1.664080 1_545
O58 Si8 1.613076 1_555
O59 S8 1.499236 1_655
O60 Si5 1.659187 1_555
O61 Si4 1.641164 1_455
O62 S5 1.490895 1_565
O63 S3 1.479274 1_565
O64 S4 1.502442 1_555
O65 Si3 1.659261 1_455
O66 S0 1.485363 1_565
O67 S1 1.527375 1_555
O68 Si0 1.673064 1_455
O69 Si1 1.666170 1_555
O70 Si2 1.623776 1_455
O71 S2 1.495504 1_565
