# generated using pymatgen
data_K2CoPb(NO2)6
_symmetry_space_group_name_H-M   'P 1'
_cell_length_a   7.47913206
_cell_length_b   7.47913206
_cell_length_c   7.47913206
_cell_angle_alpha   60.00000000
_cell_angle_beta   60.00000000
_cell_angle_gamma   60.00000000
_symmetry_Int_Tables_number   1
_chemical_formula_structural   K2CoPb(NO2)6
_chemical_formula_sum   'K2 Co1 Pb1 N6 O12'
_cell_volume   295.82754400
_cell_formula_units_Z   1
loop_
 _symmetry_equiv_pos_site_id
 _symmetry_equiv_pos_as_xyz
  1  'x, y, z'
loop_
 _atom_site_type_symbol
 _atom_site_label
 _atom_site_symmetry_multiplicity
 _atom_site_fract_x
 _atom_site_fract_y
 _atom_site_fract_z
 _atom_site_occupancy
  K  K0  1  0.25000000  0.25000000  0.25000000  1
  K  K1  1  0.75000000  0.75000000  0.75000000  1
  Co  Co0  1  0.00000000  0.00000000  0.00000000  1
  Pb  Pb0  1  0.50000000  0.50000000  0.50000000  1
  N  N0  1  0.80915700  0.80915700  0.19084300  1
  N  N1  1  0.80915700  0.19084300  0.80915700  1
  N  N2  1  0.19084300  0.80915700  0.80915700  1
  N  N3  1  0.80915700  0.19084300  0.19084300  1
  N  N4  1  0.19084300  0.80915700  0.19084300  1
  N  N5  1  0.19084300  0.19084300  0.80915700  1
  O  O0  1  0.64533500  0.35466500  0.15072600  1
  O  O1  1  0.64533500  0.15072600  0.84927400  1
  O  O2  1  0.15072600  0.64533500  0.35466500  1
  O  O3  1  0.84927400  0.35466500  0.64533500  1
  O  O4  1  0.35466500  0.84927400  0.15072600  1
  O  O5  1  0.15072600  0.35466500  0.84927400  1
  O  O6  1  0.84927400  0.15072600  0.35466500  1
  O  O7  1  0.15072600  0.84927400  0.64533500  1
  O  O8  1  0.64533500  0.84927400  0.35466500  1
  O  O9  1  0.35466500  0.15072600  0.64533500  1
  O  O10  1  0.35466500  0.64533500  0.84927400  1
  O  O11  1  0.84927400  0.64533500  0.15072600  1
loop_
_geom_bond_atom_site_label_1
_geom_bond_atom_site_label_2
_geom_bond_distance
_geom_bond_site_symmetry_2
K0 O11 3.073192 1_455
K0 O3 3.073192 1_455
K0 O1 3.073192 1_554
K0 O2 3.073192 1_555
K0 O5 3.073192 1_554
K0 O7 3.073192 1_545
K0 O6 3.073192 1_455
K0 O4 3.073192 1_545
K0 O9 3.073192 1_555
K0 O8 3.073192 1_545
K0 O10 3.073192 1_554
K0 O0 3.073192 1_555
K1 O7 3.073192 1_655
K1 O1 3.073192 1_565
K1 O11 3.073192 1_556
K1 O6 3.073192 1_565
K1 O4 3.073192 1_556
K1 O5 3.073192 1_655
K1 O2 3.073192 1_655
K1 O0 3.073192 1_556
K1 O8 3.073192 1_555
K1 O9 3.073192 1_565
K1 O3 3.073192 1_555
K1 O10 3.073192 1_555
Co0 N0 2.018564 1_445
Co0 N5 2.018564 1_554
Co0 N1 2.018564 1_454
Co0 N3 2.018564 1_455
Co0 N4 2.018564 1_545
Co0 N2 2.018564 1_544
N0 O8 1.261449 1_555
N0 O11 1.261449 1_555
N1 O3 1.261449 1_555
N1 O1 1.261449 1_555
N2 O10 1.261449 1_555
N2 O7 1.261449 1_555
N3 O6 1.261449 1_555
N3 O0 1.261449 1_555
N4 O4 1.261449 1_555
N4 O2 1.261449 1_555
N5 O5 1.261449 1_555
N5 O9 1.261449 1_555
O0 Pb0 2.829392 1_555
O1 Pb0 2.829392 1_555
O2 Pb0 2.829392 1_555
O3 Pb0 2.829392 1_555
O4 Pb0 2.829392 1_555
O5 Pb0 2.829392 1_555
O6 Pb0 2.829392 1_555
O7 Pb0 2.829392 1_555
O8 Pb0 2.829392 1_555
O9 Pb0 2.829392 1_555
O10 Pb0 2.829392 1_555
O11 Pb0 2.829392 1_555
