# generated using pymatgen
data_V2ZnO6
_symmetry_space_group_name_H-M   'P 1'
_cell_length_a   4.89166404
_cell_length_b   5.32271692
_cell_length_c   8.05108753
_cell_angle_alpha   89.97558069
_cell_angle_beta   88.95917145
_cell_angle_gamma   89.32264578
_symmetry_Int_Tables_number   1
_chemical_formula_structural   V2ZnO6
_chemical_formula_sum   'V4 Zn2 O12'
_cell_volume   209.57646846
_cell_formula_units_Z   2
loop_
 _symmetry_equiv_pos_site_id
 _symmetry_equiv_pos_as_xyz
  1  'x, y, z'
loop_
 _atom_site_type_symbol
 _atom_site_label
 _atom_site_symmetry_multiplicity
 _atom_site_fract_x
 _atom_site_fract_y
 _atom_site_fract_z
 _atom_site_occupancy
  V  V0  1  0.53115657  0.00499546  0.99085654  1
  V  V1  1  0.98691389  0.50306942  0.94645091  1
  V  V2  1  0.03135770  0.50479342  0.49098964  1
  V  V3  1  0.48725792  0.00362913  0.44639917  1
  Zn  Zn0  1  0.57358851  0.50074804  0.24870350  1
  Zn  Zn1  1  0.07352599  0.00254851  0.74866152  1
  O  O0  1  0.71982171  0.25833015  0.43646425  1
  O  O1  1  0.22188774  0.23229973  0.56874261  1
  O  O2  1  0.71990246  0.72993433  0.06838890  1
  O  O3  1  0.21912846  0.75636836  0.93715183  1
  O  O4  1  0.22162380  0.76542380  0.56894776  1
  O  O5  1  0.71899922  0.73774088  0.43964718  1
  O  O6  1  0.21942901  0.23557076  0.93898246  1
  O  O7  1  0.72343127  0.26294119  0.06913975  1
  O  O8  1  0.17036851  0.50051527  0.29625637  1
  O  O9  1  0.67050304  0.00070540  0.79617857  1
  O  O10  1  0.36668388  0.00069366  0.25398395  1
  O  O11  1  0.86659930  0.49975249  0.75394610  1
loop_
_geom_bond_atom_site_label_1
_geom_bond_atom_site_label_2
_geom_bond_distance
_geom_bond_site_symmetry_2
O0 V3 1.780893 1_555
O0 V2 2.075595 1_655
O0 Zn0 2.116031 1_555
O1 V2 1.831025 1_555
O1 V3 2.013443 1_555
O1 Zn1 2.025275 1_555
O2 V0 1.836792 1_564
O2 V1 2.011233 1_554
O2 Zn0 2.022201 1_555
O3 V1 1.773891 1_455
O3 V0 2.083313 1_565
O3 Zn1 2.131376 1_565
O4 V2 1.799212 1_555
O4 Zn1 2.037937 1_565
O4 V3 2.064165 1_565
O5 V3 1.803005 1_565
O5 V2 2.005146 1_655
O5 Zn0 2.126756 1_555
O6 V1 1.812132 1_455
O6 V0 1.996078 1_555
O6 Zn1 2.111385 1_555
O7 V0 1.794356 1_554
O7 Zn0 2.042200 1_555
O7 V1 2.064494 1_554
O8 V2 1.697612 1_555
O8 Zn0 2.002406 1_555
O9 V0 1.697835 1_555
O9 Zn1 2.001532 1_655
O10 V3 1.667759 1_555
O10 V0 2.252592 1_554
O11 V1 1.667994 1_555
O11 V2 2.251841 1_655
