# generated using pymatgen
data_LiLa2HO3
_symmetry_space_group_name_H-M   'P 1'
_cell_length_a   3.58169600
_cell_length_b   3.79839400
_cell_length_c   6.97237655
_cell_angle_alpha   105.80646155
_cell_angle_beta   104.88317523
_cell_angle_gamma   90.00000000
_symmetry_Int_Tables_number   1
_chemical_formula_structural   LiLa2HO3
_chemical_formula_sum   'Li1 La2 H1 O3'
_cell_volume   87.95825579
_cell_formula_units_Z   1
loop_
 _symmetry_equiv_pos_site_id
 _symmetry_equiv_pos_as_xyz
  1  'x, y, z'
loop_
 _atom_site_type_symbol
 _atom_site_label
 _atom_site_symmetry_multiplicity
 _atom_site_fract_x
 _atom_site_fract_y
 _atom_site_fract_z
 _atom_site_occupancy
  Li  Li0  1  0.00000000  0.00000000  0.00000000  1
  La  La0  1  0.36344600  0.36344600  0.72689200  1
  La  La1  1  0.63655400  0.63655400  0.27310800  1
  H  H0  1  0.50000000  0.00000000  0.00000000  1
  O  O0  1  0.00000000  0.50000000  0.00000000  1
  O  O1  1  0.82277400  0.82277400  0.64554800  1
  O  O2  1  0.17722600  0.17722600  0.35445200  1
loop_
_geom_bond_atom_site_label_1
_geom_bond_atom_site_label_2
_geom_bond_distance
_geom_bond_site_symmetry_2
Li0 O0 1.899197 1_545
Li0 O0 1.899197 1_555
Li0 O1 2.291634 1_444
Li0 O2 2.291634 1_555
La0 O2 2.407932 1_555
La0 O0 2.514937 1_556
La0 O0 2.514937 1_656
La0 O1 2.662831 1_555
La0 O1 2.662831 1_445
La0 O1 2.662831 1_545
La0 O1 2.662831 1_455
La1 O1 2.407932 1_555
La1 O0 2.514937 1_555
La1 O0 2.514937 1_655
La1 O2 2.662831 1_555
La1 O2 2.662831 1_655
La1 O2 2.662831 1_565
La1 O2 2.662831 1_665
H0 Li0 1.790848 1_555
H0 Li0 1.790848 1_655
H0 La1 2.593207 1_555
H0 La1 2.593207 1_545
H0 La0 2.593207 1_554
H0 La0 2.593207 1_544
