# generated using pymatgen
data_ZnFeSb
_symmetry_space_group_name_H-M   'P 1'
_cell_length_a   4.39831166
_cell_length_b   4.39831166
_cell_length_c   4.39831166
_cell_angle_alpha   60.00000000
_cell_angle_beta   60.00000000
_cell_angle_gamma   60.00000000
_symmetry_Int_Tables_number   1
_chemical_formula_structural   ZnFeSb
_chemical_formula_sum   'Zn1 Fe1 Sb1'
_cell_volume   60.16487259
_cell_formula_units_Z   1
loop_
 _symmetry_equiv_pos_site_id
 _symmetry_equiv_pos_as_xyz
  1  'x, y, z'
loop_
 _atom_site_type_symbol
 _atom_site_label
 _atom_site_symmetry_multiplicity
 _atom_site_fract_x
 _atom_site_fract_y
 _atom_site_fract_z
 _atom_site_occupancy
  Zn  Zn0  1  0.75000000  0.75000000  0.75000000  1
  Fe  Fe0  1  0.25000000  0.25000000  0.25000000  1
  Sb  Sb0  1  0.00000000  0.00000000  0.00000000  1
loop_
_geom_bond_atom_site_label_1
_geom_bond_atom_site_label_2
_geom_bond_distance
_geom_bond_site_symmetry_2
Fe0 Sb0 2.693405 1_555
Fe0 Sb0 2.693405 1_556
Fe0 Sb0 2.693405 1_565
Fe0 Sb0 2.693405 1_655
Fe0 Zn0 3.110076 1_544
Fe0 Zn0 3.110076 1_545
Fe0 Zn0 3.110076 1_454
Fe0 Zn0 3.110076 1_455
Fe0 Zn0 3.110076 1_554
Fe0 Zn0 3.110076 1_445
Sb0 Zn0 2.693405 1_445
Sb0 Zn0 2.693405 1_454
Sb0 Zn0 2.693405 1_444
Sb0 Zn0 2.693405 1_544
