# generated using pymatgen
data_Na6ZnSi2Sn3(PO6)4
_symmetry_space_group_name_H-M   'P 1'
_cell_length_a   9.01857548
_cell_length_b   9.01620116
_cell_length_c   22.32452028
_cell_angle_alpha   90.23413802
_cell_angle_beta   89.85940365
_cell_angle_gamma   119.98052693
_symmetry_Int_Tables_number   1
_chemical_formula_structural   Na6ZnSi2Sn3(PO6)4
_chemical_formula_sum   'Na18 Zn3 Si6 Sn9 P12 O72'
_cell_volume   1572.37385522
_cell_formula_units_Z   3
loop_
 _symmetry_equiv_pos_site_id
 _symmetry_equiv_pos_as_xyz
  1  'x, y, z'
loop_
 _atom_site_type_symbol
 _atom_site_label
 _atom_site_symmetry_multiplicity
 _atom_site_fract_x
 _atom_site_fract_y
 _atom_site_fract_z
 _atom_site_occupancy
  Na  Na0  1  0.00171854  0.99527520  0.49930213  1
  Na  Na1  1  0.00061903  0.99675082  0.99779911  1
  Na  Na2  1  0.65233292  0.30612618  0.83141433  1
  Na  Na3  1  0.65200163  0.33182623  0.32301125  1
  Na  Na4  1  0.32867501  0.66728621  0.16337298  1
  Na  Na5  1  0.32662412  0.66603698  0.66539966  1
  Na  Na6  1  0.64049897  0.01490206  0.24397221  1
  Na  Na7  1  0.98678276  0.62399589  0.24029387  1
  Na  Na8  1  0.63311991  0.61648650  0.74357364  1
  Na  Na9  1  0.98810965  0.36654680  0.74726774  1
  Na  Na10  1  0.66602733  0.97012337  0.58651043  1
  Na  Na11  1  0.66691018  0.68908754  0.07939737  1
  Na  Na12  1  0.02525021  0.33738770  0.08359178  1
  Na  Na13  1  0.96860088  0.66838181  0.91964596  1
  Na  Na14  1  0.33518396  0.30364027  0.91778661  1
  Na  Na15  1  0.96425781  0.28275795  0.41198336  1
  Na  Na16  1  0.32573233  0.03182287  0.41051621  1
  Na  Na17  1  0.71505958  0.68505418  0.41632503  1
  Zn  Zn0  1  0.99606962  0.99948019  0.34764597  1
  Zn  Zn1  1  0.65575426  0.33110328  0.68000217  1
  Zn  Zn2  1  0.66448504  0.33702388  0.17834165  1
  Si  Si0  1  0.66801077  0.63028263  0.58642272  1
  Si  Si1  1  0.96546827  0.63067974  0.08606016  1
  Si  Si2  1  0.62549060  0.66723077  0.91676791  1
  Si  Si3  1  0.03915815  0.37343408  0.91619866  1
  Si  Si4  1  0.33635101  0.96312385  0.91553751  1
  Si  Si5  1  0.62873643  0.96497906  0.41792780  1
  Sn  Sn0  1  0.99651191  0.00019772  0.85380073  1
  Sn  Sn1  1  0.00428472  0.99639467  0.64663345  1
  Sn  Sn2  1  0.00795251  0.00170254  0.15025119  1
  Sn  Sn3  1  0.66746107  0.33241976  0.98148885  1
  Sn  Sn4  1  0.66686542  0.33512994  0.48637900  1
  Sn  Sn5  1  0.33184386  0.67345055  0.01659452  1
  Sn  Sn6  1  0.33625673  0.66341010  0.52127387  1
  Sn  Sn7  1  0.33674629  0.66773598  0.31492229  1
  Sn  Sn8  1  0.33579078  0.67380914  0.81612017  1
  P  P0  1  0.29575751  0.99898429  0.25464482  1
  P  P1  1  0.70252472  0.70377441  0.25197318  1
  P  P2  1  0.00459863  0.29817813  0.25269380  1
  P  P3  1  0.29090945  0.29281664  0.75118797  1
  P  P4  1  0.00587060  0.70757882  0.75091281  1
  P  P5  1  0.70466065  0.99837657  0.74828660  1
  P  P6  1  0.96456074  0.33423829  0.58599848  1
  P  P7  1  0.37085559  0.03842039  0.58282908  1
  P  P8  1  0.66639280  0.03805301  0.08763685  1
  P  P9  1  0.37081589  0.33354310  0.08359784  1
  P  P10  1  0.33658838  0.37527812  0.41728425  1
  P  P11  1  0.04112095  0.66087470  0.41746491  1
  O  O0  1  0.21435603  0.01461342  0.31289239  1
  O  O1  1  0.80625950  0.78435825  0.30933326  1
  O  O2  1  0.98708426  0.19493571  0.30902242  1
  O  O3  1  0.20640455  0.19187487  0.80919955  1
  O  O4  1  0.98056704  0.79204532  0.80798157  1
  O  O5  1  0.82274340  0.02687750  0.80275492  1
  O  O6  1  0.78565391  0.96636922  0.69062639  1
  O  O7  1  0.16955856  0.20575451  0.69656300  1
  O  O8  1  0.03330801  0.82085889  0.69528713  1
  O  O9  1  0.78668205  0.82272737  0.19577444  1
  O  O10  1  0.02827966  0.21530806  0.19401678  1
  O  O11  1  0.17509536  0.96330332  0.19953080  1
  O  O12  1  0.88294928  0.35530310  0.64209805  1
  O  O13  1  0.49341621  0.12023912  0.63433818  1
  O  O14  1  0.64436489  0.52474652  0.64594981  1
  O  O15  1  0.88767432  0.51548553  0.14528201  1
  O  O16  1  0.64066194  0.11104309  0.14597081  1
  O  O17  1  0.48349882  0.36152831  0.13787715  1
  O  O18  1  0.44257033  0.30296478  0.02463189  1
  O  O19  1  0.84147165  0.54684760  0.02656243  1
  O  O20  1  0.69819576  0.15440177  0.03275853  1
  O  O21  1  0.44294078  0.13677409  0.52201141  1
  O  O22  1  0.69446472  0.54958632  0.52282277  1
  O  O23  1  0.85121915  0.29726789  0.52760703  1
  O  O24  1  0.54508574  0.69864734  0.97786840  1
  O  O25  1  0.16116798  0.45287564  0.97548710  1
  O  O26  1  0.28306530  0.83487052  0.97264991  1
  O  O27  1  0.54029212  0.84230657  0.47593190  1
  O  O28  1  0.29650779  0.45434006  0.47197651  1
  O  O29  1  0.15869619  0.68877582  0.47102945  1
  O  O30  1  0.11434354  0.62205726  0.35939400  1
  O  O31  1  0.50374172  0.88518151  0.35827401  1
  O  O32  1  0.37503981  0.49300965  0.36155979  1
  O  O33  1  0.11820221  0.49306890  0.85617132  1
  O  O34  1  0.37695627  0.88745870  0.85568772  1
  O  O35  1  0.50627611  0.62590884  0.85682816  1
  O  O36  1  0.02245917  0.82025486  0.41359937  1
  O  O37  1  0.81777191  0.98572083  0.41325679  1
  O  O38  1  0.18217575  0.19452965  0.41151639  1
  O  O39  1  0.02823553  0.18801241  0.91151673  1
  O  O40  1  0.16431462  0.98177164  0.91030771  1
  O  O41  1  0.81980121  0.82980158  0.91189435  1
  O  O42  1  0.98320252  0.17039656  0.58757675  1
  O  O43  1  0.19278871  0.02465197  0.58770109  1
  O  O44  1  0.83593038  0.82887678  0.58589462  1
  O  O45  1  0.97447413  0.81924717  0.08951117  1
  O  O46  1  0.83545824  0.02532011  0.08984436  1
  O  O47  1  0.18279169  0.17947493  0.08886492  1
  O  O48  1  0.68919426  0.15840496  0.74417568  1
  O  O49  1  0.47004361  0.31671404  0.74718662  1
  O  O50  1  0.84634112  0.52888135  0.74782318  1
  O  O51  1  0.68393761  0.52733712  0.24458317  1
  O  O52  1  0.84447078  0.31691041  0.24869334  1
  O  O53  1  0.47686780  0.14870212  0.24701122  1
  O  O54  1  0.64093473  0.49383562  0.92177976  1
  O  O55  1  0.85430078  0.36252185  0.92252399  1
  O  O56  1  0.49847844  0.15532221  0.92355375  1
  O  O57  1  0.64291064  0.15594290  0.42299026  1
  O  O58  1  0.50503295  0.36675517  0.42249020  1
  O  O59  1  0.86113319  0.49631568  0.42290546  1
  O  O60  1  0.35505980  0.49876604  0.07934709  1
  O  O61  1  0.15346425  0.64288585  0.07962771  1
  O  O62  1  0.51495668  0.85143818  0.08010785  1
  O  O63  1  0.34621925  0.85484868  0.57718000  1
  O  O64  1  0.50054047  0.66058877  0.58196987  1
  O  O65  1  0.14243739  0.49623495  0.57783930  1
  O  O66  1  0.30257927  0.82483363  0.25364616  1
  O  O67  1  0.52504267  0.69887533  0.25354577  1
  O  O68  1  0.16725507  0.48341053  0.25368942  1
  O  O69  1  0.30130295  0.47350432  0.75247115  1
  O  O70  1  0.16876607  0.68754104  0.75229110  1
  O  O71  1  0.53119919  0.82519647  0.75262383  1
loop_
_geom_bond_atom_site_label_1
_geom_bond_atom_site_label_2
_geom_bond_distance
_geom_bond_site_symmetry_2
Na0 O44 2.447664 1_455
Na0 O37 2.514138 1_455
Na0 O36 2.540533 1_555
Na0 O43 2.547615 1_565
Na0 O42 2.577009 1_465
Na0 O38 2.609198 1_565
Na1 O41 2.478199 1_455
Na1 O40 2.489110 1_555
Na1 O39 2.518257 1_565
Na1 O45 2.540893 1_456
Na1 O47 2.613508 1_566
Na1 O46 2.621371 1_466
Na2 O48 2.468917 1_555
Na2 O56 2.475576 1_555
Na2 O49 2.533967 1_555
Na2 O55 2.607192 1_555
Na2 O50 2.660851 1_555
Na2 O54 2.662627 1_555
Na3 O53 2.341668 1_555
Na3 O51 2.402328 1_555
Na3 O52 2.449709 1_555
Na3 O58 2.680493 1_555
Na3 O57 2.720537 1_555
Na3 O59 2.815695 1_555
Na4 O61 2.388366 1_555
Na4 O60 2.493963 1_555
Na4 O62 2.501329 1_555
Na4 O66 2.538304 1_555
Na4 O68 2.556169 1_555
Na4 O67 2.603565 1_555
Na5 O64 2.448157 1_555
Na5 O70 2.467080 1_555
Na5 O65 2.524683 1_555
Na5 O69 2.544255 1_555
Na5 O63 2.555989 1_555
Na5 O71 2.569771 1_555
Na6 O53 2.327172 1_555
Na6 O16 2.356315 1_555
Na6 O52 2.408757 1_555
Na6 O67 2.507483 1_545
Na6 O66 2.655423 1_545
Na6 O31 2.822715 1_545
Na6 O9 2.856362 1_545
Na7 O15 2.318084 1_555
Na7 O52 2.408311 1_555
Na7 O51 2.418439 1_555
Na7 O66 2.514899 1_655
Na7 O68 2.532297 1_655
Na7 O11 2.809650 1_655
Na7 O30 2.903231 1_655
Na8 O49 2.345882 1_555
Na8 O14 2.347824 1_555
Na8 O50 2.418702 1_555
Na8 O71 2.480206 1_555
Na8 O69 2.607711 1_555
Na8 O35 2.790982 1_555
Na9 O50 2.376363 1_555
Na9 O48 2.395338 1_555
Na9 O69 2.489985 1_655
Na9 O70 2.515723 1_655
Na9 O12 2.516960 1_555
Na9 O33 2.691169 1_655
Na9 O7 2.899891 1_655
Na9 O5 2.931716 1_555
Na10 O64 2.421179 1_555
Na10 O44 2.433081 1_555
Na10 O42 2.506248 1_565
Na10 O63 2.539206 1_555
Na10 O6 2.572369 1_555
Na10 O27 2.718904 1_555
Na10 O13 2.735147 1_565
Na10 O23 2.883799 1_565
Na11 O45 2.422757 1_555
Na11 O62 2.454675 1_555
Na11 O60 2.455846 1_555
Na11 O24 2.541733 1_554
Na11 O46 2.635482 1_565
Na11 O19 2.740564 1_555
Na11 O9 2.838304 1_555
Na11 O17 2.881207 1_555
Na12 O61 2.397952 1_555
Na12 O46 2.460651 1_455
Na12 O47 2.466487 1_555
Na12 O60 2.578305 1_555
Na12 O25 2.672379 1_554
Na12 O10 2.709608 1_555
Na12 O20 2.801325 1_455
Na12 O15 2.824768 1_455
Na13 O55 2.414893 1_555
Na13 O41 2.429836 1_555
Na13 O40 2.482226 1_655
Na13 O54 2.561946 1_555
Na13 O19 2.639070 1_556
Na13 O4 2.714826 1_555
Na13 O26 2.728332 1_655
Na13 O33 2.903525 1_655
Na14 O54 2.413764 1_555
Na14 O39 2.426117 1_555
Na14 O56 2.438073 1_555
Na14 O40 2.520368 1_545
Na14 O18 2.577758 1_556
Na14 O3 2.658014 1_555
Na14 O25 2.831788 1_555
Na14 O35 2.866496 1_555
Na15 O37 2.320130 1_545
Na15 O38 2.461225 1_655
Na15 O2 2.469499 1_555
Na15 O59 2.533112 1_555
Na15 O57 2.540427 1_555
Na15 O23 2.799432 1_555
Na15 O30 2.907287 1_655
Na15 O28 2.921567 1_655
Na16 O0 2.373822 1_555
Na16 O38 2.393015 1_555
Na16 O36 2.431069 1_545
Na16 O57 2.512856 1_555
Na16 O58 2.630742 1_555
Na16 O21 2.683706 1_555
Na16 O31 2.790178 1_545
Na17 O37 2.388123 1_555
Na17 O36 2.407836 1_655
Na17 O58 2.532191 1_555
Na17 O1 2.540692 1_555
Na17 O59 2.626084 1_555
Na17 O22 2.640782 1_555
Na17 O27 2.910823 1_555
Na17 O32 2.931014 1_555
O0 P0 1.531963 1_545
O0 Zn0 2.054508 1_445
O1 P1 1.536830 1_555
O1 Zn0 2.024655 1_555
O2 P2 1.527879 1_655
O2 Zn0 2.002776 1_545
O3 P3 1.548529 1_555
O3 Sn0 2.072839 1_455
O4 P4 1.555491 1_655
O4 Sn0 2.074721 1_565
O5 P5 1.552107 1_545
O5 Sn0 2.049437 1_555
O6 P5 1.573794 1_555
O6 Sn1 2.093993 1_655
O7 P3 1.562431 1_555
O7 Sn1 2.050934 1_545
O8 P4 1.550091 1_555
O8 Sn1 2.045133 1_555
O9 P1 1.578973 1_555
O9 Sn2 2.098611 1_665
O10 P2 1.571598 1_555
O10 Sn2 2.080866 1_555
O11 P0 1.566846 1_555
O11 Sn2 2.033527 1_565
O12 P6 1.509811 1_555
O12 Zn1 2.123239 1_555
O13 P7 1.507525 1_555
O13 Zn1 2.001724 1_555
O14 Si0 1.588412 1_555
O14 Zn1 1.956317 1_555
O15 Si1 1.611618 1_555
O15 Zn2 1.987675 1_555
O16 P8 1.525451 1_555
O16 Zn2 2.066638 1_555
O17 P9 1.520542 1_555
O17 Zn2 1.974420 1_555
O18 P9 1.548810 1_555
O18 Sn3 2.136807 1_554
O19 Si1 1.655430 1_555
O19 Sn3 2.042714 1_554
O20 P8 1.546526 1_555
O20 Sn3 2.103389 1_554
O21 P7 1.575366 1_555
O21 Sn4 2.074540 1_555
O22 Si0 1.663009 1_555
O22 Sn4 1.992426 1_555
O23 P6 1.586725 1_555
O23 Sn4 2.074907 1_555
O24 Si2 1.632155 1_555
O24 Sn5 2.013531 1_556
O25 Si3 1.639333 1_555
O25 Sn5 2.024656 1_556
O26 Si4 1.627088 1_555
O26 Sn5 1.981868 1_556
O27 Si5 1.631346 1_555
O27 Sn6 2.012511 1_555
O28 P10 1.542020 1_555
O28 Sn6 2.050031 1_555
O29 P11 1.534525 1_555
O29 Sn6 2.061966 1_555
O30 P11 1.569174 1_555
O30 Sn7 2.084786 1_555
O31 Si5 1.658583 1_555
O31 Sn7 2.022192 1_555
O32 P10 1.560577 1_555
O32 Sn7 2.060091 1_555
O33 Si3 1.645032 1_555
O33 Sn8 2.028094 1_555
O34 Si4 1.620048 1_555
O34 Sn8 1.975280 1_555
O35 Si2 1.639507 1_555
O35 Sn8 2.012493 1_555
O36 P11 1.530864 1_555
O36 Zn0 2.289388 1_455
O37 Si5 1.622636 1_555
O37 Zn0 2.130028 1_555
O38 P10 1.530598 1_555
O38 Zn0 2.232534 1_445
O39 Si3 1.627752 1_555
O39 Sn0 2.027152 1_455
O40 Si4 1.646475 1_555
O40 Sn0 2.042428 1_465
O41 Si2 1.632330 1_555
O41 Sn0 2.035009 1_565
O42 P6 1.568559 1_555
O42 Sn1 2.133507 1_645
O43 P7 1.551193 1_555
O43 Sn1 2.060299 1_545
O44 Si0 1.670243 1_555
O44 Sn1 2.031415 1_655
O45 Si1 1.662539 1_555
O45 Sn2 2.030631 1_665
O46 P8 1.586116 1_555
O46 Sn2 2.151210 1_655
O47 P9 1.570064 1_555
O47 Sn2 2.101168 1_555
O48 P5 1.520517 1_545
O48 Zn1 2.248908 1_555
O49 P3 1.521815 1_555
O49 Zn1 2.200823 1_555
O50 P4 1.534105 1_655
O50 Zn1 2.313889 1_555
O51 P1 1.522310 1_555
O51 Zn2 2.200378 1_555
O52 P2 1.538348 1_655
O52 Zn2 2.333116 1_555
O53 P0 1.521859 1_545
O53 Zn2 2.287663 1_555
O54 Si2 1.641694 1_555
O54 Sn3 2.077861 1_555
O55 Si3 1.626050 1_655
O55 Sn3 2.044692 1_555
O56 Si4 1.624605 1_545
O56 Sn3 2.026265 1_555
O57 Si5 1.664967 1_545
O57 Sn4 2.072042 1_555
O58 P10 1.563578 1_555
O58 Sn4 2.162219 1_555
O59 P11 1.563500 1_655
O59 Sn4 2.156271 1_555
O60 P9 1.568799 1_555
O60 Sn5 2.199103 1_555
O61 Si1 1.649169 1_455
O61 Sn5 2.047710 1_555
O62 P8 1.557795 1_565
O62 Sn5 2.158062 1_555
O63 P7 1.560640 1_565
O63 Sn6 2.091164 1_555
O64 Si0 1.667062 1_555
O64 Sn6 2.019815 1_555
O65 P6 1.548869 1_455
O65 Sn6 2.072090 1_555
O66 P0 1.601871 1_555
O66 Sn7 2.103954 1_555
O67 P1 1.579333 1_555
O67 Sn7 2.086929 1_555
O68 P2 1.578916 1_555
O68 Sn7 2.102377 1_555
O69 P3 1.584501 1_555
O69 Sn8 2.190250 1_555
O70 P4 1.567584 1_555
O70 Sn8 2.124429 1_555
O71 P5 1.566516 1_555
O71 Sn8 2.139553 1_555
