# generated using pymatgen
data_MgMn2(SiO3)4
_symmetry_space_group_name_H-M   'P 1'
_cell_length_a   5.44619836
_cell_length_b   6.46374317
_cell_length_c   6.46744051
_cell_angle_alpha   83.49733942
_cell_angle_beta   76.46761297
_cell_angle_gamma   76.43426077
_symmetry_Int_Tables_number   1
_chemical_formula_structural   MgMn2(SiO3)4
_chemical_formula_sum   'Mg1 Mn2 Si4 O12'
_cell_volume   214.76545561
_cell_formula_units_Z   1
loop_
 _symmetry_equiv_pos_site_id
 _symmetry_equiv_pos_as_xyz
  1  'x, y, z'
loop_
 _atom_site_type_symbol
 _atom_site_label
 _atom_site_symmetry_multiplicity
 _atom_site_fract_x
 _atom_site_fract_y
 _atom_site_fract_z
 _atom_site_occupancy
  Mg  Mg0  1  0.24277400  0.69867100  0.26863500  1
  Mn  Mn0  1  0.24285600  0.07336100  0.89427500  1
  Mn  Mn1  1  0.74274800  0.88817500  0.07945100  1
  Si  Si0  1  0.21654300  0.18770900  0.38125800  1
  Si  Si1  1  0.27113600  0.58642800  0.77994800  1
  Si  Si2  1  0.72334600  0.36154800  0.20369900  1
  Si  Si3  1  0.76425100  0.76391400  0.60607900  1
  O  O0  1  0.42207200  0.35050400  0.33737200  1
  O  O1  1  0.06731300  0.63194700  0.61545600  1
  O  O2  1  0.55023600  0.61573300  0.62985200  1
  O  O3  1  0.93932100  0.34022900  0.34950400  1
  O  O4  1  0.20565700  0.06679700  0.61207700  1
  O  O5  1  0.27983300  0.35549200  0.90053300  1
  O  O6  1  0.83642000  0.85259200  0.35700900  1
  O  O7  1  0.64869300  0.61059000  0.11534700  1
  O  O8  1  0.82437200  0.17188100  0.03824100  1
  O  O9  1  0.66180100  0.92971200  0.79568700  1
  O  O10  1  0.31736700  0.00688300  0.19986400  1
  O  O11  1  0.16825600  0.76825100  0.96071600  1
loop_
_geom_bond_atom_site_label_1
_geom_bond_atom_site_label_2
_geom_bond_distance
_geom_bond_site_symmetry_2
Mg0 O11 2.102995 1_554
Mg0 O10 2.103842 1_565
Mg0 O7 2.169321 1_555
Mg0 O6 2.172136 1_455
Mg0 O1 2.258658 1_555
Mg0 O0 2.271866 1_555
Mn0 O5 1.886957 1_555
Mn0 O4 1.889032 1_555
Mn0 O11 2.083588 1_545
Mn0 O10 2.087240 1_556
Mn0 O8 2.219746 1_456
Mn0 O9 2.221271 1_545
Mn1 O6 1.953336 1_555
Mn1 O7 1.953648 1_555
Mn1 O9 1.961122 1_554
Mn1 O8 1.961571 1_565
Mn1 O10 2.240415 1_565
Mn1 O11 2.240582 1_654
O0 Si0 1.666432 1_555
O0 Si2 1.679832 1_555
O1 Si1 1.667067 1_555
O1 Si3 1.682321 1_455
O2 Si1 1.640608 1_555
O2 Si3 1.645015 1_555
O3 Si0 1.641517 1_655
O3 Si2 1.644801 1_555
O4 Si0 1.599645 1_555
O5 Si1 1.599713 1_555
O6 Si3 1.636494 1_555
O7 Si2 1.635983 1_555
O8 Si2 1.629711 1_555
O9 Si3 1.631106 1_555
O10 Si0 1.658901 1_555
O11 Si1 1.660636 1_555
