# generated using pymatgen
data_NbGaP2SO12
_symmetry_space_group_name_H-M   'P 1'
_cell_length_a   8.62673921
_cell_length_b   8.66516673
_cell_length_c   22.32099933
_cell_angle_alpha   89.85027341
_cell_angle_beta   90.00000000
_cell_angle_gamma   119.85340897
_symmetry_Int_Tables_number   1
_chemical_formula_structural   NbGaP2SO12
_chemical_formula_sum   'Nb6 Ga6 P12 S6 O72'
_cell_volume   1447.12321849
_cell_formula_units_Z   6
loop_
 _symmetry_equiv_pos_site_id
 _symmetry_equiv_pos_as_xyz
  1  'x, y, z'
loop_
 _atom_site_type_symbol
 _atom_site_label
 _atom_site_symmetry_multiplicity
 _atom_site_fract_x
 _atom_site_fract_y
 _atom_site_fract_z
 _atom_site_occupancy
  Nb  Nb0  1  0.99302867  0.00467123  0.64084416  1
  Nb  Nb1  1  0.01164257  0.00467123  0.14084416  1
  Nb  Nb2  1  0.65969567  0.33800423  0.97417716  1
  Nb  Nb3  1  0.67830957  0.33800423  0.47417716  1
  Nb  Nb4  1  0.32636167  0.67133823  0.30751116  1
  Nb  Nb5  1  0.34497557  0.67133823  0.80751116  1
  Ga  Ga0  1  0.99873151  0.00289432  0.35446548  1
  Ga  Ga1  1  0.00416281  0.00289432  0.85446548  1
  Ga  Ga2  1  0.66539851  0.33622732  0.68779848  1
  Ga  Ga3  1  0.67082981  0.33622732  0.18779848  1
  Ga  Ga4  1  0.33206451  0.66956132  0.02113248  1
  Ga  Ga5  1  0.33749581  0.66956132  0.52113248  1
  P  P0  1  0.29348702  0.01741470  0.25128667  1
  P  P1  1  0.98862441  0.27798912  0.25098008  1
  P  P2  1  0.28936471  0.27798912  0.75098008  1
  P  P3  1  0.72392768  0.01741470  0.75128667  1
  P  P4  1  0.96015402  0.35074770  0.58461967  1
  P  P5  1  0.65529141  0.61132212  0.58431308  1
  P  P6  1  0.95603171  0.61132212  0.08431308  1
  P  P7  1  0.39059468  0.35074770  0.08461967  1
  P  P8  1  0.62682002  0.68408170  0.91795367  1
  P  P9  1  0.32195741  0.94465612  0.91764708  1
  P  P10  1  0.62269771  0.94465612  0.41764708  1
  P  P11  1  0.05726068  0.68408170  0.41795367  1
  S  S0  1  0.71644377  0.70884794  0.25048764  1
  S  S1  1  0.99240417  0.70884794  0.75048764  1
  S  S2  1  0.38311077  0.04218094  0.58382064  1
  S  S3  1  0.65907117  0.04218094  0.08382064  1
  S  S4  1  0.04977677  0.37551494  0.91715464  1
  S  S5  1  0.32573717  0.37551494  0.41715464  1
  O  O0  1  0.20418681  0.03703443  0.30648993  1
  O  O1  1  0.82289118  0.78717267  0.30427409  1
  O  O2  1  0.96253608  0.16719842  0.30653955  1
  O  O3  1  0.20466234  0.16719842  0.80653955  1
  O  O4  1  0.96428149  0.78717267  0.80427409  1
  O  O5  1  0.83284762  0.03703443  0.80648993  1
  O  O6  1  0.80222663  0.97154033  0.69474004  1
  O  O7  1  0.16704848  0.19339090  0.69493258  1
  O  O8  1  0.03114966  0.82308819  0.69664064  1
  O  O9  1  0.79193853  0.82308819  0.19664064  1
  O  O10  1  0.02634242  0.19339090  0.19493258  1
  O  O11  1  0.16931370  0.97154033  0.19474004  1
  O  O12  1  0.87085381  0.37036743  0.63982293  1
  O  O13  1  0.48955818  0.12050567  0.63760709  1
  O  O14  1  0.62920308  0.50053142  0.63987255  1
  O  O15  1  0.87132934  0.50053142  0.13987255  1
  O  O16  1  0.63094849  0.12050567  0.13760709  1
  O  O17  1  0.49951462  0.37036743  0.13982293  1
  O  O18  1  0.46889363  0.30487333  0.02807304  1
  O  O19  1  0.83371548  0.52672390  0.02826558  1
  O  O20  1  0.69781666  0.15642119  0.02997364  1
  O  O21  1  0.45860553  0.15642119  0.52997364  1
  O  O22  1  0.69300942  0.52672390  0.52826558  1
  O  O23  1  0.83598070  0.30487333  0.52807304  1
  O  O24  1  0.53751981  0.70370143  0.97315693  1
  O  O25  1  0.15622418  0.45383967  0.97094109  1
  O  O26  1  0.29586908  0.83386542  0.97320655  1
  O  O27  1  0.53799534  0.83386542  0.47320655  1
  O  O28  1  0.29761449  0.45383967  0.47094109  1
  O  O29  1  0.16618062  0.70370143  0.47315693  1
  O  O30  1  0.13555963  0.63820733  0.36140704  1
  O  O31  1  0.50038148  0.86005790  0.36159958  1
  O  O32  1  0.36448266  0.48975519  0.36330764  1
  O  O33  1  0.12527153  0.48975519  0.86330764  1
  O  O34  1  0.35967542  0.86005790  0.86159958  1
  O  O35  1  0.50264670  0.63820733  0.86140704  1
  O  O36  1  0.02680341  0.83751405  0.40595608  1
  O  O37  1  0.80803632  0.97516399  0.40667829  1
  O  O38  1  0.17269457  0.19809670  0.40911212  1
  O  O39  1  0.02540213  0.19809670  0.90911212  1
  O  O40  1  0.16712768  0.97516399  0.90667829  1
  O  O41  1  0.81071065  0.83751405  0.90595608  1
  O  O42  1  0.97359851  0.17537655  0.59159970  1
  O  O43  1  0.20133067  0.02505120  0.59155525  1
  O  O44  1  0.82940759  0.79755524  0.59341770  1
  O  O45  1  0.96814765  0.79755524  0.09341770  1
  O  O46  1  0.82372053  0.02505120  0.09155525  1
  O  O47  1  0.20177804  0.17537655  0.09159970  1
  O  O48  1  0.69347041  0.17084705  0.73928908  1
  O  O49  1  0.47470332  0.30849699  0.74001129  1
  O  O50  1  0.83936157  0.53142970  0.74244512  1
  O  O51  1  0.69206913  0.53142970  0.24244512  1
  O  O52  1  0.83379468  0.30849699  0.24001129  1
  O  O53  1  0.47737765  0.17084705  0.23928908  1
  O  O54  1  0.64026551  0.50870955  0.92493270  1
  O  O55  1  0.86799767  0.35838420  0.92488825  1
  O  O56  1  0.49607459  0.13088824  0.92675070  1
  O  O57  1  0.63481465  0.13088824  0.42675070  1
  O  O58  1  0.49038753  0.35838420  0.42488825  1
  O  O59  1  0.86844504  0.50870955  0.42493270  1
  O  O60  1  0.36013641  0.50418105  0.07262308  1
  O  O61  1  0.14136932  0.64183099  0.07334529  1
  O  O62  1  0.50602757  0.86476370  0.07577912  1
  O  O63  1  0.35873513  0.86476370  0.57577912  1
  O  O64  1  0.50046068  0.64183099  0.57334529  1
  O  O65  1  0.14404365  0.50418105  0.57262308  1
  O  O66  1  0.30693151  0.84204355  0.25826670  1
  O  O67  1  0.53466367  0.69171820  0.25822225  1
  O  O68  1  0.16274059  0.46422224  0.26008470  1
  O  O69  1  0.30148065  0.46422224  0.76008470  1
  O  O70  1  0.15705353  0.69171820  0.75822225  1
  O  O71  1  0.53511104  0.84204355  0.75826670  1
loop_
_geom_bond_atom_site_label_1
_geom_bond_atom_site_label_2
_geom_bond_distance
_geom_bond_site_symmetry_2
Nb0 O42 1.913805 1_555
Nb0 O6 1.940802 1_545
Nb0 O44 1.954962 1_545
Nb0 O7 1.987889 1_655
Nb0 O43 2.038068 1_655
Nb0 O8 2.154042 1_645
Nb1 O47 1.913805 1_555
Nb1 O11 1.940802 1_545
Nb1 O45 1.954962 1_445
Nb1 O10 1.987889 1_555
Nb1 O46 2.038068 1_455
Nb1 O9 2.154042 1_445
Nb2 O54 1.913805 1_555
Nb2 O18 1.940802 1_556
Nb2 O56 1.954962 1_555
Nb2 O19 1.987889 1_556
Nb2 O55 2.038068 1_555
Nb2 O20 2.154042 1_556
Nb3 O59 1.913805 1_555
Nb3 O23 1.940802 1_555
Nb3 O57 1.954962 1_555
Nb3 O22 1.987889 1_555
Nb3 O58 2.038068 1_555
Nb3 O21 2.154042 1_555
Nb4 O66 1.913805 1_555
Nb4 O30 1.940802 1_555
Nb4 O68 1.954962 1_555
Nb4 O31 1.987889 1_555
Nb4 O67 2.038068 1_555
Nb4 O32 2.154042 1_555
Nb5 O71 1.913805 1_555
Nb5 O35 1.940802 1_555
Nb5 O69 1.954962 1_555
Nb5 O34 1.987889 1_555
Nb5 O70 2.038068 1_555
Nb5 O33 2.154042 1_555
Ga0 O2 1.924444 1_555
Ga0 O37 1.930614 1_545
Ga0 O36 1.941676 1_645
Ga0 O0 1.962660 1_655
Ga0 O38 2.021060 1_655
Ga0 O1 2.058718 1_545
Ga1 O3 1.924444 1_555
Ga1 O40 1.930614 1_545
Ga1 O41 1.941676 1_445
Ga1 O5 1.962660 1_455
Ga1 O39 2.021060 1_555
Ga1 O4 2.058718 1_445
Ga2 O14 1.924444 1_555
Ga2 O49 1.930614 1_555
Ga2 O48 1.941676 1_555
Ga2 O12 1.962660 1_555
Ga2 O50 2.021060 1_555
Ga2 O13 2.058718 1_555
Ga3 O15 1.924444 1_555
Ga3 O52 1.930614 1_555
Ga3 O53 1.941676 1_555
Ga3 O17 1.962660 1_555
Ga3 O51 2.021060 1_555
Ga3 O16 2.058718 1_555
Ga4 O26 1.924444 1_554
Ga4 O61 1.930614 1_555
Ga4 O60 1.941676 1_555
Ga4 O24 1.962660 1_554
Ga4 O62 2.021060 1_555
Ga4 O25 2.058718 1_554
Ga5 O27 1.924444 1_555
Ga5 O64 1.930614 1_555
Ga5 O65 1.941676 1_555
Ga5 O29 1.962660 1_555
Ga5 O63 2.021060 1_555
Ga5 O28 2.058718 1_555
O0 P0 1.507366 1_555
O1 S0 1.459121 1_555
O2 P1 1.512918 1_555
O3 P2 1.512918 1_555
O4 S1 1.459121 1_555
O5 P3 1.507366 1_555
O6 P3 1.573942 1_565
O7 P2 1.565439 1_555
O8 S1 1.483451 1_455
O9 S0 1.483451 1_555
O10 P1 1.565439 1_455
O11 P0 1.573942 1_565
O12 P4 1.507366 1_555
O13 S2 1.459121 1_555
O14 P5 1.512918 1_555
O15 P6 1.512918 1_555
O16 S3 1.459121 1_555
O17 P7 1.507366 1_555
O18 P7 1.573942 1_555
O19 P6 1.565439 1_555
O20 S3 1.483451 1_555
O21 S2 1.483451 1_555
O22 P5 1.565439 1_555
O23 P4 1.573942 1_555
O24 P8 1.507366 1_555
O25 S4 1.459121 1_555
O26 P9 1.512918 1_555
O27 P10 1.512918 1_555
O28 S5 1.459121 1_555
O29 P11 1.507366 1_555
O30 P11 1.573942 1_555
O31 P10 1.565439 1_555
O32 S5 1.483451 1_555
O33 S4 1.483451 1_555
O34 P9 1.565439 1_555
O35 P8 1.573942 1_555
O36 P11 1.501427 1_555
O37 P10 1.505016 1_555
O38 S5 1.455855 1_555
O39 S4 1.455858 1_555
O40 P9 1.505007 1_555
O41 P8 1.501433 1_555
O42 P4 1.587829 1_555
O43 S2 1.509677 1_555
O44 P5 1.578026 1_555
O45 P6 1.578029 1_555
O46 S3 1.509669 1_555
O47 P7 1.587834 1_555
O48 P3 1.501427 1_555
O49 P2 1.505016 1_555
O50 S1 1.455855 1_555
O51 S0 1.455858 1_555
O52 P1 1.505007 1_555
O53 P0 1.501433 1_555
O54 P8 1.587840 1_555
O55 S4 1.509663 1_655
O56 P9 1.578022 1_545
O57 P10 1.578014 1_545
O58 S5 1.509680 1_555
O59 P11 1.587831 1_655
O60 P7 1.501437 1_555
O61 P6 1.505001 1_455
O62 S3 1.455850 1_565
O63 S2 1.455844 1_565
O64 P5 1.505017 1_555
O65 P4 1.501426 1_455
O66 P0 1.587829 1_565
O67 S0 1.509677 1_555
O68 P1 1.578026 1_455
O69 P2 1.578029 1_555
O70 S1 1.509669 1_455
O71 P3 1.587834 1_565
