# generated using pymatgen
data_CeNiSn
_symmetry_space_group_name_H-M   'P 1'
_cell_length_a   4.60616838
_cell_length_b   7.52742772
_cell_length_c   7.48524122
_cell_angle_alpha   89.99984467
_cell_angle_beta   90.00000000
_cell_angle_gamma   90.00000000
_symmetry_Int_Tables_number   1
_chemical_formula_structural   CeNiSn
_chemical_formula_sum   'Ce4 Ni4 Sn4'
_cell_volume   259.53277133
_cell_formula_units_Z   4
loop_
 _symmetry_equiv_pos_site_id
 _symmetry_equiv_pos_as_xyz
  1  'x, y, z'
loop_
 _atom_site_type_symbol
 _atom_site_label
 _atom_site_symmetry_multiplicity
 _atom_site_fract_x
 _atom_site_fract_y
 _atom_site_fract_z
 _atom_site_occupancy
  Ce  Ce0  1  0.25000000  0.47752571  0.80532026  1
  Ce  Ce1  1  0.75000000  0.52247429  0.19467974  1
  Ce  Ce2  1  0.25000000  0.97753803  0.69470667  1
  Ce  Ce3  1  0.75000000  0.02246197  0.30529333  1
  Ni  Ni0  1  0.75000000  0.30677651  0.57897138  1
  Ni  Ni1  1  0.25000000  0.19327891  0.07895493  1
  Ni  Ni2  1  0.75000000  0.80672109  0.92104507  1
  Ni  Ni3  1  0.25000000  0.69322349  0.42102862  1
  Sn  Sn0  1  0.25000000  0.31889292  0.40720554  1
  Sn  Sn1  1  0.75000000  0.18116573  0.90720551  1
  Sn  Sn2  1  0.25000000  0.81883427  0.09279449  1
  Sn  Sn3  1  0.75000000  0.68110708  0.59279446  1
loop_
_geom_bond_atom_site_label_1
_geom_bond_atom_site_label_2
_geom_bond_distance
_geom_bond_site_symmetry_2
Ce0 Ni1 2.961972 1_556
Ce0 Ni0 3.134770 1_455
Ce0 Ni0 3.134770 1_555
Ce0 Sn3 3.191118 1_555
Ce0 Sn3 3.191118 1_455
Ce0 Sn0 3.210326 1_555
Ce0 Sn1 3.295815 1_455
Ce0 Sn1 3.295815 1_555
Ce0 Ni3 3.303113 1_555
Ce0 Sn2 3.351268 1_556
Ce0 Ni2 3.492136 1_555
Ce0 Ni2 3.492136 1_455
Ce0 Ce1 3.729973 1_456
Ce0 Ce1 3.729973 1_556
Ce0 Ce2 3.853621 1_545
Ce0 Ce2 3.853798 1_555
Ce1 Ni2 2.961972 1_554
Ce1 Ni3 3.134770 1_555
Ce1 Ni3 3.134770 1_655
Ce1 Sn0 3.191118 1_655
Ce1 Sn0 3.191118 1_555
Ce1 Sn3 3.210326 1_555
Ce1 Sn2 3.295815 1_555
Ce1 Sn2 3.295815 1_655
Ce1 Ni0 3.303113 1_555
Ce1 Sn1 3.351268 1_554
Ce1 Ni1 3.492136 1_655
Ce1 Ni1 3.492136 1_555
Ce1 Ce3 3.853621 1_565
Ce1 Ce3 3.853798 1_555
Ce2 Ni3 2.962573 1_555
Ce2 Ni2 3.134933 1_455
Ce2 Ni2 3.134933 1_555
Ce2 Sn1 3.191189 1_565
Ce2 Sn1 3.191189 1_465
Ce2 Sn2 3.210332 1_556
Ce2 Sn3 3.296226 1_455
Ce2 Sn3 3.296226 1_555
Ce2 Ni1 3.302997 1_566
Ce2 Sn0 3.351656 1_565
Ce2 Ni0 3.492383 1_465
Ce2 Ni0 3.492383 1_565
Ce2 Ce3 3.730270 1_465
Ce2 Ce3 3.730270 1_565
Ce3 Ni0 2.962573 1_555
Ce3 Ni1 3.134933 1_555
Ce3 Ni1 3.134933 1_655
Ce3 Sn2 3.191189 1_545
Ce3 Sn2 3.191189 1_645
Ce3 Sn1 3.210332 1_554
Ce3 Sn0 3.296226 1_655
Ce3 Sn0 3.296226 1_555
Ce3 Ni2 3.302997 1_544
Ce3 Sn3 3.351656 1_545
Ce3 Ni3 3.492383 1_645
Ce3 Ni3 3.492383 1_545
Ni0 Sn1 2.632569 1_555
Ni0 Sn0 2.639235 1_555
Ni0 Sn0 2.639235 1_655
Ni0 Sn3 2.819646 1_555
Ni1 Sn0 2.632698 1_555
Ni1 Sn1 2.639175 1_454
Ni1 Sn1 2.639175 1_554
Ni1 Sn2 2.820508 1_545
Ni2 Sn3 2.632698 1_555
Ni2 Sn2 2.639175 1_656
Ni2 Sn2 2.639175 1_556
Ni2 Sn1 2.820508 1_565
Ni3 Sn2 2.632569 1_555
Ni3 Sn3 2.639235 1_455
Ni3 Sn3 2.639235 1_555
Ni3 Sn0 2.819646 1_555
