# generated using pymatgen
data_Ba2YMgFe3O8
_symmetry_space_group_name_H-M   'P 1'
_cell_length_a   3.66441743
_cell_length_b   4.16301638
_cell_length_c   15.16418295
_cell_angle_alpha   90.00000000
_cell_angle_beta   90.00000000
_cell_angle_gamma   90.00000000
_symmetry_Int_Tables_number   1
_chemical_formula_structural   Ba2YMgFe3O8
_chemical_formula_sum   'Ba2 Y1 Mg1 Fe3 O8'
_cell_volume   231.33006256
_cell_formula_units_Z   1
loop_
 _symmetry_equiv_pos_site_id
 _symmetry_equiv_pos_as_xyz
  1  'x, y, z'
loop_
 _atom_site_type_symbol
 _atom_site_label
 _atom_site_symmetry_multiplicity
 _atom_site_fract_x
 _atom_site_fract_y
 _atom_site_fract_z
 _atom_site_occupancy
  Ba  Ba0  1  0.50000000  0.50000000  0.10323912  1
  Ba  Ba1  1  0.50000000  0.50000000  0.83381743  1
  Y  Y0  1  0.50000000  0.50000000  0.57575525  1
  Mg  Mg0  1  0.50000000  0.50000000  0.38342609  1
  Fe  Fe0  1  0.00000000  0.00000000  0.28190901  1
  Fe  Fe1  1  0.00000000  0.00000000  0.95509929  1
  Fe  Fe2  1  0.00000000  0.00000000  0.69091810  1
  O  O0  1  0.00000000  0.50000000  0.45362921  1
  O  O1  1  0.50000000  0.00000000  0.33498344  1
  O  O2  1  0.50000000  0.00000000  0.98524402  1
  O  O3  1  0.00000000  0.00000000  0.15951586  1
  O  O4  1  0.00000000  0.50000000  0.66471611  1
  O  O5  1  0.50000000  0.00000000  0.62100456  1
  O  O6  1  0.00000000  0.00000000  0.82371933  1
  O  O7  1  0.00000000  0.50000000  0.96635618  1
loop_
_geom_bond_atom_site_label_1
_geom_bond_atom_site_label_2
_geom_bond_distance
_geom_bond_site_symmetry_2
Ba0 O2 2.744862 1_564
Ba0 O2 2.744862 1_554
Ba0 O7 2.768681 1_654
Ba0 O7 2.768681 1_554
Ba0 O3 2.901369 1_555
Ba0 O3 2.901369 1_655
Ba0 O3 2.901369 1_565
Ba0 O3 2.901369 1_665
Ba1 O7 2.719642 1_555
Ba1 O7 2.719642 1_655
Ba1 O6 2.777249 1_555
Ba1 O6 2.777249 1_655
Ba1 O6 2.777249 1_565
Ba1 O6 2.777249 1_665
Ba1 O2 3.099272 1_555
Ba1 O2 3.099272 1_565
Ba1 O4 3.151593 1_555
Ba1 O4 3.151593 1_655
Mg0 O0 2.119034 1_655
Mg0 O0 2.119034 1_555
Mg0 O1 2.207330 1_565
Mg0 O1 2.207330 1_555
Fe0 O3 1.855992 1_555
Fe0 O1 2.001185 1_455
Fe0 O1 2.001185 1_555
Fe1 O2 1.888372 1_555
Fe1 O2 1.888372 1_455
Fe1 O6 1.992270 1_555
Fe1 O7 2.088496 1_555
Fe1 O7 2.088496 1_545
Fe2 O6 2.013822 1_555
Fe2 O5 2.116831 1_555
Fe2 O5 2.116831 1_455
Fe2 O4 2.119092 1_555
Fe2 O4 2.119092 1_545
O0 Y0 2.605125 1_555
O0 Y0 2.605125 1_455
O4 Y0 2.275267 1_455
O4 Y0 2.275267 1_555
O5 Y0 2.191690 1_545
O5 Y0 2.191690 1_555
