# generated using pymatgen
data_VF5
_symmetry_space_group_name_H-M   'P 1'
_cell_length_a   5.58197782
_cell_length_b   6.31490406
_cell_length_c   10.00402885
_cell_angle_alpha   90.00000000
_cell_angle_beta   90.10569918
_cell_angle_gamma   90.00000000
_symmetry_Int_Tables_number   1
_chemical_formula_structural   VF5
_chemical_formula_sum   'V4 F20'
_cell_volume   352.63795932
_cell_formula_units_Z   4
loop_
 _symmetry_equiv_pos_site_id
 _symmetry_equiv_pos_as_xyz
  1  'x, y, z'
loop_
 _atom_site_type_symbol
 _atom_site_label
 _atom_site_symmetry_multiplicity
 _atom_site_fract_x
 _atom_site_fract_y
 _atom_site_fract_z
 _atom_site_occupancy
  V  V0  1  0.24983083  0.24666897  0.57480130  1
  V  V1  1  0.24983083  0.25333103  0.07480130  1
  V  V2  1  0.75016917  0.74666897  0.92519870  1
  V  V3  1  0.75016917  0.75333103  0.42519870  1
  F  F0  1  0.01207682  0.75336159  0.83642856  1
  F  F1  1  0.01207682  0.74663841  0.33642856  1
  F  F2  1  0.24968951  0.25407813  0.90214986  1
  F  F3  1  0.24968951  0.24592187  0.40214986  1
  F  F4  1  0.24117570  0.96755247  0.57079397  1
  F  F5  1  0.24117570  0.53244753  0.07079397  1
  F  F6  1  0.25823423  0.52566906  0.57026295  1
  F  F7  1  0.25823423  0.97433094  0.07026295  1
  F  F8  1  0.48828882  0.73972608  0.83586485  1
  F  F9  1  0.48828882  0.76027392  0.33586485  1
  F  F10  1  0.51171118  0.23972608  0.66413515  1
  F  F11  1  0.51171118  0.26027392  0.16413515  1
  F  F12  1  0.74176577  0.02566906  0.92973705  1
  F  F13  1  0.74176577  0.47433094  0.42973705  1
  F  F14  1  0.75882430  0.46755247  0.92920603  1
  F  F15  1  0.75882430  0.03244753  0.42920603  1
  F  F16  1  0.75031049  0.75407813  0.59785014  1
  F  F17  1  0.75031049  0.74592187  0.09785014  1
  F  F18  1  -0.01207682  0.25336159  0.66357144  1
  F  F19  1  -0.01207682  0.24663841  0.16357144  1
loop_
_geom_bond_atom_site_label_1
_geom_bond_atom_site_label_2
_geom_bond_distance
_geom_bond_site_symmetry_2
F0 V2 1.712472 1_455
F1 V3 1.712472 1_455
F2 V1 1.727215 1_556
F3 V0 1.727215 1_555
F4 V0 1.763710 1_565
F5 V1 1.763710 1_555
F6 V0 1.763070 1_555
F7 V1 1.763070 1_565
F8 V2 1.712509 1_555
F9 V3 1.712509 1_555
F10 V0 1.712509 1_555
F11 V1 1.712509 1_555
F12 V2 1.763070 1_545
F13 V3 1.763070 1_555
F14 V2 1.763710 1_555
F15 V3 1.763710 1_545
F16 V3 1.727215 1_555
F17 V2 1.727215 1_554
F18 V0 1.712472 1_555
F19 V1 1.712472 1_555
