# generated using pymatgen
data_Na2Nb6In2Si7S5O48
_symmetry_space_group_name_H-M   'P 1'
_cell_length_a   17.80411614
_cell_length_b   8.93959488
_cell_length_c   23.03274460
_cell_angle_alpha   89.94757472
_cell_angle_beta   90.11020366
_cell_angle_gamma   120.17013867
_symmetry_Int_Tables_number   1
_chemical_formula_structural   Na2Nb6In2Si7S5O48
_chemical_formula_sum   'Na6 Nb18 In6 Si21 S15 O144'
_cell_volume   3169.32409777
_cell_formula_units_Z   3
loop_
 _symmetry_equiv_pos_site_id
 _symmetry_equiv_pos_as_xyz
  1  'x, y, z'
loop_
 _atom_site_type_symbol
 _atom_site_label
 _atom_site_symmetry_multiplicity
 _atom_site_fract_x
 _atom_site_fract_y
 _atom_site_fract_z
 _atom_site_occupancy
  Na  Na0  1  0.99747734  0.00271024  0.49624524  1
  Na  Na1  1  0.49862883  0.00319203  0.99272863  1
  Na  Na2  1  0.33815746  0.32201441  0.83135233  1
  Na  Na3  1  0.82342811  0.33282820  0.83362770  1
  Na  Na4  1  0.32520026  0.31770053  0.34042591  1
  Na  Na5  1  0.83546401  0.35353040  0.34008476  1
  Nb  Nb0  1  0.50002780  0.99292593  0.35948235  1
  Nb  Nb1  1  0.00061798  0.00530121  0.85726239  1
  Nb  Nb2  1  0.50010013  0.00495886  0.64295576  1
  Nb  Nb3  1  0.99896650  0.99527576  0.14327835  1
  Nb  Nb4  1  0.32447910  0.33471555  0.68905232  1
  Nb  Nb5  1  0.83370575  0.31236080  0.68771332  1
  Nb  Nb6  1  0.33011224  0.34448547  0.19069600  1
  Nb  Nb7  1  0.82518941  0.31336903  0.19099564  1
  Nb  Nb8  1  0.32589884  0.32895241  0.97213638  1
  Nb  Nb9  1  0.83016015  0.31993449  0.47420701  1
  Nb  Nb10  1  0.17093162  0.67122539  0.02170646  1
  Nb  Nb11  1  0.67694999  0.67221909  0.02134666  1
  Nb  Nb12  1  0.17074822  0.67250411  0.52544188  1
  Nb  Nb13  1  0.67302298  0.67033417  0.52256694  1
  Nb  Nb14  1  0.16624925  0.68647409  0.31195837  1
  Nb  Nb15  1  0.68067289  0.67855526  0.30883011  1
  Nb  Nb16  1  0.17913652  0.68177646  0.80720237  1
  Nb  Nb17  1  0.66450279  0.64443596  0.80985767  1
  In  In0  1  0.00115062  0.97969778  0.35641771  1
  In  In1  1  0.50128039  0.02260853  0.85458040  1
  In  In2  1  0.99269241  0.01531667  0.64823354  1
  In  In3  1  0.49521744  0.98615599  0.15310736  1
  In  In4  1  0.83313822  0.33228786  0.97967655  1
  In  In5  1  0.33209279  0.33233636  0.47983523  1
  Si  Si0  1  0.14144623  0.00440784  0.25106475  1
  Si  Si1  1  0.63910324  0.99152389  0.25123337  1
  Si  Si2  1  0.35341678  0.71450092  0.25185965  1
  Si  Si3  1  0.86013546  0.70953867  0.24845572  1
  Si  Si4  1  0.14096845  0.28687213  0.75117029  1
  Si  Si5  1  0.64570608  0.27819860  0.75050427  1
  Si  Si6  1  0.36090535  0.01241915  0.74849422  1
  Si  Si7  1  0.85332920  0.99396903  0.75232343  1
  Si  Si8  1  0.97763626  0.33199021  0.58036694  1
  Si  Si9  1  0.68870839  0.04411771  0.58196247  1
  Si  Si10  1  0.33679367  0.62156705  0.58010338  1
  Si  Si11  1  0.83454935  0.05051176  0.08104506  1
  Si  Si12  1  0.18951073  0.33420232  0.08300885  1
  Si  Si13  1  0.31508226  0.67793341  0.91574804  1
  Si  Si14  1  0.81147055  0.65764834  0.91482286  1
  Si  Si15  1  0.52522722  0.38429542  0.91992709  1
  Si  Si16  1  0.16215995  0.94148552  0.91657737  1
  Si  Si17  1  0.30975636  0.96163428  0.41798410  1
  Si  Si18  1  0.81569542  0.95561477  0.41645620  1
  Si  Si19  1  0.66478425  0.38320114  0.41693685  1
  Si  Si20  1  0.02456845  0.66610144  0.41954675  1
  S  S0  1  0.99945055  0.28765843  0.24910635  1
  S  S1  1  0.49977127  0.29171146  0.25126429  1
  S  S2  1  -0.00027743  0.71202201  0.75182611  1
  S  S3  1  0.49867279  0.70938313  0.74961654  1
  S  S4  1  0.47883187  0.33565687  0.58348276  1
  S  S5  1  0.18490150  0.03878673  0.58439199  1
  S  S6  1  0.83494306  0.61726998  0.58144820  1
  S  S7  1  0.47673328  0.61852424  0.08069969  1
  S  S8  1  0.97866829  0.62223730  0.08352791  1
  S  S9  1  0.33618263  0.05061722  0.08128956  1
  S  S10  1  0.68336280  0.32836290  0.08413382  1
  S  S11  1  0.02597891  0.38492725  0.91538536  1
  S  S12  1  0.66639921  0.94796607  0.91696196  1
  S  S13  1  0.16677761  0.38635358  0.41683448  1
  S  S14  1  0.52546855  0.66550234  0.41525614  1
  O  O0  1  0.11494527  0.06693648  0.30804864  1
  O  O1  1  0.59575491  0.03468796  0.30621967  1
  O  O2  1  0.42195683  0.81147518  0.30506243  1
  O  O3  1  0.91279888  0.76667837  0.30771535  1
  O  O4  1  0.48025981  0.17424895  0.30122897  1
  O  O5  1  0.97634875  0.18087020  0.30097871  1
  O  O6  1  0.09803853  0.16252137  0.80809799  1
  O  O7  1  0.61653512  0.16525249  0.80890718  1
  O  O8  1  0.47629402  0.77038271  0.80202611  1
  O  O9  1  0.98483833  0.79567916  0.80340566  1
  O  O10  1  0.41038733  0.05728802  0.80919081  1
  O  O11  1  0.92075985  0.03170982  0.80682042  1
  O  O12  1  0.40649653  0.97724532  0.69351439  1
  O  O13  1  0.88086299  0.93954942  0.69388674  1
  O  O14  1  0.09326506  0.21606070  0.69089039  1
  O  O15  1  0.58233813  0.18183996  0.69541890  1
  O  O16  1  0.01745756  0.81353362  0.69856543  1
  O  O17  1  0.51157803  0.81514135  0.69747787  1
  O  O18  1  0.38084255  0.81704913  0.19134104  1
  O  O19  1  0.90567931  0.83412488  0.19250006  1
  O  O20  1  0.01072751  0.20575156  0.19634613  1
  O  O21  1  0.51858968  0.22813958  0.19702250  1
  O  O22  1  0.08179586  0.98034043  0.19441975  1
  O  O23  1  0.59349895  0.96694235  0.18939844  1
  O  O24  1  0.43442881  0.35835024  0.63406057  1
  O  O25  1  0.93190117  0.35721159  0.63980240  1
  O  O26  1  0.23986437  0.13146703  0.63684615  1
  O  O27  1  0.75322738  0.13266014  0.63914499  1
  O  O28  1  0.31973586  0.49341591  0.63740862  1
  O  O29  1  0.82114459  0.51317212  0.63392504  1
  O  O30  1  0.43736028  0.51754768  0.13525330  1
  O  O31  1  0.93478736  0.51019341  0.13381986  1
  O  O32  1  0.32627676  0.13266867  0.13389501  1
  O  O33  1  0.81789598  0.14524181  0.13745448  1
  O  O34  1  0.25582328  0.37238668  0.13901823  1
  O  O35  1  0.73729520  0.34900245  0.13655103  1
  O  O36  1  0.23903743  0.30512678  0.02837554  1
  O  O37  1  0.72102986  0.30116237  0.03117989  1
  O  O38  1  0.42022358  0.52400246  0.03025837  1
  O  O39  1  0.92738443  0.55838928  0.02992028  1
  O  O40  1  0.34513834  0.15207600  0.02850738  1
  O  O41  1  0.85601039  0.16649099  0.02418208  1
  O  O42  1  0.22245004  0.14371084  0.53177787  1
  O  O43  1  0.73330401  0.16746573  0.52599740  1
  O  O44  1  0.35971806  0.54713208  0.52436493  1
  O  O45  1  0.84131897  0.53485589  0.52793264  1
  O  O46  1  0.42759602  0.29689879  0.52990574  1
  O  O47  1  0.91249488  0.31502490  0.52624726  1
  O  O48  1  0.25958543  0.69002398  0.97258835  1
  O  O49  1  0.76727423  0.68669197  0.97487560  1
  O  O50  1  0.07460557  0.46573614  0.97074704  1
  O  O51  1  0.58556041  0.49660615  0.97589339  1
  O  O52  1  0.15083948  0.82860751  0.97544036  1
  O  O53  1  0.66515604  0.85392605  0.97207512  1
  O  O54  1  0.26591974  0.84554906  0.47579019  1
  O  O55  1  0.75928437  0.82910868  0.47228186  1
  O  O56  1  0.16486879  0.47271490  0.47174196  1
  O  O57  1  0.64970137  0.47211646  0.47505117  1
  O  O58  1  0.08731755  0.67699206  0.47349524  1
  O  O59  1  0.57354547  0.68251613  0.47009734  1
  O  O60  1  0.06638081  0.63779118  0.35911324  1
  O  O61  1  0.57001545  0.65022849  0.36402322  1
  O  O62  1  0.24695996  0.86270091  0.36066189  1
  O  O63  1  0.75877407  0.86042409  0.35790621  1
  O  O64  1  0.17233630  0.48814219  0.36468014  1
  O  O65  1  0.67753463  0.50296667  0.36006828  1
  O  O66  1  0.07004680  0.49214394  0.86481643  1
  O  O67  1  0.56490725  0.49678174  0.86017960  1
  O  O68  1  0.17975945  0.85437272  0.86065595  1
  O  O69  1  0.67164740  0.85810455  0.86513753  1
  O  O70  1  0.25713431  0.65263989  0.85771554  1
  O  O71  1  0.74450296  0.62905439  0.86108897  1
  O  O72  1  0.02286921  0.84331280  0.42233359  1
  O  O73  1  0.52020205  0.82877028  0.41132522  1
  O  O74  1  0.40253152  0.97077108  0.40302436  1
  O  O75  1  0.91064134  0.98335509  0.41553217  1
  O  O76  1  0.08711846  0.21572053  0.41617098  1
  O  O77  1  0.58004021  0.19355813  0.40405048  1
  O  O78  1  0.02088636  0.21290581  0.91167349  1
  O  O79  1  0.52166409  0.20228263  0.92228817  1
  O  O80  1  0.07989227  0.96775449  0.90577789  1
  O  O81  1  0.58653954  0.95770080  0.91851501  1
  O  O82  1  0.41108642  0.83843625  0.91557748  1
  O  O83  1  0.90321137  0.83540155  0.90379393  1
  O  O84  1  0.49263434  0.18567671  0.59253608  1
  O  O85  1  0.98270457  0.15713026  0.57914949  1
  O  O86  1  0.09587979  0.00339637  0.59177431  1
  O  O87  1  0.59512418  0.02294780  0.59636481  1
  O  O88  1  0.41769181  0.81051806  0.59819868  1
  O  O89  1  0.91248084  0.79065920  0.58523198  1
  O  O90  1  0.48253440  0.79005988  0.08241203  1
  O  O91  1  0.99300800  0.80037135  0.09234207  1
  O  O92  1  0.41320848  0.02858057  0.08434702  1
  O  O93  1  0.91524709  0.02078740  0.09766000  1
  O  O94  1  0.09619039  0.16679042  0.09589380  1
  O  O95  1  0.59360746  0.18236314  0.09020984  1
  O  O96  1  0.34419753  0.17320678  0.73282899  1
  O  O97  1  0.84879077  0.17621759  0.74552711  1
  O  O98  1  0.24274777  0.31812946  0.74548114  1
  O  O99  1  0.74572456  0.32671846  0.73471344  1
  O  O100  1  0.42298545  0.52557245  0.73899251  1
  O  O101  1  0.91997594  0.53731038  0.74686162  1
  O  O102  1  0.35034160  0.52188955  0.24322794  1
  O  O103  1  0.84347907  0.51587768  0.23152478  1
  O  O104  1  0.42025076  0.30798055  0.24218630  1
  O  O105  1  0.92284293  0.31848747  0.23804729  1
  O  O106  1  0.24282827  0.16243303  0.23380302  1
  O  O107  1  0.74106427  0.16604450  0.24499560  1
  O  O108  1  0.31444949  0.49212411  0.92465759  1
  O  O109  1  0.82014656  0.48720779  0.91885373  1
  O  O110  1  0.42762269  0.36398953  0.92924148  1
  O  O111  1  0.93780220  0.36059165  0.91771256  1
  O  O112  1  0.25057894  0.13369794  0.92528126  1
  O  O113  1  0.74546686  0.12260043  0.91763551  1
  O  O114  1  0.32195342  0.15343674  0.41880573  1
  O  O115  1  0.81230353  0.13578895  0.42167024  1
  O  O116  1  0.24606560  0.36957224  0.41637755  1
  O  O117  1  0.75180226  0.36914707  0.42427276  1
  O  O118  1  0.43718579  0.51500398  0.41651744  1
  O  O119  1  0.92678383  0.49244476  0.42501236  1
  O  O120  1  0.17921436  0.50342743  0.07047013  1
  O  O121  1  0.68139648  0.49381042  0.07890756  1
  O  O122  1  0.06513227  0.63662591  0.07624954  1
  O  O123  1  0.56347031  0.63761812  0.07445160  1
  O  O124  1  0.25515341  0.87399049  0.07553284  1
  O  O125  1  0.74625172  0.86071473  0.07333672  1
  O  O126  1  0.18679640  0.87505152  0.58090046  1
  O  O127  1  0.67704365  0.85258452  0.56971568  1
  O  O128  1  0.24988431  0.63537917  0.57241615  1
  O  O129  1  0.75479031  0.63840210  0.57577292  1
  O  O130  1  0.07255010  0.50526194  0.57093351  1
  O  O131  1  0.56497363  0.49391601  0.57665012  1
  O  O132  1  0.15136667  0.83231513  0.25858059  1
  O  O133  1  0.65087327  0.82655369  0.26576533  1
  O  O134  1  0.25558787  0.66616251  0.26929785  1
  O  O135  1  0.76178609  0.68422791  0.25528542  1
  O  O136  1  0.07672350  0.45952608  0.25538263  1
  O  O137  1  0.57256258  0.46701694  0.26277098  1
  O  O138  1  0.15167527  0.47517886  0.76585981  1
  O  O139  1  0.65026727  0.46796080  0.75917564  1
  O  O140  1  0.07385345  0.68446888  0.76406409  1
  O  O141  1  0.57641150  0.69233452  0.75702498  1
  O  O142  1  0.26221849  0.83913255  0.75553531  1
  O  O143  1  0.75559155  0.84300926  0.77058182  1
loop_
_geom_bond_atom_site_label_1
_geom_bond_atom_site_label_2
_geom_bond_distance
_geom_bond_site_symmetry_2
Na0 O75 2.365770 1_545
Na0 O72 2.405801 1_645
Na0 O85 2.448013 1_555
Na0 O76 2.554399 1_655
Na0 O89 2.684370 1_545
Na0 O86 2.808048 1_655
Na1 O79 2.287301 1_555
Na1 O82 2.333032 1_545
Na1 O81 2.487640 1_545
Na1 O92 2.679115 1_556
Na1 O90 2.724990 1_546
Na1 O95 2.781320 1_556
Na2 O98 2.593555 1_555
Na2 O96 2.661018 1_555
Na2 O110 2.673651 1_555
Na2 O112 2.704385 1_555
Na2 O100 2.713046 1_555
Na2 O108 2.786381 1_555
Na3 O109 2.418230 1_555
Na3 O113 2.565974 1_555
Na3 O97 2.631696 1_555
Na3 O99 2.649444 1_555
Na3 O101 2.671766 1_555
Na3 O111 2.727045 1_555
Na4 O114 2.308470 1_555
Na4 O116 2.434761 1_555
Na4 O118 2.572028 1_555
Na4 O102 2.778376 1_555
Na4 O106 2.838091 1_555
Na4 O104 2.855561 1_555
Na5 O119 2.444334 1_555
Na5 O117 2.493758 1_555
Na5 O115 2.584501 1_555
Na5 O107 2.755334 1_555
Na5 O103 2.857521 1_555
Na5 O105 2.923539 1_555
Nb0 O74 1.928449 1_555
Nb0 O77 1.931211 1_565
Nb0 O2 1.965988 1_555
Nb0 O1 1.979089 1_565
Nb0 O73 2.057501 1_555
Nb0 O4 2.262576 1_565
Nb1 O11 1.938455 1_455
Nb1 O83 1.954406 1_445
Nb1 O6 1.954600 1_555
Nb1 O80 1.955210 1_545
Nb1 O78 2.115312 1_555
Nb1 O9 2.145476 1_445
Nb2 O88 1.915945 1_545
Nb2 O87 1.942395 1_555
Nb2 O15 1.942647 1_555
Nb2 O12 1.945946 1_545
Nb2 O84 2.046484 1_555
Nb2 O17 2.200428 1_545
Nb3 O93 1.926910 1_565
Nb3 O19 1.928343 1_555
Nb3 O22 1.941913 1_655
Nb3 O94 1.968470 1_665
Nb3 O91 2.059362 1_555
Nb3 O20 2.164570 1_665
Nb4 O28 1.884606 1_555
Nb4 O98 1.902304 1_555
Nb4 O96 1.931320 1_555
Nb4 O26 2.064576 1_555
Nb4 O100 2.073199 1_555
Nb4 O24 2.252620 1_555
Nb5 O27 1.889083 1_555
Nb5 O97 1.910701 1_555
Nb5 O25 1.933144 1_555
Nb5 O99 1.962379 1_555
Nb5 O101 2.269683 1_555
Nb5 O29 2.281646 1_555
Nb6 O106 1.873578 1_555
Nb6 O102 1.880574 1_555
Nb6 O34 1.885041 1_555
Nb6 O104 2.146366 1_555
Nb6 O30 2.169501 1_555
Nb6 O32 2.275092 1_555
Nb7 O107 1.883152 1_555
Nb7 O33 1.898216 1_555
Nb7 O103 1.914208 1_555
Nb7 O105 2.027878 1_555
Nb7 O35 2.148401 1_555
Nb7 O31 2.278684 1_555
Nb8 O112 1.911769 1_555
Nb8 O108 1.913195 1_555
Nb8 O110 1.946908 1_555
Nb8 O36 1.947057 1_556
Nb8 O38 2.169127 1_556
Nb8 O40 2.200516 1_556
Nb9 O47 1.909269 1_555
Nb9 O115 1.936848 1_555
Nb9 O43 1.974048 1_555
Nb9 O119 1.989794 1_555
Nb9 O117 2.018026 1_555
Nb9 O45 2.209505 1_555
Nb10 O48 1.881329 1_554
Nb10 O52 1.935115 1_554
Nb10 O120 1.937008 1_555
Nb10 O124 2.082335 1_555
Nb10 O50 2.126732 1_554
Nb10 O122 2.155194 1_555
Nb11 O49 1.883019 1_554
Nb11 O51 1.907103 1_554
Nb11 O125 1.924579 1_555
Nb11 O53 2.075857 1_554
Nb11 O121 2.104833 1_555
Nb11 O123 2.248215 1_555
Nb12 O58 1.921608 1_555
Nb12 O128 1.931159 1_555
Nb12 O130 1.940787 1_555
Nb12 O54 1.985341 1_555
Nb12 O126 2.115352 1_555
Nb12 O56 2.132209 1_555
Nb13 O55 1.878169 1_555
Nb13 O127 1.929920 1_555
Nb13 O57 1.942254 1_555
Nb13 O129 2.028011 1_555
Nb13 O131 2.166984 1_555
Nb13 O59 2.189657 1_555
Nb14 O62 1.877966 1_555
Nb14 O132 1.903828 1_555
Nb14 O60 1.938897 1_555
Nb14 O134 1.955782 1_555
Nb14 O64 2.195126 1_555
Nb14 O136 2.258587 1_555
Nb15 O135 1.882086 1_555
Nb15 O63 1.891966 1_555
Nb15 O133 1.927936 1_555
Nb15 O65 1.941269 1_555
Nb15 O137 2.177988 1_555
Nb15 O61 2.251511 1_555
Nb16 O142 1.869557 1_555
Nb16 O138 1.910660 1_555
Nb16 O70 1.925282 1_555
Nb16 O68 1.970488 1_555
Nb16 O140 2.130632 1_555
Nb16 O66 2.259074 1_555
Nb17 O139 1.875137 1_555
Nb17 O71 1.905288 1_555
Nb17 O143 1.925794 1_555
Nb17 O67 1.970404 1_555
Nb17 O141 2.188771 1_555
Nb17 O69 2.246212 1_555
In0 O3 2.084543 1_455
In0 O0 2.091178 1_565
In0 O72 2.099825 1_555
In0 O75 2.124417 1_455
In0 O76 2.332355 1_565
In0 O5 2.419003 1_465
In1 O10 2.074860 1_555
In1 O7 2.078270 1_555
In1 O79 2.135451 1_555
In1 O82 2.147139 1_545
In1 O81 2.384236 1_545
In1 O8 2.396235 1_545
In2 O14 2.039276 1_655
In2 O13 2.044477 1_545
In2 O85 2.095840 1_555
In2 O86 2.298653 1_655
In2 O89 2.300677 1_545
In2 O16 2.363452 1_645
In3 O23 2.021451 1_555
In3 O18 2.029232 1_555
In3 O21 2.230121 1_565
In3 O95 2.271707 1_565
In3 O92 2.308800 1_565
In3 O90 2.319780 1_555
In4 O41 2.003919 1_556
In4 O109 2.061860 1_555
In4 O39 2.197285 1_556
In4 O37 2.217857 1_556
In4 O113 2.246679 1_555
In4 O111 2.260313 1_555
In5 O44 2.008319 1_555
In5 O114 2.068621 1_555
In5 O42 2.186795 1_555
In5 O46 2.203358 1_555
In5 O116 2.257425 1_555
In5 O118 2.286800 1_555
O0 Si0 1.589511 1_555
O1 Si1 1.628654 1_545
O2 Si2 1.635586 1_555
O3 Si3 1.586819 1_555
O4 S1 1.476613 1_555
O5 S0 1.453654 1_555
O6 Si4 1.639012 1_555
O7 Si5 1.603694 1_555
O8 S3 1.461073 1_555
O9 S2 1.497648 1_655
O10 Si6 1.591399 1_555
O11 Si7 1.648802 1_545
O12 Si6 1.619439 1_565
O13 Si7 1.591235 1_555
O14 Si4 1.583167 1_555
O15 Si5 1.626131 1_555
O16 S2 1.462716 1_555
O17 S3 1.472899 1_555
O18 Si2 1.603798 1_555
O19 Si3 1.628690 1_555
O20 S0 1.484427 1_455
O21 S1 1.479989 1_555
O22 Si0 1.625395 1_565
O23 Si1 1.597733 1_555
O24 S4 1.479329 1_555
O25 Si8 1.666530 1_555
O26 S5 1.511970 1_555
O27 Si9 1.662197 1_555
O28 Si10 1.672085 1_555
O29 S6 1.468526 1_555
O30 S7 1.500122 1_555
O31 S8 1.473171 1_555
O32 S9 1.472992 1_555
O33 Si11 1.658018 1_555
O34 Si12 1.662683 1_555
O35 S10 1.493832 1_555
O36 Si12 1.632113 1_555
O37 S10 1.471079 1_555
O38 S7 1.489570 1_555
O39 S8 1.468724 1_555
O40 S9 1.476282 1_555
O41 Si11 1.592970 1_555
O42 S5 1.471752 1_555
O43 Si9 1.621493 1_555
O44 Si10 1.591885 1_555
O45 S6 1.470128 1_555
O46 S4 1.467569 1_555
O47 Si8 1.655267 1_555
O48 Si13 1.677654 1_555
O49 Si14 1.676296 1_555
O50 S11 1.505376 1_555
O51 Si15 1.654262 1_555
O52 Si16 1.640464 1_555
O53 S12 1.515942 1_555
O54 Si17 1.626700 1_555
O55 Si18 1.673812 1_555
O56 S13 1.491613 1_555
O57 Si19 1.647262 1_555
O58 Si20 1.639256 1_555
O59 S14 1.488851 1_555
O60 Si20 1.658239 1_555
O61 S14 1.467279 1_555
O62 Si17 1.666712 1_555
O63 Si18 1.643118 1_555
O64 S13 1.479446 1_555
O65 Si19 1.633339 1_555
O66 S11 1.461668 1_555
O67 Si15 1.640495 1_555
O68 Si16 1.616263 1_555
O69 S12 1.468508 1_555
O70 Si13 1.631855 1_555
O71 Si14 1.645366 1_555
O72 Si20 1.600964 1_555
O73 S14 1.511475 1_555
O74 Si17 1.649333 1_555
O75 Si18 1.580591 1_555
O76 S13 1.471038 1_555
O77 Si19 1.633049 1_555
O78 S11 1.496806 1_555
O79 Si15 1.597061 1_555
O80 Si16 1.614496 1_555
O81 S12 1.468001 1_555
O82 Si13 1.585956 1_555
O83 Si14 1.627728 1_555
O84 S4 1.493980 1_555
O85 Si8 1.610690 1_555
O86 S5 1.462191 1_555
O87 Si9 1.614649 1_555
O88 Si10 1.629420 1_555
O89 S6 1.471370 1_555
O90 S7 1.484796 1_555
O91 S8 1.494665 1_555
O92 S9 1.481754 1_555
O93 Si11 1.631795 1_555
O94 Si12 1.609392 1_555
O95 S10 1.476767 1_555
O96 Si6 1.647159 1_555
O97 Si7 1.678459 1_545
O98 Si4 1.694349 1_555
O99 Si5 1.648423 1_555
O100 S3 1.532858 1_555
O101 S2 1.496362 1_655
O102 Si2 1.706804 1_555
O103 Si3 1.649846 1_555
O104 S1 1.508348 1_555
O105 S0 1.541918 1_555
O106 Si0 1.688356 1_555
O107 Si1 1.704103 1_545
O108 Si13 1.667913 1_555
O109 Si14 1.609442 1_555
O110 Si15 1.668259 1_555
O111 S11 1.473712 1_655
O112 Si16 1.658750 1_545
O113 S12 1.486654 1_545
O114 Si17 1.616563 1_545
O115 Si18 1.646367 1_545
O116 S13 1.492750 1_555
O117 Si19 1.624562 1_555
O118 S14 1.468341 1_555
O119 Si20 1.655509 1_655
O120 Si12 1.638088 1_555
O121 S10 1.501652 1_555
O122 S8 1.488748 1_455
O123 S7 1.473260 1_555
O124 S9 1.517239 1_565
O125 Si11 1.643216 1_565
O126 S5 1.483227 1_565
O127 Si9 1.642456 1_565
O128 Si10 1.622287 1_555
O129 S6 1.536051 1_555
O130 Si8 1.634611 1_455
O131 S4 1.482593 1_555
O132 Si0 1.643313 1_565
O133 Si1 1.624913 1_555
O134 Si2 1.620994 1_555
O135 Si3 1.656739 1_555
O136 S0 1.466037 1_455
O137 S1 1.470984 1_555
O138 Si4 1.631824 1_555
O139 Si5 1.669233 1_555
O140 S2 1.485696 1_555
O141 S3 1.476165 1_555
O142 Si6 1.666740 1_565
O143 Si7 1.633243 1_555
