# generated using pymatgen
data_Fe(PO3)4
_symmetry_space_group_name_H-M   'P 1'
_cell_length_a   7.08279987
_cell_length_b   7.08279987
_cell_length_c   9.51413908
_cell_angle_alpha   88.45647431
_cell_angle_beta   88.45647431
_cell_angle_gamma   108.98433576
_symmetry_Int_Tables_number   1
_chemical_formula_structural   Fe(PO3)4
_chemical_formula_sum   'Fe2 P8 O24'
_cell_volume   450.84039405
_cell_formula_units_Z   2
loop_
 _symmetry_equiv_pos_site_id
 _symmetry_equiv_pos_as_xyz
  1  'x, y, z'
loop_
 _atom_site_type_symbol
 _atom_site_label
 _atom_site_symmetry_multiplicity
 _atom_site_fract_x
 _atom_site_fract_y
 _atom_site_fract_z
 _atom_site_occupancy
  Fe  Fe0  1  0.39549200  0.60450800  0.25000000  1
  Fe  Fe1  1  0.60450800  0.39549200  0.75000000  1
  P  P0  1  0.78041300  0.70434200  0.47150800  1
  P  P1  1  0.70434200  0.78041300  0.97150800  1
  P  P2  1  0.22300900  0.87145200  0.46639600  1
  P  P3  1  0.87145200  0.22300900  0.96639600  1
  P  P4  1  0.21958700  0.29565800  0.52849200  1
  P  P5  1  0.12854800  0.77699100  0.03360400  1
  P  P6  1  0.29565800  0.21958700  0.02849200  1
  P  P7  1  0.77699100  0.12854800  0.53360400  1
  O  O0  1  0.62004900  0.64229100  0.85549900  1
  O  O1  1  0.84169000  0.36760400  0.85636700  1
  O  O2  1  0.10575300  0.26768200  0.96915100  1
  O  O3  1  0.00157300  0.79844300  0.40224600  1
  O  O4  1  0.36760400  0.84169000  0.35636700  1
  O  O5  1  0.42859200  0.21711200  0.90306500  1
  O  O6  1  0.78288800  0.57140800  0.59693500  1
  O  O7  1  0.20155700  0.99842700  0.09775400  1
  O  O8  1  0.15831000  0.63239600  0.14363300  1
  O  O9  1  0.77023000  0.22448400  0.39170700  1
  O  O10  1  0.21711200  0.42859200  0.40306500  1
  O  O11  1  0.26768200  0.10575300  0.46915100  1
  O  O12  1  0.37995100  0.35770900  0.14450100  1
  O  O13  1  0.35770900  0.37995100  0.64450100  1
  O  O14  1  0.22448400  0.77023000  0.89170700  1
  O  O15  1  0.79844300  0.00157300  0.90224600  1
  O  O16  1  0.89424700  0.73231800  0.03084900  1
  O  O17  1  0.99842700  0.20155700  0.59775400  1
  O  O18  1  0.22977000  0.77551600  0.60829300  1
  O  O19  1  0.63239600  0.15831000  0.64363300  1
  O  O20  1  0.73231800  0.89424700  0.53084900  1
  O  O21  1  0.77551600  0.22977000  0.10829300  1
  O  O22  1  0.64229100  0.62004900  0.35549900  1
  O  O23  1  0.57140800  0.78288800  0.09693500  1
loop_
_geom_bond_atom_site_label_1
_geom_bond_atom_site_label_2
_geom_bond_distance
_geom_bond_site_symmetry_2
Fe0 O10 2.012061 1_555
Fe0 O23 2.012061 1_555
Fe0 O12 2.012581 1_555
Fe0 O22 2.012581 1_555
Fe0 O8 2.044983 1_555
Fe0 O4 2.044983 1_555
Fe1 O5 2.012061 1_555
Fe1 O6 2.012061 1_555
Fe1 O13 2.012581 1_555
Fe1 O0 2.012581 1_555
Fe1 O19 2.044983 1_555
Fe1 O1 2.044983 1_555
O0 P1 1.498456 1_555
O1 P3 1.511205 1_555
O2 P3 1.586167 1_455
O2 P6 1.603942 1_556
O3 P0 1.604256 1_455
O3 P2 1.625006 1_555
O4 P2 1.511205 1_555
O5 P6 1.504057 1_556
O6 P0 1.504057 1_555
O7 P6 1.604256 1_565
O7 P5 1.625006 1_555
O8 P5 1.511205 1_555
O9 P7 1.503934 1_555
O10 P4 1.504057 1_555
O11 P2 1.586167 1_545
O11 P4 1.603942 1_555
O12 P6 1.498456 1_555
O13 P4 1.498456 1_555
O14 P5 1.503934 1_556
O15 P1 1.604256 1_545
O15 P3 1.625006 1_555
O16 P5 1.586167 1_655
O16 P1 1.603942 1_554
O17 P4 1.604256 1_655
O17 P7 1.625006 1_555
O18 P2 1.503934 1_555
O19 P7 1.511205 1_555
O20 P7 1.586167 1_565
O20 P0 1.603942 1_555
O21 P3 1.503934 1_554
O22 P0 1.498456 1_555
O23 P1 1.504057 1_554
