# generated using pymatgen
data_Na8Sc3NbSi5SO24
_symmetry_space_group_name_H-M   'P 1'
_cell_length_a   9.20958397
_cell_length_b   9.19494315
_cell_length_c   22.58049686
_cell_angle_alpha   89.91168285
_cell_angle_beta   90.14499695
_cell_angle_gamma   119.99993772
_symmetry_Int_Tables_number   1
_chemical_formula_structural   Na8Sc3NbSi5SO24
_chemical_formula_sum   'Na24 Sc9 Nb3 Si15 S3 O72'
_cell_volume   1655.96840382
_cell_formula_units_Z   3
loop_
 _symmetry_equiv_pos_site_id
 _symmetry_equiv_pos_as_xyz
  1  'x, y, z'
loop_
 _atom_site_type_symbol
 _atom_site_label
 _atom_site_symmetry_multiplicity
 _atom_site_fract_x
 _atom_site_fract_y
 _atom_site_fract_z
 _atom_site_occupancy
  Na  Na0  1  0.61789846  0.99842685  0.25164287  1
  Na  Na1  1  0.36595868  0.35575266  0.25462907  1
  Na  Na2  1  0.01199354  0.64428642  0.24910722  1
  Na  Na3  1  0.63869835  0.62164857  0.74683660  1
  Na  Na4  1  0.99856062  0.36605688  0.74002870  1
  Na  Na5  1  0.35665669  0.00719398  0.74358272  1
  Na  Na6  1  0.29700392  0.33997362  0.58205748  1
  Na  Na7  1  0.04064822  0.70243350  0.58245102  1
  Na  Na8  1  0.66322493  0.95962143  0.57872759  1
  Na  Na9  1  0.29901522  0.95749500  0.08307651  1
  Na  Na10  1  0.66032876  0.70261718  0.07975038  1
  Na  Na11  1  0.04056281  0.33831668  0.08028489  1
  Na  Na12  1  0.96880976  0.67594507  0.91522240  1
  Na  Na13  1  0.70315725  0.02631303  0.91868177  1
  Na  Na14  1  0.32389006  0.29490247  0.91446089  1
  Na  Na15  1  0.97513949  0.30273649  0.42089356  1
  Na  Na16  1  0.33032042  0.02630078  0.41735933  1
  Na  Na17  1  0.69677309  0.67333874  0.42060009  1
  Na  Na18  1  0.99879204  0.00079477  0.50189283  1
  Na  Na19  1  0.99819056  0.99879339  0.99918042  1
  Na  Na20  1  0.66492543  0.34271750  0.83043999  1
  Na  Na21  1  0.65525259  0.32384360  0.33801790  1
  Na  Na22  1  0.33159269  0.67594748  0.16104266  1
  Na  Na23  1  0.32763699  0.66212341  0.65666783  1
  Sc  Sc0  1  0.01397873  0.00361173  0.35646340  1
  Sc  Sc1  1  0.00983099  0.99688434  0.85213328  1
  Sc  Sc2  1  0.01668226  0.00497889  0.64410415  1
  Sc  Sc3  1  0.01106395  0.99562038  0.14209496  1
  Sc  Sc4  1  0.66620053  0.34102076  0.68143419  1
  Sc  Sc5  1  0.65691591  0.32497469  0.18032675  1
  Sc  Sc6  1  0.33329641  0.66682236  0.01854408  1
  Sc  Sc7  1  0.33356837  0.66734680  0.51694907  1
  Sc  Sc8  1  0.33117539  0.67573120  0.32300229  1
  Nb  Nb0  1  0.66538621  0.33300332  0.98111692  1
  Nb  Nb1  1  0.66696159  0.33399433  0.48243344  1
  Nb  Nb2  1  0.32145791  0.65631127  0.81758632  1
  Si  Si0  1  0.29771779  0.99877181  0.24973301  1
  Si  Si1  1  0.29516095  0.29540054  0.75100390  1
  Si  Si2  1  0.00021720  0.70447703  0.75075410  1
  Si  Si3  1  0.95987545  0.33277256  0.58548725  1
  Si  Si4  1  0.37694260  0.03954145  0.58534881  1
  Si  Si5  1  0.66599961  0.63009903  0.58436304  1
  Si  Si6  1  0.95793513  0.62233859  0.08569680  1
  Si  Si7  1  0.66746375  0.03878204  0.08427613  1
  Si  Si8  1  0.37374933  0.33647929  0.08415976  1
  Si  Si9  1  0.62652171  0.66774832  0.91828173  1
  Si  Si10  1  0.03448918  0.36813894  0.91993606  1
  Si  Si11  1  0.33613693  0.95984339  0.91816200  1
  Si  Si12  1  0.63105563  0.96464265  0.41698428  1
  Si  Si13  1  0.33672402  0.37646715  0.41606325  1
  Si  Si14  1  0.03496101  0.66280956  0.41717350  1
  S  S0  1  0.70693491  0.70759599  0.24941167  1
  S  S1  1  0.00033901  0.29274047  0.24931804  1
  S  S2  1  0.70459268  0.99606174  0.75111438  1
  O  O0  1  0.20617145  0.02753855  0.30681964  1
  O  O1  1  0.80813174  0.79009396  0.30262680  1
  O  O2  1  0.97541841  0.18926053  0.30256202  1
  O  O3  1  0.20613565  0.18419044  0.80981022  1
  O  O4  1  0.96980665  0.78854844  0.80938397  1
  O  O5  1  0.80612496  0.01912008  0.80449515  1
  O  O6  1  0.78155006  0.97062810  0.69805581  1
  O  O7  1  0.17414719  0.21923266  0.69307678  1
  O  O8  1  0.03966467  0.82532767  0.69301835  1
  O  O9  1  0.78618946  0.81087577  0.19599203  1
  O  O10  1  0.01800553  0.20940229  0.19598542  1
  O  O11  1  0.17826226  0.97143656  0.19132444  1
  O  O12  1  0.87344326  0.36108356  0.64363975  1
  O  O13  1  0.48998756  0.12457705  0.64392116  1
  O  O14  1  0.63488887  0.51435458  0.64277718  1
  O  O15  1  0.87187369  0.50871767  0.14393731  1
  O  O16  1  0.63594357  0.12447123  0.14203375  1
  O  O17  1  0.48972715  0.36729107  0.14209633  1
  O  O18  1  0.47304763  0.30762295  0.02612194  1
  O  O19  1  0.83215630  0.52260068  0.02681801  1
  O  O20  1  0.69309934  0.16557011  0.02572496  1
  O  O21  1  0.47609237  0.16473929  0.52714590  1
  O  O22  1  0.69157480  0.52895299  0.52657302  1
  O  O23  1  0.83542111  0.31044654  0.52700669  1
  O  O24  1  0.54270367  0.69827068  0.97573328  1
  O  O25  1  0.15509844  0.45346078  0.97569523  1
  O  O26  1  0.30229668  0.84340942  0.97524535  1
  O  O27  1  0.54854871  0.84519198  0.47417465  1
  O  O28  1  0.30171161  0.45911616  0.47345364  1
  O  O29  1  0.15585386  0.70187784  0.47387746  1
  O  O30  1  0.11224128  0.62349631  0.35746500  1
  O  O31  1  0.51185287  0.88629871  0.35758685  1
  O  O32  1  0.37232314  0.49118619  0.35592350  1
  O  O33  1  0.13195069  0.49708285  0.86109783  1
  O  O34  1  0.36621270  0.86422282  0.85966939  1
  O  O35  1  0.49916765  0.63698061  0.86005731  1
  O  O36  1  0.00669603  0.82454340  0.40973550  1
  O  O37  1  0.81853307  0.99078962  0.40752204  1
  O  O38  1  0.17085618  0.18743945  0.41092886  1
  O  O39  1  0.00694467  0.18257819  0.90933079  1
  O  O40  1  0.17343354  0.98450888  0.91147338  1
  O  O41  1  0.81132860  0.83098857  0.90997878  1
  O  O42  1  0.96632773  0.15832345  0.58618533  1
  O  O43  1  0.19554036  0.03303798  0.58481816  1
  O  O44  1  0.83777606  0.81198517  0.58700841  1
  O  O45  1  0.96443136  0.80414524  0.08540803  1
  O  O46  1  0.83934136  0.02940532  0.08740424  1
  O  O47  1  0.19130246  0.16400713  0.08562137  1
  O  O48  1  0.68424146  0.14543646  0.74711879  1
  O  O49  1  0.48246627  0.31562825  0.74801139  1
  O  O50  1  0.84104513  0.51213286  0.74786217  1
  O  O51  1  0.69413240  0.53946481  0.24593896  1
  O  O52  1  0.85122460  0.31541192  0.24579193  1
  O  O53  1  0.48701902  0.17042566  0.24743843  1
  O  O54  1  0.63766547  0.49287983  0.92186432  1
  O  O55  1  0.85308984  0.36366595  0.92182809  1
  O  O56  1  0.50922008  0.14598327  0.92154445  1
  O  O57  1  0.64655263  0.15223159  0.42393053  1
  O  O58  1  0.50511288  0.35501044  0.42319576  1
  O  O59  1  0.84719347  0.49298544  0.42356872  1
  O  O60  1  0.35526269  0.50131558  0.07869869  1
  O  O61  1  0.14219880  0.64280764  0.07904577  1
  O  O62  1  0.50053663  0.85585572  0.07844632  1
  O  O63  1  0.35689576  0.85523304  0.57886334  1
  O  O64  1  0.49853266  0.64486646  0.57830651  1
  O  O65  1  0.14330855  0.49966207  0.57866057  1
  O  O66  1  0.31464779  0.82693541  0.25272115  1
  O  O67  1  0.53583160  0.68566160  0.25301240  1
  O  O68  1  0.15531867  0.46031282  0.25317317  1
  O  O69  1  0.31847163  0.49064911  0.75917615  1
  O  O70  1  0.17788490  0.69176137  0.75916407  1
  O  O71  1  0.53444492  0.84266309  0.75620606  1
loop_
_geom_bond_atom_site_label_1
_geom_bond_atom_site_label_2
_geom_bond_distance
_geom_bond_site_symmetry_2
Na0 O53 2.422458 1_565
Na0 O66 2.425539 1_555
Na0 O67 2.582446 1_555
Na0 O31 2.595582 1_555
Na0 O52 2.620559 1_565
Na0 O16 2.701338 1_565
Na1 O53 2.464735 1_555
Na1 O68 2.559943 1_555
Na1 O32 2.592483 1_555
Na1 O67 2.627761 1_555
Na1 O51 2.631182 1_555
Na1 O17 2.767731 1_555
Na1 O0 2.866861 1_555
Na2 O66 2.431970 1_555
Na2 O51 2.584811 1_455
Na2 O68 2.616129 1_555
Na2 O52 2.620131 1_455
Na2 O30 2.653154 1_555
Na2 O15 2.691425 1_455
Na2 O11 2.913381 1_555
Na3 O49 2.437204 1_555
Na3 O50 2.522612 1_555
Na3 O14 2.543188 1_555
Na3 O69 2.583956 1_555
Na3 O71 2.655194 1_555
Na3 O35 2.899336 1_555
Na3 O4 2.992276 1_555
Na3 O6 3.002612 1_555
Na4 O50 2.426983 1_555
Na4 O12 2.449889 1_555
Na4 O48 2.578658 1_555
Na4 O69 2.607597 1_655
Na4 O70 2.633933 1_655
Na4 O7 2.785279 1_655
Na4 O33 2.991223 1_655
Na5 O49 2.471819 1_555
Na5 O13 2.533426 1_555
Na5 O70 2.543867 1_545
Na5 O48 2.624529 1_555
Na5 O71 2.743043 1_545
Na5 O8 2.780263 1_545
Na5 O34 2.951447 1_545
Na5 O3 3.013427 1_555
Na6 O64 2.471476 1_555
Na6 O43 2.490928 1_555
Na6 O65 2.498578 1_555
Na6 O42 2.643337 1_455
Na6 O28 2.675947 1_555
Na6 O7 2.747141 1_555
Na7 O65 2.478135 1_555
Na7 O63 2.524296 1_555
Na7 O44 2.529708 1_455
Na7 O43 2.634845 1_565
Na7 O29 2.674869 1_555
Na7 O8 2.743971 1_555
Na8 O42 2.461124 1_565
Na8 O63 2.484439 1_555
Na8 O64 2.507401 1_555
Na8 O44 2.577194 1_555
Na8 O27 2.584555 1_555
Na8 O6 2.886818 1_555
Na9 O62 2.462638 1_555
Na9 O61 2.507557 1_555
Na9 O47 2.545058 1_565
Na9 O26 2.658934 1_554
Na9 O45 2.672379 1_455
Na9 O11 2.717538 1_555
Na10 O45 2.472961 1_555
Na10 O60 2.473774 1_555
Na10 O62 2.495006 1_555
Na10 O24 2.576018 1_554
Na10 O46 2.612093 1_565
Na10 O9 2.839512 1_555
Na11 O61 2.468788 1_555
Na11 O46 2.502879 1_455
Na11 O60 2.510782 1_555
Na11 O25 2.588295 1_554
Na11 O47 2.595036 1_555
Na11 O10 2.832091 1_555
Na12 O41 2.493212 1_555
Na12 O40 2.502336 1_655
Na12 O55 2.518386 1_555
Na12 O4 2.601273 1_555
Na12 O54 2.650405 1_555
Na12 O19 2.855235 1_556
Na12 O26 2.982769 1_655
Na12 O33 2.990374 1_655
Na13 O39 2.432831 1_655
Na13 O41 2.459256 1_545
Na13 O56 2.524122 1_555
Na13 O55 2.692716 1_555
Na13 O20 2.760391 1_556
Na13 O5 2.761765 1_555
Na13 O24 2.912365 1_545
Na13 O34 2.997764 1_545
Na14 O40 2.472974 1_545
Na14 O54 2.535827 1_555
Na14 O39 2.565980 1_555
Na14 O3 2.585908 1_555
Na14 O56 2.673737 1_555
Na14 O18 2.842648 1_556
Na14 O25 2.955902 1_555
Na14 O35 2.988156 1_555
Na15 O37 2.502440 1_545
Na15 O38 2.517362 1_655
Na15 O59 2.552298 1_555
Na15 O57 2.624945 1_555
Na15 O23 2.740316 1_555
Na15 O28 2.860827 1_655
Na15 O2 2.870455 1_555
Na15 O30 2.935389 1_655
Na16 O57 2.543764 1_555
Na16 O38 2.558790 1_555
Na16 O36 2.612182 1_545
Na16 O58 2.622731 1_555
Na16 O0 2.745197 1_555
Na16 O21 2.802188 1_555
Na16 O29 2.883501 1_545
Na16 O31 2.905655 1_545
Na17 O36 2.484783 1_655
Na17 O58 2.553419 1_555
Na17 O37 2.567240 1_555
Na17 O59 2.640105 1_555
Na17 O22 2.723631 1_555
Na17 O27 2.827583 1_555
Na17 O1 2.864378 1_555
Na17 O32 2.974450 1_555
Na18 O42 2.500939 1_555
Na18 O43 2.514897 1_655
Na18 O44 2.517259 1_545
Na18 O38 2.638450 1_655
Na18 O36 2.662937 1_645
Na18 O37 2.671199 1_545
Na19 O45 2.554778 1_556
Na19 O47 2.563282 1_666
Na19 O46 2.572213 1_566
Na19 O41 2.595398 1_555
Na19 O40 2.602535 1_655
Na19 O39 2.613901 1_665
Na20 O49 2.432509 1_555
Na20 O50 2.452361 1_555
Na20 O54 2.566959 1_555
Na20 O55 2.635874 1_555
Na20 O56 2.640093 1_555
Na20 O48 2.682704 1_555
Na21 O58 2.470785 1_555
Na21 O57 2.474815 1_555
Na21 O53 2.526085 1_555
Na21 O59 2.553057 1_555
Na21 O51 2.768246 1_555
Na21 O52 2.785619 1_555
Na22 O61 2.453015 1_555
Na22 O62 2.463163 1_555
Na22 O60 2.538588 1_555
Na22 O66 2.542529 1_555
Na22 O67 2.769755 1_555
Na22 O68 2.771315 1_555
Na23 O65 2.381823 1_555
Na23 O63 2.413787 1_555
Na23 O64 2.428555 1_555
Na23 O69 2.776244 1_555
Na23 O70 2.779712 1_555
Na23 O71 2.874582 1_555
Nb0 O19 1.945008 1_556
Nb0 O18 1.954458 1_556
Nb0 O20 1.958766 1_556
Nb0 O56 2.087885 1_555
Nb0 O55 2.093627 1_555
Nb0 O54 2.093768 1_555
Nb1 O23 1.947874 1_555
Nb1 O21 1.949308 1_555
Nb1 O22 1.963755 1_555
Nb1 O59 2.058566 1_555
Nb1 O57 2.065209 1_555
Nb1 O58 2.079778 1_555
Nb2 O33 1.898396 1_555
Nb2 O35 1.977954 1_555
Nb2 O34 1.985764 1_555
Nb2 O70 2.003930 1_555
Nb2 O69 2.006179 1_555
Nb2 O71 2.313008 1_555
O0 Si0 1.634620 1_545
O0 Sc0 2.014404 1_555
O1 S0 1.475833 1_555
O1 Sc0 2.280352 1_665
O2 S1 1.477489 1_655
O2 Sc0 2.262534 1_655
O3 Si1 1.626054 1_555
O3 Sc1 2.009474 1_545
O4 Si2 1.627955 1_655
O4 Sc1 2.008762 1_655
O5 S2 1.472767 1_545
O5 Sc1 2.256358 1_645
O6 S2 1.470829 1_555
O6 Sc2 2.366720 1_665
O7 Si1 1.630464 1_555
O7 Sc2 2.085344 1_555
O8 Si2 1.631151 1_555
O8 Sc2 2.082373 1_565
O9 S0 1.482359 1_555
O9 Sc3 2.268077 1_655
O10 S1 1.480698 1_555
O10 Sc3 2.286965 1_545
O11 Si0 1.652308 1_555
O11 Sc3 1.997301 1_555
O12 Si3 1.624565 1_555
O12 Sc4 2.015154 1_555
O13 Si4 1.620706 1_555
O13 Sc4 2.020018 1_555
O14 Si5 1.627028 1_555
O14 Sc4 1.959417 1_555
O15 Si6 1.619307 1_555
O15 Sc5 2.026820 1_555
O16 Si7 1.624745 1_555
O16 Sc5 1.957518 1_555
O17 Si8 1.619897 1_555
O17 Sc5 1.964372 1_555
O18 Si8 1.695275 1_555
O19 Si6 1.698267 1_555
O20 Si7 1.698360 1_555
O21 Si4 1.684197 1_555
O22 Si5 1.687491 1_555
O23 Si3 1.690417 1_555
O24 Si9 1.606369 1_555
O24 Sc6 2.046541 1_556
O25 Si10 1.599712 1_555
O25 Sc6 2.063123 1_556
O26 Si11 1.602775 1_555
O26 Sc6 2.032510 1_556
O27 Si12 1.617847 1_555
O27 Sc7 2.072225 1_555
O28 Si13 1.615879 1_555
O28 Sc7 2.039424 1_555
O29 Si14 1.613172 1_555
O29 Sc7 2.058175 1_555
O30 Si14 1.648823 1_555
O30 Sc8 1.984959 1_555
O31 Si12 1.651573 1_555
O31 Sc8 1.975787 1_555
O32 Si13 1.648119 1_555
O32 Sc8 2.052643 1_555
O33 Si10 1.706905 1_555
O34 Si11 1.686183 1_555
O35 Si9 1.686931 1_555
O36 Si14 1.641236 1_555
O36 Sc0 2.011566 1_565
O37 Si12 1.634370 1_555
O37 Sc0 2.093065 1_665
O38 Si13 1.646987 1_555
O38 Sc0 2.003079 1_555
O39 Si10 1.612767 1_555
O39 Sc1 2.153260 1_545
O40 Si11 1.630378 1_555
O40 Sc1 2.058956 1_555
O41 Si9 1.622028 1_555
O41 Sc1 2.142970 1_655
O42 Si3 1.634622 1_555
O42 Sc2 2.135111 1_655
O43 Si4 1.641570 1_555
O43 Sc2 2.038900 1_555
O44 Si5 1.630139 1_555
O44 Sc2 2.144399 1_665
O45 Si6 1.642609 1_555
O45 Sc3 2.042219 1_655
O46 Si7 1.629096 1_555
O46 Sc3 2.145445 1_645
O47 Si8 1.635481 1_555
O47 Sc3 2.052632 1_545
O48 S2 1.478753 1_545
O48 Sc4 2.398121 1_555
O49 Si1 1.641497 1_555
O49 Sc4 2.189643 1_555
O50 Si2 1.639621 1_655
O50 Sc4 2.186287 1_555
O51 S0 1.492676 1_555
O51 Sc5 2.352152 1_555
O52 S1 1.490427 1_655
O52 Sc5 2.353464 1_555
O53 Si0 1.667873 1_545
O53 Sc5 2.132133 1_555
O54 Si9 1.663434 1_555
O55 Si10 1.651093 1_655
O56 Si11 1.657613 1_545
O57 Si12 1.665741 1_545
O58 Si13 1.665658 1_555
O59 Si14 1.658265 1_655
O60 Si8 1.612074 1_555
O60 Sc6 2.121795 1_555
O61 Si6 1.618508 1_455
O61 Sc6 2.152933 1_555
O62 Si7 1.619785 1_565
O62 Sc6 2.131337 1_555
O63 Si4 1.617191 1_565
O63 Sc7 2.149442 1_555
O64 Si5 1.619917 1_555
O64 Sc7 2.138437 1_555
O65 Si3 1.625018 1_455
O65 Sc7 2.166431 1_555
O66 Si0 1.664728 1_555
O66 Sc8 2.162927 1_555
O67 S0 1.487678 1_555
O67 Sc8 2.429201 1_555
O68 S1 1.489785 1_555
O68 Sc8 2.412751 1_555
O69 Si1 1.708404 1_555
O70 Si2 1.707835 1_555
O71 S2 1.499451 1_555
