# generated using pymatgen
data_ZnH12N4(ClO4)2
_symmetry_space_group_name_H-M   'P 1'
_cell_length_a   7.36308877
_cell_length_b   7.36308877
_cell_length_c   7.36308877
_cell_angle_alpha   60.00000000
_cell_angle_beta   60.00000000
_cell_angle_gamma   60.00000000
_symmetry_Int_Tables_number   1
_chemical_formula_structural   ZnH12N4(ClO4)2
_chemical_formula_sum   'Zn1 H12 N4 Cl2 O8'
_cell_volume   282.27025229
_cell_formula_units_Z   1
loop_
 _symmetry_equiv_pos_site_id
 _symmetry_equiv_pos_as_xyz
  1  'x, y, z'
loop_
 _atom_site_type_symbol
 _atom_site_label
 _atom_site_symmetry_multiplicity
 _atom_site_fract_x
 _atom_site_fract_y
 _atom_site_fract_z
 _atom_site_occupancy
  Zn  Zn0  1  0.00000000  0.00000000  0.00000000  1
  H  H0  1  0.40076200  0.79127400  0.79127400  1
  H  H1  1  0.01669000  0.79127400  0.40076200  1
  H  H2  1  0.01669000  0.40076200  0.79127400  1
  H  H3  1  0.79127400  0.79127400  0.01669000  1
  H  H4  1  0.79127400  0.01669000  0.79127400  1
  H  H5  1  0.79127400  0.40076200  0.01669000  1
  H  H6  1  0.79127400  0.01669000  0.40076200  1
  H  H7  1  0.40076200  0.01669000  0.79127400  1
  H  H8  1  0.79127400  0.79127400  0.40076200  1
  H  H9  1  0.79127400  0.40076200  0.79127400  1
  H  H10  1  0.40076200  0.79127400  0.01669000  1
  H  H11  1  0.01669000  0.79127400  0.79127400  1
  N  N0  1  0.34070100  0.88643300  0.88643300  1
  N  N1  1  0.88643300  0.34070100  0.88643300  1
  N  N2  1  0.88643300  0.88643300  0.34070100  1
  N  N3  1  0.88643300  0.88643300  0.88643300  1
  Cl  Cl0  1  0.25000000  0.25000000  0.25000000  1
  Cl  Cl1  1  0.50000000  0.50000000  0.50000000  1
  O  O0  1  0.16888300  0.16888300  0.49335100  1
  O  O1  1  0.16888300  0.49335100  0.16888300  1
  O  O2  1  0.49335100  0.16888300  0.16888300  1
  O  O3  1  0.16888300  0.16888300  0.16888300  1
  O  O4  1  0.58117600  0.58117600  0.58117600  1
  O  O5  1  0.58117600  0.58117600  0.25647200  1
  O  O6  1  0.58117600  0.25647200  0.58117600  1
  O  O7  1  0.25647200  0.58117600  0.58117600  1
loop_
_geom_bond_atom_site_label_1
_geom_bond_atom_site_label_2
_geom_bond_distance
_geom_bond_site_symmetry_2
H0 N0 1.024034 1_555
H1 N2 1.024034 1_455
H2 N1 1.024034 1_455
H3 N3 1.024034 1_554
H4 N3 1.024034 1_545
H5 N1 1.024034 1_554
H6 N2 1.024034 1_545
H7 N0 1.024034 1_545
H8 N2 1.024034 1_555
H9 N1 1.024034 1_555
H10 N0 1.024034 1_554
H11 N3 1.024034 1_455
N0 Zn0 2.048273 1_566
N1 Zn0 2.048273 1_656
N2 Zn0 2.048273 1_665
N3 Zn0 2.048273 1_666
Cl0 O2 1.463011 1_555
Cl0 O1 1.463011 1_555
Cl0 O3 1.463011 1_555
Cl0 O0 1.463011 1_555
Cl1 O6 1.464075 1_555
Cl1 O5 1.464075 1_555
Cl1 O7 1.464075 1_555
Cl1 O4 1.464075 1_555
