# generated using pymatgen
data_Li3Sn2(PO4)3
_symmetry_space_group_name_H-M   'P 1'
_cell_length_a   8.90902600
_cell_length_b   8.77270500
_cell_length_c   15.61539647
_cell_angle_alpha   57.40950034
_cell_angle_beta   90.00000000
_cell_angle_gamma   90.00000000
_symmetry_Int_Tables_number   1
_chemical_formula_structural   Li3Sn2(PO4)3
_chemical_formula_sum   'Li12 Sn8 P12 O48'
_cell_volume   1028.27240759
_cell_formula_units_Z   4
loop_
 _symmetry_equiv_pos_site_id
 _symmetry_equiv_pos_as_xyz
  1  'x, y, z'
loop_
 _atom_site_type_symbol
 _atom_site_label
 _atom_site_symmetry_multiplicity
 _atom_site_fract_x
 _atom_site_fract_y
 _atom_site_fract_z
 _atom_site_occupancy
  Li  Li0  1  0.88976200  0.39674300  0.68933200  1
  Li  Li1  1  0.27443400  0.39940100  0.74612700  1
  Li  Li2  1  0.22325900  0.02276700  0.16331500  1
  Li  Li3  1  0.72325900  0.97723300  0.33668500  1
  Li  Li4  1  0.77443400  0.60059900  0.75387300  1
  Li  Li5  1  0.38976200  0.60325700  0.81066800  1
  Li  Li6  1  0.61023800  0.39674300  0.18933200  1
  Li  Li7  1  0.22556600  0.39940100  0.24612700  1
  Li  Li8  1  0.27674100  0.02276700  0.66331500  1
  Li  Li9  1  0.77674100  0.97723300  0.83668500  1
  Li  Li10  1  0.72556600  0.60059900  0.25387300  1
  Li  Li11  1  0.11023800  0.60325700  0.31066800  1
  Sn  Sn0  1  0.97012500  0.30095100  0.92839400  1
  Sn  Sn1  1  0.05599600  0.84837100  0.40287600  1
  Sn  Sn2  1  0.55599600  0.15162900  0.09712400  1
  Sn  Sn3  1  0.47012500  0.69904900  0.57160600  1
  Sn  Sn4  1  0.52987500  0.30095100  0.42839400  1
  Sn  Sn5  1  0.44400400  0.84837100  0.90287600  1
  Sn  Sn6  1  0.94400400  0.15162900  0.59712400  1
  Sn  Sn7  1  0.02987500  0.69904900  0.07160600  1
  P  P0  1  0.76135300  0.56142100  0.48404800  1
  P  P1  1  0.59173700  0.25437200  0.85302700  1
  P  P2  1  0.90081800  0.94079200  0.17299000  1
  P  P3  1  0.09173700  0.74562800  0.64697300  1
  P  P4  1  0.40081800  0.05920800  0.32701000  1
  P  P5  1  0.26135300  0.43857900  0.01595200  1
  P  P6  1  0.73864700  0.56142100  0.98404800  1
  P  P7  1  0.59918200  0.94079200  0.67299000  1
  P  P8  1  0.90826300  0.25437200  0.35302700  1
  P  P9  1  0.09918200  0.05920800  0.82701000  1
  P  P10  1  0.40826300  0.74562800  0.14697300  1
  P  P11  1  0.23864700  0.43857900  0.51595200  1
  O  O0  1  0.12792900  0.59495300  0.44142300  1
  O  O1  1  0.14985200  0.20189300  0.84882700  1
  O  O2  1  0.27944700  0.44625900  0.60802700  1
  O  O3  1  0.44098600  0.91139700  0.15853600  1
  O  O4  1  0.62734900  0.53906700  0.55166100  1
  O  O5  1  0.99552600  0.84299900  0.27375800  1
  O  O6  1  0.73360300  0.34242600  0.78979700  1
  O  O7  1  0.63259800  0.16904100  0.96933900  1
  O  O8  1  0.01337100  0.07959600  0.09338700  1
  O  O9  1  0.45955300  0.38448100  0.81883400  1
  O  O10  1  0.83867300  0.74726900  0.45052400  1
  O  O11  1  0.75736100  0.03284300  0.18572600  1
  O  O12  1  0.25736100  0.96715700  0.31427400  1
  O  O13  1  0.95955300  0.61551900  0.68116600  1
  O  O14  1  0.33867300  0.25273100  0.04947600  1
  O  O15  1  0.51337100  0.92040400  0.40661300  1
  O  O16  1  0.13259800  0.83095900  0.53066100  1
  O  O17  1  0.23360300  0.65757400  0.71020300  1
  O  O18  1  0.49552600  0.15700100  0.22624200  1
  O  O19  1  0.12734900  0.46093300  0.94833900  1
  O  O20  1  0.77944700  0.55374100  0.89197300  1
  O  O21  1  0.94098600  0.08860300  0.34146400  1
  O  O22  1  0.64985200  0.79810700  0.65117300  1
  O  O23  1  0.62792900  0.40504700  0.05857700  1
  O  O24  1  0.37207100  0.59495300  0.94142300  1
  O  O25  1  0.35014800  0.20189300  0.34882700  1
  O  O26  1  0.05901400  0.91139700  0.65853600  1
  O  O27  1  0.22055300  0.44625900  0.10802700  1
  O  O28  1  0.87265100  0.53906700  0.05166100  1
  O  O29  1  0.50447400  0.84299900  0.77375800  1
  O  O30  1  0.76639700  0.34242600  0.28979700  1
  O  O31  1  0.86740200  0.16904100  0.46933900  1
  O  O32  1  0.48662900  0.07959600  0.59338700  1
  O  O33  1  0.66132700  0.74726900  0.95052400  1
  O  O34  1  0.04044700  0.38448100  0.31883400  1
  O  O35  1  0.74263900  0.03284300  0.68572600  1
  O  O36  1  0.24263900  0.96715700  0.81427400  1
  O  O37  1  0.16132700  0.25273100  0.54947600  1
  O  O38  1  0.54044700  0.61551900  0.18116600  1
  O  O39  1  0.98662900  0.92040400  0.90661300  1
  O  O40  1  0.36740200  0.83095900  0.03066100  1
  O  O41  1  0.26639700  0.65757400  0.21020300  1
  O  O42  1  0.00447400  0.15700100  0.72624200  1
  O  O43  1  0.37265100  0.46093300  0.44833900  1
  O  O44  1  0.55901400  0.08860300  0.84146400  1
  O  O45  1  0.72055300  0.55374100  0.39197300  1
  O  O46  1  0.85014800  0.79810700  0.15117300  1
  O  O47  1  0.87207100  0.40504700  0.55857700  1
loop_
_geom_bond_atom_site_label_1
_geom_bond_atom_site_label_2
_geom_bond_distance
_geom_bond_site_symmetry_2
Li0 O6 1.954072 1_555
Li0 O13 1.955189 1_555
Li0 O47 2.009683 1_555
Li0 O42 2.119942 1_655
Li1 O1 1.952571 1_555
Li1 O9 1.966220 1_555
Li1 O2 1.966328 1_555
Li1 O17 2.051338 1_555
Li2 O8 2.085900 1_555
Li2 O14 2.103303 1_555
Li2 O12 2.155978 1_545
Li2 O3 2.191175 1_545
Li2 O5 2.578330 1_445
Li3 O15 2.085900 1_555
Li3 O10 2.103303 1_555
Li3 O11 2.155978 1_565
Li3 O21 2.191175 1_565
Li3 O18 2.578330 1_565
Li4 O22 1.952571 1_555
Li4 O13 1.966220 1_555
Li4 O20 1.966328 1_555
Li4 O6 2.051338 1_555
Li5 O17 1.954072 1_555
Li5 O9 1.955189 1_555
Li5 O24 2.009683 1_555
Li5 O29 2.119942 1_555
Li6 O30 1.954072 1_555
Li6 O38 1.955189 1_555
Li6 O23 2.009683 1_555
Li6 O18 2.119942 1_555
Li7 O25 1.952571 1_555
Li7 O34 1.966220 1_555
Li7 O27 1.966328 1_555
Li7 O41 2.051338 1_555
Li8 O32 2.085900 1_555
Li8 O37 2.103303 1_555
Li8 O36 2.155978 1_545
Li8 O26 2.191175 1_545
Li8 O29 2.578330 1_545
Li9 O39 2.085900 1_555
Li9 O33 2.103303 1_555
Li9 O35 2.155978 1_565
Li9 O44 2.191175 1_565
Li9 O42 2.578330 1_665
Li10 O46 1.952571 1_555
Li10 O38 1.966220 1_555
Li10 O45 1.966328 1_555
Li10 O30 2.051338 1_555
Li11 O41 1.954072 1_555
Li11 O34 1.955189 1_555
Li11 O0 2.009683 1_555
Li11 O5 2.119942 1_455
O0 P11 1.577788 1_555
O0 Sn1 2.067337 1_555
O1 P9 1.531689 1_555
O1 Sn0 2.454762 1_455
O2 P11 1.519293 1_555
O2 Sn3 2.601637 1_555
O3 P10 1.585963 1_555
O3 Sn2 2.057623 1_565
O4 P0 1.534731 1_555
O4 Sn3 2.121231 1_555
O5 P2 1.571524 1_555
O5 Sn1 2.111868 1_655
O6 P1 1.532113 1_555
O7 P1 1.589661 1_555
O7 Sn2 2.035287 1_556
O8 P2 1.550098 1_445
O8 Sn0 2.273250 1_454
O9 P1 1.522560 1_555
O10 P0 1.577113 1_555
O10 Sn1 2.092361 1_655
O11 P2 1.580544 1_545
O11 Sn2 2.159930 1_555
O12 P4 1.580544 1_565
O12 Sn1 2.159930 1_555
O13 P3 1.522560 1_655
O14 P5 1.577113 1_555
O14 Sn2 2.092361 1_555
O15 P4 1.550098 1_565
O15 Sn3 2.273250 1_555
O16 P3 1.589661 1_555
O16 Sn1 2.035287 1_555
O17 P3 1.532113 1_555
O18 P4 1.571524 1_555
O18 Sn2 2.111868 1_555
O19 P5 1.534731 1_556
O19 Sn0 2.121231 1_455
O20 P6 1.519293 1_555
O20 Sn0 2.601637 1_555
O21 P8 1.585963 1_555
O21 Sn1 2.057623 1_645
O22 P7 1.531689 1_555
O22 Sn3 2.454762 1_555
O23 P6 1.577788 1_554
O23 Sn2 2.067337 1_555
O24 P5 1.577788 1_556
O24 Sn5 2.067337 1_555
O25 P4 1.531689 1_555
O25 Sn4 2.454762 1_555
O26 P3 1.585963 1_555
O26 Sn6 2.057623 1_465
O27 P5 1.519293 1_555
O27 Sn7 2.601637 1_555
O28 P6 1.534731 1_554
O28 Sn7 2.121231 1_655
O29 P7 1.571524 1_555
O29 Sn5 2.111868 1_555
O30 P8 1.532113 1_555
O31 P8 1.589661 1_555
O31 Sn6 2.035287 1_555
O32 P7 1.550098 1_545
O32 Sn4 2.273250 1_555
O33 P6 1.577113 1_555
O33 Sn5 2.092361 1_555
O34 P8 1.522560 1_455
O35 P7 1.580544 1_545
O35 Sn6 2.159930 1_555
O36 P9 1.580544 1_565
O36 Sn5 2.159930 1_555
O37 P11 1.577113 1_555
O37 Sn6 2.092361 1_455
O38 P10 1.522560 1_555
O39 P9 1.550098 1_665
O39 Sn7 2.273250 1_656
O40 P10 1.589661 1_555
O40 Sn5 2.035287 1_554
O41 P10 1.532113 1_555
O42 P9 1.571524 1_555
O42 Sn6 2.111868 1_455
O43 P11 1.534731 1_555
O43 Sn4 2.121231 1_555
O44 P1 1.585963 1_555
O44 Sn5 2.057623 1_545
O45 P0 1.519293 1_555
O45 Sn4 2.601637 1_555
O46 P2 1.531689 1_555
O46 Sn7 2.454762 1_655
O47 P0 1.577788 1_555
O47 Sn6 2.067337 1_555
