# generated using pymatgen
data_ErAsS
_symmetry_space_group_name_H-M   'P 1'
_cell_length_a   3.80693600
_cell_length_b   3.82107000
_cell_length_c   8.47718700
_cell_angle_alpha   90.00000000
_cell_angle_beta   90.00000000
_cell_angle_gamma   90.00000000
_symmetry_Int_Tables_number   1
_chemical_formula_structural   ErAsS
_chemical_formula_sum   'Er2 As2 S2'
_cell_volume   123.31398513
_cell_formula_units_Z   2
loop_
 _symmetry_equiv_pos_site_id
 _symmetry_equiv_pos_as_xyz
  1  'x, y, z'
loop_
 _atom_site_type_symbol
 _atom_site_label
 _atom_site_symmetry_multiplicity
 _atom_site_fract_x
 _atom_site_fract_y
 _atom_site_fract_z
 _atom_site_occupancy
  Er  Er0  1  0.25000000  0.25000000  0.70860000  1
  Er  Er1  1  0.75000000  0.75000000  0.29140000  1
  As  As0  1  0.75000000  0.25000000  0.00292200  1
  As  As1  1  0.25000000  0.75000000  0.99707800  1
  S  S0  1  0.25000000  0.25000000  0.37485000  1
  S  S1  1  0.75000000  0.75000000  0.62515000  1
loop_
_geom_bond_atom_site_label_1
_geom_bond_atom_site_label_2
_geom_bond_distance
_geom_bond_site_symmetry_2
Er0 S1 2.788150 1_445
Er0 S1 2.788150 1_455
Er0 S1 2.788150 1_555
Er0 S1 2.788150 1_545
Er0 S0 2.829261 1_555
Er1 S0 2.788150 1_555
Er1 S0 2.788150 1_565
Er1 S0 2.788150 1_655
Er1 S0 2.788150 1_665
Er1 S1 2.829261 1_555
As0 As1 2.697367 1_544
As0 As1 2.697367 1_554
As0 As1 2.697367 1_654
As0 As1 2.697367 1_644
As0 Er1 3.103309 1_555
As0 Er1 3.103309 1_545
As0 Er0 3.138205 1_654
As0 Er0 3.138205 1_554
As1 Er0 3.103309 1_555
As1 Er0 3.103309 1_565
As1 Er1 3.138205 1_456
As1 Er1 3.138205 1_556
