# generated using pymatgen
data_Bi2(PO4)3
_symmetry_space_group_name_H-M   'P 1'
_cell_length_a   9.12076600
_cell_length_b   9.14101800
_cell_length_c   15.47386341
_cell_angle_alpha   54.48873889
_cell_angle_beta   90.00000000
_cell_angle_gamma   90.00000000
_symmetry_Int_Tables_number   1
_chemical_formula_structural   Bi2(PO4)3
_chemical_formula_sum   'Bi8 P12 O48'
_cell_volume   1050.14621676
_cell_formula_units_Z   4
loop_
 _symmetry_equiv_pos_site_id
 _symmetry_equiv_pos_as_xyz
  1  'x, y, z'
loop_
 _atom_site_type_symbol
 _atom_site_label
 _atom_site_symmetry_multiplicity
 _atom_site_fract_x
 _atom_site_fract_y
 _atom_site_fract_z
 _atom_site_occupancy
  Bi  Bi0  1  0.46219400  0.13143800  0.11870300  1
  Bi  Bi1  1  0.96219400  0.86856200  0.38129700  1
  Bi  Bi2  1  0.95793200  0.62922600  0.12155100  1
  Bi  Bi3  1  0.03780600  0.13143800  0.61870300  1
  Bi  Bi4  1  0.53780600  0.86856200  0.88129700  1
  Bi  Bi5  1  0.54206800  0.62922600  0.62155100  1
  Bi  Bi6  1  0.04206800  0.37077400  0.87844900  1
  Bi  Bi7  1  0.45793200  0.37077400  0.37844900  1
  P  P0  1  0.89340600  0.04921900  0.85175400  1
  P  P1  1  0.25241400  0.54057700  0.99846500  1
  P  P2  1  0.11170800  0.25068700  0.34714200  1
  P  P3  1  0.38829200  0.25068700  0.84714200  1
  P  P4  1  0.74758600  0.45942300  0.00153500  1
  P  P5  1  0.24758600  0.54057700  0.49846500  1
  P  P6  1  0.60659400  0.04921900  0.35175400  1
  P  P7  1  0.39340600  0.95078100  0.64824600  1
  P  P8  1  0.10659400  0.95078100  0.14824600  1
  P  P9  1  0.88829200  0.74931300  0.65285800  1
  P  P10  1  0.61170800  0.74931300  0.15285800  1
  P  P11  1  0.75241400  0.45942300  0.50153500  1
  O  O0  1  0.61507300  0.23119000  0.34065900  1
  O  O1  1  0.11507300  0.76881000  0.15934100  1
  O  O2  1  0.48132400  0.05472800  0.28215400  1
  O  O3  1  0.63278600  0.48032700  0.42379000  1
  O  O4  1  0.92831600  0.89253100  0.96638700  1
  O  O5  1  0.67975600  0.26966500  0.06289300  1
  O  O6  1  0.09099100  0.16927700  0.46501200  1
  O  O7  1  0.57168400  0.89253100  0.46638700  1
  O  O8  1  0.32024400  0.73033500  0.93710700  1
  O  O9  1  0.76726500  0.66710800  0.19420200  1
  O  O10  1  0.51867600  0.94527200  0.71784600  1
  O  O11  1  0.38492700  0.76881000  0.65934100  1
  O  O12  1  0.86608700  0.60656800  0.42881300  1
  O  O13  1  0.13391300  0.39343200  0.57118700  1
  O  O14  1  0.13278600  0.51967300  0.07621000  1
  O  O15  1  0.98132400  0.94527200  0.21784600  1
  O  O16  1  0.80810700  0.47666700  0.08926100  1
  O  O17  1  0.42831600  0.10746900  0.53361300  1
  O  O18  1  0.48914600  0.60538000  0.21471300  1
  O  O19  1  0.30810700  0.52333300  0.41073900  1
  O  O20  1  0.69189300  0.47666700  0.58926100  1
  O  O21  1  0.19189300  0.52333300  0.91073900  1
  O  O22  1  0.24209800  0.96399200  0.68827700  1
  O  O23  1  0.86721400  0.48032700  0.92379000  1
  O  O24  1  0.26726500  0.33289200  0.30579800  1
  O  O25  1  0.74209800  0.03600800  0.81172300  1
  O  O26  1  0.90900900  0.83072300  0.53498800  1
  O  O27  1  0.63391300  0.60656800  0.92881300  1
  O  O28  1  0.01867600  0.05472800  0.78215400  1
  O  O29  1  0.59099100  0.83072300  0.03498800  1
  O  O30  1  0.01085400  0.60538000  0.71471300  1
  O  O31  1  0.36721400  0.51967300  0.57621000  1
  O  O32  1  0.10353000  0.10375000  0.32650100  1
  O  O33  1  0.82024400  0.26966500  0.56289300  1
  O  O34  1  0.60353000  0.89625000  0.17349900  1
  O  O35  1  0.07168400  0.10746900  0.03361300  1
  O  O36  1  0.23273500  0.33289200  0.80579800  1
  O  O37  1  0.75790200  0.03600800  0.31172300  1
  O  O38  1  0.17975600  0.73033500  0.43710700  1
  O  O39  1  0.40900900  0.16927700  0.96501200  1
  O  O40  1  0.25790200  0.96399200  0.18827700  1
  O  O41  1  0.88492700  0.23119000  0.84065900  1
  O  O42  1  0.39647000  0.10375000  0.82650100  1
  O  O43  1  0.51085400  0.39462000  0.78528700  1
  O  O44  1  0.98914600  0.39462000  0.28528700  1
  O  O45  1  0.36608700  0.39343200  0.07118700  1
  O  O46  1  0.89647000  0.89625000  0.67349900  1
  O  O47  1  0.73273500  0.66710800  0.69420200  1
loop_
_geom_bond_atom_site_label_1
_geom_bond_atom_site_label_2
_geom_bond_distance
_geom_bond_site_symmetry_2
Bi0 O2 2.204258 1_555
Bi0 O34 2.210183 1_545
Bi0 O45 2.235810 1_555
Bi0 O5 2.238803 1_555
Bi0 O39 2.248362 1_554
Bi0 O40 2.249308 1_545
Bi1 O15 2.204258 1_555
Bi1 O32 2.210183 1_665
Bi1 O12 2.235810 1_555
Bi1 O38 2.238803 1_655
Bi1 O26 2.248362 1_555
Bi1 O37 2.249308 1_565
Bi2 O44 2.187961 1_555
Bi2 O14 2.203343 1_655
Bi2 O9 2.204582 1_555
Bi2 O16 2.207092 1_555
Bi2 O1 2.211547 1_655
Bi2 O4 2.217495 1_554
Bi3 O28 2.204258 1_555
Bi3 O46 2.210183 1_445
Bi3 O13 2.235810 1_555
Bi3 O33 2.238803 1_455
Bi3 O6 2.248362 1_555
Bi3 O22 2.249308 1_545
Bi4 O10 2.204258 1_555
Bi4 O42 2.210183 1_565
Bi4 O27 2.235810 1_555
Bi4 O8 2.238803 1_555
Bi4 O29 2.248362 1_556
Bi4 O25 2.249308 1_565
Bi5 O43 2.187961 1_555
Bi5 O31 2.203343 1_555
Bi5 O47 2.204582 1_555
Bi5 O20 2.207092 1_555
Bi5 O11 2.211547 1_555
Bi5 O7 2.217495 1_555
Bi6 O30 2.187961 1_555
Bi6 O23 2.203343 1_455
Bi6 O36 2.204582 1_555
Bi6 O21 2.207092 1_555
Bi6 O41 2.211547 1_455
Bi6 O35 2.217495 1_556
Bi7 O18 2.187961 1_555
Bi7 O3 2.203343 1_555
Bi7 O24 2.204582 1_555
Bi7 O19 2.207092 1_555
Bi7 O0 2.211547 1_555
Bi7 O17 2.217495 1_555
O0 P6 1.571812 1_555
O1 P8 1.571812 1_555
O2 P6 1.550760 1_555
O3 P11 1.551516 1_555
O4 P0 1.532238 1_565
O5 P4 1.542636 1_555
O6 P2 1.529482 1_555
O7 P6 1.532238 1_565
O8 P1 1.542636 1_555
O9 P10 1.558349 1_555
O10 P7 1.550760 1_555
O11 P7 1.571812 1_555
O12 P11 1.546613 1_555
O13 P5 1.546613 1_555
O14 P1 1.551516 1_554
O15 P8 1.550760 1_655
O16 P4 1.555900 1_555
O17 P7 1.532238 1_545
O18 P10 1.560067 1_555
O19 P5 1.555900 1_555
O20 P11 1.555900 1_555
O21 P1 1.555900 1_555
O22 P7 1.545868 1_555
O23 P4 1.551516 1_556
O24 P2 1.558349 1_555
O25 P0 1.545868 1_555
O26 P9 1.529482 1_555
O27 P4 1.546613 1_556
O28 P0 1.550760 1_455
O29 P10 1.529482 1_555
O30 P9 1.560067 1_455
O31 P5 1.551516 1_555
O32 P2 1.552423 1_555
O33 P11 1.542636 1_555
O34 P10 1.552423 1_555
O35 P8 1.532238 1_545
O36 P3 1.558349 1_555
O37 P6 1.545868 1_555
O38 P5 1.542636 1_555
O39 P3 1.529482 1_555
O40 P8 1.545868 1_555
O41 P0 1.571812 1_555
O42 P3 1.552423 1_555
O43 P3 1.560067 1_555
O44 P2 1.560067 1_655
O45 P1 1.546613 1_554
O46 P9 1.552423 1_555
O47 P9 1.558349 1_555
