# generated using pymatgen
data_Na4Mg2Ga2SiS5O24
_symmetry_space_group_name_H-M   'P 1'
_cell_length_a   8.74974007
_cell_length_b   8.70207950
_cell_length_c   22.23719702
_cell_angle_alpha   90.47425589
_cell_angle_beta   89.54048564
_cell_angle_gamma   119.61917681
_symmetry_Int_Tables_number   1
_chemical_formula_structural   Na4Mg2Ga2SiS5O24
_chemical_formula_sum   'Na12 Mg6 Ga6 Si3 S15 O72'
_cell_volume   1471.84939969
_cell_formula_units_Z   3
loop_
 _symmetry_equiv_pos_site_id
 _symmetry_equiv_pos_as_xyz
  1  'x, y, z'
loop_
 _atom_site_type_symbol
 _atom_site_label
 _atom_site_symmetry_multiplicity
 _atom_site_fract_x
 _atom_site_fract_y
 _atom_site_fract_z
 _atom_site_occupancy
  Na  Na0  1  0.99732088  0.63184772  0.24140665  1
  Na  Na1  1  0.99438963  0.35657139  0.75467620  1
  Na  Na2  1  0.37458424  0.99700325  0.74976204  1
  Na  Na3  1  0.65998793  0.97120966  0.58808615  1
  Na  Na4  1  0.67748893  0.68911717  0.07934314  1
  Na  Na5  1  0.33571039  0.03572778  0.42136590  1
  Na  Na6  1  0.01051589  0.00237843  0.50215600  1
  Na  Na7  1  0.00889566  0.99663347  0.00209260  1
  Na  Na8  1  0.66653619  0.33452137  0.83884001  1
  Na  Na9  1  0.66664413  0.33366784  0.33110245  1
  Na  Na10  1  0.32252473  0.66348148  0.16232040  1
  Na  Na11  1  0.34579060  0.67315886  0.66666842  1
  Mg  Mg0  1  0.99518163  0.00167953  0.35082008  1
  Mg  Mg1  1  0.67290906  0.33537856  0.17960144  1
  Mg  Mg2  1  0.67554054  0.34329017  0.98544908  1
  Mg  Mg3  1  0.65852842  0.32999887  0.48359735  1
  Mg  Mg4  1  0.33728730  0.66364283  0.31358398  1
  Mg  Mg5  1  0.35040676  0.67569118  0.81594768  1
  Ga  Ga0  1  0.98197620  0.99931869  0.85390472  1
  Ga  Ga1  1  0.00220975  0.99337024  0.64922578  1
  Ga  Ga2  1  0.00776067  0.00056639  0.14688661  1
  Ga  Ga3  1  0.65815866  0.31136704  0.68067659  1
  Ga  Ga4  1  0.31558671  0.66786025  0.01772908  1
  Ga  Ga5  1  0.32800193  0.67175459  0.51809690  1
  Si  Si0  1  0.71151350  0.99782481  0.74703963  1
  Si  Si1  1  0.36004461  0.03421689  0.58119435  1
  Si  Si2  1  0.96693064  0.63132704  0.08543386  1
  S  S0  1  0.29653845  0.00469986  0.25181931  1
  S  S1  1  0.70500715  0.70811985  0.25020971  1
  S  S2  1  0.99793645  0.28668403  0.24979573  1
  S  S3  1  0.29261418  0.29116429  0.75070012  1
  S  S4  1  0.99317100  0.70580876  0.75081045  1
  S  S5  1  0.96351349  0.33852497  0.58228844  1
  S  S6  1  0.66600762  0.61956878  0.58349954  1
  S  S7  1  0.66615968  0.03868338  0.08275373  1
  S  S8  1  0.37068913  0.33161130  0.08283391  1
  S  S9  1  0.62482773  0.66611630  0.91753930  1
  S  S10  1  0.04295536  0.37275946  0.91470404  1
  S  S11  1  0.32898323  0.96366782  0.91436815  1
  S  S12  1  0.62809822  0.95719943  0.41700122  1
  S  S13  1  0.33411838  0.38090761  0.41747826  1
  S  S14  1  0.03797031  0.66290343  0.41552400  1
  O  O0  1  0.21707555  0.02796129  0.30795602  1
  O  O1  1  0.82026758  0.79252448  0.30256910  1
  O  O2  1  0.97944437  0.18424550  0.30396063  1
  O  O3  1  0.21777831  0.17379640  0.80381606  1
  O  O4  1  0.96916835  0.78895334  0.80554653  1
  O  O5  1  0.84576005  0.04847244  0.80428860  1
  O  O6  1  0.80461999  0.97702991  0.68528845  1
  O  O7  1  0.18260131  0.21229090  0.69621163  1
  O  O8  1  0.03651992  0.82098408  0.69701656  1
  O  O9  1  0.78551657  0.81460252  0.19442590  1
  O  O10  1  0.02451894  0.20299132  0.19467385  1
  O  O11  1  0.17848207  0.97180694  0.19906154  1
  O  O12  1  0.89159293  0.37272650  0.63966881  1
  O  O13  1  0.48816055  0.11334707  0.64179475  1
  O  O14  1  0.64391759  0.51558944  0.63905945  1
  O  O15  1  0.89311834  0.52670285  0.14804700  1
  O  O16  1  0.63076532  0.11166063  0.13732791  1
  O  O17  1  0.47798707  0.36137985  0.13708375  1
  O  O18  1  0.44457786  0.29572854  0.02872998  1
  O  O19  1  0.83562266  0.55159186  0.02911138  1
  O  O20  1  0.68961888  0.14261778  0.02854541  1
  O  O21  1  0.44288318  0.14368406  0.52095256  1
  O  O22  1  0.69428323  0.54152133  0.52954290  1
  O  O23  1  0.85000143  0.31196168  0.53090553  1
  O  O24  1  0.54386489  0.69451189  0.97339851  1
  O  O25  1  0.15559790  0.45826243  0.96802722  1
  O  O26  1  0.30053039  0.85110661  0.96797433  1
  O  O27  1  0.54947971  0.85238423  0.47390131  1
  O  O28  1  0.30825657  0.46383898  0.47339507  1
  O  O29  1  0.15461688  0.69711384  0.46939689  1
  O  O30  1  0.11937983  0.63973588  0.36052173  1
  O  O31  1  0.51115983  0.87150794  0.36562471  1
  O  O32  1  0.35335441  0.48460655  0.36408696  1
  O  O33  1  0.12257640  0.47366699  0.85904123  1
  O  O34  1  0.35201609  0.88312689  0.85868977  1
  O  O35  1  0.52163114  0.64767720  0.86401065  1
  O  O36  1  0.02624650  0.82864386  0.41185320  1
  O  O37  1  0.80327799  0.97381312  0.41123973  1
  O  O38  1  0.17722662  0.19904279  0.41405825  1
  O  O39  1  0.03217479  0.19345996  0.91225792  1
  O  O40  1  0.16443330  0.97905277  0.90939026  1
  O  O41  1  0.80555009  0.82926229  0.91342203  1
  O  O42  1  0.97410181  0.17372499  0.58753465  1
  O  O43  1  0.16522777  0.01301892  0.59269292  1
  O  O44  1  0.81925625  0.80283354  0.58798922  1
  O  O45  1  0.98324524  0.83296626  0.09157463  1
  O  O46  1  0.82861587  0.02228675  0.08970795  1
  O  O47  1  0.18867513  0.18123498  0.09058140  1
  O  O48  1  0.69689807  0.18505067  0.74349691  1
  O  O49  1  0.47277630  0.31450506  0.74325225  1
  O  O50  1  0.83284669  0.53113330  0.74263235  1
  O  O51  1  0.68717542  0.52923164  0.24545036  1
  O  O52  1  0.83881946  0.30589218  0.24596922  1
  O  O53  1  0.47095927  0.16015365  0.24391349  1
  O  O54  1  0.64286741  0.50698033  0.92174311  1
  O  O55  1  0.86525489  0.34976103  0.92110613  1
  O  O56  1  0.48544159  0.13912275  0.92193370  1
  O  O57  1  0.64477124  0.13594965  0.42220733  1
  O  O58  1  0.49330110  0.36055403  0.42126373  1
  O  O59  1  0.86362857  0.50662597  0.42366819  1
  O  O60  1  0.36382427  0.50076335  0.07551764  1
  O  O61  1  0.16522598  0.65422941  0.07652526  1
  O  O62  1  0.51570743  0.85207764  0.07570194  1
  O  O63  1  0.35408868  0.83807945  0.57664244  1
  O  O64  1  0.50432151  0.63875022  0.57896571  1
  O  O65  1  0.14303274  0.49318775  0.57626090  1
  O  O66  1  0.30699818  0.83819557  0.25584439  1
  O  O67  1  0.53001188  0.69248275  0.25632193  1
  O  O68  1  0.15518073  0.46827111  0.25359875  1
  O  O69  1  0.30175694  0.46402641  0.75832749  1
  O  O70  1  0.14745110  0.67751618  0.75671000  1
  O  O71  1  0.51383410  0.83401778  0.75199194  1
loop_
_geom_bond_atom_site_label_1
_geom_bond_atom_site_label_2
_geom_bond_distance
_geom_bond_site_symmetry_2
Na0 O15 2.269975 1_555
Na0 O51 2.402441 1_555
Na0 O66 2.421651 1_655
Na0 O68 2.442003 1_655
Na0 O52 2.468486 1_555
Na0 O11 2.745551 1_655
Na0 O30 2.851538 1_655
Na0 O1 2.877603 1_555
Na1 O48 2.286695 1_555
Na1 O69 2.372807 1_655
Na1 O70 2.428478 1_655
Na1 O50 2.551915 1_555
Na1 O33 2.560322 1_655
Na1 O5 2.583824 1_555
Na1 O12 2.745380 1_555
Na1 O7 2.821522 1_655
Na2 O71 2.282289 1_555
Na2 O49 2.459896 1_565
Na2 O48 2.467047 1_565
Na2 O70 2.498728 1_555
Na2 O34 2.593631 1_555
Na2 O13 2.604672 1_565
Na2 O3 2.779120 1_565
Na2 O8 2.831763 1_555
Na3 O63 2.347717 1_555
Na3 O42 2.423178 1_565
Na3 O44 2.471254 1_555
Na3 O6 2.500971 1_555
Na3 O64 2.523076 1_555
Na3 O13 2.646046 1_565
Na3 O27 2.731128 1_555
Na3 O23 2.886017 1_565
Na4 O45 2.343905 1_555
Na4 O60 2.404351 1_555
Na4 O62 2.451384 1_555
Na4 O19 2.486809 1_555
Na4 O46 2.532132 1_565
Na4 O24 2.649483 1_554
Na4 O9 2.758120 1_555
Na4 O17 2.816607 1_555
Na5 O57 2.396454 1_555
Na5 O21 2.407097 1_555
Na5 O36 2.409073 1_545
Na5 O38 2.434034 1_555
Na5 O58 2.457382 1_555
Na5 O0 2.722490 1_555
Na5 O29 2.782804 1_545
Na5 O31 2.836180 1_545
Na6 O43 2.410623 1_555
Na6 O42 2.518422 1_455
Na6 O38 2.537036 1_555
Na6 O36 2.547161 1_545
Na6 O44 2.567124 1_445
Na6 O37 2.653690 1_445
Na7 O45 2.400428 1_455
Na7 O40 2.506115 1_554
Na7 O47 2.535059 1_565
Na7 O41 2.573347 1_454
Na7 O46 2.574016 1_465
Na7 O39 2.582853 1_564
Na8 O54 2.439067 1_555
Na8 O56 2.481552 1_555
Na8 O55 2.491276 1_555
Na8 O48 2.558197 1_555
Na8 O50 2.677961 1_555
Na8 O49 2.680022 1_555
Na9 O52 2.493684 1_555
Na9 O51 2.510409 1_555
Na9 O53 2.533752 1_555
Na9 O58 2.582464 1_555
Na9 O57 2.612909 1_555
Na9 O59 2.629528 1_555
Na10 O61 2.338943 1_555
Na10 O60 2.512132 1_555
Na10 O62 2.553167 1_555
Na10 O68 2.588513 1_555
Na10 O66 2.608158 1_555
Na10 O67 2.707086 1_555
Na11 O71 2.384878 1_555
Na11 O63 2.452523 1_555
Na11 O64 2.484899 1_555
Na11 O65 2.626890 1_555
Na11 O69 2.640186 1_555
Na11 O70 2.651464 1_555
Mg0 O2 1.968424 1_555
Mg0 O1 2.011675 1_545
Mg0 O37 2.061576 1_545
Mg0 O0 2.065270 1_655
Mg0 O36 2.151172 1_645
Mg0 O38 2.180873 1_655
Mg1 O15 1.950257 1_555
Mg1 O16 2.018761 1_555
Mg1 O17 2.065129 1_555
Mg1 O51 2.181594 1_555
Mg1 O52 2.181766 1_555
Mg1 O53 2.196568 1_555
Mg2 O19 1.916596 1_556
Mg2 O20 2.055545 1_556
Mg2 O18 2.080897 1_556
Mg2 O54 2.135433 1_555
Mg2 O55 2.162559 1_555
Mg2 O56 2.234535 1_555
Mg3 O21 1.962688 1_555
Mg3 O22 1.983596 1_555
Mg3 O23 2.056462 1_555
Mg3 O57 2.119701 1_555
Mg3 O58 2.121389 1_555
Mg3 O59 2.151272 1_555
Mg4 O32 1.989049 1_555
Mg4 O67 2.020024 1_555
Mg4 O31 2.049167 1_555
Mg4 O30 2.085082 1_555
Mg4 O66 2.112284 1_555
Mg4 O68 2.127785 1_555
Mg5 O35 1.958890 1_555
Mg5 O71 2.004506 1_555
Mg5 O34 2.027001 1_555
Mg5 O69 2.100072 1_555
Mg5 O33 2.125077 1_555
Mg5 O70 2.225920 1_555
Ga0 O5 1.831293 1_565
Ga0 O39 1.992553 1_665
Ga0 O41 2.016466 1_555
Ga0 O4 2.070424 1_555
Ga0 O40 2.101338 1_655
Ga0 O3 2.167348 1_665
Ga1 O43 1.837895 1_565
Ga1 O6 1.840902 1_455
Ga1 O8 1.986589 1_555
Ga1 O7 2.057547 1_565
Ga1 O44 2.130731 1_455
Ga1 O42 2.197322 1_465
Ga2 O45 1.830656 1_445
Ga2 O10 1.992455 1_555
Ga2 O11 2.010530 1_545
Ga2 O47 2.021387 1_555
Ga2 O9 2.098219 1_445
Ga2 O46 2.106700 1_455
Ga3 O13 1.841687 1_555
Ga3 O48 1.917274 1_555
Ga3 O12 2.046606 1_555
Ga3 O14 2.068392 1_555
Ga3 O49 2.138931 1_555
Ga3 O50 2.234391 1_555
Ga4 O61 1.809723 1_555
Ga4 O25 1.993872 1_554
Ga4 O26 2.005870 1_554
Ga4 O62 2.127243 1_555
Ga4 O24 2.128233 1_554
Ga4 O60 2.142467 1_555
Ga5 O63 1.867864 1_555
Ga5 O29 1.970845 1_555
Ga5 O28 1.988852 1_555
Ga5 O27 2.043539 1_555
Ga5 O65 2.054422 1_555
Ga5 O64 2.184623 1_555
O0 S0 1.484490 1_555
O1 S1 1.478070 1_555
O2 S2 1.464126 1_555
O3 S3 1.487791 1_555
O4 S4 1.476701 1_555
O5 Si0 1.642446 1_545
O6 Si0 1.644895 1_555
O7 S3 1.489190 1_555
O8 S4 1.488676 1_455
O9 S1 1.501144 1_555
O10 S2 1.495021 1_455
O11 S0 1.498974 1_565
O12 S5 1.509526 1_555
O13 Si1 1.671111 1_555
O14 S6 1.491423 1_555
O15 Si2 1.615542 1_555
O16 S7 1.465465 1_555
O17 S8 1.475268 1_555
O18 S8 1.464180 1_555
O19 Si2 1.609592 1_555
O20 S7 1.464177 1_555
O21 Si1 1.596998 1_555
O22 S6 1.452569 1_555
O23 S5 1.460253 1_555
O24 S9 1.503220 1_555
O25 S10 1.486706 1_555
O26 S11 1.488605 1_555
O27 S12 1.513628 1_555
O28 S13 1.503395 1_555
O29 S14 1.509582 1_555
O30 S14 1.472376 1_555
O31 S12 1.469239 1_555
O32 S13 1.454876 1_555
O33 S10 1.479187 1_555
O34 S11 1.478533 1_555
O35 S9 1.459040 1_555
O36 S14 1.498567 1_555
O37 S12 1.471338 1_555
O38 S13 1.499031 1_555
O39 S10 1.516418 1_555
O40 S11 1.515404 1_555
O41 S9 1.518275 1_555
O42 S5 1.487655 1_555
O43 Si1 1.639522 1_555
O44 S6 1.495671 1_555
O45 Si2 1.693129 1_555
O46 S7 1.506374 1_555
O47 S8 1.489202 1_555
O48 Si0 1.698606 1_545
O49 S3 1.494494 1_555
O50 S4 1.484330 1_555
O51 S1 1.488729 1_555
O52 S2 1.485145 1_555
O53 S0 1.465920 1_555
O54 S9 1.473025 1_555
O55 S10 1.472128 1_655
O56 S11 1.472055 1_545
O57 S12 1.492396 1_545
O58 S13 1.491423 1_555
O59 S14 1.469107 1_655
O60 S8 1.512714 1_555
O61 Si2 1.656093 1_455
O62 S7 1.510145 1_565
O63 Si1 1.683878 1_565
O64 S6 1.508449 1_555
O65 S5 1.485453 1_455
O66 S0 1.499717 1_565
O67 S1 1.473930 1_555
O68 S2 1.499243 1_455
O69 S3 1.474792 1_555
O70 S4 1.493982 1_455
O71 Si0 1.611886 1_555
