# generated using pymatgen
data_Ba2Tb2MgCo4O11
_symmetry_space_group_name_H-M   'P 1'
_cell_length_a   3.83194300
_cell_length_b   8.15761700
_cell_length_c   8.20073500
_cell_angle_alpha   90.00000000
_cell_angle_beta   90.00000000
_cell_angle_gamma   90.00000000
_symmetry_Int_Tables_number   1
_chemical_formula_structural   Ba2Tb2MgCo4O11
_chemical_formula_sum   'Ba2 Tb2 Mg1 Co4 O11'
_cell_volume   256.35106730
_cell_formula_units_Z   1
loop_
 _symmetry_equiv_pos_site_id
 _symmetry_equiv_pos_as_xyz
  1  'x, y, z'
loop_
 _atom_site_type_symbol
 _atom_site_label
 _atom_site_symmetry_multiplicity
 _atom_site_fract_x
 _atom_site_fract_y
 _atom_site_fract_z
 _atom_site_occupancy
  Ba  Ba0  1  0.50000100  0.00000000  0.72949400  1
  Ba  Ba1  1  0.50000100  0.00000000  0.27050600  1
  Tb  Tb0  1  0.50000100  0.50000000  0.29122300  1
  Tb  Tb1  1  0.50000100  0.50000000  0.70877800  1
  Mg  Mg0  1  0.00000000  0.50000000  0.00000000  1
  Co  Co0  1  0.00000000  0.21971400  0.00000000  1
  Co  Co1  1  0.00000000  0.78028600  0.00000000  1
  Co  Co2  1  0.00000000  0.74157000  0.49999900  1
  Co  Co3  1  0.00000000  0.25843000  0.49999900  1
  O  O0  1  0.00000000  0.32113600  0.78175200  1
  O  O1  1  0.00000000  0.67886400  0.21824800  1
  O  O2  1  0.00000000  0.32113600  0.21824800  1
  O  O3  1  0.00000000  0.67886400  0.78175200  1
  O  O4  1  0.50000100  0.27399300  0.49999900  1
  O  O5  1  0.50000100  0.72600800  0.49999900  1
  O  O6  1  0.50000100  0.34028400  0.00000000  1
  O  O7  1  0.50000100  0.65971600  0.00000000  1
  O  O8  1  0.00000000  0.00000000  0.00000000  1
  O  O9  1  0.00000000  0.50000000  0.49999900  1
  O  O10  1  0.00000000  0.00000000  0.49999900  1
loop_
_geom_bond_atom_site_label_1
_geom_bond_atom_site_label_2
_geom_bond_distance
_geom_bond_site_symmetry_2
Ba0 O10 2.685695 1_655
Ba0 O10 2.685701 1_555
Ba0 O5 2.921951 1_545
Ba0 O4 2.921957 1_555
Ba0 O8 2.931211 1_656
Ba0 O8 2.931216 1_556
Ba0 O0 3.273750 1_655
Ba0 O3 3.273750 1_645
Ba0 O0 3.273755 1_555
Ba0 O3 3.273755 1_545
Ba1 O10 2.685684 1_655
Ba1 O10 2.685689 1_555
Ba1 O5 2.921940 1_545
Ba1 O4 2.921947 1_555
Ba1 O8 2.931211 1_655
Ba1 O8 2.931216 1_555
Ba1 O2 3.273750 1_655
Ba1 O1 3.273750 1_645
Ba1 O2 3.273755 1_555
Ba1 O1 3.273755 1_545
Mg0 O0 2.309188 1_554
Mg0 O3 2.309188 1_554
Mg0 O1 2.309188 1_555
Mg0 O2 2.309188 1_555
Mg0 O6 2.316999 1_455
Mg0 O7 2.316999 1_455
Mg0 O7 2.317006 1_555
Mg0 O6 2.317006 1_555
Co0 O8 1.792343 1_555
Co0 O2 1.971773 1_555
Co0 O0 1.971773 1_554
Co0 O6 2.153678 1_455
Co0 O6 2.153685 1_555
Co0 Mg0 2.286466 1_555
Co1 O8 1.792343 1_565
Co1 O3 1.971773 1_554
Co1 O1 1.971773 1_555
Co1 O7 2.153678 1_455
Co1 O7 2.153685 1_555
Co1 Mg0 2.286466 1_555
Co2 O5 1.920169 1_455
Co2 O5 1.920176 1_555
Co2 O9 1.970636 1_555
Co2 O10 2.108173 1_565
Co2 O1 2.366511 1_555
Co2 O3 2.366527 1_555
Co3 O4 1.920169 1_455
Co3 O4 1.920177 1_555
Co3 O9 1.970636 1_555
Co3 O10 2.108173 1_555
Co3 O2 2.366511 1_555
Co3 O0 2.366527 1_555
O0 Tb1 2.481541 1_455
O0 Tb1 2.481547 1_555
O1 Tb0 2.481543 1_455
O1 Tb0 2.481549 1_555
O2 Tb0 2.481543 1_455
O2 Tb0 2.481549 1_555
O3 Tb1 2.481541 1_455
O3 Tb1 2.481547 1_555
O4 Tb0 2.516047 1_555
O4 Tb1 2.516064 1_555
O5 Tb0 2.516053 1_555
O5 Tb1 2.516070 1_555
O6 Tb1 2.720518 1_554
O6 Tb0 2.720525 1_555
O7 Tb1 2.720518 1_554
O7 Tb0 2.720525 1_555
O9 Tb0 2.569489 1_455
O9 Tb0 2.569495 1_555
O9 Tb1 2.569506 1_455
O9 Tb1 2.569511 1_555
