# generated using pymatgen
data_K2CaH2S2O9
_symmetry_space_group_name_H-M   'P 1'
_cell_length_a   7.21284800
_cell_length_b   6.33497800
_cell_length_c   9.92538558
_cell_angle_alpha   76.38918533
_cell_angle_beta   90.00000000
_cell_angle_gamma   90.00000000
_symmetry_Int_Tables_number   1
_chemical_formula_structural   K2CaH2S2O9
_chemical_formula_sum   'K4 Ca2 H4 S4 O18'
_cell_volume   440.78649287
_cell_formula_units_Z   2
loop_
 _symmetry_equiv_pos_site_id
 _symmetry_equiv_pos_as_xyz
  1  'x, y, z'
loop_
 _atom_site_type_symbol
 _atom_site_label
 _atom_site_symmetry_multiplicity
 _atom_site_fract_x
 _atom_site_fract_y
 _atom_site_fract_z
 _atom_site_occupancy
  K  K0  1  0.50501100  0.81537800  0.33439300  1
  K  K1  1  0.00501100  0.18462200  0.66560700  1
  K  K2  1  0.49498900  0.18462200  0.66560700  1
  K  K3  1  0.99498900  0.81537800  0.33439300  1
  Ca  Ca0  1  0.75000000  0.66476500  0.96827700  1
  Ca  Ca1  1  0.25000000  0.33523500  0.03172300  1
  H  H0  1  0.13923900  0.58968200  0.75149200  1
  H  H1  1  0.63923900  0.41031800  0.24850800  1
  H  H2  1  0.86076100  0.41031800  0.24850800  1
  H  H3  1  0.36076100  0.58968200  0.75149200  1
  S  S0  1  0.75000000  0.71930000  0.64074500  1
  S  S1  1  0.25000000  0.28070000  0.35925500  1
  S  S2  1  0.75000000  0.15970200  0.99191100  1
  S  S3  1  0.25000000  0.84029800  0.00808900  1
  O  O0  1  0.75000000  0.50396200  0.22276100  1
  O  O1  1  0.25000000  0.49603800  0.77723900  1
  O  O2  1  0.41564700  0.69559600  0.01722900  1
  O  O3  1  0.91564700  0.30440400  0.98277100  1
  O  O4  1  0.58435300  0.30440400  0.98277100  1
  O  O5  1  0.08435300  0.69559600  0.01722900  1
  O  O6  1  0.25000000  0.01472500  0.87936300  1
  O  O7  1  0.75000000  0.98527500  0.12063700  1
  O  O8  1  0.25000000  0.06947800  0.46498500  1
  O  O9  1  0.75000000  0.93052200  0.53501500  1
  O  O10  1  0.25000000  0.46309400  0.43017100  1
  O  O11  1  0.75000000  0.53690600  0.56982900  1
  O  O12  1  0.08378800  0.29198600  0.26669700  1
  O  O13  1  0.58378800  0.70801400  0.73330300  1
  O  O14  1  0.91621200  0.70801400  0.73330300  1
  O  O15  1  0.41621200  0.29198600  0.26669700  1
  O  O16  1  0.25000000  0.94595900  0.12815500  1
  O  O17  1  0.75000000  0.05404100  0.87184500  1
loop_
_geom_bond_atom_site_label_1
_geom_bond_atom_site_label_2
_geom_bond_distance
_geom_bond_site_symmetry_2
K0 O16 2.731436 1_555
K0 O7 2.776230 1_555
K0 O10 2.875581 1_555
K0 O9 2.881545 1_555
K0 O8 2.938792 1_565
K0 O15 3.003842 1_565
K0 O0 3.044823 1_555
K0 O11 3.123305 1_555
K1 O17 2.731436 1_455
K1 O6 2.776230 1_555
K1 O11 2.875581 1_455
K1 O8 2.881545 1_555
K1 O9 2.938792 1_445
K1 O14 3.003842 1_445
K1 O1 3.044823 1_555
K1 O10 3.123305 1_555
K2 O17 2.731436 1_555
K2 O6 2.776230 1_555
K2 O11 2.875581 1_555
K2 O8 2.881545 1_555
K2 O9 2.938792 1_545
K2 O13 3.003842 1_545
K2 O1 3.044823 1_555
K2 O10 3.123305 1_555
K3 O16 2.731436 1_655
K3 O7 2.776230 1_555
K3 O10 2.875581 1_655
K3 O9 2.881545 1_555
K3 O8 2.938792 1_665
K3 O12 3.003842 1_665
K3 O0 3.044823 1_555
K3 O11 3.123305 1_555
Ca0 O17 2.426237 1_565
Ca0 O5 2.476868 1_656
Ca0 O2 2.476868 1_556
Ca0 O0 2.491312 1_556
Ca0 O3 2.550525 1_555
Ca0 O4 2.550525 1_555
Ca0 O14 2.578913 1_555
Ca0 O13 2.578913 1_555
Ca0 O7 2.802604 1_556
Ca1 O16 2.426237 1_545
Ca1 O3 2.476868 1_454
Ca1 O4 2.476868 1_554
Ca1 O1 2.491312 1_554
Ca1 O2 2.550525 1_555
Ca1 O5 2.550525 1_555
Ca1 O15 2.578913 1_555
Ca1 O12 2.578913 1_555
Ca1 O6 2.802604 1_554
H0 O1 0.992030 1_555
H1 O0 0.992030 1_555
H2 O0 0.992030 1_555
H3 O1 0.992030 1_555
O2 S3 1.495632 1_555
O3 S2 1.495632 1_555
O4 S2 1.495632 1_555
O5 S3 1.495632 1_555
O6 S3 1.479508 1_546
O7 S2 1.479508 1_564
O8 S1 1.493603 1_555
O9 S0 1.493603 1_555
O10 S1 1.487717 1_555
O11 S0 1.487717 1_555
O12 S1 1.501809 1_555
O13 S0 1.501809 1_555
O14 S0 1.501809 1_555
O15 S1 1.501809 1_555
O16 S3 1.497873 1_555
O17 S2 1.497873 1_555
