# generated using pymatgen
data_Na4TiSi3GeO12
_symmetry_space_group_name_H-M   'P 1'
_cell_length_a   8.89069617
_cell_length_b   8.89069587
_cell_length_c   21.87686101
_cell_angle_alpha   90.00000000
_cell_angle_beta   90.00000000
_cell_angle_gamma   120.00000107
_symmetry_Int_Tables_number   1
_chemical_formula_structural   Na4TiSi3GeO12
_chemical_formula_sum   'Na24 Ti6 Si18 Ge6 O72'
_cell_volume   1497.57009140
_cell_formula_units_Z   6
loop_
 _symmetry_equiv_pos_site_id
 _symmetry_equiv_pos_as_xyz
  1  'x, y, z'
loop_
 _atom_site_type_symbol
 _atom_site_label
 _atom_site_symmetry_multiplicity
 _atom_site_fract_x
 _atom_site_fract_y
 _atom_site_fract_z
 _atom_site_occupancy
  Na  Na0  1  0.63337563  0.00005156  0.24986382  1
  Na  Na1  1  0.36667593  0.36662437  0.24986382  1
  Na  Na2  1  0.99994844  0.63332407  0.24986382  1
  Na  Na3  1  0.63245723  0.63127403  0.75046260  1
  Na  Na4  1  0.99881680  0.36754277  0.75046260  1
  Na  Na5  1  0.36872597  0.00118320  0.75046260  1
  Na  Na6  1  0.29895156  0.33327819  0.58337817  1
  Na  Na7  1  0.03432763  0.70104844  0.58337817  1
  Na  Na8  1  0.66672181  0.96567237  0.58337817  1
  Na  Na9  1  0.29734446  0.96488662  0.08281222  1
  Na  Na10  1  0.66754315  0.70265554  0.08281222  1
  Na  Na11  1  0.03511338  0.33245685  0.08281222  1
  Na  Na12  1  0.96481835  0.66669790  0.91676615  1
  Na  Na13  1  0.70187854  0.03518165  0.91676615  1
  Na  Na14  1  0.33330210  0.29812146  0.91676615  1
  Na  Na15  1  0.96468373  0.29833590  0.41669681  1
  Na  Na16  1  0.33365117  0.03531627  0.41669681  1
  Na  Na17  1  0.70166410  0.66634883  0.41669681  1
  Na  Na18  1  0.00000000  0.00000000  0.50002816  1
  Na  Na19  1  0.00000000  0.00000000  0.99987527  1
  Na  Na20  1  0.66666700  0.33333300  0.83352756  1
  Na  Na21  1  0.66666700  0.33333300  0.33343493  1
  Na  Na22  1  0.33333300  0.66666700  0.16630920  1
  Na  Na23  1  0.33333300  0.66666700  0.66678805  1
  Ti  Ti0  1  0.00000000  0.00000000  0.35165759  1
  Ti  Ti1  1  0.00000000  0.00000000  0.64916958  1
  Ti  Ti2  1  0.00000000  0.00000000  0.14721983  1
  Ti  Ti3  1  0.66666700  0.33333300  0.68639429  1
  Ti  Ti4  1  0.66666700  0.33333300  0.48055787  1
  Ti  Ti5  1  0.33333300  0.66666700  0.51859913  1
  Si  Si0  1  0.29414134  0.00022331  0.24971580  1
  Si  Si1  1  0.70608197  0.70585866  0.24971580  1
  Si  Si2  1  0.99977669  0.29391803  0.24971580  1
  Si  Si3  1  0.28739611  0.29068892  0.75252235  1
  Si  Si4  1  0.00329281  0.71260389  0.75252235  1
  Si  Si5  1  0.70931108  0.99670719  0.75252235  1
  Si  Si6  1  0.95709075  0.33301117  0.58346579  1
  Si  Si7  1  0.37592142  0.04290925  0.58346579  1
  Si  Si8  1  0.66698883  0.62407858  0.58346579  1
  Si  Si9  1  0.95380447  0.61760481  0.08214506  1
  Si  Si10  1  0.66380134  0.04619553  0.08214506  1
  Si  Si11  1  0.38239519  0.33619866  0.08214506  1
  Si  Si12  1  0.62066739  0.66661291  0.91679366  1
  Si  Si13  1  0.04594451  0.37933261  0.91679366  1
  Si  Si14  1  0.33338709  0.95405549  0.91679366  1
  Si  Si15  1  0.62127510  0.95411812  0.41533513  1
  Si  Si16  1  0.33284202  0.37872490  0.41533513  1
  Si  Si17  1  0.04588188  0.66715798  0.41533513  1
  Ge  Ge0  1  0.00000000  0.00000000  0.85347588  1
  Ge  Ge1  1  0.66666700  0.33333300  0.18472338  1
  Ge  Ge2  1  0.66666700  0.33333300  0.98009381  1
  Ge  Ge3  1  0.33333300  0.66666700  0.01892149  1
  Ge  Ge4  1  0.33333300  0.66666700  0.31410685  1
  Ge  Ge5  1  0.33333300  0.66666700  0.81493135  1
  O  O0  1  0.20525187  0.03846149  0.30897280  1
  O  O1  1  0.83320962  0.79474813  0.30897280  1
  O  O2  1  0.96153851  0.16679038  0.30897280  1
  O  O3  1  0.20080965  0.16126218  0.81155585  1
  O  O4  1  0.96045252  0.79919035  0.81155585  1
  O  O5  1  0.83873782  0.03954748  0.81155585  1
  O  O6  1  0.79590196  0.96020967  0.69191345  1
  O  O7  1  0.16430771  0.20409804  0.69191345  1
  O  O8  1  0.03979033  0.83569229  0.69191345  1
  O  O9  1  0.79581036  0.83391553  0.19075620  1
  O  O10  1  0.03810518  0.20418964  0.19075620  1
  O  O11  1  0.16608447  0.96189482  0.19075620  1
  O  O12  1  0.86749936  0.36950634  0.64292680  1
  O  O13  1  0.50200799  0.13250064  0.64292680  1
  O  O14  1  0.63049366  0.49799201  0.64292680  1
  O  O15  1  0.87022733  0.49437273  0.14329970  1
  O  O16  1  0.62414640  0.12977267  0.14329970  1
  O  O17  1  0.50562727  0.37585360  0.14329970  1
  O  O18  1  0.46631463  0.29340417  0.02229550  1
  O  O19  1  0.82709054  0.53368537  0.02229550  1
  O  O20  1  0.70659583  0.17290946  0.02229550  1
  O  O21  1  0.46525942  0.16833670  0.52380809  1
  O  O22  1  0.70307828  0.53474058  0.52380809  1
  O  O23  1  0.83166330  0.29692172  0.52380809  1
  O  O24  1  0.53644676  0.70812842  0.97706992  1
  O  O25  1  0.17168066  0.46355324  0.97706992  1
  O  O26  1  0.29187158  0.82831934  0.97706992  1
  O  O27  1  0.53439705  0.83064256  0.47552946  1
  O  O28  1  0.29624450  0.46560295  0.47552946  1
  O  O29  1  0.16935744  0.70375550  0.47552946  1
  O  O30  1  0.13211586  0.62642379  0.35552087  1
  O  O31  1  0.49430693  0.86788414  0.35552087  1
  O  O32  1  0.37357621  0.50569307  0.35552087  1
  O  O33  1  0.12993350  0.50483078  0.85646871  1
  O  O34  1  0.37489627  0.87006650  0.85646871  1
  O  O35  1  0.49516922  0.62510373  0.85646871  1
  O  O36  1  0.02665967  0.84023339  0.41065355  1
  O  O37  1  0.81357371  0.97334033  0.41065355  1
  O  O38  1  0.15976661  0.18642629  0.41065355  1
  O  O39  1  0.02607377  0.18453166  0.91054073  1
  O  O40  1  0.15845789  0.97392623  0.91054073  1
  O  O41  1  0.81546834  0.84154211  0.91054073  1
  O  O42  1  0.97455717  0.15953403  0.58872009  1
  O  O43  1  0.18497685  0.02544283  0.58872009  1
  O  O44  1  0.84046597  0.81502315  0.58872009  1
  O  O45  1  0.97432575  0.81094559  0.08863569  1
  O  O46  1  0.83661984  0.02567425  0.08863569  1
  O  O47  1  0.18905441  0.16338016  0.08863569  1
  O  O48  1  0.69075270  0.16978262  0.74578741  1
  O  O49  1  0.47903093  0.30924730  0.74578741  1
  O  O50  1  0.83021738  0.52096907  0.74578741  1
  O  O51  1  0.69055035  0.51409598  0.24319327  1
  O  O52  1  0.82354664  0.30944965  0.24319327  1
  O  O53  1  0.48590402  0.17645336  0.24319327  1
  O  O54  1  0.64064025  0.49174271  0.92291571  1
  O  O55  1  0.85110346  0.35935975  0.92291571  1
  O  O56  1  0.50825729  0.14889654  0.92291571  1
  O  O57  1  0.64016757  0.14591390  0.42091902  1
  O  O58  1  0.50574733  0.35983243  0.42091902  1
  O  O59  1  0.85408610  0.49425267  0.42091902  1
  O  O60  1  0.36157741  0.51064789  0.07658184  1
  O  O61  1  0.14906948  0.63842259  0.07658184  1
  O  O62  1  0.48935211  0.85093052  0.07658184  1
  O  O63  1  0.35853138  0.85198743  0.57843456  1
  O  O64  1  0.49345506  0.64146862  0.57843456  1
  O  O65  1  0.14801257  0.50654494  0.57843456  1
  O  O66  1  0.30957150  0.82392208  0.25623652  1
  O  O67  1  0.51434959  0.69042850  0.25623652  1
  O  O68  1  0.17607792  0.48565041  0.25623652  1
  O  O69  1  0.30568420  0.48429317  0.75736863  1
  O  O70  1  0.17860797  0.69431580  0.75736863  1
  O  O71  1  0.51570683  0.82139203  0.75736863  1
loop_
_geom_bond_atom_site_label_1
_geom_bond_atom_site_label_2
_geom_bond_distance
_geom_bond_site_symmetry_2
Na0 O52 2.407443 1_555
Na0 O67 2.409138 1_545
Na0 O66 2.500249 1_545
Na0 O53 2.501260 1_555
Na0 O31 2.607567 1_545
Na0 O16 2.620381 1_555
Na0 O2 2.838484 1_555
Na0 O9 2.841216 1_545
Na1 O53 2.407450 1_555
Na1 O68 2.409146 1_555
Na1 O67 2.500249 1_555
Na1 O51 2.501268 1_555
Na1 O32 2.607569 1_555
Na1 O17 2.620386 1_555
Na1 O0 2.838484 1_555
Na1 O10 2.841216 1_555
Na2 O51 2.407442 1_555
Na2 O66 2.409139 1_655
Na2 O68 2.500241 1_655
Na2 O52 2.501268 1_555
Na2 O30 2.607565 1_655
Na2 O15 2.620384 1_555
Na2 O1 2.838484 1_555
Na2 O11 2.841216 1_655
Na3 O71 2.389938 1_555
Na3 O50 2.405792 1_555
Na3 O49 2.482492 1_555
Na3 O69 2.524760 1_555
Na3 O35 2.608451 1_555
Na3 O14 2.630255 1_555
Na3 O6 2.838150 1_555
Na3 O4 2.857495 1_555
Na4 O69 2.389930 1_655
Na4 O48 2.405785 1_555
Na4 O50 2.482484 1_555
Na4 O70 2.524760 1_655
Na4 O33 2.608449 1_655
Na4 O12 2.630251 1_555
Na4 O7 2.838150 1_655
Na4 O5 2.857495 1_555
Na5 O70 2.389931 1_545
Na5 O49 2.405784 1_555
Na5 O48 2.482492 1_555
Na5 O71 2.524752 1_545
Na5 O34 2.608447 1_545
Na5 O13 2.630253 1_555
Na5 O8 2.838150 1_545
Na5 O3 2.857495 1_555
Na6 O43 2.399503 1_555
Na6 O64 2.402410 1_555
Na6 O65 2.500557 1_555
Na6 O42 2.502536 1_455
Na6 O28 2.641908 1_555
Na6 O7 2.648591 1_555
Na6 O21 2.864143 1_555
Na6 O14 2.865946 1_555
Na7 O44 2.399511 1_455
Na7 O65 2.402397 1_555
Na7 O63 2.500541 1_555
Na7 O43 2.502536 1_565
Na7 O29 2.641900 1_555
Na7 O8 2.648593 1_555
Na7 O22 2.864143 1_455
Na7 O12 2.865946 1_455
Na8 O42 2.399504 1_565
Na8 O63 2.402413 1_555
Na8 O64 2.500542 1_555
Na8 O44 2.502528 1_555
Na8 O27 2.641904 1_555
Na8 O6 2.648589 1_555
Na8 O23 2.864143 1_565
Na8 O13 2.865946 1_565
Na9 O62 2.385101 1_555
Na9 O47 2.399280 1_565
Na9 O45 2.491274 1_455
Na9 O61 2.520835 1_555
Na9 O26 2.601714 1_554
Na9 O11 2.628327 1_555
Na9 O16 2.843003 1_565
Na9 O18 2.855274 1_565
Na10 O60 2.385114 1_555
Na10 O45 2.399271 1_555
Na10 O46 2.491274 1_565
Na10 O62 2.520851 1_555
Na10 O24 2.601723 1_554
Na10 O9 2.628325 1_555
Na10 O17 2.843003 1_555
Na10 O19 2.855274 1_555
Na11 O61 2.385117 1_555
Na11 O46 2.399273 1_455
Na11 O47 2.491267 1_555
Na11 O60 2.520836 1_555
Na11 O25 2.601718 1_554
Na11 O10 2.628324 1_555
Na11 O15 2.843003 1_455
Na11 O20 2.855274 1_455
Na12 O40 2.396016 1_655
Na12 O55 2.396663 1_555
Na12 O54 2.502270 1_555
Na12 O41 2.502436 1_555
Na12 O4 2.594703 1_555
Na12 O19 2.603783 1_556
Na12 O33 2.842306 1_655
Na12 O26 2.842868 1_655
Na13 O41 2.396023 1_545
Na13 O56 2.396646 1_555
Na13 O55 2.502270 1_555
Na13 O39 2.502444 1_655
Na13 O5 2.594707 1_555
Na13 O20 2.603779 1_556
Na13 O34 2.842306 1_545
Na13 O24 2.842868 1_545
Na14 O39 2.396014 1_555
Na14 O54 2.396660 1_555
Na14 O56 2.502285 1_555
Na14 O40 2.502443 1_545
Na14 O3 2.594705 1_555
Na14 O18 2.603787 1_556
Na14 O35 2.842306 1_555
Na14 O25 2.842868 1_555
Na15 O59 2.392094 1_555
Na15 O38 2.396102 1_655
Na15 O57 2.501870 1_555
Na15 O37 2.507860 1_545
Na15 O23 2.621983 1_555
Na15 O2 2.624832 1_555
Na15 O30 2.858918 1_655
Na15 O28 2.859004 1_655
Na16 O57 2.392111 1_555
Na16 O36 2.396095 1_545
Na16 O58 2.501871 1_555
Na16 O38 2.507853 1_555
Na16 O21 2.621987 1_555
Na16 O0 2.624828 1_555
Na16 O31 2.858918 1_545
Na16 O29 2.859004 1_545
Na17 O58 2.392108 1_555
Na17 O37 2.396094 1_555
Na17 O59 2.501886 1_555
Na17 O36 2.507860 1_655
Na17 O22 2.621991 1_555
Na17 O1 2.624830 1_555
Na17 O32 2.858918 1_555
Na17 O27 2.859004 1_555
Na18 O44 2.479626 1_445
Na18 O43 2.479626 1_555
Na18 O42 2.479626 1_455
Na18 O36 2.496686 1_545
Na18 O38 2.496686 1_555
Na18 O37 2.496686 1_445
Na19 O39 2.486877 1_555
Na19 O41 2.486877 1_445
Na19 O40 2.486877 1_545
Na19 O45 2.502837 1_446
Na19 O47 2.502837 1_556
Na19 O46 2.502837 1_456
Na20 O50 2.481122 1_555
Na20 O49 2.481122 1_555
Na20 O48 2.481122 1_555
Na20 O56 2.487379 1_555
Na20 O54 2.487379 1_555
Na20 O55 2.487379 1_555
Na21 O57 2.470297 1_555
Na21 O59 2.470297 1_555
Na21 O58 2.470297 1_555
Na21 O51 2.486788 1_555
Na21 O53 2.486788 1_555
Na21 O52 2.486788 1_555
Na22 O66 2.482956 1_555
Na22 O68 2.482956 1_555
Na22 O67 2.482956 1_555
Na22 O62 2.487702 1_555
Na22 O60 2.487702 1_555
Na22 O61 2.487702 1_555
Na23 O63 2.476255 1_555
Na23 O65 2.476255 1_555
Na23 O64 2.476255 1_555
Na23 O69 2.493532 1_555
Na23 O71 2.493532 1_555
Na23 O70 2.493532 1_555
Ge0 O4 1.877327 1_445
Ge0 O3 1.877327 1_555
Ge0 O5 1.877327 1_455
Ge0 O39 1.980793 1_555
Ge0 O41 1.980793 1_445
Ge0 O40 1.980793 1_545
Ge1 O16 1.885558 1_555
Ge1 O15 1.885558 1_555
Ge1 O17 1.885558 1_555
Ge1 O51 1.980613 1_555
Ge1 O53 1.980613 1_555
Ge1 O52 1.980613 1_555
Ge2 O19 1.875895 1_556
Ge2 O20 1.875895 1_556
Ge2 O18 1.875895 1_556
Ge2 O56 1.981828 1_555
Ge2 O54 1.981828 1_555
Ge2 O55 1.981828 1_555
Ge3 O25 1.889312 1_554
Ge3 O26 1.889312 1_554
Ge3 O24 1.889312 1_554
Ge3 O62 1.981584 1_555
Ge3 O60 1.981584 1_555
Ge3 O61 1.981585 1_555
Ge4 O31 1.873279 1_555
Ge4 O32 1.873279 1_555
Ge4 O30 1.873279 1_555
Ge4 O66 1.974209 1_555
Ge4 O68 1.974209 1_555
Ge4 O67 1.974209 1_555
Ge5 O35 1.887919 1_555
Ge5 O33 1.887919 1_555
Ge5 O34 1.887919 1_555
Ge5 O69 1.968934 1_555
Ge5 O71 1.968934 1_555
Ge5 O70 1.968934 1_555
O0 Si0 1.639922 1_555
O0 Ti0 1.922223 1_555
O1 Si1 1.639922 1_555
O1 Ti0 1.922223 1_665
O2 Si2 1.639922 1_555
O2 Ti0 1.922223 1_655
O3 Si3 1.642796 1_555
O4 Si4 1.642796 1_655
O5 Si5 1.642796 1_545
O6 Si5 1.644953 1_555
O6 Ti1 1.910579 1_665
O7 Si3 1.644953 1_555
O7 Ti1 1.910579 1_555
O8 Si4 1.644953 1_555
O8 Ti1 1.910579 1_565
O9 Si1 1.639538 1_555
O9 Ti2 1.924195 1_665
O10 Si2 1.639538 1_455
O10 Ti2 1.924195 1_555
O11 Si0 1.639538 1_565
O11 Ti2 1.924195 1_565
O12 Si6 1.640220 1_555
O12 Ti3 1.903054 1_555
O13 Si7 1.640220 1_555
O13 Ti3 1.903054 1_555
O14 Si8 1.640220 1_555
O14 Ti3 1.903054 1_555
O15 Si9 1.651759 1_555
O16 Si10 1.651759 1_555
O17 Si11 1.651759 1_555
O18 Si11 1.643052 1_555
O19 Si9 1.643052 1_555
O20 Si10 1.643052 1_555
O21 Si7 1.640739 1_555
O21 Ti4 1.904420 1_555
O22 Si8 1.640739 1_555
O22 Ti4 1.904420 1_555
O23 Si6 1.640739 1_555
O23 Ti4 1.904421 1_555
O24 Si12 1.646856 1_555
O25 Si13 1.646856 1_555
O26 Si14 1.646856 1_555
O27 Si15 1.639492 1_555
O27 Ti5 1.898049 1_555
O28 Si16 1.639492 1_555
O28 Ti5 1.898049 1_555
O29 Si17 1.639492 1_555
O29 Ti5 1.898049 1_555
O30 Si17 1.645877 1_555
O31 Si15 1.645877 1_555
O32 Si16 1.645877 1_555
O33 Si13 1.646518 1_555
O34 Si14 1.646518 1_555
O35 Si12 1.646518 1_555
O36 Si17 1.634152 1_555
O36 Ti0 2.018976 1_565
O37 Si15 1.634161 1_555
O37 Ti0 2.018976 1_665
O38 Si16 1.634157 1_555
O38 Ti0 2.018976 1_555
O39 Si13 1.656348 1_555
O40 Si14 1.656339 1_555
O41 Si12 1.656344 1_555
O42 Si6 1.629608 1_555
O42 Ti1 2.032890 1_655
O43 Si7 1.629617 1_555
O43 Ti1 2.032890 1_555
O44 Si8 1.629614 1_555
O44 Ti1 2.032890 1_665
O45 Si9 1.641514 1_555
O45 Ti2 2.033766 1_665
O46 Si10 1.641505 1_555
O46 Ti2 2.033766 1_655
O47 Si11 1.641510 1_555
O47 Ti2 2.033766 1_555
O48 Si5 1.634200 1_545
O48 Ti3 2.039569 1_555
O49 Si3 1.634209 1_555
O49 Ti3 2.039569 1_555
O50 Si4 1.634205 1_655
O50 Ti3 2.039569 1_555
O51 Si1 1.646421 1_555
O52 Si2 1.646412 1_555
O53 Si0 1.646417 1_555
O54 Si12 1.656108 1_555
O55 Si13 1.656090 1_655
O56 Si14 1.656097 1_545
O57 Si15 1.632305 1_545
O57 Ti4 2.035120 1_555
O58 Si16 1.632322 1_555
O58 Ti4 2.035120 1_555
O59 Si17 1.632312 1_655
O59 Ti4 2.035120 1_555
O60 Si11 1.655794 1_555
O61 Si9 1.655776 1_455
O62 Si10 1.655784 1_565
O63 Si7 1.629368 1_565
O63 Ti5 2.027130 1_555
O64 Si8 1.629386 1_555
O64 Ti5 2.027130 1_555
O65 Si6 1.629376 1_455
O65 Ti5 2.027130 1_555
O66 Si0 1.646532 1_565
O67 Si1 1.646541 1_555
O68 Si2 1.646537 1_455
O69 Si3 1.649424 1_555
O70 Si4 1.649416 1_555
O71 Si5 1.649421 1_555
