# generated using pymatgen
data_Nb3ClO7
_symmetry_space_group_name_H-M   'P 1'
_cell_length_a   3.88417737
_cell_length_b   11.02496575
_cell_length_c   15.74295519
_cell_angle_alpha   90.00000000
_cell_angle_beta   90.00000000
_cell_angle_gamma   90.00000000
_symmetry_Int_Tables_number   1
_chemical_formula_structural   Nb3ClO7
_chemical_formula_sum   'Nb12 Cl4 O28'
_cell_volume   674.15934957
_cell_formula_units_Z   4
loop_
 _symmetry_equiv_pos_site_id
 _symmetry_equiv_pos_as_xyz
  1  'x, y, z'
loop_
 _atom_site_type_symbol
 _atom_site_label
 _atom_site_symmetry_multiplicity
 _atom_site_fract_x
 _atom_site_fract_y
 _atom_site_fract_z
 _atom_site_occupancy
  Nb  Nb0  1  0.50132307  0.03704379  0.16441334  1
  Nb  Nb1  1  0.04861720  0.25000000  0.46890380  1
  Nb  Nb2  1  0.45138280  0.25000000  0.96890380  1
  Nb  Nb3  1  0.95138280  0.75000000  0.53109620  1
  Nb  Nb4  1  0.54861720  0.75000000  0.03109620  1
  Nb  Nb5  1  0.00132307  0.96295621  0.33558666  1
  Nb  Nb6  1  0.49867693  0.53704379  0.83558666  1
  Nb  Nb7  1  0.99867693  0.46295621  0.66441334  1
  Nb  Nb8  1  0.49867693  0.96295621  0.83558666  1
  Nb  Nb9  1  0.99867693  0.03704379  0.66441334  1
  Nb  Nb10  1  0.50132307  0.46295621  0.16441334  1
  Nb  Nb11  1  0.00132307  0.53704379  0.33558666  1
  Cl  Cl0  1  0.00741391  0.75000000  0.25873331  1
  Cl  Cl1  1  0.50741391  0.25000000  0.24126669  1
  Cl  Cl2  1  0.99258609  0.25000000  0.74126669  1
  Cl  Cl3  1  0.49258609  0.75000000  0.75873331  1
  O  O0  1  0.00650201  0.12548471  0.56635423  1
  O  O1  1  0.51646963  0.25000000  0.47539443  1
  O  O2  1  0.98353037  0.25000000  0.97539443  1
  O  O3  1  0.48353037  0.75000000  0.52460557  1
  O  O4  1  0.49321197  0.11623457  0.88564129  1
  O  O5  1  0.99321197  0.88376543  0.61435871  1
  O  O6  1  0.50678803  0.61623457  0.11435871  1
  O  O7  1  0.00678803  0.38376543  0.38564129  1
  O  O8  1  0.50678803  0.88376543  0.11435871  1
  O  O9  1  0.00678803  0.11623457  0.38564129  1
  O  O10  1  0.49321197  0.38376543  0.88564129  1
  O  O11  1  0.99321197  0.61623457  0.61435871  1
  O  O12  1  0.00251182  0.46975065  0.20048902  1
  O  O13  1  0.50251182  0.53024935  0.29951098  1
  O  O14  1  0.99748818  0.96975065  0.79951098  1
  O  O15  1  0.49349799  0.12548471  0.06635423  1
  O  O16  1  0.99748818  0.53024935  0.79951098  1
  O  O17  1  0.49748818  0.46975065  0.70048902  1
  O  O18  1  0.00251182  0.03024935  0.20048902  1
  O  O19  1  0.50251182  0.96975065  0.29951098  1
  O  O20  1  0.99349799  0.62548471  0.43364577  1
  O  O21  1  0.49349799  0.37451529  0.06635423  1
  O  O22  1  0.49748818  0.03024935  0.70048902  1
  O  O23  1  0.50650201  0.87451529  0.93364577  1
  O  O24  1  0.00650201  0.37451529  0.56635423  1
  O  O25  1  0.50650201  0.62548471  0.93364577  1
  O  O26  1  0.99349799  0.87451529  0.43364577  1
  O  O27  1  0.01646963  0.75000000  0.02460557  1
loop_
_geom_bond_atom_site_label_1
_geom_bond_atom_site_label_2
_geom_bond_distance
_geom_bond_site_symmetry_2
Nb0 O15 1.826142 1_555
Nb0 O8 1.864707 1_545
Nb0 O18 2.020386 1_555
Nb0 O18 2.029243 1_655
Nb0 O19 2.252526 1_545
Nb1 O1 1.820092 1_555
Nb1 O7 1.979774 1_555
Nb1 O9 1.979774 1_555
Nb1 O0 2.065167 1_555
Nb1 O24 2.065167 1_555
Nb1 O1 2.069480 1_455
Nb2 O2 1.820092 1_455
Nb2 O10 1.979774 1_555
Nb2 O4 1.979774 1_555
Nb2 O15 2.065167 1_556
Nb2 O21 2.065167 1_556
Nb2 O2 2.069480 1_555
Nb3 O3 1.820092 1_555
Nb3 O11 1.979774 1_555
Nb3 O5 1.979774 1_555
Nb3 O26 2.065167 1_555
Nb3 O20 2.065167 1_555
Nb3 O3 2.069480 1_655
Nb4 O27 1.820092 1_655
Nb4 O8 1.979774 1_555
Nb4 O6 1.979774 1_555
Nb4 O23 2.065167 1_554
Nb4 O25 2.065167 1_554
Nb4 O27 2.069480 1_555
Nb5 O26 1.826142 1_455
Nb5 O9 1.864707 1_565
Nb5 O19 2.020386 1_455
Nb5 O19 2.029243 1_555
Nb5 O18 2.252526 1_565
Nb6 O25 1.826142 1_555
Nb6 O10 1.864707 1_555
Nb6 O16 2.020386 1_555
Nb6 O16 2.029243 1_455
Nb6 O17 2.252526 1_555
Nb7 O24 1.826142 1_655
Nb7 O11 1.864707 1_555
Nb7 O17 2.020386 1_655
Nb7 O17 2.029243 1_555
Nb7 O16 2.252526 1_555
Nb8 O23 1.826142 1_555
Nb8 O4 1.864707 1_565
Nb8 O14 2.020386 1_555
Nb8 O14 2.029243 1_455
Nb8 O22 2.252526 1_565
Nb9 O0 1.826142 1_655
Nb9 O5 1.864707 1_545
Nb9 O22 2.020386 1_655
Nb9 O22 2.029243 1_555
Nb9 O14 2.252526 1_545
Nb10 O21 1.826142 1_555
Nb10 O6 1.864707 1_555
Nb10 O12 2.020386 1_555
Nb10 O12 2.029243 1_655
Nb10 O13 2.252526 1_555
Nb11 O20 1.826142 1_455
Nb11 O7 1.864707 1_555
Nb11 O13 2.020386 1_455
Nb11 O13 2.029243 1_555
Nb11 O12 2.252526 1_555
Cl0 Nb11 2.641353 1_555
Cl0 Nb5 2.641353 1_555
Cl1 Nb10 2.641353 1_555
Cl1 Nb0 2.641353 1_555
Cl2 Nb7 2.641353 1_555
Cl2 Nb9 2.641353 1_555
Cl3 Nb6 2.641353 1_555
Cl3 Nb8 2.641353 1_555
