# generated using pymatgen
data_Zr6FeCl14
_symmetry_space_group_name_H-M   'P 1'
_cell_length_a   9.73659072
_cell_length_b   9.73659072
_cell_length_c   11.85035879
_cell_angle_alpha   90.00000000
_cell_angle_beta   90.00000000
_cell_angle_gamma   96.46248622
_symmetry_Int_Tables_number   1
_chemical_formula_structural   Zr6FeCl14
_chemical_formula_sum   'Zr12 Fe2 Cl28'
_cell_volume   1116.28968818
_cell_formula_units_Z   2
loop_
 _symmetry_equiv_pos_site_id
 _symmetry_equiv_pos_as_xyz
  1  'x, y, z'
loop_
 _atom_site_type_symbol
 _atom_site_label
 _atom_site_symmetry_multiplicity
 _atom_site_fract_x
 _atom_site_fract_y
 _atom_site_fract_z
 _atom_site_occupancy
  Zr  Zr0  1  0.04774297  0.80730070  0.38056106  1
  Zr  Zr1  1  0.84686683  0.84686683  0.61179813  1
  Zr  Zr2  1  0.15313317  0.15313317  0.38820187  1
  Zr  Zr3  1  0.34686683  0.34686683  0.88820187  1
  Zr  Zr4  1  0.45225703  0.69269930  0.88056106  1
  Zr  Zr5  1  0.65313317  0.65313317  0.11179813  1
  Zr  Zr6  1  0.19269930  0.95225703  0.61943894  1
  Zr  Zr7  1  0.30730070  0.54774297  0.11943894  1
  Zr  Zr8  1  0.54774297  0.30730070  0.11943894  1
  Zr  Zr9  1  0.95225703  0.19269930  0.61943894  1
  Zr  Zr10  1  0.80730070  0.04774297  0.38056106  1
  Zr  Zr11  1  0.69269930  0.45225703  0.88056106  1
  Fe  Fe0  1  0.00000000  0.00000000  0.50000000  1
  Fe  Fe1  1  0.50000000  0.50000000  -0.00000000  1
  Cl  Cl0  1  0.36420360  0.11838647  0.50769490  1
  Cl  Cl1  1  0.09711762  0.59711762  0.25000000  1
  Cl  Cl2  1  0.24939549  0.75060451  0.50000000  1
  Cl  Cl3  1  0.25060451  0.74939549  -0.00000000  1
  Cl  Cl4  1  0.75060451  0.24939549  0.50000000  1
  Cl  Cl5  1  0.74939549  0.25060451  -0.00000000  1
  Cl  Cl6  1  0.84247867  0.84247867  0.24178182  1
  Cl  Cl7  1  0.65752133  0.65752133  0.74178182  1
  Cl  Cl8  1  0.34247867  0.34247867  0.25821818  1
  Cl  Cl9  1  0.15752133  0.15752133  0.75821818  1
  Cl  Cl10  1  0.59711762  0.09711762  0.25000000  1
  Cl  Cl11  1  0.90288238  0.40288238  0.75000000  1
  Cl  Cl12  1  0.96404708  0.20888031  0.25273931  1
  Cl  Cl13  1  0.53595292  0.29111969  0.75273931  1
  Cl  Cl14  1  0.38161353  0.13579640  0.00769490  1
  Cl  Cl15  1  0.79111969  0.03595292  0.74726069  1
  Cl  Cl16  1  0.03595292  0.79111969  0.74726069  1
  Cl  Cl17  1  0.46404708  0.70888031  0.24726069  1
  Cl  Cl18  1  0.29111969  0.53595292  0.75273931  1
  Cl  Cl19  1  0.20888031  0.96404708  0.25273931  1
  Cl  Cl20  1  0.13579640  0.38161353  0.00769490  1
  Cl  Cl21  1  0.70888031  0.46404708  0.24726069  1
  Cl  Cl22  1  0.88161353  0.63579640  0.49230510  1
  Cl  Cl23  1  0.61838647  0.86420360  0.99230510  1
  Cl  Cl24  1  0.86420360  0.61838647  0.99230510  1
  Cl  Cl25  1  0.63579640  0.88161353  0.49230510  1
  Cl  Cl26  1  0.11838647  0.36420360  0.50769490  1
  Cl  Cl27  1  0.40288238  0.90288238  0.75000000  1
loop_
_geom_bond_atom_site_label_1
_geom_bond_atom_site_label_2
_geom_bond_distance
_geom_bond_site_symmetry_2
Fe0 Zr1 2.387662 1_445
Fe0 Zr2 2.387662 1_555
Fe0 Zr9 2.436394 1_455
Fe0 Zr6 2.436394 1_545
Fe0 Zr0 2.436394 1_545
Fe0 Zr10 2.436394 1_455
Fe1 Zr3 2.387662 1_554
Fe1 Zr5 2.387662 1_555
Fe1 Zr4 2.436394 1_554
Fe1 Zr7 2.436394 1_555
Fe1 Zr11 2.436394 1_554
Fe1 Zr8 2.436394 1_555
Cl0 Zr2 2.549428 1_555
Cl0 Zr6 2.559370 1_545
Cl1 Zr0 2.652247 1_555
Cl1 Zr7 2.652247 1_555
Cl2 Zr0 2.531211 1_555
Cl2 Zr6 2.531211 1_555
Cl3 Zr7 2.531211 1_555
Cl3 Zr4 2.531211 1_554
Cl4 Zr10 2.531211 1_555
Cl4 Zr9 2.531211 1_555
Cl5 Zr8 2.531211 1_555
Cl5 Zr11 2.531211 1_554
Cl6 Zr10 2.640145 1_565
Cl6 Zr0 2.640145 1_655
Cl6 Zr5 2.899168 1_555
Cl7 Zr4 2.640145 1_555
Cl7 Zr11 2.640145 1_555
Cl7 Zr1 2.899168 1_555
Cl8 Zr7 2.640145 1_555
Cl8 Zr8 2.640145 1_555
Cl8 Zr2 2.899168 1_555
Cl9 Zr6 2.640145 1_545
Cl9 Zr9 2.640145 1_455
Cl9 Zr3 2.899168 1_555
Cl10 Zr8 2.652247 1_555
Cl10 Zr10 2.652247 1_555
Cl11 Zr11 2.652247 1_555
Cl11 Zr9 2.652247 1_555
Cl12 Zr2 2.546756 1_655
Cl12 Zr10 2.558546 1_555
Cl13 Zr3 2.546756 1_555
Cl13 Zr11 2.558546 1_555
Cl14 Zr3 2.549428 1_554
Cl14 Zr8 2.559370 1_555
Cl15 Zr1 2.546756 1_545
Cl15 Zr9 2.558546 1_555
Cl16 Zr1 2.546756 1_455
Cl16 Zr6 2.558546 1_555
Cl17 Zr5 2.546756 1_555
Cl17 Zr7 2.558546 1_555
Cl18 Zr3 2.546756 1_555
Cl18 Zr4 2.558546 1_555
Cl19 Zr2 2.546756 1_565
Cl19 Zr0 2.558546 1_555
Cl20 Zr3 2.549428 1_554
Cl20 Zr7 2.559370 1_555
Cl21 Zr5 2.546756 1_555
Cl21 Zr8 2.558546 1_555
Cl22 Zr1 2.549428 1_555
Cl22 Zr0 2.559370 1_655
Cl23 Zr5 2.549428 1_556
Cl23 Zr4 2.559370 1_555
Cl24 Zr5 2.549428 1_556
Cl24 Zr11 2.559370 1_555
Cl25 Zr1 2.549428 1_555
Cl25 Zr10 2.559370 1_565
Cl26 Zr2 2.549428 1_555
Cl26 Zr9 2.559370 1_455
Cl27 Zr4 2.652247 1_555
Cl27 Zr6 2.652247 1_555
