# generated using pymatgen
data_Na7MgAl3(PO4)6
_symmetry_space_group_name_H-M   'P 1'
_cell_length_a   8.71247797
_cell_length_b   8.71079375
_cell_length_c   21.39896414
_cell_angle_alpha   90.12177130
_cell_angle_beta   90.02393016
_cell_angle_gamma   120.00625745
_symmetry_Int_Tables_number   1
_chemical_formula_structural   Na7MgAl3(PO4)6
_chemical_formula_sum   'Na21 Mg3 Al9 P18 O72'
_cell_volume   1406.35124961
_cell_formula_units_Z   3
loop_
 _symmetry_equiv_pos_site_id
 _symmetry_equiv_pos_as_xyz
  1  'x, y, z'
loop_
 _atom_site_type_symbol
 _atom_site_label
 _atom_site_symmetry_multiplicity
 _atom_site_fract_x
 _atom_site_fract_y
 _atom_site_fract_z
 _atom_site_occupancy
  Na  Na0  1  0.63977342  0.00688294  0.24566050  1
  Na  Na1  1  0.36622094  0.35883294  0.24600883  1
  Na  Na2  1  0.99261276  0.63289517  0.24545719  1
  Na  Na3  1  0.63252354  0.62601450  0.74759210  1
  Na  Na4  1  0.99405834  0.36768936  0.74814461  1
  Na  Na5  1  0.37487216  0.00602786  0.74779140  1
  Na  Na6  1  0.02488425  0.69224911  0.58454450  1
  Na  Na7  1  0.66372791  0.97324065  0.58404314  1
  Na  Na8  1  0.30998790  0.97321319  0.08412542  1
  Na  Na9  1  0.66737917  0.69113540  0.08452795  1
  Na  Na10  1  0.69754280  0.03276921  0.91963182  1
  Na  Na11  1  0.33103818  0.30058076  0.91903143  1
  Na  Na12  1  0.96641741  0.29372623  0.41410656  1
  Na  Na13  1  0.32747203  0.03450984  0.41420474  1
  Na  Na14  1  0.70747113  0.67304228  0.41408858  1
  Na  Na15  1  0.01188092  0.01328805  0.50079547  1
  Na  Na16  1  0.99979938  0.99894193  0.00087191  1
  Na  Na17  1  0.67915915  0.34750750  0.83507412  1
  Na  Na18  1  0.66689307  0.33337836  0.32962242  1
  Na  Na19  1  0.31822246  0.65054113  0.16264228  1
  Na  Na20  1  0.33171859  0.65097281  0.66396439  1
  Mg  Mg0  1  0.00017322  0.00065532  0.35301669  1
  Mg  Mg1  1  0.66564754  0.33416631  0.68374124  1
  Mg  Mg2  1  0.66955948  0.33494685  0.18056431  1
  Al  Al0  1  0.99959996  0.99567087  0.85486560  1
  Al  Al1  1  0.00498378  0.00500434  0.64667302  1
  Al  Al2  1  0.00113532  0.00600972  0.14730823  1
  Al  Al3  1  0.67375632  0.33952639  0.98257085  1
  Al  Al4  1  0.66452142  0.33239554  0.48338610  1
  Al  Al5  1  0.32921327  0.66402492  0.01663251  1
  Al  Al6  1  0.33269089  0.66324580  0.51967257  1
  Al  Al7  1  0.33332880  0.66567202  0.31373824  1
  Al  Al8  1  0.33031684  0.66437522  0.81545092  1
  P  P0  1  0.29003011  0.99462863  0.25088084  1
  P  P1  1  0.70451939  0.71006460  0.25094200  1
  P  P2  1  0.00473721  0.29410231  0.25196930  1
  P  P3  1  0.28123999  0.28730535  0.75299812  1
  P  P4  1  0.00667126  0.71869590  0.75098402  1
  P  P5  1  0.71209995  0.99361520  0.75197655  1
  P  P6  1  0.96554322  0.33384341  0.58299325  1
  P  P7  1  0.36959314  0.03877497  0.58274326  1
  P  P8  1  0.66309775  0.62767559  0.58334355  1
  P  P9  1  0.96541559  0.62829815  0.08288148  1
  P  P10  1  0.66865054  0.03766102  0.08109507  1
  P  P11  1  0.36785389  0.33449347  0.08118209  1
  P  P12  1  0.62515601  0.66580883  0.91632721  1
  P  P13  1  0.04180793  0.38024675  0.91556570  1
  P  P14  1  0.33033744  0.95457651  0.91635610  1
  P  P15  1  0.61579540  0.95673601  0.41868303  1
  P  P16  1  0.34119508  0.38476032  0.41785022  1
  P  P17  1  0.04331271  0.65934232  0.41869584  1
  O  O0  1  0.21313948  0.02589102  0.31037185  1
  O  O1  1  0.81285558  0.78761207  0.31043278  1
  O  O2  1  0.97288504  0.18945994  0.31242993  1
  O  O3  1  0.19638933  0.17634218  0.81221797  1
  O  O4  1  0.97859662  0.81123697  0.80678400  1
  O  O5  1  0.82753974  0.02138589  0.80998802  1
  O  O6  1  0.79670079  0.96468466  0.69248236  1
  O  O7  1  0.16197186  0.19853468  0.69564183  1
  O  O8  1  0.03525496  0.82892969  0.69049080  1
  O  O9  1  0.79636891  0.82956428  0.19297957  1
  O  O10  1  0.03561355  0.19899794  0.19626519  1
  O  O11  1  0.17054558  0.96672794  0.19282346  1
  O  O12  1  0.89057561  0.37251083  0.64196108  1
  O  O13  1  0.48375102  0.11198269  0.64149824  1
  O  O14  1  0.63541128  0.52458991  0.64351994  1
  O  O15  1  0.89488705  0.52918162  0.14404090  1
  O  O16  1  0.62796978  0.11060355  0.13974883  1
  O  O17  1  0.48114073  0.37368103  0.14016085  1
  O  O18  1  0.46017049  0.29986249  0.02446941  1
  O  O19  1  0.83266639  0.53268151  0.02883995  1
  O  O20  1  0.69217178  0.15467944  0.02320124  1
  O  O21  1  0.46212377  0.15544400  0.52479371  1
  O  O22  1  0.69763685  0.53583580  0.52669581  1
  O  O23  1  0.83917501  0.29961562  0.52609915  1
  O  O24  1  0.53779309  0.69964554  0.97324449  1
  O  O25  1  0.16973620  0.47093016  0.96981102  1
  O  O26  1  0.30896626  0.84365613  0.97443184  1
  O  O27  1  0.52530559  0.84246678  0.47615906  1
  O  O28  1  0.31330375  0.47842810  0.47298224  1
  O  O29  1  0.15887758  0.68598544  0.47615420  1
  O  O30  1  0.12872085  0.63018067  0.35941974  1
  O  O31  1  0.50157890  0.87059829  0.35930926  1
  O  O32  1  0.37127834  0.49588972  0.35741379  1
  O  O33  1  0.12316877  0.48756517  0.85480427  1
  O  O34  1  0.36425444  0.86843634  0.85809718  1
  O  O35  1  0.50465358  0.63092115  0.85786086  1
  O  O36  1  0.02061636  0.82333133  0.41589827  1
  O  O37  1  0.80227187  0.97892714  0.41633772  1
  O  O38  1  0.17777829  0.19733602  0.41535255  1
  O  O39  1  0.01917891  0.18917743  0.91137330  1
  O  O40  1  0.16677115  0.98011149  0.91099826  1
  O  O41  1  0.80950964  0.83484496  0.90997056  1
  O  O42  1  0.97641366  0.16194485  0.58915677  1
  O  O43  1  0.18197578  0.01702440  0.58833375  1
  O  O44  1  0.83473800  0.81638184  0.58715502  1
  O  O45  1  0.98307180  0.81750979  0.08741034  1
  O  O46  1  0.83397021  0.01490488  0.08784443  1
  O  O47  1  0.18507136  0.16276533  0.08832400  1
  O  O48  1  0.68961208  0.15803807  0.74818684  1
  O  O49  1  0.46792893  0.30962629  0.74839684  1
  O  O50  1  0.84276907  0.53116701  0.74782527  1
  O  O51  1  0.67716675  0.52203033  0.24448176  1
  O  O52  1  0.84354929  0.31983322  0.24403203  1
  O  O53  1  0.47763779  0.15564294  0.24391071  1
  O  O54  1  0.64032611  0.49680468  0.92386596  1
  O  O55  1  0.85344105  0.35510600  0.92359342  1
  O  O56  1  0.49923623  0.14404726  0.92129868  1
  O  O57  1  0.63420338  0.14465202  0.42344331  1
  O  O58  1  0.51090697  0.36690115  0.42413336  1
  O  O59  1  0.85579110  0.48967548  0.42415287  1
  O  O60  1  0.34984039  0.50033372  0.07088340  1
  O  O61  1  0.15393090  0.65674721  0.07212774  1
  O  O62  1  0.50290923  0.84737678  0.07275252  1
  O  O63  1  0.34388232  0.84791090  0.57502015  1
  O  O64  1  0.50384854  0.65829812  0.57455975  1
  O  O65  1  0.15037157  0.49874806  0.57377034  1
  O  O66  1  0.30334211  0.82201778  0.25547659  1
  O  O67  1  0.51862708  0.69694272  0.25521008  1
  O  O68  1  0.17693732  0.48093529  0.25595928  1
  O  O69  1  0.30108419  0.47642371  0.75697903  1
  O  O70  1  0.17673476  0.70093338  0.75662997  1
  O  O71  1  0.52437130  0.82371429  0.75718005  1
loop_
_geom_bond_atom_site_label_1
_geom_bond_atom_site_label_2
_geom_bond_distance
_geom_bond_site_symmetry_2
Na0 O53 2.346695 1_555
Na0 O67 2.365846 1_545
Na0 O52 2.396726 1_555
Na0 O16 2.462697 1_555
Na0 O66 2.551444 1_545
Na0 O31 2.712662 1_545
Na0 O9 2.760365 1_545
Na0 O2 2.892068 1_555
Na1 O51 2.347244 1_555
Na1 O68 2.376956 1_555
Na1 O53 2.407313 1_555
Na1 O17 2.454223 1_555
Na1 O67 2.561635 1_555
Na1 O32 2.654373 1_555
Na1 O10 2.710780 1_555
Na1 O0 2.869949 1_555
Na2 O15 2.339161 1_555
Na2 O52 2.362529 1_555
Na2 O66 2.371971 1_655
Na2 O51 2.414861 1_555
Na2 O68 2.551228 1_655
Na2 O30 2.716581 1_655
Na2 O11 2.763057 1_655
Na2 O1 2.882231 1_555
Na3 O71 2.348906 1_555
Na3 O50 2.356196 1_555
Na3 O49 2.387369 1_555
Na3 O14 2.398915 1_555
Na3 O69 2.512962 1_555
Na3 O35 2.619207 1_555
Na3 O6 2.816980 1_555
Na3 O4 2.901924 1_555
Na4 O48 2.350707 1_555
Na4 O69 2.356473 1_655
Na4 O50 2.375432 1_555
Na4 O12 2.452381 1_555
Na4 O70 2.523694 1_655
Na4 O33 2.525469 1_655
Na4 O7 2.779196 1_655
Na4 O5 2.932099 1_555
Na5 O70 2.343603 1_545
Na5 O49 2.346624 1_555
Na5 O48 2.375105 1_555
Na5 O13 2.461782 1_555
Na5 O71 2.515746 1_545
Na5 O34 2.630205 1_545
Na5 O8 2.839351 1_545
Na5 O3 2.969905 1_555
Na6 O44 2.389199 1_455
Na6 O63 2.415955 1_555
Na6 O65 2.435420 1_555
Na6 O43 2.451433 1_565
Na6 O8 2.538971 1_555
Na6 O29 2.609802 1_555
Na6 O12 2.718841 1_455
Na6 O22 2.760844 1_455
Na7 O42 2.378162 1_565
Na7 O64 2.383902 1_555
Na7 O63 2.439340 1_555
Na7 O44 2.475423 1_555
Na7 O27 2.587312 1_555
Na7 O6 2.610985 1_555
Na7 O13 2.705865 1_565
Na7 O23 2.761628 1_565
Na8 O47 2.390738 1_565
Na8 O61 2.400349 1_555
Na8 O62 2.434722 1_555
Na8 O45 2.468558 1_455
Na8 O26 2.600446 1_554
Na8 O11 2.612243 1_555
Na8 O16 2.683136 1_565
Na8 O18 2.780458 1_565
Na9 O45 2.398311 1_555
Na9 O60 2.428930 1_555
Na9 O62 2.433277 1_555
Na9 O46 2.443471 1_565
Na9 O9 2.594883 1_555
Na9 O24 2.652021 1_554
Na9 O17 2.687875 1_555
Na9 O19 2.716880 1_555
Na10 O56 2.366622 1_555
Na10 O41 2.376473 1_545
Na10 O55 2.433164 1_555
Na10 O39 2.433698 1_655
Na10 O20 2.466084 1_556
Na10 O5 2.628900 1_555
Na10 O24 2.765794 1_545
Na10 O34 2.836587 1_545
Na11 O54 2.363420 1_555
Na11 O39 2.390144 1_555
Na11 O40 2.423289 1_545
Na11 O56 2.451077 1_555
Na11 O18 2.522203 1_556
Na11 O3 2.547402 1_555
Na11 O25 2.727235 1_555
Na11 O35 2.818841 1_555
Na12 O59 2.352161 1_555
Na12 O2 2.367481 1_555
Na12 O38 2.375553 1_655
Na12 O37 2.375958 1_545
Na12 O57 2.519144 1_555
Na12 O23 2.652081 1_555
Na12 O30 2.798107 1_655
Na12 O28 2.904236 1_655
Na13 O57 2.352777 1_555
Na13 O38 2.358663 1_555
Na13 O36 2.369419 1_545
Na13 O0 2.420216 1_555
Na13 O58 2.520215 1_555
Na13 O21 2.614821 1_555
Na13 O31 2.807159 1_545
Na13 O29 2.947929 1_545
Na14 O58 2.350631 1_555
Na14 O37 2.362696 1_555
Na14 O36 2.363502 1_655
Na14 O1 2.419445 1_555
Na14 O59 2.516584 1_555
Na14 O22 2.674384 1_555
Na14 O32 2.810665 1_555
Na14 O27 2.966038 1_555
Na15 O43 2.378107 1_555
Na15 O38 2.387338 1_555
Na15 O42 2.395386 1_455
Na15 O44 2.471272 1_445
Na15 O37 2.477750 1_445
Na15 O36 2.481426 1_545
Na16 O45 2.393854 1_555
Na16 O46 2.402621 1_565
Na16 O47 2.413768 1_665
Na16 O40 2.466077 1_654
Na16 O39 2.485220 1_664
Na16 O41 2.488141 1_554
Na17 O55 2.407201 1_555
Na17 O50 2.410638 1_555
Na17 O54 2.417867 1_555
Na17 O56 2.498073 1_555
Na17 O49 2.514596 1_555
Na17 O48 2.515279 1_555
Na18 O51 2.427677 1_555
Na18 O53 2.431452 1_555
Na18 O52 2.433191 1_555
Na18 O57 2.522033 1_555
Na18 O59 2.529530 1_555
Na18 O58 2.533610 1_555
Na19 O61 2.424657 1_555
Na19 O68 2.425108 1_555
Na19 O60 2.448143 1_555
Na19 O66 2.525003 1_555
Na19 O67 2.534480 1_555
Na19 O62 2.546796 1_555
Na20 O64 2.412575 1_555
Na20 O65 2.422987 1_555
Na20 O69 2.439716 1_555
Na20 O63 2.531589 1_555
Na20 O71 2.553175 1_555
Na20 O70 2.555600 1_555
Mg0 O1 1.974862 1_445
Mg0 O2 1.978044 1_455
Mg0 O0 1.979430 1_555
Mg0 O38 2.108545 1_555
Mg0 O36 2.124160 1_545
Mg0 O37 2.126359 1_445
Mg1 O13 1.999505 1_555
Mg1 O14 2.001135 1_555
Mg1 O12 2.024672 1_555
Mg1 O50 2.132202 1_555
Mg1 O49 2.135955 1_555
Mg1 O48 2.151369 1_555
Mg2 O16 1.999328 1_555
Mg2 O15 2.003054 1_555
Mg2 O17 2.027372 1_555
Mg2 O52 2.087686 1_555
Mg2 O51 2.100796 1_555
Mg2 O53 2.114639 1_555
Al0 O4 1.836284 1_555
Al0 O5 1.885522 1_565
Al0 O3 1.886233 1_665
Al0 O40 1.944015 1_655
Al0 O41 1.945249 1_555
Al0 O39 2.009002 1_665
Al1 O7 1.869715 1_555
Al1 O8 1.926560 1_545
Al1 O6 1.934624 1_445
Al1 O43 1.946285 1_555
Al1 O42 1.947549 1_455
Al1 O44 2.018364 1_445
Al2 O10 1.871087 1_555
Al2 O11 1.936389 1_545
Al2 O9 1.940493 1_445
Al2 O47 1.961165 1_555
Al2 O46 1.964198 1_455
Al2 O45 2.023906 1_445
Al3 O19 1.841181 1_556
Al3 O20 1.907494 1_556
Al3 O18 1.935381 1_556
Al3 O55 1.962619 1_555
Al3 O54 1.986454 1_555
Al3 O56 2.080817 1_555
Al4 O21 1.886552 1_555
Al4 O22 1.887858 1_555
Al4 O23 1.914927 1_555
Al4 O58 1.972764 1_555
Al4 O57 1.987053 1_555
Al4 O59 1.996564 1_555
Al5 O25 1.848714 1_554
Al5 O26 1.891281 1_554
Al5 O61 1.910875 1_555
Al5 O60 1.917371 1_555
Al5 O24 1.923373 1_554
Al5 O62 1.963688 1_555
Al6 O28 1.827465 1_555
Al6 O29 1.870648 1_555
Al6 O27 1.872849 1_555
Al6 O65 1.910125 1_555
Al6 O64 1.915230 1_555
Al6 O63 1.958245 1_555
Al7 O31 1.913230 1_555
Al7 O32 1.914360 1_555
Al7 O30 1.918460 1_555
Al7 O68 1.942137 1_555
Al7 O67 1.952543 1_555
Al7 O66 1.959641 1_555
Al8 O34 1.883366 1_555
Al8 O33 1.888142 1_555
Al8 O35 1.912664 1_555
Al8 O69 1.971009 1_555
Al8 O70 1.975526 1_555
Al8 O71 2.000450 1_555
O0 P0 1.524888 1_545
O1 P1 1.524949 1_555
O2 P2 1.527773 1_655
O3 P3 1.542072 1_555
O4 P4 1.526035 1_655
O5 P5 1.538004 1_545
O6 P5 1.553327 1_555
O7 P3 1.541223 1_555
O8 P4 1.557606 1_555
O9 P1 1.560617 1_555
O10 P2 1.548718 1_555
O11 P0 1.559110 1_555
O12 P6 1.533378 1_555
O13 P7 1.529003 1_555
O14 P8 1.520279 1_555
O15 P9 1.520092 1_555
O16 P10 1.525422 1_555
O17 P11 1.530918 1_555
O18 P11 1.566094 1_555
O19 P9 1.549199 1_555
O20 P10 1.553210 1_555
O21 P7 1.551524 1_555
O22 P8 1.561073 1_555
O23 P6 1.565986 1_555
O24 P12 1.540554 1_555
O25 P13 1.525818 1_555
O26 P14 1.529063 1_555
O27 P15 1.531723 1_555
O28 P16 1.520226 1_555
O29 P17 1.530833 1_555
O30 P17 1.554243 1_555
O31 P15 1.554217 1_555
O32 P16 1.558901 1_555
O33 P13 1.552461 1_555
O34 P14 1.556490 1_555
O35 P12 1.561429 1_555
O36 P17 1.538213 1_555
O37 P15 1.537999 1_555
O38 P16 1.539500 1_555
O39 P13 1.577397 1_555
O40 P14 1.552562 1_555
O41 P12 1.549830 1_555
O42 P6 1.552791 1_555
O43 P7 1.553276 1_555
O44 P8 1.576597 1_555
O45 P9 1.579648 1_555
O46 P10 1.555717 1_555
O47 P11 1.554220 1_555
O48 P5 1.541902 1_545
O49 P3 1.541747 1_555
O50 P4 1.542234 1_655
O51 P1 1.538607 1_555
O52 P2 1.538201 1_655
O53 P0 1.539234 1_545
O54 P12 1.551242 1_555
O55 P13 1.552978 1_655
O56 P14 1.571793 1_545
O57 P15 1.565962 1_545
O58 P16 1.567980 1_555
O59 P17 1.566197 1_655
O60 P11 1.545366 1_555
O61 P9 1.550943 1_455
O62 P10 1.571314 1_565
O63 P7 1.570974 1_565
O64 P8 1.549736 1_555
O65 P6 1.543809 1_455
O66 P0 1.568090 1_555
O67 P1 1.568268 1_555
O68 P2 1.569704 1_555
O69 P3 1.570191 1_555
O70 P4 1.569434 1_555
O71 P5 1.567681 1_555
