# generated using pymatgen
data_Na3Mg3Sc(SO4)6
_symmetry_space_group_name_H-M   'P 1'
_cell_length_a   8.74778307
_cell_length_b   8.75184346
_cell_length_c   22.68845298
_cell_angle_alpha   90.01005349
_cell_angle_beta   90.01730227
_cell_angle_gamma   120.09805940
_symmetry_Int_Tables_number   1
_chemical_formula_structural   Na3Mg3Sc(SO4)6
_chemical_formula_sum   'Na9 Mg9 Sc3 S18 O72'
_cell_volume   1502.80638308
_cell_formula_units_Z   3
loop_
 _symmetry_equiv_pos_site_id
 _symmetry_equiv_pos_as_xyz
  1  'x, y, z'
loop_
 _atom_site_type_symbol
 _atom_site_label
 _atom_site_symmetry_multiplicity
 _atom_site_fract_x
 _atom_site_fract_y
 _atom_site_fract_z
 _atom_site_occupancy
  Na  Na0  1  0.63535330  0.99900424  0.24906526  1
  Na  Na1  1  0.36452349  0.36343283  0.24890314  1
  Na  Na2  1  0.03072420  0.69791321  0.58552792  1
  Na  Na3  1  0.99909818  0.00812314  0.49922884  1
  Na  Na4  1  0.00001840  0.99936034  0.99871351  1
  Na  Na5  1  0.66590837  0.33243739  0.83069557  1
  Na  Na6  1  0.67605271  0.34190929  0.33542028  1
  Na  Na7  1  0.32348776  0.66570628  0.16028841  1
  Na  Na8  1  0.34239785  0.66576040  0.66862912  1
  Mg  Mg0  1  -0.00003173  0.99776353  0.35303165  1
  Mg  Mg1  1  0.00017965  0.00075564  0.85027459  1
  Mg  Mg2  1  0.99923736  0.00674153  0.65277080  1
  Mg  Mg3  1  0.99992092  0.99719465  0.14538394  1
  Mg  Mg4  1  0.66384066  0.33051164  0.68743289  1
  Mg  Mg5  1  0.67349038  0.33945588  0.17875267  1
  Mg  Mg6  1  0.33281240  0.66683495  0.01729072  1
  Mg  Mg7  1  0.33965687  0.66587078  0.51650314  1
  Mg  Mg8  1  0.32639757  0.66580310  0.31952851  1
  Sc  Sc0  1  0.66733764  0.33414148  0.98117609  1
  Sc  Sc1  1  0.66472392  0.33104307  0.48160610  1
  Sc  Sc2  1  0.33389765  0.66676865  0.81402230  1
  S  S0  1  0.28998950  0.99765439  0.24994964  1
  S  S1  1  0.71006971  0.70761158  0.25030931  1
  S  S2  1  0.99994333  0.29206775  0.25009431  1
  S  S3  1  0.29241552  0.28954021  0.74994628  1
  S  S4  1  0.99721055  0.70721885  0.74901935  1
  S  S5  1  0.71067053  0.00298812  0.74988966  1
  S  S6  1  0.95993808  0.33182254  0.58407452  1
  S  S7  1  0.37285283  0.03941345  0.58442394  1
  S  S8  1  0.66493567  0.62644176  0.58457342  1
  S  S9  1  0.96302791  0.62862377  0.08389244  1
  S  S10  1  0.66578818  0.03702443  0.08489585  1
  S  S11  1  0.37118436  0.33429423  0.08486947  1
  S  S12  1  0.62760962  0.67069115  0.91756516  1
  S  S13  1  0.04314963  0.37241430  0.91746666  1
  S  S14  1  0.32938333  0.95697633  0.91746641  1
  S  S15  1  0.62699782  0.95728704  0.41562682  1
  S  S16  1  0.33040971  0.37308114  0.41565456  1
  S  S17  1  0.04235505  0.66958119  0.41741785  1
  O  O0  1  0.21131427  0.03039113  0.30276826  1
  O  O1  1  0.81602786  0.78850030  0.30358274  1
  O  O2  1  0.96808284  0.18026780  0.30306980  1
  O  O3  1  0.21051134  0.18401623  0.80314320  1
  O  O4  1  0.97427640  0.79198123  0.80142687  1
  O  O5  1  0.81611882  0.02675133  0.80312829  1
  O  O6  1  0.78738807  0.97247721  0.69635803  1
  O  O7  1  0.18544504  0.21249204  0.69637535  1
  O  O8  1  0.02624816  0.81144991  0.69399127  1
  O  O9  1  0.78908531  0.81950241  0.19779142  1
  O  O10  1  0.03167870  0.21183401  0.19744189  1
  O  O11  1  0.18375457  0.97263738  0.19695570  1
  O  O12  1  0.87754820  0.36431164  0.63575388  1
  O  O13  1  0.48273245  0.12282296  0.63620617  1
  O  O14  1  0.63956390  0.51661933  0.63660402  1
  O  O15  1  0.88157508  0.52041825  0.13714719  1
  O  O16  1  0.63981455  0.11652144  0.13964313  1
  O  O17  1  0.47650570  0.35982364  0.13963981  1
  O  O18  1  0.45875329  0.30838174  0.03268133  1
  O  O19  1  0.85120998  0.54360046  0.03097098  1
  O  O20  1  0.69191340  0.15059807  0.03270225  1
  O  O21  1  0.45473488  0.14760448  0.53035335  1
  O  O22  1  0.69669219  0.54469437  0.53074757  1
  O  O23  1  0.85096261  0.30612672  0.52998633  1
  O  O24  1  0.54423349  0.69372770  0.97037206  1
  O  O25  1  0.14967802  0.45578980  0.97030675  1
  O  O26  1  0.30621937  0.85054419  0.97029417  1
  O  O27  1  0.54185206  0.84978202  0.46808794  1
  O  O28  1  0.30732124  0.45780590  0.46809637  1
  O  O29  1  0.14536909  0.69258834  0.47183770  1
  O  O30  1  0.12263715  0.64045150  0.36468281  1
  O  O31  1  0.52242946  0.88139286  0.36085115  1
  O  O32  1  0.35965248  0.47784154  0.36090183  1
  O  O33  1  0.12313569  0.48270563  0.86391714  1
  O  O34  1  0.35960144  0.87700336  0.86391969  1
  O  O35  1  0.51733244  0.64028399  0.86397908  1
  O  O36  1  0.02277432  0.82705810  0.41061448  1
  O  O37  1  0.80503724  0.97809462  0.41000498  1
  O  O38  1  0.17267369  0.19502593  0.40991505  1
  O  O39  1  0.02237259  0.19535248  0.91028232  1
  O  O40  1  0.17277896  0.97725686  0.91020775  1
  O  O41  1  0.80492971  0.82710445  0.91025463  1
  O  O42  1  0.97844831  0.17404519  0.58967830  1
  O  O43  1  0.19211996  0.01694386  0.58929724  1
  O  O44  1  0.82925078  0.80292187  0.58950821  1
  O  O45  1  0.97742836  0.80376902  0.08967143  1
  O  O46  1  0.82672036  0.02267373  0.09024462  1
  O  O47  1  0.19550460  0.17344313  0.09010823  1
  O  O48  1  0.68947035  0.15994678  0.74345104  1
  O  O49  1  0.47086363  0.31125755  0.74360990  1
  O  O50  1  0.83972611  0.52864737  0.74316298  1
  O  O51  1  0.68288419  0.52578831  0.24377261  1
  O  O52  1  0.83859639  0.30828513  0.24326539  1
  O  O53  1  0.47254570  0.16016709  0.24407142  1
  O  O54  1  0.64372766  0.50814411  0.92299989  1
  O  O55  1  0.86409446  0.35560311  0.92295086  1
  O  O56  1  0.49197855  0.13600193  0.92306491  1
  O  O57  1  0.64437253  0.13655050  0.42191993  1
  O  O58  1  0.49238609  0.35592917  0.42205257  1
  O  O59  1  0.86231841  0.50745055  0.42263357  1
  O  O60  1  0.35567893  0.49398647  0.07767812  1
  O  O61  1  0.13899076  0.64522040  0.07702834  1
  O  O62  1  0.50597558  0.86148047  0.07768656  1
  O  O63  1  0.35005279  0.85909091  0.57683634  1
  O  O64  1  0.50776244  0.64531022  0.57633819  1
  O  O65  1  0.13599151  0.49558627  0.57623740  1
  O  O66  1  0.31677288  0.84287874  0.25674347  1
  O  O67  1  0.52777451  0.68768959  0.25653157  1
  O  O68  1  0.16151729  0.46965379  0.25729944  1
  O  O69  1  0.31122343  0.47001683  0.75592326  1
  O  O70  1  0.15894860  0.68936364  0.75536191  1
  O  O71  1  0.52991692  0.84118966  0.75582943  1
loop_
_geom_bond_atom_site_label_1
_geom_bond_atom_site_label_2
_geom_bond_distance
_geom_bond_site_symmetry_2
Na0 O52 2.382969 1_565
Na0 O67 2.401305 1_555
Na0 O66 2.417678 1_555
Na0 O53 2.458728 1_565
Na0 O16 2.680189 1_565
Na0 O31 2.729558 1_555
Na0 O9 2.783708 1_555
Na0 O2 2.802832 1_565
Na1 O68 2.389577 1_555
Na1 O53 2.399088 1_555
Na1 O51 2.412436 1_555
Na1 O67 2.461246 1_555
Na1 O17 2.671816 1_555
Na1 O32 2.739239 1_555
Na1 O10 2.779234 1_555
Na1 O0 2.805296 1_555
Na2 O44 2.362955 1_455
Na2 O65 2.379771 1_555
Na2 O43 2.417151 1_565
Na2 O63 2.424917 1_555
Na2 O8 2.661384 1_555
Na2 O12 2.774277 1_455
Na2 O29 2.776678 1_555
Na2 O22 2.819312 1_455
Na3 O37 2.568890 1_545
Na3 O38 2.568932 1_655
Na3 O42 2.571948 1_555
Na3 O43 2.626805 1_655
Na3 O36 2.631451 1_645
Na3 O44 2.637276 1_545
Na4 O41 2.574816 1_455
Na4 O40 2.578483 1_555
Na4 O39 2.582828 1_565
Na4 O45 2.624939 1_456
Na4 O47 2.632305 1_566
Na4 O46 2.639028 1_466
Na5 O49 2.555402 1_555
Na5 O48 2.559468 1_555
Na5 O50 2.566927 1_555
Na5 O56 2.653727 1_555
Na5 O55 2.659530 1_555
Na5 O54 2.662061 1_555
Na6 O59 2.509730 1_555
Na6 O58 2.580582 1_555
Na6 O57 2.580806 1_555
Na6 O51 2.611861 1_555
Na6 O52 2.627032 1_555
Na6 O53 2.674196 1_555
Na7 O61 2.431717 1_555
Na7 O62 2.501198 1_555
Na7 O60 2.504934 1_555
Na7 O66 2.699476 1_555
Na7 O68 2.713120 1_555
Na7 O67 2.766114 1_555
Na8 O71 2.536393 1_555
Na8 O69 2.542587 1_555
Na8 O64 2.602029 1_555
Na8 O70 2.612391 1_555
Na8 O63 2.663156 1_555
Na8 O65 2.678055 1_555
Mg0 O1 2.060224 1_455
Mg0 O0 2.066890 1_565
Mg0 O36 2.068361 1_555
Mg0 O38 2.076219 1_565
Mg0 O37 2.077331 1_455
Mg0 O2 2.088357 1_465
Mg1 O3 2.035503 1_555
Mg1 O5 2.038362 1_455
Mg1 O4 2.049885 1_445
Mg1 O39 2.111687 1_555
Mg1 O41 2.116026 1_445
Mg1 O40 2.116908 1_545
Mg2 O7 1.982710 1_655
Mg2 O6 1.986486 1_545
Mg2 O8 2.063296 1_645
Mg2 O42 2.119848 1_555
Mg2 O43 2.186157 1_655
Mg2 O44 2.188773 1_545
Mg3 O45 2.041371 1_555
Mg3 O47 2.057775 1_665
Mg3 O46 2.061114 1_565
Mg3 O11 2.084944 1_655
Mg3 O9 2.087857 1_555
Mg3 O10 2.115785 1_665
Mg4 O49 2.053958 1_555
Mg4 O48 2.056723 1_555
Mg4 O13 2.067515 1_555
Mg4 O50 2.072476 1_555
Mg4 O14 2.091749 1_555
Mg4 O12 2.098572 1_555
Mg5 O15 1.955226 1_555
Mg5 O17 2.023815 1_555
Mg5 O16 2.025747 1_555
Mg5 O52 2.167233 1_555
Mg5 O51 2.169563 1_555
Mg5 O53 2.232556 1_555
Mg6 O25 2.035895 1_554
Mg6 O26 2.037560 1_554
Mg6 O24 2.042988 1_554
Mg6 O61 2.104119 1_555
Mg6 O62 2.117557 1_555
Mg6 O60 2.123587 1_555
Mg7 O27 2.017984 1_555
Mg7 O28 2.021035 1_555
Mg7 O64 2.074165 1_555
Mg7 O29 2.089943 1_555
Mg7 O65 2.138013 1_555
Mg7 O63 2.141618 1_555
Mg8 O30 1.969888 1_555
Mg8 O31 2.032970 1_555
Mg8 O32 2.037689 1_555
Mg8 O68 2.129616 1_555
Mg8 O66 2.137647 1_555
Mg8 O67 2.201369 1_555
O0 S0 1.479863 1_545
O1 S1 1.470421 1_555
O2 S2 1.485529 1_555
O3 S3 1.469781 1_555
O4 S4 1.467477 1_555
O5 S5 1.469695 1_555
O6 S5 1.475444 1_565
O7 S3 1.474380 1_555
O8 S4 1.491175 1_455
O9 S1 1.475984 1_555
O10 S2 1.480757 1_455
O11 S0 1.467099 1_555
O12 S6 1.476836 1_555
O13 S7 1.460259 1_555
O14 S8 1.467390 1_555
O15 S9 1.479383 1_555
O16 S10 1.495658 1_555
O17 S11 1.495228 1_555
O18 S11 1.488270 1_555
O18 Sc0 2.081957 1_554
O19 S9 1.490353 1_555
O19 Sc0 2.065158 1_554
O20 S10 1.488380 1_555
O20 Sc0 2.083290 1_554
O21 S7 1.495096 1_555
O21 Sc1 2.054024 1_555
O22 S8 1.509852 1_555
O22 Sc1 2.071773 1_555
O23 S6 1.499829 1_555
O23 Sc1 2.064454 1_555
O24 S12 1.468330 1_555
O25 S13 1.468040 1_555
O26 S14 1.468515 1_555
O27 S15 1.467922 1_555
O28 S16 1.468446 1_555
O29 S17 1.481333 1_555
O30 S17 1.473001 1_555
O31 S15 1.487300 1_555
O32 S16 1.488154 1_555
O33 S13 1.490284 1_555
O33 Sc2 2.073356 1_555
O34 S14 1.490360 1_555
O34 Sc2 2.074068 1_555
O35 S12 1.490389 1_555
O35 Sc2 2.070108 1_555
O36 S17 1.479685 1_555
O37 S15 1.480119 1_555
O38 S16 1.480702 1_555
O39 S13 1.475916 1_555
O40 S14 1.476182 1_555
O41 S12 1.475825 1_555
O42 S6 1.474250 1_555
O43 S7 1.496256 1_555
O44 S8 1.495784 1_555
O45 S9 1.479501 1_555
O46 S10 1.479743 1_555
O47 S11 1.479181 1_555
O48 S5 1.482662 1_555
O49 S3 1.481945 1_555
O50 S4 1.482702 1_555
O51 S1 1.493685 1_555
O52 S2 1.495686 1_555
O53 S0 1.520888 1_545
O54 S12 1.503350 1_555
O54 Sc0 2.102359 1_555
O55 S13 1.503172 1_655
O55 Sc0 2.102409 1_555
O56 S14 1.502917 1_545
O56 Sc0 2.104410 1_555
O57 S15 1.505203 1_545
O57 Sc1 2.111399 1_555
O58 S16 1.504832 1_555
O58 Sc1 2.115205 1_555
O59 S17 1.505525 1_655
O59 Sc1 2.118294 1_555
O60 S11 1.479360 1_555
O61 S9 1.480087 1_455
O62 S10 1.478885 1_565
O63 S7 1.498058 1_565
O64 S8 1.476534 1_555
O65 S6 1.498012 1_455
O66 S0 1.493948 1_555
O67 S1 1.521385 1_555
O68 S2 1.495508 1_455
O69 S3 1.509821 1_555
O69 Sc2 2.097261 1_555
O70 S4 1.506174 1_455
O70 Sc2 2.110688 1_555
O71 S5 1.509313 1_565
O71 Sc2 2.095354 1_555
