# generated using pymatgen
data_NaTiSe4
_symmetry_space_group_name_H-M   'P 1'
_cell_length_a   7.26429053
_cell_length_b   12.97751001
_cell_length_c   13.14049820
_cell_angle_alpha   73.63093155
_cell_angle_beta   90.00000000
_cell_angle_gamma   90.00000000
_symmetry_Int_Tables_number   1
_chemical_formula_structural   NaTiSe4
_chemical_formula_sum   'Na8 Ti8 Se32'
_cell_volume   1188.57369822
_cell_formula_units_Z   8
loop_
 _symmetry_equiv_pos_site_id
 _symmetry_equiv_pos_as_xyz
  1  'x, y, z'
loop_
 _atom_site_type_symbol
 _atom_site_label
 _atom_site_symmetry_multiplicity
 _atom_site_fract_x
 _atom_site_fract_y
 _atom_site_fract_z
 _atom_site_occupancy
  Na  Na0  1  0.68306050  0.90332476  0.86907645  1
  Na  Na1  1  0.18306050  0.09667524  0.63092355  1
  Na  Na2  1  0.31693950  0.09667524  0.13092355  1
  Na  Na3  1  0.81693950  0.90332476  0.36907645  1
  Na  Na4  1  0.66458163  0.53806420  0.88211525  1
  Na  Na5  1  0.16458163  0.46193580  0.61788475  1
  Na  Na6  1  0.33541837  0.46193580  0.11788475  1
  Na  Na7  1  0.83541837  0.53806420  0.38211525  1
  Ti  Ti0  1  0.72509818  0.26807042  0.61534059  1
  Ti  Ti1  1  0.22509818  0.73192958  0.88465941  1
  Ti  Ti2  1  0.27490182  0.73192958  0.38465941  1
  Ti  Ti3  1  0.77490182  0.26807042  0.11534059  1
  Ti  Ti4  1  0.80030007  0.21912943  0.37430041  1
  Ti  Ti5  1  0.30030007  0.78087057  0.12569959  1
  Ti  Ti6  1  0.19969993  0.78087057  0.62569959  1
  Ti  Ti7  1  0.69969993  0.21912943  0.87430041  1
  Se  Se0  1  0.98397522  0.32340389  0.50022757  1
  Se  Se1  1  0.48397522  0.67659611  -0.00022757  1
  Se  Se2  1  0.01602478  0.67659611  0.49977243  1
  Se  Se3  1  0.51602478  0.32340389  0.00022757  1
  Se  Se4  1  0.80842668  0.39990296  0.74196769  1
  Se  Se5  1  0.30842668  0.60009704  0.75803231  1
  Se  Se6  1  0.19157332  0.60009704  0.25803231  1
  Se  Se7  1  0.69157332  0.39990296  0.24196769  1
  Se  Se8  1  0.00443847  0.26797807  0.96401310  1
  Se  Se9  1  0.50443847  0.73202193  0.53598690  1
  Se  Se10  1  0.99556153  0.73202193  0.03598690  1
  Se  Se11  1  0.49556153  0.26797807  0.46401310  1
  Se  Se12  1  0.91346779  0.45183897  0.10445236  1
  Se  Se13  1  0.41346779  0.54816103  0.39554764  1
  Se  Se14  1  0.08653221  0.54816103  0.89554764  1
  Se  Se15  1  0.58653221  0.45183897  0.60445236  1
  Se  Se16  1  0.07679642  0.09171806  0.40113335  1
  Se  Se17  1  0.57679642  0.90828194  0.09886665  1
  Se  Se18  1  0.92320358  0.90828194  0.59886665  1
  Se  Se19  1  0.42320358  0.09171806  0.90113335  1
  Se  Se20  1  0.08421390  0.24729978  0.25364158  1
  Se  Se21  1  0.58421390  0.75270022  0.24635842  1
  Se  Se22  1  0.91578610  0.75270022  0.74635842  1
  Se  Se23  1  0.41578610  0.24729978  0.75364158  1
  Se  Se24  1  0.62828989  0.12259453  0.26978305  1
  Se  Se25  1  0.12828989  0.87740547  0.23021695  1
  Se  Se26  1  0.37171011  0.87740547  0.73021695  1
  Se  Se27  1  0.87171011  0.12259453  0.76978305  1
  Se  Se28  1  0.64149458  0.10428171  0.54706235  1
  Se  Se29  1  0.14149458  0.89571829  0.95293765  1
  Se  Se30  1  0.35850542  0.89571829  0.45293765  1
  Se  Se31  1  0.85850542  0.10428171  0.04706235  1
loop_
_geom_bond_atom_site_label_1
_geom_bond_atom_site_label_2
_geom_bond_distance
_geom_bond_site_symmetry_2
Na0 Se26 2.983961 1_555
Na0 Se27 3.095967 1_565
Na0 Se17 3.134843 1_556
Na0 Se19 3.209156 1_565
Na0 Se1 3.293985 1_556
Na0 Se22 3.325081 1_555
Na0 Se10 3.486788 1_556
Na0 Se29 3.500430 1_655
Na1 Se27 2.983961 1_455
Na1 Se26 3.095967 1_545
Na1 Se16 3.134843 1_555
Na1 Se18 3.209156 1_445
Na1 Se0 3.293985 1_455
Na1 Se23 3.325081 1_555
Na1 Se11 3.486788 1_555
Na1 Se28 3.500430 1_555
Na2 Se24 2.983961 1_555
Na2 Se25 3.095967 1_545
Na2 Se19 3.134843 1_554
Na2 Se17 3.209156 1_545
Na2 Se3 3.293985 1_555
Na2 Se20 3.325081 1_555
Na2 Se8 3.486788 1_554
Na2 Se31 3.500430 1_455
Na3 Se25 2.983961 1_655
Na3 Se24 3.095967 1_565
Na3 Se18 3.134843 1_555
Na3 Se16 3.209156 1_665
Na3 Se2 3.293985 1_655
Na3 Se21 3.325081 1_555
Na3 Se9 3.486788 1_555
Na3 Se30 3.500430 1_555
Na4 Se3 2.982765 1_556
Na4 Se1 2.985027 1_556
Na4 Se5 3.043101 1_555
Na4 Se14 3.075165 1_655
Na4 Se4 3.091823 1_555
Na4 Se12 3.348744 1_556
Na4 Se22 3.386776 1_555
Na5 Se2 2.982765 1_555
Na5 Se0 2.985027 1_455
Na5 Se4 3.043101 1_455
Na5 Se15 3.075165 1_555
Na5 Se5 3.091823 1_555
Na5 Se13 3.348744 1_555
Na5 Se23 3.386776 1_555
Na6 Se1 2.982765 1_555
Na6 Se3 2.985027 1_555
Na6 Se7 3.043101 1_555
Na6 Se12 3.075165 1_455
Na6 Se6 3.091823 1_555
Na6 Se14 3.348744 1_554
Na6 Se20 3.386776 1_555
Na7 Se0 2.982765 1_555
Na7 Se2 2.985027 1_655
Na7 Se6 3.043101 1_655
Na7 Se13 3.075165 1_555
Na7 Se7 3.091823 1_555
Na7 Se15 3.348744 1_555
Na7 Se21 3.386776 1_555
Se0 Ti0 2.393324 1_555
Se0 Ti4 2.758951 1_555
Se1 Ti1 2.393324 1_554
Se1 Ti5 2.758951 1_555
Se2 Ti2 2.393324 1_555
Se2 Ti6 2.758951 1_555
Se3 Ti3 2.393324 1_555
Se3 Ti7 2.758951 1_554
Se4 Ti7 2.617620 1_555
Se4 Ti0 2.768886 1_555
Se5 Ti6 2.617620 1_555
Se5 Ti1 2.768886 1_555
Se6 Ti5 2.617620 1_555
Se6 Ti2 2.768886 1_555
Se7 Ti4 2.617620 1_555
Se7 Ti3 2.768886 1_555
Se8 Ti3 2.595350 1_456
Se8 Ti7 2.667085 1_455
Se9 Ti2 2.595350 1_555
Se9 Ti6 2.667085 1_555
Se10 Se29 2.349679 1_654
Se10 Ti1 2.595350 1_654
Se10 Ti5 2.667085 1_655
Se11 Se28 2.349679 1_555
Se11 Ti0 2.595350 1_555
Se11 Ti4 2.667085 1_555
Se12 Se7 2.373047 1_555
Se12 Ti3 2.555172 1_555
Se13 Se6 2.373047 1_555
Se13 Ti2 2.555172 1_555
Se14 Se5 2.373047 1_555
Se14 Ti1 2.555172 1_555
Se15 Se4 2.373047 1_555
Se15 Ti0 2.555172 1_555
Se16 Se20 2.372796 1_555
Se16 Ti4 2.562028 1_455
Se17 Se21 2.372796 1_555
Se17 Ti5 2.562028 1_555
Se18 Se22 2.372796 1_555
Se18 Ti6 2.562028 1_655
Se19 Se23 2.372796 1_555
Se19 Ti7 2.562028 1_555
Se20 Ti4 2.564066 1_455
Se20 Ti3 2.854469 1_455
Se21 Ti5 2.564066 1_555
Se21 Ti2 2.854469 1_555
Se22 Ti6 2.564066 1_655
Se22 Ti1 2.854469 1_655
Se23 Ti7 2.564066 1_555
Se23 Ti0 2.854469 1_555
Se24 Ti4 2.446804 1_555
Se24 Ti3 2.580235 1_555
Se25 Ti5 2.446804 1_555
Se25 Ti2 2.580235 1_555
Se26 Ti6 2.446804 1_555
Se26 Ti1 2.580235 1_555
Se27 Ti7 2.446804 1_555
Se27 Ti0 2.580235 1_555
Se28 Ti0 2.601306 1_555
Se28 Ti4 2.607450 1_555
Se29 Ti1 2.601306 1_555
Se29 Ti5 2.607450 1_556
Se30 Se9 2.349679 1_555
Se30 Ti2 2.601306 1_555
Se30 Ti6 2.607450 1_555
Se31 Se8 2.349679 1_654
Se31 Ti3 2.601306 1_555
Se31 Ti7 2.607450 1_554
