# generated using pymatgen
data_Na2SiSn2(PO6)2
_symmetry_space_group_name_H-M   'P 1'
_cell_length_a   8.86639613
_cell_length_b   8.86639584
_cell_length_c   22.85563226
_cell_angle_alpha   90.03121360
_cell_angle_beta   89.96878638
_cell_angle_gamma   119.82379533
_symmetry_Int_Tables_number   1
_chemical_formula_structural   Na2SiSn2(PO6)2
_chemical_formula_sum   'Na12 Si6 Sn12 P12 O72'
_cell_volume   1558.78569387
_cell_formula_units_Z   6
loop_
 _symmetry_equiv_pos_site_id
 _symmetry_equiv_pos_as_xyz
  1  'x, y, z'
loop_
 _atom_site_type_symbol
 _atom_site_label
 _atom_site_symmetry_multiplicity
 _atom_site_fract_x
 _atom_site_fract_y
 _atom_site_fract_z
 _atom_site_occupancy
  Na  Na0  1  0.00012890  0.63128373  0.25036100  1
  Na  Na1  1  0.36871627  0.99987110  0.75036100  1
  Na  Na2  1  0.66484034  0.96875945  0.58486301  1
  Na  Na3  1  0.03124055  0.33515966  0.08486301  1
  Na  Na4  1  0.97134314  0.66910112  0.91820684  1
  Na  Na5  1  0.33089888  0.02865686  0.41820684  1
  Na  Na6  1  0.00270817  0.99819093  0.50014599  1
  Na  Na7  1  0.00180907  0.99729183  0.00014599  1
  Na  Na8  1  0.66490725  0.32809787  0.83349005  1
  Na  Na9  1  0.67190213  0.33509275  0.33349005  1
  Na  Na10  1  0.33977576  0.66962278  0.16674912  1
  Na  Na11  1  0.33037722  0.66022424  0.66674912  1
  Si  Si0  1  -0.00010028  0.28881290  0.24930878  1
  Si  Si1  1  0.71118710  0.00010028  0.74930878  1
  Si  Si2  1  0.37238079  0.04284284  0.58272548  1
  Si  Si3  1  0.95715716  0.62761921  0.08272548  1
  Si  Si4  1  0.33645072  0.96288490  0.91571022  1
  Si  Si5  1  0.03711510  0.66354928  0.41571022  1
  Sn  Sn0  1  0.99461085  -0.00001424  0.35226753  1
  Sn  Sn1  1  0.00001424  0.00538915  0.85226753  1
  Sn  Sn2  1  0.00402311  0.00047918  0.64805039  1
  Sn  Sn3  1  0.99952082  0.99597689  0.14805039  1
  Sn  Sn4  1  0.66978160  0.33332289  0.68536611  1
  Sn  Sn5  1  0.66667711  0.33021840  0.18536611  1
  Sn  Sn6  1  0.66124466  0.32964965  0.98133295  1
  Sn  Sn7  1  0.67035035  0.33875534  0.48133295  1
  Sn  Sn8  1  0.33414346  0.67331272  0.01879141  1
  Sn  Sn9  1  0.32668728  0.66585654  0.51879141  1
  Sn  Sn10  1  0.33080200  0.65998110  0.31453537  1
  Sn  Sn11  1  0.34001890  0.66919800  0.81453537  1
  P  P0  1  0.29466217  0.00317351  0.25069246  1
  P  P1  1  0.70549851  0.70896816  0.25005383  1
  P  P2  1  0.29103184  0.29450149  0.75005383  1
  P  P3  1  0.99682649  0.70533783  0.75069246  1
  P  P4  1  0.96039603  0.33554737  0.58337391  1
  P  P5  1  0.66628040  0.62364115  0.58365397  1
  P  P6  1  0.66445263  0.03960397  0.08337391  1
  P  P7  1  0.37635885  0.33371960  0.08365397  1
  P  P8  1  0.62342234  0.66614556  0.91716196  1
  P  P9  1  0.04423095  0.37509183  0.91714725  1
  P  P10  1  0.62490817  0.95576905  0.41714725  1
  P  P11  1  0.33385444  0.37657766  0.41716196  1
  O  O0  1  0.21675267  0.03335285  0.30707606  1
  O  O1  1  0.82470629  0.78317067  0.30440038  1
  O  O2  1  0.96322641  0.17075435  0.30732130  1
  O  O3  1  0.21682933  0.17529371  0.80440038  1
  O  O4  1  0.96664715  0.78324733  0.80707606  1
  O  O5  1  0.82924565  0.03677359  0.80732130  1
  O  O6  1  0.78935096  0.96504732  0.68914438  1
  O  O7  1  0.18023474  0.21482118  0.69490325  1
  O  O8  1  0.04027119  0.82509095  0.69665050  1
  O  O9  1  0.78517882  0.81976526  0.19490325  1
  O  O10  1  0.03495268  0.21064904  0.18914438  1
  O  O11  1  0.17490905  0.95972881  0.19665050  1
  O  O12  1  0.88284653  0.37139050  0.63844703  1
  O  O13  1  0.49470294  0.12132389  0.64131697  1
  O  O14  1  0.63398209  0.51271457  0.63892521  1
  O  O15  1  0.87867611  0.50529706  0.14131697  1
  O  O16  1  0.62860950  0.11715347  0.13844703  1
  O  O17  1  0.48728543  0.36601791  0.13892521  1
  O  O18  1  0.45244398  0.29819336  0.02848061  1
  O  O19  1  0.84304914  0.54320054  0.02318378  1
  O  O20  1  0.70559426  0.15771233  0.02897911  1
  O  O21  1  0.45679946  0.15695086  0.52318378  1
  O  O22  1  0.70180664  0.54755602  0.52848061  1
  O  O23  1  0.84228767  0.29440574  0.52897911  1
  O  O24  1  0.54455319  0.69858341  0.97228030  1
  O  O25  1  0.15296016  0.45100103  0.97358139  1
  O  O26  1  0.28775733  0.83494866  0.97238458  1
  O  O27  1  0.54899897  0.84703984  0.47358139  1
  O  O28  1  0.30141659  0.45544681  0.47228030  1
  O  O29  1  0.16505134  0.71224267  0.47238458  1
  O  O30  1  0.12047256  0.63382297  0.35603678  1
  O  O31  1  0.50736785  0.87671305  0.36264626  1
  O  O32  1  0.37100744  0.48867698  0.36199482  1
  O  O33  1  0.12328695  0.49263215  0.86264626  1
  O  O34  1  0.36617703  0.87952744  0.85603678  1
  O  O35  1  0.51132302  0.62899256  0.86199482  1
  O  O36  1  0.03005960  0.84628381  0.40984527  1
  O  O37  1  0.80637037  0.97529691  0.41181770  1
  O  O38  1  0.17265089  0.19179513  0.41124185  1
  O  O39  1  0.02470309  0.19362963  0.91181770  1
  O  O40  1  0.15371619  0.96994040  0.90984527  1
  O  O41  1  0.80820487  0.82734911  0.91124185  1
  O  O42  1  0.96881204  0.16507308  0.58907628  1
  O  O43  1  0.18020492  0.02220828  0.58872203  1
  O  O44  1  0.82604953  0.80975529  0.58894461  1
  O  O45  1  0.97779172  0.81979508  0.08872203  1
  O  O46  1  0.83492692  0.03118796  0.08907628  1
  O  O47  1  0.19024471  0.17395047  0.08894461  1
  O  O48  1  0.68257510  0.17035952  0.74517167  1
  O  O49  1  0.47262237  0.30847382  0.74381819  1
  O  O50  1  0.83297479  0.52666468  0.74356753  1
  O  O51  1  0.69152618  0.52737763  0.24381819  1
  O  O52  1  0.82964048  0.31742490  0.24517167  1
  O  O53  1  0.47333532  0.16702521  0.24356753  1
  O  O54  1  0.65013004  0.50594822  0.92215185  1
  O  O55  1  0.86465310  0.36566611  0.92249347  1
  O  O56  1  0.50853778  0.15362615  0.92192925  1
  O  O57  1  0.63433389  0.13534690  0.42249347  1
  O  O58  1  0.49405178  0.34986996  0.42215185  1
  O  O59  1  0.84637385  0.49146222  0.42192925  1
  O  O60  1  0.35401921  0.49638031  0.07698955  1
  O  O61  1  0.14574243  0.63258595  0.07809450  1
  O  O62  1  0.50476573  0.85763926  0.07766139  1
  O  O63  1  0.36741405  0.85425757  0.57809450  1
  O  O64  1  0.50361969  0.64598079  0.57698955  1
  O  O65  1  0.14236074  0.49523427  0.57766139  1
  O  O66  1  0.30964616  0.83611094  0.25615651  1
  O  O67  1  0.52626454  0.69375162  0.25681949  1
  O  O68  1  0.17003719  0.48659330  0.25375848  1
  O  O69  1  0.30624838  0.47373546  0.75681949  1
  O  O70  1  0.16388906  0.69035384  0.75615651  1
  O  O71  1  0.51340670  0.82996281  0.75375848  1
loop_
_geom_bond_atom_site_label_1
_geom_bond_atom_site_label_2
_geom_bond_distance
_geom_bond_site_symmetry_2
Na0 O68 2.417404 1_555
Na0 O51 2.418846 1_455
Na0 O52 2.420486 1_455
Na0 O66 2.426875 1_555
Na0 O30 2.636568 1_555
Na0 O15 2.724376 1_455
Na0 O1 2.799597 1_455
Na0 O11 2.811043 1_555
Na1 O71 2.417404 1_555
Na1 O49 2.418846 1_565
Na1 O48 2.420486 1_565
Na1 O70 2.426875 1_555
Na1 O34 2.636568 1_555
Na1 O13 2.724376 1_565
Na1 O3 2.799597 1_565
Na1 O8 2.811044 1_555
Na2 O63 2.312187 1_555
Na2 O42 2.374166 1_565
Na2 O44 2.458429 1_555
Na2 O64 2.489317 1_555
Na2 O6 2.634308 1_555
Na2 O27 2.754248 1_555
Na2 O13 2.792110 1_565
Na2 O23 2.815435 1_565
Na3 O61 2.312187 1_555
Na3 O46 2.374166 1_455
Na3 O47 2.458429 1_555
Na3 O60 2.489317 1_555
Na3 O10 2.634308 1_555
Na3 O25 2.754248 1_554
Na3 O15 2.792110 1_455
Na3 O20 2.815435 1_455
Na4 O40 2.340109 1_655
Na4 O55 2.368824 1_555
Na4 O41 2.470908 1_555
Na4 O54 2.472611 1_555
Na4 O19 2.652104 1_556
Na4 O26 2.732145 1_655
Na4 O4 2.742674 1_555
Na4 O33 2.822805 1_655
Na5 O36 2.340109 1_545
Na5 O57 2.368824 1_555
Na5 O38 2.470908 1_555
Na5 O58 2.472611 1_555
Na5 O21 2.652104 1_555
Na5 O29 2.732145 1_545
Na5 O0 2.742674 1_555
Na5 O31 2.822805 1_545
Na6 O43 2.508019 1_565
Na6 O36 2.540429 1_555
Na6 O44 2.600208 1_455
Na6 O38 2.602619 1_565
Na6 O37 2.607503 1_455
Na6 O42 2.617123 1_465
Na7 O45 2.508019 1_455
Na7 O40 2.540429 1_554
Na7 O47 2.600208 1_565
Na7 O41 2.602619 1_454
Na7 O39 2.607503 1_564
Na7 O46 2.617123 1_465
Na8 O56 2.503610 1_555
Na8 O48 2.503931 1_555
Na8 O55 2.608062 1_555
Na8 O54 2.609956 1_555
Na8 O49 2.616431 1_555
Na8 O50 2.633484 1_555
Na9 O59 2.503610 1_555
Na9 O52 2.503931 1_555
Na9 O57 2.608062 1_555
Na9 O58 2.609956 1_555
Na9 O51 2.616431 1_555
Na9 O53 2.633484 1_555
Na10 O68 2.534598 1_555
Na10 O61 2.571846 1_555
Na10 O62 2.576763 1_555
Na10 O67 2.582450 1_555
Na10 O60 2.602554 1_555
Na10 O66 2.610456 1_555
Na11 O71 2.534598 1_555
Na11 O63 2.571846 1_555
Na11 O65 2.576763 1_555
Na11 O69 2.582450 1_555
Na11 O64 2.602554 1_555
Na11 O70 2.610456 1_555
O0 P0 1.546604 1_555
O0 Sn0 2.110025 1_455
O1 P1 1.549749 1_555
O1 Sn0 2.069006 1_565
O2 Si0 1.619247 1_655
O2 Sn0 1.961202 1_555
O3 P2 1.549749 1_555
O3 Sn1 2.069006 1_555
O4 P3 1.546604 1_555
O4 Sn1 2.110025 1_665
O5 Si1 1.619247 1_555
O5 Sn1 1.961202 1_655
O6 Si1 1.637226 1_565
O6 Sn2 2.001816 1_665
O7 P2 1.537232 1_555
O7 Sn2 2.060493 1_555
O8 P3 1.547732 1_455
O8 Sn2 2.062702 1_565
O9 P1 1.537232 1_555
O9 Sn3 2.060493 1_555
O10 Si0 1.637226 1_555
O10 Sn3 2.001816 1_445
O11 P0 1.547732 1_565
O11 Sn3 2.062702 1_455
O12 P4 1.540825 1_555
O12 Sn4 2.048566 1_555
O13 Si2 1.644287 1_555
O13 Sn4 2.013401 1_555
O14 P5 1.538165 1_555
O14 Sn4 2.064376 1_555
O15 Si3 1.644287 1_555
O15 Sn5 2.013401 1_555
O16 P6 1.540825 1_555
O16 Sn5 2.048566 1_555
O17 P7 1.538165 1_555
O17 Sn5 2.064376 1_555
O18 P7 1.534432 1_555
O18 Sn6 2.037376 1_554
O19 Si3 1.637967 1_555
O19 Sn6 2.015505 1_554
O20 P6 1.547987 1_555
O20 Sn6 2.064711 1_554
O21 Si2 1.637967 1_555
O21 Sn7 2.015505 1_555
O22 P5 1.534432 1_555
O22 Sn7 2.037376 1_555
O23 P4 1.547987 1_555
O23 Sn7 2.064711 1_555
O24 P8 1.535388 1_555
O24 Sn8 2.059844 1_556
O25 P9 1.549537 1_555
O25 Sn8 2.093712 1_556
O26 Si4 1.632438 1_555
O26 Sn8 1.984037 1_556
O27 P10 1.549537 1_555
O27 Sn9 2.093712 1_555
O28 P11 1.535388 1_555
O28 Sn9 2.059844 1_555
O29 Si5 1.632438 1_555
O29 Sn9 1.984037 1_555
O30 Si5 1.633440 1_555
O30 Sn10 1.999836 1_555
O31 P10 1.550140 1_555
O31 Sn10 2.088035 1_555
O32 P11 1.536701 1_555
O32 Sn10 2.037488 1_555
O33 P9 1.550140 1_555
O33 Sn11 2.088035 1_555
O34 Si4 1.633440 1_555
O34 Sn11 1.999836 1_555
O35 P8 1.536701 1_555
O35 Sn11 2.037488 1_555
O36 Si5 1.657703 1_555
O36 Sn0 2.028842 1_465
O37 P10 1.534976 1_555
O37 Sn0 2.078570 1_565
O38 P11 1.554400 1_555
O38 Sn0 2.128491 1_455
O39 P9 1.534975 1_555
O39 Sn1 2.078570 1_555
O40 Si4 1.657703 1_555
O40 Sn1 2.028842 1_565
O41 P8 1.554400 1_555
O41 Sn1 2.128491 1_665
O42 P4 1.555498 1_555
O42 Sn2 2.121266 1_655
O43 Si2 1.626424 1_555
O43 Sn2 2.003646 1_555
O44 P5 1.555376 1_555
O44 Sn2 2.126075 1_665
O45 Si3 1.626424 1_555
O45 Sn3 2.003646 1_555
O46 P6 1.555498 1_555
O46 Sn3 2.121266 1_545
O47 P7 1.555376 1_555
O47 Sn3 2.126075 1_445
O48 Si1 1.653253 1_555
O48 Sn4 2.033308 1_555
O49 P2 1.558622 1_555
O49 Sn4 2.122225 1_555
O50 P3 1.535415 1_555
O50 Sn4 2.081875 1_555
O51 P1 1.558622 1_555
O51 Sn5 2.122225 1_555
O52 Si0 1.653253 1_655
O52 Sn5 2.033308 1_555
O53 P0 1.535415 1_555
O53 Sn5 2.081875 1_555
O54 P8 1.556053 1_555
O54 Sn6 2.106739 1_555
O55 P9 1.557076 1_655
O55 Sn6 2.141981 1_555
O56 Si4 1.625328 1_545
O56 Sn6 2.002546 1_555
O57 P10 1.557076 1_545
O57 Sn7 2.141981 1_555
O58 P11 1.556053 1_555
O58 Sn7 2.106739 1_555
O59 Si5 1.625328 1_655
O59 Sn7 2.002546 1_555
O60 P7 1.557828 1_555
O60 Sn8 2.130461 1_555
O61 Si3 1.653946 1_455
O61 Sn8 2.038622 1_555
O62 P6 1.533786 1_565
O62 Sn8 2.076189 1_555
O63 Si2 1.653946 1_565
O63 Sn9 2.038622 1_555
O64 P5 1.557828 1_555
O64 Sn9 2.130461 1_555
O65 P4 1.533786 1_455
O65 Sn9 2.076189 1_555
O66 P0 1.556691 1_565
O66 Sn10 2.132632 1_555
O67 P1 1.534287 1_555
O67 Sn10 2.077261 1_555
O68 Si0 1.652212 1_555
O68 Sn10 2.035911 1_555
O69 P2 1.534287 1_555
O69 Sn11 2.077261 1_555
O70 P3 1.556691 1_455
O70 Sn11 2.132632 1_555
O71 Si1 1.652212 1_565
O71 Sn11 2.035911 1_555
