# generated using pymatgen
data_YTa3(PO4)6
_symmetry_space_group_name_H-M   'P 1'
_cell_length_a   8.88864841
_cell_length_b   8.88864811
_cell_length_c   22.85977840
_cell_angle_alpha   90.00000000
_cell_angle_beta   90.00000000
_cell_angle_gamma   120.00000106
_symmetry_Int_Tables_number   1
_chemical_formula_structural   YTa3(PO4)6
_chemical_formula_sum   'Y3 Ta9 P18 O72'
_cell_volume   1564.13446198
_cell_formula_units_Z   3
loop_
 _symmetry_equiv_pos_site_id
 _symmetry_equiv_pos_as_xyz
  1  'x, y, z'
loop_
 _atom_site_type_symbol
 _atom_site_label
 _atom_site_symmetry_multiplicity
 _atom_site_fract_x
 _atom_site_fract_y
 _atom_site_fract_z
 _atom_site_occupancy
  Y  Y0  1  -0.00000000  0.00000000  0.36504054  1
  Y  Y1  1  0.66666700  0.33333300  0.69291377  1
  Y  Y2  1  0.66666700  0.33333300  0.18890399  1
  Ta  Ta0  1  -0.00000000  0.00000000  0.85898794  1
  Ta  Ta1  1  -0.00000000  0.00000000  0.64144846  1
  Ta  Ta2  1  -0.00000000  0.00000000  0.14739001  1
  Ta  Ta3  1  0.66666700  0.33333300  0.97962983  1
  Ta  Ta4  1  0.66666700  0.33333300  0.47700703  1
  Ta  Ta5  1  0.33333300  0.66666700  0.02021671  1
  Ta  Ta6  1  0.33333300  0.66666700  0.52288107  1
  Ta  Ta7  1  0.33333300  0.66666700  0.30788453  1
  Ta  Ta8  1  0.33333300  0.66666700  0.80877714  1
  P  P0  1  0.27811805  0.98721944  0.25134279  1
  P  P1  1  0.70910139  0.72188195  0.25134279  1
  P  P2  1  0.01278056  0.29089861  0.25134279  1
  P  P3  1  0.27029698  0.28219619  0.75177326  1
  P  P4  1  0.01189922  0.72970302  0.75177326  1
  P  P5  1  0.71780381  0.98810078  0.75177326  1
  P  P6  1  0.95421325  0.33166138  0.58272811  1
  P  P7  1  0.37744913  0.04578675  0.58272811  1
  P  P8  1  0.66833862  0.62255087  0.58272811  1
  P  P9  1  0.95849888  0.62930151  0.08088077  1
  P  P10  1  0.67080363  0.04150112  0.08088077  1
  P  P11  1  0.37069849  0.32919637  0.08088077  1
  P  P12  1  0.61492135  0.66113063  0.91538181  1
  P  P13  1  0.04620829  0.38507865  0.91538181  1
  P  P14  1  0.33886937  0.95379171  0.91538181  1
  P  P15  1  0.60223058  0.95319852  0.41767610  1
  P  P16  1  0.35096694  0.39776942  0.41767610  1
  P  P17  1  0.04680148  0.64903306  0.41767610  1
  O  O0  1  0.19867514  0.01432453  0.30514220  1
  O  O1  1  0.81564939  0.80132486  0.30514220  1
  O  O2  1  0.98567547  0.18435061  0.30514220  1
  O  O3  1  0.17676926  0.17337469  0.80735747  1
  O  O4  1  0.99660543  0.82323074  0.80735747  1
  O  O5  1  0.82662531  0.00339457  0.80735747  1
  O  O6  1  0.80313564  0.96078873  0.69675223  1
  O  O7  1  0.15765308  0.19686436  0.69675223  1
  O  O8  1  0.03921127  0.84234692  0.69675223  1
  O  O9  1  0.80308612  0.84036823  0.19490834  1
  O  O10  1  0.03728211  0.19691388  0.19490834  1
  O  O11  1  0.15963177  0.96271789  0.19490834  1
  O  O12  1  0.88955102  0.37465485  0.63730753  1
  O  O13  1  0.48510482  0.11044898  0.63730753  1
  O  O14  1  0.62534515  0.51489518  0.63730753  1
  O  O15  1  0.89678249  0.51487437  0.13347364  1
  O  O16  1  0.61809288  0.10321751  0.13347364  1
  O  O17  1  0.48512563  0.38190712  0.13347364  1
  O  O18  1  0.46792265  0.30203629  0.02684955  1
  O  O19  1  0.83411464  0.53207735  0.02684955  1
  O  O20  1  0.69796371  0.16588536  0.02684955  1
  O  O21  1  0.46553836  0.16896913  0.52986652  1
  O  O22  1  0.70343178  0.53446164  0.52986652  1
  O  O23  1  0.83103087  0.29656822  0.52986652  1
  O  O24  1  0.53038727  0.69644602  0.96809281  1
  O  O25  1  0.16605775  0.46961273  0.96809281  1
  O  O26  1  0.30355398  0.83394225  0.96809281  1
  O  O27  1  0.50641299  0.84369188  0.47236838  1
  O  O28  1  0.33727788  0.49358701  0.47236838  1
  O  O29  1  0.15630812  0.66272212  0.47236838  1
  O  O30  1  0.13253115  0.62375739  0.36246147  1
  O  O31  1  0.49122524  0.86746885  0.36246147  1
  O  O32  1  0.37624261  0.50877476  0.36246147  1
  O  O33  1  0.13230511  0.50274134  0.86144027  1
  O  O34  1  0.37043523  0.86769489  0.86144027  1
  O  O35  1  0.49725866  0.62956477  0.86144027  1
  O  O36  1  0.02602861  0.80590849  0.41714627  1
  O  O37  1  0.77987988  0.97397139  0.41714627  1
  O  O38  1  0.19409151  0.22012012  0.41714627  1
  O  O39  1  0.02399937  0.20177466  0.90591378  1
  O  O40  1  0.17777529  0.97600063  0.90591378  1
  O  O41  1  0.79822534  0.82222471  0.90591378  1
  O  O42  1  0.96989972  0.16435167  0.59325365  1
  O  O43  1  0.19445195  0.03010028  0.59325365  1
  O  O44  1  0.83564833  0.80554805  0.59325365  1
  O  O45  1  0.97408979  0.80846478  0.08936592  1
  O  O46  1  0.83437499  0.02591021  0.08936592  1
  O  O47  1  0.19153522  0.16562501  0.08936592  1
  O  O48  1  0.69789198  0.14495347  0.74853672  1
  O  O49  1  0.44706248  0.30210802  0.74853672  1
  O  O50  1  0.85504653  0.55293752  0.74853672  1
  O  O51  1  0.67266530  0.54105079  0.23918987  1
  O  O52  1  0.86838649  0.32733470  0.23918987  1
  O  O53  1  0.45894921  0.13161351  0.23918987  1
  O  O54  1  0.63528187  0.50108398  0.92730944  1
  O  O55  1  0.86580310  0.36471813  0.92730944  1
  O  O56  1  0.49891602  0.13419690  0.92730944  1
  O  O57  1  0.61329723  0.13292148  0.42817915  1
  O  O58  1  0.51962525  0.38670277  0.42817915  1
  O  O59  1  0.86707852  0.48037475  0.42817915  1
  O  O60  1  0.34255573  0.48395927  0.06268558  1
  O  O61  1  0.14140254  0.65744427  0.06268558  1
  O  O62  1  0.51604073  0.85859746  0.06268558  1
  O  O63  1  0.33774798  0.85875072  0.56853469  1
  O  O64  1  0.52100174  0.66225202  0.56853469  1
  O  O65  1  0.14124928  0.47899826  0.56853469  1
  O  O66  1  0.28047104  0.81203751  0.25843491  1
  O  O67  1  0.53156547  0.71952896  0.25843491  1
  O  O68  1  0.18796249  0.46843453  0.25843491  1
  O  O69  1  0.28078145  0.46238530  0.76195311  1
  O  O70  1  0.18160286  0.71921855  0.76195311  1
  O  O71  1  0.53761470  0.81839714  0.76195311  1
loop_
_geom_bond_atom_site_label_1
_geom_bond_atom_site_label_2
_geom_bond_distance
_geom_bond_site_symmetry_2
O0 P0 1.496436 1_545
O0 Y0 2.187426 1_555
O1 P1 1.496436 1_555
O1 Y0 2.187426 1_665
O2 P2 1.496436 1_655
O2 Y0 2.187426 1_655
O3 P3 1.561135 1_555
O3 Ta0 1.953282 1_555
O4 P4 1.561135 1_655
O4 Ta0 1.953282 1_665
O5 P5 1.561135 1_545
O5 Ta0 1.953282 1_655
O6 P5 1.549307 1_555
O6 Ta1 2.042517 1_665
O7 P3 1.549307 1_555
O7 Ta1 2.042517 1_555
O8 P4 1.549307 1_555
O8 Ta1 2.042517 1_565
O9 P1 1.609832 1_555
O9 Ta2 1.942496 1_665
O10 P2 1.609832 1_555
O10 Ta2 1.942496 1_555
O11 P0 1.609832 1_555
O11 Ta2 1.942496 1_565
O12 P6 1.500908 1_555
O12 Y1 2.224402 1_555
O13 P7 1.500908 1_555
O13 Y1 2.224402 1_555
O14 P8 1.500908 1_555
O14 Y1 2.224402 1_555
O15 P9 1.490942 1_555
O15 Y2 2.256684 1_555
O16 P10 1.490942 1_555
O16 Y2 2.256684 1_555
O17 P11 1.490942 1_555
O17 Y2 2.256684 1_555
O18 P11 1.593522 1_555
O18 Ta3 1.967712 1_554
O19 P9 1.593522 1_555
O19 Ta3 1.967712 1_554
O20 P10 1.593522 1_555
O20 Ta3 1.967712 1_554
O21 P7 1.553982 1_555
O21 Ta4 2.044208 1_555
O22 P8 1.553982 1_555
O22 Ta4 2.044208 1_555
O23 P6 1.553982 1_555
O23 Ta4 2.044208 1_555
O24 P12 1.533274 1_555
O24 Ta5 2.023393 1_556
O25 P13 1.533274 1_555
O25 Ta5 2.023393 1_556
O26 P14 1.533274 1_555
O26 Ta5 2.023393 1_556
O27 P15 1.551433 1_555
O27 Ta6 1.937872 1_555
O28 P16 1.551433 1_555
O28 Ta6 1.937872 1_555
O29 P17 1.551433 1_555
O29 Ta6 1.937872 1_555
O30 P17 1.547736 1_555
O30 Ta7 2.051091 1_555
O31 P15 1.547736 1_555
O31 Ta7 2.051091 1_555
O32 P16 1.547736 1_555
O32 Ta7 2.051091 1_555
O33 P13 1.549071 1_555
O33 Ta8 2.040015 1_555
O34 P14 1.549071 1_555
O34 Ta8 2.040015 1_555
O35 P12 1.549071 1_555
O35 Ta8 2.040015 1_555
O36 P17 1.495355 1_555
O36 Y0 2.201773 1_565
O37 P15 1.495364 1_555
O37 Y0 2.201773 1_665
O38 P16 1.495361 1_555
O38 Y0 2.201773 1_555
O39 P13 1.555273 1_555
O39 Ta0 2.007557 1_555
O40 P14 1.555264 1_555
O40 Ta0 2.007557 1_565
O41 P12 1.555269 1_555
O41 Ta0 2.007557 1_665
O42 P6 1.579977 1_555
O42 Ta1 1.952013 1_655
O43 P7 1.579986 1_555
O43 Ta1 1.952013 1_555
O44 P8 1.579982 1_555
O44 Ta1 1.952013 1_665
O45 P9 1.540212 1_555
O45 Ta2 2.078172 1_665
O46 P10 1.540203 1_555
O46 Ta2 2.078172 1_655
O47 P11 1.540208 1_555
O47 Ta2 2.078172 1_555
O48 P5 1.492440 1_545
O48 Y1 2.227622 1_555
O49 P3 1.492448 1_555
O49 Y1 2.227622 1_555
O50 P4 1.492445 1_655
O50 Y1 2.227622 1_555
O51 P1 1.498352 1_555
O51 Y2 2.152845 1_555
O52 P2 1.498344 1_655
O52 Y2 2.152846 1_555
O53 P0 1.498350 1_545
O53 Y2 2.152845 1_555
O54 P12 1.545426 1_555
O54 Ta3 2.036567 1_555
O55 P13 1.545409 1_655
O55 Ta3 2.036567 1_555
O56 P14 1.545416 1_545
O56 Ta3 2.036567 1_555
O57 P15 1.569130 1_545
O57 Ta4 1.949156 1_555
O58 P16 1.569148 1_555
O58 Ta4 1.949156 1_555
O59 P17 1.569138 1_655
O59 Ta4 1.949156 1_555
O60 P11 1.572279 1_555
O60 Ta5 1.928683 1_555
O61 P9 1.572262 1_455
O61 Ta5 1.928683 1_555
O62 P10 1.572269 1_565
O62 Ta5 1.928683 1_555
O63 P7 1.551459 1_565
O63 Ta6 1.984641 1_555
O64 P8 1.551476 1_555
O64 Ta6 1.984641 1_555
O65 P6 1.551464 1_455
O65 Ta6 1.984641 1_555
O66 P0 1.576053 1_555
O66 Ta7 1.943036 1_555
O67 P1 1.576062 1_555
O67 Ta7 1.943036 1_555
O68 P2 1.576058 1_555
O68 Ta7 1.943036 1_555
O69 P3 1.574427 1_555
O69 Ta8 1.952647 1_555
O70 P4 1.574418 1_555
O70 Ta8 1.952647 1_555
O71 P5 1.574423 1_555
O71 Ta8 1.952647 1_555
