# generated using pymatgen
data_MgFe2Cu6SnS8
_symmetry_space_group_name_H-M   'P 1'
_cell_length_a   5.46825194
_cell_length_b   7.79167891
_cell_length_c   7.78963347
_cell_angle_alpha   87.98298674
_cell_angle_beta   90.29263774
_cell_angle_gamma   89.72541310
_symmetry_Int_Tables_number   1
_chemical_formula_structural   MgFe2Cu6SnS8
_chemical_formula_sum   'Mg1 Fe2 Cu6 Sn1 S8'
_cell_volume   331.67778374
_cell_formula_units_Z   1
loop_
 _symmetry_equiv_pos_site_id
 _symmetry_equiv_pos_as_xyz
  1  'x, y, z'
loop_
 _atom_site_type_symbol
 _atom_site_label
 _atom_site_symmetry_multiplicity
 _atom_site_fract_x
 _atom_site_fract_y
 _atom_site_fract_z
 _atom_site_occupancy
  Mg  Mg0  1  0.99998700  0.73792200  0.73730500  1
  Fe  Fe0  1  0.50035600  0.49110900  0.49102900  1
  Fe  Fe1  1  0.99954100  0.48374700  0.48399600  1
  Cu  Cu0  1  0.49998500  0.73794500  0.73810600  1
  Cu  Cu1  1  0.95402300  0.05077600  0.50378200  1
  Cu  Cu2  1  0.52205400  0.74835400  0.24391300  1
  Cu  Cu3  1  0.49995600  0.25091400  0.25098500  1
  Cu  Cu4  1  0.47813600  0.24382500  0.74851000  1
  Cu  Cu5  1  0.04486800  0.50355900  0.04958200  1
  Sn  Sn0  1  0.00018500  0.02196400  0.02213200  1
  S  S0  1  0.73757900  0.99674400  0.74915300  1
  S  S1  1  0.72729900  0.00042200  0.26987200  1
  S  S2  1  0.27264000  0.26992900  0.00039600  1
  S  S3  1  0.74335700  0.49700600  0.24574500  1
  S  S4  1  0.25256000  0.73678700  0.48421000  1
  S  S5  1  0.25695800  0.24573000  0.49723000  1
  S  S6  1  0.26226900  0.74893200  0.99674100  1
  S  S7  1  0.74824600  0.48433500  0.73731400  1
loop_
_geom_bond_atom_site_label_1
_geom_bond_atom_site_label_2
_geom_bond_distance
_geom_bond_site_symmetry_2
Mg0 S4 2.413175 1_655
Mg0 S7 2.413524 1_555
Mg0 S0 2.474090 1_555
Mg0 S6 2.476331 1_655
Fe0 S3 2.332125 1_555
Fe0 S5 2.334043 1_555
Fe0 S4 2.338900 1_555
Fe0 S7 2.342303 1_555
Fe1 S3 2.318623 1_555
Fe1 S5 2.321944 1_655
Fe1 S7 2.410457 1_555
Fe1 S4 2.414096 1_655
Cu0 S4 2.390858 1_555
Cu0 S7 2.392276 1_555
Cu0 S6 2.407026 1_555
Cu0 S0 2.407853 1_555
Cu1 S1 2.245630 1_555
Cu1 S5 2.252470 1_655
Cu1 S0 2.280917 1_545
Cu1 S4 2.943486 1_645
Cu2 S1 2.281383 1_565
Cu2 S3 2.296781 1_555
Cu2 S6 2.386737 1_554
Cu2 S4 2.387699 1_555
Cu3 S2 2.308773 1_555
Cu3 S1 2.308921 1_555
Cu3 S5 2.338311 1_555
Cu3 S3 2.338668 1_555
Cu4 S2 2.280863 1_556
Cu4 S5 2.295199 1_555
Cu4 S0 2.385813 1_545
Cu4 S7 2.391099 1_555
Cu5 S2 2.245905 1_555
Cu5 S3 2.253196 1_455
Cu5 S6 2.282390 1_554
Cu5 S7 2.925378 1_454
S0 Sn0 2.573564 1_666
S1 Sn0 2.447043 1_655
S2 Sn0 2.447108 1_555
S6 Sn0 2.573333 1_566
