# generated using pymatgen
data_MgCo2NiO6
_symmetry_space_group_name_H-M   'P 1'
_cell_length_a   6.42529544
_cell_length_b   2.90086758
_cell_length_c   6.02458457
_cell_angle_alpha   89.98260357
_cell_angle_beta   105.69641725
_cell_angle_gamma   76.95437242
_symmetry_Int_Tables_number   1
_chemical_formula_structural   MgCo2NiO6
_chemical_formula_sum   'Mg1 Co2 Ni1 O6'
_cell_volume   105.08847333
_cell_formula_units_Z   1
loop_
 _symmetry_equiv_pos_site_id
 _symmetry_equiv_pos_as_xyz
  1  'x, y, z'
loop_
 _atom_site_type_symbol
 _atom_site_label
 _atom_site_symmetry_multiplicity
 _atom_site_fract_x
 _atom_site_fract_y
 _atom_site_fract_z
 _atom_site_occupancy
  Mg  Mg0  1  0.99534000  0.99978700  0.49761600  1
  Co  Co0  1  0.98840700  0.00365400  0.99237700  1
  Co  Co1  1  0.65932800  0.66745700  0.66602600  1
  Ni  Ni0  1  0.33842600  0.32823900  0.33145200  1
  O  O0  1  0.02511500  0.48510200  0.25459200  1
  O  O1  1  0.34279500  0.82594000  0.54064200  1
  O  O2  1  0.68276800  0.15554500  0.87828400  1
  O  O3  1  0.31725400  0.83897300  0.12623100  1
  O  O4  1  0.65007200  0.17217700  0.45163300  1
  O  O5  1  0.98120900  0.50681600  0.74236000  1
loop_
_geom_bond_atom_site_label_1
_geom_bond_atom_site_label_2
_geom_bond_distance
_geom_bond_site_symmetry_2
Mg0 O5 2.087376 1_555
Mg0 O5 2.087852 1_565
Mg0 O4 2.101161 1_565
Mg0 O0 2.105547 1_655
Mg0 O0 2.105741 1_665
Mg0 O1 2.117570 1_655
Co0 O2 1.844451 1_555
Co0 O3 1.991270 1_646
Co0 O5 2.081315 1_555
Co0 O5 2.083717 1_545
Co0 O0 2.109546 1_656
Co0 O0 2.109679 1_646
Co1 O2 1.912014 1_565
Co1 O2 1.912273 1_555
Co1 O1 1.914362 1_555
Co1 O4 1.932222 1_565
Co1 O4 1.932410 1_555
Co1 O5 1.938081 1_555
Ni0 O4 1.882799 1_555
Ni0 O0 1.885749 1_555
Ni0 O3 1.886464 1_545
Ni0 O3 1.886549 1_555
Ni0 O1 1.916644 1_545
Ni0 O1 1.916720 1_555
