# generated using pymatgen
data_Na2Zr3ZnP4(SO12)2
_symmetry_space_group_name_H-M   'P 1'
_cell_length_a   8.89021349
_cell_length_b   8.89538063
_cell_length_c   23.24518458
_cell_angle_alpha   90.09543660
_cell_angle_beta   89.85545097
_cell_angle_gamma   120.04262592
_symmetry_Int_Tables_number   1
_chemical_formula_structural   Na2Zr3ZnP4(SO12)2
_chemical_formula_sum   'Na6 Zr9 Zn3 P12 S6 O72'
_cell_volume   1591.30059985
_cell_formula_units_Z   3
loop_
 _symmetry_equiv_pos_site_id
 _symmetry_equiv_pos_as_xyz
  1  'x, y, z'
loop_
 _atom_site_type_symbol
 _atom_site_label
 _atom_site_symmetry_multiplicity
 _atom_site_fract_x
 _atom_site_fract_y
 _atom_site_fract_z
 _atom_site_occupancy
  Na  Na0  1  0.00035260  0.99642459  0.50485522  1
  Na  Na1  1  0.00344039  0.99901336  0.00271604  1
  Na  Na2  1  0.66427594  0.32944563  0.83236050  1
  Na  Na3  1  0.66723442  0.33288634  0.33646085  1
  Na  Na4  1  0.33060730  0.66377566  0.16972545  1
  Na  Na5  1  0.33908238  0.66835758  0.66516721  1
  Zr  Zr0  1  0.00082880  0.00015298  0.35741926  1
  Zr  Zr1  1  0.00183453  0.00820841  0.85213367  1
  Zr  Zr2  1  0.65276988  0.32519750  0.68505414  1
  Zr  Zr3  1  0.66844788  0.34162679  0.18592509  1
  Zr  Zr4  1  0.66406914  0.33929048  0.98002839  1
  Zr  Zr5  1  0.66062984  0.33613749  0.47984850  1
  Zr  Zr6  1  0.32719504  0.66098538  0.01946844  1
  Zr  Zr7  1  0.33988556  0.67233661  0.51840597  1
  Zr  Zr8  1  0.34021562  0.66792240  0.81278210  1
  Zn  Zn0  1  0.99840509  0.00000530  0.64766385  1
  Zn  Zn1  1  0.00914395  0.99968872  0.14727082  1
  Zn  Zn2  1  0.33254483  0.66633388  0.32301021  1
  P  P0  1  0.28531035  0.28687198  0.74756069  1
  P  P1  1  0.71443395  0.00200695  0.74743150  1
  P  P2  1  0.36692112  0.03969437  0.58313092  1
  P  P3  1  0.67262362  0.63123882  0.58407088  1
  P  P4  1  0.95785904  0.63066996  0.08388842  1
  P  P5  1  0.36929804  0.32822689  0.08411430  1
  P  P6  1  0.62500397  0.66948405  0.91689807  1
  P  P7  1  0.04212510  0.37685320  0.91609011  1
  P  P8  1  0.33242013  0.95615501  0.91665747  1
  P  P9  1  0.61941228  0.95639309  0.41432234  1
  P  P10  1  0.33465704  0.38254134  0.41473534  1
  P  P11  1  0.04587226  0.66330331  0.41502495  1
  S  S0  1  0.28848910  0.99471989  0.24911541  1
  S  S1  1  0.70786376  0.71490904  0.24895030  1
  S  S2  1  0.00457658  0.29166878  0.24874996  1
  S  S3  1  -0.00007605  0.71114453  0.74859998  1
  S  S4  1  0.95721837  0.33051683  0.58346121  1
  S  S5  1  0.67018648  0.04316708  0.08380731  1
  O  O0  1  0.21088503  0.02825564  0.30117322  1
  O  O1  1  0.81768142  0.78987496  0.30107878  1
  O  O2  1  0.97206136  0.18205179  0.30108693  1
  O  O3  1  0.20724749  0.17828695  0.80364990  1
  O  O4  1  0.97253747  0.78813659  0.80225194  1
  O  O5  1  0.82130406  0.02640188  0.80368247  1
  O  O6  1  0.79120866  0.96778879  0.69519751  1
  O  O7  1  0.17743995  0.20810266  0.69509543  1
  O  O8  1  0.03010879  0.81433292  0.69813593  1
  O  O9  1  0.79009124  0.81651582  0.19708201  1
  O  O10  1  0.02509162  0.20903220  0.19701538  1
  O  O11  1  0.18497690  0.97308313  0.19757167  1
  O  O12  1  0.87707934  0.36135335  0.63550876  1
  O  O13  1  0.48831454  0.12500629  0.63657369  1
  O  O14  1  0.64055025  0.51045615  0.63705482  1
  O  O15  1  0.87144959  0.50919482  0.13685892  1
  O  O16  1  0.63904389  0.12379327  0.13545600  1
  O  O17  1  0.49033340  0.35988943  0.13685340  1
  O  O18  1  0.46122189  0.30582681  0.03058277  1
  O  O19  1  0.84527070  0.53668372  0.03048472  1
  O  O20  1  0.69314641  0.14936837  0.03180437  1
  O  O21  1  0.46314255  0.15403142  0.53041483  1
  O  O22  1  0.69299919  0.53786464  0.53050876  1
  O  O23  1  0.85066749  0.30844187  0.53171861  1
  O  O24  1  0.53981792  0.69557026  0.97072347  1
  O  O25  1  0.15482279  0.45935590  0.97025548  1
  O  O26  1  0.30621695  0.84431160  0.97068376  1
  O  O27  1  0.54258267  0.84531000  0.46950964  1
  O  O28  1  0.30269845  0.45868586  0.47004414  1
  O  O29  1  0.15592107  0.69613415  0.47001371  1
  O  O30  1  0.12072708  0.63446820  0.36072516  1
  O  O31  1  0.51375215  0.87960157  0.36072008  1
  O  O32  1  0.36598634  0.48681504  0.36065559  1
  O  O33  1  0.12630057  0.48920222  0.86297912  1
  O  O34  1  0.36110731  0.87211154  0.86311672  1
  O  O35  1  0.51149886  0.63729013  0.86343004  1
  O  O36  1  0.02343004  0.82743486  0.40841696  1
  O  O37  1  0.80461964  0.97635177  0.40834503  1
  O  O38  1  0.17209779  0.19558456  0.40855083  1
  O  O39  1  0.02396522  0.19538159  0.91044351  1
  O  O40  1  0.17028583  0.97508216  0.90965635  1
  O  O41  1  0.80689093  0.82860953  0.90946505  1
  O  O42  1  0.97527460  0.17754366  0.58914820  1
  O  O43  1  0.19111775  0.02409466  0.59024353  1
  O  O44  1  0.83193941  0.80888001  0.58987464  1
  O  O45  1  0.97383873  0.80736183  0.09050684  1
  O  O46  1  0.82353254  0.02469827  0.09041712  1
  O  O47  1  0.19072347  0.16932186  0.09045662  1
  O  O48  1  0.69275405  0.16531832  0.74361593  1
  O  O49  1  0.47279924  0.31177585  0.74424891  1
  O  O50  1  0.84409419  0.53316152  0.74401652  1
  O  O51  1  0.69254190  0.53522293  0.24316440  1
  O  O52  1  0.84089090  0.30640758  0.24263220  1
  O  O53  1  0.46680120  0.15748647  0.24252831  1
  O  O54  1  0.64259364  0.50531586  0.92337366  1
  O  O55  1  0.86028390  0.35511047  0.92456233  1
  O  O56  1  0.49581801  0.13755418  0.92446131  1
  O  O57  1  0.64712828  0.14021855  0.42462608  1
  O  O58  1  0.49252392  0.35452291  0.42342131  1
  O  O59  1  0.86115515  0.50562881  0.42443503  1
  O  O60  1  0.36085832  0.49755670  0.07684643  1
  O  O61  1  0.13781254  0.64276518  0.07692605  1
  O  O62  1  0.51013878  0.86959702  0.07730162  1
  O  O63  1  0.35699844  0.86057991  0.57678152  1
  O  O64  1  0.50217115  0.63922650  0.57676335  1
  O  O65  1  0.13121542  0.49101633  0.57715104  1
  O  O66  1  0.31174580  0.84405119  0.25595437  1
  O  O67  1  0.53248601  0.68824671  0.25585879  1
  O  O68  1  0.15510000  0.46645558  0.25572090  1
  O  O69  1  0.31010675  0.47149173  0.75798360  1
  O  O70  1  0.15546439  0.68935584  0.75758119  1
  O  O71  1  0.52835832  0.84160492  0.75791788  1
loop_
_geom_bond_atom_site_label_1
_geom_bond_atom_site_label_2
_geom_bond_distance
_geom_bond_site_symmetry_2
Na0 O44 2.534881 1_455
Na0 O43 2.544384 1_565
Na0 O42 2.613740 1_465
Na0 O36 2.760865 1_555
Na0 O38 2.787248 1_565
Na0 O37 2.792838 1_455
Na1 O45 2.588399 1_455
Na1 O47 2.590026 1_565
Na1 O46 2.667254 1_465
Na1 O40 2.687620 1_554
Na1 O39 2.715958 1_564
Na1 O41 2.721340 1_454
Na2 O48 2.609321 1_555
Na2 O49 2.620313 1_555
Na2 O50 2.674277 1_555
Na2 O56 2.678870 1_555
Na2 O54 2.692454 1_555
Na2 O55 2.702037 1_555
Na3 O58 2.611093 1_555
Na3 O59 2.621080 1_555
Na3 O57 2.621539 1_555
Na3 O52 2.746156 1_555
Na3 O51 2.756523 1_555
Na3 O53 2.757101 1_555
Na4 O68 2.600969 1_555
Na4 O66 2.621870 1_555
Na4 O67 2.627306 1_555
Na4 O60 2.702658 1_555
Na4 O61 2.706010 1_555
Na4 O62 2.754089 1_555
Na5 O64 2.598386 1_555
Na5 O63 2.628230 1_555
Na5 O65 2.679340 1_555
Na5 O71 2.695464 1_555
Na5 O69 2.710368 1_555
Na5 O70 2.756915 1_555
O0 S0 1.493306 1_545
O0 Zr0 2.186459 1_555
O1 S1 1.489144 1_555
O1 Zr0 2.195025 1_665
O2 S2 1.494782 1_655
O2 Zr0 2.195745 1_655
O3 P0 1.562991 1_555
O3 Zr1 2.030481 1_555
O4 S3 1.498765 1_655
O4 Zr1 2.174400 1_665
O5 P1 1.567924 1_555
O5 Zr1 2.034780 1_655
O6 P1 1.495118 1_565
O6 Zn0 2.039180 1_565
O7 P0 1.492715 1_555
O7 Zn0 2.056095 1_455
O8 S3 1.430368 1_555
O8 Zn0 2.158246 1_465
O9 S1 1.463761 1_555
O9 Zn1 2.146101 1_655
O10 S2 1.466287 1_555
O10 Zn1 2.134064 1_545
O11 S0 1.465228 1_555
O11 Zn1 2.060900 1_555
O12 S4 1.495595 1_555
O12 Zr2 2.180358 1_555
O13 P2 1.570813 1_555
O13 Zr2 1.993345 1_555
O14 P3 1.564747 1_555
O14 Zr2 2.039222 1_555
O15 P4 1.562811 1_555
O15 Zr3 2.020261 1_555
O16 S5 1.492216 1_555
O16 Zr3 2.164755 1_555
O17 P5 1.562730 1_555
O17 Zr3 2.025399 1_555
O18 P5 1.553401 1_555
O18 Zr4 2.043193 1_554
O19 P4 1.551376 1_555
O19 Zr4 2.055300 1_554
O20 S5 1.484872 1_555
O20 Zr4 2.194342 1_554
O21 P2 1.547739 1_555
O21 Zr5 2.058252 1_555
O22 P3 1.555298 1_555
O22 Zr5 2.041373 1_555
O23 S4 1.483651 1_555
O23 Zr5 2.190168 1_555
O24 P6 1.537221 1_555
O24 Zr6 2.087989 1_556
O25 P7 1.547500 1_555
O25 Zr6 2.030723 1_556
O26 P8 1.546564 1_555
O26 Zr6 2.071685 1_556
O27 P9 1.553259 1_555
O27 Zr7 2.031219 1_555
O28 P10 1.542849 1_555
O28 Zr7 2.085817 1_555
O29 P11 1.547677 1_555
O29 Zr7 2.083680 1_555
O30 P11 1.505794 1_555
O30 Zn2 1.962919 1_555
O31 P9 1.504016 1_555
O31 Zn2 1.975871 1_555
O32 P10 1.503880 1_555
O32 Zn2 1.971176 1_555
O33 P7 1.527601 1_555
O33 Zr8 2.115017 1_555
O34 P8 1.535935 1_555
O34 Zr8 2.087775 1_555
O35 P6 1.536487 1_555
O35 Zr8 2.050526 1_555
O36 P11 1.577216 1_555
O36 Zr0 2.030405 1_565
O37 P9 1.571026 1_555
O37 Zr0 2.027193 1_665
O38 P10 1.571212 1_555
O38 Zr0 2.026098 1_555
O39 P7 1.545178 1_555
O39 Zr1 2.076982 1_555
O40 P8 1.541674 1_555
O40 Zr1 2.137924 1_565
O41 P6 1.534855 1_555
O41 Zr1 2.134256 1_665
O42 S4 1.454069 1_555
O42 Zn0 2.172622 1_555
O43 P2 1.506968 1_555
O43 Zn0 2.093927 1_455
O44 P3 1.510136 1_555
O44 Zn0 2.090033 1_565
O45 P4 1.513259 1_555
O45 Zn1 2.055085 1_655
O46 S5 1.461002 1_555
O46 Zn1 2.213261 1_645
O47 P5 1.514169 1_555
O47 Zn1 2.045444 1_545
O48 P1 1.560856 1_555
O48 Zr2 2.125356 1_555
O49 P0 1.569383 1_555
O49 Zr2 2.065360 1_555
O50 S3 1.497063 1_655
O50 Zr2 2.246450 1_555
O51 S1 1.540397 1_555
O51 Zr3 2.099127 1_555
O52 S2 1.532045 1_655
O52 Zr3 2.162973 1_555
O53 S0 1.527770 1_545
O53 Zr3 2.164032 1_555
O54 P6 1.552162 1_555
O54 Zr4 2.059611 1_555
O55 P7 1.541123 1_655
O55 Zr4 2.113884 1_555
O56 P8 1.549244 1_545
O56 Zr4 2.107235 1_555
O57 P9 1.545157 1_545
O57 Zr5 2.117382 1_555
O58 P10 1.557066 1_555
O58 Zr5 2.058169 1_555
O59 P11 1.550732 1_655
O59 Zr5 2.100959 1_555
O60 P5 1.554684 1_555
O60 Zr6 2.103809 1_555
O61 P4 1.556795 1_455
O61 Zr6 2.088290 1_555
O62 S5 1.493944 1_565
O62 Zr6 2.208337 1_555
O63 P2 1.557784 1_565
O63 Zr7 2.099235 1_555
O64 P3 1.561846 1_555
O64 Zr7 2.108349 1_555
O65 S4 1.496963 1_455
O65 Zr7 2.214998 1_555
O66 S0 1.463778 1_555
O66 Zn2 2.294624 1_555
O67 S1 1.463413 1_555
O67 Zn2 2.296566 1_555
O68 S2 1.466750 1_555
O68 Zn2 2.300252 1_555
O69 P0 1.562297 1_555
O69 Zr8 2.067209 1_555
O70 S3 1.504393 1_555
O70 Zr8 2.169234 1_555
O71 P1 1.570849 1_565
O71 Zr8 2.054117 1_555
