# generated using pymatgen
data_P2SeO3
_symmetry_space_group_name_H-M   'P 1'
_cell_length_a   6.83256100
_cell_length_b   11.94377100
_cell_length_c   12.36609619
_cell_angle_alpha   89.66356520
_cell_angle_beta   90.00000000
_cell_angle_gamma   90.00000000
_symmetry_Int_Tables_number   1
_chemical_formula_structural   P2SeO3
_chemical_formula_sum   'P16 Se8 O24'
_cell_volume   1009.13697424
_cell_formula_units_Z   8
loop_
 _symmetry_equiv_pos_site_id
 _symmetry_equiv_pos_as_xyz
  1  'x, y, z'
loop_
 _atom_site_type_symbol
 _atom_site_label
 _atom_site_symmetry_multiplicity
 _atom_site_fract_x
 _atom_site_fract_y
 _atom_site_fract_z
 _atom_site_occupancy
  P  P0  1  0.74615900  0.13168400  0.92449000  1
  P  P1  1  0.35913200  0.65380200  0.47915600  1
  P  P2  1  0.14086800  0.65380200  0.97915600  1
  P  P3  1  0.64086800  0.34619800  0.52084400  1
  P  P4  1  0.53325400  0.21065000  0.11531200  1
  P  P5  1  0.03325400  0.78935000  0.38468800  1
  P  P6  1  0.46674600  0.78935000  0.88468800  1
  P  P7  1  0.96674600  0.21065000  0.61531200  1
  P  P8  1  0.48784800  0.32214800  0.90438200  1
  P  P9  1  0.98784800  0.67785200  0.59561800  1
  P  P10  1  0.51215200  0.67785200  0.09561800  1
  P  P11  1  0.01215200  0.32214800  0.40438200  1
  P  P12  1  0.75384100  0.13168400  0.42449000  1
  P  P13  1  0.24615900  0.86831600  0.57551000  1
  P  P14  1  0.25384100  0.86831600  0.07551000  1
  P  P15  1  0.85913200  0.34619800  0.02084400  1
  Se  Se0  1  0.84757600  0.99513800  0.84257800  1
  Se  Se1  1  0.34757600  0.00486200  0.65742200  1
  Se  Se2  1  0.15242400  0.00486200  0.15742200  1
  Se  Se3  1  0.65242400  0.99513800  0.34257800  1
  Se  Se4  1  0.29592100  0.40291600  0.80256100  1
  Se  Se5  1  0.79592100  0.59708400  0.69743900  1
  Se  Se6  1  0.70407900  0.59708400  0.19743900  1
  Se  Se7  1  0.20407900  0.40291600  0.30256100  1
  O  O0  1  0.72466600  0.29639500  0.12153300  1
  O  O1  1  0.22466600  0.70360500  0.37846700  1
  O  O2  1  0.27533400  0.70360500  0.87846700  1
  O  O3  1  0.77533400  0.29639500  0.62153300  1
  O  O4  1  0.90773400  0.22503500  0.95637500  1
  O  O5  1  0.40773400  0.77496500  0.54362500  1
  O  O6  1  0.09226600  0.77496500  0.04362500  1
  O  O7  1  0.59226600  0.22503500  0.45637500  1
  O  O8  1  0.40163100  0.27948200  0.01919600  1
  O  O9  1  0.90163100  0.72051800  0.48080400  1
  O  O10  1  0.59836900  0.72051800  0.98080400  1
  O  O11  1  0.09836900  0.27948200  0.51919600  1
  O  O12  1  0.67915500  0.39388200  0.93850300  1
  O  O13  1  0.17915500  0.60611800  0.56149700  1
  O  O14  1  0.32084500  0.60611800  0.06149700  1
  O  O15  1  0.82084500  0.39388200  0.43850300  1
  O  O16  1  0.58558800  0.20735600  0.85618900  1
  O  O17  1  0.08558800  0.79264400  0.64381100  1
  O  O18  1  0.41441200  0.79264400  0.14381100  1
  O  O19  1  0.86863000  0.10980200  0.53697100  1
  O  O20  1  0.63137000  0.10980200  0.03697100  1
  O  O21  1  0.13137000  0.89019800  0.46302900  1
  O  O22  1  0.36863000  0.89019800  0.96302900  1
  O  O23  1  0.91441200  0.20735600  0.35618900  1
loop_
_geom_bond_atom_site_label_1
_geom_bond_atom_site_label_2
_geom_bond_distance
_geom_bond_site_symmetry_2
P0 Se0 2.045811 1_545
P8 Se4 2.054600 1_555
P9 Se5 2.054600 1_555
P10 Se6 2.054600 1_555
P11 Se7 2.054600 1_555
P12 Se3 2.045811 1_545
P13 Se1 2.045811 1_565
P14 Se2 2.045811 1_565
O0 P15 1.655167 1_555
O0 P4 1.663157 1_555
O1 P1 1.655167 1_555
O1 P5 1.663157 1_555
O2 P2 1.655167 1_555
O2 P6 1.663157 1_555
O3 P3 1.655167 1_555
O3 P7 1.663157 1_555
O4 P0 1.619421 1_555
O4 P15 1.689267 1_556
O5 P13 1.619421 1_555
O5 P1 1.689267 1_555
O6 P14 1.619421 1_555
O6 P2 1.689267 1_554
O7 P12 1.619421 1_555
O7 P3 1.689267 1_555
O8 P8 1.616800 1_554
O8 P4 1.698793 1_555
O9 P9 1.616800 1_555
O9 P5 1.698793 1_655
O10 P10 1.616800 1_556
O10 P6 1.698793 1_555
O11 P11 1.616800 1_555
O11 P7 1.698793 1_455
O12 P8 1.620154 1_555
O12 P15 1.693082 1_556
O13 P9 1.620154 1_455
O13 P1 1.693082 1_555
O14 P10 1.620154 1_555
O14 P2 1.693082 1_554
O15 P11 1.620154 1_655
O15 P3 1.693082 1_555
O16 P8 1.640279 1_555
O16 P0 1.650738 1_555
O17 P9 1.640279 1_455
O17 P13 1.650738 1_555
O18 P10 1.640279 1_555
O18 P14 1.650738 1_555
O19 P12 1.616760 1_555
O19 P7 1.688926 1_555
O20 P0 1.616760 1_554
O20 P4 1.688926 1_555
O21 P13 1.616760 1_555
O21 P5 1.688926 1_555
O22 P14 1.616760 1_556
O22 P6 1.688926 1_555
O23 P11 1.640279 1_655
O23 P12 1.650738 1_555
