# generated using pymatgen
data_Na6YNb3(SiO4)6
_symmetry_space_group_name_H-M   'P 1'
_cell_length_a   15.93858599
_cell_length_b   9.15705297
_cell_length_c   9.17922651
_cell_angle_alpha   90.22557717
_cell_angle_beta   125.26995486
_cell_angle_gamma   89.95075818
_symmetry_Int_Tables_number   1
_chemical_formula_structural   Na6YNb3(SiO4)6
_chemical_formula_sum   'Na12 Y2 Nb6 Si12 O48'
_cell_volume   1093.78540771
_cell_formula_units_Z   2
loop_
 _symmetry_equiv_pos_site_id
 _symmetry_equiv_pos_as_xyz
  1  'x, y, z'
loop_
 _atom_site_type_symbol
 _atom_site_label
 _atom_site_symmetry_multiplicity
 _atom_site_fract_x
 _atom_site_fract_y
 _atom_site_fract_z
 _atom_site_occupancy
  Na  Na0  1  0.25207247  0.75004875  -0.00005581  1
  Na  Na1  1  0.74848952  0.74953612  0.49459572  1
  Na  Na2  1  0.75207247  0.25004875  -0.00005581  1
  Na  Na3  1  0.24848952  0.24953612  0.49459572  1
  Na  Na4  1  0.50529391  0.09808551  0.75884448  1
  Na  Na5  1  0.50125244  0.88497197  0.24105576  1
  Na  Na6  1  0.00529391  0.59808551  0.75884448  1
  Na  Na7  1  0.00125244  0.38497197  0.24105576  1
  Na  Na8  1  0.80362374  0.93134394  0.21624769  1
  Na  Na9  1  0.18580404  0.06900487  0.79325047  1
  Na  Na10  1  0.30362374  0.43134394  0.21624769  1
  Na  Na11  1  0.68580404  0.56900487  0.79325047  1
  Y  Y0  1  0.10384902  0.24067941  0.06656252  1
  Y  Y1  1  0.60384902  0.74067941  0.06656252  1
  Nb  Nb0  1  0.10659399  0.74891219  0.56115186  1
  Nb  Nb1  1  0.89560999  0.75575641  0.93148393  1
  Nb  Nb2  1  0.89242625  0.24948789  0.43872068  1
  Nb  Nb3  1  0.60659399  0.24891219  0.56115186  1
  Nb  Nb4  1  0.39560999  0.25575641  0.93148393  1
  Nb  Nb5  1  0.39242625  0.74948789  0.43872068  1
  Si  Si0  1  0.99565708  0.95214645  0.73946604  1
  Si  Si1  1  0.99793238  0.04140304  0.25898534  1
  Si  Si2  1  0.49565708  0.45214645  0.73946604  1
  Si  Si3  1  0.49793238  0.54140304  0.25898534  1
  Si  Si4  1  0.35261086  0.89869038  0.75910673  1
  Si  Si5  1  0.64859242  0.89694103  0.74822807  1
  Si  Si6  1  0.64668216  0.11726924  0.24516209  1
  Si  Si7  1  0.35896764  0.09819161  0.25138580  1
  Si  Si8  1  0.85261086  0.39869038  0.75910673  1
  Si  Si9  1  0.14859242  0.39694103  0.74822807  1
  Si  Si10  1  0.14668216  0.61726924  0.24516209  1
  Si  Si11  1  0.85896764  0.59819161  0.25138580  1
  O  O0  1  0.15683943  0.57309467  0.72354381  1
  O  O1  1  0.84971821  0.57958193  0.75301472  1
  O  O2  1  0.85577856  0.41867415  0.25900899  1
  O  O3  1  0.15879936  0.44210420  0.25946867  1
  O  O4  1  0.65683943  0.07309467  0.72354381  1
  O  O5  1  0.34971821  0.07958193  0.75301472  1
  O  O6  1  0.35577856  0.91867415  0.25900899  1
  O  O7  1  0.65879936  0.94210420  0.25946867  1
  O  O8  1  0.42724172  0.56118969  0.56348838  1
  O  O9  1  0.57934483  0.54923733  0.90684384  1
  O  O10  1  0.55193969  0.43264752  0.43137712  1
  O  O11  1  0.43536793  0.42771958  0.08249909  1
  O  O12  1  0.92724172  0.06118969  0.56348838  1
  O  O13  1  0.07934483  0.04923733  0.90684384  1
  O  O14  1  0.05193969  0.93264752  0.43137712  1
  O  O15  1  0.93536793  0.92771958  0.08249909  1
  O  O16  1  0.24608064  0.84540782  0.73363377  1
  O  O17  1  0.74230410  0.80779737  0.75981440  1
  O  O18  1  0.74373901  0.19253685  0.25541261  1
  O  O19  1  0.27525007  0.18650474  0.26111475  1
  O  O20  1  0.74608064  0.34540782  0.73363377  1
  O  O21  1  0.24230410  0.30779737  0.75981440  1
  O  O22  1  0.24373901  0.69253685  0.25541261  1
  O  O23  1  0.77525007  0.68650474  0.26111475  1
  O  O24  1  0.36279876  0.84822341  0.59304940  1
  O  O25  1  0.65204079  0.88086067  0.92637560  1
  O  O26  1  0.64610064  0.17910325  0.41280539  1
  O  O27  1  0.35528628  0.13955458  0.06961461  1
  O  O28  1  0.86279876  0.34822341  0.59304940  1
  O  O29  1  0.15204079  0.38086067  0.92637560  1
  O  O30  1  0.14610064  0.67910325  0.41280539  1
  O  O31  1  0.85528628  0.63955458  0.06961461  1
  O  O32  1  0.44981935  0.83970315  0.94466715  1
  O  O33  1  0.53810257  0.82418575  0.57552350  1
  O  O34  1  0.53662074  0.17201049  0.06137859  1
  O  O35  1  0.47441534  0.14633139  0.42209406  1
  O  O36  1  0.94981935  0.33970315  0.94466715  1
  O  O37  1  0.03810257  0.32418575  0.57552350  1
  O  O38  1  0.03662074  0.67201049  0.06137859  1
  O  O39  1  0.97441534  0.64633139  0.42209406  1
  O  O40  1  0.06477025  0.82963315  0.72023644  1
  O  O41  1  0.91525819  0.85575963  0.75919368  1
  O  O42  1  0.90763495  0.13573112  0.25390269  1
  O  O43  1  0.07929069  0.14993876  0.26774734  1
  O  O44  1  0.56477025  0.32963315  0.72023644  1
  O  O45  1  0.41525819  0.35575963  0.75919368  1
  O  O46  1  0.40763495  0.63573112  0.25390269  1
  O  O47  1  0.57929069  0.64993876  0.26774734  1
loop_
_geom_bond_atom_site_label_1
_geom_bond_atom_site_label_2
_geom_bond_distance
_geom_bond_site_symmetry_2
Na0 O46 2.453045 1_555
Na0 O22 2.482655 1_555
Na0 O6 2.491483 1_555
Na0 O16 2.548404 1_554
Na0 O0 2.625086 1_554
Na0 O40 2.682264 1_554
Na1 O47 2.438145 1_555
Na1 O23 2.480680 1_555
Na1 O1 2.501368 1_555
Na1 O7 2.504732 1_555
Na1 O41 2.537849 1_555
Na1 O17 2.547156 1_555
Na2 O42 2.453045 1_555
Na2 O18 2.482655 1_555
Na2 O2 2.491483 1_555
Na2 O20 2.548404 1_554
Na2 O4 2.625086 1_554
Na2 O44 2.682264 1_554
Na3 O43 2.438145 1_555
Na3 O19 2.480680 1_555
Na3 O5 2.501368 1_555
Na3 O3 2.504732 1_555
Na3 O45 2.537849 1_555
Na3 O21 2.547156 1_555
Na4 O44 2.432537 1_555
Na4 O5 2.455133 1_555
Na4 O34 2.608430 1_556
Na4 O4 2.625638 1_555
Na4 O45 2.761557 1_555
Na4 O25 2.766660 1_545
Na4 O35 2.871553 1_555
Na4 O24 2.949420 1_545
Na5 O32 2.379425 1_554
Na5 O47 2.426261 1_555
Na5 O6 2.436837 1_555
Na5 O7 2.473700 1_555
Na5 O46 2.767758 1_555
Na5 O33 2.830384 1_555
Na6 O40 2.432537 1_555
Na6 O1 2.455133 1_455
Na6 O38 2.608430 1_556
Na6 O0 2.625638 1_555
Na6 O41 2.761557 1_455
Na6 O29 2.766660 1_555
Na6 O39 2.871553 1_455
Na6 O28 2.949420 1_455
Na7 O36 2.379425 1_454
Na7 O43 2.426261 1_555
Na7 O2 2.436837 1_455
Na7 O3 2.473700 1_555
Na7 O42 2.767758 1_455
Na7 O37 2.830384 1_555
Na8 O23 2.371672 1_555
Na8 O25 2.387233 1_554
Na8 O42 2.389366 1_565
Na8 O7 2.559734 1_555
Na8 O18 2.673267 1_565
Na8 O12 2.859519 1_565
Na8 O15 2.982338 1_555
Na9 O16 2.451454 1_545
Na9 O21 2.452425 1_555
Na9 O13 2.458538 1_555
Na9 O27 2.495196 1_556
Na9 O40 2.734558 1_545
Na9 O5 2.843643 1_555
Na10 O19 2.371672 1_555
Na10 O29 2.387233 1_554
Na10 O46 2.389366 1_555
Na10 O3 2.559734 1_555
Na10 O22 2.673267 1_555
Na10 O8 2.859519 1_555
Na10 O11 2.982338 1_555
Na11 O20 2.451454 1_555
Na11 O17 2.452425 1_555
Na11 O9 2.458538 1_555
Na11 O31 2.495196 1_556
Na11 O44 2.734558 1_555
Na11 O1 2.843643 1_555
Nb0 O30 1.908415 1_555
Nb0 O14 1.955366 1_555
Nb0 O39 1.959185 1_455
Nb0 O0 2.023213 1_555
Nb0 O16 2.039000 1_555
Nb0 O40 2.058633 1_555
Nb1 O15 1.942369 1_556
Nb1 O38 1.992616 1_656
Nb1 O41 2.005397 1_555
Nb1 O31 2.026291 1_556
Nb1 O17 2.058647 1_555
Nb1 O1 2.102065 1_555
Nb2 O28 1.951659 1_555
Nb2 O12 1.967892 1_555
Nb2 O37 2.016094 1_655
Nb2 O18 2.027204 1_555
Nb2 O2 2.090066 1_555
Nb2 O42 2.117189 1_555
Nb3 O26 1.908415 1_555
Nb3 O10 1.955366 1_555
Nb3 O35 1.959185 1_555
Nb3 O4 2.023213 1_555
Nb3 O20 2.039000 1_555
Nb3 O44 2.058633 1_555
Nb4 O11 1.942369 1_556
Nb4 O34 1.992616 1_556
Nb4 O45 2.005397 1_555
Nb4 O27 2.026291 1_556
Nb4 O21 2.058647 1_555
Nb4 O5 2.102065 1_555
Nb5 O24 1.951659 1_555
Nb5 O8 1.967892 1_555
Nb5 O33 2.016094 1_555
Nb5 O22 2.027204 1_555
Nb5 O6 2.090066 1_555
Nb5 O46 2.117189 1_555
O0 Si9 1.645655 1_555
O1 Si8 1.657301 1_555
O2 Si11 1.647690 1_555
O3 Si10 1.612198 1_555
O3 Y0 2.343207 1_555
O4 Si5 1.645655 1_545
O5 Si4 1.657301 1_545
O6 Si7 1.647690 1_565
O7 Si6 1.612198 1_565
O7 Y1 2.343207 1_555
O8 Si2 1.664944 1_555
O9 Si2 1.598352 1_555
O9 Y1 2.166750 1_556
O10 Si3 1.635439 1_555
O11 Si3 1.680888 1_555
O12 Si0 1.664944 1_545
O13 Si0 1.598352 1_445
O13 Y0 2.166750 1_556
O14 Si1 1.635439 1_465
O15 Si1 1.680888 1_565
O16 Si4 1.648564 1_555
O17 Si5 1.650369 1_555
O18 Si6 1.646259 1_555
O19 Si7 1.605492 1_555
O19 Y0 2.295421 1_555
O20 Si8 1.648564 1_555
O21 Si9 1.650369 1_555
O22 Si10 1.646259 1_555
O23 Si11 1.605492 1_555
O23 Y1 2.295421 1_555
O24 Si4 1.686274 1_555
O25 Si5 1.611476 1_555
O25 Y1 2.247173 1_556
O26 Si6 1.642652 1_555
O27 Si7 1.680100 1_555
O28 Si8 1.686274 1_555
O29 Si9 1.611476 1_555
O29 Y0 2.247173 1_556
O30 Si10 1.642652 1_555
O31 Si11 1.680100 1_555
O32 Si4 1.597379 1_555
O32 Y1 2.221062 1_556
O33 Si5 1.681635 1_555
O34 Si6 1.661930 1_555
O35 Si7 1.643682 1_555
O36 Si8 1.597379 1_555
O36 Y0 2.221062 1_656
O37 Si9 1.681635 1_555
O38 Si10 1.661930 1_555
O39 Si11 1.643682 1_555
O40 Si0 1.650468 1_455
O41 Si0 1.650786 1_555
O42 Si1 1.655368 1_555
O43 Si1 1.599033 1_455
O43 Y0 2.258639 1_555
O44 Si2 1.650468 1_555
O45 Si2 1.650786 1_555
O46 Si3 1.655368 1_555
O47 Si3 1.599033 1_555
O47 Y1 2.258639 1_555
