# generated using pymatgen
data_Na2ZrGa(PO4)3
_symmetry_space_group_name_H-M   'P 1'
_cell_length_a   8.87767147
_cell_length_b   8.87767118
_cell_length_c   22.62638797
_cell_angle_alpha   90.21170576
_cell_angle_beta   89.78829426
_cell_angle_gamma   120.56043359
_symmetry_Int_Tables_number   1
_chemical_formula_structural   Na2ZrGa(PO4)3
_chemical_formula_sum   'Na12 Zr6 Ga6 P18 O72'
_cell_volume   1535.53477865
_cell_formula_units_Z   6
loop_
 _symmetry_equiv_pos_site_id
 _symmetry_equiv_pos_as_xyz
  1  'x, y, z'
loop_
 _atom_site_type_symbol
 _atom_site_label
 _atom_site_symmetry_multiplicity
 _atom_site_fract_x
 _atom_site_fract_y
 _atom_site_fract_z
 _atom_site_occupancy
  Na  Na0  1  0.36544709  0.36147376  0.24829521  1
  Na  Na1  1  0.63852624  0.63455291  0.74829521  1
  Na  Na2  1  0.03211409  0.69480676  0.58162821  1
  Na  Na3  1  0.30519324  0.96788591  0.08162821  1
  Na  Na4  1  0.69878009  0.02814076  0.91496221  1
  Na  Na5  1  0.97185924  0.30121991  0.41496221  1
  Na  Na6  1  0.99986515  0.99884420  0.49539320  1
  Na  Na7  1  0.00115580  0.00013485  0.99539320  1
  Na  Na8  1  0.66653215  0.33217720  0.82872620  1
  Na  Na9  1  0.66782280  0.33346785  0.32872620  1
  Na  Na10  1  0.33319815  0.66551120  0.16206020  1
  Na  Na11  1  0.33448880  0.66680185  0.66206020  1
  Zr  Zr0  1  0.00168667  0.00917587  0.64632608  1
  Zr  Zr1  1  0.99082413  0.99831333  0.14632608  1
  Zr  Zr2  1  0.66835367  0.34250887  0.97965908  1
  Zr  Zr3  1  0.65749113  0.33164633  0.47965908  1
  Zr  Zr4  1  0.33501967  0.67584287  0.31299308  1
  Zr  Zr5  1  0.32415713  0.66498033  0.81299308  1
  Ga  Ga0  1  0.99902370  0.99141766  0.35085038  1
  Ga  Ga1  1  0.00858234  0.00097630  0.85085038  1
  Ga  Ga2  1  0.66569070  0.32475066  0.68418338  1
  Ga  Ga3  1  0.67524934  0.33430930  0.18418338  1
  Ga  Ga4  1  0.33235670  0.65808466  0.01751738  1
  Ga  Ga5  1  0.34191534  0.66764330  0.51751738  1
  P  P0  1  0.29467385  0.00840844  0.24929617  1
  P  P1  1  0.71269785  0.70151063  0.25191193  1
  P  P2  1  0.98804440  0.28626497  0.25259823  1
  P  P3  1  0.29848937  0.28730215  0.75191193  1
  P  P4  1  0.99159156  0.70532615  0.74929617  1
  P  P5  1  0.71373503  0.01195560  0.75259823  1
  P  P6  1  0.96134085  0.34174144  0.58262917  1
  P  P7  1  0.37936485  0.03484363  0.58524493  1
  P  P8  1  0.65471140  0.61959797  0.58593123  1
  P  P9  1  0.96515637  0.62063515  0.08524493  1
  P  P10  1  0.65825856  0.03865915  0.08262917  1
  P  P11  1  0.38040203  0.34528860  0.08593123  1
  P  P12  1  0.62800685  0.67507544  0.91596317  1
  P  P13  1  0.04603085  0.36817763  0.91857893  1
  P  P14  1  0.32137740  0.95293197  0.91926523  1
  P  P15  1  0.63182237  0.95396915  0.41857893  1
  P  P16  1  0.32492456  0.37199315  0.41596317  1
  P  P17  1  0.04706803  0.67862260  0.41926523  1
  O  O0  1  0.20780530  0.04006513  0.30349843  1
  O  O1  1  0.82361124  0.78995657  0.30669443  1
  O  O2  1  0.96643739  0.18078356  0.30929929  1
  O  O3  1  0.21004343  0.17638876  0.80669443  1
  O  O4  1  0.95993486  0.79219470  0.80349843  1
  O  O5  1  0.81921644  0.03356261  0.80929929  1
  O  O6  1  0.79696419  0.97376017  0.69818223  1
  O  O7  1  0.18450433  0.20710047  0.69618517  1
  O  O8  1  0.02198611  0.81445325  0.69244742  1
  O  O9  1  0.79289953  0.81549567  0.19618517  1
  O  O10  1  0.02623983  0.20303581  0.19818223  1
  O  O11  1  0.18554675  0.97801389  0.19244742  1
  O  O12  1  0.87447230  0.37339813  0.63683143  1
  O  O13  1  0.49027824  0.12328957  0.64002743  1
  O  O14  1  0.63310439  0.51411656  0.64263229  1
  O  O15  1  0.87671043  0.50972176  0.14002743  1
  O  O16  1  0.62660186  0.12552770  0.13683143  1
  O  O17  1  0.48588344  0.36689561  0.14263229  1
  O  O18  1  0.46363119  0.30709317  0.03151523  1
  O  O19  1  0.85117133  0.54043347  0.02951817  1
  O  O20  1  0.68865311  0.14778625  0.02578042  1
  O  O21  1  0.45956653  0.14882867  0.52951817  1
  O  O22  1  0.69290683  0.53636881  0.53151523  1
  O  O23  1  0.85221375  0.31134689  0.52578042  1
  O  O24  1  0.54113830  0.70673213  0.97016543  1
  O  O25  1  0.15694424  0.45662357  0.97336143  1
  O  O26  1  0.29977039  0.84745056  0.97596629  1
  O  O27  1  0.54337643  0.84305576  0.47336143  1
  O  O28  1  0.29326786  0.45886170  0.47016543  1
  O  O29  1  0.15254944  0.70022961  0.47596629  1
  O  O30  1  0.13029719  0.64042717  0.36484923  1
  O  O31  1  0.51783733  0.87376747  0.36285217  1
  O  O32  1  0.35531911  0.48112025  0.35911442  1
  O  O33  1  0.12623253  0.48216267  0.86285217  1
  O  O34  1  0.35957283  0.86970281  0.86484923  1
  O  O35  1  0.51887975  0.64468089  0.85911442  1
  O  O36  1  0.02756566  0.83884082  0.41050785  1
  O  O37  1  0.81684471  0.98073395  0.41141691  1
  O  O38  1  0.15774254  0.18989137  0.41002609  1
  O  O39  1  0.01926605  0.18315529  0.91141691  1
  O  O40  1  0.16115918  0.97243434  0.91050785  1
  O  O41  1  0.81010863  0.84225746  0.91002609  1
  O  O42  1  0.97946188  0.17757445  0.58819400  1
  O  O43  1  0.19178405  0.01050083  0.58939015  1
  O  O44  1  0.82716743  0.80255744  0.58948686  1
  O  O45  1  0.98949917  0.80821595  0.08939015  1
  O  O46  1  0.82242555  0.02053812  0.08819400  1
  O  O47  1  0.19744256  0.17283257  0.08948686  1
  O  O48  1  0.69423266  0.17217382  0.74384085  1
  O  O49  1  0.48351171  0.31406695  0.74474991  1
  O  O50  1  0.82440954  0.52322437  0.74335909  1
  O  O51  1  0.68593305  0.51648829  0.24474991  1
  O  O52  1  0.82782618  0.30576734  0.24384085  1
  O  O53  1  0.47677563  0.17559046  0.24335909  1
  O  O54  1  0.64612888  0.51090745  0.92152700  1
  O  O55  1  0.85845105  0.34383383  0.92272315  1
  O  O56  1  0.49383443  0.13589044  0.92281986  1
  O  O57  1  0.65616617  0.14154895  0.42272315  1
  O  O58  1  0.48909255  0.35387112  0.42152700  1
  O  O59  1  0.86410956  0.50616557  0.42281986  1
  O  O60  1  0.36089866  0.50550782  0.07717485  1
  O  O61  1  0.15017771  0.64740095  0.07808391  1
  O  O62  1  0.49107554  0.85655837  0.07669309  1
  O  O63  1  0.35259905  0.84982229  0.57808391  1
  O  O64  1  0.49449218  0.63910134  0.57717485  1
  O  O65  1  0.14344163  0.50892446  0.57669309  1
  O  O66  1  0.31279488  0.84424145  0.25486100  1
  O  O67  1  0.52511705  0.67716783  0.25605715  1
  O  O68  1  0.16050043  0.46922444  0.25615386  1
  O  O69  1  0.32283217  0.47488295  0.75605715  1
  O  O70  1  0.15575855  0.68720512  0.75486100  1
  O  O71  1  0.53077556  0.83949957  0.75615386  1
loop_
_geom_bond_atom_site_label_1
_geom_bond_atom_site_label_2
_geom_bond_distance
_geom_bond_site_symmetry_2
Na0 O53 2.317072 1_555
Na0 O67 2.419346 1_555
Na0 O51 2.452104 1_555
Na0 O68 2.454230 1_555
Na0 O17 2.605936 1_555
Na0 O32 2.738491 1_555
Na0 O0 2.759179 1_555
Na0 O10 2.835252 1_555
Na1 O50 2.317072 1_555
Na1 O69 2.419347 1_555
Na1 O49 2.452104 1_555
Na1 O71 2.454230 1_555
Na1 O14 2.605936 1_555
Na1 O35 2.738491 1_555
Na1 O4 2.759179 1_555
Na1 O6 2.835252 1_555
Na2 O65 2.317056 1_555
Na2 O43 2.419346 1_565
Na2 O63 2.452095 1_555
Na2 O44 2.454230 1_455
Na2 O29 2.605910 1_555
Na2 O8 2.738491 1_555
Na2 O12 2.759179 1_455
Na2 O22 2.835252 1_455
Na3 O62 2.317056 1_555
Na3 O45 2.419347 1_455
Na3 O61 2.452095 1_555
Na3 O47 2.454230 1_565
Na3 O26 2.605910 1_554
Na3 O11 2.738491 1_555
Na3 O16 2.759179 1_565
Na3 O18 2.835252 1_565
Na4 O41 2.317072 1_545
Na4 O55 2.419337 1_555
Na4 O39 2.452104 1_655
Na4 O56 2.454213 1_555
Na4 O5 2.605936 1_555
Na4 O20 2.738465 1_556
Na4 O24 2.759179 1_545
Na4 O34 2.835252 1_545
Na5 O38 2.317072 1_655
Na5 O57 2.419337 1_555
Na5 O37 2.452104 1_545
Na5 O59 2.454213 1_555
Na5 O2 2.605936 1_555
Na5 O23 2.738465 1_555
Na5 O28 2.759179 1_655
Na5 O30 2.835252 1_655
Na6 O37 2.455815 1_555
Na6 O36 2.469540 1_655
Na6 O38 2.481693 1_665
Na6 O44 2.684452 1_555
Na6 O42 2.687791 1_565
Na6 O43 2.698667 1_665
Na7 O39 2.455815 1_555
Na7 O40 2.469540 1_545
Na7 O41 2.481693 1_445
Na7 O47 2.684452 1_556
Na7 O46 2.687791 1_456
Na7 O45 2.698667 1_446
Na8 O49 2.455815 1_555
Na8 O48 2.469540 1_555
Na8 O50 2.481693 1_555
Na8 O56 2.684452 1_555
Na8 O54 2.687791 1_555
Na8 O55 2.698667 1_555
Na9 O51 2.455815 1_555
Na9 O52 2.469540 1_555
Na9 O53 2.481693 1_555
Na9 O59 2.684452 1_555
Na9 O58 2.687791 1_555
Na9 O57 2.698667 1_555
Na10 O61 2.455815 1_555
Na10 O60 2.469540 1_555
Na10 O62 2.481693 1_555
Na10 O68 2.684452 1_555
Na10 O66 2.687791 1_555
Na10 O67 2.698667 1_555
Na11 O63 2.455815 1_555
Na11 O64 2.469540 1_555
Na11 O65 2.481693 1_555
Na11 O71 2.684452 1_555
Na11 O70 2.687791 1_555
Na11 O69 2.698667 1_555
Ga0 O1 1.946293 1_555
Ga0 O0 1.986103 1_665
Ga0 O36 2.021399 1_655
Ga0 O2 2.074128 1_565
Ga0 O37 2.081185 1_555
Ga0 O38 2.086767 1_665
Ga1 O3 1.946293 1_555
Ga1 O4 1.986103 1_445
Ga1 O40 2.021399 1_545
Ga1 O5 2.074128 1_455
Ga1 O39 2.081185 1_555
Ga1 O41 2.086767 1_445
Ga2 O13 1.946293 1_555
Ga2 O12 1.986103 1_555
Ga2 O48 2.021399 1_555
Ga2 O14 2.074128 1_555
Ga2 O49 2.081185 1_555
Ga2 O50 2.086767 1_555
Ga3 O15 1.946293 1_555
Ga3 O16 1.986103 1_555
Ga3 O52 2.021399 1_555
Ga3 O17 2.074128 1_555
Ga3 O51 2.081185 1_555
Ga3 O53 2.086767 1_555
Ga4 O25 1.946293 1_554
Ga4 O24 1.986103 1_554
Ga4 O60 2.021399 1_555
Ga4 O26 2.074128 1_554
Ga4 O61 2.081185 1_555
Ga4 O62 2.086767 1_555
Ga5 O27 1.946293 1_555
Ga5 O28 1.986103 1_555
Ga5 O64 2.021399 1_555
Ga5 O29 2.074128 1_555
Ga5 O63 2.081185 1_555
Ga5 O65 2.086767 1_555
O0 P0 1.545521 1_555
O1 P1 1.529094 1_555
O2 P2 1.544030 1_555
O3 P3 1.529094 1_555
O4 P4 1.545521 1_555
O5 P5 1.544030 1_555
O6 P5 1.556226 1_565
O6 Zr0 2.045623 1_665
O7 P3 1.546261 1_555
O7 Zr0 2.023154 1_555
O8 P4 1.551357 1_455
O8 Zr0 2.107451 1_565
O9 P1 1.546261 1_555
O9 Zr1 2.023154 1_555
O10 P2 1.556226 1_455
O10 Zr1 2.045623 1_445
O11 P0 1.551357 1_565
O11 Zr1 2.107452 1_455
O12 P6 1.545521 1_555
O13 P7 1.529094 1_555
O14 P8 1.544030 1_555
O15 P9 1.529094 1_555
O16 P10 1.545521 1_555
O17 P11 1.544030 1_555
O18 P11 1.556226 1_555
O18 Zr2 2.045623 1_554
O19 P9 1.546261 1_555
O19 Zr2 2.023154 1_554
O20 P10 1.551357 1_555
O20 Zr2 2.107451 1_554
O21 P7 1.546261 1_555
O21 Zr3 2.023154 1_555
O22 P8 1.556226 1_555
O22 Zr3 2.045623 1_555
O23 P6 1.551357 1_555
O23 Zr3 2.107452 1_555
O24 P12 1.545521 1_555
O25 P13 1.529094 1_555
O26 P14 1.544030 1_555
O27 P15 1.529094 1_555
O28 P16 1.545521 1_555
O29 P17 1.544030 1_555
O30 P17 1.556226 1_555
O30 Zr4 2.045623 1_555
O31 P15 1.546261 1_555
O31 Zr4 2.023154 1_555
O32 P16 1.551357 1_555
O32 Zr4 2.107451 1_555
O33 P13 1.546261 1_555
O33 Zr5 2.023154 1_555
O34 P14 1.556226 1_555
O34 Zr5 2.045623 1_555
O35 P12 1.551357 1_555
O35 Zr5 2.107452 1_555
O36 P17 1.531378 1_555
O37 P15 1.543432 1_555
O38 P16 1.547359 1_555
O39 P13 1.543432 1_555
O40 P14 1.531378 1_555
O41 P12 1.547359 1_555
O42 P6 1.551043 1_555
O42 Zr0 2.078552 1_655
O43 P7 1.568979 1_555
O43 Zr0 2.114631 1_555
O44 P8 1.568390 1_555
O44 Zr0 2.127525 1_665
O45 P9 1.568979 1_555
O45 Zr1 2.114631 1_555
O46 P10 1.551043 1_555
O46 Zr1 2.078552 1_545
O47 P11 1.568390 1_555
O47 Zr1 2.127525 1_445
O48 P5 1.531378 1_555
O49 P3 1.543432 1_555
O50 P4 1.547359 1_555
O51 P1 1.543432 1_555
O52 P2 1.531378 1_555
O53 P0 1.547359 1_555
O54 P12 1.551055 1_555
O54 Zr2 2.078552 1_555
O55 P13 1.568965 1_655
O55 Zr2 2.114631 1_555
O56 P14 1.568388 1_545
O56 Zr2 2.127525 1_555
O57 P15 1.568965 1_545
O57 Zr3 2.114631 1_555
O58 P16 1.551055 1_555
O58 Zr3 2.078552 1_555
O59 P17 1.568388 1_655
O59 Zr3 2.127525 1_555
O60 P11 1.531389 1_555
O61 P9 1.543417 1_455
O62 P10 1.547356 1_565
O63 P7 1.543417 1_565
O64 P8 1.531389 1_555
O65 P6 1.547356 1_455
O66 P0 1.551043 1_565
O66 Zr4 2.078552 1_555
O67 P1 1.568979 1_555
O67 Zr4 2.114631 1_555
O68 P2 1.568390 1_455
O68 Zr4 2.127525 1_555
O69 P3 1.568979 1_555
O69 Zr5 2.114631 1_555
O70 P4 1.551043 1_455
O70 Zr5 2.078552 1_555
O71 P5 1.568390 1_565
O71 Zr5 2.127525 1_555
