# generated using pymatgen
data_Sb5IO7
_symmetry_space_group_name_H-M   'P 1'
_cell_length_a   6.94738620
_cell_length_b   6.94738620
_cell_length_c   12.97691900
_cell_angle_alpha   90.00000000
_cell_angle_beta   90.00000000
_cell_angle_gamma   120.00000193
_symmetry_Int_Tables_number   1
_chemical_formula_structural   Sb5IO7
_chemical_formula_sum   'Sb10 I2 O14'
_cell_volume   542.43174837
_cell_formula_units_Z   2
loop_
 _symmetry_equiv_pos_site_id
 _symmetry_equiv_pos_as_xyz
  1  'x, y, z'
loop_
 _atom_site_type_symbol
 _atom_site_label
 _atom_site_symmetry_multiplicity
 _atom_site_fract_x
 _atom_site_fract_y
 _atom_site_fract_z
 _atom_site_occupancy
  Sb  Sb0  1  0.66666700  0.33333300  0.94636100  1
  Sb  Sb1  1  0.66666700  0.33333300  0.55363900  1
  Sb  Sb2  1  0.33333300  0.66666700  0.05363900  1
  Sb  Sb3  1  0.33333300  0.66666700  0.44636100  1
  Sb  Sb4  1  0.63971900  0.67904600  0.75000000  1
  Sb  Sb5  1  0.32095400  0.96067300  0.75000000  1
  Sb  Sb6  1  0.03932700  0.36028100  0.75000000  1
  Sb  Sb7  1  0.36028100  0.03932700  0.25000000  1
  Sb  Sb8  1  0.96067300  0.32095400  0.25000000  1
  Sb  Sb9  1  0.67904600  0.63971900  0.25000000  1
  I  I0  1  0.00000000  0.00000000  0.50000000  1
  I  I1  1  0.00000000  0.00000000  0.00000000  1
  O  O0  1  0.55025200  0.05742500  0.64018500  1
  O  O1  1  0.94257500  0.49282700  0.64018500  1
  O  O2  1  0.50717300  0.44974800  0.64018500  1
  O  O3  1  0.44974800  0.50717300  0.35981500  1
  O  O4  1  0.50717300  0.44974800  0.85981500  1
  O  O5  1  0.55025200  0.05742500  0.85981500  1
  O  O6  1  0.94257500  0.49282700  0.85981500  1
  O  O7  1  0.05742500  0.55025200  0.14018500  1
  O  O8  1  0.49282700  0.94257500  0.14018500  1
  O  O9  1  0.49282700  0.94257500  0.35981500  1
  O  O10  1  0.05742500  0.55025200  0.35981500  1
  O  O11  1  0.44974800  0.50717300  0.14018500  1
  O  O12  1  0.66666700  0.33333300  0.25000000  1
  O  O13  1  0.33333300  0.66666700  0.75000000  1
loop_
_geom_bond_atom_site_label_1
_geom_bond_atom_site_label_2
_geom_bond_distance
_geom_bond_site_symmetry_2
O0 Sb5 1.987346 1_545
O0 Sb1 2.009839 1_555
O1 Sb6 1.987346 1_655
O1 Sb1 2.009839 1_555
O2 Sb4 1.987346 1_555
O2 Sb1 2.009844 1_555
O3 Sb9 1.987346 1_555
O3 Sb3 2.009844 1_555
O4 Sb4 1.987346 1_555
O4 Sb0 2.009844 1_555
O5 Sb5 1.987346 1_545
O5 Sb0 2.009839 1_555
O6 Sb6 1.987346 1_655
O6 Sb0 2.009839 1_555
O7 Sb8 1.987346 1_455
O7 Sb2 2.009839 1_555
O8 Sb7 1.987346 1_565
O8 Sb2 2.009839 1_555
O9 Sb7 1.987346 1_565
O9 Sb3 2.009839 1_555
O10 Sb8 1.987346 1_455
O10 Sb3 2.009839 1_555
O11 Sb9 1.987346 1_555
O11 Sb2 2.009844 1_555
O12 Sb8 2.086904 1_555
O12 Sb7 2.086907 1_555
O12 Sb9 2.086910 1_555
O13 Sb5 2.086904 1_555
O13 Sb6 2.086907 1_555
O13 Sb4 2.086910 1_555
