# generated using pymatgen
data_MgCo4OF11
_symmetry_space_group_name_H-M   'P 1'
_cell_length_a   7.35809105
_cell_length_b   5.22556949
_cell_length_c   5.55298967
_cell_angle_alpha   89.62041699
_cell_angle_beta   94.15737183
_cell_angle_gamma   89.92315880
_symmetry_Int_Tables_number   1
_chemical_formula_structural   MgCo4OF11
_chemical_formula_sum   'Mg1 Co4 O1 F11'
_cell_volume   212.94680400
_cell_formula_units_Z   1
loop_
 _symmetry_equiv_pos_site_id
 _symmetry_equiv_pos_as_xyz
  1  'x, y, z'
loop_
 _atom_site_type_symbol
 _atom_site_label
 _atom_site_symmetry_multiplicity
 _atom_site_fract_x
 _atom_site_fract_y
 _atom_site_fract_z
 _atom_site_occupancy
  Mg  Mg0  1  0.70540700  0.01750300  0.60739900  1
  Co  Co0  1  0.98467300  0.48379900  0.49259700  1
  Co  Co1  1  0.01241000  0.99742200  0.01307600  1
  Co  Co2  1  0.49455400  0.50412300  0.49745000  1
  Co  Co3  1  0.48948500  0.01206700  0.01405300  1
  O  O0  1  0.75205400  0.38037300  0.49772400  1
  F  F0  1  0.25773700  0.85556700  0.01746100  1
  F  F1  1  0.06428400  0.18079500  0.30581800  1
  F  F2  1  0.23524400  0.59357800  0.50533800  1
  F  F3  1  0.06361700  0.27094000  0.81593700  1
  F  F4  1  0.57342400  0.84280300  0.32705500  1
  F  F5  1  0.44262000  0.30634100  0.16944600  1
  F  F6  1  0.56838400  0.73795700  0.80893500  1
  F  F7  1  0.45492500  0.17300300  0.68479600  1
  F  F8  1  0.93506300  0.71335700  0.17944700  1
  F  F9  1  0.92979800  0.81962500  0.68423800  1
  F  F10  1  0.74928100  0.12325000  0.96672800  1
loop_
_geom_bond_atom_site_label_1
_geom_bond_atom_site_label_2
_geom_bond_distance
_geom_bond_site_symmetry_2
Mg0 O0 2.025106 1_555
Co0 O0 1.797758 1_555
Co0 F2 1.928178 1_655
Co0 F1 2.008310 1_655
Co0 F9 2.111935 1_555
Co0 F8 2.115469 1_555
Co0 F3 2.149201 1_655
Co1 F3 1.850335 1_564
Co1 F8 1.855046 1_455
Co1 F1 1.907381 1_565
Co1 F0 1.948949 1_555
Co1 F10 2.041876 1_464
Co1 F9 2.104796 1_454
Co2 F2 1.967484 1_555
Co2 O0 2.001095 1_555
Co2 F7 2.045167 1_555
Co2 F4 2.103436 1_555
Co2 F5 2.111111 1_555
Co2 F6 2.161830 1_555
Co3 F5 1.813140 1_555
Co3 F0 1.893451 1_545
Co3 F6 1.949711 1_544
Co3 F4 2.001826 1_545
Co3 F7 2.006604 1_554
Co3 F10 2.033380 1_554
F4 Mg0 2.000496 1_565
F6 Mg0 2.132782 1_565
F7 Mg0 2.087429 1_555
F9 Mg0 1.965908 1_565
F10 Mg0 2.076700 1_555
