# generated using pymatgen
data_ThGa2
_symmetry_space_group_name_H-M   'P 1'
_cell_length_a   4.26397675
_cell_length_b   4.26397606
_cell_length_c   7.91515585
_cell_angle_alpha   105.62593215
_cell_angle_beta   105.62592490
_cell_angle_gamma   89.99998570
_symmetry_Int_Tables_number   1
_chemical_formula_structural   ThGa2
_chemical_formula_sum   'Th2 Ga4'
_cell_volume   133.05937154
_cell_formula_units_Z   2
loop_
 _symmetry_equiv_pos_site_id
 _symmetry_equiv_pos_as_xyz
  1  'x, y, z'
loop_
 _atom_site_type_symbol
 _atom_site_label
 _atom_site_symmetry_multiplicity
 _atom_site_fract_x
 _atom_site_fract_y
 _atom_site_fract_z
 _atom_site_occupancy
  Th  Th0  1  0.87500000  0.62500000  0.25000000  1
  Th  Th1  1  0.12500000  0.37500000  0.75000000  1
  Ga  Ga0  1  0.70822716  0.95822716  0.91645532  1
  Ga  Ga1  1  0.45822716  0.20822716  0.41645532  1
  Ga  Ga2  1  0.54177284  0.79177284  0.58354468  1
  Ga  Ga3  1  0.29177284  0.04177284  0.08354468  1
loop_
_geom_bond_atom_site_label_1
_geom_bond_atom_site_label_2
_geom_bond_distance
_geom_bond_site_symmetry_2
Ga0 Ga2 2.436372 1_555
Ga0 Ga3 2.457776 1_566
Ga0 Ga3 2.457782 1_666
Ga0 Th0 3.240973 1_556
Ga0 Th0 3.240974 1_566
Ga0 Th1 3.251877 1_555
Ga0 Th1 3.251880 1_655
Ga0 Th1 3.251880 1_565
Ga0 Th1 3.251884 1_665
Ga1 Ga3 2.436372 1_555
Ga1 Ga2 2.457776 1_545
Ga1 Ga2 2.457782 1_555
Ga1 Th1 3.240973 1_555
Ga1 Th1 3.240975 1_655
Ga1 Th0 3.251877 1_445
Ga1 Th0 3.251880 1_545
Ga1 Th0 3.251880 1_455
Ga1 Th0 3.251884 1_555
Ga2 Th0 3.240973 1_555
Ga2 Th0 3.240975 1_455
Ga2 Th1 3.251877 1_665
Ga2 Th1 3.251880 1_565
Ga2 Th1 3.251880 1_655
Ga2 Th1 3.251884 1_555
Ga3 Th1 3.240973 1_554
Ga3 Th1 3.240974 1_544
Ga3 Th0 3.251877 1_555
Ga3 Th0 3.251880 1_455
Ga3 Th0 3.251880 1_545
Ga3 Th0 3.251884 1_445
