# generated using pymatgen
data_Rb2NiH12(SeO7)2
_symmetry_space_group_name_H-M   'P 1'
_cell_length_a   12.74284400
_cell_length_b   6.43945900
_cell_length_c   9.36987673
_cell_angle_alpha   75.08232345
_cell_angle_beta   90.00000000
_cell_angle_gamma   90.00000000
_symmetry_Int_Tables_number   1
_chemical_formula_structural   Rb2NiH12(SeO7)2
_chemical_formula_sum   'Rb4 Ni2 H24 Se4 O28'
_cell_volume   742.95091911
_cell_formula_units_Z   2
loop_
 _symmetry_equiv_pos_site_id
 _symmetry_equiv_pos_as_xyz
  1  'x, y, z'
loop_
 _atom_site_type_symbol
 _atom_site_label
 _atom_site_symmetry_multiplicity
 _atom_site_fract_x
 _atom_site_fract_y
 _atom_site_fract_z
 _atom_site_occupancy
  Rb  Rb0  1  0.15379900  0.65783500  0.13379800  1
  Rb  Rb1  1  0.65379900  0.34216500  0.36620200  1
  Rb  Rb2  1  0.84620100  0.34216500  0.86620200  1
  Rb  Rb3  1  0.34620100  0.65783500  0.63379800  1
  Ni  Ni0  1  0.00000000  0.00000000  0.50000000  1
  Ni  Ni1  1  0.50000000  0.00000000  0.00000000  1
  H  H0  1  0.36307500  0.32190500  0.97231300  1
  H  H1  1  0.59392900  0.92792400  0.26723400  1
  H  H2  1  0.09392900  0.07207600  0.23276600  1
  H  H3  1  0.40607100  0.07207600  0.73276600  1
  H  H4  1  0.90607100  0.92792400  0.76723400  1
  H  H5  1  0.68171200  0.99950400  0.14393500  1
  H  H6  1  0.18171200  0.00049600  0.35606500  1
  H  H7  1  0.31828800  0.00049600  0.85606500  1
  H  H8  1  0.81828800  0.99950400  0.64393500  1
  H  H9  1  0.59050100  0.31340400  0.79608000  1
  H  H10  1  0.09050100  0.68659600  0.70392000  1
  H  H11  1  0.40949900  0.68659600  0.20392000  1
  H  H12  1  0.90949900  0.31340400  0.29608000  1
  H  H13  1  0.62737300  0.09156500  0.76202900  1
  H  H14  1  0.86307500  0.67809500  0.52768700  1
  H  H15  1  0.12737300  0.90843500  0.73797100  1
  H  H16  1  0.13692500  0.32190500  0.47231300  1
  H  H17  1  0.63692500  0.67809500  0.02768700  1
  H  H18  1  0.94437400  0.66813000  0.40220800  1
  H  H19  1  0.44437400  0.33187000  0.09779200  1
  H  H20  1  0.05562600  0.33187000  0.59779200  1
  H  H21  1  0.55562600  0.66813000  0.90220800  1
  H  H22  1  0.37262700  0.90843500  0.23797100  1
  H  H23  1  0.87262700  0.09156500  0.26202900  1
  Se  Se0  1  0.14036400  0.26765100  0.90365100  1
  Se  Se1  1  0.35963600  0.26765100  0.40365100  1
  Se  Se2  1  0.64036400  0.73234900  0.59634900  1
  Se  Se3  1  0.85963600  0.73234900  0.09634900  1
  O  O0  1  0.61134900  0.16190300  0.84220900  1
  O  O1  1  0.11134900  0.83809700  0.65779100  1
  O  O2  1  0.38865100  0.83809700  0.15779100  1
  O  O3  1  0.88865100  0.16190300  0.34220900  1
  O  O4  1  0.75628500  0.57649500  0.08417800  1
  O  O5  1  0.56238000  0.70929600  0.99708200  1
  O  O6  1  0.06238000  0.29070400  0.50291800  1
  O  O7  1  0.43762000  0.29070400  0.00291800  1
  O  O8  1  0.93762000  0.70929600  0.49708200  1
  O  O9  1  0.74371500  0.57649500  0.58417800  1
  O  O10  1  0.89263700  0.02586700  0.66736400  1
  O  O11  1  0.39263700  0.97413300  0.83263600  1
  O  O12  1  0.10736300  0.97413300  0.33263600  1
  O  O13  1  0.60736300  0.02586700  0.16736400  1
  O  O14  1  0.24371500  0.42350500  0.91582200  1
  O  O15  1  0.43516400  0.40301600  0.26311000  1
  O  O16  1  0.93516400  0.59698400  0.23689000  1
  O  O17  1  0.56483600  0.59698400  0.73689000  1
  O  O18  1  0.06483600  0.40301600  0.76311000  1
  O  O19  1  0.31756000  0.03455700  0.37287000  1
  O  O20  1  0.81756000  0.96544300  0.12713000  1
  O  O21  1  0.68244000  0.96544300  0.62713000  1
  O  O22  1  0.43109500  0.22263500  0.55808000  1
  O  O23  1  0.93109500  0.77736500  0.94192000  1
  O  O24  1  0.56890500  0.77736500  0.44192000  1
  O  O25  1  0.06890500  0.22263500  0.05808000  1
  O  O26  1  0.25628500  0.42350500  0.41582200  1
  O  O27  1  0.18244000  0.03455700  0.87287000  1
loop_
_geom_bond_atom_site_label_1
_geom_bond_atom_site_label_2
_geom_bond_distance
_geom_bond_site_symmetry_2
Ni0 O6 2.040407 1_555
Ni0 O8 2.040407 1_445
Ni0 O1 2.119558 1_545
Ni0 O3 2.119558 1_455
Ni0 O10 2.119704 1_455
Ni0 O12 2.119704 1_545
Ni1 O7 2.040407 1_555
Ni1 O5 2.040407 1_544
Ni1 O0 2.119558 1_554
Ni1 O2 2.119558 1_545
Ni1 O13 2.119704 1_555
Ni1 O11 2.119704 1_544
H0 O7 0.997636 1_556
H0 O14 1.686213 1_555
H1 O13 0.999443 1_565
H1 Rb1 3.135445 1_565
H2 O12 0.999443 1_545
H2 Rb0 3.135445 1_545
H3 O11 0.999443 1_545
H3 Rb3 3.135445 1_545
H4 O10 0.999443 1_565
H4 Rb2 3.135445 1_565
H5 O13 0.996895 1_565
H6 O12 0.996895 1_545
H7 O11 0.996895 1_545
H8 O10 0.996895 1_565
H9 O0 0.996020 1_555
H10 O1 0.996020 1_555
H11 O2 0.996020 1_555
H12 O3 0.996020 1_555
H13 O0 0.993208 1_555
H14 O8 0.997636 1_555
H14 O9 1.686213 1_555
H15 O1 0.993208 1_555
H16 O6 0.997636 1_555
H16 O26 1.686213 1_555
H17 O5 0.997636 1_554
H17 O4 1.686213 1_555
H18 O8 0.994611 1_555
H19 O7 0.994611 1_555
H20 O6 0.994611 1_555
H21 O5 0.994611 1_555
H22 O2 0.993208 1_555
H23 O3 0.993208 1_555
O0 Rb2 3.238592 1_555
O1 Rb3 3.238592 1_555
O2 Rb0 3.238592 1_555
O3 Rb1 3.238592 1_555
O4 Se3 1.677387 1_555
O4 Rb1 2.985375 1_555
O4 Rb2 3.057445 1_554
O9 Se2 1.677387 1_555
O9 Rb2 2.985375 1_555
O9 Rb1 3.057445 1_555
O10 Rb2 3.150158 1_555
O11 Rb3 3.150158 1_555
O12 Rb0 3.150158 1_555
O13 Rb1 3.150158 1_555
O14 Se0 1.677387 1_555
O14 Rb3 2.985375 1_555
O14 Rb0 3.057445 1_556
O15 Se1 1.682028 1_555
O15 Rb1 2.941720 1_555
O16 Se3 1.682028 1_555
O16 Rb0 2.941720 1_655
O17 Se2 1.682028 1_555
O17 Rb3 2.941720 1_555
O18 Se0 1.682028 1_555
O18 Rb2 2.941720 1_455
O19 Se1 1.687171 1_555
O19 Rb3 2.990294 1_545
O20 Se3 1.687171 1_555
O20 Rb2 2.990294 1_564
O21 Se2 1.687171 1_555
O21 Rb1 2.990294 1_565
O22 Se1 1.670629 1_555
O22 Rb3 3.248235 1_555
O22 Rb1 3.341540 1_555
O23 Se3 1.670629 1_556
O23 Rb2 3.248235 1_555
O23 Rb0 3.341540 1_656
O24 Se2 1.670629 1_555
O24 Rb1 3.248235 1_555
O24 Rb3 3.341540 1_555
O25 Se0 1.670629 1_554
O25 Rb0 3.248235 1_555
O25 Rb2 3.341540 1_454
O26 Se1 1.677387 1_555
O26 Rb0 2.985375 1_555
O26 Rb3 3.057445 1_555
O27 Se0 1.687171 1_555
O27 Rb0 2.990294 1_546
