# generated using pymatgen
data_Na5Al3Si3Sn(SO8)3
_symmetry_space_group_name_H-M   'P 1'
_cell_length_a   8.74771571
_cell_length_b   8.75580585
_cell_length_c   21.91523881
_cell_angle_alpha   90.38432274
_cell_angle_beta   90.62987529
_cell_angle_gamma   120.27139744
_symmetry_Int_Tables_number   1
_chemical_formula_structural   Na5Al3Si3Sn(SO8)3
_chemical_formula_sum   'Na15 Al9 Si9 Sn3 S9 O72'
_cell_volume   1449.45080275
_cell_formula_units_Z   3
loop_
 _symmetry_equiv_pos_site_id
 _symmetry_equiv_pos_as_xyz
  1  'x, y, z'
loop_
 _atom_site_type_symbol
 _atom_site_label
 _atom_site_symmetry_multiplicity
 _atom_site_fract_x
 _atom_site_fract_y
 _atom_site_fract_z
 _atom_site_occupancy
  Na  Na0  1  0.64126644  0.00088908  0.25814057  1
  Na  Na1  1  0.00400943  0.62525461  0.24977488  1
  Na  Na2  1  0.62639166  0.63651151  0.74437830  1
  Na  Na3  1  0.36967631  0.01116723  0.75565572  1
  Na  Na4  1  0.66940537  0.96262818  0.58778924  1
  Na  Na5  1  0.97117166  0.67984272  0.92305339  1
  Na  Na6  1  0.68964828  0.02213038  0.90784664  1
  Na  Na7  1  0.96098356  0.30418325  0.40635937  1
  Na  Na8  1  0.71132035  0.68225267  0.42340427  1
  Na  Na9  1  0.00702377  0.97649550  0.50291001  1
  Na  Na10  1  0.01232825  0.98639690  0.00211431  1
  Na  Na11  1  0.64220982  0.32560542  0.83230493  1
  Na  Na12  1  0.65888050  0.32394581  0.33100255  1
  Na  Na13  1  0.31021395  0.63345721  0.16308776  1
  Na  Na14  1  0.32409402  0.63654779  0.66309696  1
  Al  Al0  1  0.99027864  0.99832244  0.35583346  1
  Al  Al1  1  0.00448175  0.01318313  0.85425573  1
  Al  Al2  1  0.98496179  0.99209542  0.65127523  1
  Al  Al3  1  0.00874184  0.00513020  0.14747049  1
  Al  Al4  1  0.65004522  0.33485347  0.69001911  1
  Al  Al5  1  0.69605247  0.34359821  0.18242620  1
  Al  Al6  1  0.33094516  0.68868452  0.01756116  1
  Al  Al7  1  0.34636346  0.67868140  0.51752829  1
  Al  Al8  1  0.31652208  0.65590012  0.31659894  1
  Si  Si0  1  0.00800792  0.28671023  0.25023559  1
  Si  Si1  1  0.27376243  0.27676383  0.74820713  1
  Si  Si2  1  0.72014007  0.01821032  0.74909439  1
  Si  Si3  1  0.66495825  0.62891767  0.58589028  1
  Si  Si4  1  0.97950192  0.64352284  0.08716769  1
  Si  Si5  1  0.62389765  0.67216036  0.91954123  1
  Si  Si6  1  0.32491066  0.96161697  0.91629378  1
  Si  Si7  1  0.61467545  0.94869281  0.41442407  1
  Si  Si8  1  0.05860143  0.68233239  0.41570730  1
  Sn  Sn0  1  0.65996157  0.34413763  0.98544174  1
  Sn  Sn1  1  0.67363659  0.33870153  0.48089808  1
  Sn  Sn2  1  0.34354417  0.66748104  0.81183325  1
  S  S0  1  0.29066784  0.00796341  0.24990293  1
  S  S1  1  0.70693690  0.70351663  0.24867161  1
  S  S2  1  0.99090822  0.70760687  0.74910300  1
  S  S3  1  0.96759944  0.33603997  0.58509793  1
  S  S4  1  0.36872712  0.03928675  0.58438081  1
  S  S5  1  0.66983552  0.03945081  0.08662138  1
  S  S6  1  0.37467245  0.33082090  0.08979465  1
  S  S7  1  0.05304216  0.37719570  0.91980518  1
  S  S8  1  0.32742426  0.37867403  0.41538113  1
  O  O0  1  0.20868468  0.02921750  0.30536905  1
  O  O1  1  0.81736926  0.78075346  0.30599045  1
  O  O2  1  0.96795162  0.16303980  0.31112451  1
  O  O3  1  0.19106945  0.15503246  0.80753894  1
  O  O4  1  0.96475504  0.78278604  0.80613411  1
  O  O5  1  0.82650379  0.03027367  0.81225705  1
  O  O6  1  0.79590337  0.96773491  0.68956096  1
  O  O7  1  0.16635568  0.17535889  0.68700344  1
  O  O8  1  0.01775979  0.81740152  0.69518427  1
  O  O9  1  0.79509168  0.81733080  0.19616557  1
  O  O10  1  0.02296910  0.18123927  0.19248632  1
  O  O11  1  0.17628065  0.97411707  0.19545174  1
  O  O12  1  0.87008135  0.35587287  0.63522264  1
  O  O13  1  0.48726336  0.12883933  0.63789331  1
  O  O14  1  0.64424980  0.50082889  0.64221059  1
  O  O15  1  0.87822065  0.51577203  0.14528318  1
  O  O16  1  0.64531651  0.13114253  0.14025488  1
  O  O17  1  0.49640717  0.34525633  0.14015963  1
  O  O18  1  0.43311872  0.28722658  0.03070953  1
  O  O19  1  0.85576819  0.55796408  0.02427464  1
  O  O20  1  0.69621799  0.14476901  0.03011038  1
  O  O21  1  0.44717448  0.14543072  0.52774112  1
  O  O22  1  0.69423850  0.55081036  0.52023894  1
  O  O23  1  0.85696100  0.29106177  0.52540454  1
  O  O24  1  0.51267186  0.69306339  0.97468974  1
  O  O25  1  0.15934083  0.46636236  0.97477042  1
  O  O26  1  0.28390097  0.82585539  0.97144655  1
  O  O27  1  0.53810661  0.83391377  0.47581452  1
  O  O28  1  0.30524327  0.45826704  0.47148972  1
  O  O29  1  0.17254219  0.68947365  0.47530454  1
  O  O30  1  0.12609732  0.63123593  0.35365854  1
  O  O31  1  0.50047553  0.85085304  0.35235272  1
  O  O32  1  0.35514250  0.48836217  0.36087741  1
  O  O33  1  0.11850578  0.48762430  0.86408517  1
  O  O34  1  0.36778231  0.88506891  0.85319797  1
  O  O35  1  0.51967591  0.62650360  0.85309295  1
  O  O36  1  0.03096214  0.85312526  0.40712575  1
  O  O37  1  0.81743114  0.98038218  0.40893750  1
  O  O38  1  0.16941178  0.20131046  0.40887663  1
  O  O39  1  0.04053943  0.20546444  0.91337374  1
  O  O40  1  0.15228096  0.98043020  0.90800944  1
  O  O41  1  0.81883691  0.85279973  0.91349942  1
  O  O42  1  0.98715067  0.17806143  0.58989996  1
  O  O43  1  0.19074639  0.01251035  0.58925280  1
  O  O44  1  0.84286932  0.82842911  0.59123685  1
  O  O45  1  0.99268363  0.83580094  0.09574399  1
  O  O46  1  0.82694457  0.02107511  0.09362777  1
  O  O47  1  0.19439023  0.17837159  0.09592027  1
  O  O48  1  0.69257249  0.18826671  0.73924822  1
  O  O49  1  0.48110569  0.31615227  0.74371139  1
  O  O50  1  0.83381072  0.52921617  0.74209958  1
  O  O51  1  0.68730622  0.52433835  0.24252047  1
  O  O52  1  0.82440993  0.30722171  0.24369235  1
  O  O53  1  0.47067481  0.16504460  0.24335508  1
  O  O54  1  0.66244989  0.50567668  0.92142669  1
  O  O55  1  0.86800707  0.34671679  0.92480158  1
  O  O56  1  0.51605875  0.14750496  0.92565045  1
  O  O57  1  0.63701116  0.14891553  0.41919818  1
  O  O58  1  0.48882559  0.36160471  0.41803675  1
  O  O59  1  0.85108020  0.50457039  0.41857040  1
  O  O60  1  0.37186854  0.49592556  0.08440584  1
  O  O61  1  0.16843241  0.65119668  0.07695909  1
  O  O62  1  0.50804045  0.86461150  0.08096894  1
  O  O63  1  0.36258960  0.86641397  0.57880861  1
  O  O64  1  0.48841076  0.65108145  0.57717368  1
  O  O65  1  0.13967156  0.49779945  0.57742167  1
  O  O66  1  0.31208317  0.84722119  0.25269016  1
  O  O67  1  0.53094912  0.68748891  0.25385482  1
  O  O68  1  0.18025535  0.49003620  0.25658082  1
  O  O69  1  0.29132674  0.47471407  0.75013666  1
  O  O70  1  0.15258657  0.69191354  0.75246225  1
  O  O71  1  0.51330033  0.83930550  0.74879256  1
loop_
_geom_bond_atom_site_label_1
_geom_bond_atom_site_label_2
_geom_bond_distance
_geom_bond_site_symmetry_2
Na0 O52 2.356124 1_555
Na0 O67 2.407234 1_545
Na0 O31 2.442667 1_545
Na0 O66 2.490137 1_545
Na0 O53 2.560441 1_555
Na0 O2 2.710184 1_555
Na0 O16 2.824389 1_555
Na0 O9 2.903409 1_545
Na1 O68 2.374570 1_555
Na1 O66 2.399583 1_555
Na1 O52 2.412455 1_455
Na1 O51 2.449842 1_455
Na1 O30 2.492983 1_555
Na1 O15 2.495063 1_455
Na1 O1 2.880968 1_455
Na1 O11 2.909645 1_555
Na2 O49 2.426601 1_555
Na2 O50 2.428415 1_555
Na2 O71 2.431399 1_555
Na2 O69 2.537346 1_555
Na2 O35 2.554351 1_555
Na2 O14 2.570631 1_555
Na2 O6 2.793386 1_555
Na2 O4 2.880929 1_555
Na3 O49 2.353792 1_555
Na3 O71 2.402645 1_545
Na3 O34 2.408919 1_545
Na3 O70 2.463253 1_545
Na3 O48 2.475106 1_555
Na3 O3 2.706425 1_555
Na3 O13 2.793858 1_555
Na3 O8 2.953996 1_545
Na4 O44 2.342050 1_555
Na4 O64 2.372992 1_555
Na4 O63 2.378770 1_555
Na4 O42 2.448698 1_565
Na4 O6 2.468902 1_555
Na4 O27 2.684605 1_555
Na4 O23 2.859363 1_565
Na4 O13 2.866555 1_565
Na5 O40 2.316201 1_655
Na5 O54 2.337768 1_555
Na5 O19 2.464466 1_556
Na5 O41 2.479039 1_555
Na5 O26 2.575854 1_655
Na5 O55 2.583013 1_555
Na5 O4 2.731276 1_555
Na5 O33 2.891036 1_655
Na6 O41 2.275808 1_545
Na6 O56 2.313239 1_555
Na6 O5 2.407876 1_555
Na6 O55 2.480322 1_555
Na6 O39 2.652328 1_655
Na6 O34 2.702230 1_545
Na6 O20 2.869066 1_556
Na6 O24 2.907501 1_545
Na7 O59 2.402992 1_555
Na7 O38 2.406839 1_655
Na7 O2 2.435382 1_555
Na7 O37 2.456100 1_545
Na7 O57 2.469275 1_555
Na7 O30 2.744344 1_655
Na7 O23 2.756523 1_555
Na8 O37 2.313187 1_555
Na8 O22 2.390974 1_555
Na8 O59 2.417547 1_555
Na8 O36 2.448567 1_655
Na8 O58 2.483071 1_555
Na8 O27 2.724864 1_555
Na8 O1 2.738823 1_555
Na9 O43 2.382660 1_565
Na9 O44 2.389059 1_455
Na9 O36 2.413372 1_555
Na9 O37 2.641172 1_455
Na9 O42 2.655344 1_465
Na9 O38 2.727460 1_565
Na10 O45 2.407108 1_455
Na10 O40 2.423493 1_554
Na10 O41 2.430179 1_454
Na10 O47 2.602073 1_565
Na10 O39 2.665624 1_564
Na10 O46 2.702594 1_465
Na11 O49 2.362763 1_555
Na11 O54 2.449810 1_555
Na11 O56 2.488346 1_555
Na11 O48 2.513978 1_555
Na11 O50 2.646340 1_555
Na11 O55 2.753823 1_555
Na12 O57 2.423501 1_555
Na12 O53 2.433320 1_555
Na12 O52 2.459732 1_555
Na12 O59 2.493664 1_555
Na12 O58 2.551119 1_555
Na12 O51 2.552832 1_555
Na13 O61 2.296048 1_555
Na13 O60 2.315532 1_555
Na13 O68 2.390370 1_555
Na13 O67 2.625087 1_555
Na13 O62 2.629824 1_555
Na13 O66 2.697874 1_555
Na14 O69 2.316752 1_555
Na14 O64 2.346574 1_555
Na14 O65 2.351752 1_555
Na14 O71 2.518469 1_555
Na14 O63 2.637536 1_555
Na14 O70 2.665820 1_555
Al0 O2 1.837647 1_565
Al0 O37 1.861980 1_555
Al0 O36 1.863598 1_655
Al0 O38 2.022381 1_665
Al0 O1 2.034880 1_555
Al0 O0 2.115633 1_665
Al1 O3 1.806893 1_555
Al1 O40 1.867204 1_545
Al1 O5 1.870485 1_455
Al1 O39 2.009684 1_555
Al1 O41 2.016580 1_445
Al1 O4 2.135204 1_445
Al2 O7 1.759131 1_665
Al2 O6 1.778173 1_555
Al2 O44 1.863523 1_555
Al2 O8 1.950397 1_655
Al2 O42 2.111718 1_565
Al2 O43 2.202871 1_665
Al3 O10 1.774779 1_555
Al3 O45 1.807457 1_445
Al3 O11 1.923159 1_545
Al3 O47 1.947900 1_555
Al3 O46 2.031186 1_455
Al3 O9 2.074774 1_445
Al4 O14 1.818182 1_555
Al4 O49 1.841801 1_555
Al4 O48 1.854947 1_555
Al4 O13 1.983275 1_555
Al4 O50 1.989589 1_555
Al4 O12 2.208511 1_555
Al5 O15 1.760003 1_555
Al5 O52 1.870320 1_555
Al5 O16 1.909733 1_555
Al5 O17 1.974446 1_555
Al5 O51 2.083508 1_555
Al5 O53 2.256644 1_555
Al6 O26 1.771623 1_554
Al6 O24 1.839347 1_554
Al6 O61 1.843685 1_555
Al6 O25 1.980054 1_554
Al6 O62 2.054699 1_555
Al6 O60 2.398636 1_555
Al7 O27 1.802329 1_555
Al7 O29 1.814477 1_555
Al7 O64 1.892702 1_555
Al7 O28 2.034184 1_555
Al7 O63 2.063154 1_555
Al7 O65 2.166417 1_555
Al8 O30 1.774965 1_555
Al8 O31 1.817184 1_555
Al8 O68 1.858665 1_555
Al8 O32 1.928518 1_555
Al8 O66 2.205714 1_555
Al8 O67 2.241529 1_555
O0 S0 1.475539 1_555
O1 S1 1.507235 1_555
O2 Si0 1.650167 1_655
O3 Si1 1.616158 1_555
O4 S2 1.481501 1_555
O5 Si2 1.632051 1_555
O6 Si2 1.625843 1_565
O7 Si1 1.607931 1_555
O8 S2 1.472857 1_455
O9 S1 1.473752 1_555
O10 Si0 1.606699 1_555
O11 S0 1.477533 1_565
O12 S3 1.460121 1_555
O13 S4 1.485448 1_555
O14 Si3 1.622563 1_555
O15 Si4 1.644084 1_555
O16 S5 1.496189 1_555
O17 S6 1.484878 1_555
O18 S6 1.512762 1_555
O18 Sn0 2.055031 1_554
O19 Si4 1.663842 1_555
O19 Sn0 1.968962 1_554
O20 S5 1.498139 1_555
O20 Sn0 2.163423 1_554
O21 S4 1.505531 1_555
O21 Sn1 2.128423 1_555
O22 Si3 1.665793 1_555
O22 Sn1 1.965349 1_555
O23 S3 1.544068 1_555
O23 Sn1 2.083884 1_555
O24 Si5 1.625820 1_555
O25 S7 1.468343 1_555
O26 Si6 1.612919 1_555
O27 Si7 1.621107 1_555
O28 S8 1.471529 1_555
O29 Si8 1.615759 1_555
O30 Si8 1.635137 1_555
O31 Si7 1.635228 1_555
O32 S8 1.481517 1_555
O33 S7 1.492288 1_555
O33 Sn2 2.148207 1_555
O34 Si6 1.659602 1_555
O34 Sn2 2.015367 1_555
O35 Si5 1.645347 1_555
O35 Sn2 1.962475 1_555
O36 Si8 1.642388 1_555
O37 Si7 1.657182 1_555
O38 S8 1.473483 1_555
O39 S7 1.457324 1_555
O40 Si6 1.608014 1_555
O41 Si5 1.647916 1_555
O42 S3 1.481120 1_555
O43 S4 1.458205 1_555
O44 Si3 1.655209 1_555
O45 Si4 1.637840 1_555
O46 S5 1.468644 1_555
O47 S6 1.473634 1_555
O48 Si2 1.639195 1_555
O49 Si1 1.670980 1_555
O50 S2 1.476434 1_555
O51 S1 1.494654 1_555
O52 Si0 1.708315 1_655
O53 S0 1.488591 1_555
O54 Si5 1.654224 1_555
O54 Sn0 1.991333 1_555
O55 S7 1.507307 1_655
O55 Sn0 2.256294 1_555
O56 Si6 1.652646 1_545
O56 Sn0 2.003553 1_555
O57 Si7 1.665614 1_545
O57 Sn1 2.028774 1_555
O58 S8 1.493392 1_555
O58 Sn1 2.198473 1_555
O59 Si8 1.696203 1_655
O59 Sn1 2.045683 1_555
O60 S6 1.463678 1_555
O61 Si4 1.637801 1_455
O62 S5 1.473507 1_565
O63 S4 1.491424 1_565
O64 Si3 1.659957 1_555
O65 S3 1.469497 1_455
O66 S0 1.512085 1_565
O67 S1 1.479484 1_555
O68 Si0 1.657323 1_555
O69 Si1 1.661269 1_555
O69 Sn2 2.015961 1_555
O70 S2 1.489419 1_455
O70 Sn2 2.201206 1_555
O71 Si2 1.694030 1_565
O71 Sn2 2.048864 1_555
