# generated using pymatgen
data_HfCo2
_symmetry_space_group_name_H-M   'P 1'
_cell_length_a   4.86584039
_cell_length_b   4.86584852
_cell_length_c   4.86584595
_cell_angle_alpha   60.00011807
_cell_angle_beta   60.00001567
_cell_angle_gamma   60.00005521
_symmetry_Int_Tables_number   1
_chemical_formula_structural   HfCo2
_chemical_formula_sum   'Hf2 Co4'
_cell_volume   81.46300404
_cell_formula_units_Z   2
loop_
 _symmetry_equiv_pos_site_id
 _symmetry_equiv_pos_as_xyz
  1  'x, y, z'
loop_
 _atom_site_type_symbol
 _atom_site_label
 _atom_site_symmetry_multiplicity
 _atom_site_fract_x
 _atom_site_fract_y
 _atom_site_fract_z
 _atom_site_occupancy
  Hf  Hf0  1  0.87500100  0.87499900  0.87499900  1
  Hf  Hf1  1  0.12499900  0.12500100  0.12500100  1
  Co  Co0  1  0.50000000  0.50000000  0.50000000  1
  Co  Co1  1  0.50000000  0.50000000  -0.00000000  1
  Co  Co2  1  0.00000000  0.50000000  0.50000000  1
  Co  Co3  1  0.50000000  -0.00000000  0.50000000  1
loop_
_geom_bond_atom_site_label_1
_geom_bond_atom_site_label_2
_geom_bond_distance
_geom_bond_site_symmetry_2
Hf0 Hf1 2.979705 1_665
Hf0 Hf1 2.979707 1_656
Hf0 Hf1 2.979715 1_566
Hf0 Hf1 2.979716 1_666
Co0 Co2 2.432920 1_555
Co0 Co2 2.432920 1_655
Co0 Co1 2.432923 1_556
Co0 Co1 2.432923 1_555
Co0 Co3 2.432924 1_565
Co0 Co3 2.432924 1_555
Co0 Hf1 2.852848 1_655
Co0 Hf0 2.852848 1_455
Co0 Hf0 2.852860 1_554
Co0 Hf1 2.852860 1_556
Co0 Hf0 2.852862 1_545
Co0 Hf1 2.852862 1_565
Co1 Co2 2.432922 1_654
Co1 Co2 2.432922 1_555
Co1 Co3 2.432928 1_555
Co1 Co3 2.432928 1_564
Co1 Hf0 2.852852 1_554
Co1 Hf1 2.852852 1_555
Co1 Hf1 2.852852 1_655
Co1 Hf0 2.852852 1_454
Co1 Hf1 2.852863 1_565
Co1 Hf0 2.852863 1_544
Co2 Co3 2.432924 1_465
Co2 Co3 2.432924 1_555
Co2 Hf0 2.852848 1_455
Co2 Hf1 2.852848 1_555
Co2 Hf1 2.852860 1_556
Co2 Hf0 2.852860 1_454
Co2 Hf1 2.852861 1_565
Co2 Hf0 2.852861 1_445
Co3 Hf1 2.852851 1_655
Co3 Hf0 2.852851 1_445
Co3 Hf0 2.852852 1_545
Co3 Hf1 2.852852 1_555
Co3 Hf1 2.852861 1_556
Co3 Hf0 2.852861 1_544
