# generated using pymatgen
data_Yb2AlB6
_symmetry_space_group_name_H-M   'P 1'
_cell_length_a   3.57951400
_cell_length_b   9.34643400
_cell_length_c   11.52510200
_cell_angle_alpha   90.00000000
_cell_angle_beta   90.00000000
_cell_angle_gamma   90.00000000
_symmetry_Int_Tables_number   1
_chemical_formula_structural   Yb2AlB6
_chemical_formula_sum   'Yb8 Al4 B24'
_cell_volume   385.58025532
_cell_formula_units_Z   4
loop_
 _symmetry_equiv_pos_site_id
 _symmetry_equiv_pos_as_xyz
  1  'x, y, z'
loop_
 _atom_site_type_symbol
 _atom_site_label
 _atom_site_symmetry_multiplicity
 _atom_site_fract_x
 _atom_site_fract_y
 _atom_site_fract_z
 _atom_site_occupancy
  Yb  Yb0  1  0.00000000  0.04868400  0.61445400  1
  Yb  Yb1  1  0.00000000  0.95131600  0.38554600  1
  Yb  Yb2  1  0.00000000  0.54868400  0.88554600  1
  Yb  Yb3  1  0.00000000  0.45131600  0.11445400  1
  Yb  Yb4  1  0.00000000  0.66542700  0.59145400  1
  Yb  Yb5  1  0.00000000  0.33457300  0.40854600  1
  Yb  Yb6  1  0.00000000  0.16542700  0.90854600  1
  Yb  Yb7  1  0.00000000  0.83457300  0.09145400  1
  Al  Al0  1  0.00000000  0.35693600  0.67920200  1
  Al  Al1  1  0.00000000  0.64306400  0.32079800  1
  Al  Al2  1  0.00000000  0.85693600  0.82079800  1
  Al  Al3  1  0.00000000  0.14306400  0.17920200  1
  B  B0  1  0.50000000  0.36279900  0.96216400  1
  B  B1  1  0.50000000  0.63720100  0.03783600  1
  B  B2  1  0.50000000  0.86279900  0.53783600  1
  B  B3  1  0.50000000  0.13720100  0.46216400  1
  B  B4  1  0.50000000  0.01474600  0.78263800  1
  B  B5  1  0.50000000  0.98525400  0.21736200  1
  B  B6  1  0.50000000  0.51474600  0.71736200  1
  B  B7  1  0.50000000  0.48525400  0.28263800  1
  B  B8  1  0.50000000  0.35909000  0.81469700  1
  B  B9  1  0.50000000  0.64091000  0.18530300  1
  B  B10  1  0.50000000  0.85909000  0.68530300  1
  B  B11  1  0.50000000  0.14091000  0.31469700  1
  B  B12  1  0.50000000  0.05134200  0.06635500  1
  B  B13  1  0.50000000  0.94865800  0.93364500  1
  B  B14  1  0.50000000  0.55134200  0.43364500  1
  B  B15  1  0.50000000  0.44865800  0.56635500  1
  B  B16  1  0.50000000  0.24723500  0.07645500  1
  B  B17  1  0.50000000  0.75276500  0.92354500  1
  B  B18  1  0.50000000  0.74723500  0.42354500  1
  B  B19  1  0.50000000  0.25276500  0.57645500  1
  B  B20  1  0.50000000  0.30116100  0.23070100  1
  B  B21  1  0.50000000  0.69883900  0.76929900  1
  B  B22  1  0.50000000  0.80116100  0.26929900  1
  B  B23  1  0.50000000  0.19883900  0.73070100  1
loop_
_geom_bond_atom_site_label_1
_geom_bond_atom_site_label_2
_geom_bond_distance
_geom_bond_site_symmetry_2
Al0 B19 2.356573 1_555
Al0 B19 2.356573 1_455
Al0 B6 2.360543 1_455
Al0 B6 2.360543 1_555
Al0 B15 2.372686 1_455
Al0 B15 2.372686 1_555
Al0 B8 2.375334 1_555
Al0 B8 2.375334 1_455
Al0 B23 2.395608 1_555
Al0 B23 2.395608 1_455
Al1 B18 2.356573 1_455
Al1 B18 2.356573 1_555
Al1 B7 2.360543 1_455
Al1 B7 2.360543 1_555
Al1 B14 2.372686 1_455
Al1 B14 2.372686 1_555
Al1 B9 2.375334 1_455
Al1 B9 2.375334 1_555
Al1 B22 2.395608 1_455
Al1 B22 2.395608 1_555
Al2 B17 2.356573 1_455
Al2 B17 2.356573 1_555
Al2 B4 2.360543 1_465
Al2 B4 2.360543 1_565
Al2 B13 2.372686 1_455
Al2 B13 2.372686 1_555
Al2 B10 2.375334 1_555
Al2 B10 2.375334 1_455
Al2 B21 2.395608 1_455
Al2 B21 2.395608 1_555
Al3 B16 2.356573 1_455
Al3 B16 2.356573 1_555
Al3 B5 2.360543 1_445
Al3 B5 2.360543 1_545
Al3 B12 2.372686 1_555
Al3 B12 2.372686 1_455
Al3 B11 2.375334 1_455
Al3 B11 2.375334 1_555
Al3 B20 2.395608 1_455
Al3 B20 2.395608 1_555
B0 B8 1.699926 1_555
B0 B16 1.703437 1_556
B0 Yb3 2.639747 1_556
B0 Yb3 2.639747 1_656
B0 Yb6 2.643502 1_555
B0 Yb6 2.643502 1_655
B0 Yb2 2.646016 1_555
B0 Yb2 2.646016 1_655
B1 B9 1.699926 1_555
B1 B17 1.703437 1_554
B1 Yb2 2.639747 1_554
B1 Yb2 2.639747 1_654
B1 Yb7 2.643502 1_555
B1 Yb7 2.643502 1_655
B1 Yb3 2.646016 1_655
B1 Yb3 2.646016 1_555
B2 Yb1 2.639747 1_655
B2 Yb1 2.639747 1_555
B2 Yb4 2.643502 1_655
B2 Yb4 2.643502 1_555
B2 Yb0 2.646016 1_665
B2 Yb0 2.646016 1_565
B3 Yb0 2.639747 1_655
B3 Yb0 2.639747 1_555
B3 Yb5 2.643502 1_555
B3 Yb5 2.643502 1_655
B3 Yb1 2.646016 1_645
B3 Yb1 2.646016 1_545
B4 Yb0 2.657254 1_555
B4 Yb0 2.657254 1_655
B4 Yb6 2.700430 1_655
B4 Yb6 2.700430 1_555
B5 Yb1 2.657254 1_655
B5 Yb1 2.657254 1_555
B5 Yb7 2.700430 1_555
B5 Yb7 2.700430 1_655
B6 B8 1.837104 1_555
B6 Yb2 2.657254 1_655
B6 Yb2 2.657254 1_555
B6 Yb4 2.700430 1_555
B6 Yb4 2.700430 1_655
B7 B9 1.837104 1_555
B7 Yb3 2.657254 1_655
B7 Yb3 2.657254 1_555
B7 Yb5 2.700430 1_555
B7 Yb5 2.700430 1_655
B8 Yb2 2.647651 1_555
B8 Yb2 2.647651 1_655
B8 Yb6 2.765762 1_555
B8 Yb6 2.765762 1_655
B9 Yb3 2.647651 1_555
B9 Yb3 2.647651 1_655
B9 Yb7 2.765762 1_655
B9 Yb7 2.765762 1_555
B10 B2 1.699926 1_555
B10 B21 1.783389 1_555
B10 B4 1.837104 1_565
B10 Yb0 2.647651 1_665
B10 Yb0 2.647651 1_565
B10 Yb4 2.765762 1_555
B10 Yb4 2.765762 1_655
B11 B3 1.699926 1_555
B11 B20 1.783389 1_555
B11 B5 1.837104 1_545
B11 Yb1 2.647651 1_545
B11 Yb1 2.647651 1_645
B11 Yb5 2.765762 1_555
B11 Yb5 2.765762 1_655
B12 B13 1.805669 1_544
B12 B16 1.834598 1_555
B12 B5 1.846735 1_545
B12 Yb7 2.718759 1_545
B12 Yb7 2.718759 1_645
B12 Yb6 2.765521 1_654
B12 Yb6 2.765521 1_554
B13 B17 1.834598 1_555
B13 B4 1.846735 1_565
B13 Yb6 2.718759 1_565
B13 Yb6 2.718759 1_665
B13 Yb7 2.765521 1_556
B13 Yb7 2.765521 1_656
B14 B15 1.805669 1_555
B14 B18 1.834598 1_555
B14 B7 1.846735 1_555
B14 Yb5 2.718759 1_555
B14 Yb5 2.718759 1_655
B14 Yb4 2.765521 1_655
B14 Yb4 2.765521 1_555
B15 B19 1.834598 1_555
B15 B6 1.846735 1_555
B15 Yb4 2.718759 1_655
B15 Yb4 2.718759 1_555
B15 Yb5 2.765521 1_555
B15 Yb5 2.765521 1_655
B16 B20 1.847770 1_555
B16 Yb3 2.652039 1_555
B16 Yb3 2.652039 1_655
B16 Yb6 2.744584 1_554
B16 Yb6 2.744584 1_654
B17 B21 1.847770 1_555
B17 Yb2 2.652039 1_655
B17 Yb2 2.652039 1_555
B17 Yb7 2.744584 1_656
B17 Yb7 2.744584 1_556
B18 B2 1.703437 1_555
B18 B22 1.847770 1_555
B18 Yb1 2.652039 1_655
B18 Yb1 2.652039 1_555
B18 Yb4 2.744584 1_555
B18 Yb4 2.744584 1_655
B19 B3 1.703437 1_555
B19 B23 1.847770 1_555
B19 Yb0 2.652039 1_555
B19 Yb0 2.652039 1_655
B19 Yb5 2.744584 1_655
B19 Yb5 2.744584 1_555
B20 B7 1.821759 1_555
B20 Yb3 2.639650 1_555
B20 Yb3 2.639650 1_655
B20 Yb5 2.738968 1_655
B20 Yb5 2.738968 1_555
B21 B6 1.821759 1_555
B21 Yb2 2.639650 1_655
B21 Yb2 2.639650 1_555
B21 Yb4 2.738968 1_555
B21 Yb4 2.738968 1_655
B22 B9 1.783389 1_555
B22 B5 1.821759 1_555
B22 Yb1 2.639650 1_555
B22 Yb1 2.639650 1_655
B22 Yb7 2.738968 1_555
B22 Yb7 2.738968 1_655
B23 B8 1.783389 1_555
B23 B4 1.821759 1_555
B23 Yb0 2.639650 1_655
B23 Yb0 2.639650 1_555
B23 Yb6 2.738968 1_655
B23 Yb6 2.738968 1_555
