# generated using pymatgen
data_Co23O32
_symmetry_space_group_name_H-M   'P 1'
_cell_length_a   8.02792943
_cell_length_b   8.02771144
_cell_length_c   9.82017745
_cell_angle_alpha   114.12470812
_cell_angle_beta   114.12572431
_cell_angle_gamma   90.00206916
_symmetry_Int_Tables_number   1
_chemical_formula_structural   Co23O32
_chemical_formula_sum   'Co23 O32'
_cell_volume   516.42515892
_cell_formula_units_Z   1
loop_
 _symmetry_equiv_pos_site_id
 _symmetry_equiv_pos_as_xyz
  1  'x, y, z'
loop_
 _atom_site_type_symbol
 _atom_site_label
 _atom_site_symmetry_multiplicity
 _atom_site_fract_x
 _atom_site_fract_y
 _atom_site_fract_z
 _atom_site_occupancy
  Co  Co0  1  0.37751483  0.62454342  0.74959583  1
  Co  Co1  1  0.24945894  0.24908807  0.49995310  1
  Co  Co2  1  0.31286391  0.31254285  0.87499108  1
  Co  Co3  1  0.87334731  0.12507118  0.24796684  1
  Co  Co4  1  0.00131120  0.00097539  0.49997429  1
  Co  Co5  1  0.87547865  0.12252282  0.74958778  1
  Co  Co6  1  0.56287944  0.06248023  0.37496760  1
  Co  Co7  1  0.24827860  0.74989955  0.00029738  1
  Co  Co8  1  0.75238503  0.75200085  0.50197834  1
  Co  Co9  1  0.37632118  0.62407436  0.24995964  1
  Co  Co10  1  0.12534846  0.87300219  0.24790608  1
  Co  Co11  1  0.93630469  0.44299417  0.62889527  1
  Co  Co12  1  0.50038272  0.50000425  0.50193502  1
  Co  Co13  1  0.00089246  0.50246921  0.00034423  1
  Co  Co14  1  0.06292035  0.56255589  0.37496891  1
  Co  Co15  1  0.62488861  0.37713699  0.74959653  1
  Co  Co16  1  0.75023708  0.24793523  0.00030091  1
  Co  Co17  1  0.62440329  0.37597038  0.24993454  1
  Co  Co18  1  0.44327359  0.93598456  0.62886118  1
  Co  Co19  1  0.50280792  0.00056160  0.00034460  1
  Co  Co20  1  0.12290399  0.87514435  0.74956814  1
  Co  Co21  1  0.68940929  0.68909689  0.12106611  1
  Co  Co22  1  0.18231733  0.18199126  0.12101777  1
  O  O0  1  0.26800535  0.49236237  0.51164570  1
  O  O1  1  0.11851786  0.11819843  0.26270482  1
  O  O2  1  0.00722928  0.23374651  0.49049553  1
  O  O3  1  0.89491744  0.89459434  0.26272967  1
  O  O4  1  0.63120159  0.13269730  0.23825757  1
  O  O5  1  0.48267817  0.75682002  0.98697630  1
  O  O6  1  0.76975072  0.99410256  0.51166653  1
  O  O7  1  0.25507223  0.98029329  0.98694382  1
  O  O8  1  0.14312839  0.64472194  0.76289572  1
  O  O9  1  0.61856658  0.61822613  0.25949221  1
  O  O10  1  0.35778598  0.85565909  0.23823312  1
  O  O11  1  0.02524908  0.74173153  0.01654136  1
  O  O12  1  0.24454058  0.51843352  0.01254309  1
  O  O13  1  0.50716816  0.73045118  0.48720828  1
  O  O14  1  0.39164986  0.39131145  0.25941471  1
  O  O15  1  0.13305757  0.63089511  0.23824496  1
  O  O16  1  0.86863778  0.37027468  0.76295047  1
  O  O17  1  0.60048002  0.60014248  0.73332051  1
  O  O18  1  0.98061324  0.25473843  0.98693803  1
  O  O19  1  0.49271517  0.26758293  0.51163524  1
  O  O20  1  0.75714021  0.48235756  0.98698734  1
  O  O21  1  0.64505656  0.14275027  0.76289928  1
  O  O22  1  0.38124787  0.38087234  0.73739799  1
  O  O23  1  0.85600699  0.35748922  0.23821616  1
  O  O24  1  0.74207443  0.02495292  0.01660329  1
  O  O25  1  0.23403575  0.00681247  0.49042211  1
  O  O26  1  0.51876818  0.24417124  0.01248465  1
  O  O27  1  0.37063713  0.86830167  0.76294624  1
  O  O28  1  0.10697125  0.10660490  0.73744077  1
  O  O29  1  0.99450587  0.76941052  0.51164589  1
  O  O30  1  0.88366100  0.88329143  0.73337098  1
  O  O31  1  0.73079281  0.50678048  0.48717049  1
loop_
_geom_bond_atom_site_label_1
_geom_bond_atom_site_label_2
_geom_bond_distance
_geom_bond_site_symmetry_2
Co0 O17 1.864438 1_555
Co0 O5 1.908421 1_555
Co0 O27 1.909345 1_555
Co0 O0 1.911225 1_555
Co0 O22 1.911297 1_555
Co0 O8 1.941002 1_555
Co1 O1 1.906257 1_555
Co1 O22 1.908490 1_555
Co1 O2 1.910043 1_555
Co1 O25 1.910105 1_555
Co1 O19 1.910947 1_555
Co1 O0 1.911023 1_555
Co2 O12 1.907355 1_556
Co2 O26 1.907363 1_556
Co2 O28 1.907595 1_555
Co2 O22 1.907933 1_555
Co3 O24 1.862404 1_555
Co3 O23 1.909153 1_555
Co3 O4 1.909178 1_555
Co3 O1 1.916120 1_655
Co3 O3 1.916511 1_545
Co3 O2 1.948718 1_655
Co4 O3 1.906184 1_445
Co4 O28 1.908687 1_555
Co4 O25 1.910073 1_555
Co4 O2 1.910092 1_555
Co4 O29 1.910771 1_445
Co4 O6 1.910912 1_445
Co5 O30 1.864530 1_545
Co5 O18 1.908165 1_555
Co5 O21 1.909347 1_555
Co5 O6 1.911005 1_545
Co5 O28 1.911285 1_655
Co5 O16 1.941246 1_555
Co6 O10 1.908030 1_545
Co6 O19 1.908185 1_555
Co6 O6 1.908240 1_545
Co6 O4 1.908261 1_555
Co7 O11 1.864815 1_555
Co7 O8 1.908573 1_554
Co7 O7 1.909201 1_554
Co7 O10 1.911110 1_555
Co7 O12 1.911455 1_555
Co7 O5 1.941217 1_554
Co8 O30 1.862645 1_555
Co8 O6 1.908862 1_555
Co8 O29 1.909165 1_555
Co8 O31 1.916190 1_555
Co8 O13 1.916333 1_555
Co8 O9 1.948335 1_555
Co9 O13 1.906215 1_555
Co9 O12 1.908270 1_555
Co9 O9 1.909899 1_555
Co9 O14 1.909910 1_555
Co9 O15 1.910906 1_555
Co9 O10 1.911192 1_555
Co10 O11 1.862424 1_555
Co10 O15 1.909019 1_555
Co10 O10 1.909042 1_555
Co10 O1 1.916057 1_565
Co10 O3 1.916466 1_455
Co10 O25 1.948583 1_565
Co11 O16 1.892539 1_555
Co11 O8 1.892788 1_655
Co11 O31 1.904391 1_555
Co11 O2 1.938934 1_655
Co12 O17 1.862578 1_555
Co12 O0 1.908712 1_555
Co12 O19 1.908976 1_555
Co12 O31 1.916014 1_555
Co12 O13 1.916083 1_555
Co12 O14 1.948606 1_555
Co13 O11 1.864817 1_555
Co13 O16 1.908498 1_454
Co13 O20 1.909262 1_454
Co13 O15 1.910836 1_555
Co13 O12 1.911165 1_555
Co13 O18 1.940939 1_454
Co14 O15 1.908096 1_555
Co14 O29 1.908239 1_455
Co14 O0 1.908275 1_555
Co14 O23 1.908337 1_455
Co15 O17 1.864717 1_555
Co15 O20 1.908465 1_555
Co15 O16 1.909304 1_555
Co15 O22 1.911103 1_555
Co15 O19 1.911295 1_555
Co15 O21 1.940958 1_555
Co16 O24 1.864667 1_555
Co16 O21 1.908555 1_554
Co16 O18 1.909161 1_554
Co16 O23 1.910920 1_555
Co16 O26 1.911255 1_555
Co16 O20 1.941303 1_554
Co17 O31 1.906094 1_555
Co17 O26 1.908549 1_555
Co17 O9 1.909839 1_555
Co17 O14 1.909995 1_555
Co17 O4 1.911050 1_555
Co17 O23 1.911339 1_555
Co18 O27 1.892494 1_555
Co18 O21 1.892760 1_565
Co18 O13 1.904647 1_555
Co18 O25 1.938611 1_565
Co19 O24 1.864690 1_555
Co19 O27 1.908524 1_544
Co19 O5 1.909091 1_544
Co19 O4 1.910905 1_555
Co19 O26 1.911026 1_555
Co19 O7 1.941045 1_544
Co20 O30 1.864714 1_455
Co20 O7 1.908339 1_555
Co20 O8 1.909364 1_555
Co20 O28 1.910897 1_565
Co20 O29 1.911002 1_455
Co20 O27 1.941097 1_555
Co21 O5 1.892778 1_554
Co21 O20 1.892810 1_554
Co21 O3 1.904249 1_555
Co21 O9 1.938861 1_555
Co22 O7 1.892726 1_544
Co22 O18 1.892735 1_454
Co22 O1 1.904094 1_555
Co22 O14 1.939250 1_555
