# generated using pymatgen
data_Na3ZnInP2SO12
_symmetry_space_group_name_H-M   'P 1'
_cell_length_a   9.05270128
_cell_length_b   9.05662660
_cell_length_c   22.38089050
_cell_angle_alpha   89.38469597
_cell_angle_beta   90.00000000
_cell_angle_gamma   119.98566365
_symmetry_Int_Tables_number   1
_chemical_formula_structural   Na3ZnInP2SO12
_chemical_formula_sum   'Na18 Zn6 In6 P12 S6 O72'
_cell_volume   1589.21254561
_cell_formula_units_Z   6
loop_
 _symmetry_equiv_pos_site_id
 _symmetry_equiv_pos_as_xyz
  1  'x, y, z'
loop_
 _atom_site_type_symbol
 _atom_site_label
 _atom_site_symmetry_multiplicity
 _atom_site_fract_x
 _atom_site_fract_y
 _atom_site_fract_z
 _atom_site_occupancy
  Na  Na0  1  0.35751573  0.35334453  0.24470648  1
  Na  Na1  1  -0.00017822  0.63051421  0.24443589  1
  Na  Na2  1  0.63069242  0.63051421  0.74443589  1
  Na  Na3  1  0.99582880  0.35334453  0.74470648  1
  Na  Na4  1  0.02418273  0.68667753  0.57803948  1
  Na  Na5  1  0.66648878  0.96384721  0.57776889  1
  Na  Na6  1  0.29735942  0.96384721  0.07776889  1
  Na  Na7  1  0.66249580  0.68667753  0.07803948  1
  Na  Na8  1  0.69084873  0.02001153  0.91137348  1
  Na  Na9  1  0.33315478  0.29718121  0.91110289  1
  Na  Na10  1  0.96402542  0.29718121  0.41110289  1
  Na  Na11  1  0.32916180  0.02001153  0.41137348  1
  Na  Na12  1  0.97771970  0.98317886  0.49453008  1
  Na  Na13  1  0.00545917  0.98317886  0.99453008  1
  Na  Na14  1  0.64438670  0.31651186  0.82786308  1
  Na  Na15  1  0.67212617  0.31651186  0.32786308  1
  Na  Na16  1  0.31105270  0.64984586  0.16119708  1
  Na  Na17  1  0.33879217  0.64984586  0.66119708  1
  Zn  Zn0  1  0.98896873  0.99308173  0.34801799  1
  Zn  Zn1  1  0.00411300  0.99308173  0.84801799  1
  Zn  Zn2  1  0.65563573  0.32641473  0.68135099  1
  Zn  Zn3  1  0.67078000  0.32641473  0.18135099  1
  Zn  Zn4  1  0.32230173  0.65974873  0.01468499  1
  Zn  Zn5  1  0.33744600  0.65974873  0.51468499  1
  In  In0  1  0.00468478  0.01107353  0.65263057  1
  In  In1  1  0.00638874  0.01107353  0.15263057  1
  In  In2  1  0.67135178  0.34440653  0.98596357  1
  In  In3  1  0.67305574  0.34440653  0.48596357  1
  In  In4  1  0.33801778  0.67774053  0.31929757  1
  In  In5  1  0.33972174  0.67774053  0.81929757  1
  P  P0  1  0.30274272  0.00390845  0.25120722  1
  P  P1  1  0.00048202  0.30115735  0.25487165  1
  P  P2  1  0.30067533  0.30115735  0.75487165  1
  P  P3  1  0.70116573  0.00390845  0.75120722  1
  P  P4  1  0.96940972  0.33724145  0.58454022  1
  P  P5  1  0.66714902  0.63449035  0.58820465  1
  P  P6  1  0.96734233  0.63449035  0.08820465  1
  P  P7  1  0.36783273  0.33724145  0.08454022  1
  P  P8  1  0.63607572  0.67057545  0.91787422  1
  P  P9  1  0.33381502  0.96782435  0.92153865  1
  P  P10  1  0.63400833  0.96782435  0.42153865  1
  P  P11  1  0.03449873  0.67057545  0.41787422  1
  S  S0  1  0.69945641  0.70060950  0.24974537  1
  S  S1  1  0.00115309  0.70060950  0.74974537  1
  S  S2  1  0.36612341  0.03394250  0.58307837  1
  S  S3  1  0.66782009  0.03394250  0.08307837  1
  S  S4  1  0.03278941  0.36727650  0.91641237  1
  S  S5  1  0.33448609  0.36727650  0.41641237  1
  O  O0  1  0.21384054  0.02520190  0.30689672  1
  O  O1  1  0.80816852  0.79167844  0.30060445  1
  O  O2  1  0.98238080  0.19910830  0.31260623  1
  O  O3  1  0.21672750  0.19910830  0.81260623  1
  O  O4  1  0.98350992  0.79167844  0.80060445  1
  O  O5  1  0.81136137  0.02520190  0.80689672  1
  O  O6  1  0.77832690  0.96805093  0.69399837  1
  O  O7  1  0.18773440  0.21811639  0.69908259  1
  O  O8  1  0.02664953  0.79668532  0.69204727  1
  O  O9  1  0.77003579  0.79668532  0.19204727  1
  O  O10  1  0.03038198  0.21811639  0.19908259  1
  O  O11  1  0.18972403  0.96805093  0.19399837  1
  O  O12  1  0.88050754  0.35853490  0.64022972  1
  O  O13  1  0.47483552  0.12501144  0.63393745  1
  O  O14  1  0.64904780  0.53244130  0.64593923  1
  O  O15  1  0.88339450  0.53244130  0.14593923  1
  O  O16  1  0.65017692  0.12501144  0.13393745  1
  O  O17  1  0.47802837  0.35853490  0.14022972  1
  O  O18  1  0.44499390  0.30138393  0.02733137  1
  O  O19  1  0.85440140  0.55144939  0.03241559  1
  O  O20  1  0.69331653  0.13001832  0.02538027  1
  O  O21  1  0.43670279  0.13001832  0.52538027  1
  O  O22  1  0.69704898  0.55144939  0.53241559  1
  O  O23  1  0.85639103  0.30138393  0.52733137  1
  O  O24  1  0.54717354  0.69186890  0.97356372  1
  O  O25  1  0.14150152  0.45834544  0.96727145  1
  O  O26  1  0.31571380  0.86577530  0.97927323  1
  O  O27  1  0.55006050  0.86577530  0.47927323  1
  O  O28  1  0.31684292  0.45834544  0.46727145  1
  O  O29  1  0.14469437  0.69186890  0.47356372  1
  O  O30  1  0.11165990  0.63471793  0.36066537  1
  O  O31  1  0.52106740  0.88478339  0.36574959  1
  O  O32  1  0.35998253  0.46335232  0.35871427  1
  O  O33  1  0.10336879  0.46335232  0.85871427  1
  O  O34  1  0.36371498  0.88478339  0.86574959  1
  O  O35  1  0.52305703  0.63471793  0.86066537  1
  O  O36  1  0.02466877  0.83550431  0.41087488  1
  O  O37  1  0.81682699  0.99820128  0.41504679  1
  O  O38  1  0.17786957  0.19633832  0.41422421  1
  O  O39  1  0.01846875  0.19633832  0.91422421  1
  O  O40  1  0.18137429  0.99820128  0.91504679  1
  O  O41  1  0.81083554  0.83550431  0.91087488  1
  O  O42  1  0.98459606  0.17268435  0.58749626  1
  O  O43  1  0.18901955  0.00680016  0.58790639  1
  O  O44  1  0.83729597  0.81476214  0.58907058  1
  O  O45  1  0.97746617  0.81476214  0.08907058  1
  O  O46  1  0.81778061  0.00680016  0.08790639  1
  O  O47  1  0.18808828  0.17268435  0.08749626  1
  O  O48  1  0.69133577  0.16883731  0.74420788  1
  O  O49  1  0.48349399  0.33153428  0.74837979  1
  O  O50  1  0.84453657  0.52967132  0.74755721  1
  O  O51  1  0.68513575  0.52967132  0.24755721  1
  O  O52  1  0.84804129  0.33153428  0.24837979  1
  O  O53  1  0.47750254  0.16883731  0.24420788  1
  O  O54  1  0.65126306  0.50601735  0.92082926  1
  O  O55  1  0.85568655  0.34013316  0.92123939  1
  O  O56  1  0.50396297  0.14809514  0.92240358  1
  O  O57  1  0.64413317  0.14809514  0.42240358  1
  O  O58  1  0.48444761  0.34013316  0.42123939  1
  O  O59  1  0.85475528  0.50601735  0.42082926  1
  O  O60  1  0.35800177  0.50217131  0.07754188  1
  O  O61  1  0.15015999  0.66486828  0.08171379  1
  O  O62  1  0.51120257  0.86300532  0.08089121  1
  O  O63  1  0.35180175  0.86300532  0.58089121  1
  O  O64  1  0.51470729  0.66486828  0.58171379  1
  O  O65  1  0.14416854  0.50217131  0.57754188  1
  O  O66  1  0.31792906  0.83935135  0.25416326  1
  O  O67  1  0.52235255  0.67346716  0.25457339  1
  O  O68  1  0.17062897  0.48142914  0.25573758  1
  O  O69  1  0.31079917  0.48142914  0.75573758  1
  O  O70  1  0.15111361  0.67346716  0.75457339  1
  O  O71  1  0.52142128  0.83935135  0.75416326  1
loop_
_geom_bond_atom_site_label_1
_geom_bond_atom_site_label_2
_geom_bond_distance
_geom_bond_site_symmetry_2
Na0 O53 2.405603 1_555
Na0 O68 2.497343 1_555
Na0 O67 2.523958 1_555
Na0 O17 2.570284 1_555
Na0 O51 2.572643 1_555
Na0 O32 2.745198 1_555
Na0 O10 2.777452 1_555
Na0 O0 2.916927 1_555
Na1 O52 2.345977 1_455
Na1 O15 2.421913 1_455
Na1 O51 2.520399 1_455
Na1 O68 2.521413 1_555
Na1 O66 2.545994 1_555
Na1 O30 2.785128 1_555
Na1 O11 2.871840 1_555
Na2 O49 2.345977 1_555
Na2 O14 2.421916 1_555
Na2 O50 2.520408 1_555
Na2 O69 2.521421 1_555
Na2 O71 2.546000 1_555
Na2 O35 2.785131 1_555
Na2 O6 2.871840 1_555
Na3 O48 2.405596 1_555
Na3 O69 2.497335 1_655
Na3 O70 2.523958 1_655
Na3 O12 2.570280 1_555
Na3 O50 2.572635 1_555
Na3 O33 2.745197 1_655
Na3 O7 2.777452 1_655
Na3 O5 2.916927 1_555
Na4 O65 2.405587 1_555
Na4 O44 2.497343 1_455
Na4 O43 2.523958 1_565
Na4 O29 2.570258 1_555
Na4 O63 2.572636 1_555
Na4 O8 2.745198 1_555
Na4 O22 2.777452 1_455
Na4 O12 2.916927 1_455
Na5 O64 2.345970 1_555
Na5 O27 2.421894 1_555
Na5 O63 2.520410 1_555
Na5 O44 2.521413 1_555
Na5 O42 2.545994 1_565
Na5 O6 2.785128 1_555
Na5 O23 2.871840 1_565
Na6 O61 2.345970 1_555
Na6 O26 2.421889 1_554
Na6 O62 2.520393 1_555
Na6 O45 2.521421 1_455
Na6 O47 2.546000 1_565
Na6 O11 2.785131 1_555
Na6 O18 2.871840 1_565
Na7 O60 2.405602 1_555
Na7 O45 2.497335 1_555
Na7 O46 2.523958 1_565
Na7 O24 2.570265 1_554
Na7 O62 2.572652 1_555
Na7 O9 2.745197 1_555
Na7 O19 2.777452 1_555
Na7 O17 2.916927 1_555
Na8 O41 2.405603 1_545
Na8 O56 2.497325 1_555
Na8 O55 2.523948 1_555
Na8 O5 2.570284 1_555
Na8 O39 2.572643 1_655
Na8 O20 2.745172 1_556
Na8 O34 2.777452 1_545
Na8 O24 2.916927 1_545
Na9 O40 2.345977 1_545
Na9 O3 2.421913 1_555
Na9 O39 2.520399 1_555
Na9 O56 2.521426 1_555
Na9 O54 2.545997 1_555
Na9 O18 2.785112 1_556
Na9 O35 2.871840 1_555
Na10 O37 2.345977 1_545
Na10 O2 2.421916 1_555
Na10 O38 2.520408 1_655
Na10 O57 2.521410 1_555
Na10 O59 2.545983 1_555
Na10 O23 2.785105 1_555
Na10 O30 2.871840 1_655
Na11 O36 2.405596 1_545
Na11 O57 2.497342 1_555
Na11 O58 2.523948 1_555
Na11 O0 2.570280 1_555
Na11 O38 2.572635 1_555
Na11 O21 2.745176 1_555
Na11 O31 2.777452 1_545
Na11 O29 2.916927 1_545
Na12 O37 2.344639 1_555
Na12 O36 2.469161 1_655
Na12 O44 2.532208 1_555
Na12 O38 2.582496 1_665
Na12 O42 2.692317 1_565
Na12 O43 2.769968 1_665
Na13 O40 2.344638 1_555
Na13 O41 2.469161 1_455
Na13 O45 2.532208 1_456
Na13 O39 2.582496 1_565
Na13 O47 2.692317 1_566
Na13 O46 2.769968 1_466
Na14 O49 2.344639 1_555
Na14 O48 2.469161 1_555
Na14 O56 2.532208 1_555
Na14 O50 2.582496 1_555
Na14 O54 2.692317 1_555
Na14 O55 2.769968 1_555
Na15 O52 2.344638 1_555
Na15 O53 2.469161 1_555
Na15 O57 2.532208 1_555
Na15 O51 2.582496 1_555
Na15 O59 2.692317 1_555
Na15 O58 2.769968 1_555
Na16 O61 2.344639 1_555
Na16 O60 2.469161 1_555
Na16 O68 2.532208 1_555
Na16 O62 2.582496 1_555
Na16 O66 2.692317 1_555
Na16 O67 2.769968 1_555
Na17 O64 2.344638 1_555
Na17 O65 2.469161 1_555
Na17 O69 2.532208 1_555
Na17 O63 2.582496 1_555
Na17 O71 2.692317 1_555
Na17 O70 2.769968 1_555
In0 O7 2.068532 1_555
In0 O6 2.098142 1_445
In0 O42 2.126182 1_455
In0 O44 2.200489 1_445
In0 O8 2.221901 1_545
In0 O43 2.224929 1_555
In1 O10 2.068532 1_555
In1 O11 2.098142 1_545
In1 O47 2.126182 1_555
In1 O45 2.200489 1_445
In1 O9 2.221901 1_445
In1 O46 2.224929 1_455
In2 O19 2.068532 1_556
In2 O18 2.098142 1_556
In2 O54 2.126182 1_555
In2 O56 2.200489 1_555
In2 O20 2.221901 1_556
In2 O55 2.224929 1_555
In3 O22 2.068532 1_555
In3 O23 2.098142 1_555
In3 O59 2.126182 1_555
In3 O57 2.200489 1_555
In3 O21 2.221901 1_555
In3 O58 2.224929 1_555
In4 O31 2.068532 1_555
In4 O30 2.098142 1_555
In4 O66 2.126182 1_555
In4 O68 2.200489 1_555
In4 O32 2.221901 1_555
In4 O67 2.224929 1_555
In5 O34 2.068532 1_555
In5 O35 2.098142 1_555
In5 O71 2.126182 1_555
In5 O69 2.200489 1_555
In5 O33 2.221901 1_555
In5 O70 2.224929 1_555
O0 P0 1.548762 1_555
O0 Zn0 2.116132 1_445
O1 S0 1.467402 1_555
O1 Zn0 2.046816 1_555
O2 P1 1.540668 1_655
O2 Zn0 2.047623 1_545
O3 P2 1.540668 1_555
O3 Zn1 2.047623 1_545
O4 S1 1.467402 1_655
O4 Zn1 2.046816 1_655
O5 P3 1.548762 1_555
O5 Zn1 2.116132 1_645
O6 P3 1.571129 1_565
O7 P2 1.556132 1_555
O8 S1 1.501017 1_555
O9 S0 1.501017 1_555
O10 P1 1.556132 1_555
O11 P0 1.571129 1_565
O12 P4 1.548762 1_555
O12 Zn2 2.116132 1_555
O13 S2 1.467402 1_555
O13 Zn2 2.046816 1_555
O14 P5 1.540668 1_555
O14 Zn2 2.047623 1_555
O15 P6 1.540668 1_555
O15 Zn3 2.047623 1_555
O16 S3 1.467402 1_555
O16 Zn3 2.046816 1_555
O17 P7 1.548762 1_555
O17 Zn3 2.116132 1_555
O18 P7 1.571129 1_555
O19 P6 1.556132 1_555
O20 S3 1.501017 1_555
O21 S2 1.501017 1_555
O22 P5 1.556132 1_555
O23 P4 1.571129 1_555
O24 P8 1.548762 1_555
O24 Zn4 2.116132 1_556
O25 S4 1.467402 1_555
O25 Zn4 2.046816 1_556
O26 P9 1.540668 1_555
O26 Zn4 2.047623 1_556
O27 P10 1.540668 1_555
O27 Zn5 2.047623 1_555
O28 S5 1.467402 1_555
O28 Zn5 2.046816 1_555
O29 P11 1.548762 1_555
O29 Zn5 2.116132 1_555
O30 P11 1.571129 1_555
O31 P10 1.556132 1_555
O32 S5 1.501017 1_555
O33 S4 1.501017 1_555
O34 P9 1.556132 1_555
O35 P8 1.571129 1_555
O36 P11 1.546426 1_555
O36 Zn0 2.130278 1_455
O37 P10 1.542679 1_555
O37 Zn0 2.180552 1_555
O38 S5 1.488924 1_555
O38 Zn0 2.328209 1_445
O39 S4 1.488928 1_555
O39 Zn1 2.328209 1_545
O40 P9 1.542670 1_555
O40 Zn1 2.180552 1_555
O41 P8 1.546431 1_555
O41 Zn1 2.130278 1_655
O42 P4 1.564304 1_555
O43 S2 1.499353 1_555
O44 P5 1.589162 1_555
O45 P6 1.589166 1_555
O46 S3 1.499344 1_555
O47 P7 1.564309 1_555
O48 P3 1.546426 1_555
O48 Zn2 2.130278 1_555
O49 P2 1.542679 1_555
O49 Zn2 2.180552 1_555
O50 S1 1.488924 1_655
O50 Zn2 2.328209 1_555
O51 S0 1.488928 1_555
O51 Zn3 2.328209 1_555
O52 P1 1.542670 1_655
O52 Zn3 2.180552 1_555
O53 P0 1.546431 1_555
O53 Zn3 2.130278 1_555
O54 P8 1.564318 1_555
O55 S4 1.499339 1_655
O56 P9 1.589161 1_545
O57 P10 1.589153 1_545
O58 S5 1.499357 1_555
O59 P11 1.564307 1_655
O60 P7 1.546438 1_555
O60 Zn4 2.130278 1_555
O61 P6 1.542665 1_455
O61 Zn4 2.180552 1_555
O62 S3 1.488922 1_565
O62 Zn4 2.328209 1_555
O63 S2 1.488914 1_565
O63 Zn5 2.328209 1_555
O64 P5 1.542682 1_555
O64 Zn5 2.180552 1_555
O65 P4 1.546428 1_455
O65 Zn5 2.130278 1_555
O66 P0 1.564304 1_565
O67 S0 1.499353 1_555
O68 P1 1.589162 1_555
O69 P2 1.589166 1_555
O70 S1 1.499344 1_555
O71 P3 1.564309 1_565
