# generated using pymatgen
data_Na3Mg8Nb4P3(S5O24)3
_symmetry_space_group_name_H-M   'P 1'
_cell_length_a   8.70865865
_cell_length_b   8.70129832
_cell_length_c   22.63147378
_cell_angle_alpha   90.11613162
_cell_angle_beta   89.85929975
_cell_angle_gamma   120.02938484
_symmetry_Int_Tables_number   1
_chemical_formula_structural   Na3Mg8Nb4P3(S5O24)3
_chemical_formula_sum   'Na3 Mg8 Nb4 P3 S15 O72'
_cell_volume   1484.73391793
_cell_formula_units_Z   1
loop_
 _symmetry_equiv_pos_site_id
 _symmetry_equiv_pos_as_xyz
  1  'x, y, z'
loop_
 _atom_site_type_symbol
 _atom_site_label
 _atom_site_symmetry_multiplicity
 _atom_site_fract_x
 _atom_site_fract_y
 _atom_site_fract_z
 _atom_site_occupancy
  Na  Na0  1  0.99404950  0.99558711  0.00203202  1
  Na  Na1  1  0.66758073  0.33312827  0.83369480  1
  Na  Na2  1  0.66432353  0.33363419  0.33751489  1
  Mg  Mg0  1  0.00145928  0.99994858  0.35499073  1
  Mg  Mg1  1  0.99772061  0.00019020  0.85358060  1
  Mg  Mg2  1  0.99586347  0.99477383  0.14814407  1
  Mg  Mg3  1  0.66245217  0.32630028  0.68534175  1
  Mg  Mg4  1  0.67180226  0.33501436  0.98078457  1
  Mg  Mg5  1  0.65959694  0.32911509  0.48160155  1
  Mg  Mg6  1  0.33448617  0.66705638  0.31105132  1
  Mg  Mg7  1  0.33445598  0.66696088  0.81087260  1
  Nb  Nb0  1  0.00525624  0.00005007  0.64680877  1
  Nb  Nb1  1  0.67371629  0.33126742  0.18692193  1
  Nb  Nb2  1  0.33253871  0.67114449  0.02426889  1
  Nb  Nb3  1  0.33342106  0.67192843  0.51951797  1
  P  P0  1  0.38515964  0.05160484  0.58336298  1
  P  P1  1  0.95055103  0.62723650  0.08060176  1
  P  P2  1  0.67711176  0.04947895  0.08047660  1
  S  S0  1  0.28590963  0.99644728  0.25029143  1
  S  S1  1  0.70890931  0.71282424  0.25064755  1
  S  S2  1  0.00701776  0.28964504  0.25067459  1
  S  S3  1  0.29353961  0.29173370  0.75251598  1
  S  S4  1  0.99704092  0.70546763  0.75222148  1
  S  S5  1  0.70986678  0.00211712  0.75196904  1
  S  S6  1  0.95355782  0.33311916  0.58327294  1
  S  S7  1  0.66624381  0.62015340  0.58339814  1
  S  S8  1  0.37559884  0.32836683  0.08191529  1
  S  S9  1  0.62265650  0.66460905  0.91538221  1
  S  S10  1  0.04314569  0.37686406  0.91507362  1
  S  S11  1  0.33419915  0.95891420  0.91511216  1
  S  S12  1  0.62560155  0.95998598  0.41401989  1
  S  S13  1  0.33485196  0.37649829  0.41445999  1
  S  S14  1  0.03909603  0.66390066  0.41430988  1
  O  O0  1  0.21541062  0.03726309  0.30325267  1
  O  O1  1  0.82072333  0.78277933  0.30340496  1
  O  O2  1  0.96339144  0.17795245  0.30338173  1
  O  O3  1  0.20795717  0.17632392  0.80309195  1
  O  O4  1  0.96801387  0.79119021  0.80303581  1
  O  O5  1  0.82309759  0.03061290  0.80318537  1
  O  O6  1  0.80279654  0.97967703  0.69688171  1
  O  O7  1  0.17694103  0.19792884  0.69698075  1
  O  O8  1  0.02054904  0.82252845  0.69667974  1
  O  O9  1  0.78904597  0.81414740  0.19716904  1
  O  O10  1  0.02539774  0.20988456  0.19668178  1
  O  O11  1  0.18557809  0.97661912  0.19667886  1
  O  O12  1  0.88281519  0.36854057  0.63647684  1
  O  O13  1  0.48968956  0.11965051  0.63921778  1
  O  O14  1  0.63445212  0.51536048  0.63661048  1
  O  O15  1  0.86452661  0.50351109  0.13732734  1
  O  O16  1  0.63706350  0.13281552  0.13765622  1
  O  O17  1  0.48926688  0.36406378  0.13607480  1
  O  O18  1  0.45632574  0.30401149  0.02926930  1
  O  O19  1  0.84073704  0.54005690  0.02728752  1
  O  O20  1  0.69370007  0.15674446  0.02704767  1
  O  O21  1  0.45299951  0.15649212  0.52751450  1
  O  O22  1  0.70185028  0.54951875  0.53027222  1
  O  O23  1  0.84880581  0.30106964  0.53015249  1
  O  O24  1  0.53271342  0.68871749  0.97032095  1
  O  O25  1  0.15618205  0.46671186  0.96988832  1
  O  O26  1  0.31005573  0.84393488  0.97040783  1
  O  O27  1  0.53169996  0.84393788  0.46977098  1
  O  O28  1  0.31314438  0.46942078  0.46985711  1
  O  O29  1  0.15564596  0.68712682  0.47003609  1
  O  O30  1  0.12493645  0.63491028  0.36368724  1
  O  O31  1  0.51000812  0.87418692  0.36371713  1
  O  O32  1  0.36299945  0.49006752  0.36346277  1
  O  O33  1  0.12777390  0.48590585  0.86303626  1
  O  O34  1  0.35984731  0.87405650  0.86347824  1
  O  O35  1  0.51456113  0.64060730  0.86326144  1
  O  O36  1  0.02985316  0.82593254  0.41100653  1
  O  O37  1  0.79655162  0.96876873  0.41071376  1
  O  O38  1  0.17383427  0.20391431  0.41068712  1
  O  O39  1  0.03021785  0.20101798  0.91245281  1
  O  O40  1  0.17097254  0.96991478  0.91270216  1
  O  O41  1  0.79851102  0.82725930  0.91260855  1
  O  O42  1  0.97951082  0.17572299  0.59317682  1
  O  O43  1  0.18937703  0.01669094  0.59600987  1
  O  O44  1  0.82234103  0.80484362  0.59336858  1
  O  O45  1  0.98682432  0.81274758  0.09173654  1
  O  O46  1  0.83050168  0.02027284  0.09173118  1
  O  O47  1  0.19880822  0.17876118  0.09141141  1
  O  O48  1  0.69594290  0.16215597  0.74296355  1
  O  O49  1  0.46763627  0.30822355  0.74248715  1
  O  O50  1  0.83843696  0.53263226  0.74124608  1
  O  O51  1  0.68760874  0.52480923  0.24128005  1
  O  O52  1  0.83672827  0.30936520  0.24269920  1
  O  O53  1  0.47310242  0.16524315  0.24132865  1
  O  O54  1  0.63872894  0.50534022  0.92341849  1
  O  O55  1  0.86685882  0.35894162  0.92240079  1
  O  O56  1  0.49189702  0.13450507  0.92378338  1
  O  O57  1  0.64202643  0.13443002  0.42413730  1
  O  O58  1  0.49489891  0.36239613  0.42364472  1
  O  O59  1  0.86598033  0.50520998  0.42536509  1
  O  O60  1  0.36236382  0.49489988  0.07478988  1
  O  O61  1  0.13709783  0.63555144  0.07313521  1
  O  O62  1  0.50096879  0.86115699  0.07311337  1
  O  O63  1  0.35001261  0.85591186  0.57069125  1
  O  O64  1  0.50924559  0.64627786  0.57358848  1
  O  O65  1  0.13815182  0.48891851  0.57338357  1
  O  O66  1  0.31594201  0.84775804  0.25830763  1
  O  O67  1  0.53086617  0.68435157  0.25873700  1
  O  O68  1  0.15349053  0.46916866  0.25833286  1
  O  O69  1  0.30204109  0.46274187  0.75566012  1
  O  O70  1  0.15908964  0.69648164  0.75562174  1
  O  O71  1  0.53743125  0.84095532  0.75585723  1
loop_
_geom_bond_atom_site_label_1
_geom_bond_atom_site_label_2
_geom_bond_distance
_geom_bond_site_symmetry_2
Na0 O46 2.546753 1_565
Na0 O45 2.562970 1_555
Na0 O41 2.578623 1_554
Na0 O40 2.615022 1_654
Na0 O39 2.617715 1_664
Na0 O47 2.640407 1_665
Na1 O55 2.591834 1_555
Na1 O54 2.606490 1_555
Na1 O56 2.614769 1_555
Na1 O48 2.616005 1_555
Na1 O49 2.641561 1_555
Na1 O50 2.649363 1_555
Na2 O58 2.528371 1_555
Na2 O57 2.561313 1_555
Na2 O59 2.578132 1_555
Na2 O52 2.683851 1_555
Na2 O53 2.687257 1_555
Na2 O51 2.688226 1_555
Mg0 O38 2.079846 1_565
Mg0 O0 2.081681 1_565
Mg0 O36 2.084471 1_555
Mg0 O37 2.086641 1_455
Mg0 O2 2.096724 1_465
Mg0 O1 2.105783 1_455
Mg1 O5 2.023894 1_555
Mg1 O3 2.048147 1_655
Mg1 O4 2.050554 1_545
Mg1 O39 2.099129 1_655
Mg1 O41 2.107717 1_545
Mg1 O40 2.131967 1_645
Mg2 O45 2.002998 1_555
Mg2 O46 2.020647 1_565
Mg2 O9 2.027103 1_555
Mg2 O11 2.057168 1_655
Mg2 O10 2.070613 1_665
Mg2 O47 2.121399 1_665
Mg3 O13 1.969481 1_555
Mg3 O48 2.062028 1_555
Mg3 O49 2.073326 1_555
Mg3 O12 2.079938 1_555
Mg3 O14 2.095754 1_555
Mg3 O50 2.102187 1_555
Mg4 O19 1.956532 1_556
Mg4 O20 1.960198 1_556
Mg4 O18 2.069424 1_556
Mg4 O55 2.076257 1_555
Mg4 O54 2.098061 1_555
Mg4 O56 2.104201 1_555
Mg5 O21 1.966006 1_555
Mg5 O58 2.070749 1_555
Mg5 O22 2.076954 1_555
Mg5 O57 2.077740 1_555
Mg5 O23 2.096284 1_555
Mg5 O59 2.106713 1_555
Mg6 O67 2.020488 1_555
Mg6 O68 2.038938 1_555
Mg6 O66 2.045942 1_555
Mg6 O32 2.057160 1_555
Mg6 O31 2.061140 1_555
Mg6 O30 2.075400 1_555
Mg7 O33 2.067436 1_555
Mg7 O71 2.070071 1_555
Mg7 O35 2.070906 1_555
Mg7 O69 2.071069 1_555
Mg7 O34 2.075397 1_555
Mg7 O70 2.089301 1_555
Nb0 O43 1.916494 1_555
Nb0 O8 1.972639 1_545
Nb0 O7 1.978162 1_555
Nb0 O6 2.025462 1_445
Nb0 O44 2.044090 1_445
Nb0 O42 2.052305 1_455
Nb1 O16 1.941412 1_555
Nb1 O15 1.942227 1_555
Nb1 O52 1.981325 1_555
Nb1 O53 2.031223 1_555
Nb1 O51 2.037773 1_555
Nb1 O17 2.110707 1_555
Nb2 O62 1.918412 1_555
Nb2 O61 1.918441 1_555
Nb2 O26 2.021867 1_554
Nb2 O60 2.033171 1_555
Nb2 O24 2.067963 1_554
Nb2 O25 2.074527 1_554
Nb3 O63 1.920100 1_555
Nb3 O29 1.970395 1_555
Nb3 O27 1.974807 1_555
Nb3 O28 2.020092 1_555
Nb3 O65 2.049644 1_555
Nb3 O64 2.060139 1_555
O0 S0 1.467170 1_545
O1 S1 1.467584 1_555
O2 S2 1.464463 1_655
O3 S3 1.457881 1_555
O4 S4 1.458282 1_555
O5 S5 1.461881 1_555
O6 S5 1.549058 1_565
O7 S3 1.565093 1_555
O8 S4 1.566735 1_455
O9 S1 1.453789 1_555
O10 S2 1.451621 1_555
O11 S0 1.455630 1_555
O12 S6 1.452329 1_555
O13 P0 1.496757 1_555
O14 S7 1.452070 1_555
O15 P1 1.600620 1_555
O16 P2 1.602859 1_555
O17 S8 1.508446 1_555
O18 S8 1.450070 1_555
O19 P1 1.490539 1_555
O20 P2 1.490932 1_555
O21 P0 1.496945 1_555
O22 S7 1.450998 1_555
O23 S6 1.450738 1_555
O24 S9 1.536900 1_555
O25 S10 1.533283 1_555
O26 S11 1.550628 1_555
O27 S12 1.566505 1_555
O28 S13 1.552098 1_555
O29 S14 1.568929 1_555
O30 S14 1.455466 1_555
O31 S12 1.454895 1_555
O32 S13 1.459265 1_555
O33 S10 1.459695 1_555
O34 S11 1.456327 1_555
O35 S9 1.459058 1_555
O36 S14 1.453924 1_555
O37 S12 1.453756 1_555
O38 S13 1.456414 1_555
O39 S10 1.478044 1_555
O40 S11 1.472869 1_555
O41 S9 1.477439 1_555
O42 S6 1.512713 1_555
O43 P0 1.600242 1_555
O44 S7 1.514910 1_555
O45 P1 1.502422 1_555
O46 P2 1.501860 1_555
O47 S8 1.450756 1_555
O48 S5 1.471633 1_555
O49 S3 1.466804 1_555
O50 S4 1.467068 1_555
O51 S1 1.565507 1_555
O52 S2 1.586639 1_655
O53 S0 1.568124 1_545
O54 S9 1.472594 1_555
O55 S10 1.472396 1_655
O56 S11 1.469324 1_545
O57 S12 1.469122 1_545
O58 S13 1.474325 1_555
O59 S14 1.469046 1_655
O60 S8 1.518963 1_555
O61 P1 1.598150 1_455
O62 P2 1.596958 1_565
O63 P0 1.597559 1_565
O64 S7 1.510988 1_555
O65 S6 1.513402 1_455
O66 S0 1.454329 1_555
O67 S1 1.453722 1_555
O68 S2 1.450143 1_555
O69 S3 1.453961 1_555
O70 S4 1.454165 1_455
O71 S5 1.456514 1_565
