# generated using pymatgen
data_Na2Mg(SbO3)2
_symmetry_space_group_name_H-M   'P 1'
_cell_length_a   6.22117213
_cell_length_b   7.58252707
_cell_length_c   5.52224132
_cell_angle_alpha   53.54516786
_cell_angle_beta   54.17559636
_cell_angle_gamma   52.06952605
_symmetry_Int_Tables_number   1
_chemical_formula_structural   Na2Mg(SbO3)2
_chemical_formula_sum   'Na2 Mg1 Sb2 O6'
_cell_volume   155.00354681
_cell_formula_units_Z   1
loop_
 _symmetry_equiv_pos_site_id
 _symmetry_equiv_pos_as_xyz
  1  'x, y, z'
loop_
 _atom_site_type_symbol
 _atom_site_label
 _atom_site_symmetry_multiplicity
 _atom_site_fract_x
 _atom_site_fract_y
 _atom_site_fract_z
 _atom_site_occupancy
  Na  Na0  1  0.37919156  0.77090503  0.78834863  1
  Na  Na1  1  0.45218962  0.50478448  0.43760854  1
  Mg  Mg0  1  0.70244327  0.17026948  0.06468486  1
  Sb  Sb0  1  0.82249777  0.85268093  0.76948289  1
  Sb  Sb1  1  0.17090892  0.17468398  0.11634028  1
  O  O0  1  0.95436024  0.10638084  0.61419842  1
  O  O1  1  0.31142680  0.40494612  0.98123947  1
  O  O2  1  0.54711090  0.91943295  0.22062584  1
  O  O3  1  0.05771032  0.91651685  0.24723357  1
  O  O4  1  0.44520259  0.11202073  0.68211595  1
  O  O5  1  0.81320800  0.40071161  0.00520456  1
loop_
_geom_bond_atom_site_label_1
_geom_bond_atom_site_label_2
_geom_bond_distance
_geom_bond_site_symmetry_2
Na0 O2 2.367522 1_555
Na0 O0 2.486682 1_465
Na0 O3 2.513548 1_556
Na0 O1 2.532257 1_555
Na0 O4 2.534469 1_565
Na0 O5 2.660137 1_556
Na1 O5 2.269631 1_555
Na1 O1 2.321453 1_555
Na1 O4 2.450736 1_555
Na1 O3 2.564189 1_555
Na1 O0 2.880894 1_555
Na1 O2 2.940577 1_555
Mg0 O5 2.041858 1_555
Mg0 O1 2.076604 1_554
Mg0 O2 2.152203 1_545
Mg0 O3 2.162914 1_645
Mg0 O0 2.194157 1_554
Mg0 O4 2.659602 1_555
O0 Sb0 2.065224 1_545
O0 Sb1 2.114644 1_655
O1 Sb1 1.983488 1_556
O2 Sb1 2.058988 1_565
O2 Sb0 2.198652 1_554
O3 Sb1 2.065884 1_565
O3 Sb0 2.228151 1_455
O4 Sb0 2.032915 1_545
O4 Sb1 2.110638 1_556
O5 Sb1 1.981397 1_655
