# generated using pymatgen
data_LiCoP2O7
_symmetry_space_group_name_H-M   'P 1'
_cell_length_a   8.33271300
_cell_length_b   6.97672200
_cell_length_c   9.19733609
_cell_angle_alpha   68.41076824
_cell_angle_beta   90.00000000
_cell_angle_gamma   90.00000000
_symmetry_Int_Tables_number   1
_chemical_formula_structural   LiCoP2O7
_chemical_formula_sum   'Li4 Co4 P8 O28'
_cell_volume   497.17669696
_cell_formula_units_Z   4
loop_
 _symmetry_equiv_pos_site_id
 _symmetry_equiv_pos_as_xyz
  1  'x, y, z'
loop_
 _atom_site_type_symbol
 _atom_site_label
 _atom_site_symmetry_multiplicity
 _atom_site_fract_x
 _atom_site_fract_y
 _atom_site_fract_z
 _atom_site_occupancy
  Li  Li0  1  0.07482200  0.79340000  0.59705900  1
  Li  Li1  1  0.57482200  0.20660000  0.90294100  1
  Li  Li2  1  0.92517800  0.20660000  0.40294100  1
  Li  Li3  1  0.42517800  0.79340000  0.09705900  1
  Co  Co0  1  0.06513900  0.69334000  0.18851000  1
  Co  Co1  1  0.56513900  0.30666000  0.31149000  1
  Co  Co2  1  0.93486100  0.30666000  0.81149000  1
  Co  Co3  1  0.43486100  0.69334000  0.68851000  1
  P  P0  1  0.73810200  0.93087300  0.24326300  1
  P  P1  1  0.26189800  0.06912700  0.75673700  1
  P  P2  1  0.28233900  0.47828200  0.46717400  1
  P  P3  1  0.21766100  0.47828200  0.96717400  1
  P  P4  1  0.23810200  0.06912700  0.25673700  1
  P  P5  1  0.78233900  0.52171800  0.03282600  1
  P  P6  1  0.76189800  0.93087300  0.74326300  1
  P  P7  1  0.71766100  0.52171800  0.53282600  1
  O  O0  1  0.71760800  0.36485800  0.44954000  1
  O  O1  1  0.88688800  0.94703600  0.62198000  1
  O  O2  1  0.25192800  0.88135800  0.70933900  1
  O  O3  1  0.58270900  0.49075400  0.65182100  1
  O  O4  1  0.75192800  0.11864200  0.79066100  1
  O  O5  1  0.80889600  0.74573200  0.90580400  1
  O  O6  1  0.40739100  0.12544400  0.30226100  1
  O  O7  1  0.91729100  0.49075400  0.15182100  1
  O  O8  1  0.61610900  0.51740200  0.10982800  1
  O  O9  1  0.90739100  0.87455600  0.19773900  1
  O  O10  1  0.11311200  0.05296400  0.37802000  1
  O  O11  1  0.59260900  0.87455600  0.69773900  1
  O  O12  1  0.38688800  0.05296400  0.87802000  1
  O  O13  1  0.69110400  0.74573200  0.40580400  1
  O  O14  1  0.74807200  0.11864200  0.29066100  1
  O  O15  1  0.30889600  0.25426800  0.59419600  1
  O  O16  1  0.19110400  0.25426800  0.09419600  1
  O  O17  1  0.24807200  0.88135800  0.20933900  1
  O  O18  1  0.09260900  0.12544400  0.80226100  1
  O  O19  1  0.08270900  0.50924600  0.84817900  1
  O  O20  1  0.38389100  0.48259800  0.89017200  1
  O  O21  1  0.61311200  0.94703600  0.12198000  1
  O  O22  1  0.28239200  0.63514200  0.55046000  1
  O  O23  1  0.11610900  0.48259800  0.39017200  1
  O  O24  1  0.41729100  0.50924600  0.34817900  1
  O  O25  1  0.21760800  0.63514200  0.05046000  1
  O  O26  1  0.88389100  0.51740200  0.60982800  1
  O  O27  1  0.78239200  0.36485800  0.94954000  1
loop_
_geom_bond_atom_site_label_1
_geom_bond_atom_site_label_2
_geom_bond_distance
_geom_bond_site_symmetry_2
Li0 O1 1.958215 1_455
Li0 O2 2.021696 1_555
Li0 O22 2.177751 1_555
Li0 O10 2.180591 1_565
Li0 O19 2.428864 1_555
Li0 O26 2.467055 1_455
Li1 O12 1.958215 1_555
Li1 O4 2.021696 1_555
Li1 O27 2.177751 1_555
Li1 O21 2.180591 1_546
Li1 O3 2.428864 1_555
Li1 O20 2.467055 1_555
Li2 O10 1.958215 1_655
Li2 O14 2.021696 1_555
Li2 O0 2.177751 1_555
Li2 O1 2.180591 1_545
Li2 O7 2.428864 1_555
Li2 O23 2.467055 1_655
Li3 O21 1.958215 1_555
Li3 O17 2.021696 1_555
Li3 O25 2.177751 1_555
Li3 O12 2.180591 1_564
Li3 O24 2.428864 1_555
Li3 O8 2.467055 1_555
Co0 O9 1.847281 1_455
Co0 O25 1.941773 1_555
Co0 O23 1.943046 1_555
Co0 O7 1.995060 1_455
Co0 O17 2.065403 1_555
Co1 O6 1.847281 1_555
Co1 O0 1.941773 1_555
Co1 O8 1.943046 1_555
Co1 O24 1.995060 1_555
Co1 O14 2.065403 1_555
Co2 O18 1.847281 1_655
Co2 O27 1.941773 1_555
Co2 O26 1.943046 1_555
Co2 O19 1.995060 1_655
Co2 O4 2.065403 1_555
Co3 O11 1.847281 1_555
Co3 O22 1.941773 1_555
Co3 O20 1.943046 1_555
Co3 O3 1.995060 1_555
Co3 O2 2.065403 1_555
O0 P7 1.549618 1_555
O1 P6 1.499727 1_555
O2 P1 1.527525 1_565
O3 P7 1.528074 1_555
O4 P6 1.527525 1_545
O5 P5 1.585170 1_556
O5 P6 1.623467 1_555
O6 P4 1.562256 1_555
O7 P5 1.528074 1_555
O8 P5 1.550939 1_555
O9 P0 1.562256 1_555
O10 P4 1.499727 1_555
O11 P6 1.562256 1_555
O12 P1 1.499727 1_555
O13 P7 1.585170 1_555
O13 P0 1.623467 1_555
O14 P0 1.527525 1_545
O15 P2 1.585170 1_555
O15 P1 1.623467 1_555
O16 P3 1.585170 1_554
O16 P4 1.623467 1_555
O17 P4 1.527525 1_565
O18 P1 1.562256 1_555
O19 P3 1.528074 1_555
O20 P3 1.550939 1_555
O21 P0 1.499727 1_555
O22 P2 1.549618 1_555
O23 P2 1.550939 1_555
O24 P2 1.528074 1_555
O25 P3 1.549618 1_554
O26 P7 1.550939 1_555
O27 P5 1.549618 1_556
