# generated using pymatgen
data_Na14Cd2O9
_symmetry_space_group_name_H-M   'P 1'
_cell_length_a   6.71864737
_cell_length_b   6.71865937
_cell_length_c   9.35923792
_cell_angle_alpha   89.99971848
_cell_angle_beta   89.99961006
_cell_angle_gamma   120.00236045
_symmetry_Int_Tables_number   1
_chemical_formula_structural   Na14Cd2O9
_chemical_formula_sum   'Na14 Cd2 O9'
_cell_volume   365.86870220
_cell_formula_units_Z   1
loop_
 _symmetry_equiv_pos_site_id
 _symmetry_equiv_pos_as_xyz
  1  'x, y, z'
loop_
 _atom_site_type_symbol
 _atom_site_label
 _atom_site_symmetry_multiplicity
 _atom_site_fract_x
 _atom_site_fract_y
 _atom_site_fract_z
 _atom_site_occupancy
  Na  Na0  1  0.31803921  0.35839320  0.90776495  1
  Na  Na1  1  0.95963990  0.31804640  0.09223344  1
  Na  Na2  1  0.64158498  0.95963126  0.90777044  1
  Na  Na3  1  0.68717267  0.06144135  0.40967390  1
  Na  Na4  1  0.04036055  0.68195383  0.90776629  1
  Na  Na5  1  -0.00000271  -0.00000211  0.25282204  1
  Na  Na6  1  0.00000226  0.00000280  0.74717831  1
  Na  Na7  1  0.68196136  0.64160820  0.09223497  1
  Na  Na8  1  0.06145520  0.37428362  0.59031917  1
  Na  Na9  1  0.37425361  0.31282059  0.40967567  1
  Na  Na10  1  0.93854422  0.62571566  0.40968017  1
  Na  Na11  1  0.31282740  0.93855820  0.59032561  1
  Na  Na12  1  0.62574695  0.68717938  0.59032371  1
  Na  Na13  1  0.35841449  0.04036757  0.09222941  1
  Cd  Cd0  1  0.66666926  0.33332628  0.73984123  1
  Cd  Cd1  1  0.33333061  0.66667313  0.26015940  1
  O  O0  1  0.30514560  0.96240904  0.34052713  1
  O  O1  1  0.65725429  0.69484968  0.34052512  1
  O  O2  1  0.03758618  0.34273632  0.34052615  1
  O  O3  1  0.69485443  0.03759063  0.65947251  1
  O  O4  1  0.34274602  0.30515065  0.65947456  1
  O  O5  1  0.96241332  0.65726293  0.65947354  1
  O  O6  1  0.00000006  0.00000013  0.00000006  1
  O  O7  1  0.66667077  0.33333644  0.97617193  1
  O  O8  1  0.33332937  0.66666481  0.02383132  1
loop_
_geom_bond_atom_site_label_1
_geom_bond_atom_site_label_2
_geom_bond_distance
_geom_bond_site_symmetry_2
Na0 O8 2.295120 1_556
Na0 O4 2.369597 1_555
Na0 O6 2.442033 1_556
Na0 O7 2.513790 1_555
Na1 O7 2.295030 1_554
Na1 O2 2.369621 1_655
Na1 O6 2.442192 1_655
Na1 O8 2.513646 1_655
Na2 O8 2.294926 1_556
Na2 O3 2.369675 1_565
Na2 O6 2.442193 1_666
Na2 O7 2.513794 1_565
Na3 O2 2.254681 1_655
Na3 O3 2.345741 1_555
Na3 O0 2.396166 1_545
Na3 O1 2.455714 1_545
Na4 O8 2.295040 1_556
Na4 O5 2.369622 1_455
Na4 O6 2.442195 1_566
Na4 O7 2.513652 1_455
Na5 O1 2.336299 1_445
Na5 O2 2.336369 1_555
Na5 O0 2.336377 1_545
Na5 O6 2.366221 1_555
Na6 O4 2.336303 1_555
Na6 O3 2.336373 1_455
Na6 O5 2.336380 1_445
Na6 O6 2.366219 1_556
Na7 O7 2.295105 1_554
Na7 O1 2.369594 1_555
Na7 O6 2.442027 1_665
Na7 O8 2.513784 1_555
Na8 O4 2.254830 1_555
Na8 O2 2.345700 1_555
Na8 O5 2.396176 1_455
Na8 O3 2.455726 1_455
Na9 O0 2.254761 1_545
Na9 O4 2.345731 1_555
Na9 O1 2.396139 1_555
Na9 O2 2.455678 1_555
Na10 O1 2.254828 1_555
Na10 O5 2.345703 1_555
Na10 O2 2.396175 1_655
Na10 O0 2.455729 1_655
Na11 O5 2.254685 1_455
Na11 O0 2.345740 1_555
Na11 O3 2.396166 1_565
Na11 O4 2.455718 1_565
Na12 O3 2.254761 1_565
Na12 O1 2.345728 1_555
Na12 O4 2.396139 1_555
Na12 O5 2.455675 1_555
Na13 O7 2.294919 1_554
Na13 O0 2.369672 1_545
Na13 O6 2.442192 1_555
Na13 O8 2.513772 1_545
Cd0 O7 2.211875 1_555
Cd0 O5 2.219427 1_555
Cd0 O3 2.219439 1_555
Cd0 O4 2.219460 1_555
Cd1 O8 2.211851 1_555
Cd1 O2 2.219426 1_555
Cd1 O0 2.219437 1_555
Cd1 O1 2.219457 1_555
