# generated using pymatgen
data_SbClF10
_symmetry_space_group_name_H-M   'P 1'
_cell_length_a   5.87169035
_cell_length_b   7.96056983
_cell_length_c   15.03419492
_cell_angle_alpha   90.00000000
_cell_angle_beta   90.00000000
_cell_angle_gamma   90.00000000
_symmetry_Int_Tables_number   1
_chemical_formula_structural   SbClF10
_chemical_formula_sum   'Sb4 Cl4 F40'
_cell_volume   702.72835476
_cell_formula_units_Z   4
loop_
 _symmetry_equiv_pos_site_id
 _symmetry_equiv_pos_as_xyz
  1  'x, y, z'
loop_
 _atom_site_type_symbol
 _atom_site_label
 _atom_site_symmetry_multiplicity
 _atom_site_fract_x
 _atom_site_fract_y
 _atom_site_fract_z
 _atom_site_occupancy
  Sb  Sb0  1  0.09171909  0.75000000  0.64193039  1
  Sb  Sb1  1  0.09171909  0.25000000  0.85806961  1
  Sb  Sb2  1  0.90828091  0.25000000  0.35806961  1
  Sb  Sb3  1  0.90828091  0.75000000  0.14193039  1
  Cl  Cl0  1  0.58778099  0.75000000  0.84141243  1
  Cl  Cl1  1  0.58778099  0.25000000  0.65858757  1
  Cl  Cl2  1  0.41221901  0.25000000  0.15858757  1
  Cl  Cl3  1  0.41221901  0.75000000  0.34141243  1
  F  F0  1  0.41077232  0.45791354  0.15361126  1
  F  F1  1  0.41077232  0.54208646  0.34638874  1
  F  F2  1  0.58922768  0.95791354  0.84638874  1
  F  F3  1  0.58922768  0.04208646  0.65361126  1
  F  F4  1  0.16997085  0.75000000  0.21951716  1
  F  F5  1  0.16997085  0.25000000  0.28048284  1
  F  F6  1  0.83002915  0.25000000  0.78048284  1
  F  F7  1  0.83002915  0.75000000  0.71951716  1
  F  F8  1  0.10078852  0.75000000  0.04184791  1
  F  F9  1  0.10078852  0.25000000  0.45815209  1
  F  F10  1  0.89921148  0.25000000  0.95815209  1
  F  F11  1  0.89921148  0.75000000  0.54184791  1
  F  F12  1  0.72127450  0.75000000  0.24738333  1
  F  F13  1  0.72127450  0.25000000  0.25261667  1
  F  F14  1  0.27872550  0.25000000  0.75261667  1
  F  F15  1  0.27872550  0.75000000  0.74738333  1
  F  F16  1  0.91074599  0.98611056  0.14608122  1
  F  F17  1  0.91074599  0.01388944  0.35391878  1
  F  F18  1  0.08925401  0.48611056  0.85391878  1
  F  F19  1  0.08925401  0.51388944  0.64608122  1
  F  F20  1  0.08925401  0.01388944  0.85391878  1
  F  F21  1  0.08925401  0.98611056  0.64608122  1
  F  F22  1  0.91074599  0.51388944  0.14608122  1
  F  F23  1  0.91074599  0.48611056  0.35391878  1
  F  F24  1  0.64314346  0.75000000  0.07157749  1
  F  F25  1  0.64314346  0.25000000  0.42842251  1
  F  F26  1  0.35685654  0.25000000  0.92842251  1
  F  F27  1  0.35685654  0.75000000  0.57157749  1
  F  F28  1  0.58922768  0.54208646  0.84638874  1
  F  F29  1  0.58922768  0.45791354  0.65361126  1
  F  F30  1  0.41077232  0.04208646  0.15361126  1
  F  F31  1  0.41077232  0.95791354  0.34638874  1
  F  F32  1  0.59648753  0.75000000  0.41636822  1
  F  F33  1  0.59648753  0.25000000  0.08363178  1
  F  F34  1  0.40351247  0.25000000  0.58363178  1
  F  F35  1  0.40351247  0.75000000  0.91636822  1
  F  F36  1  0.19305280  0.75000000  0.40057370  1
  F  F37  1  0.19305280  0.25000000  0.09942630  1
  F  F38  1  0.80694720  0.25000000  0.59942630  1
  F  F39  1  0.80694720  0.75000000  0.90057370  1
loop_
_geom_bond_atom_site_label_1
_geom_bond_atom_site_label_2
_geom_bond_distance
_geom_bond_site_symmetry_2
Cl0 F35 1.562228 1_555
Cl0 F39 1.564339 1_555
Cl0 F28 1.656822 1_555
Cl0 F2 1.656822 1_555
Cl1 F34 1.562228 1_555
Cl1 F38 1.564339 1_555
Cl1 F29 1.656822 1_555
Cl1 F3 1.656822 1_555
Cl2 F33 1.562228 1_555
Cl2 F37 1.564339 1_555
Cl2 F30 1.656822 1_555
Cl2 F0 1.656822 1_555
Cl3 F32 1.562228 1_555
Cl3 F36 1.564339 1_555
Cl3 F1 1.656822 1_555
Cl3 F31 1.656822 1_555
F4 Sb3 1.929155 1_455
F5 Sb2 1.929155 1_455
F6 Sb1 1.929155 1_655
F7 Sb0 1.929155 1_655
F8 Sb3 1.881935 1_455
F9 Sb2 1.881935 1_455
F10 Sb1 1.881935 1_655
F11 Sb0 1.881935 1_655
F12 Sb3 1.928521 1_555
F13 Sb2 1.928521 1_555
F14 Sb1 1.928521 1_555
F15 Sb0 1.928521 1_555
F16 Sb3 1.880666 1_555
F17 Sb2 1.880666 1_555
F18 Sb1 1.880666 1_555
F19 Sb0 1.880666 1_555
F20 Sb1 1.880666 1_555
F21 Sb0 1.880666 1_555
F22 Sb3 1.880666 1_555
F23 Sb2 1.880666 1_555
F24 Sb3 1.882118 1_555
F25 Sb2 1.882118 1_555
F26 Sb1 1.882118 1_555
F27 Sb0 1.882118 1_555
