# generated using pymatgen
data_CoP2(H4O5)2
_symmetry_space_group_name_H-M   'P 1'
_cell_length_a   9.99482400
_cell_length_b   5.37037300
_cell_length_c   8.70312566
_cell_angle_alpha   56.18906364
_cell_angle_beta   90.00000000
_cell_angle_gamma   90.00000000
_symmetry_Int_Tables_number   1
_chemical_formula_structural   CoP2(H4O5)2
_chemical_formula_sum   'Co2 P4 H16 O20'
_cell_volume   388.14344603
_cell_formula_units_Z   2
loop_
 _symmetry_equiv_pos_site_id
 _symmetry_equiv_pos_as_xyz
  1  'x, y, z'
loop_
 _atom_site_type_symbol
 _atom_site_label
 _atom_site_symmetry_multiplicity
 _atom_site_fract_x
 _atom_site_fract_y
 _atom_site_fract_z
 _atom_site_occupancy
  Co  Co0  1  0.00000000  0.00000000  0.00000000  1
  Co  Co1  1  0.50000000  0.00000000  0.50000000  1
  P  P0  1  0.78344600  0.08709300  0.66408700  1
  P  P1  1  0.28344600  0.91290700  0.83591300  1
  P  P2  1  0.21655400  0.91290700  0.33591300  1
  P  P3  1  0.71655400  0.08709300  0.16408700  1
  H  H0  1  0.77671200  0.87380600  0.51211500  1
  H  H1  1  0.27671200  0.12619400  0.98788500  1
  H  H2  1  0.22328800  0.12619400  0.48788500  1
  H  H3  1  0.72328800  0.87380600  0.01211500  1
  H  H4  1  0.89031300  0.44080700  0.40526800  1
  H  H5  1  0.39031300  0.55919300  0.09473200  1
  H  H6  1  0.04848900  0.42147600  0.26570300  1
  H  H7  1  0.54848900  0.57852400  0.23429700  1
  H  H8  1  0.95151100  0.57852400  0.73429700  1
  H  H9  1  0.45151100  0.42147600  0.76570300  1
  H  H10  1  0.92275700  0.41182300  0.16189800  1
  H  H11  1  0.42275700  0.58817700  0.33810200  1
  H  H12  1  0.07724300  0.58817700  0.83810200  1
  H  H13  1  0.57724300  0.41182300  0.66189800  1
  H  H14  1  0.10968700  0.55919300  0.59473200  1
  H  H15  1  0.60968700  0.44080700  0.90526800  1
  O  O0  1  0.36137600  0.61152300  0.96913700  1
  O  O1  1  0.13862400  0.61152300  0.46913700  1
  O  O2  1  0.66991500  0.84776800  0.12171100  1
  O  O3  1  0.16991500  0.15223200  0.37828900  1
  O  O4  1  0.33008500  0.15223200  0.87828900  1
  O  O5  1  0.63862400  0.38847700  0.03086300  1
  O  O6  1  0.53654700  0.53143800  0.70690000  1
  O  O7  1  0.03654700  0.46856200  0.79310000  1
  O  O8  1  0.46345300  0.46856200  0.29310000  1
  O  O9  1  0.96345300  0.53143800  0.20690000  1
  O  O10  1  0.63215600  0.13569000  0.63256300  1
  O  O11  1  0.13215600  0.86431000  0.86743700  1
  O  O12  1  0.36784400  0.86431000  0.36743700  1
  O  O13  1  0.86784400  0.13569000  0.13256300  1
  O  O14  1  0.82786700  0.97758000  0.85987500  1
  O  O15  1  0.32786700  0.02242000  0.64012500  1
  O  O16  1  0.17213300  0.02242000  0.14012500  1
  O  O17  1  0.67213300  0.97758000  0.35987500  1
  O  O18  1  0.86137600  0.38847700  0.53086300  1
  O  O19  1  0.83008500  0.84776800  0.62171100  1
loop_
_geom_bond_atom_site_label_1
_geom_bond_atom_site_label_2
_geom_bond_distance
_geom_bond_site_symmetry_2
Co0 O13 2.131295 1_455
Co0 O11 2.131295 1_544
Co0 O16 2.150596 1_555
Co0 O14 2.150596 1_444
Co0 O7 2.159897 1_554
Co0 O9 2.159897 1_445
Co1 O10 2.131295 1_555
Co1 O12 2.131295 1_545
Co1 O17 2.150596 1_545
Co1 O15 2.150596 1_555
Co1 O6 2.159897 1_545
Co1 O8 2.159897 1_555
H0 O19 1.032219 1_555
H0 O17 1.528686 1_555
H1 O4 1.032219 1_555
H1 O16 1.528686 1_556
H2 O3 1.032219 1_555
H2 O15 1.528686 1_555
H3 O2 1.032219 1_555
H3 O14 1.528686 1_554
H4 O18 1.007748 1_555
H5 O0 1.007748 1_554
H6 O9 0.998331 1_455
H7 O8 0.998331 1_555
H8 O7 0.998331 1_655
H9 O6 0.998331 1_555
H10 O9 1.005728 1_555
H10 O13 1.728255 1_555
H11 O8 1.005728 1_555
H11 O12 1.728255 1_555
H12 O7 1.005728 1_555
H12 O11 1.728255 1_555
H13 O6 1.005728 1_555
H13 O10 1.728255 1_555
H14 O1 1.007748 1_555
H15 O5 1.007748 1_556
O0 P1 1.575497 1_555
O1 P2 1.575497 1_555
O2 P3 1.591460 1_565
O3 P2 1.591460 1_545
O4 P1 1.591460 1_545
O5 P3 1.575497 1_555
O10 P0 1.533034 1_555
O11 P1 1.533034 1_555
O12 P2 1.533034 1_555
O13 P3 1.533034 1_555
O14 P0 1.526833 1_565
O15 P1 1.526833 1_545
O16 P2 1.526833 1_545
O17 P3 1.526833 1_565
O18 P0 1.575497 1_555
O19 P0 1.591460 1_565
