# generated using pymatgen
data_Ba2LuMgSbO6
_symmetry_space_group_name_H-M   'P 1'
_cell_length_a   7.32921279
_cell_length_b   7.31925785
_cell_length_c   7.31925785
_cell_angle_alpha   49.92048361
_cell_angle_beta   49.89112485
_cell_angle_gamma   49.89112485
_symmetry_Int_Tables_number   1
_chemical_formula_structural   Ba2LuMgSbO6
_chemical_formula_sum   'Ba2 Lu1 Mg1 Sb1 O6'
_cell_volume   211.37541904
_cell_formula_units_Z   1
loop_
 _symmetry_equiv_pos_site_id
 _symmetry_equiv_pos_as_xyz
  1  'x, y, z'
loop_
 _atom_site_type_symbol
 _atom_site_label
 _atom_site_symmetry_multiplicity
 _atom_site_fract_x
 _atom_site_fract_y
 _atom_site_fract_z
 _atom_site_occupancy
  Ba  Ba0  1  0.32595377  0.32181692  0.32181692  1
  Ba  Ba1  1  0.77810359  0.77395462  0.77395462  1
  Lu  Lu0  1  0.50360404  0.50212080  0.50212080  1
  Mg  Mg0  1  0.10279848  0.09862772  0.09862772  1
  Sb  Sb0  1  0.95008707  0.94985960  0.94985960  1
  O  O0  1  0.74242227  0.27064601  0.27064601  1
  O  O1  1  0.73774807  0.21679653  0.74321616  1
  O  O2  1  0.73774807  0.74321616  0.21679653  1
  O  O3  1  0.20914585  0.74036593  0.74036593  1
  O  O4  1  0.27390289  0.73768617  0.26990953  1
  O  O5  1  0.27390289  0.26990953  0.73768617  1
loop_
_geom_bond_atom_site_label_1
_geom_bond_atom_site_label_2
_geom_bond_distance
_geom_bond_site_symmetry_2
Ba0 O4 2.599297 1_555
Ba0 O5 2.599297 1_555
Ba0 O0 2.613848 1_555
Ba1 O3 2.859685 1_655
Ba1 O2 2.924964 1_556
Ba1 O1 2.924964 1_565
Ba1 O0 3.102642 1_565
Ba1 O0 3.102642 1_556
Ba1 O5 3.103275 1_655
Ba1 O4 3.103275 1_655
Ba1 O5 3.105219 1_565
Ba1 O4 3.105219 1_556
Lu0 O0 2.204260 1_555
Lu0 O5 2.206570 1_555
Lu0 O4 2.206570 1_555
Lu0 O3 2.226371 1_555
Lu0 O2 2.226867 1_555
Lu0 O1 2.226867 1_555
Mg0 O4 1.901504 1_545
Mg0 O5 1.901504 1_554
Mg0 O0 1.902185 1_455
O1 Sb0 1.958752 1_545
O2 Sb0 1.958752 1_554
O3 Sb0 1.957653 1_455
