# generated using pymatgen
data_NaTi2Al2P3(SO8)3
_symmetry_space_group_name_H-M   'P 1'
_cell_length_a   8.46057499
_cell_length_b   8.47047468
_cell_length_c   21.99339475
_cell_angle_alpha   90.09764760
_cell_angle_beta   89.89444535
_cell_angle_gamma   120.06738361
_symmetry_Int_Tables_number   1
_chemical_formula_structural   NaTi2Al2P3(SO8)3
_chemical_formula_sum   'Na3 Ti6 Al6 P9 S9 O72'
_cell_volume   1364.06268073
_cell_formula_units_Z   3
loop_
 _symmetry_equiv_pos_site_id
 _symmetry_equiv_pos_as_xyz
  1  'x, y, z'
loop_
 _atom_site_type_symbol
 _atom_site_label
 _atom_site_symmetry_multiplicity
 _atom_site_fract_x
 _atom_site_fract_y
 _atom_site_fract_z
 _atom_site_occupancy
  Na  Na0  1  0.67177981  0.33394629  0.83350370  1
  Na  Na1  1  0.66492102  0.33636398  0.33198446  1
  Na  Na2  1  0.33915201  0.67068984  0.16880907  1
  Ti  Ti0  1  0.00992882  0.99200730  0.35498614  1
  Ti  Ti1  1  0.99126382  0.00148446  0.85525444  1
  Ti  Ti2  1  0.99260741  0.98819564  0.64810728  1
  Ti  Ti3  1  0.99610069  0.99799950  0.14380484  1
  Ti  Ti4  1  0.33276609  0.65671938  0.02366523  1
  Ti  Ti5  1  0.32333197  0.65880986  0.51812745  1
  Al  Al0  1  0.67184981  0.33349371  0.68793057  1
  Al  Al1  1  0.65280170  0.32787413  0.18712745  1
  Al  Al2  1  0.66756164  0.32508283  0.98247498  1
  Al  Al3  1  0.66536837  0.33720158  0.47795776  1
  Al  Al4  1  0.33418851  0.66527087  0.31290272  1
  Al  Al5  1  0.32527808  0.66728634  0.81073293  1
  P  P0  1  0.29401618  0.99730804  0.24910812  1
  P  P1  1  0.70603694  0.70528721  0.24998628  1
  P  P2  1  -0.00057520  0.70512925  0.75115882  1
  P  P3  1  0.70119722  0.99721576  0.75025209  1
  P  P4  1  0.66632318  0.05291501  0.08393684  1
  P  P5  1  0.38579232  0.32851319  0.08290992  1
  P  P6  1  0.04266210  0.38408746  0.91534009  1
  P  P7  1  0.33735687  0.38007972  0.41449081  1
  P  P8  1  0.04206186  0.65825216  0.41495374  1
  S  S0  1  0.99864566  0.29211562  0.25027171  1
  S  S1  1  0.29298042  0.29341889  0.74983850  1
  S  S2  1  0.94830407  0.33119007  0.58305991  1
  S  S3  1  0.38506252  0.05143336  0.58339801  1
  S  S4  1  0.66444465  0.61455409  0.58350375  1
  S  S5  1  0.94720055  0.61481044  0.08356875  1
  S  S6  1  0.61763073  0.66007504  0.91586598  1
  S  S7  1  0.33631448  0.95631019  0.91620559  1
  S  S8  1  0.62111116  0.95737527  0.41640783  1
  O  O0  1  0.20570073  0.03377388  0.30640663  1
  O  O1  1  0.82915485  0.79867696  0.30651186  1
  O  O2  1  0.96533765  0.17867695  0.30477790  1
  O  O3  1  0.21353132  0.17594525  0.80412599  1
  O  O4  1  0.96509994  0.79834766  0.80592410  1
  O  O5  1  0.83127446  0.03706361  0.80575371  1
  O  O6  1  0.79828131  0.96887354  0.69389319  1
  O  O7  1  0.17765538  0.21074241  0.69504489  1
  O  O8  1  0.03176882  0.83003999  0.69363958  1
  O  O9  1  0.79601520  0.82909281  0.19353523  1
  O  O10  1  0.03372720  0.21254124  0.19518725  1
  O  O11  1  0.17067071  0.96679978  0.19370299  1
  O  O12  1  0.86846633  0.36545883  0.63787049  1
  O  O13  1  0.49773580  0.13437848  0.63836681  1
  O  O14  1  0.63490280  0.50278775  0.63837407  1
  O  O15  1  0.87117147  0.50358764  0.13827675  1
  O  O16  1  0.63347350  0.13526573  0.14073254  1
  O  O17  1  0.50241103  0.37184432  0.13962733  1
  O  O18  1  0.47030859  0.30445335  0.02495083  1
  O  O19  1  0.83965801  0.53667840  0.02783742  1
  O  O20  1  0.70007110  0.16474481  0.02620062  1
  O  O21  1  0.46715547  0.16453755  0.52871096  1
  O  O22  1  0.69936137  0.53552049  0.52904838  1
  O  O23  1  0.83597801  0.30116241  0.52855418  1
  O  O24  1  0.54139596  0.69785973  0.97093533  1
  O  O25  1  0.16406137  0.46871264  0.97256833  1
  O  O26  1  0.30399069  0.84409358  0.97083358  1
  O  O27  1  0.53933507  0.84320005  0.47199318  1
  O  O28  1  0.30538404  0.46938625  0.47315099  1
  O  O29  1  0.16355998  0.69710019  0.47337340  1
  O  O30  1  0.13295749  0.63044062  0.36001331  1
  O  O31  1  0.50565780  0.87722375  0.36244273  1
  O  O32  1  0.37127025  0.50321345  0.36017958  1
  O  O33  1  0.13517666  0.50162109  0.85945053  1
  O  O34  1  0.37027667  0.87508796  0.86163881  1
  O  O35  1  0.50548537  0.63197012  0.86143599  1
  O  O36  1  0.02392053  0.82977987  0.40918831  1
  O  O37  1  0.80137967  0.97672198  0.40940261  1
  O  O38  1  0.16416672  0.19376607  0.40769253  1
  O  O39  1  0.02644673  0.19379180  0.90628251  1
  O  O40  1  0.17287764  0.97472355  0.90782253  1
  O  O41  1  0.80088564  0.82551620  0.90906507  1
  O  O42  1  0.97242029  0.17187725  0.59111277  1
  O  O43  1  0.20175635  0.03170162  0.59133975  1
  O  O44  1  0.82955703  0.79942130  0.59072176  1
  O  O45  1  0.97090925  0.79861471  0.08933613  1
  O  O46  1  0.83264517  0.02569675  0.09296069  1
  O  O47  1  0.19245389  0.16629983  0.09216565  1
  O  O48  1  0.68835212  0.16934525  0.74017105  1
  O  O49  1  0.47409319  0.30902561  0.74091433  1
  O  O50  1  0.82642500  0.52054329  0.74006400  1
  O  O51  1  0.69514213  0.52048151  0.24132291  1
  O  O52  1  0.83586684  0.31098917  0.24187854  1
  O  O53  1  0.48101446  0.16982515  0.24288204  1
  O  O54  1  0.64008846  0.49986926  0.92384429  1
  O  O55  1  0.85222811  0.36018472  0.92501418  1
  O  O56  1  0.49916026  0.14091855  0.92303093  1
  O  O57  1  0.63850400  0.13937243  0.42574541  1
  O  O58  1  0.50361348  0.35747137  0.42642455  1
  O  O59  1  0.85391756  0.49159928  0.42651719  1
  O  O60  1  0.36011100  0.50062698  0.07530340  1
  O  O61  1  0.13445612  0.63915956  0.07711083  1
  O  O62  1  0.49669073  0.85772190  0.07474579  1
  O  O63  1  0.36425741  0.86876930  0.57600712  1
  O  O64  1  0.50595709  0.63968628  0.57622816  1
  O  O65  1  0.13250678  0.49563717  0.57636287  1
  O  O66  1  0.30788740  0.82626212  0.25933733  1
  O  O67  1  0.51907004  0.69005572  0.25892764  1
  O  O68  1  0.16458261  0.47339589  0.25720278  1
  O  O69  1  0.31061011  0.47253769  0.75893666  1
  O  O70  1  0.16892123  0.69155753  0.75957637  1
  O  O71  1  0.52086411  0.82698663  0.76199907  1
loop_
_geom_bond_atom_site_label_1
_geom_bond_atom_site_label_2
_geom_bond_distance
_geom_bond_site_symmetry_2
Na0 O55 2.469951 1_555
Na0 O56 2.508165 1_555
Na0 O54 2.522113 1_555
Na0 O48 2.522349 1_555
Na0 O50 2.522356 1_555
Na0 O49 2.577985 1_555
Na1 O53 2.460420 1_555
Na1 O51 2.466296 1_555
Na1 O52 2.522843 1_555
Na1 O58 2.538007 1_555
Na1 O59 2.550408 1_555
Na1 O57 2.592855 1_555
Na2 O67 2.456055 1_555
Na2 O66 2.471652 1_555
Na2 O68 2.506168 1_555
Na2 O62 2.539944 1_555
Na2 O60 2.565202 1_555
Na2 O61 2.585629 1_555
Al0 O50 1.859667 1_555
Al0 O48 1.863702 1_555
Al0 O12 1.896215 1_555
Al0 O13 1.926908 1_555
Al0 O14 1.948780 1_555
Al0 O49 1.961226 1_555
Al1 O17 1.824873 1_555
Al1 O16 1.859372 1_555
Al1 O53 1.859469 1_555
Al1 O51 1.902652 1_555
Al1 O15 2.006409 1_555
Al1 O52 2.024546 1_555
Al2 O20 1.795760 1_556
Al2 O18 1.841461 1_556
Al2 O55 1.911819 1_555
Al2 O19 1.926669 1_556
Al2 O56 1.986323 1_555
Al2 O54 2.064268 1_555
Al3 O58 1.851697 1_555
Al3 O59 1.855530 1_555
Al3 O22 1.917779 1_555
Al3 O21 1.933475 1_555
Al3 O57 1.947066 1_555
Al3 O23 1.965620 1_555
Al4 O32 1.871226 1_555
Al4 O30 1.884257 1_555
Al4 O67 1.888109 1_555
Al4 O66 1.899345 1_555
Al4 O68 1.965723 1_555
Al4 O31 1.975928 1_555
Al5 O70 1.826720 1_555
Al5 O33 1.855060 1_555
Al5 O71 1.863423 1_555
Al5 O34 1.954488 1_555
Al5 O69 1.955334 1_555
Al5 O35 2.030274 1_555
O0 P0 1.571070 1_545
O0 Ti0 1.848719 1_545
O1 P1 1.559506 1_555
O1 Ti0 1.909943 1_655
O2 S0 1.473471 1_555
O2 Ti0 2.113542 1_645
O3 S1 1.482699 1_555
O3 Ti1 2.048864 1_455
O4 P2 1.543961 1_655
O4 Ti1 1.949268 1_565
O5 P3 1.564113 1_545
O5 Ti1 1.877132 1_555
O6 P3 1.568935 1_555
O6 Ti2 1.862455 1_555
O7 S1 1.487103 1_555
O7 Ti2 2.027893 1_445
O8 P2 1.583622 1_555
O8 Ti2 1.832440 1_455
O9 P1 1.556189 1_555
O9 Ti3 1.918471 1_555
O10 S0 1.485427 1_455
O10 Ti3 2.023738 1_445
O11 P0 1.540801 1_555
O11 Ti3 1.963083 1_455
O12 S2 1.478499 1_555
O13 S3 1.481269 1_555
O14 S4 1.476735 1_555
O15 S5 1.463842 1_555
O16 P4 1.521236 1_555
O17 P5 1.518005 1_555
O18 P5 1.522998 1_555
O19 S5 1.471805 1_555
O20 P4 1.524136 1_555
O21 S3 1.476805 1_555
O22 S4 1.471039 1_555
O23 S2 1.471677 1_555
O24 S6 1.479193 1_555
O24 Ti4 1.989853 1_556
O25 P6 1.554638 1_555
O25 Ti4 1.886378 1_556
O26 S7 1.471051 1_555
O26 Ti4 2.079170 1_556
O27 S8 1.496317 1_555
O27 Ti5 1.986749 1_555
O28 P7 1.584395 1_555
O28 Ti5 1.824005 1_555
O29 P8 1.574884 1_555
O29 Ti5 1.829372 1_555
O30 P8 1.511323 1_555
O31 S8 1.469950 1_555
O32 P7 1.516605 1_555
O33 P6 1.527917 1_555
O34 S7 1.479919 1_555
O35 S6 1.472022 1_555
O36 P8 1.541030 1_555
O36 Ti0 1.868814 1_555
O37 S8 1.457918 1_555
O37 Ti0 2.079952 1_655
O38 P7 1.530640 1_555
O38 Ti0 1.931683 1_545
O39 P6 1.560169 1_555
O39 Ti1 1.873680 1_455
O40 S7 1.479026 1_555
O40 Ti1 2.026210 1_465
O41 S6 1.487537 1_555
O41 Ti1 1.951917 1_565
O42 S2 1.473389 1_555
O42 Ti2 2.072410 1_545
O43 S3 1.484258 1_555
O43 Ti2 2.041026 1_445
O44 S4 1.495581 1_555
O44 Ti2 1.960093 1_555
O45 S5 1.471998 1_555
O45 Ti3 1.991531 1_555
O46 P4 1.548861 1_555
O46 Ti3 1.884060 1_545
O47 P5 1.533837 1_555
O47 Ti3 1.925465 1_445
O48 P3 1.531912 1_545
O49 S1 1.483239 1_555
O50 P2 1.534071 1_655
O51 P1 1.532878 1_555
O52 S0 1.475797 1_555
O53 P0 1.529858 1_545
O54 S6 1.472309 1_555
O55 P6 1.534332 1_655
O56 S7 1.485642 1_545
O57 S8 1.487308 1_545
O58 P7 1.534801 1_555
O59 P8 1.529491 1_655
O60 P5 1.587137 1_555
O60 Ti4 1.845017 1_555
O61 S5 1.498177 1_455
O61 Ti4 1.990512 1_555
O62 P4 1.567315 1_565
O62 Ti4 1.928080 1_555
O63 S3 1.475715 1_565
O63 Ti5 2.068842 1_555
O64 S4 1.468286 1_555
O64 Ti5 2.074909 1_555
O65 S2 1.488413 1_455
O65 Ti5 1.979838 1_555
O66 P0 1.528108 1_555
O67 P1 1.533622 1_555
O68 S0 1.480514 1_455
O69 S1 1.461697 1_555
O70 P2 1.506716 1_555
O71 P3 1.506346 1_555
