# generated using pymatgen
data_Ba2PrMgRuO6
_symmetry_space_group_name_H-M   'P 1'
_cell_length_a   6.84287708
_cell_length_b   6.84494471
_cell_length_c   6.84494492
_cell_angle_alpha   51.62195349
_cell_angle_beta   51.61772785
_cell_angle_gamma   51.61772723
_symmetry_Int_Tables_number   1
_chemical_formula_structural   Ba2PrMgRuO6
_chemical_formula_sum   'Ba2 Pr1 Mg1 Ru1 O6'
_cell_volume   181.98859891
_cell_formula_units_Z   1
loop_
 _symmetry_equiv_pos_site_id
 _symmetry_equiv_pos_as_xyz
  1  'x, y, z'
loop_
 _atom_site_type_symbol
 _atom_site_label
 _atom_site_symmetry_multiplicity
 _atom_site_fract_x
 _atom_site_fract_y
 _atom_site_fract_z
 _atom_site_occupancy
  Ba  Ba0  1  0.78056797  0.78104674  0.78104674  1
  Ba  Ba1  1  0.19916738  0.19961037  0.19961037  1
  Pr  Pr0  1  0.99227865  0.99244839  0.99244839  1
  Mg  Mg0  1  0.37182148  0.37300295  0.37300295  1
  Ru  Ru0  1  0.51329478  0.51335776  0.51335776  1
  O  O0  1  0.25840161  0.73548137  0.73548137  1
  O  O1  1  0.26528367  0.75018273  0.26586562  1
  O  O2  1  0.73583065  0.25783821  0.73523117  1
  O  O3  1  0.26528367  0.26586562  0.75018273  1
  O  O4  1  0.74942749  0.26572671  0.26572671  1
  O  O5  1  0.73583065  0.73523117  0.25783821  1
loop_
_geom_bond_atom_site_label_1
_geom_bond_atom_site_label_2
_geom_bond_distance
_geom_bond_site_symmetry_2
Ba0 O2 2.907043 1_565
Ba0 O5 2.907043 1_556
Ba0 O0 2.910983 1_655
Ba0 O3 3.001930 1_655
Ba0 O1 3.001930 1_655
Ba0 O3 3.002334 1_565
Ba0 O1 3.002334 1_556
Ba0 O4 3.003135 1_556
Ba0 O4 3.003135 1_565
Ba1 O1 2.582272 1_545
Ba1 O3 2.582272 1_554
Ba1 O4 2.583782 1_455
Ba1 Mg0 3.073239 1_555
Ba1 O5 3.076223 1_455
Ba1 O2 3.076223 1_455
Ba1 O0 3.080450 1_554
Ba1 O0 3.080450 1_545
Ba1 O5 3.081788 1_545
Ba1 O2 3.081788 1_554
Mg0 O1 1.926262 1_555
Mg0 O3 1.926262 1_555
Mg0 O4 1.926699 1_555
O0 Ru0 1.987373 1_555
O0 Pr0 2.321675 1_455
O1 Ru0 2.263147 1_555
O1 Pr0 2.526562 1_454
O2 Ru0 1.987626 1_555
O2 Pr0 2.320778 1_545
O3 Ru0 2.263147 1_555
O3 Pr0 2.526562 1_445
O4 Ru0 2.263251 1_555
O4 Pr0 2.526667 1_544
O5 Ru0 1.987626 1_555
O5 Pr0 2.320778 1_554
