# generated using pymatgen
data_U(SiIr)2
_symmetry_space_group_name_H-M   'P 1'
_cell_length_a   4.14043970
_cell_length_b   4.14043970
_cell_length_c   9.79057641
_cell_angle_alpha   90.00000000
_cell_angle_beta   90.00000000
_cell_angle_gamma   90.00000000
_symmetry_Int_Tables_number   1
_chemical_formula_structural   U(SiIr)2
_chemical_formula_sum   'U2 Si4 Ir4'
_cell_volume   167.84221004
_cell_formula_units_Z   2
loop_
 _symmetry_equiv_pos_site_id
 _symmetry_equiv_pos_as_xyz
  1  'x, y, z'
loop_
 _atom_site_type_symbol
 _atom_site_label
 _atom_site_symmetry_multiplicity
 _atom_site_fract_x
 _atom_site_fract_y
 _atom_site_fract_z
 _atom_site_occupancy
  U  U0  1  0.75000000  0.75000000  0.25637366  1
  U  U1  1  0.25000000  0.25000000  0.74362634  1
  Si  Si0  1  0.75000000  0.75000000  0.86832837  1
  Si  Si1  1  0.25000000  0.25000000  0.13167163  1
  Si  Si2  1  0.25000000  0.75000000  0.50000000  1
  Si  Si3  1  0.75000000  0.25000000  0.50000000  1
  Ir  Ir0  1  0.25000000  0.25000000  0.37256334  1
  Ir  Ir1  1  0.75000000  0.75000000  0.62743666  1
  Ir  Ir2  1  0.25000000  0.75000000  -0.00000000  1
  Ir  Ir3  1  0.75000000  0.25000000  -0.00000000  1
loop_
_geom_bond_atom_site_label_1
_geom_bond_atom_site_label_2
_geom_bond_distance
_geom_bond_site_symmetry_2
Si0 U1 3.172102 1_565
Si0 U1 3.172102 1_655
Si0 U1 3.172102 1_665
Si0 U1 3.172102 1_555
Si1 U0 3.172102 1_445
Si1 U0 3.172102 1_455
Si1 U0 3.172102 1_545
Si1 U0 3.172102 1_555
Si2 U0 3.158353 1_555
Si2 U1 3.158353 1_555
Si2 U0 3.158353 1_455
Si2 U1 3.158353 1_565
Si3 U0 3.158353 1_545
Si3 U0 3.158353 1_555
Si3 U1 3.158353 1_555
Si3 U1 3.158353 1_655
Ir0 Si1 2.358469 1_555
Ir0 Si2 2.417129 1_545
Ir0 Si3 2.417129 1_455
Ir0 Si2 2.417129 1_555
Ir0 Si3 2.417129 1_555
Ir0 U0 3.140967 1_545
Ir0 U0 3.140967 1_555
Ir0 U0 3.140967 1_445
Ir0 U0 3.140967 1_455
Ir1 Si0 2.358469 1_555
Ir1 Si3 2.417129 1_565
Ir1 Si2 2.417129 1_655
Ir1 Si2 2.417129 1_555
Ir1 Si3 2.417129 1_555
Ir1 U1 3.140967 1_655
Ir1 U1 3.140967 1_665
Ir1 U1 3.140967 1_555
Ir1 U1 3.140967 1_565
Ir2 Si0 2.438790 1_554
Ir2 Si0 2.438790 1_454
Ir2 Si1 2.438790 1_555
Ir2 Si1 2.438790 1_565
Ir2 U1 3.253635 1_564
Ir2 U1 3.253635 1_554
Ir2 U0 3.253635 1_455
Ir2 U0 3.253635 1_555
Ir3 Si0 2.438790 1_544
Ir3 Si0 2.438790 1_554
Ir3 Si1 2.438790 1_555
Ir3 Si1 2.438790 1_655
Ir3 U1 3.253635 1_654
Ir3 U1 3.253635 1_554
Ir3 U0 3.253635 1_545
Ir3 U0 3.253635 1_555
