# generated using pymatgen
data_Sn5Sb2S9
_symmetry_space_group_name_H-M   'P 1'
_cell_length_a   11.53337300
_cell_length_b   11.62481000
_cell_length_c   11.66331600
_cell_angle_alpha   90.00000000
_cell_angle_beta   90.00000000
_cell_angle_gamma   90.00000000
_symmetry_Int_Tables_number   1
_chemical_formula_structural   Sn5Sb2S9
_chemical_formula_sum   'Sn20 Sb8 S36'
_cell_volume   1563.73891265
_cell_formula_units_Z   4
loop_
 _symmetry_equiv_pos_site_id
 _symmetry_equiv_pos_as_xyz
  1  'x, y, z'
loop_
 _atom_site_type_symbol
 _atom_site_label
 _atom_site_symmetry_multiplicity
 _atom_site_fract_x
 _atom_site_fract_y
 _atom_site_fract_z
 _atom_site_occupancy
  Sn  Sn0  1  0.50000000  0.50000000  0.00000000  1
  Sn  Sn1  1  0.00000000  0.50000000  0.50000000  1
  Sn  Sn2  1  0.50000000  0.00000000  0.50000000  1
  Sn  Sn3  1  0.00000000  0.00000000  0.00000000  1
  Sn  Sn4  1  0.43695700  0.84688100  0.19548200  1
  Sn  Sn5  1  0.06304300  0.15311900  0.69548200  1
  Sn  Sn6  1  0.56304300  0.34688100  0.30451800  1
  Sn  Sn7  1  0.93695700  0.65311900  0.80451800  1
  Sn  Sn8  1  0.56304300  0.15311900  0.80451800  1
  Sn  Sn9  1  0.93695700  0.84688100  0.30451800  1
  Sn  Sn10  1  0.43695700  0.65311900  0.69548200  1
  Sn  Sn11  1  0.06304300  0.34688100  0.19548200  1
  Sn  Sn12  1  0.14800900  0.69240500  0.06253500  1
  Sn  Sn13  1  0.35199100  0.30759500  0.56253500  1
  Sn  Sn14  1  0.85199100  0.19240500  0.43746500  1
  Sn  Sn15  1  0.64800900  0.80759500  0.93746500  1
  Sn  Sn16  1  0.85199100  0.30759500  0.93746500  1
  Sn  Sn17  1  0.64800900  0.69240500  0.43746500  1
  Sn  Sn18  1  0.14800900  0.80759500  0.56253500  1
  Sn  Sn19  1  0.35199100  0.19240500  0.06253500  1
  Sb  Sb0  1  0.29690800  0.54947500  0.36012700  1
  Sb  Sb1  1  0.20309200  0.45052500  0.86012700  1
  Sb  Sb2  1  0.70309200  0.04947500  0.13987300  1
  Sb  Sb3  1  0.79690800  0.95052500  0.63987300  1
  Sb  Sb4  1  0.70309200  0.45052500  0.63987300  1
  Sb  Sb5  1  0.79690800  0.54947500  0.13987300  1
  Sb  Sb6  1  0.29690800  0.95052500  0.86012700  1
  Sb  Sb7  1  0.20309200  0.04947500  0.36012700  1
  S  S0  1  0.07116800  0.55554200  0.29315500  1
  S  S1  1  0.42883200  0.44445800  0.79315500  1
  S  S2  1  0.92883200  0.05554200  0.20684500  1
  S  S3  1  0.57116800  0.94445800  0.70684500  1
  S  S4  1  0.92883200  0.44445800  0.70684500  1
  S  S5  1  0.57116800  0.55554200  0.20684500  1
  S  S6  1  0.07116800  0.94445800  0.79315500  1
  S  S7  1  0.42883200  0.05554200  0.29315500  1
  S  S8  1  0.44647900  0.79387900  0.44565800  1
  S  S9  1  0.05352100  0.20612100  0.94565800  1
  S  S10  1  0.55352100  0.29387900  0.05434200  1
  S  S11  1  0.94647900  0.70612100  0.55434200  1
  S  S12  1  0.55352100  0.20612100  0.55434200  1
  S  S13  1  0.94647900  0.79387900  0.05434200  1
  S  S14  1  0.44647900  0.70612100  0.94565800  1
  S  S15  1  0.17459800  0.83679500  0.32758500  1
  S  S16  1  0.05352100  0.29387900  0.44565800  1
  S  S17  1  0.28723400  0.05382600  0.55558700  1
  S  S18  1  0.78723400  0.44617400  0.44441300  1
  S  S19  1  0.71276600  0.55382600  0.94441300  1
  S  S20  1  0.78723400  0.05382600  0.94441300  1
  S  S21  1  0.71276600  0.94617400  0.44441300  1
  S  S22  1  0.21276600  0.55382600  0.55558700  1
  S  S23  1  0.28723400  0.44617400  0.05558700  1
  S  S24  1  0.00000000  0.00000000  0.50000000  1
  S  S25  1  0.50000000  0.00000000  0.00000000  1
  S  S26  1  0.00000000  0.50000000  0.00000000  1
  S  S27  1  0.50000000  0.50000000  0.50000000  1
  S  S28  1  0.32540200  0.33679500  0.32758500  1
  S  S29  1  0.17459800  0.66320500  0.82758500  1
  S  S30  1  0.67459800  0.83679500  0.17241500  1
  S  S31  1  0.82540200  0.16320500  0.67241500  1
  S  S32  1  0.67459800  0.66320500  0.67241500  1
  S  S33  1  0.82540200  0.33679500  0.17241500  1
  S  S34  1  0.32540200  0.16320500  0.82758500  1
  S  S35  1  0.21276600  0.94617400  0.05558700  1
loop_
_geom_bond_atom_site_label_1
_geom_bond_atom_site_label_2
_geom_bond_distance
_geom_bond_site_symmetry_2
S0 Sn1 2.628832 1_555
S0 Sn11 2.681471 1_555
S0 Sb0 2.719109 1_555
S1 Sn0 2.628832 1_556
S1 Sn10 2.681471 1_555
S1 Sb1 2.719109 1_555
S2 Sn3 2.628832 1_655
S2 Sn9 2.681471 1_545
S2 Sb2 2.719109 1_555
S3 Sn2 2.628832 1_565
S3 Sn8 2.681471 1_565
S3 Sb3 2.719109 1_555
S4 Sn1 2.628832 1_655
S4 Sn7 2.681471 1_555
S4 Sb4 2.719109 1_555
S5 Sn0 2.628832 1_555
S5 Sn6 2.681471 1_555
S5 Sb5 2.719109 1_555
S6 Sn3 2.628832 1_566
S6 Sn5 2.681471 1_565
S6 Sb6 2.719109 1_555
S7 Sn2 2.628832 1_555
S7 Sn4 2.681471 1_545
S7 Sb7 2.719109 1_555
S8 Sn2 2.554236 1_565
S8 Sn17 2.608274 1_555
S8 Sn4 2.984245 1_555
S9 Sn3 2.554236 1_556
S9 Sn16 2.608274 1_455
S9 Sn5 2.984245 1_555
S10 Sn0 2.554236 1_555
S10 Sn19 2.608274 1_555
S10 Sn6 2.984245 1_555
S11 Sn1 2.554236 1_655
S11 Sn18 2.608274 1_655
S11 Sn7 2.984245 1_555
S12 Sn2 2.554236 1_555
S12 Sn13 2.608274 1_555
S12 Sn8 2.984245 1_555
S13 Sn3 2.554236 1_665
S13 Sn12 2.608274 1_655
S13 Sn9 2.984245 1_555
S14 Sn0 2.554236 1_556
S14 Sn15 2.608274 1_555
S14 Sn10 2.984245 1_555
S15 Sb7 2.522824 1_565
S15 Sn9 2.756470 1_455
S15 Sn18 2.778216 1_555
S16 Sn1 2.554236 1_555
S16 Sn14 2.608274 1_455
S16 Sn11 2.984245 1_555
S17 Sb7 2.478185 1_555
S17 Sn2 2.614101 1_555
S17 Sn13 3.044170 1_555
S18 Sb4 2.478185 1_555
S18 Sn1 2.614101 1_655
S18 Sn14 3.044170 1_555
S19 Sb5 2.478185 1_556
S19 Sn0 2.614101 1_556
S19 Sn15 3.044170 1_555
S20 Sb2 2.478185 1_556
S20 Sn3 2.614101 1_656
S20 Sn16 3.044170 1_555
S21 Sb3 2.478185 1_555
S21 Sn2 2.614101 1_565
S21 Sn17 3.044170 1_555
S22 Sb0 2.478185 1_555
S22 Sn1 2.614101 1_555
S22 Sn18 3.044170 1_555
S23 Sb1 2.478185 1_554
S23 Sn0 2.614101 1_555
S23 Sn19 3.044170 1_555
S24 Sn18 2.906660 1_545
S24 Sn14 2.906660 1_455
S24 Sb7 2.911826 1_555
S24 Sb3 2.911826 1_445
S24 Sn5 2.982491 1_555
S24 Sn9 2.982491 1_445
S25 Sn19 2.906660 1_555
S25 Sn15 2.906660 1_544
S25 Sb2 2.911826 1_555
S25 Sb6 2.911826 1_544
S25 Sn4 2.982491 1_545
S25 Sn8 2.982491 1_554
S26 Sn12 2.906660 1_555
S26 Sn16 2.906660 1_454
S26 Sb5 2.911826 1_455
S26 Sb1 2.911826 1_554
S26 Sn11 2.982491 1_555
S26 Sn7 2.982491 1_454
S27 Sn17 2.906660 1_555
S27 Sn13 2.906660 1_555
S27 Sb4 2.911826 1_555
S27 Sb0 2.911826 1_555
S27 Sn10 2.982491 1_555
S27 Sn6 2.982491 1_555
S28 Sb0 2.522824 1_555
S28 Sn6 2.756470 1_555
S28 Sn13 2.778216 1_555
S29 Sb1 2.522824 1_555
S29 Sn7 2.756470 1_455
S29 Sn12 2.778216 1_556
S30 Sb2 2.522824 1_565
S30 Sn4 2.756470 1_555
S30 Sn15 2.778216 1_554
S31 Sb3 2.522824 1_545
S31 Sn5 2.756470 1_655
S31 Sn14 2.778216 1_555
S32 Sb4 2.522824 1_555
S32 Sn10 2.756470 1_555
S32 Sn17 2.778216 1_555
S33 Sb5 2.522824 1_555
S33 Sn11 2.756470 1_655
S33 Sn16 2.778216 1_554
S34 Sb6 2.522824 1_545
S34 Sn8 2.756470 1_555
S34 Sn19 2.778216 1_556
S35 Sb6 2.478185 1_554
S35 Sn3 2.614101 1_565
S35 Sn12 3.044170 1_555
