# generated using pymatgen
data_Na14Nb2In6Si9(SO16)3
_symmetry_space_group_name_H-M   'P 1'
_cell_length_a   18.47983273
_cell_length_b   9.24456193
_cell_length_c   22.78846423
_cell_angle_alpha   89.96313513
_cell_angle_beta   89.83608200
_cell_angle_gamma   119.97861346
_symmetry_Int_Tables_number   1
_chemical_formula_structural   Na14Nb2In6Si9(SO16)3
_chemical_formula_sum   'Na42 Nb6 In18 Si27 S9 O144'
_cell_volume   3372.25644083
_cell_formula_units_Z   3
loop_
 _symmetry_equiv_pos_site_id
 _symmetry_equiv_pos_as_xyz
  1  'x, y, z'
loop_
 _atom_site_type_symbol
 _atom_site_label
 _atom_site_symmetry_multiplicity
 _atom_site_fract_x
 _atom_site_fract_y
 _atom_site_fract_z
 _atom_site_occupancy
  Na  Na0  1  0.81465739  0.00512733  0.24497693  1
  Na  Na1  1  0.68863365  0.37053896  0.24480990  1
  Na  Na2  1  0.50143937  0.62255913  0.24654291  1
  Na  Na3  1  0.31384928  0.62269327  0.74485476  1
  Na  Na4  1  0.99521318  0.36819480  0.74788620  1
  Na  Na5  1  0.18696519  0.00654079  0.74407123  1
  Na  Na6  1  0.15173575  0.33707014  0.58453526  1
  Na  Na7  1  0.65636692  0.34272091  0.58774467  1
  Na  Na8  1  0.01742666  0.69438172  0.58532877  1
  Na  Na9  1  0.51538295  0.68653710  0.58373329  1
  Na  Na10  1  0.32611749  0.97079933  0.58676147  1
  Na  Na11  1  0.83152236  0.97102831  0.58838126  1
  Na  Na12  1  0.15479189  0.96817182  0.08483841  1
  Na  Na13  1  0.65580116  0.96400212  0.08058462  1
  Na  Na14  1  0.32997572  0.68885551  0.08445129  1
  Na  Na15  1  0.82785709  0.68662952  0.08402916  1
  Na  Na16  1  0.01529204  0.34439280  0.08113155  1
  Na  Na17  1  0.51787788  0.34712165  0.08006550  1
  Na  Na18  1  0.48788083  0.66945538  0.91653780  1
  Na  Na19  1  0.98118574  0.65384022  0.91162359  1
  Na  Na20  1  0.35793463  0.04921812  0.91368403  1
  Na  Na21  1  0.85414402  0.04980794  0.91406707  1
  Na  Na22  1  0.16068673  0.29836355  0.91671348  1
  Na  Na23  1  0.66403546  0.29242126  0.92108656  1
  Na  Na24  1  0.48134748  0.31078605  0.41571235  1
  Na  Na25  1  0.98585106  0.30233331  0.42059820  1
  Na  Na26  1  0.16325120  0.03637817  0.42475295  1
  Na  Na27  1  0.66263417  0.02314322  0.42028190  1
  Na  Na28  1  0.35214738  0.65416736  0.42208401  1
  Na  Na29  1  0.85687918  0.66629952  0.41644007  1
  Na  Na30  1  0.00439110  0.00180347  0.50363141  1
  Na  Na31  1  0.50188338  0.99259720  0.50311119  1
  Na  Na32  1  0.00113497  0.01154368  0.99830825  1
  Na  Na33  1  0.50421796  0.00714692  0.99573627  1
  Na  Na34  1  0.34225484  0.33471073  0.82281082  1
  Na  Na35  1  0.83581568  0.32762704  0.82777713  1
  Na  Na36  1  0.33480889  0.33271765  0.33297780  1
  Na  Na37  1  0.84247895  0.35001652  0.32410961  1
  Na  Na38  1  0.16525305  0.66544328  0.16129092  1
  Na  Na39  1  0.66693395  0.66619615  0.16487019  1
  Na  Na40  1  0.16500501  0.66623816  0.66606190  1
  Na  Na41  1  0.66845327  0.66889671  0.66447614  1
  Nb  Nb0  1  0.99800510  0.99667737  0.65014109  1
  Nb  Nb1  1  0.49560239  0.98990490  0.64715485  1
  Nb  Nb2  1  0.99531644  0.00180744  0.14622425  1
  Nb  Nb3  1  0.50707250  0.01467409  0.14510286  1
  Nb  Nb4  1  0.15659763  0.64394679  0.31350385  1
  Nb  Nb5  1  0.66107773  0.68094322  0.81030719  1
  In  In0  1  0.00203615  0.99947300  0.34767457  1
  In  In1  1  0.50152903  0.99831728  0.34531076  1
  In  In2  1  0.99895109  0.00870347  0.84176120  1
  In  In3  1  0.50263247  0.00639563  0.84706563  1
  In  In4  1  0.33623472  0.33210453  0.68414195  1
  In  In5  1  0.83450304  0.33732310  0.68343903  1
  In  In6  1  0.33420738  0.32089173  0.18012255  1
  In  In7  1  0.83724775  0.34059608  0.18435008  1
  In  In8  1  0.33993577  0.33631992  0.99054816  1
  In  In9  1  0.83603867  0.32801537  0.98577077  1
  In  In10  1  0.33554558  0.34324882  0.48850313  1
  In  In11  1  0.83868852  0.34139155  0.49421029  1
  In  In12  1  0.16229943  0.65384633  0.01948907  1
  In  In13  1  0.66174363  0.66403487  0.01774136  1
  In  In14  1  0.16159859  0.65946033  0.51974889  1
  In  In15  1  0.66266804  0.67150458  0.52052054  1
  In  In16  1  0.66145773  0.66236852  0.30824766  1
  In  In17  1  0.16030465  0.65897797  0.80757800  1
  Si  Si0  1  0.64892791  0.00426415  0.25021127  1
  Si  Si1  1  0.85372625  0.70558507  0.25319692  1
  Si  Si2  1  0.99907796  0.28932366  0.25128756  1
  Si  Si3  1  0.49397748  0.28722301  0.25238587  1
  Si  Si4  1  0.14928495  0.29314622  0.75031245  1
  Si  Si5  1  0.99583512  0.70358475  0.75283631  1
  Si  Si6  1  0.49771904  0.70753957  0.75170773  1
  Si  Si7  1  0.35325214  0.00120296  0.75344113  1
  Si  Si8  1  0.84918693  0.99822647  0.75096831  1
  Si  Si9  1  0.48039204  0.32900000  0.58212020  1
  Si  Si10  1  0.98195115  0.32853287  0.58451196  1
  Si  Si11  1  0.18487670  0.03872708  0.58297361  1
  Si  Si12  1  0.68617229  0.04319473  0.58320281  1
  Si  Si13  1  0.33219871  0.62962827  0.58422654  1
  Si  Si14  1  0.83321973  0.63239443  0.58234340  1
  Si  Si15  1  0.48117690  0.63381493  0.08590973  1
  Si  Si16  1  0.98026959  0.63095427  0.08250580  1
  Si  Si17  1  0.33261811  0.03021897  0.08220839  1
  Si  Si18  1  0.83125488  0.03506962  0.08446482  1
  Si  Si19  1  0.18791210  0.33049324  0.08457285  1
  Si  Si20  1  0.68935686  0.33868936  0.08259797  1
  Si  Si21  1  0.01852637  0.36747385  0.91624868  1
  Si  Si22  1  0.51951111  0.37226240  0.91593609  1
  Si  Si23  1  0.66626287  0.96566970  0.91731255  1
  Si  Si24  1  0.16644039  0.36746657  0.41707469  1
  Si  Si25  1  0.01676765  0.66573309  0.41767378  1
  Si  Si26  1  0.51768861  0.66753419  0.41524191  1
  S  S0  1  0.14947669  0.99737867  0.25023700  1
  S  S1  1  0.34943044  0.70425997  0.25017542  1
  S  S2  1  0.64752182  0.29996408  0.74993714  1
  S  S3  1  0.31344153  0.66420972  0.91687719  1
  S  S4  1  0.81226609  0.66747092  0.91544235  1
  S  S5  1  0.16791209  0.96434941  0.91698356  1
  S  S6  1  0.31209247  0.95518185  0.41380009  1
  S  S7  1  0.81331066  0.96242046  0.41658067  1
  S  S8  1  0.66761045  0.37130199  0.41668200  1
  O  O0  1  0.11241321  0.01959119  0.30503874  1
  O  O1  1  0.61082939  0.03717772  0.30985152  1
  O  O2  1  0.39938094  0.77740041  0.30465015  1
  O  O3  1  0.90570638  0.78624448  0.31269469  1
  O  O4  1  0.48155671  0.18244501  0.31267090  1
  O  O5  1  0.98826633  0.18775831  0.31112674  1
  O  O6  1  0.11396977  0.18613563  0.81105268  1
  O  O7  1  0.61198511  0.20305637  0.80477796  1
  O  O8  1  0.48624383  0.78791616  0.81128647  1
  O  O9  1  0.98674368  0.78450114  0.81414926  1
  O  O10  1  0.40515732  0.02465702  0.81311522  1
  O  O11  1  0.90167334  0.03260594  0.81150187  1
  O  O12  1  0.40729386  0.97933600  0.69658321  1
  O  O13  1  0.89916801  0.97254421  0.69397172  1
  O  O14  1  0.08327921  0.18750300  0.69517700  1
  O  O15  1  0.59370838  0.21460841  0.69790619  1
  O  O16  1  0.00713437  0.82984052  0.69599871  1
  O  O17  1  0.51387389  0.83270785  0.69405451  1
  O  O18  1  0.39134854  0.80982440  0.19778922  1
  O  O19  1  0.90743797  0.83619224  0.19655036  1
  O  O20  1  0.01522203  0.19748496  0.19390143  1
  O  O21  1  0.50448721  0.18074678  0.19582623  1
  O  O22  1  0.09605139  0.97143633  0.19817883  1
  O  O23  1  0.58297164  0.98004602  0.19481266  1
  O  O24  1  0.44022555  0.37806195  0.63549878  1
  O  O25  1  0.94148225  0.36955232  0.64019793  1
  O  O26  1  0.24366257  0.11718928  0.63997352  1
  O  O27  1  0.74846041  0.12927295  0.63702773  1
  O  O28  1  0.31427779  0.51509561  0.64142276  1
  O  O29  1  0.80928674  0.50169925  0.63565611  1
  O  O30  1  0.44171392  0.51838481  0.14367738  1
  O  O31  1  0.94160323  0.50408305  0.13676070  1
  O  O32  1  0.30738711  0.10466512  0.13731943  1
  O  O33  1  0.81303441  0.11117598  0.14242007  1
  O  O34  1  0.24934764  0.37077570  0.13990762  1
  O  O35  1  0.74272723  0.36879352  0.14148884  1
  O  O36  1  0.22140066  0.28556998  0.02359760  1
  O  O37  1  0.72157228  0.28777553  0.02346532  1
  O  O38  1  0.42388297  0.56955146  0.02622686  1
  O  O39  1  0.92279497  0.57021779  0.02291228  1
  O  O40  1  0.36024927  0.14673446  0.02269242  1
  O  O41  1  0.85953039  0.15015566  0.02556947  1
  O  O42  1  0.22043926  0.15336522  0.52236953  1
  O  O43  1  0.71813323  0.15135931  0.52091009  1
  O  O44  1  0.36032657  0.57258930  0.52431365  1
  O  O45  1  0.85759680  0.57210042  0.52038159  1
  O  O46  1  0.42412342  0.27641536  0.52131437  1
  O  O47  1  0.92604368  0.28021829  0.52346574  1
  O  O48  1  0.27518364  0.69215191  0.97067234  1
  O  O49  1  0.77661237  0.69372475  0.97090625  1
  O  O50  1  0.07720274  0.44414036  0.97500351  1
  O  O51  1  0.57474858  0.44491636  0.97550919  1
  O  O52  1  0.15802507  0.86330517  0.97093109  1
  O  O53  1  0.64940964  0.85077203  0.97522054  1
  O  O54  1  0.27658348  0.85762830  0.46888352  1
  O  O55  1  0.77451570  0.85696120  0.46938433  1
  O  O56  1  0.15045939  0.45367761  0.47325442  1
  O  O57  1  0.65687093  0.45232369  0.46954058  1
  O  O58  1  0.07772613  0.70582536  0.47317713  1
  O  O59  1  0.57813072  0.71184511  0.47268091  1
  O  O60  1  0.07313335  0.64451732  0.36029427  1
  O  O61  1  0.55993017  0.63250590  0.35716114  1
  O  O62  1  0.25787250  0.86476542  0.36250616  1
  O  O63  1  0.76221967  0.88100056  0.36300264  1
  O  O64  1  0.17711727  0.50178234  0.36011162  1
  O  O65  1  0.68008415  0.47501334  0.36295282  1
  O  O66  1  0.06180081  0.48976678  0.85931510  1
  O  O67  1  0.57561795  0.50416772  0.86100190  1
  O  O68  1  0.18134659  0.88568139  0.86429758  1
  O  O69  1  0.67732847  0.85679987  0.86076664  1
  O  O70  1  0.26247077  0.64422984  0.86419040  1
  O  O71  1  0.75833423  0.64916924  0.86469458  1
  O  O72  1  0.00930367  0.83344416  0.41039987  1
  O  O73  1  0.50481828  0.83523255  0.41111293  1
  O  O74  1  0.39715429  0.97312347  0.40893825  1
  O  O75  1  0.89831127  0.98220198  0.41326883  1
  O  O76  1  0.08217669  0.18538706  0.40993602  1
  O  O77  1  0.58921360  0.20389326  0.41355976  1
  O  O78  1  0.00840819  0.17740130  0.91355890  1
  O  O79  1  0.50915408  0.18538671  0.91079515  1
  O  O80  1  0.09035824  0.97585652  0.91408858  1
  O  O81  1  0.58149769  0.97890988  0.91075369  1
  O  O82  1  0.39861913  0.81391665  0.91412322  1
  O  O83  1  0.89799479  0.81715467  0.91150933  1
  O  O84  1  0.49096467  0.16119291  0.59477901  1
  O  O85  1  0.98997805  0.15783604  0.59209404  1
  O  O86  1  0.09022988  0.01900429  0.59180144  1
  O  O87  1  0.59185485  0.02664615  0.59338621  1
  O  O88  1  0.41978567  0.82030220  0.59314327  1
  O  O89  1  0.91853738  0.81818956  0.59224803  1
  O  O90  1  0.48839961  0.82063500  0.09538293  1
  O  O91  1  0.99140645  0.82111971  0.09568522  1
  O  O92  1  0.41744194  0.01323456  0.09490612  1
  O  O93  1  0.91925382  0.01931229  0.09331681  1
  O  O94  1  0.09340302  0.15845877  0.09482155  1
  O  O95  1  0.59223822  0.16532426  0.09138577  1
  O  O96  1  0.33760272  0.15676984  0.74698997  1
  O  O97  1  0.84102635  0.16326574  0.74398741  1
  O  O98  1  0.24117018  0.31332511  0.74502041  1
  O  O99  1  0.73124218  0.31802598  0.74407964  1
  O  O100  1  0.41520428  0.52901464  0.74518009  1
  O  O101  1  0.91714961  0.51518649  0.74771016  1
  O  O102  1  0.34105431  0.53738316  0.24544745  1
  O  O103  1  0.83756618  0.51823588  0.24697088  1
  O  O104  1  0.41594240  0.32318521  0.24749353  1
  O  O105  1  0.91675648  0.30449759  0.24552142  1
  O  O106  1  0.23278112  0.14768565  0.24504430  1
  O  O107  1  0.74036958  0.16824653  0.24533984  1
  O  O108  1  0.31917196  0.50944955  0.92152734  1
  O  O109  1  0.81808109  0.51284265  0.91819052  1
  O  O110  1  0.42755285  0.36449966  0.91680590  1
  O  O111  1  0.92675512  0.35752869  0.92003385  1
  O  O112  1  0.24309020  0.13474168  0.92091410  1
  O  O113  1  0.75147280  0.14740940  0.91596096  1
  O  O114  1  0.31878556  0.12119008  0.41591326  1
  O  O115  1  0.81923348  0.12845065  0.42078518  1
  O  O116  1  0.25199305  0.35773068  0.41462538  1
  O  O117  1  0.74193018  0.35009241  0.42005281  1
  O  O118  1  0.42571725  0.49492635  0.41973406  1
  O  O119  1  0.92688583  0.49059026  0.41677631  1
  O  O120  1  0.17413424  0.49241458  0.08133760  1
  O  O121  1  0.67349346  0.49630714  0.07825042  1
  O  O122  1  0.07654775  0.66592644  0.07802559  1
  O  O123  1  0.57469733  0.65881980  0.08181326  1
  O  O124  1  0.25274576  0.84193704  0.07482018  1
  O  O125  1  0.75420343  0.84436464  0.07787112  1
  O  O126  1  0.17396359  0.85201240  0.57772860  1
  O  O127  1  0.67256440  0.85385731  0.58065722  1
  O  O128  1  0.25507625  0.66552883  0.57744477  1
  O  O129  1  0.75233167  0.65975259  0.57535609  1
  O  O130  1  0.07560224  0.49142986  0.58142239  1
  O  O131  1  0.57607357  0.48727214  0.57749885  1
  O  O132  1  0.15770678  0.84322300  0.25652256  1
  O  O133  1  0.65085446  0.82922407  0.24825178  1
  O  O134  1  0.26612295  0.69433249  0.25624039  1
  O  O135  1  0.76338342  0.70359525  0.25260729  1
  O  O136  1  0.08760140  0.48186628  0.25709067  1
  O  O137  1  0.58424320  0.46370892  0.24890902  1
  O  O138  1  0.15203100  0.47299512  0.74853496  1
  O  O139  1  0.65342604  0.46671208  0.75511559  1
  O  O140  1  0.08602554  0.70622483  0.74847532  1
  O  O141  1  0.58558170  0.69401027  0.75648183  1
  O  O142  1  0.26364479  0.82244593  0.75280994  1
  O  O143  1  0.75752263  0.81843295  0.75862276  1
loop_
_geom_bond_atom_site_label_1
_geom_bond_atom_site_label_2
_geom_bond_distance
_geom_bond_site_symmetry_2
Na0 O105 2.449736 1_555
Na0 O135 2.461148 1_545
Na0 O107 2.495490 1_555
Na0 O33 2.539875 1_555
Na0 O133 2.625312 1_545
Na0 O63 2.891320 1_545
Na1 O103 2.384740 1_555
Na1 O137 2.476220 1_555
Na1 O107 2.489648 1_555
Na1 O35 2.558524 1_555
Na1 O135 2.677952 1_555
Na1 O65 2.891303 1_555
Na2 O104 2.405439 1_555
Na2 O133 2.450409 1_555
Na2 O30 2.568295 1_555
Na2 O137 2.597486 1_555
Na2 O102 2.659592 1_555
Na2 O61 2.729083 1_555
Na3 O100 2.424738 1_555
Na3 O142 2.452602 1_555
Na3 O98 2.478828 1_555
Na3 O28 2.560464 1_555
Na3 O138 2.593698 1_555
Na3 O70 2.917449 1_555
Na4 O101 2.426258 1_555
Na4 O97 2.514528 1_555
Na4 O138 2.555680 1_655
Na4 O25 2.652320 1_555
Na4 O140 2.709443 1_655
Na4 O66 2.804424 1_655
Na5 O96 2.412485 1_555
Na5 O140 2.453681 1_545
Na5 O98 2.491664 1_555
Na5 O26 2.585184 1_555
Na5 O142 2.712052 1_545
Na5 O68 2.940065 1_545
Na6 O130 2.455120 1_555
Na6 O86 2.573620 1_555
Na6 O85 2.599546 1_455
Na6 O128 2.663790 1_555
Na6 O56 2.759661 1_555
Na6 O14 2.845812 1_555
Na6 O28 2.914860 1_555
Na6 O42 2.941190 1_555
Na7 O131 2.454600 1_555
Na7 O87 2.548161 1_555
Na7 O129 2.572212 1_555
Na7 O84 2.656209 1_555
Na7 O29 2.684610 1_555
Na7 O15 2.766707 1_555
Na7 O57 2.875691 1_555
Na7 O43 2.960336 1_555
Na8 O126 2.511128 1_555
Na8 O130 2.588293 1_555
Na8 O89 2.600635 1_455
Na8 O86 2.608563 1_565
Na8 O58 2.765933 1_555
Na8 O16 2.864287 1_555
Na8 O25 2.885134 1_455
Na8 O45 2.980400 1_455
Na9 O127 2.518599 1_555
Na9 O131 2.595300 1_555
Na9 O88 2.622495 1_555
Na9 O24 2.735148 1_555
Na9 O87 2.737422 1_565
Na9 O59 2.741382 1_555
Na9 O44 2.856809 1_555
Na9 O17 2.861613 1_555
Na10 O128 2.456143 1_555
Na10 O126 2.464196 1_555
Na10 O84 2.656457 1_565
Na10 O88 2.713110 1_555
Na10 O26 2.770567 1_565
Na10 O54 2.865151 1_555
Na10 O46 2.890034 1_565
Na10 O12 2.902306 1_555
Na11 O129 2.511073 1_555
Na11 O85 2.551869 1_565
Na11 O127 2.580050 1_555
Na11 O89 2.619364 1_555
Na11 O13 2.711578 1_555
Na11 O27 2.821627 1_565
Na11 O47 2.898237 1_565
Na11 O55 2.912947 1_555
Na12 O122 2.426170 1_555
Na12 O94 2.535082 1_565
Na12 O124 2.607633 1_555
Na12 O91 2.630382 1_455
Na12 O32 2.727606 1_565
Na12 O52 2.782386 1_554
Na12 O22 2.804850 1_555
Na12 O36 2.906519 1_565
Na13 O123 2.445536 1_555
Na13 O125 2.557966 1_555
Na13 O53 2.599264 1_554
Na13 O95 2.662300 1_565
Na13 O90 2.708580 1_555
Na13 O33 2.890450 1_565
Na13 O37 2.912185 1_565
Na13 O23 2.964685 1_555
Na14 O124 2.471353 1_555
Na14 O120 2.524210 1_555
Na14 O90 2.560776 1_555
Na14 O92 2.611714 1_565
Na14 O48 2.791917 1_554
Na14 O38 2.808910 1_555
Na14 O18 2.821476 1_555
Na14 O34 2.840724 1_555
Na15 O125 2.446003 1_555
Na15 O121 2.497413 1_555
Na15 O91 2.645899 1_555
Na15 O93 2.677306 1_565
Na15 O49 2.760884 1_554
Na15 O39 2.837391 1_555
Na15 O35 2.861234 1_555
Na15 O19 2.940002 1_555
Na16 O120 2.544582 1_555
Na16 O122 2.599706 1_555
Na16 O93 2.631401 1_455
Na16 O50 2.633509 1_554
Na16 O94 2.759881 1_555
Na16 O31 2.764482 1_455
Na16 O41 2.823376 1_455
Na16 O20 2.905565 1_555
Na17 O121 2.491871 1_555
Na17 O123 2.526647 1_555
Na17 O51 2.575342 1_554
Na17 O95 2.662495 1_555
Na17 O92 2.712277 1_555
Na17 O40 2.873778 1_555
Na17 O30 2.967725 1_555
Na17 O21 2.999442 1_555
Na18 O110 2.459618 1_555
Na18 O81 2.499315 1_555
Na18 O82 2.590262 1_555
Na18 O8 2.642578 1_555
Na18 O108 2.703721 1_555
Na18 O38 2.718171 1_556
Na18 O53 2.921271 1_555
Na18 O67 3.005321 1_555
Na19 O111 2.407647 1_555
Na19 O9 2.504989 1_555
Na19 O109 2.622474 1_555
Na19 O80 2.633293 1_655
Na19 O83 2.638644 1_555
Na19 O39 2.709604 1_556
Na19 O66 2.862042 1_655
Na20 O79 2.425197 1_555
Na20 O10 2.500547 1_555
Na20 O110 2.531558 1_555
Na20 O112 2.613706 1_555
Na20 O82 2.632780 1_545
Na20 O40 2.636361 1_556
Na21 O111 2.469496 1_555
Na21 O113 2.475140 1_555
Na21 O78 2.481478 1_655
Na21 O11 2.527462 1_555
Na21 O83 2.650957 1_545
Na21 O41 2.690577 1_556
Na22 O78 2.455842 1_555
Na22 O108 2.586182 1_555
Na22 O80 2.590363 1_545
Na22 O6 2.596045 1_555
Na22 O112 2.630334 1_555
Na22 O36 2.711728 1_556
Na22 O50 2.833568 1_555
Na23 O81 2.523299 1_545
Na23 O79 2.529832 1_555
Na23 O109 2.542085 1_555
Na23 O113 2.566228 1_555
Na23 O37 2.575895 1_556
Na23 O7 2.802876 1_555
Na23 O51 2.926289 1_555
Na24 O118 2.389901 1_555
Na24 O46 2.580541 1_555
Na24 O114 2.614328 1_555
Na24 O77 2.630655 1_555
Na24 O4 2.632423 1_555
Na24 O74 2.708692 1_545
Na24 O61 2.898684 1_555
Na25 O119 2.473725 1_555
Na25 O76 2.513491 1_655
Na25 O47 2.552904 1_555
Na25 O75 2.573146 1_545
Na25 O115 2.668001 1_555
Na25 O5 2.719808 1_555
Na25 O56 2.901820 1_655
Na26 O42 2.471718 1_555
Na26 O76 2.514187 1_555
Na26 O72 2.528335 1_545
Na26 O114 2.580893 1_555
Na26 O116 2.587727 1_555
Na26 O58 2.865801 1_545
Na26 O0 2.866837 1_555
Na27 O115 2.550966 1_555
Na27 O73 2.551037 1_545
Na27 O43 2.552938 1_555
Na27 O117 2.618505 1_555
Na27 O77 2.631161 1_555
Na27 O1 2.720993 1_555
Na27 O59 2.764071 1_545
Na28 O116 2.428584 1_555
Na28 O118 2.453202 1_555
Na28 O73 2.469858 1_555
Na28 O44 2.476401 1_555
Na28 O74 2.649982 1_555
Na28 O2 2.865383 1_555
Na29 O72 2.447175 1_655
Na29 O45 2.525504 1_555
Na29 O119 2.532273 1_555
Na29 O3 2.572484 1_555
Na29 O117 2.618660 1_555
Na29 O75 2.623913 1_555
Na30 O86 2.518985 1_555
Na30 O85 2.569085 1_455
Na30 O89 2.600479 1_445
Na30 O76 2.654308 1_555
Na30 O72 2.662507 1_545
Na30 O75 2.790116 1_445
Na31 O87 2.567702 1_565
Na31 O73 2.568408 1_555
Na31 O88 2.571229 1_555
Na31 O84 2.673907 1_565
Na31 O77 2.722192 1_565
Na31 O74 2.838964 1_555
Na32 O78 2.426462 1_555
Na32 O80 2.652788 1_545
Na32 O93 2.659415 1_456
Na32 O94 2.701904 1_556
Na32 O83 2.716240 1_445
Na32 O91 2.780642 1_446
Na33 O81 2.493099 1_545
Na33 O79 2.512951 1_555
Na33 O82 2.645653 1_545
Na33 O95 2.680035 1_556
Na33 O90 2.775313 1_546
Na33 O92 2.784172 1_556
Na34 O96 2.358385 1_555
Na34 O100 2.394966 1_555
Na34 O98 2.514257 1_555
Na34 O110 2.595185 1_555
Na34 O112 2.891261 1_555
Na34 O108 2.922315 1_555
Na35 O101 2.443465 1_555
Na35 O97 2.472418 1_555
Na35 O113 2.574125 1_555
Na35 O111 2.622480 1_555
Na35 O99 2.688916 1_555
Na35 O109 2.801037 1_555
Na36 O104 2.483191 1_555
Na36 O116 2.489076 1_555
Na36 O118 2.546545 1_555
Na36 O114 2.626206 1_555
Na36 O106 2.701731 1_555
Na36 O102 2.710628 1_555
Na37 O103 2.378073 1_555
Na37 O105 2.415095 1_555
Na37 O107 2.541847 1_555
Na37 O119 2.564743 1_555
Na37 O117 2.865488 1_555
Na37 O115 2.888432 1_555
Na38 O120 2.483889 1_555
Na38 O122 2.512520 1_555
Na38 O124 2.549634 1_555
Na38 O136 2.692385 1_555
Na38 O132 2.768054 1_555
Na38 O134 2.784633 1_555
Na39 O123 2.528826 1_555
Na39 O133 2.533424 1_555
Na39 O125 2.562676 1_555
Na39 O121 2.563319 1_555
Na39 O137 2.574264 1_555
Na39 O135 2.588320 1_555
Na40 O140 2.513647 1_555
Na40 O138 2.519169 1_555
Na40 O130 2.532879 1_555
Na40 O142 2.590317 1_555
Na40 O126 2.595857 1_555
Na40 O128 2.615429 1_555
Na41 O127 2.538327 1_555
Na41 O129 2.578289 1_555
Na41 O131 2.611765 1_555
Na41 O143 2.640713 1_555
Na41 O141 2.670737 1_555
Na41 O139 2.703728 1_555
Nb0 O16 1.938634 1_655
Nb0 O14 1.970296 1_665
Nb0 O13 1.991372 1_555
Nb0 O85 2.052044 1_565
Nb0 O89 2.052340 1_555
Nb0 O86 2.085633 1_665
Nb1 O88 1.937351 1_555
Nb1 O12 1.942034 1_555
Nb1 O17 1.964321 1_555
Nb1 O84 2.018201 1_565
Nb1 O87 2.040550 1_565
Nb1 O15 2.278390 1_565
Nb2 O93 1.921560 1_555
Nb2 O19 1.949098 1_545
Nb2 O20 1.981894 1_655
Nb2 O91 2.001037 1_545
Nb2 O94 2.029121 1_655
Nb2 O22 2.341055 1_645
Nb3 O95 1.926500 1_555
Nb3 O21 1.941836 1_555
Nb3 O23 1.952017 1_545
Nb3 O90 2.001714 1_545
Nb3 O92 2.010237 1_555
Nb3 O18 2.352947 1_545
Nb4 O64 1.870210 1_555
Nb4 O60 1.874761 1_555
Nb4 O136 1.904239 1_555
Nb4 O132 2.244856 1_555
Nb4 O134 2.249090 1_555
Nb4 O62 2.261351 1_555
Nb5 O69 1.889941 1_555
Nb5 O141 1.908825 1_555
Nb5 O143 1.975217 1_555
Nb5 O67 1.976692 1_555
Nb5 O139 2.290965 1_555
Nb5 O71 2.322176 1_555
In0 O3 2.047777 1_455
In0 O5 2.056732 1_465
In0 O72 2.149731 1_555
In0 O76 2.152158 1_565
In0 O0 2.179105 1_565
In0 O75 2.368869 1_455
In1 O1 2.031491 1_565
In1 O4 2.052969 1_565
In1 O73 2.148134 1_555
In1 O2 2.180042 1_555
In1 O74 2.326298 1_555
In1 O77 2.365814 1_565
In2 O11 2.039567 1_555
In2 O6 2.050344 1_655
In2 O9 2.068317 1_545
In2 O78 2.207320 1_655
In2 O83 2.412588 1_545
In2 O80 2.487994 1_645
In3 O10 2.045374 1_555
In3 O8 2.056242 1_545
In3 O7 2.152369 1_555
In3 O79 2.160210 1_555
In3 O81 2.162582 1_545
In3 O82 2.399529 1_545
In4 O24 2.067272 1_555
In4 O26 2.121979 1_555
In4 O28 2.158754 1_555
In4 O96 2.171941 1_555
In4 O98 2.173024 1_555
In4 O100 2.176744 1_555
In5 O27 2.074151 1_555
In5 O25 2.089970 1_555
In5 O29 2.102480 1_555
In5 O101 2.165100 1_555
In5 O97 2.167830 1_555
In5 O99 2.286324 1_555
In6 O32 2.051331 1_555
In6 O34 2.059647 1_555
In6 O30 2.081787 1_555
In6 O104 2.149489 1_555
In6 O106 2.290779 1_555
In6 O102 2.447329 1_555
In7 O31 2.062166 1_555
In7 O35 2.130136 1_555
In7 O33 2.160570 1_555
In7 O105 2.171314 1_555
In7 O103 2.174095 1_555
In7 O107 2.192658 1_555
In8 O38 2.093643 1_556
In8 O40 2.099201 1_556
In8 O36 2.132777 1_556
In8 O110 2.252961 1_555
In8 O108 2.407645 1_555
In8 O112 2.425047 1_555
In9 O41 2.104330 1_556
In9 O37 2.133927 1_556
In9 O111 2.158004 1_555
In9 O39 2.173228 1_556
In9 O113 2.273940 1_555
In9 O109 2.442856 1_555
In10 O44 2.098761 1_555
In10 O42 2.111651 1_555
In10 O46 2.153457 1_555
In10 O118 2.201366 1_555
In10 O116 2.336132 1_555
In10 O114 2.533453 1_555
In11 O45 2.069952 1_555
In11 O47 2.070817 1_555
In11 O43 2.121159 1_555
In11 O119 2.325194 1_555
In11 O115 2.470744 1_555
In11 O117 2.494077 1_555
In12 O50 2.055233 1_554
In12 O122 2.113780 1_555
In12 O124 2.125444 1_555
In12 O120 2.141664 1_555
In12 O48 2.227705 1_554
In12 O52 2.265124 1_554
In13 O53 2.088861 1_554
In13 O51 2.090686 1_554
In13 O123 2.151925 1_555
In13 O121 2.165232 1_555
In13 O125 2.178522 1_555
In13 O49 2.263837 1_554
In14 O58 2.094077 1_555
In14 O56 2.096783 1_555
In14 O130 2.105035 1_555
In14 O126 2.136550 1_555
In14 O128 2.152250 1_555
In14 O54 2.303884 1_555
In15 O59 2.087972 1_555
In15 O131 2.099773 1_555
In15 O127 2.109416 1_555
In15 O129 2.123786 1_555
In15 O55 2.238705 1_555
In15 O57 2.292068 1_555
In16 O61 2.075782 1_555
In16 O135 2.137549 1_555
In16 O133 2.141931 1_555
In16 O137 2.152396 1_555
In16 O65 2.295205 1_555
In16 O63 2.316197 1_555
In17 O66 2.071311 1_555
In17 O140 2.120848 1_555
In17 O138 2.128683 1_555
In17 O142 2.142021 1_555
In17 O68 2.325104 1_555
In17 O70 2.349153 1_555
O0 S0 1.485565 1_545
O1 Si0 1.626221 1_555
O2 S1 1.494729 1_555
O3 Si1 1.615563 1_555
O4 Si3 1.628666 1_555
O5 Si2 1.609455 1_555
O6 Si4 1.633517 1_555
O7 S2 1.483783 1_555
O8 Si6 1.611700 1_555
O9 Si5 1.632675 1_555
O10 Si7 1.617514 1_555
O11 Si8 1.626307 1_545
O12 Si7 1.706390 1_565
O13 Si8 1.676072 1_555
O14 Si4 1.685282 1_555
O15 S2 1.497079 1_555
O16 Si5 1.684193 1_455
O17 Si6 1.674750 1_555
O18 S1 1.488399 1_555
O19 Si1 1.703652 1_555
O20 Si2 1.665033 1_455
O21 Si3 1.690902 1_555
O22 S0 1.486631 1_555
O23 Si0 1.692922 1_565
O24 Si9 1.602602 1_555
O25 Si10 1.609983 1_555
O26 Si11 1.617205 1_555
O27 Si12 1.598958 1_555
O28 Si13 1.604669 1_555
O29 Si14 1.610104 1_555
O30 Si15 1.618190 1_555
O31 Si16 1.603247 1_555
O32 Si17 1.608345 1_555
O33 Si18 1.608745 1_555
O34 Si19 1.613696 1_555
O35 Si20 1.607791 1_555
O36 Si19 1.654971 1_555
O37 Si20 1.633428 1_555
O38 Si15 1.644523 1_555
O39 Si16 1.643444 1_555
O40 Si17 1.644672 1_555
O41 Si18 1.626305 1_555
O42 Si11 1.661112 1_555
O43 Si12 1.663435 1_555
O44 Si13 1.638023 1_555
O45 Si14 1.660034 1_555
O46 Si9 1.655780 1_555
O47 Si10 1.658335 1_555
O48 S3 1.499128 1_555
O49 S4 1.498665 1_555
O50 Si21 1.646919 1_555
O51 Si22 1.630971 1_555
O52 S5 1.497998 1_555
O53 Si23 1.622314 1_555
O54 S6 1.490649 1_555
O55 S7 1.485760 1_555
O56 Si24 1.611151 1_555
O57 S8 1.483149 1_555
O58 Si25 1.611736 1_555
O59 Si26 1.637238 1_555
O60 Si25 1.740676 1_555
O61 Si26 1.647216 1_555
O62 S6 1.496649 1_555
O63 S7 1.498765 1_555
O64 Si24 1.737071 1_555
O65 S8 1.499182 1_555
O66 Si21 1.640012 1_555
O67 Si22 1.690047 1_555
O68 S5 1.487247 1_555
O69 Si23 1.709117 1_555
O70 S3 1.481824 1_555
O71 S4 1.482457 1_555
O72 Si25 1.632117 1_555
O73 Si26 1.684421 1_555
O74 S6 1.499723 1_555
O75 S7 1.489556 1_555
O76 Si24 1.633085 1_555
O77 S8 1.503046 1_555
O78 Si21 1.672757 1_555
O79 Si22 1.644644 1_555
O80 S5 1.490829 1_555
O81 Si23 1.638292 1_555
O82 S3 1.489723 1_555
O83 S4 1.496964 1_555
O84 Si9 1.682432 1_555
O85 Si10 1.666049 1_555
O86 Si11 1.676949 1_555
O87 Si12 1.687119 1_555
O88 Si13 1.708605 1_555
O89 Si14 1.668278 1_555
O90 Si15 1.678530 1_555
O91 Si16 1.691913 1_555
O92 Si17 1.677509 1_555
O93 Si18 1.716109 1_555
O94 Si19 1.689831 1_555
O95 Si20 1.718364 1_555
O96 Si7 1.609077 1_555
O97 Si8 1.614194 1_545
O98 Si4 1.617057 1_555
O99 S2 1.476469 1_555
O100 Si6 1.599290 1_555
O101 Si5 1.622267 1_555
O102 S1 1.475524 1_555
O103 Si1 1.610177 1_555
O104 Si3 1.637841 1_555
O105 Si2 1.601762 1_555
O106 S0 1.475030 1_545
O107 Si0 1.613880 1_555
O108 S3 1.490166 1_555
O109 S4 1.487377 1_555
O110 Si22 1.664735 1_555
O111 Si21 1.653893 1_655
O112 S5 1.494421 1_545
O113 Si23 1.630654 1_545
O114 S6 1.477590 1_545
O115 S7 1.486394 1_545
O116 Si24 1.628643 1_555
O117 S8 1.483347 1_555
O118 Si26 1.653444 1_555
O119 Si25 1.641190 1_655
O120 Si19 1.640669 1_555
O121 Si20 1.626584 1_555
O122 Si16 1.644562 1_455
O123 Si15 1.627507 1_555
O124 Si17 1.634303 1_565
O125 Si18 1.628206 1_565
O126 Si11 1.639172 1_565
O127 Si12 1.640316 1_565
O128 Si13 1.624546 1_555
O129 Si14 1.644038 1_555
O130 Si10 1.631727 1_455
O131 Si9 1.640628 1_555
O132 S0 1.513615 1_555
O133 Si0 1.636884 1_565
O134 S1 1.501726 1_555
O135 Si1 1.660498 1_555
O136 Si2 1.718582 1_455
O137 Si3 1.652273 1_555
O138 Si4 1.638328 1_555
O139 S2 1.494762 1_555
O140 Si5 1.657339 1_455
O141 Si6 1.693452 1_555
O142 Si7 1.654880 1_565
O143 Si8 1.687222 1_555
