# generated using pymatgen
data_K(Mo2O3)2
_symmetry_space_group_name_H-M   'P 1'
_cell_length_a   10.11282100
_cell_length_b   10.11282100
_cell_length_c   3.27243700
_cell_angle_alpha   90.00000000
_cell_angle_beta   90.00000000
_cell_angle_gamma   90.00000000
_symmetry_Int_Tables_number   1
_chemical_formula_structural   K(Mo2O3)2
_chemical_formula_sum   'K2 Mo8 O12'
_cell_volume   334.66934577
_cell_formula_units_Z   2
loop_
 _symmetry_equiv_pos_site_id
 _symmetry_equiv_pos_as_xyz
  1  'x, y, z'
loop_
 _atom_site_type_symbol
 _atom_site_label
 _atom_site_symmetry_multiplicity
 _atom_site_fract_x
 _atom_site_fract_y
 _atom_site_fract_z
 _atom_site_occupancy
  K  K0  1  0.00000000  0.00000000  0.50000000  1
  K  K1  1  0.50000000  0.50000000  0.50000000  1
  Mo  Mo0  1  0.11680300  0.61680300  0.00000000  1
  Mo  Mo1  1  0.38319700  0.11680300  0.00000000  1
  Mo  Mo2  1  0.61680300  0.88319700  0.00000000  1
  Mo  Mo3  1  0.88319700  0.38319700  0.00000000  1
  Mo  Mo4  1  0.65288400  0.15288400  0.50000000  1
  Mo  Mo5  1  0.84711600  0.65288400  0.50000000  1
  Mo  Mo6  1  0.15288400  0.34711600  0.50000000  1
  Mo  Mo7  1  0.34711600  0.84711600  0.50000000  1
  O  O0  1  0.29638200  0.20361800  0.50000000  1
  O  O1  1  0.79638200  0.29638200  0.50000000  1
  O  O2  1  0.20361800  0.70361800  0.50000000  1
  O  O3  1  0.70361800  0.79638200  0.50000000  1
  O  O4  1  0.04837500  0.25641600  0.00000000  1
  O  O5  1  0.74358400  0.04837500  0.00000000  1
  O  O6  1  0.25641600  0.95162500  0.00000000  1
  O  O7  1  0.95162500  0.74358400  0.00000000  1
  O  O8  1  0.24358400  0.45162500  0.00000000  1
  O  O9  1  0.54837500  0.24358400  0.00000000  1
  O  O10  1  0.45162500  0.75641600  0.00000000  1
  O  O11  1  0.75641600  0.54837500  0.00000000  1
loop_
_geom_bond_atom_site_label_1
_geom_bond_atom_site_label_2
_geom_bond_distance
_geom_bond_site_symmetry_2
K0 O7 3.104939 1_445
K0 O6 3.104939 1_545
K0 O5 3.104939 1_455
K0 O6 3.104939 1_546
K0 O5 3.104939 1_456
K0 O7 3.104939 1_446
K0 O4 3.104939 1_556
K0 O4 3.104939 1_555
K1 O8 3.104939 1_556
K1 O11 3.104939 1_555
K1 O11 3.104939 1_556
K1 O8 3.104939 1_555
K1 O9 3.104939 1_556
K1 O9 3.104939 1_555
K1 O10 3.104939 1_556
K1 O10 3.104939 1_555
Mo0 O2 2.053968 1_555
Mo0 O2 2.053968 1_554
Mo0 O7 2.105731 1_455
Mo0 O8 2.105731 1_555
Mo1 O0 2.053968 1_554
Mo1 O0 2.053968 1_555
Mo1 O9 2.105731 1_555
Mo1 O6 2.105731 1_545
Mo2 O3 2.053968 1_554
Mo2 O3 2.053968 1_555
Mo2 O5 2.105731 1_565
Mo2 O10 2.105731 1_555
Mo3 O1 2.053968 1_555
Mo3 O1 2.053968 1_554
Mo3 O11 2.105731 1_555
Mo3 O4 2.105731 1_655
Mo4 O1 2.052264 1_555
Mo4 O5 2.153027 1_555
Mo4 O5 2.153027 1_556
Mo4 O9 2.153027 1_556
Mo4 O9 2.153027 1_555
Mo5 O3 2.052264 1_555
Mo5 O7 2.153027 1_555
Mo5 O11 2.153027 1_555
Mo5 O11 2.153027 1_556
Mo5 O7 2.153027 1_556
Mo6 O0 2.052264 1_555
Mo6 O8 2.153027 1_556
Mo6 O8 2.153027 1_555
Mo6 O4 2.153027 1_556
Mo6 O4 2.153027 1_555
Mo7 O2 2.052264 1_555
Mo7 O10 2.153027 1_556
Mo7 O10 2.153027 1_555
Mo7 O6 2.153027 1_555
Mo7 O6 2.153027 1_556
