# generated using pymatgen
data_Mg6Cu16Si7
_symmetry_space_group_name_H-M   'P 1'
_cell_length_a   8.18714560
_cell_length_b   8.18714384
_cell_length_c   8.18714686
_cell_angle_alpha   60.00155739
_cell_angle_beta   60.00157062
_cell_angle_gamma   60.00155293
_symmetry_Int_Tables_number   1
_chemical_formula_structural   Mg6Cu16Si7
_chemical_formula_sum   'Mg6 Cu16 Si7'
_cell_volume   388.05910731
_cell_formula_units_Z   1
loop_
 _symmetry_equiv_pos_site_id
 _symmetry_equiv_pos_as_xyz
  1  'x, y, z'
loop_
 _atom_site_type_symbol
 _atom_site_label
 _atom_site_symmetry_multiplicity
 _atom_site_fract_x
 _atom_site_fract_y
 _atom_site_fract_z
 _atom_site_occupancy
  Mg  Mg0  1  0.29682623  0.70317595  0.29682472  1
  Mg  Mg1  1  0.29682308  0.70317484  0.70317563  1
  Mg  Mg2  1  0.70317587  0.29682631  0.29682546  1
  Mg  Mg3  1  0.70317541  0.70317394  0.29682321  1
  Mg  Mg4  1  0.29682534  0.29682535  0.70317591  1
  Mg  Mg5  1  0.70317458  0.29682410  0.70317396  1
  Cu  Cu0  1  0.12013187  0.12013206  0.12013015  1
  Cu  Cu1  1  0.36040042  0.87986536  0.87986790  1
  Cu  Cu2  1  0.87986709  0.36040115  0.87986705  1
  Cu  Cu3  1  0.87986891  0.87986525  0.36039959  1
  Cu  Cu4  1  0.12013200  0.63960222  0.12013078  1
  Cu  Cu5  1  0.12013162  0.12013218  0.63960257  1
  Cu  Cu6  1  0.63960218  0.12013238  0.12013044  1
  Cu  Cu7  1  0.87986867  0.87986520  0.87986895  1
  Cu  Cu8  1  0.33202734  0.33202951  0.33202778  1
  Cu  Cu9  1  0.99607902  0.66797382  0.66797534  1
  Cu  Cu10  1  0.66797401  0.99607925  0.66797567  1
  Cu  Cu11  1  0.66797371  0.66797437  0.99607978  1
  Cu  Cu12  1  0.33202643  0.00391784  0.33202717  1
  Cu  Cu13  1  0.33202590  0.33202791  0.00391738  1
  Cu  Cu14  1  0.00391838  0.33202750  0.33202539  1
  Cu  Cu15  1  0.66797210  0.66797285  0.66797385  1
  Si  Si0  1  0.00000120  0.99999951  -0.00000015  1
  Si  Si1  1  0.99999934  0.50000053  0.99999945  1
  Si  Si2  1  0.49999992  -0.00000054  -0.00000062  1
  Si  Si3  1  -0.00000005  0.50000060  0.49999990  1
  Si  Si4  1  0.50000023  0.00000003  0.50000073  1
  Si  Si5  1  0.99999953  -0.00000033  0.50000042  1
  Si  Si6  1  0.49999970  0.50000089  0.99999959  1
loop_
_geom_bond_atom_site_label_1
_geom_bond_atom_site_label_2
_geom_bond_distance
_geom_bond_site_symmetry_2
Mg0 Si6 2.944954 1_554
Mg0 Si3 2.944961 1_555
Mg0 Si2 2.944962 1_565
Mg0 Si5 2.944973 1_465
Mg1 Si6 2.944954 1_555
Mg1 Si4 2.944964 1_565
Mg1 Si1 2.944964 1_455
Mg1 Si5 2.944968 1_465
Mg2 Si4 2.944962 1_555
Mg2 Si6 2.944964 1_554
Mg2 Si1 2.944965 1_554
Mg2 Si5 2.944969 1_555
Mg3 Si3 2.944959 1_655
Mg3 Si1 2.944960 1_554
Mg3 Si2 2.944972 1_565
Mg3 Si4 2.944972 1_565
Mg4 Si4 2.944954 1_555
Mg4 Si3 2.944959 1_555
Mg4 Si2 2.944966 1_556
Mg4 Si1 2.944970 1_455
Mg5 Si3 2.944963 1_655
Mg5 Si6 2.944965 1_555
Mg5 Si5 2.944966 1_555
Mg5 Si2 2.944973 1_556
Cu0 Si0 2.409122 1_545
Cu0 Si2 2.541049 1_555
Cu0 Si1 2.541051 1_454
Cu0 Si5 2.541064 1_455
Cu0 Cu13 2.575429 1_555
Cu0 Cu14 2.575433 1_555
Cu0 Cu12 2.575437 1_555
Cu0 Cu2 2.781898 1_454
Cu0 Cu1 2.781904 1_544
Cu0 Cu3 2.781909 1_445
Cu0 Mg4 2.838141 1_554
Cu0 Mg0 2.838153 1_545
Cu0 Mg2 2.838154 1_455
Cu1 Si0 2.409236 1_556
Cu1 Si2 2.540950 1_566
Cu1 Si6 2.541026 1_555
Cu1 Si4 2.541045 1_565
Cu1 Cu11 2.575430 1_555
Cu1 Cu10 2.575441 1_555
Cu1 Cu15 2.575452 1_555
Cu1 Cu4 2.781919 1_556
Cu1 Cu5 2.781934 1_565
Cu1 Mg1 2.838074 1_555
Cu1 Mg0 2.838135 1_556
Cu1 Mg4 2.838155 1_565
Cu2 Si0 2.409251 1_646
Cu2 Si1 2.540943 1_555
Cu2 Si3 2.541045 1_655
Cu2 Si6 2.541046 1_555
Cu2 Cu9 2.575426 1_555
Cu2 Cu5 2.781930 1_655
Cu2 Cu6 2.781932 1_556
Cu2 Mg5 2.838092 1_555
Cu2 Mg4 2.838143 1_655
Cu2 Mg2 2.838146 1_556
Cu3 Si0 2.409240 1_655
Cu3 Si5 2.540955 1_565
Cu3 Si3 2.541027 1_655
Cu3 Si4 2.541055 1_565
Cu3 Cu9 2.575439 1_555
Cu3 Cu4 2.781921 1_655
Cu3 Cu6 2.781944 1_565
Cu3 Mg3 2.838083 1_555
Cu3 Mg0 2.838137 1_655
Cu3 Mg2 2.838163 1_565
Cu4 Si0 2.409222 1_555
Cu4 Si1 2.540954 1_454
Cu4 Si6 2.541048 1_554
Cu4 Si3 2.541058 1_555
Cu4 Cu8 2.575478 1_555
Cu4 Cu7 2.781882 1_454
Cu4 Mg0 2.838091 1_555
Cu4 Mg1 2.838126 1_554
Cu4 Mg3 2.838136 1_455
Cu5 Si0 2.409223 1_546
Cu5 Si5 2.540962 1_455
Cu5 Si3 2.541053 1_555
Cu5 Si4 2.541055 1_555
Cu5 Cu8 2.575487 1_555
Cu5 Cu7 2.781910 1_445
Cu5 Mg4 2.838080 1_555
Cu5 Mg1 2.838139 1_545
Cu5 Mg5 2.838140 1_455
Cu6 Si0 2.409234 1_645
Cu6 Si2 2.540958 1_555
Cu6 Si6 2.541053 1_554
Cu6 Si4 2.541066 1_555
Cu6 Cu8 2.575493 1_555
Cu6 Cu7 2.781903 1_544
Cu6 Mg2 2.838097 1_555
Cu6 Mg5 2.838135 1_554
Cu6 Mg3 2.838146 1_545
Cu7 Si0 2.409150 1_656
Cu7 Si1 2.541025 1_555
Cu7 Si5 2.541052 1_565
Cu7 Si2 2.541053 1_566
Cu7 Cu9 2.575402 1_555
Cu7 Mg1 2.838138 1_655
Cu7 Mg3 2.838138 1_556
Cu7 Mg5 2.838169 1_565
Cu8 Si3 2.363621 1_555
Cu8 Si6 2.363627 1_554
Cu8 Si4 2.363637 1_555
Cu8 Mg0 2.780474 1_555
Cu8 Mg4 2.780483 1_555
Cu8 Mg2 2.780488 1_555
Cu9 Si3 2.363562 1_655
Cu9 Si1 2.363590 1_555
Cu9 Si5 2.363602 1_565
Cu9 Mg1 2.780449 1_655
Cu9 Mg4 2.780548 1_655
Cu9 Mg0 2.780563 1_655
Cu10 Si4 2.363564 1_565
Cu10 Si2 2.363588 1_566
Cu10 Si5 2.363601 1_565
Cu10 Cu7 2.575413 1_555
Cu10 Cu3 2.575459 1_555
Cu10 Cu15 2.686270 1_555
Cu10 Cu11 2.686302 1_555
Cu10 Cu9 2.686308 1_555
Cu10 Mg5 2.780443 1_565
Cu10 Mg4 2.780549 1_565
Cu10 Mg2 2.780560 1_565
Cu11 Si6 2.363559 1_555
Cu11 Si2 2.363595 1_566
Cu11 Si1 2.363599 1_555
Cu11 Cu7 2.575407 1_555
Cu11 Cu2 2.575433 1_555
Cu11 Cu15 2.686264 1_555
Cu11 Cu9 2.686306 1_555
Cu11 Mg3 2.780444 1_556
Cu11 Mg0 2.780540 1_556
Cu11 Mg2 2.780544 1_556
Cu12 Si4 2.363568 1_555
Cu12 Si5 2.363605 1_455
Cu12 Si2 2.363612 1_555
Cu12 Cu5 2.575456 1_555
Cu12 Cu6 2.575459 1_555
Cu12 Cu8 2.686304 1_555
Cu12 Cu14 2.686338 1_555
Cu12 Cu13 2.686347 1_555
Cu12 Mg0 2.780437 1_545
Cu12 Mg1 2.780538 1_545
Cu12 Mg3 2.780543 1_545
Cu13 Si6 2.363564 1_554
Cu13 Si1 2.363602 1_454
Cu13 Si2 2.363615 1_555
Cu13 Cu4 2.575443 1_555
Cu13 Cu6 2.575455 1_555
Cu13 Cu8 2.686300 1_555
Cu13 Cu14 2.686330 1_555
Cu13 Mg4 2.780437 1_554
Cu13 Mg1 2.780526 1_554
Cu13 Mg5 2.780541 1_554
Cu14 Si3 2.363567 1_555
Cu14 Si1 2.363600 1_454
Cu14 Si5 2.363612 1_455
Cu14 Cu4 2.575447 1_555
Cu14 Cu5 2.575462 1_555
Cu14 Cu8 2.686294 1_555
Cu14 Mg2 2.780435 1_455
Cu14 Mg3 2.780527 1_455
Cu14 Mg5 2.780542 1_455
Cu15 Si6 2.363617 1_555
Cu15 Si4 2.363624 1_565
Cu15 Si3 2.363631 1_655
Cu15 Cu2 2.575458 1_555
Cu15 Cu3 2.575470 1_555
Cu15 Cu9 2.686269 1_555
Cu15 Mg1 2.780497 1_555
Cu15 Mg5 2.780498 1_555
Cu15 Mg3 2.780509 1_555
