# generated using pymatgen
data_ThZrF8
_symmetry_space_group_name_H-M   'P 1'
_cell_length_a   8.63297900
_cell_length_b   8.35488900
_cell_length_c   16.62989024
_cell_angle_alpha   78.94017107
_cell_angle_beta   90.00000000
_cell_angle_gamma   90.00000000
_symmetry_Int_Tables_number   1
_chemical_formula_structural   ThZrF8
_chemical_formula_sum   'Th8 Zr8 F64'
_cell_volume   1177.19641797
_cell_formula_units_Z   8
loop_
 _symmetry_equiv_pos_site_id
 _symmetry_equiv_pos_as_xyz
  1  'x, y, z'
loop_
 _atom_site_type_symbol
 _atom_site_label
 _atom_site_symmetry_multiplicity
 _atom_site_fract_x
 _atom_site_fract_y
 _atom_site_fract_z
 _atom_site_occupancy
  Th  Th0  1  0.90675900  0.22211600  0.32227900  1
  Th  Th1  1  0.40675900  0.77788400  0.17772100  1
  Th  Th2  1  0.09324100  0.77788400  0.67772100  1
  Th  Th3  1  0.59324100  0.22211600  0.82227900  1
  Th  Th4  1  0.40296400  0.33414100  0.38843000  1
  Th  Th5  1  0.90296400  0.66585900  0.11157000  1
  Th  Th6  1  0.59703600  0.66585900  0.61157000  1
  Th  Th7  1  0.09703600  0.33414100  0.88843000  1
  Zr  Zr0  1  0.77593000  0.70500400  0.36382200  1
  Zr  Zr1  1  0.27593000  0.29499600  0.13617800  1
  Zr  Zr2  1  0.22407000  0.29499600  0.63617800  1
  Zr  Zr3  1  0.72407000  0.70500400  0.86382200  1
  Zr  Zr4  1  0.76470900  0.17446400  0.57887600  1
  Zr  Zr5  1  0.26470900  0.82553600  0.92112400  1
  Zr  Zr6  1  0.23529100  0.82553600  0.42112400  1
  Zr  Zr7  1  0.73529100  0.17446400  0.07887600  1
  F  F0  1  0.72101800  0.41958500  0.57479200  1
  F  F1  1  0.22101800  0.58041500  0.92520800  1
  F  F2  1  0.27898200  0.58041500  0.42520800  1
  F  F3  1  0.77898200  0.41958500  0.07479200  1
  F  F4  1  0.79289000  0.95893300  0.35278100  1
  F  F5  1  0.29289000  0.04106700  0.14721900  1
  F  F6  1  0.20711000  0.04106700  0.64721900  1
  F  F7  1  0.70711000  0.95893300  0.85278100  1
  F  F8  1  0.58965300  0.54334600  0.40328200  1
  F  F9  1  0.08965300  0.45665400  0.09671800  1
  F  F10  1  0.41034700  0.45665400  0.59671800  1
  F  F11  1  0.91034700  0.54334600  0.90328200  1
  F  F12  1  0.63332600  0.95310000  0.59076600  1
  F  F13  1  0.13332600  0.04690000  0.90923400  1
  F  F14  1  0.36667400  0.04690000  0.40923400  1
  F  F15  1  0.86667400  0.95310000  0.09076600  1
  F  F16  1  0.87562600  0.74374200  0.24838600  1
  F  F17  1  0.37562600  0.25625800  0.25161400  1
  F  F18  1  0.12437400  0.25625800  0.75161400  1
  F  F19  1  0.62437400  0.74374200  0.74838600  1
  F  F20  1  0.71274800  0.15426500  0.70084700  1
  F  F21  1  0.21274800  0.84573500  0.79915300  1
  F  F22  1  0.28725200  0.84573500  0.29915300  1
  F  F23  1  0.78725200  0.15426500  0.20084700  1
  F  F24  1  0.86689300  0.16300400  0.46761500  1
  F  F25  1  0.36689300  0.83699600  0.03238500  1
  F  F26  1  0.13310700  0.83699600  0.53238500  1
  F  F27  1  0.63310700  0.16300400  0.96761500  1
  F  F28  1  0.86584900  0.47196500  0.37467700  1
  F  F29  1  0.36584900  0.52803500  0.12532300  1
  F  F30  1  0.13415100  0.52803500  0.62532300  1
  F  F31  1  0.63415100  0.47196500  0.87467700  1
  F  F32  1  0.09002900  0.20690800  0.21249900  1
  F  F33  1  0.59002900  0.79309200  0.28750100  1
  F  F34  1  0.90997100  0.79309200  0.78750100  1
  F  F35  1  0.40997100  0.20690800  0.71249900  1
  F  F36  1  0.74052400  0.73106300  0.48512900  1
  F  F37  1  0.24052400  0.26893700  0.01487100  1
  F  F38  1  0.25947600  0.26893700  0.51487100  1
  F  F39  1  0.75947600  0.73106300  0.98512900  1
  F  F40  1  0.08622800  0.02153500  0.37593500  1
  F  F41  1  0.58622800  0.97846500  0.12406500  1
  F  F42  1  0.91377200  0.97846500  0.62406500  1
  F  F43  1  0.41377200  0.02153500  0.87593500  1
  F  F44  1  0.01280700  0.72566900  0.40167600  1
  F  F45  1  0.51280700  0.27433100  0.09832400  1
  F  F46  1  0.98719300  0.27433100  0.59832400  1
  F  F47  1  0.48719300  0.72566900  0.90167600  1
  F  F48  1  0.38972700  0.54862700  0.27868100  1
  F  F49  1  0.88972700  0.45137300  0.22131900  1
  F  F50  1  0.61027300  0.45137300  0.72131900  1
  F  F51  1  0.11027300  0.54862700  0.77868100  1
  F  F52  1  0.14376600  0.33653500  0.35221300  1
  F  F53  1  0.64376600  0.66346500  0.14778700  1
  F  F54  1  0.85623400  0.66346500  0.64778700  1
  F  F55  1  0.35623400  0.33653500  0.85221300  1
  F  F56  1  0.57067600  0.22753000  0.50199500  1
  F  F57  1  0.07067600  0.77247000  0.99800500  1
  F  F58  1  0.42932400  0.77247000  0.49800500  1
  F  F59  1  0.92932400  0.22753000  0.00199500  1
  F  F60  1  0.64082700  0.26721600  0.33627400  1
  F  F61  1  0.14082700  0.73278400  0.16372600  1
  F  F62  1  0.35917300  0.73278400  0.66372600  1
  F  F63  1  0.85917300  0.26721600  0.83627400  1
loop_
_geom_bond_atom_site_label_1
_geom_bond_atom_site_label_2
_geom_bond_distance
_geom_bond_site_symmetry_2
F0 Zr4 2.070664 1_555
F0 Th6 2.497238 1_555
F1 Zr5 2.070664 1_555
F1 Th7 2.497238 1_555
F2 Zr6 2.070664 1_555
F2 Th4 2.497238 1_555
F3 Zr7 2.070664 1_555
F3 Th5 2.497238 1_555
F4 Zr0 2.099206 1_555
F4 Th0 2.372914 1_565
F5 Zr1 2.099206 1_555
F5 Th1 2.372914 1_545
F6 Zr2 2.099206 1_555
F6 Th2 2.372914 1_545
F7 Zr3 2.099206 1_555
F7 Th3 2.372914 1_565
F8 Zr0 2.121521 1_555
F8 Th4 2.424717 1_555
F9 Zr1 2.121521 1_555
F9 Th5 2.424717 1_455
F10 Zr2 2.121521 1_555
F10 Th6 2.424717 1_555
F11 Zr3 2.121521 1_555
F11 Th7 2.424717 1_655
F12 Zr4 2.146114 1_565
F12 Th6 2.378793 1_555
F13 Zr5 2.146114 1_545
F13 Th7 2.378793 1_555
F14 Zr6 2.146114 1_545
F14 Th4 2.378793 1_555
F15 Zr7 2.146114 1_565
F15 Th5 2.378793 1_555
F16 Zr0 2.071795 1_555
F16 Th5 2.494761 1_555
F17 Zr1 2.071795 1_555
F17 Th4 2.494761 1_555
F18 Zr2 2.071795 1_555
F18 Th7 2.494761 1_555
F19 Zr3 2.071795 1_555
F19 Th6 2.494761 1_555
F20 Zr4 2.052470 1_555
F20 Th3 2.429601 1_555
F21 Zr5 2.052470 1_555
F21 Th2 2.429601 1_555
F22 Zr6 2.052470 1_555
F22 Th1 2.429601 1_555
F23 Zr7 2.052470 1_555
F23 Th0 2.429601 1_555
F24 Zr4 2.068522 1_555
F24 Th0 2.397061 1_555
F25 Zr5 2.068522 1_554
F25 Th1 2.397061 1_555
F26 Zr6 2.068522 1_555
F26 Th2 2.397061 1_555
F27 Zr7 2.068522 1_556
F27 Th3 2.397061 1_555
F28 Zr0 2.071521 1_555
F28 Th0 2.437087 1_555
F29 Zr1 2.071521 1_555
F29 Th1 2.437087 1_555
F30 Zr2 2.071521 1_555
F30 Th2 2.437087 1_555
F31 Zr3 2.071521 1_555
F31 Th3 2.437087 1_555
F32 Zr1 2.090405 1_555
F32 Th0 2.437481 1_455
F33 Zr0 2.090405 1_555
F33 Th1 2.437481 1_555
F34 Zr3 2.090405 1_555
F34 Th2 2.437481 1_655
F35 Zr2 2.090405 1_555
F35 Th3 2.437481 1_555
F36 Zr0 2.092589 1_555
F36 Th6 2.411034 1_555
F37 Zr1 2.092589 1_555
F37 Th7 2.411034 1_554
F38 Zr2 2.092589 1_555
F38 Th4 2.411034 1_555
F39 Zr3 2.092589 1_555
F39 Th5 2.411034 1_556
F40 Zr6 2.104796 1_545
F40 Th0 2.330532 1_455
F41 Zr7 2.104796 1_565
F41 Th1 2.330532 1_555
F42 Zr4 2.104796 1_565
F42 Th2 2.330532 1_655
F43 Zr5 2.104796 1_545
F43 Th3 2.330532 1_555
F44 Zr6 2.143223 1_555
F44 Zr0 2.156299 1_455
F45 Zr7 2.143223 1_555
F45 Zr1 2.156299 1_555
F46 Zr4 2.143223 1_555
F46 Zr2 2.156299 1_655
F47 Zr5 2.143223 1_555
F47 Zr3 2.156299 1_555
F48 Th1 2.296844 1_555
F48 Th4 2.302294 1_555
F49 Th0 2.296844 1_555
F49 Th5 2.302294 1_555
F50 Th3 2.296844 1_555
F50 Th6 2.302294 1_555
F51 Th2 2.296844 1_555
F51 Th7 2.302294 1_555
F52 Th4 2.316378 1_555
F52 Th0 2.351737 1_455
F53 Th5 2.316378 1_555
F53 Th1 2.351737 1_555
F54 Th6 2.316378 1_555
F54 Th2 2.351737 1_655
F55 Th7 2.316378 1_555
F55 Th3 2.351737 1_555
F56 Zr4 2.102287 1_555
F56 Th4 2.410596 1_555
F57 Zr5 2.102287 1_555
F57 Th5 2.410596 1_456
F58 Zr6 2.102287 1_555
F58 Th6 2.410596 1_555
F59 Zr7 2.102287 1_555
F59 Th7 2.410596 1_654
F60 Th4 2.338319 1_555
F60 Th0 2.345298 1_555
F61 Th5 2.338319 1_455
F61 Th1 2.345298 1_555
F62 Th6 2.338319 1_555
F62 Th2 2.345298 1_555
F63 Th7 2.338319 1_655
F63 Th3 2.345298 1_555
