# generated using pymatgen
data_NaMgFe5O8
_symmetry_space_group_name_H-M   'P 1'
_cell_length_a   6.35302789
_cell_length_b   6.35302718
_cell_length_c   6.34165252
_cell_angle_alpha   60.05914302
_cell_angle_beta   90.00006385
_cell_angle_gamma   120.11856222
_symmetry_Int_Tables_number   1
_chemical_formula_structural   NaMgFe5O8
_chemical_formula_sum   'Na1 Mg1 Fe5 O8'
_cell_volume   180.82463668
_cell_formula_units_Z   1
loop_
 _symmetry_equiv_pos_site_id
 _symmetry_equiv_pos_as_xyz
  1  'x, y, z'
loop_
 _atom_site_type_symbol
 _atom_site_label
 _atom_site_symmetry_multiplicity
 _atom_site_fract_x
 _atom_site_fract_y
 _atom_site_fract_z
 _atom_site_occupancy
  Na  Na0  1  0.60444100  0.79111900  0.60444100  1
  Mg  Mg0  1  0.73897900  0.52204100  0.73897900  1
  Fe  Fe0  1  0.60952200  0.20838600  0.18209200  1
  Fe  Fe1  1  0.00190300  0.99619600  0.00190300  1
  Fe  Fe2  1  0.60952200  0.20838600  0.60952200  1
  Fe  Fe3  1  0.24534700  0.50930400  0.24534700  1
  Fe  Fe4  1  0.18209200  0.78095500  0.60952200  1
  O  O0  1  0.87431700  0.27744400  0.36127800  1
  O  O1  1  0.37683700  0.24632400  0.37683700  1
  O  O2  1  0.86691600  0.26617000  0.86691600  1
  O  O3  1  0.88023100  0.74391300  0.37585600  1
  O  O4  1  0.88023100  0.74391300  0.88023200  1
  O  O5  1  0.37585500  0.23953700  0.88023200  1
  O  O6  1  0.36127900  0.76440600  0.36127800  1
  O  O7  1  0.36127900  0.76440600  0.87431600  1
loop_
_geom_bond_atom_site_label_1
_geom_bond_atom_site_label_2
_geom_bond_distance
_geom_bond_site_symmetry_2
Na0 O0 2.188901 1_565
Na0 O7 2.188903 1_555
Na0 O6 2.188906 1_555
Na0 O5 2.494483 1_555
Na0 O4 2.494484 1_555
Na0 O3 2.494487 1_555
Mg0 O3 1.893534 1_555
Mg0 O5 1.893537 1_555
Mg0 O4 1.893545 1_555
Mg0 O2 1.992679 1_555
Mg0 Na0 2.095519 1_555
Fe0 O6 2.017578 1_545
Fe0 O0 2.017587 1_555
Fe0 O1 2.103156 1_555
Fe0 Mg0 2.304209 1_554
Fe0 O2 2.338551 1_554
Fe0 O4 2.413304 1_554
Fe0 O5 2.413309 1_554
Fe1 O5 1.937209 1_564
Fe1 O3 1.937216 1_455
Fe1 O4 1.937222 1_454
Fe1 O2 2.102502 1_464
Fe2 O7 2.017578 1_545
Fe2 O0 2.017589 1_555
Fe2 O1 2.103162 1_555
Fe2 Mg0 2.304206 1_555
Fe2 O2 2.338559 1_555
Fe2 O3 2.413305 1_555
Fe2 O5 2.413317 1_555
Fe3 O0 1.923777 1_455
Fe3 O7 1.923783 1_554
Fe3 O6 1.923795 1_555
Fe3 O1 2.048034 1_555
Fe4 O6 2.017584 1_555
Fe4 O7 2.017587 1_555
Fe4 O1 2.103154 1_565
Fe4 Mg0 2.304209 1_455
Fe4 O2 2.338540 1_455
Fe4 O3 2.413309 1_455
Fe4 O4 2.413320 1_455
