# generated using pymatgen
data_Rb3Cu2Cl7
_symmetry_space_group_name_H-M   'P 1'
_cell_length_a   12.98443951
_cell_length_b   12.98443951
_cell_length_c   7.16394626
_cell_angle_alpha   90.00000000
_cell_angle_beta   90.00000000
_cell_angle_gamma   148.01648511
_symmetry_Int_Tables_number   1
_chemical_formula_structural   Rb3Cu2Cl7
_chemical_formula_sum   'Rb6 Cu4 Cl14'
_cell_volume   639.74722166
_cell_formula_units_Z   2
loop_
 _symmetry_equiv_pos_site_id
 _symmetry_equiv_pos_as_xyz
  1  'x, y, z'
loop_
 _atom_site_type_symbol
 _atom_site_label
 _atom_site_symmetry_multiplicity
 _atom_site_fract_x
 _atom_site_fract_y
 _atom_site_fract_z
 _atom_site_occupancy
  Rb  Rb0  1  0.82080732  0.17919268  0.50000000  1
  Rb  Rb1  1  0.17919268  0.82080732  0.50000000  1
  Rb  Rb2  1  0.67919268  0.32080732  -0.00000000  1
  Rb  Rb3  1  0.32080732  0.67919268  -0.00000000  1
  Rb  Rb4  1  -0.00000000  0.00000000  0.50000000  1
  Rb  Rb5  1  0.50000000  0.50000000  -0.00000000  1
  Cu  Cu0  1  0.59417090  0.40582910  0.50000000  1
  Cu  Cu1  1  0.40582910  0.59417090  0.50000000  1
  Cu  Cu2  1  0.90582910  0.09417090  -0.00000000  1
  Cu  Cu3  1  0.09417090  0.90582910  -0.00000000  1
  Cl  Cl0  1  0.31227560  0.12900453  0.77944872  1
  Cl  Cl1  1  0.12900453  0.31227560  0.22055128  1
  Cl  Cl2  1  0.68772440  0.87099547  0.77944872  1
  Cl  Cl3  1  0.87099547  0.68772440  0.22055128  1
  Cl  Cl4  1  0.18772440  0.37099547  0.72055128  1
  Cl  Cl5  1  0.37099547  0.18772440  0.27944872  1
  Cl  Cl6  1  0.81227560  0.62900453  0.72055128  1
  Cl  Cl7  1  0.62900453  0.81227560  0.27944872  1
  Cl  Cl8  1  0.68870995  0.31129005  0.50000000  1
  Cl  Cl9  1  0.31129005  0.68870995  0.50000000  1
  Cl  Cl10  1  0.50000000  0.50000000  0.50000000  1
  Cl  Cl11  1  -0.00000000  0.00000000  -0.00000000  1
  Cl  Cl12  1  0.18870995  0.81129005  -0.00000000  1
  Cl  Cl13  1  0.81129005  0.18870995  -0.00000000  1
loop_
_geom_bond_atom_site_label_1
_geom_bond_atom_site_label_2
_geom_bond_distance
_geom_bond_site_symmetry_2
Cl0 Cu3 2.234340 1_546
Cl0 Cu0 2.829567 1_555
Cl0 Rb2 3.356882 1_556
Cl0 Rb1 3.358158 1_545
Cl0 Rb5 3.424048 1_556
Cl0 Rb4 3.425299 1_555
Cl1 Cu2 2.234340 1_455
Cl1 Cu1 2.829567 1_555
Cl1 Rb3 3.356882 1_555
Cl1 Rb0 3.358158 1_455
Cl1 Rb5 3.424048 1_555
Cl1 Rb4 3.425299 1_555
Cl2 Cu2 2.234340 1_566
Cl2 Cu1 2.829567 1_555
Cl2 Rb3 3.356882 1_556
Cl2 Rb0 3.358158 1_565
Cl2 Rb5 3.424048 1_556
Cl2 Rb4 3.425299 1_665
Cl3 Cu3 2.234340 1_655
Cl3 Cu0 2.829567 1_555
Cl3 Rb2 3.356882 1_555
Cl3 Rb1 3.358158 1_655
Cl3 Rb5 3.424048 1_555
Cl3 Rb4 3.425299 1_665
Cl4 Cu1 2.234340 1_555
Cl4 Cu2 2.829567 1_456
Cl4 Rb0 3.356882 1_455
Cl4 Rb3 3.358158 1_556
Cl4 Rb4 3.424048 1_555
Cl4 Rb5 3.425299 1_556
Cl5 Cu0 2.234340 1_555
Cl5 Cu3 2.829567 1_545
Cl5 Rb1 3.356882 1_545
Cl5 Rb2 3.358158 1_555
Cl5 Rb4 3.424048 1_555
Cl5 Rb5 3.425299 1_555
Cl6 Cu0 2.234340 1_555
Cl6 Cu3 2.829567 1_656
Cl6 Rb1 3.356882 1_655
Cl6 Rb2 3.358158 1_556
Cl6 Rb4 3.424048 1_665
Cl6 Rb5 3.425299 1_556
Cl7 Cu1 2.234340 1_555
Cl7 Cu2 2.829567 1_565
Cl7 Rb0 3.356882 1_565
Cl7 Rb3 3.358158 1_555
Cl7 Rb4 3.424048 1_665
Cl7 Rb5 3.425299 1_555
Cl8 Cu0 2.360065 1_555
Cl8 Rb0 3.297668 1_555
Cl8 Rb1 3.585082 1_655
Cl8 Rb1 3.585082 1_545
Cl8 Rb2 3.589844 1_555
Cl8 Rb2 3.589844 1_556
Cl9 Cu1 2.360065 1_555
Cl9 Rb1 3.297668 1_555
Cl9 Rb0 3.585082 1_565
Cl9 Rb0 3.585082 1_455
Cl9 Rb3 3.589844 1_555
Cl9 Rb3 3.589844 1_556
Cl10 Cu0 2.350875 1_555
Cl10 Cu1 2.350875 1_555
Cl10 Rb4 3.577201 1_665
Cl10 Rb4 3.577201 1_555
Cl10 Rb5 3.581973 1_555
Cl10 Rb5 3.581973 1_556
Cl11 Cu2 2.350875 1_455
Cl11 Cu3 2.350875 1_545
Cl11 Rb5 3.577201 1_555
Cl11 Rb5 3.577201 1_445
Cl11 Rb4 3.581973 1_554
Cl11 Rb4 3.581973 1_555
Cl12 Cu3 2.360065 1_555
Cl12 Rb3 3.297668 1_555
Cl12 Rb2 3.585082 1_565
Cl12 Rb2 3.585082 1_455
Cl12 Rb1 3.589844 1_555
Cl12 Rb1 3.589844 1_554
Cl13 Cu2 2.360065 1_555
Cl13 Rb2 3.297668 1_555
Cl13 Rb3 3.585082 1_545
Cl13 Rb3 3.585082 1_655
Cl13 Rb0 3.589844 1_554
Cl13 Rb0 3.589844 1_555
