# generated using pymatgen
data_Na3Ca2In2PS5O24
_symmetry_space_group_name_H-M   'P 1'
_cell_length_a   9.09126712
_cell_length_b   9.06728350
_cell_length_c   23.64819094
_cell_angle_alpha   89.95606502
_cell_angle_beta   89.99416692
_cell_angle_gamma   119.92855206
_symmetry_Int_Tables_number   1
_chemical_formula_structural   Na3Ca2In2PS5O24
_chemical_formula_sum   'Na9 Ca6 In6 P3 S15 O72'
_cell_volume   1689.43775674
_cell_formula_units_Z   3
loop_
 _symmetry_equiv_pos_site_id
 _symmetry_equiv_pos_as_xyz
  1  'x, y, z'
loop_
 _atom_site_type_symbol
 _atom_site_label
 _atom_site_symmetry_multiplicity
 _atom_site_fract_x
 _atom_site_fract_y
 _atom_site_fract_z
 _atom_site_occupancy
  Na  Na0  1  0.36902410  0.99783053  0.74902121  1
  Na  Na1  1  0.66260436  0.96558376  0.58839493  1
  Na  Na2  1  0.67206266  0.69970368  0.08132747  1
  Na  Na3  1  0.02615025  0.00253141  0.50097477  1
  Na  Na4  1  0.01228420  0.00085434  -0.00021839  1
  Na  Na5  1  0.68038917  0.33701331  0.83353448  1
  Na  Na6  1  0.66669985  0.33344076  0.33343561  1
  Na  Na7  1  0.30629463  0.66380083  0.16612741  1
  Na  Na8  1  0.33312892  0.66196486  0.66665664  1
  Ca  Ca0  1  0.00502337  0.00130040  0.64786189  1
  Ca  Ca1  1  0.00792771  0.00222870  0.14827802  1
  Ca  Ca2  1  0.31726630  0.66569485  0.01591418  1
  Ca  Ca3  1  0.32739194  0.66683249  0.51488569  1
  Ca  Ca4  1  0.33249420  0.66681888  0.31804967  1
  Ca  Ca5  1  0.33953380  0.66596112  0.81920818  1
  In  In0  1  0.00111929  0.00011805  0.34763147  1
  In  In1  1  0.98789026  0.00025451  0.84730501  1
  In  In2  1  0.66907477  0.33083330  0.68360265  1
  In  In3  1  0.67317123  0.33485227  0.18487804  1
  In  In4  1  0.67304643  0.33544827  0.98303897  1
  In  In5  1  0.65955887  0.33091842  0.48249088  1
  P  P0  1  0.70139629  0.00526841  0.74720275  1
  P  P1  1  0.37680333  0.04187385  0.58362811  1
  P  P2  1  0.95448398  0.62198055  0.08414387  1
  S  S0  1  0.30465998  0.00853634  0.25009628  1
  S  S1  1  0.70381483  0.69892491  0.24905442  1
  S  S2  1  0.99356293  0.29371343  0.25033568  1
  S  S3  1  0.29947626  0.29441584  0.75033799  1
  S  S4  1  0.99449817  0.70040967  0.75095713  1
  S  S5  1  0.95707495  0.33563523  0.58241100  1
  S  S6  1  0.66611288  0.62353377  0.58313230  1
  S  S7  1  0.66483195  0.03976617  0.08341726  1
  S  S8  1  0.38039471  0.33462723  0.08259827  1
  S  S9  1  0.64231229  0.66675086  0.91884122  1
  S  S10  1  0.02563377  0.35692922  0.91611538  1
  S  S11  1  0.33202177  0.97874626  0.91470004  1
  S  S12  1  0.64421295  0.97470489  0.41725182  1
  S  S13  1  0.33164307  0.35843396  0.41588660  1
  S  S14  1  0.02255097  0.66599303  0.41614105  1
  O  O0  1  0.22482425  0.03297291  0.30222927  1
  O  O1  1  0.81236288  0.78393387  0.29989016  1
  O  O2  1  0.97225182  0.19081962  0.30262306  1
  O  O3  1  0.22034501  0.18360057  0.80159265  1
  O  O4  1  0.97074688  0.77912352  0.80319105  1
  O  O5  1  0.81074802  0.02786301  0.80071043  1
  O  O6  1  0.77931051  0.98719483  0.69233659  1
  O  O7  1  0.20095744  0.21435250  0.69949505  1
  O  O8  1  0.02096215  0.80619112  0.70093874  1
  O  O9  1  0.78153095  0.79466285  0.19683009  1
  O  O10  1  0.01028735  0.21123125  0.19971137  1
  O  O11  1  0.20424231  0.98927127  0.19961005  1
  O  O12  1  0.87955983  0.35977777  0.63454794  1
  O  O13  1  0.48068673  0.12337473  0.63947542  1
  O  O14  1  0.65162642  0.52482007  0.63516303  1
  O  O15  1  0.86895254  0.51637400  0.13820641  1
  O  O16  1  0.64207359  0.11985005  0.13487347  1
  O  O17  1  0.48233042  0.35365090  0.13440919  1
  O  O18  1  0.45968674  0.31038838  0.03109359  1
  O  O19  1  0.84243432  0.53718675  0.03092820  1
  O  O20  1  0.68077650  0.13859064  0.03152656  1
  O  O21  1  0.46908991  0.15169143  0.53118112  1
  O  O22  1  0.68764960  0.54323479  0.53165308  1
  O  O23  1  0.85334056  0.31719311  0.53143378  1
  O  O24  1  0.56706452  0.68842614  0.97138333  1
  O  O25  1  0.12486014  0.43423179  0.96742342  1
  O  O26  1  0.30853535  0.87300946  0.96463666  1
  O  O27  1  0.57158292  0.87843312  0.47011456  1
  O  O28  1  0.30916121  0.43531696  0.46732706  1
  O  O29  1  0.12360129  0.69139259  0.46735207  1
  O  O30  1  0.10023877  0.64069746  0.36547632  1
  O  O31  1  0.53660244  0.89119572  0.36797956  1
  O  O32  1  0.35325260  0.46009657  0.36512879  1
  O  O33  1  0.10373839  0.45913249  0.86528694  1
  O  O34  1  0.35670388  0.90439784  0.86243215  1
  O  O35  1  0.53843148  0.64642970  0.86890260  1
  O  O36  1  0.00377364  0.82191924  0.41005908  1
  O  O37  1  0.81711281  0.99239185  0.41039609  1
  O  O38  1  0.17742899  0.18283321  0.41061649  1
  O  O39  1  0.00805070  0.18298228  0.91144215  1
  O  O40  1  0.17717004  0.99781309  0.90943920  1
  O  O41  1  0.81648148  0.82132548  0.91283841  1
  O  O42  1  0.96002788  0.17343533  0.58573483  1
  O  O43  1  0.19972313  0.02127188  0.58494722  1
  O  O44  1  0.81577592  0.79759016  0.58579737  1
  O  O45  1  0.96031888  0.79591641  0.08627589  1
  O  O46  1  0.81930186  0.02375123  0.08682342  1
  O  O47  1  0.20823717  0.18750082  0.08615514  1
  O  O48  1  0.68132547  0.16990457  0.74713381  1
  O  O49  1  0.47122441  0.30600341  0.74694963  1
  O  O50  1  0.83865612  0.52913280  0.74579009  1
  O  O51  1  0.68840522  0.52546991  0.24737923  1
  O  O52  1  0.83408010  0.30622895  0.24812096  1
  O  O53  1  0.47713552  0.16708389  0.24631671  1
  O  O54  1  0.66014087  0.51053685  0.92167932  1
  O  O55  1  0.85014432  0.33528243  0.92060360  1
  O  O56  1  0.48749994  0.15208772  0.92159390  1
  O  O57  1  0.66516865  0.15028805  0.42105151  1
  O  O58  1  0.48737209  0.33974290  0.42005625  1
  O  O59  1  0.84795987  0.51185313  0.42200778  1
  O  O60  1  0.37717481  0.49705435  0.07841134  1
  O  O61  1  0.13166132  0.64203507  0.08122091  1
  O  O62  1  0.51535382  0.86508486  0.07978084  1
  O  O63  1  0.37416649  0.86923959  0.58042020  1
  O  O64  1  0.51133219  0.63949151  0.57998450  1
  O  O65  1  0.12906147  0.48282312  0.57865035  1
  O  O66  1  0.32477988  0.85752680  0.25561925  1
  O  O67  1  0.53431478  0.68065716  0.25543551  1
  O  O68  1  0.14349762  0.46539906  0.25520127  1
  O  O69  1  0.31968999  0.46448774  0.75650256  1
  O  O70  1  0.14857480  0.68415816  0.75693446  1
  O  O71  1  0.51834063  0.85202487  0.75355303  1
loop_
_geom_bond_atom_site_label_1
_geom_bond_atom_site_label_2
_geom_bond_distance
_geom_bond_site_symmetry_2
Na0 O71 2.322213 1_555
Na0 O48 2.465171 1_565
Na0 O49 2.466348 1_565
Na0 O70 2.540115 1_555
Na0 O34 2.797313 1_555
Na0 O13 2.806993 1_565
Na0 O3 2.912851 1_565
Na0 O8 2.973625 1_555
Na1 O63 2.321536 1_555
Na1 O42 2.404584 1_565
Na1 O44 2.525841 1_555
Na1 O64 2.572316 1_555
Na1 O6 2.645726 1_555
Na1 O27 2.912805 1_555
Na1 O13 2.933394 1_565
Na2 O45 2.315457 1_555
Na2 O60 2.377625 1_555
Na2 O62 2.532081 1_555
Na2 O46 2.553027 1_565
Na2 O24 2.754099 1_554
Na2 O19 2.875910 1_555
Na2 O9 2.888184 1_555
Na2 O17 2.998241 1_555
Na3 O43 2.489163 1_555
Na3 O38 2.623099 1_555
Na3 O36 2.649309 1_545
Na3 O44 2.753511 1_445
Na3 O42 2.777496 1_455
Na3 O37 2.834621 1_445
Na4 O40 2.617797 1_544
Na4 O45 2.641589 1_445
Na4 O39 2.674131 1_554
Na4 O41 2.675886 1_444
Na4 O47 2.684682 1_555
Na4 O46 2.778763 1_455
Na5 O48 2.547220 1_555
Na5 O55 2.578051 1_555
Na5 O50 2.627404 1_555
Na5 O54 2.673648 1_555
Na5 O56 2.698729 1_555
Na5 O49 2.712150 1_555
Na6 O52 2.611836 1_555
Na6 O51 2.619893 1_555
Na6 O53 2.627036 1_555
Na6 O58 2.636226 1_555
Na6 O57 2.650050 1_555
Na6 O59 2.658121 1_555
Na7 O61 2.505943 1_555
Na7 O68 2.683397 1_555
Na7 O66 2.702554 1_555
Na7 O62 2.764963 1_555
Na7 O60 2.825020 1_555
Na7 O67 2.909695 1_555
Na8 O63 2.669194 1_555
Na8 O71 2.671799 1_555
Na8 O64 2.682653 1_555
Na8 O65 2.722252 1_555
Na8 O69 2.740666 1_555
Na8 O70 2.783931 1_555
Ca0 O7 2.228490 1_555
Ca0 O8 2.231286 1_545
Ca0 O43 2.249165 1_555
Ca0 O6 2.251837 1_445
Ca0 O44 2.315098 1_445
Ca0 O42 2.322852 1_455
Ca1 O11 2.209562 1_545
Ca1 O45 2.243454 1_445
Ca1 O10 2.243698 1_555
Ca1 O9 2.286399 1_445
Ca1 O47 2.289034 1_555
Ca1 O46 2.329129 1_455
Ca2 O61 2.217243 1_555
Ca2 O25 2.262811 1_554
Ca2 O26 2.270624 1_554
Ca2 O62 2.355580 1_555
Ca2 O60 2.376312 1_555
Ca2 O24 2.416800 1_554
Ca3 O29 2.271001 1_555
Ca3 O63 2.275222 1_555
Ca3 O65 2.302693 1_555
Ca3 O28 2.314209 1_555
Ca3 O27 2.340254 1_555
Ca3 O64 2.375174 1_555
Ca4 O32 2.266795 1_555
Ca4 O31 2.283345 1_555
Ca4 O30 2.296188 1_555
Ca4 O66 2.300399 1_555
Ca4 O67 2.311752 1_555
Ca4 O68 2.317354 1_555
Ca5 O35 2.236465 1_555
Ca5 O71 2.271196 1_555
Ca5 O69 2.289994 1_555
Ca5 O33 2.298840 1_555
Ca5 O34 2.325940 1_555
Ca5 O70 2.344319 1_555
In0 O2 2.154472 1_455
In0 O1 2.170042 1_445
In0 O0 2.184543 1_555
In0 O36 2.196825 1_545
In0 O38 2.210656 1_555
In0 O37 2.211062 1_445
In1 O5 2.067017 1_555
In1 O39 2.186340 1_655
In1 O4 2.196420 1_545
In1 O3 2.211223 1_655
In1 O41 2.221522 1_545
In1 O40 2.271369 1_645
In2 O13 2.085511 1_555
In2 O48 2.134868 1_555
In2 O12 2.138769 1_555
In2 O14 2.169461 1_555
In2 O50 2.238523 1_555
In2 O49 2.263851 1_555
In3 O15 2.041765 1_555
In3 O16 2.175411 1_555
In3 O17 2.181482 1_555
In3 O52 2.196086 1_555
In3 O53 2.211817 1_555
In3 O51 2.226252 1_555
In4 O19 2.047619 1_556
In4 O20 2.151249 1_556
In4 O18 2.159833 1_556
In4 O55 2.184991 1_555
In4 O54 2.195920 1_555
In4 O56 2.219635 1_555
In5 O21 2.038133 1_555
In5 O22 2.153114 1_555
In5 O23 2.162803 1_555
In5 O58 2.182222 1_555
In5 O59 2.205220 1_555
In5 O57 2.209766 1_555
O0 S0 1.502172 1_555
O1 S1 1.501951 1_555
O2 S2 1.501572 1_555
O3 S3 1.507632 1_555
O4 S4 1.495631 1_555
O5 P0 1.558478 1_555
O6 P0 1.525791 1_565
O7 S3 1.458631 1_555
O8 S4 1.464552 1_455
O9 S1 1.471117 1_555
O10 S2 1.459618 1_455
O11 S0 1.459717 1_565
O12 S5 1.489584 1_555
O13 P1 1.577215 1_555
O14 S6 1.487650 1_555
O15 P2 1.552748 1_555
O16 S7 1.483923 1_555
O17 S8 1.493593 1_555
O18 S8 1.486532 1_555
O19 P2 1.559732 1_555
O20 S7 1.482716 1_555
O21 P1 1.548544 1_555
O22 S6 1.481235 1_555
O23 S5 1.487889 1_555
O24 S9 1.478123 1_555
O25 S10 1.465558 1_555
O26 S11 1.467405 1_555
O27 S12 1.477760 1_555
O28 S13 1.466624 1_555
O29 S14 1.467371 1_555
O30 S14 1.465894 1_555
O31 S12 1.466475 1_555
O32 S13 1.465149 1_555
O33 S10 1.466050 1_555
O34 S11 1.478099 1_555
O35 S9 1.465415 1_555
O36 S14 1.513030 1_555
O37 S12 1.507041 1_555
O38 S13 1.513002 1_555
O39 S10 1.508012 1_555
O40 S11 1.506694 1_555
O41 S9 1.508953 1_555
O42 S5 1.486309 1_555
O43 P1 1.525612 1_555
O44 S6 1.484417 1_555
O45 P2 1.552200 1_555
O46 S7 1.484318 1_555
O47 S8 1.467219 1_555
O48 P0 1.591715 1_555
O49 S3 1.513842 1_555
O50 S4 1.496289 1_555
O51 S1 1.508319 1_555
O52 S2 1.510636 1_555
O53 S0 1.511233 1_555
O54 S9 1.505328 1_555
O55 S10 1.510836 1_655
O56 S11 1.509469 1_545
O57 S12 1.508841 1_545
O58 S13 1.510724 1_555
O59 S14 1.509321 1_655
O60 S8 1.490811 1_555
O61 P2 1.529739 1_455
O62 S7 1.488385 1_565
O63 P1 1.555412 1_565
O64 S6 1.486515 1_555
O65 S5 1.466758 1_455
O66 S0 1.474787 1_565
O67 S1 1.473098 1_555
O68 S2 1.475664 1_455
O69 S3 1.466506 1_555
O70 S4 1.486531 1_455
O71 P0 1.554047 1_565
