# generated using pymatgen
data_Na10Hf6Mg2Si7S5O48
_symmetry_space_group_name_H-M   'P 1'
_cell_length_a   18.07583509
_cell_length_b   9.06908006
_cell_length_c   22.83970983
_cell_angle_alpha   90.03017909
_cell_angle_beta   90.01048109
_cell_angle_gamma   120.10486192
_symmetry_Int_Tables_number   1
_chemical_formula_structural   Na10Hf6Mg2Si7S5O48
_chemical_formula_sum   'Na30 Hf18 Mg6 Si21 S15 O144'
_cell_volume   3239.08862178
_cell_formula_units_Z   3
loop_
 _symmetry_equiv_pos_site_id
 _symmetry_equiv_pos_as_xyz
  1  'x, y, z'
loop_
 _atom_site_type_symbol
 _atom_site_label
 _atom_site_symmetry_multiplicity
 _atom_site_fract_x
 _atom_site_fract_y
 _atom_site_fract_z
 _atom_site_occupancy
  Na  Na0  1  0.81726325  0.01124846  0.24803141  1
  Na  Na1  1  0.18763563  0.37670578  0.24711931  1
  Na  Na2  1  0.68986087  0.36100483  0.25270264  1
  Na  Na3  1  0.99164246  0.61432526  0.25243471  1
  Na  Na4  1  0.49476294  0.63714710  0.24486260  1
  Na  Na5  1  0.31817962  0.62288879  0.74833379  1
  Na  Na6  1  0.99477274  0.35096105  0.74646313  1
  Na  Na7  1  0.49142155  0.37125729  0.75185752  1
  Na  Na8  1  0.19256448  0.02331148  0.74751287  1
  Na  Na9  1  0.68692212  0.99613579  0.74761906  1
  Na  Na10  1  0.14805351  0.32587565  0.58169383  1
  Na  Na11  1  0.01640327  0.69314394  0.58355917  1
  Na  Na12  1  0.48801206  0.66406317  0.91821793  1
  Na  Na13  1  0.99282080  0.67626644  0.92009497  1
  Na  Na14  1  0.84936860  0.02588998  0.91379438  1
  Na  Na15  1  0.49312577  0.31225822  0.41978044  1
  Na  Na16  1  0.16413248  0.02433990  0.41960882  1
  Na  Na17  1  0.35039312  0.66934337  0.41295114  1
  Na  Na18  1  0.99731078  0.00401047  0.50006525  1
  Na  Na19  1  0.51089247  0.00943045  0.49487224  1
  Na  Na20  1  0.00946737  0.01116190  0.99522402  1
  Na  Na21  1  0.50282883  0.00880923  0.00088280  1
  Na  Na22  1  0.32822280  0.31629344  0.82925086  1
  Na  Na23  1  0.83164840  0.33234597  0.83160981  1
  Na  Na24  1  0.33680359  0.34126734  0.33109475  1
  Na  Na25  1  0.83132633  0.33867404  0.33062910  1
  Na  Na26  1  0.17384185  0.66960425  0.16313659  1
  Na  Na27  1  0.66201236  0.67103449  0.16365881  1
  Na  Na28  1  0.16941904  0.67464544  0.66453190  1
  Na  Na29  1  0.67247836  0.67810056  0.66348159  1
  Hf  Hf0  1  0.99402938  0.99658492  0.35368132  1
  Hf  Hf1  1  0.50553377  0.99266374  0.35467419  1
  Hf  Hf2  1  0.00391126  0.01661247  0.85521375  1
  Hf  Hf3  1  0.49801863  0.00228914  0.85335268  1
  Hf  Hf4  1  0.99700006  0.01364014  0.64618579  1
  Hf  Hf5  1  0.49800114  0.99165846  0.64822598  1
  Hf  Hf6  1  0.99732222  0.00519497  0.14753432  1
  Hf  Hf7  1  0.49491133  0.97421492  0.14574410  1
  Hf  Hf8  1  0.33473133  0.32461895  0.98130707  1
  Hf  Hf9  1  0.83234721  0.33722033  0.97802472  1
  Hf  Hf10  1  0.33104879  0.32613156  0.48019559  1
  Hf  Hf11  1  0.83474426  0.33810817  0.47848129  1
  Hf  Hf12  1  0.66040001  0.65995597  0.01652448  1
  Hf  Hf13  1  0.16407503  0.67128876  0.51651286  1
  Hf  Hf14  1  0.16925234  0.66369978  0.31650219  1
  Hf  Hf15  1  0.66540406  0.66202425  0.31701722  1
  Hf  Hf16  1  0.16582504  0.66971875  0.81746835  1
  Hf  Hf17  1  0.67035736  0.67555531  0.81676800  1
  Mg  Mg0  1  0.33117519  0.32264377  0.68882953  1
  Mg  Mg1  1  0.83650784  0.32472669  0.68071286  1
  Mg  Mg2  1  0.33833074  0.34838986  0.18011232  1
  Mg  Mg3  1  0.83372019  0.33465661  0.18890026  1
  Mg  Mg4  1  0.16135896  0.66847683  0.01530947  1
  Mg  Mg5  1  0.66042527  0.65456957  0.51492362  1
  Si  Si0  1  0.64786029  0.00006805  0.24857239  1
  Si  Si1  1  0.35110682  0.70152339  0.25105540  1
  Si  Si2  1  0.85262726  0.70614095  0.24889245  1
  Si  Si3  1  0.00069111  0.29567144  0.24958183  1
  Si  Si4  1  0.14809855  0.29771941  0.74920122  1
  Si  Si5  1  0.50022437  0.70489221  0.75054304  1
  Si  Si6  1  0.35276429  -0.00096293  0.74937739  1
  Si  Si7  1  0.85092591  0.99976890  0.75075078  1
  Si  Si8  1  0.97885401  0.33555164  0.58445693  1
  Si  Si9  1  0.18732928  0.03776686  0.58692641  1
  Si  Si10  1  0.48079153  0.62319337  0.08398038  1
  Si  Si11  1  0.81159303  0.66728625  0.91786018  1
  Si  Si12  1  0.02406566  0.37901441  0.92027096  1
  Si  Si13  1  0.51979709  0.37069054  0.91475613  1
  Si  Si14  1  0.16805488  0.96096793  0.91820255  1
  Si  Si15  1  0.66497130  0.95962177  0.91734317  1
  Si  Si16  1  0.31361339  0.95803524  0.41648595  1
  Si  Si17  1  0.16471644  0.37114896  0.41864136  1
  Si  Si18  1  0.66771607  0.37563579  0.41813275  1
  Si  Si19  1  0.01804874  0.66447977  0.41406721  1
  Si  Si20  1  0.52321821  0.66846167  0.42010601  1
  S  S0  1  0.14576761  0.00170315  0.24900162  1
  S  S1  1  0.49748042  0.28721758  0.24989916  1
  S  S2  1  0.64592477  0.29020926  0.74868608  1
  S  S3  1  0.99706468  0.70567323  0.75002832  1
  S  S4  1  0.48199342  0.33657885  0.58560159  1
  S  S5  1  0.68725073  0.03895301  0.58449969  1
  S  S6  1  0.33563820  0.62709152  0.58404415  1
  S  S7  1  0.82910340  0.61825467  0.58515864  1
  S  S8  1  0.98065574  0.62566630  0.08566857  1
  S  S9  1  0.33134159  0.03945420  0.08585260  1
  S  S10  1  0.83353749  0.04266819  0.08430084  1
  S  S11  1  0.18728760  0.33525176  0.08472561  1
  S  S12  1  0.68844680  0.33490576  0.08558485  1
  S  S13  1  0.31134263  0.66517289  0.91862292  1
  S  S14  1  0.81003833  0.95555206  0.41931262  1
  O  O0  1  0.10692164  0.02953679  0.30270902  1
  O  O1  1  0.60299593  0.03594209  0.30446704  1
  O  O2  1  0.41156607  0.79382873  0.30814378  1
  O  O3  1  0.91556684  0.79977913  0.30490920  1
  O  O4  1  0.48830027  0.19004861  0.30390246  1
  O  O5  1  0.98755723  0.17024852  0.30492838  1
  O  O6  1  0.09974222  0.16717399  0.80319099  1
  O  O7  1  0.60606815  0.18118043  0.80129729  1
  O  O8  1  0.48760105  0.79926458  0.80791043  1
  O  O9  1  0.98814425  0.78761908  0.80310087  1
  O  O10  1  0.41571104  0.02606621  0.80469345  1
  O  O11  1  0.91118993  0.02964869  0.80809075  1
  O  O12  1  0.40149543  0.96690311  0.69344626  1
  O  O13  1  0.89898754  0.97340087  0.69427494  1
  O  O14  1  0.08646134  0.20950120  0.69096447  1
  O  O15  1  0.58999266  0.20714123  0.69655933  1
  O  O16  1  0.01196956  0.81218786  0.69704558  1
  O  O17  1  0.51976545  0.84092651  0.69570304  1
  O  O18  1  0.39874804  0.82348146  0.19415657  1
  O  O19  1  0.90180916  0.83760424  0.19352668  1
  O  O20  1  0.02035620  0.20195263  0.19398465  1
  O  O21  1  0.51327611  0.20884557  0.19826479  1
  O  O22  1  0.08895128  0.97378188  0.19745132  1
  O  O23  1  0.58302194  0.96586370  0.19323134  1
  O  O24  1  0.43933147  0.35413382  0.63756673  1
  O  O25  1  0.94381585  0.37913045  0.64296405  1
  O  O26  1  0.24198718  0.12865898  0.64388390  1
  O  O27  1  0.73539588  0.12181037  0.63882519  1
  O  O28  1  0.32500610  0.52520280  0.63638684  1
  O  O29  1  0.81800186  0.51392509  0.63725551  1
  O  O30  1  0.44165352  0.52035370  0.14370212  1
  O  O31  1  0.93671501  0.52251897  0.13731630  1
  O  O32  1  0.31932493  0.12191164  0.13722656  1
  O  O33  1  0.82461846  0.12489147  0.13675382  1
  O  O34  1  0.23510285  0.34866717  0.13893737  1
  O  O35  1  0.73898107  0.35461314  0.13826371  1
  O  O36  1  0.22945781  0.30958040  0.03283826  1
  O  O37  1  0.73081075  0.31057097  0.03306836  1
  O  O38  1  0.42156988  0.53187478  0.02534657  1
  O  O39  1  0.92735480  0.54492426  0.03175918  1
  O  O40  1  0.34312485  0.14630915  0.03212981  1
  O  O41  1  0.84460758  0.14564097  0.03078179  1
  O  O42  1  0.22975602  0.15981043  0.52784778  1
  O  O43  1  0.72869256  0.14828678  0.53261661  1
  O  O44  1  0.34777590  0.54923478  0.53019525  1
  O  O45  1  0.84377189  0.53703769  0.53220633  1
  O  O46  1  0.42856580  0.31059781  0.53156095  1
  O  O47  1  0.91747001  0.31169207  0.52872506  1
  O  O48  1  0.27216656  0.69150371  0.96966492  1
  O  O49  1  0.76906761  0.70621804  0.97388276  1
  O  O50  1  0.08237500  0.46398048  0.97513234  1
  O  O51  1  0.57979810  0.46350262  0.97150005  1
  O  O52  1  0.14877893  0.83698994  0.97237804  1
  O  O53  1  0.64806569  0.83274291  0.97184480  1
  O  O54  1  0.26962997  0.83268392  0.47216309  1
  O  O55  1  0.77149904  0.85232702  0.46989398  1
  O  O56  1  0.15338493  0.45845097  0.47715168  1
  O  O57  1  0.64893172  0.46134581  0.47232330  1
  O  O58  1  0.07909604  0.70202760  0.47229441  1
  O  O59  1  0.58180484  0.70209578  0.47491402  1
  O  O60  1  0.06255544  0.64010050  0.35550177  1
  O  O61  1  0.56162352  0.63112033  0.35885006  1
  O  O62  1  0.24898581  0.87584504  0.36083070  1
  O  O63  1  0.76052039  0.87896283  0.36342544  1
  O  O64  1  0.18464193  0.49294201  0.36068571  1
  O  O65  1  0.68256869  0.48844308  0.35669202  1
  O  O66  1  0.06073803  0.49259352  0.85897594  1
  O  O67  1  0.56093011  0.49024064  0.85628853  1
  O  O68  1  0.18264517  0.87711639  0.85695968  1
  O  O69  1  0.68624079  0.88280937  0.85842338  1
  O  O70  1  0.26104168  0.64256459  0.86349158  1
  O  O71  1  0.75181216  0.63115650  0.86027780  1
  O  O72  1  0.01380488  0.84050504  0.40885016  1
  O  O73  1  0.50383166  0.82637408  0.41211415  1
  O  O74  1  0.40833201  0.98463511  0.40886210  1
  O  O75  1  0.89791836  0.97780836  0.41145176  1
  O  O76  1  0.08522880  0.17811602  0.40999016  1
  O  O77  1  0.57909031  0.19153438  0.40797037  1
  O  O78  1  0.00334281  0.18178011  0.91238275  1
  O  O79  1  0.50837554  0.18179425  0.91010147  1
  O  O80  1  0.07950969  0.96810752  0.90788560  1
  O  O81  1  0.57814438  0.96913763  0.91030677  1
  O  O82  1  0.39958354  0.81674405  0.91084406  1
  O  O83  1  0.90733027  0.83177433  0.90932310  1
  O  O84  1  0.48942877  0.17742750  0.59002791  1
  O  O85  1  0.99017190  0.16465555  0.58578260  1
  O  O86  1  0.08801526  0.00796196  0.58997377  1
  O  O87  1  0.59981868  0.02521307  0.58881909  1
  O  O88  1  0.41328289  0.80191653  0.58793183  1
  O  O89  1  0.91254761  0.78698451  0.58958642  1
  O  O90  1  0.48892568  0.81632267  0.08492796  1
  O  O91  1  0.98862604  0.79996286  0.08995104  1
  O  O92  1  0.41304208  0.03390529  0.08965838  1
  O  O93  1  0.91374988  0.02867049  0.08779628  1
  O  O94  1  0.09990299  0.17424695  0.08835617  1
  O  O95  1  0.60082472  0.18349076  0.08921072  1
  O  O96  1  0.34593438  0.16833230  0.74629465  1
  O  O97  1  0.84001810  0.16894572  0.74575126  1
  O  O98  1  0.24254745  0.32426760  0.74486272  1
  O  O99  1  0.73029511  0.30611689  0.74130896  1
  O  O100  1  0.41572877  0.52279588  0.74173929  1
  O  O101  1  0.92226640  0.53329746  0.74475002  1
  O  O102  1  0.33962690  0.51026615  0.24640604  1
  O  O103  1  0.84330044  0.52131396  0.24232640  1
  O  O104  1  0.42295488  0.31100077  0.24433900  1
  O  O105  1  0.91602834  0.30907871  0.24253364  1
  O  O106  1  0.23008880  0.15414691  0.24137284  1
  O  O107  1  0.74147715  0.16470392  0.24185489  1
  O  O108  1  0.32238631  0.51308092  0.92258116  1
  O  O109  1  0.82658568  0.50381302  0.92655991  1
  O  O110  1  0.42750005  0.36431475  0.92383464  1
  O  O111  1  0.92670042  0.35822685  0.92693591  1
  O  O112  1  0.25022419  0.15393203  0.92466168  1
  O  O113  1  0.75232876  0.14367449  0.92712588  1
  O  O114  1  0.32340175  0.14730757  0.42529174  1
  O  O115  1  0.81950972  0.12830031  0.42285053  1
  O  O116  1  0.25296096  0.35888012  0.42454552  1
  O  O117  1  0.74908035  0.34486053  0.42440504  1
  O  O118  1  0.42644955  0.49503544  0.42566401  1
  O  O119  1  0.92475277  0.49618827  0.42347836  1
  O  O120  1  0.17805658  0.48630961  0.07869378  1
  O  O121  1  0.68195426  0.49080583  0.07807432  1
  O  O122  1  0.06602015  0.64538689  0.08010400  1
  O  O123  1  0.57805401  0.65006863  0.07809310  1
  O  O124  1  0.25781999  0.86665878  0.07767494  1
  O  O125  1  0.75875949  0.86966713  0.07873255  1
  O  O126  1  0.17369810  0.84524742  0.57862797  1
  O  O127  1  0.67832386  0.86992459  0.57887350  1
  O  O128  1  0.25754834  0.64154439  0.57838980  1
  O  O129  1  0.75741688  0.64733161  0.57697250  1
  O  O130  1  0.07746776  0.49987907  0.57705221  1
  O  O131  1  0.56748831  0.48654332  0.57960388  1
  O  O132  1  0.14980880  0.84318102  0.25384085  1
  O  O133  1  0.65367679  0.82510573  0.25638859  1
  O  O134  1  0.25581784  0.68218572  0.25417781  1
  O  O135  1  0.75906487  0.69470564  0.25493565  1
  O  O136  1  0.08618502  0.48544635  0.25405647  1
  O  O137  1  0.57759626  0.46302981  0.25484752  1
  O  O138  1  0.15248684  0.48309336  0.75685150  1
  O  O139  1  0.64958384  0.45589811  0.75453274  1
  O  O140  1  0.07723782  0.69147759  0.75469350  1
  O  O141  1  0.58607022  0.68668671  0.75407328  1
  O  O142  1  0.25885116  0.82335086  0.75488342  1
  O  O143  1  0.75540081  0.82980584  0.75378970  1
loop_
_geom_bond_atom_site_label_1
_geom_bond_atom_site_label_2
_geom_bond_distance
_geom_bond_site_symmetry_2
Na0 O105 2.379425 1_555
Na0 O107 2.397083 1_555
Na0 O135 2.518678 1_545
Na0 O133 2.573488 1_545
Na0 O33 2.721172 1_555
Na0 O63 2.864861 1_545
Na0 O19 2.962787 1_545
Na0 O5 2.964316 1_555
Na1 O102 2.382680 1_555
Na1 O134 2.407155 1_555
Na1 O136 2.484877 1_555
Na1 O106 2.496716 1_555
Na1 O34 2.669250 1_555
Na1 O64 2.810069 1_555
Na1 O20 2.883868 1_555
Na1 O0 3.008396 1_555
Na2 O107 2.401485 1_555
Na2 O103 2.412037 1_555
Na2 O137 2.619173 1_555
Na2 O135 2.632174 1_555
Na2 O65 2.672866 1_555
Na2 O35 2.770510 1_555
Na2 O1 2.813333 1_555
Na3 O103 2.384395 1_555
Na3 O105 2.405476 1_555
Na3 O136 2.508333 1_655
Na3 O132 2.555353 1_655
Na3 O60 2.633787 1_655
Na3 O31 2.785592 1_555
Na3 O3 2.911151 1_555
Na4 O102 2.439676 1_555
Na4 O133 2.512668 1_555
Na4 O30 2.521581 1_555
Na4 O104 2.565603 1_555
Na4 O137 2.675714 1_555
Na4 O23 2.838378 1_555
Na4 O61 2.882147 1_555
Na4 O2 2.917528 1_555
Na5 O98 2.344205 1_555
Na5 O100 2.358285 1_555
Na5 O142 2.536374 1_555
Na5 O138 2.608971 1_555
Na5 O28 2.728532 1_555
Na5 O70 2.863866 1_555
Na5 O12 2.977362 1_555
Na5 O8 2.978380 1_555
Na6 O97 2.432667 1_555
Na6 O138 2.488343 1_655
Na6 O101 2.574467 1_555
Na6 O25 2.595676 1_555
Na6 O140 2.678712 1_655
Na6 O14 2.851566 1_655
Na6 O66 2.852066 1_655
Na6 O11 2.888571 1_555
Na7 O96 2.337397 1_555
Na7 O100 2.387609 1_555
Na7 O141 2.490597 1_555
Na7 O139 2.562177 1_555
Na7 O67 2.658604 1_555
Na7 O24 2.752578 1_555
Na8 O96 2.399690 1_555
Na8 O98 2.407480 1_555
Na8 O26 2.541618 1_555
Na8 O142 2.632987 1_545
Na8 O140 2.671415 1_545
Na8 O68 2.793543 1_545
Na8 O6 2.886102 1_555
Na9 O143 2.387624 1_555
Na9 O97 2.401146 1_565
Na9 O141 2.467641 1_555
Na9 O99 2.515548 1_565
Na9 O27 2.691294 1_565
Na9 O69 2.729679 1_555
Na9 O17 2.871789 1_555
Na9 O7 2.985681 1_565
Na10 O85 2.470889 1_455
Na10 O130 2.479784 1_555
Na10 O86 2.527459 1_555
Na10 O128 2.536717 1_555
Na10 O56 2.653854 1_555
Na10 O14 2.721582 1_555
Na10 O42 2.862118 1_555
Na11 O89 2.422827 1_455
Na11 O126 2.462785 1_555
Na11 O86 2.478044 1_565
Na11 O130 2.500618 1_555
Na11 O58 2.767371 1_555
Na11 O25 2.815812 1_455
Na11 O16 2.823893 1_555
Na11 O45 2.946589 1_455
Na12 O110 2.370727 1_555
Na12 O81 2.412592 1_555
Na12 O82 2.592506 1_555
Na12 O108 2.595327 1_555
Na12 O38 2.725099 1_556
Na12 O53 2.786998 1_555
Na12 O8 2.804144 1_555
Na12 O67 2.881964 1_555
Na13 O80 2.319222 1_655
Na13 O111 2.512875 1_555
Na13 O83 2.573715 1_555
Na13 O109 2.604400 1_555
Na13 O52 2.715245 1_655
Na13 O39 2.813162 1_556
Na13 O9 2.873247 1_555
Na13 O66 2.877522 1_655
Na14 O78 2.408080 1_655
Na14 O83 2.461184 1_545
Na14 O113 2.487977 1_555
Na14 O111 2.626909 1_555
Na14 O11 2.653549 1_555
Na14 O69 2.852433 1_545
Na14 O49 2.859859 1_545
Na14 O41 2.901210 1_556
Na15 O77 2.322179 1_555
Na15 O118 2.494455 1_555
Na15 O74 2.582684 1_545
Na15 O114 2.657463 1_555
Na15 O57 2.716071 1_555
Na15 O46 2.804201 1_555
Na15 O4 2.853146 1_555
Na15 O61 2.871435 1_555
Na16 O72 2.382927 1_545
Na16 O76 2.454170 1_555
Na16 O114 2.515489 1_555
Na16 O116 2.628394 1_555
Na16 O42 2.749868 1_555
Na16 O58 2.802164 1_545
Na16 O62 2.835379 1_545
Na16 O0 2.871993 1_555
Na17 O73 2.399718 1_555
Na17 O116 2.475077 1_555
Na17 O74 2.505582 1_555
Na17 O118 2.579497 1_555
Na17 O2 2.641759 1_555
Na17 O64 2.854690 1_555
Na17 O44 2.882865 1_555
Na17 O54 2.884884 1_555
Na18 O85 2.481476 1_555
Na18 O76 2.595864 1_655
Na18 O86 2.616484 1_655
Na18 O75 2.636347 1_545
Na18 O72 2.658654 1_645
Na18 O89 2.717015 1_545
Na19 O73 2.475720 1_545
Na19 O77 2.479645 1_555
Na19 O74 2.631813 1_545
Na19 O87 2.641210 1_555
Na19 O84 2.790156 1_555
Na19 O88 2.801237 1_545
Na20 O78 2.482203 1_555
Na20 O80 2.496116 1_545
Na20 O83 2.624257 1_445
Na20 O94 2.637112 1_556
Na20 O93 2.786694 1_456
Na20 O91 2.787886 1_446
Na21 O90 2.521684 1_545
Na21 O79 2.572161 1_554
Na21 O81 2.598862 1_544
Na21 O95 2.626307 1_555
Na21 O92 2.677369 1_555
Na21 O82 2.734912 1_544
Na22 O96 2.433412 1_555
Na22 O98 2.495964 1_555
Na22 O112 2.612773 1_555
Na22 O100 2.652856 1_555
Na22 O110 2.700056 1_555
Na22 O108 2.815146 1_555
Na23 O97 2.507249 1_555
Na23 O101 2.636359 1_555
Na23 O99 2.688416 1_555
Na23 O109 2.696070 1_555
Na23 O113 2.699388 1_555
Na23 O111 2.709417 1_555
Na24 O102 2.453108 1_555
Na24 O104 2.618397 1_555
Na24 O118 2.639028 1_555
Na24 O116 2.668635 1_555
Na24 O114 2.712611 1_555
Na24 O106 2.740638 1_555
Na25 O103 2.549897 1_555
Na25 O107 2.581268 1_555
Na25 O105 2.622485 1_555
Na25 O117 2.624006 1_555
Na25 O119 2.639158 1_555
Na25 O115 2.778097 1_555
Na26 O134 2.522188 1_555
Na26 O124 2.567365 1_555
Na26 O120 2.571478 1_555
Na26 O136 2.638618 1_555
Na26 O122 2.648018 1_555
Na26 O132 2.764317 1_555
Na27 O123 2.422320 1_555
Na27 O133 2.582420 1_555
Na27 O125 2.628764 1_555
Na27 O135 2.662741 1_555
Na27 O121 2.685227 1_555
Na27 O137 2.709678 1_555
Na28 O126 2.476398 1_555
Na28 O142 2.549375 1_555
Na28 O130 2.572833 1_555
Na28 O128 2.641772 1_555
Na28 O138 2.651085 1_555
Na28 O140 2.701177 1_555
Na29 O143 2.514174 1_555
Na29 O127 2.567311 1_555
Na29 O129 2.601805 1_555
Na29 O141 2.617200 1_555
Na29 O131 2.641492 1_555
Na29 O139 2.779384 1_555
Hf0 O3 1.973817 1_555
Hf0 O5 1.980086 1_565
Hf0 O72 2.056313 1_655
Hf0 O76 2.087190 1_665
Hf0 O75 2.119538 1_555
Hf0 O0 2.235680 1_665
Hf1 O1 1.969821 1_565
Hf1 O73 1.987954 1_555
Hf1 O77 2.023344 1_565
Hf1 O2 2.047169 1_555
Hf1 O74 2.120533 1_555
Hf1 O4 2.282027 1_565
Hf2 O6 1.976498 1_555
Hf2 O78 1.990518 1_555
Hf2 O80 2.027574 1_545
Hf2 O11 2.044413 1_455
Hf2 O83 2.110049 1_445
Hf2 O9 2.283495 1_445
Hf3 O10 1.953610 1_555
Hf3 O79 2.014238 1_555
Hf3 O8 2.037880 1_545
Hf3 O81 2.077679 1_545
Hf3 O7 2.164349 1_555
Hf3 O82 2.172851 1_545
Hf4 O13 1.957257 1_545
Hf4 O14 1.982953 1_655
Hf4 O85 1.991415 1_555
Hf4 O86 2.107904 1_655
Hf4 O89 2.252866 1_545
Hf4 O16 2.293144 1_645
Hf5 O17 1.933959 1_555
Hf5 O12 1.941172 1_555
Hf5 O15 2.130694 1_565
Hf5 O88 2.134433 1_555
Hf5 O87 2.181818 1_565
Hf5 O84 2.212108 1_565
Hf6 O20 1.932756 1_655
Hf6 O19 1.940160 1_545
Hf6 O93 2.123943 1_555
Hf6 O22 2.144108 1_645
Hf6 O94 2.183313 1_655
Hf6 O91 2.218689 1_545
Hf7 O18 1.931680 1_555
Hf7 O90 1.958051 1_555
Hf7 O23 1.959375 1_555
Hf7 O92 2.219821 1_565
Hf7 O95 2.300655 1_565
Hf7 O21 2.316373 1_565
Hf8 O112 2.007114 1_555
Hf8 O38 2.011537 1_556
Hf8 O110 2.015012 1_555
Hf8 O40 2.057545 1_556
Hf8 O36 2.183007 1_556
Hf8 O108 2.270469 1_555
Hf9 O109 1.958271 1_555
Hf9 O113 1.993711 1_555
Hf9 O111 1.995403 1_555
Hf9 O37 2.136265 1_556
Hf9 O39 2.180678 1_556
Hf9 O41 2.215431 1_556
Hf10 O114 1.998659 1_555
Hf10 O42 2.010986 1_555
Hf10 O116 2.028880 1_555
Hf10 O118 2.055307 1_555
Hf10 O46 2.179867 1_555
Hf10 O44 2.207526 1_555
Hf11 O119 1.985776 1_555
Hf11 O47 1.992320 1_555
Hf11 O117 2.005337 1_555
Hf11 O45 2.118817 1_555
Hf11 O115 2.186877 1_555
Hf11 O43 2.204476 1_555
Hf12 O51 1.935974 1_554
Hf12 O53 1.974512 1_554
Hf12 O123 2.016934 1_555
Hf12 O49 2.038938 1_554
Hf12 O121 2.254534 1_555
Hf12 O125 2.324009 1_555
Hf13 O58 1.971417 1_555
Hf13 O54 2.002397 1_555
Hf13 O56 2.048247 1_555
Hf13 O126 2.062562 1_555
Hf13 O130 2.083492 1_555
Hf13 O128 2.319822 1_555
Hf14 O64 1.981832 1_555
Hf14 O62 2.004895 1_555
Hf14 O60 2.036076 1_555
Hf14 O134 2.059297 1_555
Hf14 O136 2.112781 1_555
Hf14 O132 2.323236 1_555
Hf15 O65 1.971532 1_555
Hf15 O61 1.996001 1_555
Hf15 O135 2.112473 1_555
Hf15 O133 2.113396 1_555
Hf15 O63 2.134034 1_555
Hf15 O137 2.217057 1_555
Hf16 O68 1.966782 1_555
Hf16 O66 2.007146 1_555
Hf16 O138 2.104178 1_555
Hf16 O142 2.112994 1_555
Hf16 O70 2.133690 1_555
Hf16 O140 2.230510 1_555
Hf17 O71 1.977915 1_555
Hf17 O69 1.994281 1_555
Hf17 O67 2.054061 1_555
Hf17 O143 2.057841 1_555
Hf17 O141 2.129670 1_555
Hf17 O139 2.318689 1_555
Mg0 O26 1.974876 1_555
Mg0 O96 2.031905 1_555
Mg0 O98 2.056435 1_555
Mg0 O100 2.074880 1_555
Mg0 O24 2.171538 1_555
Mg0 O28 2.242661 1_555
Mg1 O25 1.946830 1_555
Mg1 O27 2.065359 1_555
Mg1 O97 2.073328 1_555
Mg1 O29 2.149112 1_555
Mg1 O101 2.274835 1_555
Mg1 O99 2.303487 1_555
Mg2 O30 1.921426 1_555
Mg2 O34 2.090495 1_555
Mg2 O102 2.100358 1_555
Mg2 O32 2.141505 1_555
Mg2 O104 2.264220 1_555
Mg2 O106 2.331322 1_555
Mg3 O107 2.010772 1_555
Mg3 O103 2.021941 1_555
Mg3 O105 2.028231 1_555
Mg3 O31 2.139573 1_555
Mg3 O35 2.147868 1_555
Mg3 O33 2.179031 1_555
Mg4 O50 1.913487 1_554
Mg4 O52 1.923242 1_554
Mg4 O48 2.173383 1_554
Mg4 O122 2.200687 1_555
Mg4 O124 2.269832 1_555
Mg4 O120 2.327842 1_555
Mg5 O59 1.911765 1_555
Mg5 O57 1.921857 1_555
Mg5 O55 2.166979 1_555
Mg5 O131 2.182156 1_555
Mg5 O129 2.280585 1_555
Mg5 O127 2.327111 1_555
O0 S0 1.496416 1_555
O1 Si0 1.630300 1_555
O2 Si1 1.635783 1_555
O3 Si2 1.637527 1_555
O4 S1 1.476468 1_555
O5 Si3 1.636727 1_655
O6 Si4 1.627903 1_555
O7 S2 1.492512 1_555
O8 Si5 1.642006 1_555
O9 S3 1.472066 1_555
O10 Si6 1.634090 1_555
O11 Si7 1.636509 1_545
O12 Si6 1.658389 1_565
O13 Si7 1.638362 1_555
O14 Si4 1.659740 1_555
O15 S2 1.497224 1_555
O16 S3 1.486728 1_455
O17 Si5 1.667412 1_555
O18 Si1 1.643227 1_555
O19 Si2 1.658184 1_555
O20 Si3 1.662323 1_555
O21 S1 1.476586 1_555
O22 S0 1.497823 1_565
O23 Si0 1.643712 1_565
O24 S4 1.466961 1_555
O25 Si8 1.610540 1_555
O26 Si9 1.590389 1_555
O27 S5 1.484639 1_555
O28 S6 1.463926 1_555
O29 S7 1.470416 1_555
O30 Si10 1.603342 1_555
O31 S8 1.467509 1_555
O32 S9 1.464688 1_555
O33 S10 1.461850 1_555
O34 S11 1.479483 1_555
O35 S12 1.466133 1_555
O36 S11 1.489214 1_555
O37 S12 1.497798 1_555
O38 Si10 1.653529 1_555
O39 S8 1.507107 1_555
O40 S9 1.511398 1_555
O41 S10 1.490015 1_555
O42 Si9 1.668636 1_555
O43 S5 1.484917 1_555
O44 S6 1.487926 1_555
O45 S7 1.506853 1_555
O46 S4 1.510828 1_555
O47 Si8 1.629900 1_555
O48 S13 1.444709 1_555
O49 Si11 1.620155 1_555
O50 Si12 1.567953 1_555
O51 Si13 1.626953 1_555
O52 Si14 1.589108 1_555
O53 Si15 1.617365 1_555
O54 Si16 1.623808 1_555
O55 S14 1.429520 1_555
O56 Si17 1.617512 1_555
O57 Si18 1.585970 1_555
O58 Si19 1.650538 1_555
O59 Si20 1.567352 1_555
O60 Si19 1.632126 1_555
O61 Si20 1.670239 1_555
O62 Si16 1.631273 1_555
O63 S14 1.512582 1_555
O64 Si17 1.644548 1_555
O65 Si18 1.677516 1_555
O66 Si12 1.666496 1_555
O67 Si13 1.644622 1_555
O68 Si14 1.674697 1_555
O69 Si15 1.646785 1_555
O70 S13 1.505516 1_555
O71 Si11 1.627430 1_555
O72 Si19 1.640604 1_555
O73 Si20 1.646446 1_555
O74 Si16 1.614213 1_555
O75 S14 1.508251 1_555
O76 Si17 1.626163 1_555
O77 Si18 1.650501 1_555
O78 Si12 1.643114 1_555
O79 Si13 1.622865 1_555
O80 Si14 1.650832 1_555
O81 Si15 1.622438 1_555
O82 S13 1.505359 1_555
O83 Si11 1.633650 1_555
O84 S4 1.518655 1_555
O85 Si8 1.662225 1_555
O86 Si9 1.677462 1_555
O87 S5 1.524946 1_555
O88 S6 1.503000 1_555
O89 S7 1.520279 1_555
O90 Si10 1.682698 1_555
O91 S8 1.516688 1_555
O92 S9 1.505175 1_555
O93 S10 1.519647 1_555
O94 S11 1.523286 1_555
O95 S12 1.489776 1_555
O96 Si6 1.602425 1_555
O97 Si7 1.646077 1_545
O98 Si4 1.603185 1_555
O99 S2 1.467797 1_555
O100 Si5 1.603023 1_555
O101 S3 1.471678 1_555
O102 Si1 1.643669 1_555
O103 Si2 1.605252 1_555
O104 S1 1.472687 1_555
O105 Si3 1.602894 1_655
O106 S0 1.466734 1_555
O107 Si0 1.606902 1_555
O108 S13 1.492290 1_555
O109 Si11 1.647491 1_555
O110 Si13 1.653204 1_555
O111 Si12 1.680312 1_655
O112 Si14 1.637836 1_545
O113 Si15 1.638573 1_545
O114 Si16 1.647170 1_545
O115 S14 1.490329 1_545
O116 Si17 1.659177 1_555
O117 Si18 1.634996 1_555
O118 Si20 1.670306 1_555
O119 Si19 1.624206 1_655
O120 S11 1.467346 1_555
O121 S12 1.486247 1_555
O122 S8 1.467087 1_455
O123 Si10 1.654889 1_555
O124 S9 1.472144 1_565
O125 S10 1.475507 1_565
O126 Si9 1.647159 1_565
O127 S5 1.464267 1_565
O128 S6 1.487231 1_555
O129 S7 1.458192 1_555
O130 Si8 1.662063 1_455
O131 S4 1.465786 1_555
O132 S0 1.479832 1_565
O133 Si0 1.651768 1_565
O134 Si1 1.643055 1_555
O135 Si2 1.647476 1_555
O136 Si3 1.640843 1_555
O137 S1 1.528279 1_555
O138 Si4 1.651989 1_555
O139 S2 1.476562 1_555
O140 S3 1.521584 1_455
O141 Si5 1.642750 1_555
O142 Si6 1.650195 1_565
O143 Si7 1.640859 1_555
