# generated using pymatgen
data_MgFe12(OF)12
_symmetry_space_group_name_H-M   'P 1'
_cell_length_a   9.65769808
_cell_length_b   14.67874779
_cell_length_c   3.10679100
_cell_angle_alpha   90.00000000
_cell_angle_beta   90.00000000
_cell_angle_gamma   95.64482754
_symmetry_Int_Tables_number   1
_chemical_formula_structural   MgFe12(OF)12
_chemical_formula_sum   'Mg1 Fe12 O12 F12'
_cell_volume   438.29200117
_cell_formula_units_Z   1
loop_
 _symmetry_equiv_pos_site_id
 _symmetry_equiv_pos_as_xyz
  1  'x, y, z'
loop_
 _atom_site_type_symbol
 _atom_site_label
 _atom_site_symmetry_multiplicity
 _atom_site_fract_x
 _atom_site_fract_y
 _atom_site_fract_z
 _atom_site_occupancy
  Mg  Mg0  1  0.90472100  0.81676800  0.00000000  1
  Fe  Fe0  1  0.95456400  0.02166500  0.00000000  1
  Fe  Fe1  1  0.02889300  0.32732700  0.00000000  1
  Fe  Fe2  1  0.04876600  0.64364800  0.00000000  1
  Fe  Fe3  1  0.21345100  0.16246100  0.50000000  1
  Fe  Fe4  1  0.27791000  0.47837600  0.50000000  1
  Fe  Fe5  1  0.20120400  0.88378900  0.50000000  1
  Fe  Fe6  1  0.50011300  0.33767000  0.00000000  1
  Fe  Fe7  1  0.47895800  0.01056400  0.00000000  1
  Fe  Fe8  1  0.57818300  0.64526500  0.00000000  1
  Fe  Fe9  1  0.73166800  0.15891300  0.50000000  1
  Fe  Fe10  1  0.75550600  0.47861000  0.50000000  1
  Fe  Fe11  1  0.63538300  0.83516800  0.50000000  1
  O  O0  1  0.09653200  0.26541800  0.50000000  1
  O  O1  1  0.01062000  0.90943500  0.50000000  1
  O  O2  1  0.13566500  0.09528300  0.00000000  1
  O  O3  1  0.16971900  0.43421500  0.00000000  1
  O  O4  1  0.29147000  0.93145500  0.00000000  1
  O  O5  1  0.41808200  0.39228500  0.50000000  1
  O  O6  1  0.53513700  0.94501200  0.50000000  1
  O  O7  1  0.64952300  0.58372600  0.50000000  1
  O  O8  1  0.63293500  0.11005800  0.00000000  1
  O  O9  1  0.67621000  0.41675000  0.00000000  1
  O  O10  1  0.69981800  0.76004200  0.00000000  1
  O  O11  1  0.88461100  0.08091400  0.50000000  1
  F  F0  1  0.16224200  0.59736900  0.50000000  1
  F  F1  1  0.14803600  0.77662400  0.00000000  1
  F  F2  1  0.33716700  0.23188600  0.00000000  1
  F  F3  1  0.38834300  0.55543900  0.00000000  1
  F  F4  1  0.38232600  0.08596000  0.50000000  1
  F  F5  1  0.47416800  0.70927500  0.50000000  1
  F  F6  1  0.58697300  0.26386900  0.50000000  1
  F  F7  1  0.83794500  0.24192000  0.00000000  1
  F  F8  1  0.78981500  0.92470900  0.00000000  1
  F  F9  1  0.88819200  0.54622900  0.00000000  1
  F  F10  1  0.92312700  0.39427400  0.50000000  1
  F  F11  1  0.93987800  0.72077400  0.50000000  1
loop_
_geom_bond_atom_site_label_1
_geom_bond_atom_site_label_2
_geom_bond_distance
_geom_bond_site_symmetry_2
Mg0 O10 2.070071 1_555
Mg0 O1 2.244015 1_655
Mg0 O1 2.244015 1_654
Fe0 O11 1.934275 1_554
Fe0 O11 1.934275 1_555
Fe0 O2 1.963414 1_655
Fe0 O1 2.365477 1_644
Fe0 O1 2.365477 1_645
Fe1 O0 1.944828 1_554
Fe1 O0 1.944828 1_555
Fe1 O3 1.972731 1_555
Fe3 O2 1.950393 1_555
Fe3 O2 1.950393 1_556
Fe3 O0 1.973498 1_555
Fe4 O5 1.940646 1_555
Fe4 O3 1.947244 1_555
Fe4 O3 1.947244 1_556
Fe5 O4 1.882170 1_556
Fe5 O4 1.882170 1_555
Fe5 O1 1.914639 1_555
Fe6 O5 1.951486 1_554
Fe6 O5 1.951486 1_555
Fe6 O9 1.962508 1_555
Fe7 O6 1.932868 1_544
Fe7 O6 1.932868 1_545
Fe7 O8 1.979148 1_555
Fe7 O4 2.052667 1_545
Fe8 O7 1.956053 1_555
Fe8 O7 1.956053 1_554
Fe8 O10 1.956810 1_555
Fe9 O8 1.924063 1_555
Fe9 O8 1.924063 1_556
Fe9 O11 1.955839 1_555
Fe10 O9 1.920216 1_556
Fe10 O9 1.920216 1_555
Fe10 O7 1.933677 1_555
Fe11 O6 1.960647 1_555
Fe11 O10 2.037488 1_555
Fe11 O10 2.037488 1_556
F0 Fe2 2.054751 1_555
F0 Fe2 2.054751 1_556
F0 Fe4 2.163926 1_555
F1 Fe2 2.088301 1_555
F1 Fe5 2.234341 1_554
F1 Fe5 2.234341 1_555
F1 Mg0 2.478202 1_455
F2 Fe6 2.099258 1_555
F2 Fe3 2.153971 1_555
F2 Fe3 2.153971 1_554
F3 Fe4 2.143075 1_555
F3 Fe4 2.143075 1_554
F3 Fe8 2.150439 1_555
F4 Fe3 2.069120 1_555
F4 Fe7 2.170712 1_556
F4 Fe7 2.170712 1_555
F5 Fe8 2.119116 1_555
F5 Fe8 2.119116 1_556
F5 Fe11 2.296314 1_555
F6 Fe6 2.114015 1_556
F6 Fe6 2.114015 1_555
F6 Fe9 2.179410 1_555
F7 Fe1 2.125476 1_655
F7 Fe9 2.169122 1_555
F7 Fe9 2.169122 1_554
F8 Mg0 2.021840 1_555
F8 Fe0 2.027707 1_565
F8 Fe11 2.445274 1_555
F8 Fe11 2.445274 1_554
F9 Fe2 2.003377 1_655
F9 Fe10 2.188629 1_554
F9 Fe10 2.188629 1_555
F10 Fe10 2.132457 1_555
F10 Fe1 2.149319 1_656
F10 Fe1 2.149319 1_655
F11 Mg0 2.146607 1_555
F11 Mg0 2.146607 1_556
F11 Fe2 2.243836 1_655
F11 Fe2 2.243836 1_656
