# generated using pymatgen
data_FePS3
_symmetry_space_group_name_H-M   'P 1'
_cell_length_a   5.87489319
_cell_length_b   10.33324698
_cell_length_c   7.67721000
_cell_angle_alpha   89.94263304
_cell_angle_beta   105.90537383
_cell_angle_gamma   89.99965100
_symmetry_Int_Tables_number   1
_chemical_formula_structural   FePS3
_chemical_formula_sum   'Fe4 P4 S12'
_cell_volume   448.21525599
_cell_formula_units_Z   4
loop_
 _symmetry_equiv_pos_site_id
 _symmetry_equiv_pos_as_xyz
  1  'x, y, z'
loop_
 _atom_site_type_symbol
 _atom_site_label
 _atom_site_symmetry_multiplicity
 _atom_site_fract_x
 _atom_site_fract_y
 _atom_site_fract_z
 _atom_site_occupancy
  Fe  Fe0  1  0.95967126  0.31777121  0.00598889  1
  Fe  Fe1  1  0.54032002  0.18222489  0.99400669  1
  Fe  Fe2  1  0.54002813  0.81786169  0.99395467  1
  Fe  Fe3  1  0.95997220  0.68214089  0.00604841  1
  P  P0  1  0.96373921  0.00004632  0.84066452  1
  P  P1  1  0.44522469  0.50004747  0.86144844  1
  P  P2  1  0.05478462  0.99995519  0.13854067  1
  P  P3  1  0.53626870  0.49993271  0.15934124  1
  S  S0  1  0.27477807  0.00009377  0.77791054  1
  S  S1  1  0.77174208  0.50010484  0.81088106  1
  S  S2  1  0.72826348  0.99989529  0.18912066  1
  S  S3  1  0.22520196  0.49990545  0.22209524  1
  S  S4  1  0.76372742  0.16612845  0.77217062  1
  S  S5  1  0.26048573  0.66784030  0.79298235  1
  S  S6  1  0.23940619  0.16759547  0.20692610  1
  S  S7  1  0.73623638  0.66591306  0.22770203  1
  S  S8  1  0.23950778  0.83216660  0.20701978  1
  S  S9  1  0.73627291  0.33387090  0.22782213  1
  S  S10  1  0.76378442  0.83410297  0.77231093  1
  S  S11  1  0.26058477  0.33239952  0.79306805  1
loop_
_geom_bond_atom_site_label_1
_geom_bond_atom_site_label_2
_geom_bond_distance
_geom_bond_site_symmetry_2
Fe0 S4 2.424018 1_554
Fe0 S9 2.424098 1_555
Fe0 S6 2.468657 1_655
Fe0 S1 2.469887 1_554
Fe0 S3 2.704790 1_655
Fe0 S11 2.720941 1_654
Fe1 S9 2.424041 1_556
Fe1 S4 2.424153 1_555
Fe1 S11 2.468656 1_555
Fe1 S2 2.469901 1_546
Fe1 S0 2.704759 1_555
Fe1 S6 2.720934 1_556
Fe2 S7 2.423819 1_556
Fe2 S10 2.424271 1_555
Fe2 S5 2.469169 1_555
Fe2 S2 2.470542 1_556
Fe2 S0 2.702276 1_565
Fe2 S8 2.719918 1_556
Fe3 S10 2.423830 1_554
Fe3 S7 2.424238 1_555
Fe3 S8 2.469174 1_655
Fe3 S1 2.470558 1_554
Fe3 S3 2.702261 1_655
Fe3 S5 2.719889 1_654
P0 S0 2.013388 1_655
P0 S10 2.063878 1_545
P0 S4 2.064457 1_555
P0 P2 2.201222 1_646
P1 S11 2.035438 1_555
P1 S5 2.036149 1_555
P1 S1 2.058782 1_555
P1 P3 2.201347 1_556
P2 S6 2.035325 1_565
P2 S8 2.036079 1_555
P2 S2 2.058846 1_455
P3 S3 2.013547 1_555
P3 S7 2.064239 1_555
P3 S9 2.064250 1_555
