# generated using pymatgen
data_MgIn6WO12
_symmetry_space_group_name_H-M   'P 1'
_cell_length_a   6.42269033
_cell_length_b   6.42269081
_cell_length_c   6.42268997
_cell_angle_alpha   91.54400547
_cell_angle_beta   91.54401662
_cell_angle_gamma   91.54400536
_symmetry_Int_Tables_number   1
_chemical_formula_structural   MgIn6WO12
_chemical_formula_sum   'Mg1 In6 W1 O12'
_cell_volume   264.64821340
_cell_formula_units_Z   1
loop_
 _symmetry_equiv_pos_site_id
 _symmetry_equiv_pos_as_xyz
  1  'x, y, z'
loop_
 _atom_site_type_symbol
 _atom_site_label
 _atom_site_symmetry_multiplicity
 _atom_site_fract_x
 _atom_site_fract_y
 _atom_site_fract_z
 _atom_site_occupancy
  Mg  Mg0  1  0.50000000  0.50000000  0.50000000  1
  In  In0  1  0.44523866  0.92622188  0.73973191  1
  In  In1  1  0.92622188  0.73973191  0.44523866  1
  In  In2  1  0.73973191  0.44523866  0.92622188  1
  In  In3  1  0.55476134  0.07377712  0.26026809  1
  In  In4  1  0.07377712  0.26026809  0.55476134  1
  In  In5  1  0.26026809  0.55476134  0.07377712  1
  W  W0  1  0.00000000  -0.00000000  -0.00000000  1
  O  O0  1  0.19050053  0.54554868  0.40084994  1
  O  O1  1  0.54554868  0.40084994  0.19050053  1
  O  O2  1  0.40084994  0.19050053  0.54554868  1
  O  O3  1  0.80949947  0.45445132  0.59915006  1
  O  O4  1  0.45445132  0.59915006  0.80949947  1
  O  O5  1  0.59915006  0.80949947  0.45445132  1
  O  O6  1  0.69656712  0.07811660  0.92964235  1
  O  O7  1  0.07035765  0.30343287  0.92188340  1
  O  O8  1  0.92188340  0.07035765  0.30343288  1
  O  O9  1  0.30343288  0.92188340  0.07035765  1
  O  O10  1  0.92964235  0.69656713  0.07811660  1
  O  O11  1  0.07811660  0.92964235  0.69656712  1
loop_
_geom_bond_atom_site_label_1
_geom_bond_atom_site_label_2
_geom_bond_distance
_geom_bond_site_symmetry_2
Mg0 O0 2.101356 1_555
Mg0 O3 2.101356 1_555
Mg0 O4 2.101356 1_555
Mg0 O1 2.101356 1_555
Mg0 O5 2.101356 1_555
Mg0 O2 2.101356 1_555
In0 O2 2.153794 1_565
In0 O4 2.161746 1_555
In0 O6 2.188621 1_565
In0 O5 2.227088 1_555
In0 O9 2.333584 1_556
In0 O11 2.367484 1_555
In1 O0 2.153794 1_655
In1 O5 2.161746 1_555
In1 O11 2.188621 1_655
In1 O3 2.227088 1_555
In1 O8 2.333584 1_565
In1 O10 2.367484 1_555
In2 O1 2.153794 1_556
In2 O3 2.161746 1_555
In2 O10 2.188621 1_556
In2 O4 2.227088 1_555
In2 O7 2.333584 1_655
In2 O6 2.367484 1_555
In3 O5 2.153789 1_545
In3 O1 2.161753 1_555
In3 O9 2.188618 1_545
In3 O2 2.227090 1_555
In3 O6 2.333584 1_554
In3 O8 2.367484 1_555
In4 O3 2.153789 1_455
In4 O2 2.161753 1_555
In4 O8 2.188619 1_455
In4 O0 2.227090 1_555
In4 O11 2.333584 1_545
In4 O7 2.367483 1_555
In5 O4 2.153789 1_554
In5 O0 2.161753 1_555
In5 O7 2.188619 1_554
In5 O1 2.227090 1_555
In5 O10 2.333584 1_455
In5 O9 2.367484 1_555
O6 W0 2.066739 1_656
O7 W0 2.066739 1_556
O8 W0 2.066739 1_655
O9 W0 2.066739 1_565
O10 W0 2.066739 1_665
O11 W0 2.066739 1_566
