# generated using pymatgen
data_La2Mo2O7
_symmetry_space_group_name_H-M   'P 1'
_cell_length_a   4.00693500
_cell_length_b   6.10335500
_cell_length_c   12.39232000
_cell_angle_alpha   90.00000000
_cell_angle_beta   90.00000000
_cell_angle_gamma   90.00000000
_symmetry_Int_Tables_number   1
_chemical_formula_structural   La2Mo2O7
_chemical_formula_sum   'La4 Mo4 O14'
_cell_volume   303.06343977
_cell_formula_units_Z   2
loop_
 _symmetry_equiv_pos_site_id
 _symmetry_equiv_pos_as_xyz
  1  'x, y, z'
loop_
 _atom_site_type_symbol
 _atom_site_label
 _atom_site_symmetry_multiplicity
 _atom_site_fract_x
 _atom_site_fract_y
 _atom_site_fract_z
 _atom_site_occupancy
  La  La0  1  0.49999900  0.09504900  0.84359400  1
  La  La1  1  0.49999900  0.90495000  0.15640600  1
  La  La2  1  0.00000000  0.59505000  0.65640600  1
  La  La3  1  0.00000000  0.40495100  0.34359400  1
  Mo  Mo0  1  0.49999900  0.18597700  0.55169700  1
  Mo  Mo1  1  0.49999900  0.81402400  0.44830300  1
  Mo  Mo2  1  0.00000000  0.68597600  0.94830300  1
  Mo  Mo3  1  0.00000000  0.31402300  0.05169700  1
  O  O0  1  0.49999900  0.26794500  0.04302600  1
  O  O1  1  0.49999900  0.73205600  0.95697500  1
  O  O2  1  0.00000000  0.76794400  0.45697400  1
  O  O3  1  0.00000000  0.23205500  0.54302600  1
  O  O4  1  0.49999900  0.11545500  0.38257600  1
  O  O5  1  0.49999900  0.88454400  0.61742400  1
  O  O6  1  0.00000000  0.61545600  0.11742400  1
  O  O7  1  0.00000000  0.38454400  0.88257600  1
  O  O8  1  0.00000000  0.00000000  0.00000000  1
  O  O9  1  0.49999900  0.50000100  0.50000000  1
  O  O10  1  0.00000000  0.14967700  0.20219500  1
  O  O11  1  0.49999900  0.35032300  0.70219500  1
  O  O12  1  0.49999900  0.64967800  0.29780500  1
  O  O13  1  0.00000000  0.85032200  0.79780500  1
loop_
_geom_bond_atom_site_label_1
_geom_bond_atom_site_label_2
_geom_bond_distance
_geom_bond_site_symmetry_2
La0 O11 2.344754 1_555
La0 O13 2.562587 1_545
La0 O13 2.562593 1_645
La0 O1 2.623453 1_545
La0 O0 2.687282 1_556
La0 O7 2.714615 1_555
La0 O7 2.714621 1_655
La0 O8 2.847306 1_556
La0 O8 2.847311 1_656
La0 O5 3.083213 1_545
La1 O12 2.344746 1_555
La1 O10 2.562587 1_565
La1 O10 2.562593 1_665
La1 O0 2.623457 1_565
La1 O1 2.687266 1_554
La1 O6 2.714611 1_555
La1 O6 2.714617 1_655
La1 O8 2.847307 1_565
La1 O8 2.847313 1_665
La1 O4 3.083213 1_565
La2 O13 2.344746 1_555
La2 O11 2.562587 1_555
La2 O11 2.562593 1_455
La2 O3 2.623457 1_555
La2 O2 2.687277 1_555
La2 O5 2.714611 1_555
La2 O5 2.714617 1_455
La2 O9 2.847306 1_555
La2 O9 2.847311 1_455
La2 O7 3.083216 1_555
La3 O10 2.344754 1_555
La3 O12 2.562587 1_555
La3 O12 2.562593 1_455
La3 O2 2.623446 1_555
La3 O3 2.687282 1_555
La3 O4 2.714619 1_555
La3 O4 2.714625 1_455
La3 O9 2.847307 1_555
La3 O9 2.847313 1_455
La3 O6 3.083213 1_555
Mo0 O5 2.011993 1_545
Mo0 O9 2.020837 1_555
Mo0 O3 2.025957 1_555
Mo0 O3 2.025965 1_655
Mo0 O11 2.117647 1_555
Mo0 O4 2.139543 1_555
Mo1 O4 2.011982 1_565
Mo1 O9 2.020831 1_555
Mo1 O2 2.025959 1_555
Mo1 O2 2.025967 1_655
Mo1 O12 2.117647 1_555
Mo1 O5 2.139541 1_555
Mo2 O7 2.011988 1_555
Mo2 O8 2.020837 1_566
Mo2 O1 2.025960 1_555
Mo2 O1 2.025968 1_455
Mo2 O13 2.117647 1_555
Mo2 O6 2.139541 1_556
Mo3 O6 2.011993 1_555
Mo3 O8 2.020831 1_555
Mo3 O0 2.025957 1_555
Mo3 O0 2.025965 1_455
Mo3 O10 2.117647 1_555
Mo3 O7 2.139542 1_554
