# generated using pymatgen
data_Ba5MgBi3O11
_symmetry_space_group_name_H-M   'P 1'
_cell_length_a   6.57778354
_cell_length_b   6.57828479
_cell_length_c   9.51561203
_cell_angle_alpha   90.89649661
_cell_angle_beta   89.11077980
_cell_angle_gamma   84.75281185
_symmetry_Int_Tables_number   1
_chemical_formula_structural   Ba5MgBi3O11
_chemical_formula_sum   'Ba5 Mg1 Bi3 O11'
_cell_volume   409.91055478
_cell_formula_units_Z   1
loop_
 _symmetry_equiv_pos_site_id
 _symmetry_equiv_pos_as_xyz
  1  'x, y, z'
loop_
 _atom_site_type_symbol
 _atom_site_label
 _atom_site_symmetry_multiplicity
 _atom_site_fract_x
 _atom_site_fract_y
 _atom_site_fract_z
 _atom_site_occupancy
  Ba  Ba0  1  0.51502553  0.88778602  0.20984321  1
  Ba  Ba1  1  0.48493195  0.94155180  0.77915053  1
  Ba  Ba2  1  0.02844843  0.97159217  0.50461981  1
  Ba  Ba3  1  0.11215479  0.48500032  0.20980260  1
  Ba  Ba4  1  0.05841383  0.51507541  0.77914360  1
  Mg  Mg0  1  0.74468492  0.25531895  0.26557688  1
  Bi  Bi0  1  0.01703978  0.98293925  0.00091742  1
  Bi  Bi1  1  0.52997893  0.47002845  0.98234972  1
  Bi  Bi2  1  0.48384143  0.51614052  0.50754135  1
  O  O0  1  0.76269238  0.23800801  0.05320859  1
  O  O1  1  0.27155102  0.23530747  0.98751684  1
  O  O2  1  0.76446546  0.72876786  0.98741527  1
  O  O3  1  0.98031114  0.01931255  0.24346022  1
  O  O4  1  0.73881982  0.26114969  0.46928088  1
  O  O5  1  0.51527532  0.48471420  0.24856375  1
  O  O6  1  0.27111375  0.72878914  0.03292975  1
  O  O7  1  0.49015553  0.84919970  0.49396256  1
  O  O8  1  0.15078790  0.50974180  0.49396370  1
  O  O9  1  0.49108218  0.50887063  0.74660698  1
  O  O10  1  0.09134191  0.90858807  0.76128934  1
loop_
_geom_bond_atom_site_label_1
_geom_bond_atom_site_label_2
_geom_bond_distance
_geom_bond_site_symmetry_2
Ba0 O6 2.614898 1_555
Ba0 O5 2.682558 1_555
Ba0 O7 2.723201 1_555
Ba0 O2 2.788385 1_554
Ba1 O10 2.625597 1_555
Ba1 O7 2.770619 1_555
Ba1 O9 2.854807 1_555
Ba1 O1 2.988827 1_565
Ba1 O2 2.999453 1_555
Ba1 O6 3.182606 1_556
Ba2 O10 2.517888 1_555
Ba2 O3 2.530839 1_465
Ba2 O4 2.597492 1_465
Ba2 O7 3.069624 1_555
Ba2 O8 3.070677 1_555
Ba3 O6 2.614265 1_555
Ba3 O5 2.682667 1_555
Ba3 O8 2.723532 1_555
Ba3 O1 2.789037 1_554
Ba4 O10 2.625261 1_555
Ba4 O8 2.770619 1_555
Ba4 O9 2.854512 1_555
Ba4 O2 2.989818 1_455
Ba4 O1 3.002100 1_555
Ba4 O6 3.181858 1_556
Mg0 O4 1.937863 1_555
Mg0 O0 2.023262 1_555
Mg0 O5 2.044309 1_555
Mg0 O3 2.096741 1_555
Bi0 O6 2.280720 1_555
Bi0 O0 2.301442 1_465
Bi0 O3 2.323157 1_465
Bi0 O10 2.358862 1_554
Bi0 O2 2.465826 1_454
Bi0 O1 2.466451 1_564
Bi1 O0 2.182724 1_556
Bi1 O9 2.277422 1_555
Bi1 O6 2.333948 1_556
Bi1 O1 2.399167 1_555
Bi1 O2 2.399636 1_555
Bi1 O5 2.533528 1_556
Bi2 O8 2.200761 1_555
Bi2 O7 2.200921 1_555
Bi2 O9 2.277252 1_555
Bi2 O4 2.281790 1_555
Bi2 O5 2.473629 1_555
