# generated using pymatgen
data_Na3Nb3InSi3(PO8)3
_symmetry_space_group_name_H-M   'P 1'
_cell_length_a   8.92921922
_cell_length_b   8.94314018
_cell_length_c   22.84658808
_cell_angle_alpha   89.95022272
_cell_angle_beta   89.98288470
_cell_angle_gamma   119.85333490
_symmetry_Int_Tables_number   1
_chemical_formula_structural   Na3Nb3InSi3(PO8)3
_chemical_formula_sum   'Na9 Nb9 In3 Si9 P9 O72'
_cell_volume   1582.32297902
_cell_formula_units_Z   3
loop_
 _symmetry_equiv_pos_site_id
 _symmetry_equiv_pos_as_xyz
  1  'x, y, z'
loop_
 _atom_site_type_symbol
 _atom_site_label
 _atom_site_symmetry_multiplicity
 _atom_site_fract_x
 _atom_site_fract_y
 _atom_site_fract_z
 _atom_site_occupancy
  Na  Na0  1  0.64036689  0.00342702  0.24824587  1
  Na  Na1  1  0.37175583  0.36062589  0.24591251  1
  Na  Na2  1  0.71056847  0.67685244  0.41362982  1
  Na  Na3  1  0.01075726  0.01105001  0.49295265  1
  Na  Na4  1  0.00130259  0.00122405  0.99951110  1
  Na  Na5  1  0.66770014  0.33368457  0.82910272  1
  Na  Na6  1  0.68002061  0.34086079  0.33138570  1
  Na  Na7  1  0.32376149  0.66275431  0.16333032  1
  Na  Na8  1  0.33677603  0.66522499  0.66484343  1
  Nb  Nb0  1  0.00138621  0.00194619  0.85663065  1
  Nb  Nb1  1  0.99789591  0.99741492  0.64322591  1
  Nb  Nb2  1  0.99724326  0.99636963  0.14461616  1
  Nb  Nb3  1  0.65967674  0.33133135  0.97708518  1
  Nb  Nb4  1  0.66820447  0.33495394  0.47914299  1
  Nb  Nb5  1  0.33473130  0.66372873  0.01820070  1
  Nb  Nb6  1  0.33520518  0.66556493  0.52038023  1
  Nb  Nb7  1  0.33302152  0.66799542  0.31487522  1
  Nb  Nb8  1  0.33304033  0.66595436  0.81210775  1
  In  In0  1  0.00319275  0.00066452  0.35604628  1
  In  In1  1  0.66419916  0.33382214  0.68728094  1
  In  In2  1  0.67234157  0.34542139  0.18045345  1
  Si  Si0  1  0.70770548  0.70360102  0.25283726  1
  Si  Si1  1  0.66340011  0.62099063  0.58528331  1
  Si  Si2  1  0.37128717  0.33320462  0.08481922  1
  Si  Si3  1  0.62125906  0.66720579  0.91536468  1
  Si  Si4  1  0.04466393  0.38089005  0.91576908  1
  Si  Si5  1  0.33429656  0.95219933  0.91600380  1
  Si  Si6  1  0.62023163  0.96061472  0.41755100  1
  Si  Si7  1  0.33107488  0.37459601  0.41755149  1
  Si  Si8  1  0.04453922  0.66434791  0.41880393  1
  P  P0  1  0.28932745  0.99613162  0.24882372  1
  P  P1  1  -0.00011912  0.29006828  0.24903415  1
  P  P2  1  0.28504914  0.28637423  0.75036625  1
  P  P3  1  0.00229461  0.71543548  0.75062531  1
  P  P4  1  0.71326424  0.99895079  0.75023345  1
  P  P5  1  0.95742216  0.33448008  0.58475476  1
  P  P6  1  0.37781872  0.04266928  0.58459297  1
  P  P7  1  0.96073003  0.62563560  0.08186058  1
  P  P8  1  0.66488257  0.04117531  0.08386301  1
  O  O0  1  0.21749291  0.03856579  0.30271137  1
  O  O1  1  0.80780623  0.78585905  0.31260848  1
  O  O2  1  0.96890004  0.18173637  0.30383136  1
  O  O3  1  0.18537205  0.17697731  0.80490691  1
  O  O4  1  0.98968029  0.81378117  0.80474260  1
  O  O5  1  0.82320549  0.01187222  0.80469073  1
  O  O6  1  0.80640676  0.97952500  0.69507628  1
  O  O7  1  0.17438290  0.19598158  0.69537466  1
  O  O8  1  0.02149012  0.82734827  0.69532549  1
  O  O9  1  0.81084146  0.83512492  0.19565231  1
  O  O10  1  0.02979481  0.19893202  0.19432163  1
  O  O11  1  0.17434614  0.97769304  0.19397593  1
  O  O12  1  0.88517734  0.36602206  0.64068991  1
  O  O13  1  0.48344804  0.10953451  0.64030693  1
  O  O14  1  0.62537361  0.51022234  0.64321886  1
  O  O15  1  0.89953778  0.52391787  0.13839898  1
  O  O16  1  0.63638796  0.10800453  0.14169659  1
  O  O17  1  0.47021144  0.36914530  0.14617824  1
  O  O18  1  0.47691289  0.31005935  0.02911485  1
  O  O19  1  0.84227181  0.53426845  0.02897073  1
  O  O20  1  0.69227942  0.16175163  0.03127186  1
  O  O21  1  0.46761180  0.16118642  0.53078651  1
  O  O22  1  0.69554748  0.53278155  0.52618044  1
  O  O23  1  0.83891843  0.30371337  0.53071346  1
  O  O24  1  0.53165626  0.69786205  0.97269197  1
  O  O25  1  0.16834345  0.47153085  0.97235940  1
  O  O26  1  0.30392752  0.83406605  0.97320842  1
  O  O27  1  0.51578002  0.83469481  0.47235281  1
  O  O28  1  0.31890714  0.48067139  0.47354600  1
  O  O29  1  0.16050601  0.67946627  0.47498896  1
  O  O30  1  0.13908384  0.63812732  0.35969859  1
  O  O31  1  0.50195236  0.86812159  0.35683186  1
  O  O32  1  0.36706203  0.49943675  0.35782587  1
  O  O33  1  0.13871805  0.50253189  0.85814786  1
  O  O34  1  0.36282989  0.85949293  0.85831628  1
  O  O35  1  0.49835910  0.63658329  0.85817175  1
  O  O36  1  0.01234142  0.82414531  0.41742845  1
  O  O37  1  0.80107589  0.96616637  0.41633815  1
  O  O38  1  0.16473614  0.19045016  0.41585307  1
  O  O39  1  0.02539277  0.19033366  0.90709440  1
  O  O40  1  0.16612849  0.97694539  0.90678297  1
  O  O41  1  0.81179557  0.83665574  0.90705533  1
  O  O42  1  0.97698220  0.16941518  0.59093139  1
  O  O43  1  0.19584377  0.02993564  0.59121141  1
  O  O44  1  0.84061149  0.81640219  0.59249764  1
  O  O45  1  0.97307367  0.80673420  0.08859522  1
  O  O46  1  0.83087572  0.02246251  0.08863594  1
  O  O47  1  0.17860322  0.15743556  0.08897733  1
  O  O48  1  0.69639901  0.15998234  0.74816087  1
  O  O49  1  0.46171821  0.30042002  0.75084534  1
  O  O50  1  0.84302998  0.53731270  0.74965758  1
  O  O51  1  0.66834315  0.50739434  0.24822267  1
  O  O52  1  0.83912659  0.30585464  0.24089121  1
  O  O53  1  0.47539514  0.14557652  0.24152733  1
  O  O54  1  0.64112576  0.49673914  0.92516191  1
  O  O55  1  0.85520671  0.35968432  0.92630319  1
  O  O56  1  0.50599182  0.14262243  0.92502970  1
  O  O57  1  0.62843814  0.14509226  0.42499873  1
  O  O58  1  0.51541356  0.37573808  0.42466491  1
  O  O59  1  0.85540745  0.48550204  0.42493357  1
  O  O60  1  0.34515189  0.50034880  0.07341314  1
  O  O61  1  0.14623668  0.65831737  0.07218505  1
  O  O62  1  0.50784635  0.85910074  0.07392031  1
  O  O63  1  0.34317067  0.85784225  0.57416996  1
  O  O64  1  0.50305992  0.65788388  0.57550236  1
  O  O65  1  0.14019709  0.48881190  0.57516505  1
  O  O66  1  0.29777362  0.82624009  0.25281139  1
  O  O67  1  0.51545434  0.69759500  0.25323260  1
  O  O68  1  0.17038706  0.46783300  0.25296902  1
  O  O69  1  0.29677223  0.46658038  0.75560340  1
  O  O70  1  0.17229568  0.70613013  0.75493740  1
  O  O71  1  0.53443319  0.83025104  0.75497659  1
loop_
_geom_bond_atom_site_label_1
_geom_bond_atom_site_label_2
_geom_bond_distance
_geom_bond_site_symmetry_2
Na0 O53 2.381963 1_555
Na0 O67 2.387481 1_545
Na0 O52 2.390268 1_555
Na0 O16 2.613597 1_555
Na0 O66 2.655836 1_545
Na0 O31 2.765912 1_545
Na0 O2 2.847781 1_555
Na0 O9 2.882605 1_545
Na1 O51 2.297529 1_555
Na1 O68 2.427889 1_555
Na1 O17 2.429497 1_555
Na1 O53 2.517411 1_555
Na1 O67 2.628179 1_555
Na1 O0 2.814192 1_555
Na1 O32 2.852633 1_555
Na1 O10 2.900540 1_555
Na2 O37 2.295655 1_555
Na2 O36 2.338837 1_655
Na2 O58 2.382996 1_555
Na2 O1 2.486619 1_555
Na2 O59 2.621178 1_555
Na2 O22 2.848185 1_555
Na2 O32 2.951558 1_555
Na3 O38 2.316194 1_555
Na3 O36 2.408308 1_545
Na3 O37 2.446508 1_445
Na3 O43 2.743051 1_555
Na3 O42 2.745531 1_455
Na3 O44 2.805140 1_445
Na4 O47 2.537910 1_556
Na4 O46 2.604722 1_456
Na4 O45 2.605428 1_446
Na4 O39 2.644980 1_555
Na4 O40 2.649236 1_545
Na4 O41 2.649415 1_445
Na5 O49 2.475109 1_555
Na5 O50 2.493172 1_555
Na5 O48 2.509898 1_555
Na5 O56 2.709800 1_555
Na5 O54 2.710871 1_555
Na5 O55 2.721093 1_555
Na6 O51 2.447194 1_555
Na6 O59 2.585281 1_555
Na6 O52 2.614012 1_555
Na6 O57 2.653617 1_555
Na6 O58 2.693507 1_555
Na6 O53 2.726683 1_555
Na7 O60 2.578230 1_555
Na7 O66 2.591044 1_555
Na7 O67 2.591890 1_555
Na7 O68 2.593022 1_555
Na7 O61 2.605765 1_555
Na7 O62 2.660105 1_555
Na8 O64 2.543740 1_555
Na8 O69 2.635261 1_555
Na8 O71 2.635866 1_555
Na8 O65 2.649278 1_555
Na8 O70 2.657443 1_555
Na8 O63 2.675419 1_555
Nb0 O40 1.963357 1_545
Nb0 O39 1.964085 1_555
Nb0 O41 1.970459 1_445
Nb0 O3 1.995266 1_555
Nb0 O4 2.019022 1_445
Nb0 O5 2.022102 1_455
Nb1 O44 1.917553 1_555
Nb1 O6 2.019549 1_555
Nb1 O8 2.022481 1_655
Nb1 O43 2.026638 1_665
Nb1 O42 2.027646 1_565
Nb1 O7 2.067643 1_665
Nb2 O9 1.953392 1_555
Nb2 O47 1.996611 1_665
Nb2 O11 2.015963 1_655
Nb2 O10 2.033550 1_665
Nb2 O45 2.049497 1_555
Nb2 O46 2.059787 1_565
Nb3 O18 1.949818 1_556
Nb3 O56 1.960751 1_555
Nb3 O54 1.965684 1_555
Nb3 O55 2.004035 1_555
Nb3 O20 2.086586 1_556
Nb3 O19 2.101500 1_556
Nb4 O59 1.973843 1_555
Nb4 O22 1.979385 1_555
Nb4 O57 1.985704 1_555
Nb4 O58 2.009755 1_555
Nb4 O23 2.052888 1_555
Nb4 O21 2.059055 1_555
Nb5 O25 1.928818 1_554
Nb5 O24 1.931346 1_554
Nb5 O60 1.966455 1_555
Nb5 O26 1.966587 1_554
Nb5 O61 2.067350 1_555
Nb5 O62 2.092605 1_555
Nb6 O27 1.913024 1_555
Nb6 O28 1.914116 1_555
Nb6 O29 1.928234 1_555
Nb6 O64 1.985095 1_555
Nb6 O65 2.086226 1_555
Nb6 O63 2.086658 1_555
Nb7 O30 1.912284 1_555
Nb7 O31 1.927051 1_555
Nb7 O32 1.944595 1_555
Nb7 O67 2.067780 1_555
Nb7 O66 2.133695 1_555
Nb7 O68 2.175144 1_555
Nb8 O33 1.929951 1_555
Nb8 O34 1.930304 1_555
Nb8 O35 1.934449 1_555
Nb8 O69 2.092835 1_555
Nb8 O70 2.099761 1_555
Nb8 O71 2.112143 1_555
In0 O1 2.094452 1_445
In0 O38 2.096725 1_555
In0 O36 2.142434 1_545
In0 O0 2.147896 1_555
In0 O2 2.151666 1_455
In0 O37 2.166366 1_445
In1 O14 2.040647 1_555
In1 O12 2.131166 1_555
In1 O13 2.135837 1_555
In1 O48 2.208116 1_555
In1 O49 2.219695 1_555
In1 O50 2.237265 1_555
In2 O17 2.073051 1_555
In2 O15 2.087833 1_555
In2 O51 2.133573 1_555
In2 O16 2.172585 1_555
In2 O52 2.185114 1_555
In2 O53 2.258078 1_555
O0 P0 1.521134 1_545
O1 Si0 1.597725 1_555
O2 P1 1.520968 1_655
O3 P2 1.559596 1_555
O4 P3 1.554139 1_655
O5 P4 1.553400 1_545
O6 P4 1.566358 1_555
O7 P2 1.554239 1_555
O8 P3 1.566582 1_555
O9 Si0 1.690183 1_555
O10 P1 1.586329 1_555
O11 P0 1.576100 1_555
O12 P5 1.519904 1_555
O13 P6 1.519186 1_555
O14 Si1 1.584674 1_555
O15 P7 1.515675 1_555
O16 P8 1.523264 1_555
O17 Si2 1.602371 1_555
O18 Si2 1.657147 1_555
O19 P7 1.545517 1_555
O20 P8 1.549601 1_555
O21 P6 1.558376 1_555
O22 Si1 1.659842 1_555
O23 P5 1.559255 1_555
O24 Si3 1.627598 1_555
O25 Si4 1.630866 1_555
O26 Si5 1.615527 1_555
O27 Si6 1.629977 1_555
O28 Si7 1.628785 1_555
O29 Si8 1.612439 1_555
O30 Si8 1.669758 1_555
O31 Si6 1.690320 1_555
O32 Si7 1.688672 1_555
O33 Si4 1.645927 1_555
O34 Si5 1.643569 1_555
O35 Si3 1.639797 1_555
O36 Si8 1.592141 1_555
O37 Si6 1.590899 1_555
O38 Si7 1.576268 1_555
O39 Si4 1.637606 1_555
O40 Si5 1.636807 1_555
O41 Si3 1.630826 1_555
O42 P5 1.576679 1_555
O43 P6 1.578517 1_555
O44 Si1 1.683067 1_555
O45 P7 1.575316 1_555
O46 P8 1.576005 1_555
O47 Si2 1.657490 1_555
O48 P4 1.521409 1_545
O49 P2 1.518945 1_555
O50 P3 1.518289 1_655
O51 Si0 1.612446 1_555
O52 P1 1.522107 1_655
O53 P0 1.537268 1_545
O54 Si3 1.635348 1_555
O55 Si4 1.623585 1_655
O56 Si5 1.641527 1_545
O57 Si6 1.623677 1_545
O58 Si7 1.649018 1_555
O59 Si8 1.655352 1_655
O60 Si2 1.644209 1_555
O61 P7 1.547814 1_455
O62 P8 1.548204 1_565
O63 P6 1.541501 1_565
O64 Si1 1.636749 1_555
O65 P5 1.540529 1_455
O66 P0 1.560864 1_555
O67 Si0 1.690579 1_555
O68 P1 1.563359 1_555
O69 P2 1.566827 1_555
O70 P3 1.564201 1_555
O71 P4 1.561711 1_555
