# generated using pymatgen
data_Sr2MgTiMoO6
_symmetry_space_group_name_H-M   'P 1'
_cell_length_a   7.34279332
_cell_length_b   6.03387603
_cell_length_c   5.59573418
_cell_angle_alpha   72.84605739
_cell_angle_beta   129.41397103
_cell_angle_gamma   128.12598073
_symmetry_Int_Tables_number   1
_chemical_formula_structural   Sr2MgTiMoO6
_chemical_formula_sum   'Sr2 Mg1 Ti1 Mo1 O6'
_cell_volume   148.74158235
_cell_formula_units_Z   1
loop_
 _symmetry_equiv_pos_site_id
 _symmetry_equiv_pos_as_xyz
  1  'x, y, z'
loop_
 _atom_site_type_symbol
 _atom_site_label
 _atom_site_symmetry_multiplicity
 _atom_site_fract_x
 _atom_site_fract_y
 _atom_site_fract_z
 _atom_site_occupancy
  Sr  Sr0  1  0.56795669  0.75833202  0.23313963  1
  Sr  Sr1  1  0.37050727  0.19661109  0.78102405  1
  Mg  Mg0  1  0.83528672  0.40829570  0.65882532  1
  Ti  Ti0  1  0.11024660  0.55036848  0.35144029  1
  Mo  Mo0  1  0.98158428  0.97791248  0.01591851  1
  O  O0  1  0.94520202  0.70647998  0.36745959  1
  O  O1  1  0.00038425  0.24614221  0.65038665  1
  O  O2  1  0.84308973  0.20997299  0.04866825  1
  O  O3  1  0.12813639  0.76096123  0.99163098  1
  O  O4  1  0.42888908  0.27825647  0.35852417  1
  O  O5  1  0.50300297  0.69238134  0.66203055  1
loop_
_geom_bond_atom_site_label_1
_geom_bond_atom_site_label_2
_geom_bond_distance
_geom_bond_site_symmetry_2
Mg0 O4 1.965513 1_555
Mg0 O1 1.998418 1_655
Mg0 O3 2.054888 1_655
Mg0 O2 2.140120 1_556
Mg0 O0 2.166628 1_555
Mo0 O4 2.109775 1_665
Mo0 O0 2.202258 1_555
Mo0 O3 2.218146 1_654
Mo0 O5 2.222337 1_554
Mo0 O1 2.225340 1_664
Mo0 O2 2.274785 1_565
O0 Ti0 1.990305 1_655
O0 Sr0 2.573619 1_555
O0 Sr1 2.703727 1_665
O1 Ti0 2.211897 1_555
O1 Sr1 2.522116 1_555
O1 Sr0 2.701204 1_445
O1 Sr0 3.215128 1_556
O2 Ti0 1.947911 1_655
O2 Sr0 2.600781 1_545
O2 Sr1 2.723478 1_554
O3 Ti0 2.075155 1_556
O3 Sr1 2.554477 1_565
O3 Sr0 2.600928 1_556
O4 Sr0 2.446310 1_555
O4 Sr1 2.520926 1_555
O5 Ti0 1.879962 1_555
O5 Sr1 2.528336 1_555
O5 Sr0 2.607956 1_555
O5 Sr0 3.029708 1_556
