# generated using pymatgen
data_Rb3BS3
_symmetry_space_group_name_H-M   'P 1'
_cell_length_a   6.41125936
_cell_length_b   10.41909508
_cell_length_c   13.12362994
_cell_angle_alpha   75.37836597
_cell_angle_beta   90.00000000
_cell_angle_gamma   90.00000000
_symmetry_Int_Tables_number   1
_chemical_formula_structural   Rb3BS3
_chemical_formula_sum   'Rb12 B4 S12'
_cell_volume   848.26086729
_cell_formula_units_Z   4
loop_
 _symmetry_equiv_pos_site_id
 _symmetry_equiv_pos_as_xyz
  1  'x, y, z'
loop_
 _atom_site_type_symbol
 _atom_site_label
 _atom_site_symmetry_multiplicity
 _atom_site_fract_x
 _atom_site_fract_y
 _atom_site_fract_z
 _atom_site_occupancy
  Rb  Rb0  1  0.64270157  0.25081511  0.50802566  1
  Rb  Rb1  1  0.14270157  0.74918489  0.99197434  1
  Rb  Rb2  1  0.35729843  0.74918489  0.49197434  1
  Rb  Rb3  1  0.85729843  0.25081511  0.00802566  1
  Rb  Rb4  1  0.28545385  0.02790801  0.14088254  1
  Rb  Rb5  1  0.78545385  0.97209199  0.35911746  1
  Rb  Rb6  1  0.71454615  0.97209199  0.85911746  1
  Rb  Rb7  1  0.21454615  0.02790801  0.64088254  1
  Rb  Rb8  1  0.43663060  0.40477749  0.19601474  1
  Rb  Rb9  1  0.93663060  0.59522251  0.30398526  1
  Rb  Rb10  1  0.56336940  0.59522251  0.80398526  1
  Rb  Rb11  1  0.06336940  0.40477749  0.69601474  1
  B  B0  1  0.11675527  0.23416957  0.37216311  1
  B  B1  1  0.61675527  0.76583043  0.12783689  1
  B  B2  1  0.88324473  0.76583043  0.62783689  1
  B  B3  1  0.38324473  0.23416957  0.87216311  1
  S  S0  1  0.92356515  0.28602680  0.26628138  1
  S  S1  1  0.42356515  0.71397320  0.23371862  1
  S  S2  1  0.07643485  0.71397320  0.73371862  1
  S  S3  1  0.57643485  0.28602680  0.76628138  1
  S  S4  1  0.28598859  0.09031605  0.37792767  1
  S  S5  1  0.78598859  0.90968395  0.12207233  1
  S  S6  1  0.71401141  0.90968395  0.62207233  1
  S  S7  1  0.21401141  0.09031605  0.87792767  1
  S  S8  1  0.35360305  0.33068696  0.97007566  1
  S  S9  1  0.85360305  0.66931304  0.52992434  1
  S  S10  1  0.64639695  0.66931304  0.02992434  1
  S  S11  1  0.14639695  0.33068696  0.47007566  1
loop_
_geom_bond_atom_site_label_1
_geom_bond_atom_site_label_2
_geom_bond_distance
_geom_bond_site_symmetry_2
Rb0 S11 3.294854 1_555
Rb0 S11 3.340637 1_655
Rb0 S4 3.518985 1_555
Rb0 S6 3.520835 1_545
Rb0 S3 3.525606 1_555
Rb0 S0 3.585331 1_555
Rb1 S10 3.294854 1_456
Rb1 S10 3.340637 1_556
Rb1 S5 3.518985 1_456
Rb1 S7 3.520835 1_565
Rb1 S2 3.525606 1_555
Rb1 S1 3.585331 1_556
Rb2 S9 3.294854 1_555
Rb2 S9 3.340637 1_455
Rb2 S6 3.518985 1_555
Rb2 S4 3.520835 1_565
Rb2 S1 3.525606 1_555
Rb2 S2 3.585331 1_555
Rb3 S8 3.294854 1_654
Rb3 S8 3.340637 1_554
Rb3 S7 3.518985 1_654
Rb3 S5 3.520835 1_545
Rb3 S0 3.525606 1_555
Rb3 S3 3.585331 1_554
Rb4 S1 3.309888 1_545
Rb4 S4 3.334925 1_555
Rb4 S7 3.377660 1_554
Rb4 S8 3.405512 1_554
Rb4 S5 3.462059 1_445
Rb4 S5 3.468402 1_545
Rb5 S0 3.309888 1_565
Rb5 S5 3.334925 1_555
Rb5 S6 3.377660 1_555
Rb5 S9 3.405512 1_555
Rb5 S4 3.462059 1_565
Rb5 S4 3.468402 1_665
Rb6 S3 3.309888 1_565
Rb6 S6 3.334925 1_555
Rb6 S5 3.377660 1_556
Rb6 S10 3.405512 1_556
Rb6 S7 3.462059 1_665
Rb6 S7 3.468402 1_565
Rb7 S2 3.309888 1_545
Rb7 S7 3.334925 1_555
Rb7 S4 3.377660 1_555
Rb7 S11 3.405512 1_555
Rb7 S6 3.462059 1_545
Rb7 S6 3.468402 1_445
Rb8 S8 3.290434 1_554
Rb8 S10 3.335179 1_555
Rb8 S1 3.381562 1_555
Rb8 S0 3.398708 1_555
Rb8 S0 3.553211 1_455
Rb8 S4 3.663061 1_555
Rb9 S9 3.290434 1_555
Rb9 S11 3.335179 1_655
Rb9 S0 3.381562 1_555
Rb9 S1 3.398708 1_655
Rb9 S1 3.553211 1_555
Rb9 S5 3.663061 1_555
Rb10 S10 3.290434 1_556
Rb10 S8 3.335179 1_555
Rb10 S3 3.381562 1_555
Rb10 S2 3.398708 1_555
Rb10 S2 3.553211 1_655
Rb10 S6 3.663061 1_555
Rb11 S11 3.290434 1_555
Rb11 S9 3.335179 1_455
Rb11 S2 3.381562 1_555
Rb11 S3 3.398708 1_455
Rb11 S3 3.553211 1_555
Rb11 S7 3.663061 1_555
B0 S11 1.830554 1_555
B0 S4 1.836347 1_555
B0 S0 1.837893 1_455
B0 Rb8 3.261126 1_555
B1 S10 1.830554 1_555
B1 S5 1.836347 1_555
B1 S1 1.837893 1_555
B1 Rb9 3.261126 1_555
B2 S9 1.830554 1_555
B2 S6 1.836347 1_555
B2 S2 1.837893 1_655
B2 Rb10 3.261126 1_555
B3 S8 1.830554 1_555
B3 S7 1.836347 1_555
B3 S3 1.837893 1_555
B3 Rb11 3.261126 1_555
