# generated using pymatgen
data_As2S2F3
_symmetry_space_group_name_H-M   'P 1'
_cell_length_a   6.15822500
_cell_length_b   9.96248500
_cell_length_c   20.20034000
_cell_angle_alpha   90.00000000
_cell_angle_beta   90.00000000
_cell_angle_gamma   90.00000000
_symmetry_Int_Tables_number   1
_chemical_formula_structural   As2S2F3
_chemical_formula_sum   'As16 S16 F24'
_cell_volume   1239.31558804
_cell_formula_units_Z   8
loop_
 _symmetry_equiv_pos_site_id
 _symmetry_equiv_pos_as_xyz
  1  'x, y, z'
loop_
 _atom_site_type_symbol
 _atom_site_label
 _atom_site_symmetry_multiplicity
 _atom_site_fract_x
 _atom_site_fract_y
 _atom_site_fract_z
 _atom_site_occupancy
  As  As0  1  0.00158000  0.37687300  0.32554800  1
  As  As1  1  0.00158000  0.62312700  0.17445200  1
  As  As2  1  0.99842000  0.87687300  0.67445200  1
  As  As3  1  0.99842000  0.12312700  0.82554800  1
  As  As4  1  0.99842000  0.62312700  0.67445200  1
  As  As5  1  0.99842000  0.37687300  0.82554800  1
  As  As6  1  0.00158000  0.12312700  0.32554800  1
  As  As7  1  0.00158000  0.87687300  0.17445200  1
  As  As8  1  0.94488700  0.75000000  0.50889900  1
  As  As9  1  0.94488700  0.25000000  0.99110100  1
  As  As10  1  0.05511300  0.25000000  0.49110100  1
  As  As11  1  0.05511300  0.75000000  0.00889900  1
  As  As12  1  0.48723200  0.75000000  0.83637100  1
  As  As13  1  0.48723200  0.25000000  0.66362900  1
  As  As14  1  0.51276800  0.25000000  0.16362900  1
  As  As15  1  0.51276800  0.75000000  0.33637100  1
  S  S0  1  0.69099100  0.75000000  0.13672100  1
  S  S1  1  0.69099100  0.25000000  0.36327900  1
  S  S2  1  0.30900900  0.25000000  0.86327900  1
  S  S3  1  0.30900900  0.75000000  0.63672100  1
  S  S4  1  0.69103800  0.75000000  0.03705900  1
  S  S5  1  0.69103800  0.25000000  0.46294100  1
  S  S6  1  0.30896200  0.25000000  0.96294100  1
  S  S7  1  0.30896200  0.75000000  0.53705900  1
  S  S8  1  0.14198600  0.57659300  0.07679300  1
  S  S9  1  0.85801400  0.92340700  0.57679300  1
  S  S10  1  0.85801400  0.07659300  0.92320700  1
  S  S11  1  0.85801400  0.42340700  0.92320700  1
  S  S12  1  0.14198600  0.07659300  0.42320700  1
  S  S13  1  0.14198600  0.92340700  0.07679300  1
  S  S14  1  0.85801400  0.57659300  0.57679300  1
  S  S15  1  0.14198600  0.42340700  0.42320700  1
  F  F0  1  0.25047100  0.75000000  0.78410500  1
  F  F1  1  0.25047100  0.25000000  0.71589500  1
  F  F2  1  0.74952900  0.25000000  0.21589500  1
  F  F3  1  0.74952900  0.75000000  0.28410500  1
  F  F4  1  0.72123100  0.75000000  0.88802100  1
  F  F5  1  0.72123100  0.25000000  0.61197900  1
  F  F6  1  0.27876900  0.25000000  0.11197900  1
  F  F7  1  0.27876900  0.75000000  0.38802100  1
  F  F8  1  0.39417700  0.37555100  0.21432800  1
  F  F9  1  0.39417700  0.62444900  0.28567200  1
  F  F10  1  0.60582300  0.87555100  0.78567200  1
  F  F11  1  0.60582300  0.12444900  0.71432800  1
  F  F12  1  0.60582300  0.62444900  0.78567200  1
  F  F13  1  0.60582300  0.37555100  0.71432800  1
  F  F14  1  0.39417700  0.12444900  0.21432800  1
  F  F15  1  0.39417700  0.87555100  0.28567200  1
  F  F16  1  0.36601800  0.87603900  0.88618800  1
  F  F17  1  0.36601800  0.12396100  0.61381200  1
  F  F18  1  0.36601800  0.62396100  0.88618800  1
  F  F19  1  0.63398200  0.62396100  0.38618800  1
  F  F20  1  0.36601800  0.37603900  0.61381200  1
  F  F21  1  0.63398200  0.12396100  0.11381200  1
  F  F22  1  0.63398200  0.87603900  0.38618800  1
  F  F23  1  0.63398200  0.37603900  0.11381200  1
loop_
_geom_bond_atom_site_label_1
_geom_bond_atom_site_label_2
_geom_bond_distance
_geom_bond_site_symmetry_2
As0 S15 2.203240 1_555
As0 S1 2.415962 1_455
As1 S8 2.203240 1_555
As1 S0 2.415962 1_455
As2 S9 2.203240 1_555
As2 S3 2.415962 1_655
As3 S10 2.203240 1_555
As3 S2 2.415962 1_655
As4 S14 2.203240 1_555
As4 S3 2.415962 1_655
As5 S11 2.203240 1_555
As5 S2 2.415962 1_655
As6 S12 2.203240 1_555
As6 S1 2.415962 1_455
As7 S13 2.203240 1_555
As7 S0 2.415962 1_455
As8 S14 2.269725 1_555
As8 S9 2.269725 1_555
As8 S7 2.313092 1_655
As9 S10 2.269725 1_555
As9 S11 2.269725 1_555
As9 S6 2.313092 1_655
As10 S15 2.269725 1_555
As10 S12 2.269725 1_555
As10 S5 2.313092 1_455
As11 S8 2.269725 1_555
As11 S13 2.269725 1_555
As11 S4 2.313092 1_455
As12 F18 1.773858 1_555
As12 F16 1.773858 1_555
As12 F10 1.773897 1_555
As12 F12 1.773897 1_555
As12 F4 1.779075 1_555
As12 F0 1.800150 1_555
As13 F20 1.773858 1_555
As13 F17 1.773858 1_555
As13 F13 1.773897 1_555
As13 F11 1.773897 1_555
As13 F5 1.779075 1_555
As13 F1 1.800150 1_555
As14 F23 1.773858 1_555
As14 F21 1.773858 1_555
As14 F8 1.773897 1_555
As14 F14 1.773897 1_555
As14 F6 1.779075 1_555
As14 F2 1.800150 1_555
As15 F22 1.773858 1_555
As15 F19 1.773858 1_555
As15 F15 1.773897 1_555
As15 F9 1.773897 1_555
As15 F7 1.779075 1_555
As15 F3 1.800150 1_555
S0 S4 2.013206 1_555
S1 S5 2.013206 1_555
S2 S6 2.013206 1_555
S3 S7 2.013206 1_555
