# generated using pymatgen
data_Al3Te3I
_symmetry_space_group_name_H-M   'P 1'
_cell_length_a   4.15318500
_cell_length_b   11.67025200
_cell_length_c   21.30771300
_cell_angle_alpha   90.00000000
_cell_angle_beta   90.00000000
_cell_angle_gamma   90.00000000
_symmetry_Int_Tables_number   1
_chemical_formula_structural   Al3Te3I
_chemical_formula_sum   'Al12 Te12 I4'
_cell_volume   1032.75748047
_cell_formula_units_Z   4
loop_
 _symmetry_equiv_pos_site_id
 _symmetry_equiv_pos_as_xyz
  1  'x, y, z'
loop_
 _atom_site_type_symbol
 _atom_site_label
 _atom_site_symmetry_multiplicity
 _atom_site_fract_x
 _atom_site_fract_y
 _atom_site_fract_z
 _atom_site_occupancy
  Al  Al0  1  0.75000000  0.32354700  0.87165600  1
  Al  Al1  1  0.25000000  0.67645300  0.12834400  1
  Al  Al2  1  0.75000000  0.82354700  0.62834400  1
  Al  Al3  1  0.25000000  0.17645300  0.37165600  1
  Al  Al4  1  0.25000000  0.16392300  0.00534600  1
  Al  Al5  1  0.75000000  0.83607700  0.99465400  1
  Al  Al6  1  0.25000000  0.66392300  0.49465400  1
  Al  Al7  1  0.75000000  0.33607700  0.50534600  1
  Al  Al8  1  0.25000000  0.04400700  0.90501800  1
  Al  Al9  1  0.75000000  0.95599300  0.09498200  1
  Al  Al10  1  0.25000000  0.54400700  0.59498200  1
  Al  Al11  1  0.75000000  0.45599300  0.40501800  1
  Te  Te0  1  0.25000000  0.21372700  0.81858800  1
  Te  Te1  1  0.75000000  0.78627300  0.18141200  1
  Te  Te2  1  0.25000000  0.71372700  0.68141200  1
  Te  Te3  1  0.75000000  0.28627300  0.31858800  1
  Te  Te4  1  0.75000000  0.90642400  0.87454600  1
  Te  Te5  1  0.25000000  0.09357600  0.12545400  1
  Te  Te6  1  0.75000000  0.40642400  0.62545400  1
  Te  Te7  1  0.25000000  0.59357600  0.37454600  1
  Te  Te8  1  0.75000000  0.31360900  0.99703900  1
  Te  Te9  1  0.25000000  0.68639100  0.00296100  1
  Te  Te10  1  0.75000000  0.81360900  0.50296100  1
  Te  Te11  1  0.25000000  0.18639100  0.49703900  1
  I  I0  1  0.75000000  0.52984400  0.83551300  1
  I  I1  1  0.25000000  0.47015600  0.16448700  1
  I  I2  1  0.75000000  0.02984400  0.66448700  1
  I  I3  1  0.25000000  0.97015600  0.33551300  1
loop_
_geom_bond_atom_site_label_1
_geom_bond_atom_site_label_2
_geom_bond_distance
_geom_bond_site_symmetry_2
Al0 I0 2.527713 1_555
Al0 Te8 2.674141 1_555
Al0 Te0 2.689501 1_555
Al0 Te0 2.689501 1_655
Al1 I1 2.527713 1_555
Al1 Te9 2.674141 1_555
Al1 Te1 2.689501 1_455
Al1 Te1 2.689501 1_555
Al2 I2 2.527713 1_565
Al2 Te10 2.674141 1_555
Al2 Te2 2.689501 1_655
Al2 Te2 2.689501 1_555
Al3 I3 2.527713 1_545
Al3 Te11 2.674141 1_555
Al3 Te3 2.689501 1_455
Al3 Te3 2.689501 1_555
Al4 Al8 2.555089 1_554
Al4 Te5 2.687681 1_555
Al4 Te8 2.719399 1_554
Al4 Te8 2.719399 1_454
Al5 Al9 2.555089 1_556
Al5 Te4 2.687681 1_555
Al5 Te9 2.719399 1_656
Al5 Te9 2.719399 1_556
Al6 Te7 2.687681 1_555
Al6 Te10 2.719399 1_555
Al6 Te10 2.719399 1_455
Al7 Te6 2.687681 1_555
Al7 Te11 2.719399 1_555
Al7 Te11 2.719399 1_655
Al8 Te4 2.704044 1_445
Al8 Te4 2.704044 1_545
Al8 Te0 2.704563 1_555
Al9 Te5 2.704044 1_665
Al9 Te5 2.704044 1_565
Al9 Te1 2.704563 1_555
Al10 Al6 2.555089 1_555
Al10 Te6 2.704044 1_455
Al10 Te6 2.704044 1_555
Al10 Te2 2.704563 1_555
Al11 Al7 2.555089 1_555
Al11 Te7 2.704044 1_655
Al11 Te7 2.704044 1_555
Al11 Te3 2.704563 1_555
