# generated using pymatgen
data_Na10Mg6Si3Ge2(S3O16)3
_symmetry_space_group_name_H-M   'P 1'
_cell_length_a   17.62315385
_cell_length_b   8.86737559
_cell_length_c   22.13836390
_cell_angle_alpha   90.17224822
_cell_angle_beta   89.84057708
_cell_angle_gamma   120.27221613
_symmetry_Int_Tables_number   1
_chemical_formula_structural   Na10Mg6Si3Ge2(S3O16)3
_chemical_formula_sum   'Na30 Mg18 Si9 Ge6 S27 O144'
_cell_volume   2987.82137772
_cell_formula_units_Z   3
loop_
 _symmetry_equiv_pos_site_id
 _symmetry_equiv_pos_as_xyz
  1  'x, y, z'
loop_
 _atom_site_type_symbol
 _atom_site_label
 _atom_site_symmetry_multiplicity
 _atom_site_fract_x
 _atom_site_fract_y
 _atom_site_fract_z
 _atom_site_occupancy
  Na  Na0  1  0.31478093  0.00098351  0.24663475  1
  Na  Na1  1  0.18576645  0.35575989  0.25076677  1
  Na  Na2  1  0.49599006  0.63566677  0.25359609  1
  Na  Na3  1  0.31119850  0.61964403  0.74048200  1
  Na  Na4  1  0.81430472  0.62928736  0.74590733  1
  Na  Na5  1  0.99986536  0.35282001  0.75296609  1
  Na  Na6  1  0.18323645  0.01423001  0.75434389  1
  Na  Na7  1  0.68623621  0.01708267  0.75039448  1
  Na  Na8  1  0.16354400  0.35069154  0.58873790  1
  Na  Na9  1  0.83236402  0.69771690  0.08352253  1
  Na  Na10  1  0.48488420  0.65834971  0.91724563  1
  Na  Na11  1  0.35385522  0.04256631  0.91722717  1
  Na  Na12  1  0.85265713  0.03584202  0.92064546  1
  Na  Na13  1  0.66067040  0.30085960  0.91703732  1
  Na  Na14  1  0.98345078  0.30911279  0.41575800  1
  Na  Na15  1  0.16031897  0.02043816  0.41573001  1
  Na  Na16  1  0.35286699  0.66921307  0.42157857  1
  Na  Na17  1  0.85316300  0.66414184  0.41561467  1
  Na  Na18  1  0.99593422  0.97351599  0.50078000  1
  Na  Na19  1  0.50418051  0.00186994  0.50159532  1
  Na  Na20  1  0.01022895  0.01957001  0.00157851  1
  Na  Na21  1  0.50164876  0.01670515  0.00101754  1
  Na  Na22  1  0.32942703  0.33035442  0.83367985  1
  Na  Na23  1  0.83345095  0.33284999  0.83010622  1
  Na  Na24  1  0.33307797  0.33227493  0.33020458  1
  Na  Na25  1  0.83022415  0.33213712  0.33276500  1
  Na  Na26  1  0.16045876  0.66537688  0.16226003  1
  Na  Na27  1  0.67691320  0.69079159  0.16269343  1
  Na  Na28  1  0.17496655  0.66964868  0.66149133  1
  Na  Na29  1  0.66133279  0.65499025  0.66179956  1
  Mg  Mg0  1  0.00039283  0.99210122  0.34985488  1
  Mg  Mg1  1  0.50299240  0.00201164  0.35309363  1
  Mg  Mg2  1  0.00444476  0.00976415  0.85206388  1
  Mg  Mg3  1  0.50222378  0.00943046  0.85085460  1
  Mg  Mg4  1  0.33428071  0.34244379  0.68146461  1
  Mg  Mg5  1  0.82960838  0.32457523  0.68375161  1
  Mg  Mg6  1  0.32951599  0.33413930  0.18385451  1
  Mg  Mg7  1  0.83377502  0.32580901  0.18240484  1
  Mg  Mg8  1  0.33209086  0.33142621  0.98150681  1
  Mg  Mg9  1  0.84028382  0.32225848  0.99011493  1
  Mg  Mg10  1  0.34293831  0.35555378  0.48928666  1
  Mg  Mg11  1  0.83186779  0.33341213  0.48151157  1
  Mg  Mg12  1  0.16471900  0.66287463  0.01806788  1
  Mg  Mg13  1  0.66669761  0.66837175  0.02097255  1
  Mg  Mg14  1  0.17025126  0.67945812  0.52021049  1
  Mg  Mg15  1  0.66454812  0.66503979  0.51813338  1
  Mg  Mg16  1  0.67079059  0.66739368  0.31571975  1
  Mg  Mg17  1  0.16546590  0.65604693  0.81544027  1
  Si  Si0  1  0.14287606  0.99924970  0.25001799  1
  Si  Si1  1  0.35274011  0.70925346  0.25508637  1
  Si  Si2  1  0.14823255  0.29127563  0.74991343  1
  Si  Si3  1  0.64295380  0.28737276  0.74990558  1
  Si  Si4  1  0.85032261  0.99518456  0.75652177  1
  Si  Si5  1  0.33740196  0.64529185  0.58506373  1
  Si  Si6  1  0.83429696  0.03322549  0.08480953  1
  Si  Si7  1  0.52134840  0.37637165  0.91786585  1
  Si  Si8  1  0.02096931  0.66616578  0.41754065  1
  Ge  Ge0  1  0.99033583  0.00311895  0.65485205  1
  Ge  Ge1  1  0.50099163  0.01370074  0.64473326  1
  Ge  Ge2  1  0.00006490  0.99772647  0.14870193  1
  Ge  Ge3  1  0.49363950  0.99071900  0.15169459  1
  Ge  Ge4  1  0.15885522  0.67618372  0.30781789  1
  Ge  Ge5  1  0.65945013  0.64266035  0.80895672  1
  S  S0  1  0.64506837  0.00343099  0.24958651  1
  S  S1  1  0.85088111  0.70178752  0.24901361  1
  S  S2  1  -0.00140117  0.29091919  0.25217722  1
  S  S3  1  0.50457309  0.29172781  0.24823645  1
  S  S4  1  0.00081801  0.71457866  0.74913947  1
  S  S5  1  0.50141412  0.70943817  0.75163679  1
  S  S6  1  0.35482421  0.00267009  0.74959198  1
  S  S7  1  0.48235330  0.33303927  0.58475843  1
  S  S8  1  0.97774725  0.32401719  0.58459360  1
  S  S9  1  0.18248333  0.03622621  0.58513972  1
  S  S10  1  0.68422143  0.03634798  0.58392021  1
  S  S11  1  0.83651726  0.63742484  0.58522413  1
  S  S12  1  0.47998820  0.63622471  0.08639171  1
  S  S13  1  0.98284024  0.63162083  0.08509026  1
  S  S14  1  0.33695989  0.03616280  0.08483383  1
  S  S15  1  0.18484693  0.33317889  0.08418908  1
  S  S16  1  0.68026637  0.32067214  0.08586405  1
  S  S17  1  0.31221435  0.66414428  0.91652154  1
  S  S18  1  0.81452640  0.66338586  0.91595393  1
  S  S19  1  0.01887096  0.37413176  0.91649104  1
  S  S20  1  0.16401407  0.95488260  0.91702633  1
  S  S21  1  0.66723976  0.95757976  0.91551333  1
  S  S22  1  0.31437628  0.96455044  0.41520474  1
  S  S23  1  0.81089308  0.95837540  0.41710426  1
  S  S24  1  0.16710203  0.37579328  0.41617762  1
  S  S25  1  0.66434365  0.37209274  0.41751095  1
  S  S26  1  0.52092303  0.66592183  0.41514787  1
  O  O0  1  0.10862441  0.04601737  0.31008620  1
  O  O1  1  0.60344507  0.02542804  0.30312276  1
  O  O2  1  0.41177966  0.79382733  0.31330354  1
  O  O3  1  0.90267398  0.78678496  0.30366331  1
  O  O4  1  0.48985634  0.18237116  0.30104370  1
  O  O5  1  0.98756629  0.19234556  0.30793498  1
  O  O6  1  0.10255553  0.15647299  0.80348788  1
  O  O7  1  0.60855523  0.17107469  0.80962089  1
  O  O8  1  0.48611263  0.78271779  0.80742187  1
  O  O9  1  0.98134450  0.78556320  0.80255909  1
  O  O10  1  0.40353480  0.01956035  0.80547191  1
  O  O11  1  0.90738125  0.02648260  0.81545061  1
  O  O12  1  0.39506238  0.96380962  0.69600309  1
  O  O13  1  0.89018763  0.93701767  0.69603018  1
  O  O14  1  0.07965418  0.20066915  0.68656025  1
  O  O15  1  0.57798331  0.18778509  0.69032396  1
  O  O16  1  0.01824956  0.82973540  0.69406789  1
  O  O17  1  0.51662532  0.82362863  0.69865686  1
  O  O18  1  0.39588092  0.84908006  0.19530077  1
  O  O19  1  0.89298636  0.81203263  0.19285935  1
  O  O20  1  0.01520399  0.20785024  0.19854847  1
  O  O21  1  0.52024416  0.21228073  0.19178871  1
  O  O22  1  0.07839136  0.97209700  0.19062434  1
  O  O23  1  0.58388999  0.96382115  0.19382605  1
  O  O24  1  0.44013760  0.34803516  0.63950450  1
  O  O25  1  0.93667558  0.34316709  0.63953814  1
  O  O26  1  0.23370459  0.12116952  0.64010037  1
  O  O27  1  0.73377852  0.11130908  0.64029024  1
  O  O28  1  0.32073532  0.52358421  0.64360457  1
  O  O29  1  0.82845131  0.53565818  0.63957576  1
  O  O30  1  0.43712082  0.53172666  0.14069311  1
  O  O31  1  0.94124587  0.53159607  0.13991368  1
  O  O32  1  0.32864342  0.12141567  0.13946265  1
  O  O33  1  0.82136130  0.12643471  0.14183986  1
  O  O34  1  0.23488167  0.35820773  0.14039946  1
  O  O35  1  0.73740600  0.34928275  0.13791740  1
  O  O36  1  0.22796078  0.30788043  0.03140967  1
  O  O37  1  0.71764409  0.29491126  0.02899675  1
  O  O38  1  0.42752792  0.56094112  0.03109588  1
  O  O39  1  0.92621085  0.55365041  0.03135175  1
  O  O40  1  0.34929083  0.13877623  0.02954007  1
  O  O41  1  0.85612566  0.13642207  0.02065525  1
  O  O42  1  0.22429622  0.14573741  0.53028688  1
  O  O43  1  0.72809977  0.14757033  0.53123521  1
  O  O44  1  0.35596934  0.57107787  0.52259038  1
  O  O45  1  0.84991139  0.56092697  0.52942719  1
  O  O46  1  0.42942694  0.30390429  0.53008188  1
  O  O47  1  0.92612763  0.29955863  0.52940164  1
  O  O48  1  0.27057902  0.69675116  0.96871257  1
  O  O49  1  0.77383378  0.69428907  0.96908305  1
  O  O50  1  0.07221235  0.46631363  0.96928853  1
  O  O51  1  0.58768440  0.47009842  0.97219515  1
  O  O52  1  0.15740041  0.84873883  0.96985789  1
  O  O53  1  0.65803238  0.85088307  0.96808231  1
  O  O54  1  0.27344652  0.84776634  0.46646543  1
  O  O55  1  0.77146949  0.84559170  0.47026299  1
  O  O56  1  0.15801905  0.46121070  0.47030935  1
  O  O57  1  0.65405728  0.45593939  0.47177051  1
  O  O58  1  0.08726446  0.70608968  0.47187142  1
  O  O59  1  0.57340323  0.67994483  0.46801256  1
  O  O60  1  0.06761865  0.62128492  0.35548016  1
  O  O61  1  0.56121417  0.65074622  0.35772656  1
  O  O62  1  0.25973511  0.88700095  0.35746954  1
  O  O63  1  0.76013026  0.87847826  0.36162846  1
  O  O64  1  0.18452384  0.48478532  0.36041526  1
  O  O65  1  0.67997768  0.48215518  0.36300098  1
  O  O66  1  0.05849586  0.46887203  0.85918321  1
  O  O67  1  0.56757690  0.51360883  0.85589257  1
  O  O68  1  0.17863014  0.87858494  0.86041809  1
  O  O69  1  0.68445455  0.88546474  0.85880030  1
  O  O70  1  0.26406253  0.64497326  0.85970265  1
  O  O71  1  0.75876512  0.63314582  0.85908222  1
  O  O72  1  0.00633624  0.83363427  0.41083676  1
  O  O73  1  0.51082717  0.82366751  0.41437602  1
  O  O74  1  0.40284139  0.98661621  0.40842042  1
  O  O75  1  0.90190587  0.98326792  0.41164198  1
  O  O76  1  0.08417530  0.20384392  0.41141113  1
  O  O77  1  0.58583895  0.19666822  0.41119091  1
  O  O78  1  0.00898425  0.19681285  0.91591558  1
  O  O79  1  0.50653917  0.17939326  0.91102895  1
  O  O80  1  0.08449504  0.96926175  0.91380965  1
  O  O81  1  0.58440166  0.96420390  0.91135649  1
  O  O82  1  0.40332462  0.82085787  0.91224197  1
  O  O83  1  0.90241768  0.81903338  0.90947963  1
  O  O84  1  0.49225941  0.17108130  0.58750482  1
  O  O85  1  0.98460887  0.15683627  0.58830375  1
  O  O86  1  0.09348219  0.02662106  0.58841486  1
  O  O87  1  0.59513913  0.02372457  0.58797827  1
  O  O88  1  0.42972202  0.84438312  0.59519489  1
  O  O89  1  0.92129859  0.81811577  0.59024817  1
  O  O90  1  0.48685697  0.81758031  0.09233455  1
  O  O91  1  0.99107210  0.81167068  0.08871127  1
  O  O92  1  0.42180093  0.02528262  0.08918523  1
  O  O93  1  0.92793969  0.01104874  0.09578795  1
  O  O94  1  0.09538234  0.16903165  0.08887012  1
  O  O95  1  0.58970375  0.15355809  0.09257860  1
  O  O96  1  0.34677581  0.15840535  0.74175977  1
  O  O97  1  0.84161314  0.16512177  0.74387815  1
  O  O98  1  0.24612561  0.31565427  0.74440629  1
  O  O99  1  0.74253213  0.32705922  0.73986049  1
  O  O100  1  0.42711334  0.53140256  0.74461461  1
  O  O101  1  0.92488826  0.53663826  0.73914785  1
  O  O102  1  0.34206732  0.51940175  0.24369539  1
  O  O103  1  0.84296111  0.52886136  0.24228934  1
  O  O104  1  0.42455236  0.30718833  0.24071200  1
  O  O105  1  0.92528939  0.32230082  0.24543437  1
  O  O106  1  0.24268113  0.15840021  0.24013820  1
  O  O107  1  0.73143613  0.15978673  0.24215000  1
  O  O108  1  0.32123347  0.50800693  0.92357133  1
  O  O109  1  0.81872814  0.50091692  0.92162433  1
  O  O110  1  0.42429665  0.36021578  0.91966016  1
  O  O111  1  0.92948746  0.35557079  0.91927606  1
  O  O112  1  0.24482904  0.13191593  0.92244595  1
  O  O113  1  0.74317506  0.13990515  0.92041777  1
  O  O114  1  0.31871938  0.13537171  0.42202580  1
  O  O115  1  0.82071715  0.13375117  0.42384621  1
  O  O116  1  0.24320977  0.34542056  0.42060170  1
  O  O117  1  0.74513359  0.35680719  0.42275016  1
  O  O118  1  0.43073163  0.50627293  0.41760910  1
  O  O119  1  0.92398546  0.48831644  0.41912993  1
  O  O120  1  0.17285382  0.48611386  0.07749862  1
  O  O121  1  0.66907339  0.47419602  0.08142511  1
  O  O122  1  0.07105204  0.65333039  0.07836590  1
  O  O123  1  0.56868652  0.66240406  0.08133722  1
  O  O124  1  0.26034652  0.85814489  0.08000056  1
  O  O125  1  0.75422228  0.83013150  0.07980314  1
  O  O126  1  0.16949961  0.85996240  0.58117980  1
  O  O127  1  0.67139306  0.85898167  0.57713206  1
  O  O128  1  0.24846372  0.65827032  0.57932041  1
  O  O129  1  0.75992550  0.66202950  0.58031967  1
  O  O130  1  0.06824963  0.47329510  0.57998567  1
  O  O131  1  0.57125598  0.48863032  0.57972830  1
  O  O132  1  0.15114222  0.81833755  0.25235735  1
  O  O133  1  0.65087888  0.84141718  0.25233995  1
  O  O134  1  0.25042035  0.68416901  0.26047482  1
  O  O135  1  0.76308742  0.68573173  0.25254656  1
  O  O136  1  0.08570972  0.46536906  0.25404977  1
  O  O137  1  0.58105559  0.47079891  0.25281062  1
  O  O138  1  0.15479629  0.48270141  0.75154205  1
  O  O139  1  0.65077304  0.48400295  0.75291992  1
  O  O140  1  0.08173089  0.70217429  0.75427843  1
  O  O141  1  0.58685705  0.70743990  0.75522077  1
  O  O142  1  0.26442260  0.84533609  0.75325085  1
  O  O143  1  0.74874164  0.81490519  0.76087984  1
loop_
_geom_bond_atom_site_label_1
_geom_bond_atom_site_label_2
_geom_bond_distance
_geom_bond_site_symmetry_2
Na0 O106 2.318204 1_555
Na0 O104 2.415976 1_555
Na0 O134 2.462365 1_545
Na0 O132 2.499159 1_545
Na0 O32 2.564840 1_555
Na0 O62 2.645070 1_545
Na0 O18 2.659200 1_545
Na0 O4 2.926284 1_555
Na1 O102 2.384657 1_555
Na1 O136 2.405418 1_555
Na1 O106 2.426953 1_555
Na1 O134 2.545026 1_555
Na1 O34 2.586358 1_555
Na1 O64 2.685183 1_555
Na1 O0 2.713617 1_555
Na1 O20 2.850822 1_555
Na2 O102 2.377293 1_555
Na2 O133 2.399827 1_555
Na2 O104 2.539733 1_555
Na2 O61 2.551737 1_555
Na2 O137 2.567938 1_555
Na2 O30 2.685101 1_555
Na2 O2 2.827178 1_555
Na2 O23 2.843405 1_555
Na3 O98 2.339457 1_555
Na3 O28 2.341992 1_555
Na3 O138 2.399002 1_555
Na3 O100 2.531131 1_555
Na3 O142 2.534410 1_555
Na3 O70 2.806955 1_555
Na3 O12 2.816051 1_555
Na4 O99 2.319736 1_555
Na4 O143 2.462925 1_555
Na4 O101 2.471265 1_555
Na4 O139 2.498963 1_555
Na4 O29 2.546857 1_555
Na4 O13 2.604707 1_555
Na4 O71 2.693762 1_555
Na4 O9 2.838358 1_555
Na5 O138 2.368895 1_655
Na5 O97 2.431007 1_555
Na5 O66 2.565731 1_655
Na5 O101 2.583226 1_555
Na5 O140 2.678174 1_655
Na5 O25 2.733363 1_555
Na5 O14 2.801430 1_655
Na5 O11 2.863590 1_555
Na6 O98 2.331595 1_555
Na6 O140 2.422038 1_545
Na6 O96 2.510224 1_555
Na6 O142 2.539794 1_545
Na6 O6 2.566625 1_555
Na6 O68 2.624003 1_545
Na6 O26 2.690448 1_555
Na6 O16 2.850225 1_545
Na7 O97 2.369985 1_555
Na7 O141 2.402108 1_545
Na7 O99 2.418070 1_555
Na7 O143 2.544864 1_545
Na7 O27 2.576185 1_555
Na7 O69 2.665004 1_545
Na7 O7 2.705895 1_555
Na7 O17 2.833152 1_545
Na8 O128 2.368197 1_555
Na8 O130 2.425632 1_555
Na8 O86 2.491002 1_555
Na8 O14 2.581074 1_555
Na8 O28 2.688022 1_555
Na8 O85 2.726503 1_455
Na8 O56 2.820797 1_555
Na8 O42 2.839655 1_555
Na9 O125 2.216602 1_555
Na9 O93 2.431079 1_565
Na9 O91 2.451274 1_555
Na9 O121 2.541926 1_555
Na9 O19 2.633573 1_555
Na9 O49 2.732397 1_554
Na9 O39 2.794985 1_555
Na9 O35 2.931724 1_555
Na10 O110 2.299235 1_555
Na10 O81 2.377747 1_555
Na10 O108 2.497402 1_555
Na10 O82 2.498970 1_555
Na10 O8 2.668285 1_555
Na10 O38 2.690568 1_556
Na10 O67 2.734993 1_555
Na10 O53 2.871879 1_555
Na11 O79 2.332078 1_555
Na11 O112 2.421948 1_555
Na11 O110 2.439656 1_555
Na11 O82 2.522591 1_545
Na11 O40 2.640440 1_556
Na11 O10 2.663491 1_555
Na11 O48 2.886282 1_545
Na11 O68 2.952187 1_545
Na12 O41 2.373844 1_556
Na12 O78 2.381776 1_655
Na12 O111 2.449956 1_555
Na12 O83 2.494383 1_545
Na12 O113 2.523747 1_555
Na12 O11 2.535255 1_555
Na12 O49 2.832297 1_545
Na12 O69 2.909628 1_545
Na13 O79 2.367998 1_555
Na13 O109 2.436124 1_555
Na13 O113 2.500044 1_555
Na13 O81 2.585998 1_545
Na13 O7 2.598655 1_555
Na13 O37 2.687451 1_556
Na13 O51 2.706290 1_555
Na13 O71 2.862061 1_555
Na14 O119 2.303641 1_555
Na14 O76 2.387597 1_655
Na14 O115 2.485445 1_555
Na14 O75 2.496960 1_545
Na14 O5 2.614409 1_555
Na14 O47 2.694111 1_555
Na14 O60 2.741358 1_655
Na14 O56 2.927382 1_655
Na15 O72 2.363916 1_545
Na15 O114 2.446140 1_555
Na15 O116 2.490937 1_555
Na15 O0 2.564115 1_555
Na15 O76 2.580057 1_555
Na15 O58 2.714013 1_545
Na15 O42 2.770103 1_555
Na15 O62 2.863836 1_545
Na16 O73 2.409441 1_555
Na16 O44 2.412746 1_555
Na16 O118 2.444549 1_555
Na16 O74 2.507279 1_555
Na16 O116 2.526747 1_555
Na16 O2 2.624902 1_555
Na16 O54 2.769543 1_555
Na16 O64 2.902911 1_555
Na17 O72 2.337895 1_655
Na17 O117 2.417927 1_555
Na17 O119 2.440877 1_555
Na17 O75 2.510724 1_555
Na17 O3 2.670967 1_555
Na17 O45 2.673881 1_555
Na17 O65 2.884228 1_555
Na17 O55 2.905051 1_555
Na18 O89 2.393017 1_555
Na18 O72 2.397788 1_655
Na18 O86 2.477480 1_665
Na18 O85 2.596681 1_565
Na18 O75 2.609840 1_555
Na18 O76 2.703526 1_665
Na19 O87 2.442522 1_555
Na19 O88 2.473976 1_545
Na19 O84 2.492221 1_555
Na19 O73 2.531022 1_545
Na19 O77 2.561025 1_555
Na19 O74 2.690345 1_545
Na20 O94 2.395529 1_555
Na20 O78 2.473872 1_554
Na20 O80 2.501348 1_544
Na20 O93 2.516410 1_455
Na20 O91 2.573667 1_445
Na20 O83 2.742736 1_444
Na21 O92 2.426420 1_555
Na21 O79 2.438935 1_554
Na21 O95 2.468524 1_555
Na21 O90 2.612866 1_545
Na21 O82 2.616398 1_544
Na21 O81 2.635611 1_544
Na22 O98 2.428954 1_555
Na22 O110 2.461073 1_555
Na22 O112 2.557404 1_555
Na22 O108 2.582953 1_555
Na22 O100 2.633954 1_555
Na22 O96 2.647121 1_555
Na23 O97 2.464541 1_555
Na23 O111 2.544487 1_555
Na23 O99 2.548676 1_555
Na23 O113 2.591189 1_555
Na23 O109 2.600395 1_555
Na23 O101 2.642909 1_555
Na24 O102 2.489724 1_555
Na24 O118 2.531788 1_555
Na24 O106 2.532506 1_555
Na24 O116 2.587268 1_555
Na24 O114 2.611089 1_555
Na24 O104 2.629564 1_555
Na25 O119 2.449168 1_555
Na25 O117 2.564488 1_555
Na25 O105 2.584679 1_555
Na25 O107 2.590244 1_555
Na25 O103 2.594047 1_555
Na25 O115 2.628847 1_555
Na26 O122 2.406013 1_555
Na26 O132 2.459993 1_555
Na26 O124 2.510806 1_555
Na26 O120 2.534869 1_555
Na26 O136 2.580961 1_555
Na26 O134 2.649448 1_555
Na27 O125 2.247842 1_555
Na27 O135 2.520181 1_555
Na27 O123 2.545076 1_555
Na27 O133 2.555398 1_555
Na27 O121 2.580295 1_555
Na27 O137 2.705840 1_555
Na28 O128 2.261556 1_555
Na28 O126 2.490241 1_555
Na28 O138 2.504115 1_555
Na28 O130 2.554010 1_555
Na28 O142 2.561556 1_555
Na28 O140 2.730931 1_555
Na29 O131 2.374080 1_555
Na29 O139 2.476825 1_555
Na29 O129 2.480030 1_555
Na29 O127 2.551865 1_555
Na29 O141 2.609777 1_555
Na29 O143 2.644394 1_555
Mg0 O0 1.927587 1_565
Mg0 O72 1.992162 1_555
Mg0 O3 2.040484 1_455
Mg0 O5 2.116838 1_465
Mg0 O75 2.177163 1_455
Mg0 O76 2.182500 1_565
Mg1 O2 1.942691 1_545
Mg1 O1 2.005185 1_555
Mg1 O77 2.054646 1_555
Mg1 O4 2.079674 1_555
Mg1 O74 2.092862 1_545
Mg1 O73 2.143533 1_545
Mg2 O6 1.889085 1_555
Mg2 O11 1.967010 1_455
Mg2 O9 2.119593 1_445
Mg2 O80 2.124203 1_545
Mg2 O78 2.146717 1_555
Mg2 O83 2.154826 1_445
Mg3 O7 1.920834 1_555
Mg3 O79 1.981109 1_555
Mg3 O10 2.051857 1_555
Mg3 O8 2.112122 1_545
Mg3 O81 2.156812 1_545
Mg3 O82 2.177813 1_545
Mg4 O28 1.932690 1_555
Mg4 O98 2.007363 1_555
Mg4 O24 2.059843 1_555
Mg4 O26 2.078940 1_555
Mg4 O100 2.161811 1_555
Mg4 O96 2.206931 1_555
Mg5 O99 1.980308 1_555
Mg5 O97 2.032309 1_555
Mg5 O27 2.032803 1_555
Mg5 O25 2.054889 1_555
Mg5 O29 2.123656 1_555
Mg5 O101 2.161873 1_555
Mg6 O106 1.979793 1_555
Mg6 O34 2.030141 1_555
Mg6 O102 2.030989 1_555
Mg6 O30 2.056465 1_555
Mg6 O32 2.117518 1_555
Mg6 O104 2.205380 1_555
Mg7 O33 1.892487 1_555
Mg7 O35 2.065085 1_555
Mg7 O31 2.077929 1_555
Mg7 O107 2.119190 1_555
Mg7 O105 2.147656 1_555
Mg7 O103 2.172261 1_555
Mg8 O110 2.037597 1_555
Mg8 O36 2.058034 1_556
Mg8 O108 2.109248 1_555
Mg8 O112 2.111547 1_555
Mg8 O40 2.162343 1_556
Mg8 O38 2.172956 1_556
Mg9 O41 1.929294 1_556
Mg9 O39 2.049479 1_556
Mg9 O111 2.130470 1_555
Mg9 O37 2.221136 1_556
Mg9 O113 2.265814 1_555
Mg9 O109 2.361691 1_555
Mg10 O44 1.949036 1_555
Mg10 O46 2.015583 1_555
Mg10 O118 2.147628 1_555
Mg10 O42 2.175918 1_555
Mg10 O116 2.294332 1_555
Mg10 O114 2.314588 1_555
Mg11 O119 2.044540 1_555
Mg11 O43 2.057422 1_555
Mg11 O117 2.098601 1_555
Mg11 O115 2.107121 1_555
Mg11 O47 2.118507 1_555
Mg11 O45 2.153767 1_555
Mg12 O50 1.998879 1_554
Mg12 O52 2.024284 1_554
Mg12 O48 2.046983 1_554
Mg12 O122 2.088425 1_555
Mg12 O120 2.109117 1_555
Mg12 O124 2.185111 1_555
Mg13 O51 1.929981 1_554
Mg13 O125 1.975400 1_555
Mg13 O53 2.067633 1_554
Mg13 O49 2.118800 1_554
Mg13 O123 2.160455 1_555
Mg13 O121 2.201000 1_555
Mg14 O58 1.923095 1_555
Mg14 O128 1.979945 1_555
Mg14 O54 2.052467 1_555
Mg14 O126 2.095766 1_555
Mg14 O56 2.140109 1_555
Mg14 O130 2.238893 1_555
Mg15 O59 2.013350 1_555
Mg15 O57 2.041965 1_555
Mg15 O55 2.048035 1_555
Mg15 O131 2.101635 1_555
Mg15 O127 2.110997 1_555
Mg15 O129 2.186233 1_555
Mg16 O63 2.010373 1_555
Mg16 O65 2.024680 1_555
Mg16 O61 2.078250 1_555
Mg16 O135 2.085696 1_555
Mg16 O137 2.167413 1_555
Mg16 O133 2.243848 1_555
Mg17 O66 2.022688 1_555
Mg17 O138 2.023906 1_555
Mg17 O70 2.042330 1_555
Mg17 O68 2.113585 1_555
Mg17 O140 2.191187 1_555
Mg17 O142 2.191676 1_555
Ge0 O13 1.800231 1_545
Ge0 O14 1.804940 1_655
Ge0 O16 2.032838 1_645
Ge0 O85 2.047016 1_555
Ge0 O89 2.049455 1_545
Ge0 O86 2.261859 1_655
Ge1 O15 1.768941 1_555
Ge1 O88 1.769462 1_545
Ge1 O84 1.950548 1_555
Ge1 O12 2.031636 1_545
Ge1 O87 2.044467 1_555
Ge1 O17 2.196324 1_545
Ge2 O22 1.772874 1_555
Ge2 O93 1.778296 1_465
Ge2 O19 2.023514 1_455
Ge2 O91 2.057975 1_455
Ge2 O20 2.061239 1_565
Ge2 O94 2.076235 1_565
Ge3 O18 1.814920 1_555
Ge3 O23 1.961787 1_555
Ge3 O90 1.975364 1_555
Ge3 O21 1.982608 1_565
Ge3 O92 2.003824 1_565
Ge3 O95 2.048969 1_565
Ge4 O60 1.772035 1_555
Ge4 O132 1.816014 1_555
Ge4 O134 1.892954 1_555
Ge4 O136 2.034393 1_555
Ge4 O62 2.123982 1_555
Ge4 O64 2.286891 1_555
Ge5 O67 1.772131 1_555
Ge5 O139 1.820806 1_555
Ge5 O143 1.875931 1_555
Ge5 O141 2.033549 1_555
Ge5 O71 2.112380 1_555
Ge5 O69 2.253716 1_555
O0 Si0 1.596666 1_545
O1 S0 1.455630 1_555
O2 Si1 1.587772 1_555
O3 S1 1.473771 1_555
O4 S3 1.458038 1_555
O5 S2 1.469473 1_655
O6 Si2 1.586390 1_555
O7 Si3 1.597532 1_555
O8 S5 1.479913 1_555
O9 S4 1.457269 1_655
O10 S6 1.471361 1_555
O11 Si4 1.585518 1_545
O12 S6 1.506087 1_565
O13 Si4 1.705573 1_555
O14 Si2 1.759808 1_555
O15 Si3 1.677100 1_555
O16 S4 1.520743 1_555
O17 S5 1.484772 1_555
O18 Si1 1.709098 1_555
O19 S1 1.523991 1_555
O20 S2 1.499308 1_555
O21 S3 1.524195 1_555
O22 Si0 1.675971 1_555
O23 S0 1.559693 1_565
O24 S7 1.460771 1_555
O25 S8 1.466323 1_555
O26 S9 1.475712 1_555
O27 S10 1.475710 1_555
O28 Si5 1.617811 1_555
O29 S11 1.469221 1_555
O30 S12 1.473216 1_555
O31 S13 1.463935 1_555
O32 S14 1.469974 1_555
O33 Si6 1.584693 1_555
O34 S15 1.477315 1_555
O35 S16 1.467472 1_555
O36 S15 1.469091 1_555
O37 S16 1.488758 1_555
O38 S12 1.475831 1_555
O39 S13 1.481668 1_555
O40 S14 1.476305 1_555
O41 Si6 1.628616 1_555
O42 S9 1.497095 1_555
O43 S10 1.471063 1_555
O44 Si5 1.631596 1_555
O45 S11 1.482053 1_555
O46 S7 1.470839 1_555
O47 S8 1.474180 1_555
O48 S17 1.471108 1_555
O49 S18 1.471155 1_555
O50 S19 1.464140 1_555
O51 Si7 1.589427 1_555
O52 S20 1.470614 1_555
O53 S21 1.458310 1_555
O54 S22 1.459428 1_555
O55 S23 1.473039 1_555
O56 S24 1.466686 1_555
O57 S25 1.468974 1_555
O58 Si8 1.589115 1_555
O59 S26 1.459359 1_555
O60 Si8 1.744188 1_555
O61 S26 1.492836 1_555
O62 S22 1.538762 1_555
O63 S23 1.473926 1_555
O64 S24 1.502727 1_555
O65 S25 1.489569 1_555
O66 S19 1.487621 1_555
O67 Si7 1.741047 1_555
O68 S20 1.504471 1_555
O69 S21 1.505316 1_555
O70 S17 1.480022 1_555
O71 S18 1.536868 1_555
O72 Si8 1.637502 1_555
O73 S26 1.496543 1_555
O74 S22 1.477413 1_555
O75 S23 1.509330 1_555
O76 S24 1.491651 1_555
O77 S25 1.477624 1_555
O78 S19 1.492145 1_555
O79 Si7 1.637359 1_555
O80 S20 1.471715 1_555
O81 S21 1.493443 1_555
O82 S17 1.506160 1_555
O83 S18 1.472820 1_555
O84 S7 1.532984 1_555
O85 S8 1.549377 1_555
O86 S9 1.528842 1_555
O87 S10 1.518987 1_555
O88 Si5 1.708157 1_555
O89 S11 1.548611 1_555
O90 S12 1.555845 1_555
O91 S13 1.530452 1_555
O92 S14 1.549324 1_555
O93 Si6 1.775072 1_555
O94 S15 1.517050 1_555
O95 S16 1.542966 1_555
O96 S6 1.468435 1_555
O97 Si4 1.615120 1_545
O98 Si2 1.631208 1_555
O99 Si3 1.621287 1_555
O100 S5 1.465108 1_555
O101 S4 1.483232 1_655
O102 Si1 1.616033 1_555
O103 S1 1.475100 1_555
O104 S3 1.493862 1_555
O105 S2 1.460352 1_655
O106 Si0 1.621795 1_545
O107 S0 1.462337 1_555
O108 S17 1.479815 1_555
O109 S18 1.485084 1_555
O110 Si7 1.643180 1_555
O111 S19 1.500112 1_655
O112 S20 1.500934 1_545
O113 S21 1.494959 1_545
O114 S22 1.484886 1_545
O115 S23 1.482550 1_545
O116 S24 1.498732 1_555
O117 S25 1.501512 1_555
O118 S26 1.504927 1_555
O119 Si8 1.640726 1_655
O120 S15 1.481914 1_555
O121 S16 1.474281 1_555
O122 S13 1.474133 1_455
O123 S12 1.463954 1_555
O124 S14 1.475532 1_565
O125 Si6 1.638401 1_565
O126 S9 1.463460 1_565
O127 S10 1.479050 1_565
O128 Si5 1.633746 1_555
O129 S11 1.476209 1_555
O130 S8 1.475722 1_455
O131 S7 1.480269 1_555
O132 Si0 1.683321 1_555
O133 S0 1.492317 1_565
O134 Si1 1.705814 1_555
O135 S1 1.482405 1_555
O136 S2 1.535279 1_555
O137 S3 1.479977 1_555
O138 Si2 1.642464 1_555
O139 Si3 1.679486 1_555
O140 S4 1.489114 1_555
O141 S5 1.517082 1_555
O142 S6 1.500051 1_565
O143 Si4 1.698306 1_555
