# generated using pymatgen
data_Na5Hf3ZnSiP5O24
_symmetry_space_group_name_H-M   'P 1'
_cell_length_a   9.04732213
_cell_length_b   9.02104390
_cell_length_c   22.64115644
_cell_angle_alpha   89.99267616
_cell_angle_beta   90.22106883
_cell_angle_gamma   119.91919170
_symmetry_Int_Tables_number   1
_chemical_formula_structural   Na5Hf3ZnSiP5O24
_chemical_formula_sum   'Na15 Hf9 Zn3 Si3 P15 O72'
_cell_volume   1601.60340020
_cell_formula_units_Z   3
loop_
 _symmetry_equiv_pos_site_id
 _symmetry_equiv_pos_as_xyz
  1  'x, y, z'
loop_
 _atom_site_type_symbol
 _atom_site_label
 _atom_site_symmetry_multiplicity
 _atom_site_fract_x
 _atom_site_fract_y
 _atom_site_fract_z
 _atom_site_occupancy
  Na  Na0  1  0.64276053  0.01657025  0.24217999  1
  Na  Na1  1  0.37480915  0.35814984  0.24197468  1
  Na  Na2  1  0.98491669  0.62816334  0.24272048  1
  Na  Na3  1  0.63515266  0.62211504  0.74572478  1
  Na  Na4  1  0.98673908  0.36455999  0.74605335  1
  Na  Na5  1  0.38277848  0.01663715  0.74179881  1
  Na  Na6  1  0.66163587  0.97586178  0.58463646  1
  Na  Na7  1  0.33116842  0.30633313  0.92332120  1
  Na  Na8  1  0.32427416  0.03226440  0.41211282  1
  Na  Na9  1  0.00004577  0.00044934  0.49041568  1
  Na  Na10  1  0.98135626  0.98802241  0.00236750  1
  Na  Na11  1  0.68034325  0.33771154  0.83648763  1
  Na  Na12  1  0.67985366  0.34532974  0.32854650  1
  Na  Na13  1  0.33324887  0.66793682  0.15937552  1
  Na  Na14  1  0.32134106  0.66121277  0.66115672  1
  Hf  Hf0  1  0.99266283  0.99380976  0.85711496  1
  Hf  Hf1  1  0.00871882  0.00114453  0.64307549  1
  Hf  Hf2  1  0.99987799  0.00094997  0.14589305  1
  Hf  Hf3  1  0.67548728  0.33632406  0.98275864  1
  Hf  Hf4  1  0.66728248  0.33766309  0.48137483  1
  Hf  Hf5  1  0.33497627  0.66505470  0.01965295  1
  Hf  Hf6  1  0.32893985  0.66205809  0.51858554  1
  Hf  Hf7  1  0.33317833  0.66416621  0.31530691  1
  Hf  Hf8  1  0.33184393  0.66536523  0.81719400  1
  Zn  Zn0  1  0.99135497  0.99862900  0.35099631  1
  Zn  Zn1  1  0.66449762  0.33204266  0.67497955  1
  Zn  Zn2  1  0.66974797  0.33571508  0.17484924  1
  Si  Si0  1  0.37425593  0.03948746  0.58425462  1
  Si  Si1  1  0.62670085  0.66465660  0.91729302  1
  Si  Si2  1  0.03690014  0.37425581  0.91574360  1
  P  P0  1  0.29230094  0.00089860  0.25364285  1
  P  P1  1  0.71040756  0.70882082  0.25190950  1
  P  P2  1  0.99890062  0.29063867  0.25206437  1
  P  P3  1  0.29135291  0.29291448  0.75122329  1
  P  P4  1  0.00132581  0.70837127  0.74944011  1
  P  P5  1  0.70760052  -0.00047283  0.74883590  1
  P  P6  1  0.96025226  0.33686136  0.58643950  1
  P  P7  1  0.66523210  0.62590786  0.58627944  1
  P  P8  1  0.96340197  0.62870689  0.08669902  1
  P  P9  1  0.66470195  0.03807888  0.08715270  1
  P  P10  1  0.37218790  0.33273214  0.08528193  1
  P  P11  1  0.33555082  0.95947753  0.91689598  1
  P  P12  1  0.63103143  0.96113131  0.41788550  1
  P  P13  1  0.33271907  0.36952248  0.41603137  1
  P  P14  1  0.03759073  0.66625523  0.41548580  1
  O  O0  1  0.21698037  0.02685725  0.31046473  1
  O  O1  1  0.82032963  0.78608985  0.30658928  1
  O  O2  1  0.96980589  0.18179011  0.30659193  1
  O  O3  1  0.20429561  0.18629353  0.80685277  1
  O  O4  1  0.98359011  0.80002935  0.80406626  1
  O  O5  1  0.82170371  0.01365463  0.80225607  1
  O  O6  1  0.78853378  0.97318006  0.69221544  1
  O  O7  1  0.17437001  0.20068428  0.69702369  1
  O  O8  1  0.02501318  0.82250711  0.69476310  1
  O  O9  1  0.79416114  0.82652945  0.19707880  1
  O  O10  1  0.03061630  0.20603387  0.19690676  1
  O  O11  1  0.17112251  0.97085331  0.19998833  1
  O  O12  1  0.89431535  0.36803246  0.64455506  1
  O  O13  1  0.48750773  0.11138737  0.64416559  1
  O  O14  1  0.64095123  0.53105261  0.64448403  1
  O  O15  1  0.89148968  0.53161184  0.14451077  1
  O  O16  1  0.64385981  0.11279447  0.14517240  1
  O  O17  1  0.47226092  0.35528853  0.14242019  1
  O  O18  1  0.46018047  0.31148840  0.02966107  1
  O  O19  1  0.84574905  0.53321172  0.03318855  1
  O  O20  1  0.68498835  0.15376854  0.03367010  1
  O  O21  1  0.47124931  0.15814002  0.52640643  1
  O  O22  1  0.69093614  0.53478777  0.53289303  1
  O  O23  1  0.83940649  0.31005423  0.53372224  1
  O  O24  1  0.53049685  0.69294614  0.97223960  1
  O  O25  1  0.16641028  0.47112417  0.97006068  1
  O  O26  1  0.30809190  0.84470834  0.96973521  1
  O  O27  1  0.53412899  0.85247712  0.47301724  1
  O  O28  1  0.32090391  0.46895935  0.46952312  1
  O  O29  1  0.15530623  0.68283522  0.46856693  1
  O  O30  1  0.12484922  0.64345687  0.35894604  1
  O  O31  1  0.51194355  0.87066490  0.36277105  1
  O  O32  1  0.35310072  0.47731744  0.35926923  1
  O  O33  1  0.12234819  0.48572472  0.85457096  1
  O  O34  1  0.35929367  0.87832839  0.85906842  1
  O  O35  1  0.51124890  0.63726582  0.85651729  1
  O  O36  1  0.03009410  0.83075173  0.41339250  1
  O  O37  1  0.80519833  0.97889469  0.41436941  1
  O  O38  1  0.17907142  0.19019959  0.41408766  1
  O  O39  1  0.03101197  0.18954852  0.90984720  1
  O  O40  1  0.17807330  0.98384820  0.90978129  1
  O  O41  1  0.81742486  0.82912484  0.91137794  1
  O  O42  1  0.96642693  0.16640413  0.58950941  1
  O  O43  1  0.18461161  0.02084877  0.58791348  1
  O  O44  1  0.82246272  0.81181504  0.58878105  1
  O  O45  1  0.97826094  0.80891454  0.08963819  1
  O  O46  1  0.82848384  0.02041452  0.08964446  1
  O  O47  1  0.19088438  0.16930102  0.08936073  1
  O  O48  1  0.69135064  0.16067863  0.74827740  1
  O  O49  1  0.47038042  0.31558303  0.74678061  1
  O  O50  1  0.84379003  0.52961182  0.74575105  1
  O  O51  1  0.67912830  0.52563991  0.24373207  1
  O  O52  1  0.84719176  0.32191145  0.24462146  1
  O  O53  1  0.47338538  0.15398836  0.24556423  1
  O  O54  1  0.63157430  0.48671818  0.92377924  1
  O  O55  1  0.84756718  0.34799843  0.92328603  1
  O  O56  1  0.49186365  0.14007771  0.92358810  1
  O  O57  1  0.63595167  0.13737324  0.42218242  1
  O  O58  1  0.49949247  0.35737242  0.42086268  1
  O  O59  1  0.86123648  0.50360166  0.42199387  1
  O  O60  1  0.34846910  0.49152989  0.07837141  1
  O  O61  1  0.14348466  0.65317787  0.07730943  1
  O  O62  1  0.50656569  0.85819557  0.07868389  1
  O  O63  1  0.35465475  0.84826402  0.57557804  1
  O  O64  1  0.50828512  0.65109624  0.57668219  1
  O  O65  1  0.14248369  0.48670307  0.57560209  1
  O  O66  1  0.30587358  0.83146929  0.25620639  1
  O  O67  1  0.52849606  0.69634625  0.25689650  1
  O  O68  1  0.16836200  0.47275567  0.25617597  1
  O  O69  1  0.30302777  0.47300454  0.75317210  1
  O  O70  1  0.16918950  0.69806794  0.75267688  1
  O  O71  1  0.52657945  0.83572249  0.75404516  1
loop_
_geom_bond_atom_site_label_1
_geom_bond_atom_site_label_2
_geom_bond_distance
_geom_bond_site_symmetry_2
Na0 O16 2.359805 1_555
Na0 O53 2.405569 1_555
Na0 O52 2.434803 1_555
Na0 O67 2.558905 1_545
Na0 O66 2.666323 1_545
Na0 O9 2.865632 1_545
Na0 O2 2.944694 1_555
Na0 O31 3.009632 1_545
Na1 O51 2.390469 1_555
Na1 O53 2.414953 1_555
Na1 O17 2.428316 1_555
Na1 O68 2.567481 1_555
Na1 O67 2.668387 1_555
Na1 O10 2.886949 1_555
Na1 O32 2.908998 1_555
Na2 O15 2.380964 1_555
Na2 O52 2.398623 1_555
Na2 O51 2.440865 1_555
Na2 O66 2.563126 1_655
Na2 O68 2.670187 1_655
Na2 O11 2.854396 1_655
Na2 O30 2.889060 1_655
Na2 O1 2.910581 1_555
Na3 O49 2.399480 1_555
Na3 O50 2.414689 1_555
Na3 O14 2.444626 1_555
Na3 O71 2.569693 1_555
Na3 O69 2.615091 1_555
Na3 O35 2.782511 1_555
Na4 O48 2.371739 1_555
Na4 O50 2.410499 1_555
Na4 O12 2.447949 1_555
Na4 O69 2.524970 1_655
Na4 O70 2.615907 1_655
Na4 O33 2.715941 1_655
Na5 O13 2.392194 1_555
Na5 O49 2.404341 1_555
Na5 O48 2.425280 1_555
Na5 O70 2.552920 1_545
Na5 O71 2.558962 1_545
Na5 O34 2.896651 1_545
Na6 O42 2.416644 1_565
Na6 O63 2.426373 1_555
Na6 O44 2.542233 1_555
Na6 O64 2.546377 1_555
Na6 O6 2.693974 1_555
Na6 O27 2.766533 1_555
Na6 O13 2.780523 1_565
Na6 O23 2.860230 1_565
Na7 O54 2.371247 1_555
Na7 O39 2.391077 1_555
Na7 O40 2.540270 1_545
Na7 O56 2.556998 1_555
Na7 O18 2.661871 1_556
Na7 O25 2.788342 1_555
Na7 O3 2.860296 1_555
Na8 O36 2.358675 1_545
Na8 O38 2.371761 1_555
Na8 O0 2.485320 1_555
Na8 O57 2.496088 1_555
Na8 O58 2.552157 1_555
Na8 O21 2.867394 1_555
Na8 O31 2.956398 1_545
Na8 O29 3.018970 1_545
Na9 O37 2.396805 1_445
Na9 O38 2.407307 1_555
Na9 O36 2.424473 1_545
Na9 O43 2.712969 1_555
Na9 O44 2.781431 1_445
Na9 O42 2.797833 1_455
Na10 O46 2.515451 1_565
Na10 O41 2.520884 1_554
Na10 O45 2.543637 1_555
Na10 O47 2.650816 1_665
Na10 O39 2.662042 1_664
Na10 O40 2.767479 1_654
Na11 O55 2.448814 1_555
Na11 O54 2.550821 1_555
Na11 O48 2.590393 1_555
Na11 O50 2.621622 1_555
Na11 O56 2.639642 1_555
Na11 O49 2.713971 1_555
Na12 O52 2.507723 1_555
Na12 O51 2.518555 1_555
Na12 O53 2.599236 1_555
Na12 O59 2.616225 1_555
Na12 O58 2.691923 1_555
Na12 O57 2.726492 1_555
Na13 O62 2.465547 1_555
Na13 O60 2.477173 1_555
Na13 O61 2.482977 1_555
Na13 O66 2.722795 1_555
Na13 O68 2.744645 1_555
Na13 O67 2.753130 1_555
Na14 O63 2.487726 1_555
Na14 O65 2.506864 1_555
Na14 O64 2.589594 1_555
Na14 O70 2.603439 1_555
Na14 O69 2.640363 1_555
Na14 O71 2.721016 1_555
Hf0 O41 1.973588 1_555
Hf0 O39 2.012449 1_665
Hf0 O5 2.056325 1_565
Hf0 O4 2.088501 1_555
Hf0 O40 2.092551 1_655
Hf0 O3 2.162399 1_665
Hf1 O43 1.963912 1_555
Hf1 O8 2.055079 1_545
Hf1 O7 2.067251 1_555
Hf1 O44 2.093169 1_445
Hf1 O42 2.098762 1_455
Hf1 O6 2.187603 1_445
Hf2 O46 2.076916 1_555
Hf2 O10 2.078213 1_655
Hf2 O45 2.078998 1_545
Hf2 O47 2.080766 1_655
Hf2 O9 2.092290 1_545
Hf2 O11 2.092613 1_645
Hf3 O19 2.022093 1_556
Hf3 O55 2.025002 1_555
Hf3 O20 2.046496 1_556
Hf3 O54 2.077220 1_555
Hf3 O18 2.133760 1_556
Hf3 O56 2.176777 1_555
Hf4 O21 1.988993 1_555
Hf4 O22 2.046359 1_555
Hf4 O23 2.065041 1_555
Hf4 O58 2.113363 1_555
Hf4 O59 2.127185 1_555
Hf4 O57 2.151240 1_555
Hf5 O24 1.978743 1_554
Hf5 O25 1.993224 1_554
Hf5 O26 2.086551 1_554
Hf5 O60 2.102757 1_555
Hf5 O62 2.125655 1_555
Hf5 O61 2.132916 1_555
Hf6 O29 2.016275 1_555
Hf6 O28 2.036458 1_555
Hf6 O63 2.036964 1_555
Hf6 O27 2.072363 1_555
Hf6 O65 2.090178 1_555
Hf6 O64 2.125173 1_555
Hf7 O32 2.040988 1_555
Hf7 O31 2.054856 1_555
Hf7 O30 2.055903 1_555
Hf7 O68 2.100985 1_555
Hf7 O67 2.112363 1_555
Hf7 O66 2.120905 1_555
Hf8 O33 1.970472 1_555
Hf8 O35 1.972492 1_555
Hf8 O34 2.043052 1_555
Hf8 O69 2.174115 1_555
Hf8 O70 2.191517 1_555
Hf8 O71 2.197258 1_555
O0 P0 1.529822 1_555
O0 Zn0 2.137701 1_445
O1 P1 1.518810 1_555
O1 Zn0 2.027373 1_555
O2 P2 1.517229 1_555
O2 Zn0 2.024424 1_545
O3 P3 1.543857 1_555
O4 P4 1.540535 1_655
O5 P5 1.550478 1_555
O6 P5 1.554665 1_565
O7 P3 1.558877 1_555
O8 P4 1.555693 1_555
O9 P1 1.564332 1_555
O10 P2 1.563938 1_455
O11 P0 1.563504 1_565
O12 P6 1.529632 1_555
O12 Zn1 2.059302 1_555
O13 Si0 1.623903 1_555
O13 Zn1 1.955812 1_555
O14 P7 1.526940 1_555
O14 Zn1 2.031058 1_555
O15 P8 1.530222 1_555
O15 Zn2 2.023169 1_555
O16 P9 1.531145 1_555
O16 Zn2 2.019810 1_555
O17 P10 1.530355 1_555
O17 Zn2 2.016739 1_555
O18 P10 1.554469 1_555
O19 P8 1.555174 1_555
O20 P9 1.549027 1_555
O21 Si0 1.643995 1_555
O22 P7 1.543990 1_555
O23 P6 1.550721 1_555
O24 Si1 1.612573 1_555
O25 Si2 1.617623 1_555
O26 P11 1.519958 1_555
O27 P12 1.561532 1_555
O28 P13 1.542663 1_555
O29 P14 1.559567 1_555
O30 P14 1.572925 1_555
O31 P12 1.580113 1_555
O32 P13 1.566487 1_555
O33 Si2 1.661179 1_555
O34 P11 1.567017 1_555
O35 Si1 1.666462 1_555
O36 P14 1.519623 1_555
O36 Zn0 2.221989 1_455
O37 P12 1.504680 1_555
O37 Zn0 2.155583 1_555
O38 P13 1.519048 1_555
O38 Zn0 2.228334 1_445
O39 Si2 1.645756 1_555
O40 P11 1.553988 1_555
O41 Si1 1.626213 1_555
O42 P6 1.567838 1_555
O43 Si0 1.640829 1_555
O44 P7 1.568091 1_555
O45 P8 1.564360 1_555
O46 P9 1.568174 1_555
O47 P10 1.568907 1_555
O48 P5 1.532437 1_555
O48 Zn1 2.360881 1_555
O49 P3 1.531752 1_555
O49 Zn1 2.347559 1_555
O50 P4 1.531403 1_655
O50 Zn1 2.339226 1_555
O51 P1 1.542154 1_555
O51 Zn2 2.286830 1_555
O52 P2 1.541550 1_555
O52 Zn2 2.295237 1_555
O53 P0 1.539486 1_555
O53 Zn2 2.350120 1_555
O54 Si1 1.634209 1_555
O55 Si2 1.617708 1_655
O56 P11 1.541835 1_545
O57 P12 1.571175 1_545
O58 P13 1.569813 1_555
O59 P14 1.544917 1_655
O60 P10 1.558521 1_555
O61 P8 1.546709 1_455
O62 P9 1.548851 1_565
O63 Si0 1.655427 1_565
O64 P7 1.560312 1_555
O65 P6 1.544503 1_455
O66 P0 1.594269 1_565
O67 P1 1.597117 1_555
O68 P2 1.595187 1_455
O69 P3 1.575192 1_555
O70 P4 1.568587 1_555
O71 P5 1.570664 1_565
