# generated using pymatgen
data_BaH4O3
_symmetry_space_group_name_H-M   'P 1'
_cell_length_a   3.93115047
_cell_length_b   6.28136558
_cell_length_c   6.89446156
_cell_angle_alpha   90.00000000
_cell_angle_beta   90.00000000
_cell_angle_gamma   90.00000000
_symmetry_Int_Tables_number   1
_chemical_formula_structural   BaH4O3
_chemical_formula_sum   'Ba2 H8 O6'
_cell_volume   170.24489278
_cell_formula_units_Z   2
loop_
 _symmetry_equiv_pos_site_id
 _symmetry_equiv_pos_as_xyz
  1  'x, y, z'
loop_
 _atom_site_type_symbol
 _atom_site_label
 _atom_site_symmetry_multiplicity
 _atom_site_fract_x
 _atom_site_fract_y
 _atom_site_fract_z
 _atom_site_occupancy
  Ba  Ba0  1  0.00000000  0.64752330  0.75300731  1
  Ba  Ba1  1  0.00000000  0.35247670  0.25300731  1
  H  H0  1  0.50000000  0.30260736  0.61050569  1
  H  H1  1  0.50000000  0.69739264  0.11050569  1
  H  H2  1  0.50000000  0.98570169  0.58370578  1
  H  H3  1  0.50000000  0.01429831  0.08370578  1
  H  H4  1  0.20064278  0.12486100  0.80989220  1
  H  H5  1  0.79935722  0.87513900  0.30989220  1
  H  H6  1  0.20064278  0.87513900  0.30989220  1
  H  H7  1  0.79935722  0.12486100  0.80989220  1
  O  O0  1  0.00000000  0.20393826  0.86466344  1
  O  O1  1  0.50000000  0.56590467  0.03659349  1
  O  O2  1  0.50000000  0.97244221  0.72364188  1
  O  O3  1  0.50000000  0.02755779  0.22364188  1
  O  O4  1  0.00000000  0.79606174  0.36466344  1
  O  O5  1  0.50000000  0.43409533  0.53659349  1
loop_
_geom_bond_atom_site_label_1
_geom_bond_atom_site_label_2
_geom_bond_distance
_geom_bond_site_symmetry_2
Ba0 O5 2.808377 1_555
Ba0 O5 2.808377 1_455
Ba0 O1 2.819402 1_456
Ba0 O1 2.819402 1_556
Ba0 O4 2.835335 1_555
Ba0 O2 2.840755 1_455
Ba0 O2 2.840755 1_555
Ba0 O0 2.890706 1_555
Ba1 O1 2.808377 1_555
Ba1 O1 2.808377 1_455
Ba1 O5 2.819402 1_455
Ba1 O5 2.819402 1_555
Ba1 O0 2.835335 1_554
Ba1 O3 2.840755 1_555
Ba1 O3 2.840755 1_455
Ba1 O4 2.890706 1_555
H0 O5 0.970478 1_555
H1 O1 0.970478 1_555
H2 O2 0.968372 1_555
H3 O3 0.968372 1_555
H4 O0 1.005712 1_555
H4 O2 1.629454 1_545
H5 O4 1.005712 1_655
H5 O3 1.629454 1_565
H6 O4 1.005712 1_555
H6 O3 1.629454 1_565
H7 O0 1.005712 1_655
H7 O2 1.629454 1_545
