# generated using pymatgen
data_Mg(NiS2)2
_symmetry_space_group_name_H-M   'P 1'
_cell_length_a   3.80403178
_cell_length_b   11.03743100
_cell_length_c   3.80565900
_cell_angle_alpha   90.00000000
_cell_angle_beta   120.01415994
_cell_angle_gamma   90.00000000
_symmetry_Int_Tables_number   1
_chemical_formula_structural   Mg(NiS2)2
_chemical_formula_sum   'Mg1 Ni2 S4'
_cell_volume   138.36003288
_cell_formula_units_Z   1
loop_
 _symmetry_equiv_pos_site_id
 _symmetry_equiv_pos_as_xyz
  1  'x, y, z'
loop_
 _atom_site_type_symbol
 _atom_site_label
 _atom_site_symmetry_multiplicity
 _atom_site_fract_x
 _atom_site_fract_y
 _atom_site_fract_z
 _atom_site_occupancy
  Mg  Mg0  1  0.99983100  0.25000000  0.99991500  1
  Ni  Ni0  1  0.66666300  0.25000000  0.33333100  1
  Ni  Ni1  1  0.33444200  0.75000000  0.66722100  1
  S  S0  1  0.33346000  0.11782700  0.66673000  1
  S  S1  1  0.33346000  0.38217300  0.66673000  1
  S  S2  1  0.66607200  0.65700700  0.33303600  1
  S  S3  1  0.66607200  0.84299300  0.33303600  1
loop_
_geom_bond_atom_site_label_1
_geom_bond_atom_site_label_2
_geom_bond_distance
_geom_bond_site_symmetry_2
Mg0 Ni0 2.196490 1_656
Mg0 Ni0 2.196613 1_555
Mg0 Ni0 2.196613 1_556
Mg0 S1 2.635554 1_555
Mg0 S0 2.635554 1_555
Mg0 S1 2.637552 1_655
Mg0 S0 2.637552 1_655
Mg0 S1 2.637555 1_656
Mg0 S0 2.637555 1_656
Ni0 S0 2.636723 1_655
Ni0 S1 2.636723 1_655
Ni0 S1 2.636968 1_554
Ni0 S0 2.636968 1_554
Ni0 S1 2.636971 1_555
Ni0 S0 2.636971 1_555
Ni1 S3 2.422296 1_556
Ni1 S2 2.422296 1_556
Ni1 S2 2.422297 1_555
Ni1 S3 2.422297 1_555
Ni1 S3 2.429064 1_455
Ni1 S2 2.429064 1_455
S2 S3 2.052808 1_555
