# generated using pymatgen
data_Pd(PbBr3)2
_symmetry_space_group_name_H-M   'P 1'
_cell_length_a   6.76236975
_cell_length_b   8.32838003
_cell_length_c   9.67573046
_cell_angle_alpha   89.45503328
_cell_angle_beta   90.00000000
_cell_angle_gamma   90.00000000
_symmetry_Int_Tables_number   1
_chemical_formula_structural   Pd(PbBr3)2
_chemical_formula_sum   'Pd2 Pb4 Br12'
_cell_volume   544.90847674
_cell_formula_units_Z   2
loop_
 _symmetry_equiv_pos_site_id
 _symmetry_equiv_pos_as_xyz
  1  'x, y, z'
loop_
 _atom_site_type_symbol
 _atom_site_label
 _atom_site_symmetry_multiplicity
 _atom_site_fract_x
 _atom_site_fract_y
 _atom_site_fract_z
 _atom_site_occupancy
  Pd  Pd0  1  0.50000000  0.50000000  0.00000000  1
  Pd  Pd1  1  -0.00000000  -0.00000000  0.00000000  1
  Pb  Pb0  1  0.95518071  0.37889987  0.28087032  1
  Pb  Pb1  1  0.45518071  0.12110013  0.71912968  1
  Pb  Pb2  1  0.04481929  0.62110013  0.71912968  1
  Pb  Pb3  1  0.54481929  0.87889987  0.28087032  1
  Br  Br0  1  0.65555202  0.16862849  0.44443606  1
  Br  Br1  1  0.15555202  0.33137151  0.55556394  1
  Br  Br2  1  0.34444798  0.83137151  0.55556394  1
  Br  Br3  1  0.84444798  0.66862849  0.44443606  1
  Br  Br4  1  0.69888167  0.15031929  0.06012052  1
  Br  Br5  1  0.19888167  0.34968071  0.93987948  1
  Br  Br6  1  0.38003034  0.52539041  0.23927679  1
  Br  Br7  1  0.88003034  0.97460959  0.76072321  1
  Br  Br8  1  0.61996966  0.47460959  0.76072321  1
  Br  Br9  1  0.11996966  0.02539041  0.23927679  1
  Br  Br10  1  0.80111833  0.65031929  0.06012052  1
  Br  Br11  1  0.30111833  0.84968071  0.93987948  1
loop_
_geom_bond_atom_site_label_1
_geom_bond_atom_site_label_2
_geom_bond_distance
_geom_bond_site_symmetry_2
Br0 Pb3 2.993405 1_545
Br0 Pb1 3.006141 1_555
Br0 Pb0 3.102292 1_555
Br1 Pb2 2.993405 1_555
Br1 Pb0 3.006141 1_455
Br1 Pb1 3.102292 1_555
Br2 Pb1 2.993405 1_565
Br2 Pb3 3.006141 1_555
Br2 Pb2 3.102292 1_555
Br3 Pb0 2.993405 1_555
Br3 Pb2 3.006141 1_655
Br3 Pb3 3.102292 1_555
Br4 Pd1 2.462914 1_655
Br4 Pb3 3.265805 1_545
Br4 Pb0 3.356713 1_555
Br5 Pd0 2.462914 1_556
Br5 Pb2 3.265805 1_555
Br5 Pb1 3.356713 1_555
Br6 Pd0 2.464194 1_555
Br6 Pb0 3.145659 1_455
Br6 Pb3 3.177168 1_555
Br7 Pd1 2.464194 1_666
Br7 Pb1 3.145659 1_565
Br7 Pb2 3.177168 1_655
Br8 Pd0 2.464194 1_556
Br8 Pb2 3.145659 1_655
Br8 Pb1 3.177168 1_555
Br9 Pd1 2.464194 1_555
Br9 Pb3 3.145659 1_545
Br9 Pb0 3.177168 1_455
Br10 Pd0 2.462914 1_555
Br10 Pb0 3.265805 1_555
Br10 Pb3 3.356713 1_555
Br11 Pd1 2.462914 1_566
Br11 Pb1 3.265805 1_565
Br11 Pb2 3.356713 1_555
