# generated using pymatgen
data_Yb(FeSi)2
_symmetry_space_group_name_H-M   'P 1'
_cell_length_a   5.51461541
_cell_length_b   5.51461541
_cell_length_c   5.51461541
_cell_angle_alpha   137.70233818
_cell_angle_beta   137.70233818
_cell_angle_gamma   61.35918855
_symmetry_Int_Tables_number   1
_chemical_formula_structural   Yb(FeSi)2
_chemical_formula_sum   'Yb1 Fe2 Si2'
_cell_volume   75.09908286
_cell_formula_units_Z   1
loop_
 _symmetry_equiv_pos_site_id
 _symmetry_equiv_pos_as_xyz
  1  'x, y, z'
loop_
 _atom_site_type_symbol
 _atom_site_label
 _atom_site_symmetry_multiplicity
 _atom_site_fract_x
 _atom_site_fract_y
 _atom_site_fract_z
 _atom_site_occupancy
  Yb  Yb0  1  0.00000000  0.00000000  0.00000000  1
  Fe  Fe0  1  0.75000000  0.25000000  0.50000000  1
  Fe  Fe1  1  0.25000000  0.75000000  0.50000000  1
  Si  Si0  1  0.63661200  0.63661200  0.00000000  1
  Si  Si1  1  0.36338800  0.36338800  0.00000000  1
loop_
_geom_bond_atom_site_label_1
_geom_bond_atom_site_label_2
_geom_bond_distance
_geom_bond_site_symmetry_2
Fe0 Si0 2.261728 1_545
Fe0 Si0 2.261728 1_556
Fe0 Si1 2.261728 1_656
Fe0 Si1 2.261728 1_555
Fe0 Yb0 3.095490 1_656
Fe0 Yb0 3.095490 1_555
Fe0 Yb0 3.095490 1_666
Fe0 Yb0 3.095490 1_655
Fe1 Si1 2.261728 1_566
Fe1 Si0 2.261728 1_556
Fe1 Si1 2.261728 1_555
Fe1 Si0 2.261728 1_455
Fe1 Yb0 3.095490 1_565
Fe1 Yb0 3.095490 1_666
Fe1 Yb0 3.095490 1_555
Fe1 Yb0 3.095490 1_566
Si0 Si1 2.591670 1_555
Si0 Yb0 3.097810 1_554
Si0 Yb0 3.097810 1_666
Si0 Yb0 3.097810 1_655
Si0 Yb0 3.097810 1_565
Si1 Yb0 3.097810 1_554
Si1 Yb0 3.097810 1_666
Si1 Yb0 3.097810 1_655
Si1 Yb0 3.097810 1_565
