# generated using pymatgen
data_MgMn3CuO8
_symmetry_space_group_name_H-M   'P 1'
_cell_length_a   5.98271575
_cell_length_b   5.97792222
_cell_length_c   5.98507427
_cell_angle_alpha   59.17973712
_cell_angle_beta   59.14337656
_cell_angle_gamma   59.18287228
_symmetry_Int_Tables_number   1
_chemical_formula_structural   MgMn3CuO8
_chemical_formula_sum   'Mg1 Mn3 Cu1 O8'
_cell_volume   148.48981125
_cell_formula_units_Z   1
loop_
 _symmetry_equiv_pos_site_id
 _symmetry_equiv_pos_as_xyz
  1  'x, y, z'
loop_
 _atom_site_type_symbol
 _atom_site_label
 _atom_site_symmetry_multiplicity
 _atom_site_fract_x
 _atom_site_fract_y
 _atom_site_fract_z
 _atom_site_occupancy
  Mg  Mg0  1  0.00000000  0.00000000  0.00000000  1
  Mn  Mn0  1  0.50000000  0.50000000  0.00000000  1
  Mn  Mn1  1  0.50000000  0.00000000  0.50000000  1
  Mn  Mn2  1  0.00000000  0.50000000  0.50000000  1
  Cu  Cu0  1  0.50000000  0.50000000  0.50000000  1
  O  O0  1  0.26675700  0.26638700  0.26698800  1
  O  O1  1  0.71103200  0.24797600  0.24739000  1
  O  O2  1  0.24742600  0.71150100  0.24714700  1
  O  O3  1  0.24789100  0.24820200  0.71062000  1
  O  O4  1  0.75210900  0.75179800  0.28938000  1
  O  O5  1  0.75257400  0.28849900  0.75285300  1
  O  O6  1  0.28896800  0.75202400  0.75261000  1
  O  O7  1  0.73324300  0.73361300  0.73301200  1
loop_
_geom_bond_atom_site_label_1
_geom_bond_atom_site_label_2
_geom_bond_distance
_geom_bond_site_symmetry_2
Mg0 O2 2.090424 1_545
Mg0 O5 2.090424 1_454
Mg0 O1 2.091910 1_455
Mg0 O6 2.091910 1_544
Mg0 O3 2.094556 1_554
Mg0 O4 2.094556 1_445
Mn0 O5 1.932869 1_554
Mn0 O2 1.932869 1_555
Mn0 O6 1.933646 1_554
Mn0 O1 1.933646 1_555
Mn0 O7 1.968151 1_554
Mn0 O0 1.968151 1_555
Mn1 O4 1.933575 1_545
Mn1 O3 1.933575 1_555
Mn1 O6 1.933989 1_545
Mn1 O1 1.933989 1_555
Mn1 O7 1.967679 1_545
Mn1 O0 1.967679 1_555
Mn2 O5 1.933660 1_455
Mn2 O2 1.933660 1_555
Mn2 O4 1.934006 1_455
Mn2 O3 1.934006 1_555
Mn2 O7 1.967535 1_455
Mn2 O0 1.967535 1_555
Cu0 O3 2.135708 1_555
Cu0 O4 2.135708 1_555
Cu0 O1 2.139318 1_555
Cu0 O6 2.139318 1_555
Cu0 O2 2.144697 1_555
Cu0 O5 2.144697 1_555
