# generated using pymatgen
data_GaCo2Ni
_symmetry_space_group_name_H-M   'P 1'
_cell_length_a   3.51596300
_cell_length_b   3.51596300
_cell_length_c   3.74919500
_cell_angle_alpha   90.00000000
_cell_angle_beta   90.00000000
_cell_angle_gamma   90.00000000
_symmetry_Int_Tables_number   1
_chemical_formula_structural   GaCo2Ni
_chemical_formula_sum   'Ga1 Co2 Ni1'
_cell_volume   46.34753291
_cell_formula_units_Z   1
loop_
 _symmetry_equiv_pos_site_id
 _symmetry_equiv_pos_as_xyz
  1  'x, y, z'
loop_
 _atom_site_type_symbol
 _atom_site_label
 _atom_site_symmetry_multiplicity
 _atom_site_fract_x
 _atom_site_fract_y
 _atom_site_fract_z
 _atom_site_occupancy
  Ga  Ga0  1  0.00000000  0.00000000  0.00000000  1
  Co  Co0  1  0.00000000  0.50000000  0.50000000  1
  Co  Co1  1  0.50000000  0.00000000  0.50000000  1
  Ni  Ni0  1  0.50000000  0.50000000  0.00000000  1
loop_
_geom_bond_atom_site_label_1
_geom_bond_atom_site_label_2
_geom_bond_distance
_geom_bond_site_symmetry_2
Ga0 Ni0 2.486161 1_555
Ga0 Ni0 2.486161 1_455
Ga0 Ni0 2.486161 1_545
Ga0 Ni0 2.486161 1_445
Co0 Co1 2.486161 1_455
Co0 Co1 2.486161 1_555
Co0 Co1 2.486161 1_465
Co0 Co1 2.486161 1_565
Co0 Ni0 2.569945 1_456
Co0 Ga0 2.569945 1_566
Co0 Ga0 2.569945 1_555
Co0 Ni0 2.569945 1_556
Co0 Ni0 2.569945 1_455
Co0 Ni0 2.569945 1_555
Co0 Ga0 2.569945 1_556
Co0 Ga0 2.569945 1_565
Co1 Ni0 2.569945 1_556
Co1 Ni0 2.569945 1_555
Co1 Ni0 2.569945 1_546
Co1 Ga0 2.569945 1_556
Co1 Ni0 2.569945 1_545
Co1 Ga0 2.569945 1_655
Co1 Ga0 2.569945 1_656
Co1 Ga0 2.569945 1_555
