# generated using pymatgen
data_Na6CaSi4Sn3(SO12)2
_symmetry_space_group_name_H-M   'P 1'
_cell_length_a   9.16356760
_cell_length_b   9.16358700
_cell_length_c   22.87351401
_cell_angle_alpha   90.77149180
_cell_angle_beta   89.70877086
_cell_angle_gamma   120.12086993
_symmetry_Int_Tables_number   1
_chemical_formula_structural   Na6CaSi4Sn3(SO12)2
_chemical_formula_sum   'Na18 Ca3 Si12 Sn9 S6 O72'
_cell_volume   1661.20483228
_cell_formula_units_Z   3
loop_
 _symmetry_equiv_pos_site_id
 _symmetry_equiv_pos_as_xyz
  1  'x, y, z'
loop_
 _atom_site_type_symbol
 _atom_site_label
 _atom_site_symmetry_multiplicity
 _atom_site_fract_x
 _atom_site_fract_y
 _atom_site_fract_z
 _atom_site_occupancy
  Na  Na0  1  0.98932971  0.35025146  0.75614044  1
  Na  Na1  1  0.39376139  0.02017962  0.75184817  1
  Na  Na2  1  0.32192290  0.33733570  0.58567662  1
  Na  Na3  1  0.02793010  0.70296382  0.57500817  1
  Na  Na4  1  0.65383262  0.96292009  0.58869720  1
  Na  Na5  1  0.31553261  0.97527290  0.08285647  1
  Na  Na6  1  0.65812025  0.68075455  0.08513337  1
  Na  Na7  1  0.02346339  0.33883617  0.08295965  1
  Na  Na8  1  0.33152305  0.29472675  0.92273227  1
  Na  Na9  1  0.96727729  0.29161702  0.41345061  1
  Na  Na10  1  0.32231191  0.03275260  0.41586869  1
  Na  Na11  1  0.71150693  0.67977278  0.41628163  1
  Na  Na12  1  0.00044798  0.99417589  0.49190996  1
  Na  Na13  1  0.99948266  0.99793543  0.99963912  1
  Na  Na14  1  0.66308102  0.31797265  0.83465186  1
  Na  Na15  1  0.66663978  0.33351970  0.33031065  1
  Na  Na16  1  0.33327932  0.66775527  0.16329799  1
  Na  Na17  1  0.36775087  0.67403342  0.67014167  1
  Ca  Ca0  1  0.00173577  0.99894215  0.35259480  1
  Ca  Ca1  1  0.65240934  0.33128692  0.68607369  1
  Ca  Ca2  1  0.66337538  0.33082511  0.17992758  1
  Si  Si0  1  0.28999828  0.29650483  0.75246852  1
  Si  Si1  1  0.70671066  0.99135999  0.75251906  1
  Si  Si2  1  0.36492927  0.02971334  0.58384876  1
  Si  Si3  1  0.66651741  0.63501047  0.58206459  1
  Si  Si4  1  0.95907072  0.62471798  0.08284855  1
  Si  Si5  1  0.66320684  0.02894803  0.08355116  1
  Si  Si6  1  0.37321588  0.33975520  0.08049241  1
  Si  Si7  1  0.03540072  0.37783335  0.91535629  1
  Si  Si8  1  0.33276177  0.96238537  0.91533294  1
  Si  Si9  1  0.62425002  0.96613221  0.41823316  1
  Si  Si10  1  0.33733664  0.38198959  0.41807888  1
  Si  Si11  1  0.03744215  0.65566644  0.41938363  1
  Sn  Sn0  1  0.00526346  0.01308418  0.85563092  1
  Sn  Sn1  1  0.99607280  0.99805510  0.65094531  1
  Sn  Sn2  1  0.00338520  0.00147220  0.14641292  1
  Sn  Sn3  1  0.67202642  0.31808214  0.98439306  1
  Sn  Sn4  1  0.65445083  0.33752422  0.48020844  1
  Sn  Sn5  1  0.32347846  0.66866876  0.01571212  1
  Sn  Sn6  1  0.34300429  0.67610818  0.51437959  1
  Sn  Sn7  1  0.33332180  0.66853394  0.31928340  1
  Sn  Sn8  1  0.33827745  0.66849430  0.81650734  1
  S  S0  1  0.29641844  0.98859880  0.25092664  1
  S  S1  1  0.69204438  0.70441957  0.25096926  1
  S  S2  1  0.01152783  0.30667845  0.25145092  1
  S  S3  1  0.00569143  0.71261292  0.75186126  1
  S  S4  1  0.96498510  0.33406244  0.58264904  1
  S  S5  1  0.63072562  0.66708312  0.91638711  1
  O  O0  1  0.21334475  0.00121663  0.30400166  1
  O  O1  1  0.78671218  0.78884968  0.30414378  1
  O  O2  1  0.00048104  0.21177029  0.30386965  1
  O  O3  1  0.19863949  0.17277293  0.80792585  1
  O  O4  1  0.98361692  0.79733773  0.80288819  1
  O  O5  1  0.82791565  0.00843400  0.80672880  1
  O  O6  1  0.78219028  0.96147580  0.68909407  1
  O  O7  1  0.16990073  0.21389373  0.69149064  1
  O  O8  1  0.03069423  0.81116300  0.69606110  1
  O  O9  1  0.77889354  0.80753168  0.19691119  1
  O  O10  1  0.02915559  0.21981437  0.19642167  1
  O  O11  1  0.19176465  0.96988739  0.19648857  1
  O  O12  1  0.89208923  0.36071458  0.63600058  1
  O  O13  1  0.48176943  0.09234728  0.64066404  1
  O  O14  1  0.62333279  0.51397207  0.63593878  1
  O  O15  1  0.89738324  0.50847840  0.13860526  1
  O  O16  1  0.60095699  0.08922116  0.13864773  1
  O  O17  1  0.49124784  0.39269787  0.13628616  1
  O  O18  1  0.44984414  0.29281114  0.02121945  1
  O  O19  1  0.82900667  0.54441441  0.02606292  1
  O  O20  1  0.72209235  0.15717057  0.02701349  1
  O  O21  1  0.44739444  0.15419523  0.52551288  1
  O  O22  1  0.71396593  0.55922170  0.52231832  1
  O  O23  1  0.85781183  0.30734331  0.53013069  1
  O  O24  1  0.55650440  0.69669599  0.96977016  1
  O  O25  1  0.16382017  0.46018614  0.97110913  1
  O  O26  1  0.30974702  0.85426712  0.97390488  1
  O  O27  1  0.55106469  0.85395836  0.47755924  1
  O  O28  1  0.30199260  0.45988279  0.47819673  1
  O  O29  1  0.14992847  0.68713605  0.47867583  1
  O  O30  1  0.12078645  0.61417453  0.36193474  1
  O  O31  1  0.49391725  0.88236477  0.36215965  1
  O  O32  1  0.38103967  0.50880523  0.36226618  1
  O  O33  1  0.12485398  0.48729856  0.85564207  1
  O  O34  1  0.36277773  0.87792237  0.85569820  1
  O  O35  1  0.52069242  0.63827845  0.86392745  1
  O  O36  1  0.01726519  0.82029797  0.41622880  1
  O  O37  1  0.80944579  0.98906711  0.41380877  1
  O  O38  1  0.17581629  0.19524626  0.41560895  1
  O  O39  1  0.02535423  0.19091669  0.91392264  1
  O  O40  1  0.15943966  0.97911599  0.91103020  1
  O  O41  1  0.80119272  0.81753523  0.91004982  1
  O  O42  1  0.98056284  0.17836798  0.58511976  1
  O  O43  1  0.17665633  0.01833088  0.59030980  1
  O  O44  1  0.83858718  0.82745406  0.58709872  1
  O  O45  1  0.97999439  0.81733142  0.09039946  1
  O  O46  1  0.83599989  0.01302338  0.09232958  1
  O  O47  1  0.18240209  0.16462430  0.08909177  1
  O  O48  1  0.70077420  0.16506728  0.75227795  1
  O  O49  1  0.47026177  0.30954270  0.75248427  1
  O  O50  1  0.86437849  0.54106891  0.74702639  1
  O  O51  1  0.67221268  0.53627015  0.24719722  1
  O  O52  1  0.86256370  0.32506502  0.24776837  1
  O  O53  1  0.46386498  0.13761993  0.24765114  1
  O  O54  1  0.63926174  0.51074997  0.92020837  1
  O  O55  1  0.85089921  0.36351926  0.92088873  1
  O  O56  1  0.49517013  0.15799492  0.92048719  1
  O  O57  1  0.63562916  0.15120474  0.42450252  1
  O  O58  1  0.51221308  0.37146528  0.41998641  1
  O  O59  1  0.85335610  0.47964820  0.42402896  1
  O  O60  1  0.34148617  0.49952482  0.07000516  1
  O  O61  1  0.15389788  0.66140674  0.07397491  1
  O  O62  1  0.50723435  0.83621876  0.06993094  1
  O  O63  1  0.32839326  0.83416424  0.57527413  1
  O  O64  1  0.49681214  0.65559925  0.57560320  1
  O  O65  1  0.13718497  0.48398061  0.57704377  1
  O  O66  1  0.30411848  0.82691542  0.25140675  1
  O  O67  1  0.52133715  0.69521869  0.25193589  1
  O  O68  1  0.17306035  0.47692836  0.25213272  1
  O  O69  1  0.28877052  0.47792945  0.75654235  1
  O  O70  1  0.16734436  0.70723620  0.75479359  1
  O  O71  1  0.51213562  0.82598537  0.75615121  1
loop_
_geom_bond_atom_site_label_1
_geom_bond_atom_site_label_2
_geom_bond_distance
_geom_bond_site_symmetry_2
Na0 O48 2.318212 1_555
Na0 O69 2.382447 1_655
Na0 O50 2.536465 1_555
Na0 O33 2.585698 1_655
Na0 O70 2.830114 1_655
Na0 O12 2.910765 1_555
Na0 O7 2.913159 1_655
Na0 O5 2.961110 1_555
Na1 O49 2.378255 1_555
Na1 O48 2.434903 1_555
Na1 O71 2.509213 1_545
Na1 O70 2.562248 1_545
Na1 O13 2.654169 1_555
Na1 O34 2.669759 1_545
Na2 O43 2.535724 1_555
Na2 O64 2.539766 1_555
Na2 O65 2.646554 1_555
Na2 O14 2.658100 1_555
Na2 O42 2.708060 1_455
Na2 O7 2.745199 1_555
Na2 O28 2.760998 1_555
Na2 O21 2.809010 1_555
Na3 O63 2.388282 1_555
Na3 O29 2.501029 1_555
Na3 O43 2.521127 1_565
Na3 O44 2.522190 1_455
Na3 O65 2.655290 1_555
Na3 O22 2.766564 1_455
Na3 O8 2.924400 1_555
Na4 O64 2.450632 1_555
Na4 O44 2.552652 1_555
Na4 O6 2.588657 1_555
Na4 O63 2.616851 1_555
Na4 O42 2.633979 1_565
Na4 O13 2.669345 1_565
Na4 O27 2.712639 1_555
Na5 O61 2.493798 1_555
Na5 O47 2.575928 1_565
Na5 O16 2.610888 1_565
Na5 O62 2.651064 1_555
Na5 O45 2.667099 1_455
Na5 O26 2.703862 1_554
Na5 O11 2.821652 1_555
Na5 O18 2.909954 1_565
Na6 O62 2.461163 1_555
Na6 O60 2.540665 1_555
Na6 O45 2.564204 1_555
Na6 O17 2.586273 1_555
Na6 O46 2.638707 1_565
Na6 O19 2.781230 1_555
Na6 O9 2.787435 1_555
Na6 O24 2.832552 1_554
Na7 O60 2.538673 1_555
Na7 O61 2.583823 1_555
Na7 O46 2.603219 1_455
Na7 O47 2.651621 1_555
Na7 O15 2.665667 1_455
Na7 O20 2.720280 1_455
Na7 O25 2.836191 1_554
Na7 O10 2.839441 1_555
Na8 O56 2.388424 1_555
Na8 O39 2.477672 1_555
Na8 O54 2.504595 1_555
Na8 O18 2.509136 1_556
Na8 O40 2.515721 1_545
Na8 O25 2.856749 1_555
Na8 O3 2.866245 1_555
Na9 O37 2.398823 1_545
Na9 O59 2.430780 1_555
Na9 O38 2.475873 1_655
Na9 O57 2.651755 1_555
Na9 O2 2.660223 1_655
Na9 O30 2.829811 1_655
Na9 O23 2.873572 1_555
Na10 O38 2.454760 1_555
Na10 O36 2.478376 1_545
Na10 O57 2.516468 1_555
Na10 O58 2.691407 1_555
Na10 O0 2.710062 1_555
Na10 O21 2.741509 1_555
Na10 O31 2.826827 1_545
Na11 O36 2.426389 1_655
Na11 O58 2.480049 1_555
Na11 O37 2.508478 1_555
Na11 O22 2.683512 1_555
Na11 O1 2.722661 1_555
Na11 O59 2.736342 1_555
Na11 O32 2.894068 1_555
Na11 O27 2.991316 1_555
Na12 O36 2.393457 1_555
Na12 O38 2.471772 1_565
Na12 O37 2.490844 1_455
Na12 O44 2.656525 1_455
Na12 O43 2.717891 1_565
Na12 O42 2.763237 1_465
Na13 O40 2.549556 1_655
Na13 O39 2.587549 1_665
Na13 O47 2.590428 1_666
Na13 O45 2.621600 1_556
Na13 O46 2.631756 1_566
Na13 O41 2.676868 1_555
Na14 O48 2.457787 1_555
Na14 O56 2.480775 1_555
Na14 O55 2.513689 1_555
Na14 O49 2.559918 1_555
Na14 O54 2.699553 1_555
Na14 O50 2.808408 1_555
Na15 O58 2.603070 1_555
Na15 O53 2.616587 1_555
Na15 O52 2.625871 1_555
Na15 O59 2.641283 1_555
Na15 O51 2.658486 1_555
Na15 O57 2.669821 1_555
Na16 O66 2.562567 1_555
Na16 O67 2.594250 1_555
Na16 O61 2.610504 1_555
Na16 O68 2.613593 1_555
Na16 O60 2.638557 1_555
Na16 O62 2.658839 1_555
Na17 O71 2.379809 1_555
Na17 O64 2.503595 1_555
Na17 O69 2.536642 1_555
Na17 O63 2.759856 1_555
Na17 O70 2.779040 1_555
Na17 O65 2.878282 1_555
Ca0 O37 2.211753 1_455
Ca0 O38 2.220715 1_565
Ca0 O0 2.221281 1_565
Ca0 O1 2.230364 1_455
Ca0 O36 2.262464 1_555
Ca0 O2 2.264287 1_565
Ca1 O14 2.165866 1_555
Ca1 O49 2.186720 1_555
Ca1 O13 2.199332 1_555
Ca1 O48 2.357139 1_555
Ca1 O12 2.365732 1_555
Ca1 O50 2.370631 1_555
Ca2 O15 2.158474 1_555
Ca2 O17 2.175918 1_555
Ca2 O16 2.190560 1_555
Ca2 O53 2.381808 1_555
Ca2 O51 2.385081 1_555
Ca2 O52 2.422821 1_555
O0 S0 1.463511 1_545
O1 S1 1.463645 1_555
O2 S2 1.463801 1_555
O3 Si0 1.634254 1_555
O3 Sn0 1.973036 1_555
O4 S3 1.461774 1_655
O4 Sn0 2.224402 1_665
O5 Si1 1.621713 1_545
O5 Sn0 1.960043 1_655
O6 Si1 1.681450 1_555
O6 Sn1 2.011523 1_555
O7 Si0 1.697246 1_555
O7 Sn1 2.028032 1_445
O8 S3 1.522332 1_555
O8 Sn1 2.166756 1_455
O9 S1 1.523755 1_555
O9 Sn2 2.255278 1_665
O10 S2 1.531027 1_555
O10 Sn2 2.198707 1_555
O11 S0 1.530012 1_555
O11 Sn2 2.214963 1_565
O12 S4 1.463728 1_555
O13 Si2 1.594343 1_555
O14 Si3 1.580087 1_555
O15 Si4 1.582905 1_555
O16 Si5 1.583932 1_555
O17 Si6 1.582595 1_555
O18 Si6 1.671540 1_555
O18 Sn3 2.103098 1_554
O19 Si4 1.660984 1_555
O19 Sn3 2.060492 1_554
O20 Si5 1.655790 1_555
O20 Sn3 2.014278 1_554
O21 Si2 1.678784 1_555
O21 Sn4 2.079395 1_555
O22 Si3 1.676442 1_555
O22 Sn4 2.047684 1_555
O23 S4 1.493404 1_555
O23 Sn4 2.323897 1_555
O24 S5 1.481576 1_555
O24 Sn5 2.272444 1_556
O25 Si7 1.636656 1_555
O25 Sn5 1.997143 1_556
O26 Si8 1.626084 1_555
O26 Sn5 2.020556 1_556
O27 Si9 1.638364 1_555
O27 Sn6 1.975469 1_555
O28 Si10 1.645102 1_555
O28 Sn6 1.990929 1_555
O29 Si11 1.640225 1_555
O29 Sn6 2.000953 1_555
O30 Si11 1.649964 1_555
O30 Sn7 2.003262 1_555
O31 Si9 1.652154 1_555
O31 Sn7 2.008928 1_555
O32 Si10 1.645686 1_555
O32 Sn7 1.996417 1_555
O33 Si7 1.656502 1_555
O33 Sn8 2.036212 1_555
O34 Si8 1.648264 1_555
O34 Sn8 2.015012 1_555
O35 S5 1.504273 1_555
O35 Sn8 2.130342 1_555
O36 Si11 1.611934 1_555
O37 Si9 1.604763 1_555
O38 Si10 1.605747 1_555
O39 Si7 1.668408 1_555
O39 Sn0 2.027338 1_555
O40 Si8 1.673950 1_555
O40 Sn0 2.041772 1_565
O41 S5 1.484414 1_555
O41 Sn0 2.220497 1_665
O42 S4 1.505243 1_555
O42 Sn1 2.306994 1_545
O43 Si2 1.681199 1_555
O43 Sn1 2.090813 1_445
O44 Si3 1.677777 1_555
O44 Sn1 2.086858 1_555
O45 Si4 1.683567 1_555
O45 Sn2 2.028876 1_665
O46 Si5 1.674723 1_555
O46 Sn2 2.019904 1_655
O47 Si6 1.691211 1_555
O47 Sn2 2.052979 1_555
O48 Si1 1.619848 1_545
O49 Si0 1.595254 1_555
O50 S3 1.453923 1_655
O51 S1 1.459532 1_555
O52 S2 1.459866 1_655
O53 S0 1.457187 1_545
O54 S5 1.477136 1_555
O54 Sn3 2.443142 1_555
O55 Si7 1.633204 1_655
O55 Sn3 2.068120 1_555
O56 Si8 1.661464 1_545
O56 Sn3 2.120239 1_555
O57 Si9 1.650372 1_545
O57 Sn4 2.053404 1_555
O58 Si10 1.653819 1_555
O58 Sn4 2.032175 1_555
O59 Si11 1.652419 1_655
O59 Sn4 2.075668 1_555
O60 Si6 1.650143 1_555
O60 Sn5 2.069418 1_555
O61 Si4 1.654480 1_455
O61 Sn5 2.018118 1_555
O62 Si5 1.647791 1_565
O62 Sn5 2.026309 1_555
O63 Si2 1.658508 1_565
O63 Sn6 2.047968 1_555
O64 Si3 1.665337 1_555
O64 Sn6 2.067832 1_555
O65 S4 1.490197 1_455
O65 Sn6 2.327896 1_555
O66 S0 1.518422 1_555
O66 Sn7 2.245711 1_555
O67 S1 1.523785 1_555
O67 Sn7 2.227451 1_555
O68 S2 1.518899 1_555
O68 Sn7 2.227353 1_555
O69 Si0 1.669523 1_555
O69 Sn8 2.069604 1_555
O70 S3 1.508502 1_555
O70 Sn8 2.272936 1_555
O71 Si1 1.665089 1_555
O71 Sn8 2.061687 1_555
