# generated using pymatgen
data_MnSiRh
_symmetry_space_group_name_H-M   'P 1'
_cell_length_a   3.82585400
_cell_length_b   5.99812500
_cell_length_c   7.25677500
_cell_angle_alpha   90.00000000
_cell_angle_beta   90.00000000
_cell_angle_gamma   90.00000000
_symmetry_Int_Tables_number   1
_chemical_formula_structural   MnSiRh
_chemical_formula_sum   'Mn4 Si4 Rh4'
_cell_volume   166.52811366
_cell_formula_units_Z   4
loop_
 _symmetry_equiv_pos_site_id
 _symmetry_equiv_pos_as_xyz
  1  'x, y, z'
loop_
 _atom_site_type_symbol
 _atom_site_label
 _atom_site_symmetry_multiplicity
 _atom_site_fract_x
 _atom_site_fract_y
 _atom_site_fract_z
 _atom_site_occupancy
  Mn  Mn0  1  0.75000000  0.96959700  0.18119100  1
  Mn  Mn1  1  0.25000000  0.53040300  0.68119100  1
  Mn  Mn2  1  0.75000000  0.46959700  0.31880900  1
  Mn  Mn3  1  0.25000000  0.03040300  0.81880900  1
  Si  Si0  1  0.25000000  0.76407800  0.37774000  1
  Si  Si1  1  0.25000000  0.26407800  0.12226000  1
  Si  Si2  1  0.75000000  0.23592200  0.62226000  1
  Si  Si3  1  0.75000000  0.73592200  0.87774000  1
  Rh  Rh0  1  0.25000000  0.16174800  0.43609000  1
  Rh  Rh1  1  0.25000000  0.66174800  0.06391000  1
  Rh  Rh2  1  0.75000000  0.33825200  0.93609000  1
  Rh  Rh3  1  0.75000000  0.83825200  0.56391000  1
loop_
_geom_bond_atom_site_label_1
_geom_bond_atom_site_label_2
_geom_bond_distance
_geom_bond_site_symmetry_2
Mn0 Si3 2.610297 1_554
Mn0 Si1 2.638581 1_565
Mn0 Si1 2.638581 1_665
Mn0 Si0 2.685754 1_655
Mn0 Si0 2.685754 1_555
Mn0 Rh1 2.791640 1_555
Mn0 Rh1 2.791640 1_655
Mn0 Rh2 2.837807 1_564
Mn0 Rh3 2.886883 1_555
Mn0 Rh0 2.899863 1_665
Mn0 Rh0 2.899863 1_565
Mn1 Si0 2.610297 1_555
Mn1 Si2 2.638581 1_455
Mn1 Si2 2.638581 1_555
Mn1 Si3 2.685754 1_555
Mn1 Si3 2.685754 1_455
Mn1 Rh3 2.791640 1_455
Mn1 Rh3 2.791640 1_555
Mn1 Rh0 2.837807 1_555
Mn1 Rh1 2.886883 1_556
Mn1 Rh2 2.899863 1_555
Mn1 Rh2 2.899863 1_455
Mn2 Si2 2.610297 1_555
Mn2 Si0 2.638581 1_655
Mn2 Si0 2.638581 1_555
Mn2 Si1 2.685754 1_655
Mn2 Si1 2.685754 1_555
Mn2 Rh0 2.791640 1_555
Mn2 Rh0 2.791640 1_655
Mn2 Rh3 2.837807 1_555
Mn2 Rh2 2.886883 1_554
Mn2 Rh1 2.899863 1_655
Mn2 Rh1 2.899863 1_555
Mn3 Si1 2.610297 1_556
Mn3 Si3 2.638581 1_545
Mn3 Si3 2.638581 1_445
Mn3 Si2 2.685754 1_455
Mn3 Si2 2.685754 1_555
Mn3 Rh2 2.791640 1_555
Mn3 Rh2 2.791640 1_455
Mn3 Rh1 2.837807 1_546
Mn3 Rh0 2.886883 1_555
Mn3 Rh3 2.899863 1_545
Mn3 Rh3 2.899863 1_445
Rh0 Si1 2.358656 1_555
Rh0 Si2 2.383782 1_555
Rh0 Si2 2.383782 1_455
Rh0 Si0 2.422567 1_545
Rh1 Si0 2.358656 1_555
Rh1 Si3 2.383782 1_554
Rh1 Si3 2.383782 1_454
Rh1 Si1 2.422567 1_555
Rh2 Si2 2.358656 1_555
Rh2 Si1 2.383782 1_556
Rh2 Si1 2.383782 1_656
Rh2 Si3 2.422567 1_555
Rh3 Si3 2.358656 1_555
Rh3 Si0 2.383782 1_555
Rh3 Si0 2.383782 1_655
Rh3 Si2 2.422567 1_565
