# generated using pymatgen
data_LaTe2
_symmetry_space_group_name_H-M   'P 1'
_cell_length_a   9.14887871
_cell_length_b   9.20728686
_cell_length_c   9.25709832
_cell_angle_alpha   90.00000000
_cell_angle_beta   89.99502072
_cell_angle_gamma   90.00000000
_symmetry_Int_Tables_number   1
_chemical_formula_structural   LaTe2
_chemical_formula_sum   'La8 Te16'
_cell_volume   779.78417762
_cell_formula_units_Z   8
loop_
 _symmetry_equiv_pos_site_id
 _symmetry_equiv_pos_as_xyz
  1  'x, y, z'
loop_
 _atom_site_type_symbol
 _atom_site_label
 _atom_site_symmetry_multiplicity
 _atom_site_fract_x
 _atom_site_fract_y
 _atom_site_fract_z
 _atom_site_occupancy
  La  La0  1  0.01202143  0.50539587  0.27397917  1
  La  La1  1  0.75227129  0.25000327  0.72773660  1
  La  La2  1  0.75201030  0.75008337  0.72543503  1
  La  La3  1  0.25227129  0.74999673  0.72773660  1
  La  La4  1  0.99159728  0.00531665  0.27373234  1
  La  La5  1  0.49159728  0.99468335  0.27373234  1
  La  La6  1  0.25201030  0.24991663  0.72543503  1
  La  La7  1  0.51202143  0.49460413  0.27397917  1
  Te  Te0  1  0.27748783  0.49979895  0.00007566  1
  Te  Te1  1  0.00321198  0.26276300  -0.00041171  1
  Te  Te2  1  0.50507077  0.49812812  0.63323959  1
  Te  Te3  1  0.25135390  0.24990364  0.36671363  1
  Te  Te4  1  0.49904401  0.99897242  0.63276155  1
  Te  Te5  1  0.50321198  0.73723700  -0.00041171  1
  Te  Te6  1  0.25159524  0.75011615  0.36793614  1
  Te  Te7  1  0.75159524  0.24988385  0.36793614  1
  Te  Te8  1  0.00159657  0.76262090  -0.00029189  1
  Te  Te9  1  0.50159657  0.23737910  -0.00029189  1
  Te  Te10  1  0.75135390  0.75009636  0.36671363  1
  Te  Te11  1  0.77748783  0.50020105  0.00007566  1
  Te  Te12  1  0.72703940  -0.00031717  -0.00000811  1
  Te  Te13  1  0.22703940  0.00031717  -0.00000811  1
  Te  Te14  1  -0.00095599  0.00102758  0.63276155  1
  Te  Te15  1  0.00507077  0.50187188  0.63323959  1
loop_
_geom_bond_atom_site_label_1
_geom_bond_atom_site_label_2
_geom_bond_distance
_geom_bond_site_symmetry_2
La0 Te6 3.261581 1_555
La0 Te11 3.322103 1_455
La0 Te15 3.326470 1_555
La0 Te3 3.326478 1_555
La0 Te1 3.383662 1_555
La0 Te10 3.391174 1_455
La0 Te7 3.459415 1_455
La0 Te8 3.473396 1_555
La0 Te0 3.511309 1_555
La1 Te7 3.330715 1_555
La1 Te2 3.331611 1_555
La1 Te14 3.335397 1_655
La1 Te4 3.388630 1_545
La1 Te15 3.389977 1_655
La1 Te9 3.407463 1_556
La1 Te1 3.408619 1_656
La1 Te11 3.422848 1_556
La1 Te12 3.423017 1_556
La2 Te10 3.320725 1_555
La2 Te14 3.343962 1_665
La2 Te2 3.348790 1_555
La2 Te15 3.363204 1_655
La2 Te4 3.368081 1_555
La2 Te5 3.411003 1_556
La2 Te8 3.416839 1_656
La2 Te12 3.434129 1_566
La2 Te11 3.436787 1_556
La3 Te6 3.330715 1_555
La3 Te15 3.331611 1_555
La3 Te4 3.335397 1_555
La3 Te14 3.388630 1_565
La3 Te2 3.389977 1_555
La3 Te8 3.407463 1_556
La3 Te5 3.408619 1_556
La3 Te0 3.422848 1_556
La3 Te13 3.423017 1_566
La4 Te7 3.263750 1_555
La4 Te14 3.324507 1_655
La4 Te13 3.326017 1_655
La4 Te10 3.330694 1_545
La4 Te8 3.381763 1_645
La4 Te3 3.385309 1_655
La4 Te6 3.455447 1_645
La4 Te1 3.474230 1_655
La4 Te12 3.504783 1_555
La5 Te6 3.263750 1_555
La5 Te4 3.324507 1_555
La5 Te12 3.326017 1_565
La5 Te3 3.330694 1_565
La5 Te9 3.381763 1_565
La5 Te10 3.385309 1_555
La5 Te7 3.455447 1_565
La5 Te5 3.474230 1_555
La5 Te13 3.504783 1_565
La6 Te3 3.320725 1_555
La6 Te4 3.343962 1_545
La6 Te15 3.348790 1_555
La6 Te2 3.363204 1_555
La6 Te14 3.368081 1_555
La6 Te1 3.411003 1_556
La6 Te9 3.416839 1_556
La6 Te13 3.434129 1_556
La6 Te0 3.436787 1_556
La7 Te7 3.261581 1_555
La7 Te0 3.322103 1_555
La7 Te2 3.326470 1_555
La7 Te10 3.326478 1_555
La7 Te5 3.383662 1_555
La7 Te3 3.391174 1_555
La7 Te6 3.459415 1_555
La7 Te9 3.473396 1_555
La7 Te11 3.511309 1_555
Te0 Te5 3.007332 1_555
Te0 Te9 3.168883 1_555
Te0 Te1 3.325630 1_555
Te1 Te11 3.007332 1_455
Te1 Te13 3.167402 1_555
Te11 Te8 3.168883 1_655
Te11 Te5 3.325630 1_555
Te12 Te9 3.007293 1_555
Te12 Te5 3.167402 1_545
Te12 Te8 3.327727 1_645
Te13 Te8 3.007293 1_545
Te13 Te9 3.327727 1_555
