# generated using pymatgen
data_Na2CaGe3P4(SO12)2
_symmetry_space_group_name_H-M   'P 1'
_cell_length_a   8.54479991
_cell_length_b   8.55104964
_cell_length_c   22.22381814
_cell_angle_alpha   89.40954028
_cell_angle_beta   90.16817917
_cell_angle_gamma   119.80742501
_symmetry_Int_Tables_number   1
_chemical_formula_structural   Na2CaGe3P4(SO12)2
_chemical_formula_sum   'Na6 Ca3 Ge9 P12 S6 O72'
_cell_volume   1408.91786753
_cell_formula_units_Z   3
loop_
 _symmetry_equiv_pos_site_id
 _symmetry_equiv_pos_as_xyz
  1  'x, y, z'
loop_
 _atom_site_type_symbol
 _atom_site_label
 _atom_site_symmetry_multiplicity
 _atom_site_fract_x
 _atom_site_fract_y
 _atom_site_fract_z
 _atom_site_occupancy
  Na  Na0  1  0.99911053  0.99216331  0.50472383  1
  Na  Na1  1  0.00823416  0.99879267  0.99866029  1
  Na  Na2  1  0.66440659  0.32956057  0.83221620  1
  Na  Na3  1  0.66732217  0.33289694  0.33884520  1
  Na  Na4  1  0.32909896  0.66172768  0.16796284  1
  Na  Na5  1  0.34477589  0.66837745  0.66623158  1
  Ca  Ca0  1  0.99904460  0.99910020  0.64712473  1
  Ca  Ca1  1  0.00450928  0.99978345  0.13808829  1
  Ca  Ca2  1  0.33394996  0.66979124  0.32172106  1
  Ge  Ge0  1  0.00340119  0.00287716  0.36157125  1
  Ge  Ge1  1  0.00194079  0.01081592  0.85234480  1
  Ge  Ge2  1  0.63654599  0.31123214  0.68463304  1
  Ge  Ge3  1  0.67123478  0.34679710  0.18288494  1
  Ge  Ge4  1  0.66575754  0.33790971  0.97434760  1
  Ge  Ge5  1  0.66292975  0.33410585  0.48169845  1
  Ge  Ge6  1  0.32657391  0.65727892  0.01663800  1
  Ge  Ge7  1  0.34370237  0.67210968  0.51625003  1
  Ge  Ge8  1  0.33886814  0.66890045  0.81930249  1
  P  P0  1  0.29551076  0.30243181  0.75317262  1
  P  P1  1  0.69894459  0.99927239  0.75246861  1
  P  P2  1  0.38538480  0.03527022  0.57945455  1
  P  P3  1  0.65034211  0.60629201  0.58127389  1
  P  P4  1  0.95544499  0.60408901  0.07673952  1
  P  P5  1  0.39663117  0.35234870  0.07701693  1
  P  P6  1  0.62577033  0.67332451  0.91728146  1
  P  P7  1  0.04460649  0.37689020  0.91681739  1
  P  P8  1  0.32993051  0.95289494  0.91769175  1
  P  P9  1  0.63551391  0.97325374  0.41846248  1
  P  P10  1  0.33591565  0.36889203  0.41891679  1
  P  P11  1  0.03223853  0.66223246  0.41950941  1
  S  S0  1  0.30630384  0.01755936  0.24952279  1
  S  S1  1  0.71216335  0.69926433  0.24969433  1
  S  S2  1  0.98447459  0.28753674  0.24886790  1
  S  S3  1  0.00175909  0.70033576  0.75505428  1
  S  S4  1  0.95578883  0.34967494  0.58197910  1
  S  S5  1  0.64772699  0.04502257  0.07859523  1
  O  O0  1  0.22163786  0.03794433  0.30650493  1
  O  O1  1  0.81730693  0.78207814  0.30618209  1
  O  O2  1  0.96269666  0.18105551  0.30628978  1
  O  O3  1  0.20992932  0.17167008  0.80929271  1
  O  O4  1  0.96643822  0.78729616  0.80855445  1
  O  O5  1  0.82754788  0.03975111  0.80862842  1
  O  O6  1  0.75881016  0.95175922  0.69610506  1
  O  O7  1  0.19178409  0.24023354  0.69601669  1
  O  O8  1  0.04141940  0.80290692  0.69992808  1
  O  O9  1  0.79471650  0.79977608  0.19495039  1
  O  O10  1  0.00311817  0.20444962  0.19518600  1
  O  O11  1  0.20327150  0.99839169  0.19555755  1
  O  O12  1  0.87058087  0.36934554  0.63863642  1
  O  O13  1  0.49230308  0.11191480  0.64059135  1
  O  O14  1  0.62473445  0.49373941  0.64169719  1
  O  O15  1  0.87522409  0.49498371  0.13756158  1
  O  O16  1  0.62560114  0.12643953  0.13544824  1
  O  O17  1  0.50468985  0.37708049  0.13735572  1
  O  O18  1  0.48583215  0.32269626  0.02159805  1
  O  O19  1  0.84213567  0.50794024  0.02127185  1
  O  O20  1  0.67210864  0.15298457  0.02326648  1
  O  O21  1  0.48846114  0.15382716  0.52587804  1
  O  O22  1  0.67513470  0.51476343  0.52640568  1
  O  O23  1  0.84970306  0.32958180  0.52724578  1
  O  O24  1  0.54211459  0.71025287  0.97351092  1
  O  O25  1  0.16299280  0.45364016  0.97386122  1
  O  O26  1  0.29237056  0.83228766  0.97498402  1
  O  O27  1  0.54679530  0.83860753  0.47252203  1
  O  O28  1  0.29514354  0.46046518  0.47259692  1
  O  O29  1  0.16627652  0.70332874  0.47322761  1
  O  O30  1  0.08432618  0.61913269  0.36065528  1
  O  O31  1  0.53403582  0.92049854  0.36059616  1
  O  O32  1  0.37848092  0.46547356  0.35984683  1
  O  O33  1  0.12962665  0.50171940  0.86210412  1
  O  O34  1  0.36791342  0.86946837  0.86278903  1
  O  O35  1  0.50344229  0.63193771  0.86213204  1
  O  O36  1  0.01751319  0.83914929  0.41347512  1
  O  O37  1  0.82422267  0.98393137  0.41212927  1
  O  O38  1  0.16015998  0.17810979  0.41394786  1
  O  O39  1  0.02672500  0.18842393  0.90908952  1
  O  O40  1  0.15994294  0.97235454  0.90905512  1
  O  O41  1  0.81487758  0.84157176  0.90826573  1
  O  O42  1  0.97804135  0.19228831  0.58322173  1
  O  O43  1  0.20302779  0.01922790  0.58075022  1
  O  O44  1  0.81056874  0.79232283  0.58300059  1
  O  O45  1  0.97324188  0.78780286  0.07667145  1
  O  O46  1  0.80443328  0.02193492  0.08032048  1
  O  O47  1  0.20844603  0.19420773  0.07744640  1
  O  O48  1  0.68432666  0.17605829  0.74456224  1
  O  O49  1  0.48836906  0.32036943  0.74672921  1
  O  O50  1  0.84038810  0.51843641  0.75001304  1
  O  O51  1  0.70854863  0.51803237  0.24590903  1
  O  O52  1  0.80757382  0.29158560  0.24460030  1
  O  O53  1  0.48617803  0.19267778  0.24465921  1
  O  O54  1  0.64734327  0.50279391  0.92250750  1
  O  O55  1  0.85170095  0.35166702  0.92271658  1
  O  O56  1  0.50078138  0.14376450  0.92388561  1
  O  O57  1  0.67582589  0.16635778  0.43198628  1
  O  O58  1  0.49291826  0.33169655  0.43046874  1
  O  O59  1  0.83980556  0.50620434  0.43227292  1
  O  O60  1  0.39442824  0.53440078  0.07280444  1
  O  O61  1  0.14406804  0.61499990  0.07372936  1
  O  O62  1  0.47735102  0.86729956  0.07553206  1
  O  O63  1  0.37754508  0.84916566  0.57432531  1
  O  O64  1  0.46870200  0.60951861  0.57509456  1
  O  O65  1  0.13364095  0.51974929  0.57753942  1
  O  O66  1  0.33857897  0.86584237  0.25268666  1
  O  O67  1  0.52761458  0.66481777  0.25271979  1
  O  O68  1  0.13541403  0.47150604  0.25254503  1
  O  O69  1  0.32136017  0.49217124  0.76648825  1
  O  O70  1  0.16496370  0.68072571  0.76566097  1
  O  O71  1  0.50681191  0.83860597  0.76644764  1
loop_
_geom_bond_atom_site_label_1
_geom_bond_atom_site_label_2
_geom_bond_distance
_geom_bond_site_symmetry_2
Na0 O43 2.352497 1_665
Na0 O44 2.400014 1_555
Na0 O36 2.471878 1_655
Na0 O38 2.503328 1_665
Na0 O37 2.520525 1_555
Na0 O42 2.524661 1_565
Na1 O45 2.398433 1_456
Na1 O47 2.446510 1_566
Na1 O40 2.452121 1_555
Na1 O39 2.509480 1_565
Na1 O41 2.529980 1_455
Na1 O46 2.594963 1_466
Na2 O49 2.397290 1_555
Na2 O50 2.397491 1_555
Na2 O48 2.413172 1_555
Na2 O55 2.516018 1_555
Na2 O56 2.524075 1_555
Na2 O54 2.553391 1_555
Na3 O51 2.505717 1_555
Na3 O57 2.521751 1_555
Na3 O58 2.523753 1_555
Na3 O52 2.529570 1_555
Na3 O53 2.530308 1_555
Na3 O59 2.559985 1_555
Na4 O68 2.489412 1_555
Na4 O67 2.522656 1_555
Na4 O61 2.532769 1_555
Na4 O66 2.554311 1_555
Na4 O60 2.574489 1_555
Na4 O62 2.577091 1_555
Na5 O64 2.457720 1_555
Na5 O63 2.479530 1_555
Na5 O65 2.550771 1_555
Na5 O69 2.628383 1_555
Na5 O71 2.653540 1_555
Na5 O70 2.727758 1_555
Ca0 O6 2.177262 1_555
Ca0 O7 2.191845 1_665
Ca0 O8 2.209880 1_655
Ca0 O43 2.226023 1_665
Ca0 O44 2.226743 1_555
Ca0 O42 2.241196 1_565
Ca1 O11 2.126711 1_555
Ca1 O9 2.157828 1_455
Ca1 O47 2.168941 1_565
Ca1 O10 2.177097 1_565
Ca1 O45 2.188032 1_455
Ca1 O46 2.216052 1_465
Ca2 O32 2.131593 1_555
Ca2 O30 2.137868 1_555
Ca2 O31 2.156616 1_555
Ca2 O66 2.246607 1_555
Ca2 O67 2.275522 1_555
Ca2 O68 2.301097 1_555
Ge0 O37 1.841889 1_445
Ge0 O38 1.850883 1_555
Ge0 O36 1.854447 1_545
Ge0 O2 2.106536 1_455
Ge0 O0 2.124833 1_555
Ge0 O1 2.158751 1_445
Ge1 O3 1.875754 1_555
Ge1 O5 1.891765 1_455
Ge1 O39 1.913083 1_555
Ge1 O41 1.966897 1_445
Ge1 O40 1.985507 1_545
Ge1 O4 2.037759 1_445
Ge2 O13 1.822324 1_555
Ge2 O14 1.865899 1_555
Ge2 O49 1.903810 1_555
Ge2 O48 1.926351 1_555
Ge2 O12 2.074746 1_555
Ge2 O50 2.292249 1_555
Ge3 O15 1.856508 1_555
Ge3 O17 1.862411 1_555
Ge3 O51 1.944981 1_555
Ge3 O52 1.996328 1_555
Ge3 O53 2.006402 1_555
Ge3 O16 2.030283 1_555
Ge4 O18 1.814140 1_556
Ge4 O19 1.821094 1_556
Ge4 O54 1.877759 1_555
Ge4 O55 1.917549 1_555
Ge4 O56 1.924425 1_555
Ge4 O20 1.932597 1_556
Ge5 O22 1.804259 1_555
Ge5 O21 1.804314 1_555
Ge5 O58 1.835225 1_555
Ge5 O59 1.849775 1_555
Ge5 O57 1.865691 1_555
Ge5 O23 1.903742 1_555
Ge6 O25 1.869829 1_554
Ge6 O60 1.890157 1_555
Ge6 O26 1.893825 1_554
Ge6 O61 1.901090 1_555
Ge6 O24 1.920380 1_554
Ge6 O62 2.082421 1_555
Ge7 O27 1.872976 1_555
Ge7 O63 1.909049 1_555
Ge7 O29 1.916375 1_555
Ge7 O28 1.917269 1_555
Ge7 O64 1.919169 1_555
Ge7 O65 2.104126 1_555
Ge8 O35 1.846961 1_555
Ge8 O71 1.857259 1_555
Ge8 O69 1.869380 1_555
Ge8 O34 1.883249 1_555
Ge8 O33 1.893687 1_555
Ge8 O70 1.943195 1_555
O0 S0 1.514180 1_555
O1 S1 1.504593 1_555
O2 S2 1.516970 1_555
O3 P0 1.582479 1_555
O4 S3 1.516954 1_655
O5 P1 1.583600 1_545
O6 P1 1.488843 1_555
O7 P0 1.490159 1_555
O8 S3 1.438689 1_555
O9 S1 1.448172 1_555
O10 S2 1.443801 1_455
O11 S0 1.447308 1_565
O12 S4 1.508423 1_555
O13 P2 1.589350 1_555
O14 P3 1.594712 1_555
O15 P4 1.584625 1_555
O16 S5 1.505735 1_555
O17 P5 1.581105 1_555
O18 P5 1.538252 1_555
O19 P4 1.534743 1_555
O20 S5 1.481395 1_555
O21 P2 1.521443 1_555
O22 P3 1.526552 1_555
O23 S4 1.474385 1_555
O24 P6 1.552435 1_555
O25 P7 1.552663 1_555
O26 P8 1.560149 1_555
O27 P9 1.566145 1_555
O28 P10 1.565452 1_555
O29 P11 1.568745 1_555
O30 P11 1.490343 1_555
O31 P9 1.491888 1_555
O32 P10 1.489805 1_555
O33 P7 1.534001 1_555
O34 P8 1.534101 1_555
O35 P6 1.534163 1_555
O36 P11 1.583482 1_555
O37 P9 1.575732 1_555
O38 P10 1.579879 1_555
O39 P7 1.552672 1_555
O40 P8 1.553161 1_555
O41 P6 1.551066 1_555
O42 S4 1.449745 1_555
O43 P2 1.495100 1_555
O44 P3 1.497384 1_555
O45 P4 1.501149 1_555
O46 S5 1.447684 1_555
O47 P5 1.500814 1_555
O48 P1 1.585512 1_545
O49 P0 1.584096 1_555
O50 S3 1.484473 1_655
O51 S1 1.537777 1_555
O52 S2 1.531729 1_555
O53 S0 1.525076 1_555
O54 P6 1.561244 1_555
O55 P7 1.558193 1_655
O56 P8 1.564827 1_545
O57 P9 1.542639 1_545
O58 P10 1.545105 1_555
O59 P11 1.542133 1_655
O60 P5 1.568013 1_555
O61 P4 1.569048 1_455
O62 S5 1.495195 1_565
O63 P2 1.564516 1_565
O64 P3 1.571564 1_555
O65 S4 1.494975 1_455
O66 S0 1.455266 1_565
O67 S1 1.454795 1_555
O68 S2 1.459376 1_455
O69 P0 1.556279 1_555
O70 S3 1.502729 1_555
O71 P1 1.559209 1_555
