# generated using pymatgen
data_MgTi3SiS5O24
_symmetry_space_group_name_H-M   'P 1'
_cell_length_a   8.65065612
_cell_length_b   8.64649507
_cell_length_c   22.25582907
_cell_angle_alpha   89.84356622
_cell_angle_beta   89.82040245
_cell_angle_gamma   120.04145494
_symmetry_Int_Tables_number   1
_chemical_formula_structural   MgTi3SiS5O24
_chemical_formula_sum   'Mg3 Ti9 Si3 S15 O72'
_cell_volume   1441.03489236
_cell_formula_units_Z   3
loop_
 _symmetry_equiv_pos_site_id
 _symmetry_equiv_pos_as_xyz
  1  'x, y, z'
loop_
 _atom_site_type_symbol
 _atom_site_label
 _atom_site_symmetry_multiplicity
 _atom_site_fract_x
 _atom_site_fract_y
 _atom_site_fract_z
 _atom_site_occupancy
  Mg  Mg0  1  0.99904014  0.99961586  0.35733336  1
  Mg  Mg1  1  0.66217003  0.33434144  0.69080688  1
  Mg  Mg2  1  0.66588384  0.33244062  0.18848534  1
  Ti  Ti0  1  0.01017991  0.01051017  0.85988005  1
  Ti  Ti1  1  0.99113168  0.99268345  0.64252861  1
  Ti  Ti2  1  0.00078030  0.00300434  0.14443666  1
  Ti  Ti3  1  0.66515626  0.32775010  0.97156806  1
  Ti  Ti4  1  0.67154769  0.34971229  0.47907268  1
  Ti  Ti5  1  0.32092697  0.66275124  0.01818115  1
  Ti  Ti6  1  0.34159918  0.66905276  0.52505190  1
  Ti  Ti7  1  0.33530565  0.66907674  0.30769300  1
  Ti  Ti8  1  0.32295055  0.67072413  0.81057032  1
  Si  Si0  1  0.66615483  0.61811340  0.58701363  1
  Si  Si1  1  0.04775260  0.38249098  0.91574436  1
  Si  Si2  1  0.33213966  0.95020680  0.91513401  1
  S  S0  1  0.28738124  0.00148869  0.25118660  1
  S  S1  1  0.71389768  0.71270262  0.25118264  1
  S  S2  1  0.99946848  0.28734826  0.25142372  1
  S  S3  1  0.28656198  0.28692836  0.74976840  1
  S  S4  1  0.99879334  0.71376114  0.74999977  1
  S  S5  1  0.71298705  0.99842546  0.75011730  1
  S  S6  1  0.95461683  0.33381962  0.58327883  1
  S  S7  1  0.37918608  0.04686286  0.58336755  1
  S  S8  1  0.95443919  0.62225147  0.08510617  1
  S  S9  1  0.66565605  0.04311183  0.08439165  1
  S  S10  1  0.38016913  0.33613476  0.08491145  1
  S  S11  1  0.61846651  0.66718157  0.91600865  1
  S  S12  1  0.61750130  0.95441528  0.41629567  1
  S  S13  1  0.33360528  0.38151393  0.41647201  1
  S  S14  1  0.04825649  0.66526120  0.41630330  1
  O  O0  1  0.20488764  0.02286164  0.30484037  1
  O  O1  1  0.81720867  0.79561950  0.30455451  1
  O  O2  1  0.97715065  0.18170225  0.30472985  1
  O  O3  1  0.19286419  0.17511303  0.80430866  1
  O  O4  1  0.97797200  0.80064608  0.80365429  1
  O  O5  1  0.82213277  0.01917877  0.80341994  1
  O  O6  1  0.80310331  0.97422340  0.69509473  1
  O  O7  1  0.17323062  0.20198340  0.69627326  1
  O  O8  1  0.02780322  0.82816165  0.69534902  1
  O  O9  1  0.79649830  0.82881222  0.19650357  1
  O  O10  1  0.03228208  0.20409750  0.19677222  1
  O  O11  1  0.17219709  0.96878655  0.19683803  1
  O  O12  1  0.87945848  0.36472181  0.63699633  1
  O  O13  1  0.48767996  0.11469279  0.63677390  1
  O  O14  1  0.62654686  0.49805056  0.64327036  1
  O  O15  1  0.87621058  0.51458501  0.13864388  1
  O  O16  1  0.63632917  0.12138926  0.13782466  1
  O  O17  1  0.48575242  0.36143063  0.13840913  1
  O  O18  1  0.45701951  0.30266487  0.03057445  1
  O  O19  1  0.84592076  0.54572192  0.03086203  1
  O  O20  1  0.70002976  0.15647459  0.03021715  1
  O  O21  1  0.46537605  0.15896053  0.52878677  1
  O  O22  1  0.69814950  0.52640123  0.52470469  1
  O  O23  1  0.84105609  0.30170808  0.52876589  1
  O  O24  1  0.53896251  0.69710284  0.97083869  1
  O  O25  1  0.17109494  0.47005800  0.97522246  1
  O  O26  1  0.30589496  0.82946326  0.97481582  1
  O  O27  1  0.52773963  0.84073602  0.46995073  1
  O  O28  1  0.31082981  0.46912008  0.47013153  1
  O  O29  1  0.15508414  0.68615323  0.46989709  1
  O  O30  1  0.13403975  0.63753336  0.36179927  1
  O  O31  1  0.50233364  0.86508914  0.36225450  1
  O  O32  1  0.36535371  0.49657707  0.36225524  1
  O  O33  1  0.14231133  0.50713671  0.85709863  1
  O  O34  1  0.37175231  0.86293480  0.85661960  1
  O  O35  1  0.50765401  0.63257168  0.86230767  1
  O  O36  1  0.02394989  0.81843037  0.40898558  1
  O  O37  1  0.79137320  0.96934242  0.40944238  1
  O  O38  1  0.17740701  0.20593324  0.40974113  1
  O  O39  1  0.01707488  0.18393042  0.90620023  1
  O  O40  1  0.15653008  0.96780325  0.90589783  1
  O  O41  1  0.79715707  0.82392692  0.90799370  1
  O  O42  1  0.97984117  0.17666665  0.58971062  1
  O  O43  1  0.20105964  0.03059234  0.59027427  1
  O  O44  1  0.84191860  0.81981721  0.59309680  1
  O  O45  1  0.97691196  0.80693987  0.09370973  1
  O  O46  1  0.83233363  0.02751037  0.09332351  1
  O  O47  1  0.19543681  0.17141236  0.09394449  1
  O  O48  1  0.69545926  0.15532662  0.74208647  1
  O  O49  1  0.45826394  0.29637791  0.74636561  1
  O  O50  1  0.84723799  0.53564520  0.74413180  1
  O  O51  1  0.68522152  0.53492618  0.24144123  1
  O  O52  1  0.84942845  0.31419220  0.24116326  1
  O  O53  1  0.46535257  0.15056328  0.24121508  1
  O  O54  1  0.63712599  0.50744965  0.92640021  1
  O  O55  1  0.85547084  0.36714963  0.92832021  1
  O  O56  1  0.50216803  0.14755829  0.92820806  1
  O  O57  1  0.62960478  0.12897280  0.42421065  1
  O  O58  1  0.49712035  0.36552176  0.42392136  1
  O  O59  1  0.87038340  0.49608051  0.42288287  1
  O  O60  1  0.35424842  0.49064923  0.07634839  1
  O  O61  1  0.13740117  0.64836188  0.07709835  1
  O  O62  1  0.51581780  0.86077019  0.07503814  1
  O  O63  1  0.34848868  0.86312572  0.57125151  1
  O  O64  1  0.50062966  0.65301092  0.56916990  1
  O  O65  1  0.13444817  0.49270319  0.57167221  1
  O  O66  1  0.30095047  0.83286282  0.25830279  1
  O  O67  1  0.53189709  0.69944483  0.25833414  1
  O  O68  1  0.16797786  0.46844271  0.25835099  1
  O  O69  1  0.30378660  0.46499539  0.75734179  1
  O  O70  1  0.16859034  0.70595664  0.75439440  1
  O  O71  1  0.53831633  0.83146226  0.75535766  1
loop_
_geom_bond_atom_site_label_1
_geom_bond_atom_site_label_2
_geom_bond_distance
_geom_bond_site_symmetry_2
Mg0 O36 2.037634 1_655
Mg0 O37 2.038430 1_555
Mg0 O2 2.043298 1_565
Mg0 O38 2.047012 1_665
Mg0 O0 2.050251 1_665
Mg0 O1 2.051854 1_555
Mg1 O14 1.910116 1_555
Mg1 O49 2.037766 1_555
Mg1 O48 2.054259 1_555
Mg1 O50 2.057729 1_555
Mg1 O13 2.117786 1_555
Mg1 O12 2.127500 1_555
Mg2 O53 2.026146 1_555
Mg2 O15 2.032236 1_555
Mg2 O17 2.033106 1_555
Mg2 O52 2.044981 1_555
Mg2 O51 2.049769 1_555
Mg2 O16 2.052464 1_555
O0 S0 1.448176 1_555
O1 S1 1.446871 1_555
O2 S2 1.447496 1_555
O3 S3 1.505958 1_555
O3 Ti0 1.943923 1_555
O4 S4 1.470303 1_555
O4 Ti0 2.108225 1_665
O5 S5 1.472929 1_545
O5 Ti0 2.089309 1_655
O6 S5 1.519817 1_555
O6 Ti1 1.940870 1_555
O7 S3 1.486343 1_555
O7 Ti1 2.087234 1_445
O8 S4 1.504584 1_455
O8 Ti1 1.987773 1_455
O9 S1 1.506322 1_555
O9 Ti2 2.011681 1_665
O10 S2 1.511737 1_455
O10 Ti2 1.998208 1_555
O11 S0 1.504391 1_565
O11 Ti2 2.023554 1_565
O12 S6 1.447139 1_555
O13 S7 1.448197 1_555
O14 Si0 1.548151 1_555
O15 S8 1.449982 1_555
O16 S9 1.452952 1_555
O17 S10 1.451862 1_555
O18 S10 1.475692 1_555
O18 Ti3 2.146184 1_554
O19 S8 1.471760 1_555
O19 Ti3 2.194182 1_554
O20 S9 1.484039 1_555
O20 Ti3 2.104086 1_554
O21 S7 1.495084 1_555
O21 Ti4 2.039066 1_555
O22 Si0 1.688736 1_555
O22 Ti4 1.753931 1_555
O23 S6 1.500097 1_555
O23 Ti4 2.040271 1_555
O24 S11 1.484477 1_555
O24 Ti5 2.044715 1_556
O25 Si1 1.633849 1_555
O25 Ti5 1.795625 1_556
O26 Si2 1.630647 1_555
O26 Ti5 1.790840 1_556
O27 S12 1.489510 1_555
O27 Ti6 1.970965 1_555
O28 S13 1.480439 1_555
O28 Ti6 2.026372 1_555
O29 S14 1.466389 1_555
O29 Ti6 2.093385 1_555
O30 S14 1.501230 1_555
O30 Ti7 2.016286 1_555
O31 S12 1.509239 1_555
O31 Ti7 2.001257 1_555
O32 S13 1.496330 1_555
O32 Ti7 2.036432 1_555
O33 Si1 1.623933 1_555
O33 Ti8 1.812088 1_555
O34 Si2 1.626120 1_555
O34 Ti8 1.816634 1_555
O35 S11 1.469281 1_555
O35 Ti8 2.127175 1_555
O36 S14 1.450024 1_555
O37 S12 1.451323 1_555
O38 S13 1.449693 1_555
O39 Si1 1.615327 1_555
O39 Ti0 1.798335 1_555
O40 Si2 1.614433 1_555
O40 Ti0 1.806166 1_565
O41 S11 1.468823 1_555
O41 Ti0 2.036351 1_665
O42 S6 1.486779 1_555
O42 Ti1 2.016956 1_545
O43 S7 1.482960 1_555
O43 Ti1 2.036299 1_445
O44 Si0 1.649035 1_555
O44 Ti1 1.787928 1_555
O45 S8 1.521722 1_555
O45 Ti2 1.962801 1_665
O46 S9 1.527450 1_555
O46 Ti2 1.944360 1_655
O47 S10 1.529789 1_555
O47 Ti2 1.934635 1_555
O48 S5 1.449217 1_545
O49 S3 1.447888 1_555
O50 S4 1.445086 1_555
O51 S1 1.446276 1_555
O52 S2 1.447027 1_555
O53 S0 1.445794 1_555
O54 S11 1.486184 1_555
O54 Ti3 1.963098 1_555
O55 Si1 1.624398 1_655
O55 Ti3 1.783161 1_555
O56 Si2 1.628577 1_545
O56 Ti3 1.778739 1_555
O57 S12 1.470834 1_545
O57 Ti4 2.141834 1_555
O58 S13 1.498211 1_555
O58 Ti4 2.004824 1_555
O59 S14 1.507538 1_655
O59 Ti4 1.980515 1_555
O60 S10 1.473209 1_555
O60 Ti5 2.096343 1_555
O61 S8 1.492662 1_455
O61 Ti5 2.010889 1_555
O62 S9 1.471904 1_565
O62 Ti5 2.123704 1_555
O63 S7 1.499174 1_565
O63 Ti6 1.945840 1_555
O64 Si0 1.653667 1_555
O64 Ti6 1.753487 1_555
O65 S6 1.493256 1_455
O65 Ti6 1.963840 1_555
O66 S0 1.528041 1_565
O66 Ti7 1.927983 1_555
O67 S1 1.528040 1_555
O67 Ti7 1.925485 1_555
O68 S2 1.522454 1_455
O68 Ti7 1.953655 1_555
O69 S3 1.480886 1_555
O69 Ti8 2.076676 1_555
O70 S4 1.507238 1_455
O70 Ti8 1.963330 1_555
O71 S5 1.481471 1_555
O71 Ti8 2.072752 1_555
