# generated using pymatgen
data_Tb5Mg(MoO6)2
_symmetry_space_group_name_H-M   'P 1'
_cell_length_a   6.10545245
_cell_length_b   7.17361669
_cell_length_c   7.64687517
_cell_angle_alpha   106.76900162
_cell_angle_beta   86.70981763
_cell_angle_gamma   119.17525416
_symmetry_Int_Tables_number   1
_chemical_formula_structural   Tb5Mg(MoO6)2
_chemical_formula_sum   'Tb5 Mg1 Mo2 O12'
_cell_volume   278.60176273
_cell_formula_units_Z   1
loop_
 _symmetry_equiv_pos_site_id
 _symmetry_equiv_pos_as_xyz
  1  'x, y, z'
loop_
 _atom_site_type_symbol
 _atom_site_label
 _atom_site_symmetry_multiplicity
 _atom_site_fract_x
 _atom_site_fract_y
 _atom_site_fract_z
 _atom_site_occupancy
  Tb  Tb0  1  0.31454000  0.60275900  0.66514800  1
  Tb  Tb1  1  0.68448300  0.36543300  0.35941600  1
  Tb  Tb2  1  0.32127000  0.61686400  0.18000000  1
  Tb  Tb3  1  0.65525300  0.34824500  0.79259900  1
  Tb  Tb4  1  0.97324400  0.00545900  0.51391500  1
  Mg  Mg0  1  0.85824800  0.66593700  0.14036000  1
  Mo  Mo0  1  0.76987200  0.00686100  0.99659900  1
  Mo  Mo1  1  0.26182500  0.00882500  0.00165800  1
  O  O0  1  0.93171600  0.33324200  0.11095400  1
  O  O1  1  0.50860200  0.37719200  0.09729000  1
  O  O2  1  0.05668600  0.64737100  0.92345100  1
  O  O3  1  0.56043300  0.65785400  0.91567800  1
  O  O4  1  0.03710500  0.70450400  0.37600400  1
  O  O5  1  0.56349000  0.69436800  0.43536200  1
  O  O6  1  0.90597800  0.31715000  0.56607000  1
  O  O7  1  0.39438600  0.30376500  0.57427500  1
  O  O8  1  0.98337000  0.98961500  0.19698800  1
  O  O9  1  0.01952300  0.01486400  0.81132300  1
  O  O10  1  0.50088600  0.99090000  0.18530400  1
  O  O11  1  0.52200700  0.99693800  0.80046100  1
loop_
_geom_bond_atom_site_label_1
_geom_bond_atom_site_label_2
_geom_bond_distance
_geom_bond_site_symmetry_2
Mg0 O8 1.972540 1_555
Mg0 O2 2.008976 1_654
Mg0 O4 2.039521 1_655
Mg0 O1 2.081357 1_555
Mg0 O3 2.541613 1_554
Mg0 O0 2.582680 1_555
Mo0 O0 1.971059 1_556
Mo0 O9 2.011862 1_655
Mo0 O3 2.088497 1_545
Mo0 O10 2.105336 1_546
Mo0 O8 2.135044 1_546
Mo0 O11 2.153755 1_545
Mo1 O10 2.154406 1_545
Mo1 O9 2.157499 1_554
Mo1 O11 2.161849 1_544
Mo1 O2 2.162073 1_544
Mo1 O8 2.176973 1_445
Mo1 O1 2.217529 1_555
O0 Tb2 2.209409 1_655
O0 Tb1 2.387288 1_555
O1 Tb1 2.368751 1_555
O1 Tb2 2.423004 1_555
O1 Tb3 2.436398 1_554
O2 Tb3 2.351122 1_455
O2 Tb0 2.500373 1_555
O2 Tb2 2.731713 1_556
O3 Tb0 2.322710 1_555
O3 Tb2 2.426849 1_556
O3 Tb3 2.477645 1_555
O4 Tb1 2.305488 1_455
O4 Tb4 2.320541 1_465
O4 Tb2 2.423431 1_555
O5 Tb2 2.283122 1_555
O5 Tb0 2.283763 1_555
O5 Tb4 2.357012 1_565
O5 Tb1 2.703781 1_555
O6 Tb3 2.280198 1_555
O6 Tb0 2.309223 1_655
O6 Tb1 2.337472 1_555
O6 Tb4 2.385190 1_555
O7 Tb3 2.219934 1_555
O7 Tb1 2.313797 1_555
O7 Tb0 2.332704 1_555
O7 Tb4 2.367584 1_455
O8 Tb4 2.391821 1_565
O9 Tb4 2.285432 1_455
O10 Tb1 2.327812 1_565
O10 Tb2 2.340354 1_555
O11 Tb3 2.258205 1_565
O11 Tb0 2.375075 1_555
