# generated using pymatgen
data_Cs2Ce2Mg(CuS3)2
_symmetry_space_group_name_H-M   'P 1'
_cell_length_a   4.03693087
_cell_length_b   8.69469307
_cell_length_c   10.74703800
_cell_angle_alpha   90.00000000
_cell_angle_beta   90.00000000
_cell_angle_gamma   103.91100668
_symmetry_Int_Tables_number   1
_chemical_formula_structural   Cs2Ce2Mg(CuS3)2
_chemical_formula_sum   'Cs2 Ce2 Mg1 Cu2 S6'
_cell_volume   366.15595408
_cell_formula_units_Z   1
loop_
 _symmetry_equiv_pos_site_id
 _symmetry_equiv_pos_as_xyz
  1  'x, y, z'
loop_
 _atom_site_type_symbol
 _atom_site_label
 _atom_site_symmetry_multiplicity
 _atom_site_fract_x
 _atom_site_fract_y
 _atom_site_fract_z
 _atom_site_occupancy
  Cs  Cs0  1  0.29186600  0.59560300  0.75000000  1
  Cs  Cs1  1  0.74348200  0.48804200  0.25000000  1
  Ce  Ce0  1  0.99564500  0.98853500  0.48708500  1
  Ce  Ce1  1  0.99564500  0.98853500  0.01291500  1
  Mg  Mg0  1  0.11031900  0.21090800  0.75000000  1
  Cu  Cu0  1  0.46627500  0.93258100  0.25000000  1
  Cu  Cu1  1  0.51097200  0.01918100  0.75000000  1
  S  S0  1  0.94549700  0.89307100  0.75000000  1
  S  S1  1  0.38548400  0.77762600  0.06962300  1
  S  S2  1  0.05440800  0.10471300  0.25000000  1
  S  S3  1  0.61579500  0.22429100  0.91009100  1
  S  S4  1  0.38548400  0.77762600  0.43037700  1
  S  S5  1  0.61579500  0.22429100  0.58990900  1
loop_
_geom_bond_atom_site_label_1
_geom_bond_atom_site_label_2
_geom_bond_distance
_geom_bond_site_symmetry_2
Cs0 S0 3.220326 1_555
Cs0 S0 3.222342 1_455
Cs0 Mg0 3.247485 1_555
Cs0 S4 3.762871 1_555
Cs0 S1 3.762871 1_556
Cs1 S4 3.698205 1_655
Cs1 S1 3.698205 1_655
Cs1 S4 3.733053 1_555
Cs1 S1 3.733053 1_555
Cs1 S2 3.793227 1_555
Cs1 S2 3.833461 1_655
Ce0 S2 2.730115 1_665
Ce0 S4 2.756545 1_655
Ce0 S4 2.762167 1_555
Ce0 S0 2.938182 1_555
Ce0 S5 3.036933 1_665
Ce0 S5 3.047245 1_565
Ce1 S2 2.730115 1_665
Ce1 S1 2.756545 1_655
Ce1 S1 2.762167 1_555
Ce1 S0 2.938182 1_554
Ce1 S3 3.036933 1_664
Ce1 S3 3.047245 1_564
Mg0 S3 2.650177 1_555
Mg0 S5 2.650177 1_555
Mg0 S3 2.659101 1_455
Mg0 S5 2.659101 1_455
Mg0 S0 2.682443 1_445
Cu0 S4 2.338402 1_555
Cu0 S1 2.338402 1_555
Cu0 S2 2.483630 1_665
Cu0 S2 2.490165 1_565
Cu1 S0 2.281260 1_545
Cu1 S0 2.282509 1_445
Cu1 S3 2.440644 1_555
Cu1 S5 2.440644 1_555
Cu1 Mg0 2.586764 1_555
Cu1 Mg0 2.587208 1_655
