# generated using pymatgen
data_Na3NbInSi2PO12
_symmetry_space_group_name_H-M   'P 1'
_cell_length_a   15.87917283
_cell_length_b   27.43804890
_cell_length_c   9.07643530
_cell_angle_alpha   90.00000000
_cell_angle_beta   125.25417757
_cell_angle_gamma   90.00000000
_symmetry_Int_Tables_number   1
_chemical_formula_structural   Na3NbInSi2PO12
_chemical_formula_sum   'Na36 Nb12 In12 Si24 P12 O144'
_cell_volume   3229.27858344
_cell_formula_units_Z   12
loop_
 _symmetry_equiv_pos_site_id
 _symmetry_equiv_pos_as_xyz
  1  'x, y, z'
loop_
 _atom_site_type_symbol
 _atom_site_label
 _atom_site_symmetry_multiplicity
 _atom_site_fract_x
 _atom_site_fract_y
 _atom_site_fract_z
 _atom_site_occupancy
  Na  Na0  1  0.25296522  0.25539774  0.00688208  1
  Na  Na1  1  0.24542990  0.58778001  0.01572357  1
  Na  Na2  1  0.24751706  0.91903326  0.01673595  1
  Na  Na3  1  0.75296522  0.24460226  0.50688208  1
  Na  Na4  1  0.74751706  0.58096674  0.51673595  1
  Na  Na5  1  0.74542990  0.91221999  0.51572357  1
  Na  Na6  1  0.74542990  0.08778001  0.01572357  1
  Na  Na7  1  0.74751706  0.41903326  0.01673595  1
  Na  Na8  1  0.75296522  0.75539774  0.00688208  1
  Na  Na9  1  0.24751706  0.08096674  0.51673595  1
  Na  Na10  1  0.24542990  0.41221999  0.51572357  1
  Na  Na11  1  0.25296522  0.74460226  0.50688208  1
  Na  Na12  1  0.49404164  0.03449353  0.75238975  1
  Na  Na13  1  0.49649128  0.36895170  0.75839468  1
  Na  Na14  1  0.49361135  0.70144605  0.74983153  1
  Na  Na15  1  0.49361135  0.29855395  0.24983153  1
  Na  Na16  1  0.49649128  0.63104830  0.25839468  1
  Na  Na17  1  0.49404164  0.96550647  0.25238975  1
  Na  Na18  1  0.99361135  0.20144605  0.74983153  1
  Na  Na19  1  0.99404164  0.53449353  0.75238975  1
  Na  Na20  1  0.99649128  0.86895170  0.75839468  1
  Na  Na21  1  0.99649128  0.13104830  0.25839468  1
  Na  Na22  1  0.99404164  0.46550647  0.25238975  1
  Na  Na23  1  0.99361135  0.79855395  0.24983153  1
  Na  Na24  1  0.81843304  0.64447695  0.20541104  1
  Na  Na25  1  0.81781795  0.97781549  0.21051833  1
  Na  Na26  1  0.19356246  0.30798002  0.28396097  1
  Na  Na27  1  0.19356246  0.69201998  0.78396097  1
  Na  Na28  1  0.81781795  0.02218451  0.71051833  1
  Na  Na29  1  0.81843304  0.35552305  0.70541104  1
  Na  Na30  1  0.31843304  0.14447695  0.20541104  1
  Na  Na31  1  0.31781795  0.47781549  0.21051833  1
  Na  Na32  1  0.69356246  0.80798002  0.28396097  1
  Na  Na33  1  0.69356246  0.19201998  0.78396097  1
  Na  Na34  1  0.31781795  0.52218451  0.71051833  1
  Na  Na35  1  0.31843304  0.85552305  0.70541104  1
  Nb  Nb0  1  0.10708281  0.24745276  0.56612128  1
  Nb  Nb1  1  0.10507614  0.58240960  0.56601909  1
  Nb  Nb2  1  0.10629354  0.91677348  0.56515988  1
  Nb  Nb3  1  0.10629354  0.08322652  0.06515988  1
  Nb  Nb4  1  0.10507614  0.41759040  0.06601909  1
  Nb  Nb5  1  0.10708281  0.75254724  0.06612128  1
  Nb  Nb6  1  0.60507614  0.08240960  0.56601909  1
  Nb  Nb7  1  0.60629354  0.41677348  0.56515988  1
  Nb  Nb8  1  0.60708281  0.74745276  0.56612128  1
  Nb  Nb9  1  0.60708281  0.25254724  0.06612128  1
  Nb  Nb10  1  0.60629354  0.58322652  0.06515988  1
  Nb  Nb11  1  0.60507614  0.91759040  0.06601909  1
  In  In0  1  0.90070162  0.25114611  0.94828659  1
  In  In1  1  0.89609735  0.58343555  0.93691421  1
  In  In2  1  0.89564663  0.91489795  0.93972460  1
  In  In3  1  0.89564663  0.08510205  0.43972460  1
  In  In4  1  0.89609735  0.41656445  0.43691421  1
  In  In5  1  0.90070162  0.74885389  0.44828659  1
  In  In6  1  0.39609735  0.08343555  0.93691421  1
  In  In7  1  0.39564663  0.41489795  0.93972460  1
  In  In8  1  0.40070162  0.75114611  0.94828659  1
  In  In9  1  0.40070162  0.24885389  0.44828659  1
  In  In10  1  0.39564663  0.58510205  0.43972460  1
  In  In11  1  0.39609735  0.91656445  0.43691421  1
  Si  Si0  1  0.34860719  0.29724360  0.74752370  1
  Si  Si1  1  0.35145112  0.63068620  0.75762153  1
  Si  Si2  1  0.35048355  0.96406101  0.75311777  1
  Si  Si3  1  0.64696462  0.30129213  0.74201016  1
  Si  Si4  1  0.64657309  0.63253794  0.74001241  1
  Si  Si5  1  0.64689040  0.96670770  0.74159160  1
  Si  Si6  1  0.64689040  0.03329230  0.24159160  1
  Si  Si7  1  0.64657309  0.36746206  0.24001241  1
  Si  Si8  1  0.64696462  0.69870787  0.24201016  1
  Si  Si9  1  0.35048355  0.03593899  0.25311777  1
  Si  Si10  1  0.35145112  0.36931380  0.25762153  1
  Si  Si11  1  0.34860719  0.70275640  0.24752370  1
  Si  Si12  1  0.85145112  0.13068620  0.75762153  1
  Si  Si13  1  0.85048355  0.46406101  0.75311777  1
  Si  Si14  1  0.84860719  0.79724360  0.74752370  1
  Si  Si15  1  0.14657309  0.13253794  0.74001241  1
  Si  Si16  1  0.14689040  0.46670770  0.74159160  1
  Si  Si17  1  0.14696462  0.80129213  0.74201016  1
  Si  Si18  1  0.14696462  0.19870787  0.24201016  1
  Si  Si19  1  0.14689040  0.53329230  0.24159160  1
  Si  Si20  1  0.14657309  0.86746206  0.24001241  1
  Si  Si21  1  0.84860719  0.20275640  0.24752370  1
  Si  Si22  1  0.85048355  0.53593899  0.25311777  1
  Si  Si23  1  0.85145112  0.86931380  0.25762153  1
  P  P0  1  0.00699604  0.31891849  0.75301188  1
  P  P1  1  0.00216909  0.65240576  0.74628683  1
  P  P2  1  0.00390342  0.98629956  0.74555729  1
  P  P3  1  0.00390342  0.01370044  0.24555729  1
  P  P4  1  0.00216909  0.34759424  0.24628683  1
  P  P5  1  0.00699604  0.68108151  0.25301188  1
  P  P6  1  0.50216909  0.15240576  0.74628683  1
  P  P7  1  0.50390342  0.48629956  0.74555729  1
  P  P8  1  0.50699604  0.81891849  0.75301188  1
  P  P9  1  0.50699604  0.18108151  0.25301188  1
  P  P10  1  0.50390342  0.51370044  0.24555729  1
  P  P11  1  0.50216909  0.84759424  0.24628683  1
  O  O0  1  0.14402442  0.19414760  0.74331072  1
  O  O1  1  0.14623751  0.52839794  0.74797492  1
  O  O2  1  0.14594139  0.86188817  0.74488163  1
  O  O3  1  0.84125220  0.18971648  0.75408951  1
  O  O4  1  0.84627835  0.52259046  0.75235219  1
  O  O5  1  0.84252216  0.85641509  0.74972430  1
  O  O6  1  0.84252216  0.14358491  0.24972430  1
  O  O7  1  0.84627835  0.47740954  0.25235219  1
  O  O8  1  0.84125220  0.81028352  0.25408951  1
  O  O9  1  0.14594139  0.13811183  0.24488163  1
  O  O10  1  0.14623751  0.47160206  0.24797492  1
  O  O11  1  0.14402442  0.80585240  0.24331072  1
  O  O12  1  0.64623751  0.02839794  0.74797492  1
  O  O13  1  0.64594139  0.36188817  0.74488163  1
  O  O14  1  0.64402442  0.69414760  0.74331072  1
  O  O15  1  0.34627835  0.02259046  0.75235219  1
  O  O16  1  0.34252216  0.35641509  0.74972430  1
  O  O17  1  0.34125220  0.68971648  0.75408951  1
  O  O18  1  0.34125220  0.31028352  0.25408951  1
  O  O19  1  0.34252216  0.64358491  0.24972430  1
  O  O20  1  0.34627835  0.97740954  0.25235219  1
  O  O21  1  0.64402442  0.30585240  0.24331072  1
  O  O22  1  0.64594139  0.63811183  0.24488163  1
  O  O23  1  0.64623751  0.97160206  0.24797492  1
  O  O24  1  0.43788540  0.17825565  0.56475612  1
  O  O25  1  0.43649925  0.51474835  0.57070300  1
  O  O26  1  0.44150617  0.85022013  0.58654003  1
  O  O27  1  0.56133428  0.18944061  0.90591562  1
  O  O28  1  0.56151806  0.52261620  0.91107956  1
  O  O29  1  0.56941550  0.85248446  0.92760247  1
  O  O30  1  0.56941550  0.14751554  0.42760247  1
  O  O31  1  0.56151806  0.47738380  0.41107956  1
  O  O32  1  0.56133428  0.81055939  0.40591562  1
  O  O33  1  0.44150617  0.14977987  0.08654003  1
  O  O34  1  0.43649925  0.48525165  0.07070300  1
  O  O35  1  0.43788540  0.82174435  0.06475612  1
  O  O36  1  0.93649925  0.01474835  0.57070300  1
  O  O37  1  0.94150617  0.35022013  0.58654003  1
  O  O38  1  0.93788540  0.67825565  0.56475612  1
  O  O39  1  0.06151806  0.02261620  0.91107956  1
  O  O40  1  0.06941550  0.35248446  0.92760247  1
  O  O41  1  0.06133428  0.68944061  0.90591562  1
  O  O42  1  0.06133428  0.31055939  0.40591562  1
  O  O43  1  0.06941550  0.64751554  0.42760247  1
  O  O44  1  0.06151806  0.97738380  0.41107956  1
  O  O45  1  0.93788540  0.32174435  0.06475612  1
  O  O46  1  0.94150617  0.64977987  0.08654003  1
  O  O47  1  0.93649925  0.98525165  0.07070300  1
  O  O48  1  0.24997458  0.27218064  0.73665391  1
  O  O49  1  0.25408358  0.60529435  0.75212217  1
  O  O50  1  0.25390419  0.93707943  0.74547632  1
  O  O51  1  0.74778995  0.28272441  0.75443703  1
  O  O52  1  0.74714305  0.61459256  0.75671040  1
  O  O53  1  0.75005219  0.95245879  0.75599711  1
  O  O54  1  0.75005219  0.04754121  0.25599711  1
  O  O55  1  0.74714305  0.38540744  0.25671040  1
  O  O56  1  0.74778995  0.71727559  0.25443703  1
  O  O57  1  0.25390419  0.06292057  0.24547632  1
  O  O58  1  0.25408358  0.39470565  0.25212217  1
  O  O59  1  0.24997458  0.72781936  0.23665391  1
  O  O60  1  0.75408358  0.10529435  0.75212217  1
  O  O61  1  0.75390419  0.43707943  0.74547632  1
  O  O62  1  0.74997458  0.77218064  0.73665391  1
  O  O63  1  0.24714305  0.11459256  0.75671040  1
  O  O64  1  0.25005219  0.45245879  0.75599711  1
  O  O65  1  0.24778995  0.78272441  0.75443703  1
  O  O66  1  0.24778995  0.21727559  0.25443703  1
  O  O67  1  0.25005219  0.54754121  0.25599711  1
  O  O68  1  0.24714305  0.88540744  0.25671040  1
  O  O69  1  0.74997458  0.22781936  0.23665391  1
  O  O70  1  0.75390419  0.56292057  0.24547632  1
  O  O71  1  0.75408358  0.89470565  0.25212217  1
  O  O72  1  0.33902140  0.28445656  0.56508826  1
  O  O73  1  0.34456865  0.61163676  0.58526572  1
  O  O74  1  0.34904625  0.94371827  0.58825090  1
  O  O75  1  0.63750395  0.28438216  0.91149694  1
  O  O76  1  0.63895388  0.61797316  0.91673394  1
  O  O77  1  0.64191518  0.95065805  0.91963720  1
  O  O78  1  0.64191518  0.04934195  0.41963720  1
  O  O79  1  0.63895388  0.38202684  0.41673394  1
  O  O80  1  0.63750395  0.71561784  0.41149694  1
  O  O81  1  0.34904625  0.05628173  0.08825090  1
  O  O82  1  0.34456865  0.38836324  0.08526572  1
  O  O83  1  0.33902140  0.71554344  0.06508826  1
  O  O84  1  0.84456865  0.11163676  0.58526572  1
  O  O85  1  0.84904625  0.44371827  0.58825090  1
  O  O86  1  0.83902140  0.78445656  0.56508826  1
  O  O87  1  0.13895388  0.11797316  0.91673394  1
  O  O88  1  0.14191518  0.45065805  0.91963720  1
  O  O89  1  0.13750395  0.78438216  0.91149694  1
  O  O90  1  0.13750395  0.21561784  0.41149694  1
  O  O91  1  0.14191518  0.54934195  0.41963720  1
  O  O92  1  0.13895388  0.88202684  0.41673394  1
  O  O93  1  0.83902140  0.21554344  0.06508826  1
  O  O94  1  0.84904625  0.55628173  0.08825090  1
  O  O95  1  0.84456865  0.88836324  0.08526572  1
  O  O96  1  0.46014666  0.27533587  0.92710318  1
  O  O97  1  0.46179155  0.60854555  0.94154714  1
  O  O98  1  0.46263847  0.94069706  0.93942501  1
  O  O99  1  0.54620943  0.28027499  0.55814932  1
  O  O100  1  0.54160754  0.61596039  0.55503982  1
  O  O101  1  0.54408444  0.94884209  0.55746511  1
  O  O102  1  0.54408444  0.05115791  0.05746511  1
  O  O103  1  0.54160754  0.38403961  0.05503982  1
  O  O104  1  0.54620943  0.71972501  0.05814932  1
  O  O105  1  0.46263847  0.05930294  0.43942501  1
  O  O106  1  0.46179155  0.39145445  0.44154714  1
  O  O107  1  0.46014666  0.72466413  0.42710318  1
  O  O108  1  0.96179155  0.10854555  0.94154714  1
  O  O109  1  0.96263847  0.44069706  0.93942501  1
  O  O110  1  0.96014666  0.77533587  0.92710318  1
  O  O111  1  0.04160754  0.11596039  0.55503982  1
  O  O112  1  0.04408444  0.44884209  0.55746511  1
  O  O113  1  0.04620943  0.78027499  0.55814932  1
  O  O114  1  0.04620943  0.21972501  0.05814932  1
  O  O115  1  0.04408444  0.55115791  0.05746511  1
  O  O116  1  0.04160754  0.88403961  0.05503982  1
  O  O117  1  0.96014666  0.22466413  0.42710318  1
  O  O118  1  0.96263847  0.55930294  0.43942501  1
  O  O119  1  0.96179155  0.89145445  0.44154714  1
  O  O120  1  0.08624681  0.28668866  0.74934621  1
  O  O121  1  0.09062080  0.62322167  0.75255079  1
  O  O122  1  0.08697787  0.95521316  0.74895276  1
  O  O123  1  0.93116116  0.28480443  0.75924115  1
  O  O124  1  0.93450918  0.61485430  0.75766095  1
  O  O125  1  0.93082807  0.95220826  0.75791187  1
  O  O126  1  0.93082807  0.04779174  0.25791187  1
  O  O127  1  0.93450918  0.38514570  0.25766095  1
  O  O128  1  0.93116116  0.71519557  0.25924115  1
  O  O129  1  0.08697787  0.04478684  0.24895276  1
  O  O130  1  0.09062080  0.37677833  0.25255079  1
  O  O131  1  0.08624681  0.71331134  0.24934621  1
  O  O132  1  0.59062080  0.12322167  0.75255079  1
  O  O133  1  0.58697787  0.45521316  0.74895276  1
  O  O134  1  0.58624681  0.78668866  0.74934621  1
  O  O135  1  0.43450918  0.11485430  0.75766095  1
  O  O136  1  0.43082807  0.45220826  0.75791187  1
  O  O137  1  0.43116116  0.78480443  0.75924115  1
  O  O138  1  0.43116116  0.21519557  0.25924115  1
  O  O139  1  0.43082807  0.54779174  0.25791187  1
  O  O140  1  0.43450918  0.88514570  0.25766095  1
  O  O141  1  0.58624681  0.21331134  0.24934621  1
  O  O142  1  0.58697787  0.54478684  0.24895276  1
  O  O143  1  0.59062080  0.87677833  0.25255079  1
loop_
_geom_bond_atom_site_label_1
_geom_bond_atom_site_label_2
_geom_bond_distance
_geom_bond_site_symmetry_2
Na0 O18 2.374127 1_555
Na0 O120 2.462888 1_554
Na0 O48 2.468932 1_554
Na0 O66 2.522431 1_555
Na0 O0 2.600485 1_554
Na0 O138 2.643458 1_555
Na1 O19 2.335013 1_555
Na1 O67 2.407403 1_555
Na1 O121 2.432230 1_554
Na1 O49 2.520655 1_554
Na1 O1 2.573455 1_554
Na1 O139 2.689277 1_555
Na2 O68 2.368625 1_555
Na2 O20 2.393057 1_555
Na2 O122 2.497757 1_554
Na2 O2 2.560084 1_554
Na2 O50 2.570120 1_554
Na2 O140 2.639578 1_555
Na3 O3 2.374127 1_555
Na3 O141 2.462888 1_555
Na3 O69 2.468932 1_555
Na3 O51 2.522431 1_555
Na3 O21 2.600485 1_555
Na3 O123 2.643458 1_555
Na4 O52 2.368625 1_555
Na4 O4 2.393057 1_555
Na4 O142 2.497757 1_555
Na4 O22 2.560084 1_555
Na4 O70 2.570120 1_555
Na4 O124 2.639578 1_555
Na5 O5 2.335013 1_555
Na5 O53 2.407403 1_555
Na5 O143 2.432230 1_555
Na5 O71 2.520655 1_555
Na5 O23 2.573455 1_555
Na5 O125 2.689277 1_555
Na6 O6 2.335013 1_555
Na6 O54 2.407403 1_555
Na6 O132 2.432230 1_554
Na6 O60 2.520655 1_554
Na6 O12 2.573455 1_554
Na6 O126 2.689277 1_555
Na7 O55 2.368625 1_555
Na7 O7 2.393057 1_555
Na7 O133 2.497757 1_554
Na7 O13 2.560084 1_554
Na7 O61 2.570120 1_554
Na7 O127 2.639578 1_555
Na8 O8 2.374127 1_555
Na8 O134 2.462888 1_554
Na8 O62 2.468932 1_554
Na8 O56 2.522431 1_555
Na8 O14 2.600485 1_554
Na8 O128 2.643458 1_555
Na9 O63 2.368625 1_555
Na9 O15 2.393057 1_555
Na9 O129 2.497757 1_555
Na9 O9 2.560084 1_555
Na9 O57 2.570120 1_555
Na9 O135 2.639578 1_555
Na10 O16 2.335013 1_555
Na10 O64 2.407403 1_555
Na10 O130 2.432230 1_555
Na10 O58 2.520655 1_555
Na10 O10 2.573455 1_555
Na10 O136 2.689277 1_555
Na11 O17 2.374127 1_555
Na11 O131 2.462888 1_555
Na11 O59 2.468932 1_555
Na11 O65 2.522431 1_555
Na11 O11 2.600485 1_555
Na11 O137 2.643458 1_555
Na12 O15 2.368785 1_555
Na12 O135 2.410376 1_555
Na12 O102 2.442899 1_556
Na12 O12 2.445818 1_555
Na12 O105 2.673176 1_555
Na13 O103 2.388999 1_556
Na13 O16 2.424861 1_555
Na13 O13 2.453656 1_555
Na13 O136 2.510058 1_555
Na13 O106 2.669464 1_555
Na13 O133 2.795711 1_555
Na13 O75 2.955879 1_555
Na14 O14 2.431340 1_555
Na14 O17 2.462966 1_555
Na14 O104 2.466198 1_556
Na14 O137 2.513900 1_555
Na14 O107 2.733433 1_555
Na14 O134 2.764358 1_555
Na14 O76 2.971684 1_555
Na15 O21 2.431340 1_555
Na15 O18 2.462966 1_555
Na15 O99 2.466198 1_555
Na15 O138 2.513900 1_555
Na15 O96 2.733433 1_554
Na15 O141 2.764358 1_555
Na15 O79 2.971684 1_555
Na16 O100 2.388999 1_555
Na16 O19 2.424861 1_555
Na16 O22 2.453656 1_555
Na16 O139 2.510058 1_555
Na16 O97 2.669464 1_554
Na16 O142 2.795711 1_555
Na16 O80 2.955879 1_555
Na17 O20 2.368785 1_555
Na17 O140 2.410376 1_555
Na17 O101 2.442899 1_555
Na17 O23 2.445818 1_555
Na17 O98 2.673176 1_554
Na18 O0 2.431340 1_655
Na18 O3 2.462966 1_555
Na18 O114 2.466198 1_656
Na18 O123 2.513900 1_555
Na18 O117 2.733433 1_555
Na18 O120 2.764358 1_655
Na18 O87 2.971684 1_655
Na19 O4 2.368785 1_555
Na19 O124 2.410376 1_555
Na19 O115 2.442899 1_656
Na19 O1 2.445818 1_655
Na19 O118 2.673176 1_555
Na20 O116 2.388999 1_656
Na20 O5 2.424861 1_555
Na20 O2 2.453656 1_655
Na20 O125 2.510058 1_555
Na20 O119 2.669464 1_555
Na20 O122 2.795711 1_655
Na20 O89 2.955879 1_655
Na21 O111 2.388999 1_655
Na21 O6 2.424861 1_555
Na21 O9 2.453656 1_655
Na21 O126 2.510058 1_555
Na21 O108 2.669464 1_554
Na21 O129 2.795711 1_655
Na21 O90 2.955879 1_655
Na22 O7 2.368785 1_555
Na22 O127 2.410376 1_555
Na22 O112 2.442899 1_655
Na22 O10 2.445818 1_655
Na22 O109 2.673176 1_554
Na23 O11 2.431340 1_655
Na23 O8 2.462966 1_555
Na23 O113 2.466198 1_655
Na23 O128 2.513900 1_555
Na23 O110 2.733433 1_554
Na23 O131 2.764358 1_655
Na23 O92 2.971684 1_655
Na24 O56 2.454056 1_555
Na24 O128 2.489653 1_555
Na24 O70 2.572907 1_555
Na24 O76 2.626028 1_554
Na24 O46 2.727390 1_555
Na24 O94 2.796392 1_555
Na24 O38 2.820087 1_555
Na25 O54 2.345458 1_565
Na25 O126 2.490104 1_565
Na25 O71 2.609235 1_555
Na25 O77 2.610451 1_554
Na25 O47 2.822137 1_555
Na25 O95 2.838026 1_555
Na25 O36 2.855485 1_565
Na25 O23 2.938902 1_555
Na26 O72 2.336393 1_555
Na26 O130 2.403890 1_555
Na26 O18 2.512260 1_555
Na26 O58 2.643879 1_555
Na26 O66 2.696952 1_555
Na26 O42 2.884775 1_555
Na26 O40 2.911750 1_554
Na27 O83 2.336393 1_556
Na27 O121 2.403890 1_555
Na27 O17 2.512260 1_555
Na27 O49 2.643879 1_555
Na27 O65 2.696952 1_555
Na27 O41 2.884775 1_555
Na27 O43 2.911750 1_555
Na28 O53 2.345458 1_545
Na28 O125 2.490104 1_545
Na28 O60 2.609235 1_555
Na28 O78 2.610451 1_555
Na28 O36 2.822137 1_555
Na28 O84 2.838026 1_555
Na28 O47 2.855485 1_546
Na28 O12 2.938902 1_555
Na29 O51 2.454056 1_555
Na29 O123 2.489653 1_555
Na29 O61 2.572907 1_555
Na29 O79 2.626028 1_555
Na29 O37 2.727390 1_555
Na29 O85 2.796392 1_555
Na29 O45 2.820087 1_556
Na30 O66 2.454056 1_555
Na30 O138 2.489653 1_555
Na30 O57 2.572907 1_555
Na30 O87 2.626028 1_554
Na30 O33 2.727390 1_555
Na30 O81 2.796392 1_555
Na30 O24 2.820087 1_555
Na31 O67 2.345458 1_555
Na31 O139 2.490104 1_555
Na31 O58 2.609235 1_555
Na31 O88 2.610451 1_554
Na31 O34 2.822137 1_555
Na31 O82 2.838026 1_555
Na31 O25 2.855485 1_555
Na31 O10 2.938902 1_555
Na32 O86 2.336393 1_555
Na32 O143 2.403890 1_555
Na32 O8 2.512260 1_555
Na32 O71 2.643879 1_555
Na32 O56 2.696952 1_555
Na32 O32 2.884775 1_555
Na32 O29 2.911750 1_554
Na33 O93 2.336393 1_556
Na33 O132 2.403890 1_555
Na33 O3 2.512260 1_555
Na33 O60 2.643879 1_555
Na33 O51 2.696952 1_555
Na33 O27 2.884775 1_555
Na33 O30 2.911750 1_555
Na34 O64 2.345458 1_555
Na34 O136 2.490104 1_555
Na34 O49 2.609235 1_555
Na34 O91 2.610451 1_555
Na34 O25 2.822137 1_555
Na34 O73 2.838026 1_555
Na34 O34 2.855485 1_556
Na34 O1 2.938902 1_555
Na35 O65 2.454056 1_555
Na35 O137 2.489653 1_555
Na35 O50 2.572907 1_555
Na35 O92 2.626028 1_555
Na35 O26 2.727390 1_555
Na35 O74 2.796392 1_555
Na35 O35 2.820087 1_556
Nb0 O90 1.936130 1_555
Nb0 O48 1.987504 1_555
Nb0 O0 1.995159 1_555
Nb0 O117 2.007086 1_455
Nb0 O42 2.102585 1_555
Nb0 O120 2.160855 1_555
Nb1 O91 1.956495 1_555
Nb1 O118 1.959025 1_455
Nb1 O1 2.026036 1_555
Nb1 O49 2.057219 1_555
Nb1 O43 2.066134 1_555
Nb1 O121 2.149806 1_555
Nb2 O92 1.949190 1_555
Nb2 O119 2.008615 1_455
Nb2 O50 2.013584 1_555
Nb2 O44 2.019683 1_555
Nb2 O2 2.034600 1_555
Nb2 O122 2.140092 1_555
Nb3 O87 1.949190 1_554
Nb3 O108 2.008615 1_454
Nb3 O57 2.013584 1_555
Nb3 O39 2.019683 1_554
Nb3 O9 2.034600 1_555
Nb3 O129 2.140092 1_555
Nb4 O88 1.956495 1_554
Nb4 O109 1.959025 1_454
Nb4 O10 2.026036 1_555
Nb4 O58 2.057219 1_555
Nb4 O40 2.066134 1_554
Nb4 O130 2.149806 1_555
Nb5 O89 1.936130 1_554
Nb5 O59 1.987504 1_555
Nb5 O11 1.995159 1_555
Nb5 O110 2.007086 1_454
Nb5 O41 2.102585 1_554
Nb5 O131 2.160855 1_555
Nb6 O78 1.956495 1_555
Nb6 O105 1.959025 1_555
Nb6 O12 2.026036 1_555
Nb6 O60 2.057219 1_555
Nb6 O30 2.066134 1_555
Nb6 O132 2.149806 1_555
Nb7 O79 1.949190 1_555
Nb7 O106 2.008615 1_555
Nb7 O61 2.013584 1_555
Nb7 O31 2.019683 1_555
Nb7 O13 2.034600 1_555
Nb7 O133 2.140092 1_555
Nb8 O80 1.936130 1_555
Nb8 O62 1.987504 1_555
Nb8 O14 1.995159 1_555
Nb8 O107 2.007086 1_555
Nb8 O32 2.102585 1_555
Nb8 O134 2.160855 1_555
Nb9 O75 1.936130 1_554
Nb9 O69 1.987504 1_555
Nb9 O21 1.995159 1_555
Nb9 O96 2.007086 1_554
Nb9 O27 2.102585 1_554
Nb9 O141 2.160855 1_555
Nb10 O76 1.949190 1_554
Nb10 O97 2.008615 1_554
Nb10 O70 2.013584 1_555
Nb10 O28 2.019683 1_554
Nb10 O22 2.034600 1_555
Nb10 O142 2.140092 1_555
Nb11 O77 1.956495 1_554
Nb11 O98 1.959025 1_554
Nb11 O23 2.026036 1_555
Nb11 O71 2.057219 1_555
Nb11 O29 2.066134 1_554
Nb11 O143 2.149806 1_555
In0 O93 2.058185 1_556
In0 O114 2.101541 1_656
In0 O45 2.120816 1_556
In0 O51 2.193246 1_555
In0 O3 2.217670 1_555
In0 O123 2.233620 1_555
In1 O94 2.045678 1_556
In1 O52 2.129446 1_555
In1 O115 2.129653 1_656
In1 O46 2.132494 1_556
In1 O4 2.165480 1_555
In1 O124 2.215372 1_555
In2 O95 2.042011 1_556
In2 O116 2.093762 1_656
In2 O5 2.140358 1_555
In2 O47 2.161054 1_556
In2 O53 2.176539 1_555
In2 O125 2.268819 1_555
In3 O84 2.042011 1_555
In3 O111 2.093762 1_655
In3 O6 2.140358 1_555
In3 O36 2.161054 1_555
In3 O54 2.176539 1_555
In3 O126 2.268819 1_555
In4 O85 2.045678 1_555
In4 O55 2.129446 1_555
In4 O112 2.129653 1_655
In4 O37 2.132494 1_555
In4 O7 2.165480 1_555
In4 O127 2.215372 1_555
In5 O86 2.058185 1_555
In5 O113 2.101541 1_655
In5 O38 2.120816 1_555
In5 O56 2.193246 1_555
In5 O8 2.217670 1_555
In5 O128 2.233620 1_555
In6 O81 2.045678 1_556
In6 O63 2.129446 1_555
In6 O102 2.129653 1_556
In6 O33 2.132494 1_556
In6 O15 2.165480 1_555
In6 O135 2.215372 1_555
In7 O82 2.042011 1_556
In7 O103 2.093762 1_556
In7 O16 2.140358 1_555
In7 O34 2.161054 1_556
In7 O64 2.176539 1_555
In7 O136 2.268819 1_555
In8 O83 2.058185 1_556
In8 O104 2.101541 1_556
In8 O35 2.120816 1_556
In8 O65 2.193246 1_555
In8 O17 2.217670 1_555
In8 O137 2.233620 1_555
In9 O72 2.058185 1_555
In9 O99 2.101541 1_555
In9 O24 2.120816 1_555
In9 O66 2.193246 1_555
In9 O18 2.217670 1_555
In9 O138 2.233620 1_555
In10 O73 2.042011 1_555
In10 O100 2.093762 1_555
In10 O19 2.140358 1_555
In10 O25 2.161054 1_555
In10 O67 2.176539 1_555
In10 O139 2.268819 1_555
In11 O74 2.045678 1_555
In11 O68 2.129446 1_555
In11 O101 2.129653 1_555
In11 O26 2.132494 1_555
In11 O20 2.165480 1_555
In11 O140 2.215372 1_555
O0 Si15 1.691612 1_555
O1 Si16 1.693888 1_555
O2 Si17 1.663068 1_555
O3 Si12 1.626226 1_555
O4 Si13 1.607170 1_555
O5 Si14 1.627230 1_555
O6 Si21 1.627230 1_555
O7 Si22 1.607170 1_555
O8 Si23 1.626226 1_555
O9 Si18 1.663068 1_555
O10 Si19 1.693888 1_555
O11 Si20 1.691612 1_555
O12 Si5 1.693888 1_545
O13 Si3 1.663068 1_555
O14 Si4 1.691612 1_555
O15 Si2 1.607170 1_545
O16 Si0 1.627230 1_555
O17 Si1 1.626226 1_555
O18 Si10 1.626226 1_555
O19 Si11 1.627230 1_555
O20 Si9 1.607170 1_565
O21 Si7 1.691612 1_555
O22 Si8 1.663068 1_555
O23 Si6 1.693888 1_565
O24 P6 1.522571 1_555
O25 P7 1.520752 1_555
O26 P8 1.512677 1_555
O27 P6 1.563028 1_555
O28 P7 1.581231 1_555
O29 P8 1.590153 1_555
O30 P9 1.590153 1_555
O31 P10 1.581231 1_555
O32 P11 1.563028 1_555
O33 P9 1.512677 1_555
O34 P10 1.520752 1_555
O35 P11 1.522571 1_555
O36 P2 1.520752 1_645
O37 P0 1.512677 1_655
O38 P1 1.522571 1_655
O39 P2 1.581231 1_545
O40 P0 1.590153 1_555
O41 P1 1.563028 1_555
O42 P4 1.563028 1_555
O43 P5 1.590153 1_555
O44 P3 1.581231 1_565
O45 P4 1.522571 1_655
O46 P5 1.512677 1_655
O47 P3 1.520752 1_665
O48 Si0 1.660498 1_555
O49 Si1 1.670111 1_555
O50 Si2 1.667941 1_555
O51 Si3 1.620828 1_555
O52 Si4 1.592581 1_555
O53 Si5 1.614354 1_555
O54 Si6 1.614354 1_555
O55 Si7 1.592581 1_555
O56 Si8 1.620828 1_555
O57 Si9 1.667941 1_555
O58 Si10 1.670111 1_555
O59 Si11 1.660498 1_555
O60 Si12 1.670111 1_555
O61 Si13 1.667941 1_555
O62 Si14 1.660498 1_555
O63 Si15 1.592581 1_555
O64 Si16 1.614354 1_555
O65 Si17 1.620828 1_555
O66 Si18 1.620828 1_555
O67 Si19 1.614354 1_555
O68 Si20 1.592581 1_555
O69 Si21 1.660498 1_555
O70 Si22 1.667941 1_555
O71 Si23 1.670111 1_555
O72 Si0 1.611578 1_555
O73 Si1 1.592182 1_555
O74 Si2 1.584887 1_555
O75 Si3 1.694433 1_555
O76 Si4 1.723714 1_555
O77 Si5 1.720195 1_555
O78 Si6 1.720195 1_555
O79 Si7 1.723714 1_555
O80 Si8 1.694433 1_555
O81 Si9 1.584887 1_555
O82 Si10 1.592182 1_555
O83 Si11 1.611578 1_555
O84 Si12 1.592182 1_555
O85 Si13 1.584887 1_555
O86 Si14 1.611578 1_555
O87 Si15 1.723714 1_555
O88 Si16 1.720195 1_555
O89 Si17 1.694433 1_555
O90 Si18 1.694433 1_555
O91 Si19 1.720195 1_555
O92 Si20 1.723714 1_555
O93 Si21 1.611578 1_555
O94 Si22 1.584887 1_555
O95 Si23 1.592182 1_555
O96 Si0 1.679996 1_555
O97 Si1 1.687962 1_555
O98 Si2 1.722089 1_555
O99 Si3 1.610888 1_555
O100 Si4 1.604143 1_555
O101 Si5 1.596478 1_555
O102 Si6 1.596478 1_555
O103 Si7 1.604143 1_555
O104 Si8 1.610888 1_555
O105 Si9 1.722089 1_555
O106 Si10 1.687962 1_555
O107 Si11 1.679996 1_555
O108 Si12 1.687962 1_555
O109 Si13 1.722089 1_555
O110 Si14 1.679996 1_555
O111 Si15 1.604143 1_555
O112 Si16 1.596478 1_555
O113 Si17 1.610888 1_555
O114 Si18 1.610888 1_555
O115 Si19 1.596478 1_555
O116 Si20 1.604143 1_555
O117 Si21 1.679996 1_555
O118 Si22 1.722089 1_555
O119 Si23 1.687962 1_555
O120 P0 1.554070 1_555
O121 P1 1.589021 1_555
O122 P2 1.556184 1_555
O123 P0 1.551780 1_655
O124 P1 1.534470 1_655
O125 P2 1.544095 1_655
O126 P3 1.544095 1_655
O127 P4 1.534470 1_655
O128 P5 1.551780 1_655
O129 P3 1.556184 1_555
O130 P4 1.589021 1_555
O131 P5 1.554070 1_555
O132 P6 1.589021 1_555
O133 P7 1.556184 1_555
O134 P8 1.554070 1_555
O135 P6 1.534470 1_555
O136 P7 1.544095 1_555
O137 P8 1.551780 1_555
O138 P9 1.551780 1_555
O139 P10 1.544095 1_555
O140 P11 1.534470 1_555
O141 P9 1.554070 1_555
O142 P10 1.556184 1_555
O143 P11 1.589021 1_555
