# generated using pymatgen
data_MgB3H15O13
_symmetry_space_group_name_H-M   'P 1'
_cell_length_a   6.48815400
_cell_length_b   8.35242944
_cell_length_c   10.72019948
_cell_angle_alpha   106.12000404
_cell_angle_beta   99.09185369
_cell_angle_gamma   109.51239906
_symmetry_Int_Tables_number   1
_chemical_formula_structural   MgB3H15O13
_chemical_formula_sum   'Mg2 B6 H30 O26'
_cell_volume   505.48070747
_cell_formula_units_Z   2
loop_
 _symmetry_equiv_pos_site_id
 _symmetry_equiv_pos_as_xyz
  1  'x, y, z'
loop_
 _atom_site_type_symbol
 _atom_site_label
 _atom_site_symmetry_multiplicity
 _atom_site_fract_x
 _atom_site_fract_y
 _atom_site_fract_z
 _atom_site_occupancy
  Mg  Mg0  1  0.19893600  0.34708900  0.76895900  1
  Mg  Mg1  1  0.80106400  0.65291100  0.23104100  1
  B  B0  1  0.69552700  0.01759700  0.89471800  1
  B  B1  1  0.30447300  0.98240300  0.10528200  1
  B  B2  1  0.49727300  0.88463500  0.64679100  1
  B  B3  1  0.50272700  0.11536500  0.35320900  1
  B  B4  1  0.64833200  0.23273900  0.77454300  1
  B  B5  1  0.35166800  0.76726100  0.22545700  1
  H  H0  1  0.05017900  0.72789500  0.69481900  1
  H  H1  1  0.94982100  0.27210500  0.30518100  1
  H  H2  1  0.83545500  0.75379300  0.73783500  1
  H  H3  1  0.16454500  0.24620700  0.26216500  1
  H  H4  1  0.85560100  0.09652100  0.09336000  1
  H  H5  1  0.14439900  0.90347900  0.90664000  1
  H  H6  1  0.18316700  0.72432700  0.50370500  1
  H  H7  1  0.81683300  0.27567300  0.49629500  1
  H  H8  1  0.59360800  0.88125800  0.47484000  1
  H  H9  1  0.40639200  0.11874200  0.52516000  1
  H  H10  1  0.86544100  0.45263900  0.74290900  1
  H  H11  1  0.13455900  0.54736100  0.25709100  1
  H  H12  1  0.62773800  0.46716100  0.88667900  1
  H  H13  1  0.37226200  0.53283900  0.11332100  1
  H  H14  1  0.02760000  0.29438800  0.96012400  1
  H  H15  1  0.97240000  0.70561200  0.03987600  1
  H  H16  1  0.22595300  0.22587200  0.97713300  1
  H  H17  1  0.77404700  0.77412800  0.02286700  1
  H  H18  1  0.31722000  0.68942600  0.95295600  1
  H  H19  1  0.68278000  0.31057400  0.04704400  1
  H  H20  1  0.42546100  0.70746700  0.82988300  1
  H  H21  1  0.57453900  0.29253300  0.17011700  1
  H  H22  1  0.24813300  0.52168400  0.58337100  1
  H  H23  1  0.75186700  0.47831600  0.41662900  1
  H  H24  1  0.28921100  0.33415100  0.53039400  1
  H  H25  1  0.71078900  0.66584900  0.46960600  1
  H  H26  1  0.20020900  0.03055100  0.66487400  1
  H  H27  1  0.79979100  0.96944900  0.33512600  1
  H  H28  1  0.92243500  0.98388200  0.62562500  1
  H  H29  1  0.07756500  0.01611800  0.37437500  1
  O  O0  1  0.96035900  0.71671300  0.76151400  1
  O  O1  1  0.03964100  0.28328700  0.23848600  1
  O  O2  1  0.76060200  0.98572900  0.01157900  1
  O  O3  1  0.23939800  0.01427100  0.98842100  1
  O  O4  1  0.59560700  0.86925100  0.77664600  1
  O  O5  1  0.40439300  0.13074900  0.22335400  1
  O  O6  1  0.26117700  0.73944100  0.59481600  1
  O  O7  1  0.73882300  0.26055900  0.40518400  1
  O  O8  1  0.63927300  0.84898600  0.55480200  1
  O  O9  1  0.36072700  0.15101400  0.44519800  1
  O  O10  1  0.48865900  0.06374100  0.66750900  1
  O  O11  1  0.51134100  0.93625900  0.33249100  1
  O  O12  1  0.73392500  0.19186800  0.89910900  1
  O  O13  1  0.26607500  0.80813200  0.10089100  1
  O  O14  1  0.85730900  0.33107200  0.73791200  1
  O  O15  1  0.14269100  0.66892800  0.26208800  1
  O  O16  1  0.52919400  0.35258200  0.81075500  1
  O  O17  1  0.47080600  0.64741800  0.18924500  1
  O  O18  1  0.19244200  0.32990500  0.96659100  1
  O  O19  1  0.80755800  0.67009500  0.03340900  1
  O  O20  1  0.33450500  0.62036100  0.86680900  1
  O  O21  1  0.66549500  0.37963900  0.13319100  1
  O  O22  1  0.21538000  0.39846300  0.58854400  1
  O  O23  1  0.78462000  0.60153700  0.41145600  1
  O  O24  1  0.07853700  0.07347000  0.68182100  1
  O  O25  1  0.92146300  0.92653000  0.31817900  1
loop_
_geom_bond_atom_site_label_1
_geom_bond_atom_site_label_2
_geom_bond_distance
_geom_bond_site_symmetry_2
Mg0 O24 2.024132 1_555
Mg0 O20 2.030142 1_555
Mg0 O16 2.100903 1_555
Mg0 O22 2.105154 1_555
Mg0 O14 2.141427 1_455
Mg0 O18 2.168895 1_555
Mg1 O25 2.024132 1_555
Mg1 O21 2.030142 1_555
Mg1 O17 2.100903 1_555
Mg1 O23 2.105154 1_555
Mg1 O15 2.141427 1_655
Mg1 O19 2.168895 1_555
B0 O4 1.375077 1_545
B0 O12 1.378047 1_555
B0 O2 1.382619 1_546
B1 O5 1.375077 1_565
B1 O13 1.378047 1_555
B1 O3 1.382619 1_564
B2 O10 1.471616 1_565
B2 O8 1.489059 1_555
B2 O4 1.494935 1_555
B2 O6 1.497235 1_555
B3 O11 1.471616 1_545
B3 O9 1.489059 1_555
B3 O5 1.494935 1_555
B3 O7 1.497235 1_555
B4 O10 1.459578 1_555
B4 O16 1.464957 1_555
B4 O14 1.506859 1_555
B4 O12 1.534135 1_555
B5 O11 1.459578 1_555
B5 O17 1.464957 1_555
B5 O15 1.506859 1_555
B5 O13 1.534135 1_555
H0 O0 0.995964 1_455
H1 O1 0.995964 1_655
H2 O0 0.981532 1_555
H3 O1 0.981532 1_555
H4 O2 1.001274 1_545
H5 O3 1.001274 1_565
H6 O6 0.979145 1_555
H7 O7 0.979145 1_555
H8 O8 0.998318 1_555
H9 O9 0.998318 1_555
H10 O14 0.984766 1_555
H11 O15 0.984766 1_555
H12 O16 0.990644 1_555
H13 O17 0.990644 1_555
H14 O18 0.994928 1_555
H15 O19 0.994928 1_555
H16 O18 0.994009 1_555
H17 O19 0.994009 1_555
H18 O20 0.989111 1_555
H19 O21 0.989111 1_555
H20 O20 0.990568 1_555
H21 O21 0.990568 1_555
H22 O22 0.998394 1_555
H23 O23 0.998394 1_555
H24 O22 0.993444 1_555
H25 O23 0.993444 1_555
H26 O24 0.991419 1_555
H27 O25 0.991419 1_555
H28 O24 0.999607 1_665
H29 O25 0.999607 1_445
