# generated using pymatgen
data_MnNiGe
_symmetry_space_group_name_H-M   'P 1'
_cell_length_a   3.67316803
_cell_length_b   6.09137058
_cell_length_c   7.05972389
_cell_angle_alpha   89.99979549
_cell_angle_beta   90.00000740
_cell_angle_gamma   89.99999512
_symmetry_Int_Tables_number   1
_chemical_formula_structural   MnNiGe
_chemical_formula_sum   'Mn4 Ni4 Ge4'
_cell_volume   157.95869351
_cell_formula_units_Z   4
loop_
 _symmetry_equiv_pos_site_id
 _symmetry_equiv_pos_as_xyz
  1  'x, y, z'
loop_
 _atom_site_type_symbol
 _atom_site_label
 _atom_site_symmetry_multiplicity
 _atom_site_fract_x
 _atom_site_fract_y
 _atom_site_fract_z
 _atom_site_occupancy
  Mn  Mn0  1  0.74999978  0.46860354  0.67863759  1
  Mn  Mn1  1  0.24999956  0.03134196  0.17882039  1
  Mn  Mn2  1  0.74999984  0.96864407  0.82118666  1
  Mn  Mn3  1  0.24999966  0.53138312  0.32135257  1
  Ni  Ni0  1  0.25000088  0.14249412  0.56022092  1
  Ni  Ni1  1  0.74999976  0.35756878  0.06015343  1
  Ni  Ni2  1  0.25000049  0.64244569  0.93981790  1
  Ni  Ni3  1  0.74999939  0.85753410  0.43981076  1
  Ge  Ge0  1  0.25000015  0.25863722  0.87396989  1
  Ge  Ge1  1  0.75000014  0.74135484  0.12603297  1
  Ge  Ge2  1  0.25000012  0.75875579  0.62592091  1
  Ge  Ge3  1  0.75000022  0.24123779  0.37407400  1
loop_
_geom_bond_atom_site_label_1
_geom_bond_atom_site_label_2
_geom_bond_distance
_geom_bond_site_symmetry_2
Mn0 Ni1 2.777018 1_556
Mn0 Ni2 2.809665 1_555
Mn0 Ni2 2.809668 1_655
Mn0 Ni0 2.831592 1_555
Mn0 Ni0 2.831597 1_655
Mn0 Ni3 2.907829 1_555
Mn1 Ni0 2.776407 1_555
Mn1 Ni3 2.808702 1_545
Mn1 Ni3 2.808703 1_445
Mn1 Ni1 2.832613 1_455
Mn1 Ni1 2.832615 1_555
Mn1 Ni2 2.908388 1_544
Mn2 Ni3 2.776176 1_555
Mn2 Ni0 2.808683 1_565
Mn2 Ni0 2.808688 1_665
Mn2 Ni2 2.832417 1_555
Mn2 Ni2 2.832419 1_655
Mn2 Ni1 2.908383 1_566
Mn3 Ni2 2.777188 1_554
Mn3 Ni1 2.809689 1_455
Mn3 Ni1 2.809690 1_555
Mn3 Ni3 2.831858 1_555
Mn3 Ni3 2.831859 1_455
Mn3 Ni0 2.907793 1_555
Ni0 Ni3 2.666201 1_545
Ni0 Ni3 2.666209 1_445
Ni1 Ni2 2.665702 1_554
Ni1 Ni2 2.665706 1_654
Ge0 Ni0 2.325224 1_555
Ge0 Ni1 2.337490 1_556
Ge0 Ni1 2.337493 1_456
Ge0 Ni2 2.383690 1_555
Ge0 Mn1 2.559047 1_556
Ge0 Mn2 2.575318 1_545
Ge0 Mn2 2.575320 1_445
Ge0 Mn0 2.628772 1_555
Ge0 Mn0 2.628773 1_455
Ge1 Ni3 2.325485 1_555
Ge1 Ni2 2.337580 1_554
Ge1 Ni2 2.337583 1_654
Ge1 Ni1 2.383600 1_555
Ge1 Mn2 2.559003 1_554
Ge1 Mn1 2.575297 1_665
Ge1 Mn1 2.575300 1_565
Ge1 Mn3 2.628740 1_655
Ge1 Mn3 2.628743 1_555
Ge2 Ni2 2.326524 1_555
Ge2 Ni3 2.336955 1_555
Ge2 Ni3 2.336959 1_455
Ge2 Ni0 2.383064 1_565
Ge2 Mn3 2.557636 1_555
Ge2 Mn0 2.575913 1_555
Ge2 Mn0 2.575915 1_455
Ge2 Mn2 2.628299 1_555
Ge2 Mn2 2.628300 1_455
Ge3 Ni1 2.326722 1_555
Ge3 Ni0 2.337047 1_555
Ge3 Ni0 2.337051 1_655
Ge3 Ni3 2.382908 1_545
Ge3 Mn0 2.557585 1_555
Ge3 Mn3 2.575889 1_655
Ge3 Mn3 2.575891 1_555
Ge3 Mn1 2.628275 1_655
Ge3 Mn1 2.628279 1_555
