# generated using pymatgen
data_BaNb2O6
_symmetry_space_group_name_H-M   'P 1'
_cell_length_a   6.18407325
_cell_length_b   3.93748276
_cell_length_c   10.50998146
_cell_angle_alpha   89.93445321
_cell_angle_beta   90.00000000
_cell_angle_gamma   90.00000000
_symmetry_Int_Tables_number   1
_chemical_formula_structural   BaNb2O6
_chemical_formula_sum   'Ba2 Nb4 O12'
_cell_volume   255.91453712
_cell_formula_units_Z   2
loop_
 _symmetry_equiv_pos_site_id
 _symmetry_equiv_pos_as_xyz
  1  'x, y, z'
loop_
 _atom_site_type_symbol
 _atom_site_label
 _atom_site_symmetry_multiplicity
 _atom_site_fract_x
 _atom_site_fract_y
 _atom_site_fract_z
 _atom_site_occupancy
  Ba  Ba0  1  -0.00000000  -0.00000000  0.00000000  1
  Ba  Ba1  1  0.50000000  -0.00000000  0.50000000  1
  Nb  Nb0  1  0.54713620  0.49232702  0.15201860  1
  Nb  Nb1  1  0.04713620  0.50767298  0.34798140  1
  Nb  Nb2  1  0.45286380  0.50767298  0.84798140  1
  Nb  Nb3  1  0.95286380  0.49232702  0.65201860  1
  O  O0  1  0.59431731  0.99876292  0.15315804  1
  O  O1  1  0.09431731  0.00123708  0.34684196  1
  O  O2  1  0.40568269  0.00123708  0.84684196  1
  O  O3  1  0.90568269  0.99876292  0.65315804  1
  O  O4  1  0.88839889  0.50020815  0.19337889  1
  O  O5  1  0.38839889  0.49979185  0.30662111  1
  O  O6  1  0.80443109  0.50124120  0.45991309  1
  O  O7  1  0.30443109  0.49875880  0.04008691  1
  O  O8  1  0.19556891  0.49875880  0.54008691  1
  O  O9  1  0.69556891  0.50124120  0.95991309  1
  O  O10  1  0.61160111  0.50020815  0.69337889  1
  O  O11  1  0.11160111  0.49979185  0.80662111  1
loop_
_geom_bond_atom_site_label_1
_geom_bond_atom_site_label_2
_geom_bond_distance
_geom_bond_site_symmetry_2
Ba0 O7 2.753252 1_555
Ba0 O9 2.753252 1_444
Ba0 O9 2.759544 1_454
Ba0 O7 2.759544 1_545
Ba0 O4 2.910422 1_445
Ba0 O11 2.910422 1_554
Ba0 O11 2.914673 1_544
Ba0 O4 2.914673 1_455
Ba0 O0 2.980778 1_445
Ba0 O2 2.980778 1_554
Ba1 O8 2.753252 1_555
Ba1 O6 2.753252 1_545
Ba1 O6 2.759544 1_555
Ba1 O8 2.759544 1_545
Ba1 O10 2.910422 1_545
Ba1 O5 2.910422 1_555
Ba1 O5 2.914673 1_545
Ba1 O10 2.914673 1_555
Ba1 O3 2.980778 1_545
Ba1 O1 2.980778 1_555
Nb0 O5 1.898630 1_555
Nb0 O7 1.907147 1_555
Nb0 O0 1.965204 1_545
Nb0 O0 2.015365 1_555
Nb0 O4 2.154928 1_555
Nb0 O9 2.218132 1_554
Nb1 O4 1.898630 1_455
Nb1 O6 1.907147 1_455
Nb1 O1 1.965204 1_565
Nb1 O1 2.015365 1_555
Nb1 O5 2.154928 1_555
Nb1 O8 2.218132 1_555
Nb2 O10 1.898630 1_555
Nb2 O9 1.907147 1_555
Nb2 O2 1.965204 1_565
Nb2 O2 2.015365 1_555
Nb2 O11 2.154928 1_555
Nb2 O7 2.218132 1_556
Nb3 O11 1.898630 1_655
Nb3 O8 1.907147 1_655
Nb3 O3 1.965204 1_545
Nb3 O3 2.015365 1_555
Nb3 O10 2.154928 1_555
Nb3 O6 2.218132 1_555
