# generated using pymatgen
data_Rb4Mg(FeO2)4
_symmetry_space_group_name_H-M   'P 1'
_cell_length_a   5.84772993
_cell_length_b   5.84535171
_cell_length_c   8.82432189
_cell_angle_alpha   88.41110242
_cell_angle_beta   88.90657912
_cell_angle_gamma   103.15241677
_symmetry_Int_Tables_number   1
_chemical_formula_structural   Rb4Mg(FeO2)4
_chemical_formula_sum   'Rb4 Mg1 Fe4 O8'
_cell_volume   293.50807812
_cell_formula_units_Z   1
loop_
 _symmetry_equiv_pos_site_id
 _symmetry_equiv_pos_as_xyz
  1  'x, y, z'
loop_
 _atom_site_type_symbol
 _atom_site_label
 _atom_site_symmetry_multiplicity
 _atom_site_fract_x
 _atom_site_fract_y
 _atom_site_fract_z
 _atom_site_occupancy
  Rb  Rb0  1  0.01478124  0.04351928  0.62678654  1
  Rb  Rb1  1  0.41449215  0.55912005  0.11434252  1
  Rb  Rb2  1  0.49151106  0.98592325  0.82890882  1
  Rb  Rb3  1  0.95045039  0.56080779  0.42416240  1
  Mg  Mg0  1  0.77672975  0.25393760  0.12577680  1
  Fe  Fe0  1  0.07915408  0.95768643  0.12473209  1
  Fe  Fe1  1  0.45543835  0.50007964  0.62154421  1
  Fe  Fe2  1  0.55244360  0.00421785  0.37466396  1
  Fe  Fe3  1  0.94249138  0.49190736  0.87001400  1
  O  O0  1  0.94372196  0.61083825  0.08431427  1
  O  O1  1  0.16437874  0.59460502  0.71606308  1
  O  O2  1  0.43090055  0.07955163  0.16944542  1
  O  O3  1  0.51568658  0.19473244  0.53575581  1
  O  O4  1  0.47113655  0.68564859  0.42448882  1
  O  O5  1  0.64099546  0.50756637  0.81218162  1
  O  O6  1  0.88305455  0.08919761  0.29781796  1
  O  O7  1  0.94971663  0.17114385  0.95056366  1
loop_
_geom_bond_atom_site_label_1
_geom_bond_atom_site_label_2
_geom_bond_distance
_geom_bond_site_symmetry_2
Mg0 O6 1.961142 1_555
Mg0 O7 1.962816 1_554
Mg0 O2 2.070668 1_555
Mg0 O0 2.111080 1_555
Fe0 O0 2.045761 1_455
Fe0 O2 2.067314 1_565
Fe0 O6 2.153656 1_465
Fe0 O7 2.204478 1_464
Fe1 O4 2.013140 1_555
Fe1 O5 2.015297 1_555
Fe1 O3 2.057637 1_555
Fe1 O1 2.072980 1_555
Fe2 O4 1.852207 1_545
Fe2 O3 1.868732 1_555
Fe2 O6 1.984583 1_555
Fe2 O2 2.031212 1_555
Fe3 O1 1.850014 1_655
Fe3 O5 1.866122 1_555
Fe3 O7 1.996457 1_555
Fe3 O0 2.032383 1_556
O0 Rb1 2.853490 1_655
O0 Rb3 3.006951 1_555
O0 Rb1 3.045954 1_555
O1 Rb2 2.844458 1_555
O1 Rb3 2.877086 1_455
O1 Rb0 3.037754 1_565
O2 Rb1 2.855246 1_555
O2 Rb1 3.074252 1_545
O2 Rb2 3.097424 1_544
O3 Rb2 2.816755 1_545
O3 Rb0 2.949422 1_555
O3 Rb3 3.053543 1_555
O4 Rb1 2.860479 1_555
O4 Rb3 2.965268 1_455
O4 Rb3 3.052768 1_555
O5 Rb2 2.973311 1_545
O5 Rb1 3.007675 1_556
O5 Rb2 3.120057 1_555
O6 Rb3 2.947993 1_555
O6 Rb0 3.037694 1_655
O7 Rb2 2.891055 1_545
O7 Rb0 3.011690 1_655
