# generated using pymatgen
data_Na9Ca2Ta10Si9(PO8)9
_symmetry_space_group_name_H-M   'P 1'
_cell_length_a   8.93820981
_cell_length_b   8.92816451
_cell_length_c   22.89782748
_cell_angle_alpha   90.00097252
_cell_angle_beta   89.98767651
_cell_angle_gamma   119.94356688
_symmetry_Int_Tables_number   1
_chemical_formula_structural   Na9Ca2Ta10Si9(PO8)9
_chemical_formula_sum   'Na9 Ca2 Ta10 Si9 P9 O72'
_cell_volume   1583.37692285
_cell_formula_units_Z   1
loop_
 _symmetry_equiv_pos_site_id
 _symmetry_equiv_pos_as_xyz
  1  'x, y, z'
loop_
 _atom_site_type_symbol
 _atom_site_label
 _atom_site_symmetry_multiplicity
 _atom_site_fract_x
 _atom_site_fract_y
 _atom_site_fract_z
 _atom_site_occupancy
  Na  Na0  1  0.63348494  0.00845906  0.24779533  1
  Na  Na1  1  0.37718802  0.36639197  0.24706148  1
  Na  Na2  1  0.99222809  0.36693539  0.74703347  1
  Na  Na3  1  0.00013404  0.99937235  0.49870214  1
  Na  Na4  1  0.99987334  0.99930611  0.99925190  1
  Na  Na5  1  0.65394203  0.33216606  0.82855159  1
  Na  Na6  1  0.67953656  0.34502017  0.32928075  1
  Na  Na7  1  0.32496070  0.66467465  0.16509630  1
  Na  Na8  1  0.34215198  0.67334095  0.66581976  1
  Ca  Ca0  1  0.65729065  0.33266025  0.68546653  1
  Ca  Ca1  1  0.67603131  0.34210944  0.18391746  1
  Ta  Ta0  1  0.99396903  0.99773912  0.35784425  1
  Ta  Ta1  1  0.00521267  0.00281537  0.85758591  1
  Ta  Ta2  1  0.00267721  0.00268676  0.64576679  1
  Ta  Ta3  1  0.99719585  0.00058664  0.14598877  1
  Ta  Ta4  1  0.66724445  0.33439575  0.97797092  1
  Ta  Ta5  1  0.66627762  0.33426332  0.47822488  1
  Ta  Ta6  1  0.33348097  0.66626743  0.01701642  1
  Ta  Ta7  1  0.33294713  0.66610646  0.51744158  1
  Ta  Ta8  1  0.32993734  0.66371160  0.31429278  1
  Ta  Ta9  1  0.33767068  0.66770619  0.81362727  1
  Si  Si0  1  0.71110916  0.71227279  0.25231329  1
  Si  Si1  1  0.00291084  0.28948272  0.25201056  1
  Si  Si2  1  0.28990135  0.29007731  0.75217700  1
  Si  Si3  1  0.62231565  0.66696465  0.91660337  1
  Si  Si4  1  0.04490066  0.38000495  0.91598754  1
  Si  Si5  1  0.33538282  0.95498945  0.91644175  1
  Si  Si6  1  0.61949217  0.95561177  0.41654821  1
  Si  Si7  1  0.33364618  0.37735114  0.41672143  1
  Si  Si8  1  0.04438226  0.66639620  0.41711733  1
  P  P0  1  0.27670634  0.99103258  0.25162391  1
  P  P1  1  0.00738756  0.72053514  0.75201709  1
  P  P2  1  0.71405504  0.99171730  0.75170479  1
  P  P3  1  0.96244323  0.33443370  0.58343406  1
  P  P4  1  0.37254602  0.03730971  0.58249209  1
  P  P5  1  0.66584860  0.62878106  0.58236658  1
  P  P6  1  0.96417031  0.62948249  0.08186223  1
  P  P7  1  0.66484753  0.03634456  0.08291330  1
  P  P8  1  0.37034040  0.33355888  0.08277375  1
  O  O0  1  0.18818348  0.01556397  0.30512965  1
  O  O1  1  0.83321823  0.81693221  0.30747222  1
  O  O2  1  0.99042550  0.16795140  0.30713124  1
  O  O3  1  0.17585521  0.16859841  0.80687723  1
  O  O4  1  0.98678843  0.81300016  0.80530428  1
  O  O5  1  0.82631950  0.00871078  0.80507731  1
  O  O6  1  0.80174919  0.96762319  0.69517194  1
  O  O7  1  0.15891300  0.19144241  0.69402379  1
  O  O8  1  0.02610260  0.83146385  0.69589233  1
  O  O9  1  0.80824145  0.83958400  0.19391862  1
  O  O10  1  0.03717046  0.19574642  0.19321938  1
  O  O11  1  0.16670242  0.96825378  0.19515266  1
  O  O12  1  0.90309783  0.36929781  0.64100070  1
  O  O13  1  0.47324030  0.09932000  0.63759840  1
  O  O14  1  0.62773687  0.52791551  0.63742988  1
  O  O15  1  0.90380934  0.52946366  0.13708943  1
  O  O16  1  0.62878403  0.09470920  0.14044539  1
  O  O17  1  0.46452989  0.36901411  0.14033980  1
  O  O18  1  0.46859744  0.30943129  0.03021355  1
  O  O19  1  0.84287150  0.53583420  0.02837033  1
  O  O20  1  0.69208476  0.15898971  0.03033342  1
  O  O21  1  0.46250398  0.15768851  0.52863479  1
  O  O22  1  0.69329612  0.53577319  0.52849003  1
  O  O23  1  0.84057669  0.30747076  0.53063702  1
  O  O24  1  0.52862390  0.69533421  0.97276574  1
  O  O25  1  0.16772853  0.47198950  0.97206683  1
  O  O26  1  0.30559859  0.83332543  0.97282470  1
  O  O27  1  0.52589518  0.83235651  0.47231762  1
  O  O28  1  0.30518290  0.47233972  0.47240047  1
  O  O29  1  0.16625100  0.69347027  0.47308801  1
  O  O30  1  0.13684720  0.63513645  0.35981087  1
  O  O31  1  0.50228453  0.86841810  0.35773963  1
  O  O32  1  0.36584532  0.49896613  0.35826956  1
  O  O33  1  0.13347204  0.49948572  0.85765520  1
  O  O34  1  0.36496735  0.86283405  0.85927846  1
  O  O35  1  0.49731291  0.63458543  0.85955583  1
  O  O36  1  0.02588006  0.83654820  0.40933780  1
  O  O37  1  0.81076899  0.97679971  0.41009701  1
  O  O38  1  0.16654935  0.18725507  0.40886555  1
  O  O39  1  0.02051214  0.18759439  0.90844766  1
  O  O40  1  0.16469300  0.97475080  0.90875585  1
  O  O41  1  0.81150905  0.83466446  0.90775452  1
  O  O42  1  0.97769794  0.16495613  0.58843576  1
  O  O43  1  0.18655014  0.01885790  0.58925939  1
  O  O44  1  0.83258563  0.81306258  0.58820237  1
  O  O45  1  0.98177369  0.81385814  0.08749566  1
  O  O46  1  0.83389802  0.02113164  0.08772499  1
  O  O47  1  0.18755203  0.16568248  0.08679471  1
  O  O48  1  0.70658327  0.15813807  0.74899014  1
  O  O49  1  0.47462947  0.30951710  0.75433255  1
  O  O50  1  0.85533709  0.53677889  0.74969790  1
  O  O51  1  0.67119516  0.51831472  0.25294827  1
  O  O52  1  0.82705844  0.29219998  0.25214798  1
  O  O53  1  0.45628214  0.15021321  0.24776966  1
  O  O54  1  0.64006780  0.49486237  0.92766916  1
  O  O55  1  0.85426675  0.35912401  0.92764041  1
  O  O56  1  0.50461039  0.14591760  0.92797994  1
  O  O57  1  0.64101786  0.14655402  0.42793461  1
  O  O58  1  0.50598309  0.36037536  0.42756879  1
  O  O59  1  0.85455222  0.49484231  0.42791642  1
  O  O60  1  0.34442592  0.49133076  0.07068310  1
  O  O61  1  0.14833035  0.65646077  0.06987369  1
  O  O62  1  0.50906766  0.85266624  0.07068560  1
  O  O63  1  0.34248850  0.85220923  0.57033949  1
  O  O64  1  0.50917773  0.65672591  0.57024058  1
  O  O65  1  0.14637153  0.48971528  0.57104624  1
  O  O66  1  0.29617433  0.82745627  0.25657616  1
  O  O67  1  0.52425415  0.71167676  0.25673904  1
  O  O68  1  0.18431054  0.47665305  0.25656985  1
  O  O69  1  0.28801532  0.47584133  0.75657856  1
  O  O70  1  0.17641719  0.70881181  0.75651524  1
  O  O71  1  0.53278465  0.82797194  0.75681447  1
loop_
_geom_bond_atom_site_label_1
_geom_bond_atom_site_label_2
_geom_bond_distance
_geom_bond_site_symmetry_2
Na0 O52 2.246223 1_555
Na0 O67 2.330993 1_545
Na0 O53 2.472156 1_555
Na0 O16 2.582503 1_555
Na0 O66 2.622542 1_545
Na0 O31 2.794876 1_545
Na0 O9 2.930066 1_545
Na1 O51 2.281575 1_555
Na1 O53 2.363774 1_555
Na1 O68 2.383837 1_555
Na1 O17 2.561755 1_555
Na1 O67 2.689823 1_555
Na2 O48 2.290044 1_555
Na2 O69 2.327422 1_655
Na2 O50 2.377490 1_555
Na2 O12 2.558813 1_555
Na2 O70 2.656655 1_655
Na2 O33 2.814283 1_655
Na2 O7 2.911618 1_655
Na3 O37 2.585089 1_455
Na3 O36 2.585935 1_555
Na3 O44 2.592587 1_455
Na3 O42 2.596778 1_465
Na3 O38 2.601113 1_565
Na3 O43 2.611195 1_565
Na4 O47 2.559787 1_666
Na4 O45 2.565717 1_556
Na4 O46 2.574903 1_566
Na4 O40 2.614061 1_655
Na4 O39 2.621745 1_665
Na4 O41 2.629747 1_555
Na5 O49 2.274953 1_555
Na5 O50 2.560005 1_555
Na5 O48 2.585301 1_555
Na5 O54 2.730557 1_555
Na5 O56 2.741004 1_555
Na5 O55 2.825505 1_555
Na6 O51 2.360015 1_555
Na6 O52 2.387499 1_555
Na6 O53 2.650909 1_555
Na6 O59 2.692562 1_555
Na6 O58 2.775087 1_555
Na6 O57 2.784238 1_555
Na7 O68 2.584139 1_555
Na7 O66 2.634217 1_555
Na7 O67 2.647248 1_555
Na7 O61 2.671677 1_555
Na7 O60 2.714337 1_555
Na7 O62 2.727590 1_555
Na8 O71 2.608387 1_555
Na8 O69 2.609625 1_555
Na8 O70 2.659803 1_555
Na8 O64 2.694482 1_555
Na8 O63 2.706565 1_555
Na8 O65 2.756244 1_555
Ca0 O14 2.185986 1_555
Ca0 O13 2.197080 1_555
Ca0 O49 2.203854 1_555
Ca0 O12 2.291814 1_555
Ca0 O50 2.323441 1_555
Ca0 O48 2.328820 1_555
Ca1 O15 2.166136 1_555
Ca1 O51 2.245671 1_555
Ca1 O52 2.250139 1_555
Ca1 O17 2.254174 1_555
Ca1 O16 2.262083 1_555
Ca1 O53 2.360163 1_555
O0 P0 1.532197 1_545
O0 Ta0 2.054036 1_445
O1 Si0 1.625430 1_555
O1 Ta0 1.919864 1_555
O2 Si1 1.631534 1_655
O2 Ta0 1.925355 1_545
O3 Si2 1.637078 1_555
O3 Ta1 1.900248 1_555
O4 P1 1.534869 1_655
O4 Ta1 2.013374 1_665
O5 P2 1.540136 1_545
O5 Ta1 2.022369 1_655
O6 P2 1.582473 1_555
O6 Ta2 2.010233 1_665
O7 Si2 1.700218 1_555
O7 Ta2 1.913733 1_555
O8 P1 1.579553 1_555
O8 Ta2 2.004457 1_565
O9 Si0 1.687604 1_555
O9 Ta3 1.923241 1_565
O10 Si1 1.691747 1_555
O10 Ta3 1.926624 1_455
O11 P0 1.575138 1_555
O11 Ta3 2.020763 1_465
O12 P3 1.510065 1_555
O13 P4 1.487201 1_555
O14 P5 1.486715 1_555
O15 P6 1.485415 1_555
O16 P7 1.509421 1_555
O17 P8 1.510258 1_555
O18 P8 1.566704 1_555
O18 Ta4 2.058464 1_554
O19 P6 1.571746 1_555
O19 Ta4 2.052524 1_554
O20 P7 1.562566 1_555
O20 Ta4 2.070431 1_554
O21 P4 1.568237 1_555
O21 Ta5 2.065854 1_555
O22 P5 1.573166 1_555
O22 Ta5 2.046009 1_555
O23 P3 1.563577 1_555
O23 Ta5 2.073038 1_555
O24 Si3 1.621887 1_555
O24 Ta6 1.919301 1_556
O25 Si4 1.621462 1_555
O25 Ta6 1.923052 1_556
O26 Si5 1.621358 1_555
O26 Ta6 1.918832 1_556
O27 Si6 1.619297 1_555
O27 Ta7 1.920635 1_555
O28 Si7 1.620066 1_555
O28 Ta7 1.920821 1_555
O29 Si8 1.620256 1_555
O29 Ta7 1.917075 1_555
O30 Si8 1.646993 1_555
O30 Ta8 1.920870 1_555
O31 Si6 1.644159 1_555
O31 Ta8 1.973077 1_555
O32 Si7 1.655621 1_555
O32 Ta8 1.936993 1_555
O33 Si4 1.644768 1_555
O33 Ta9 1.966219 1_555
O34 Si5 1.636203 1_555
O34 Ta9 1.939835 1_555
O35 Si3 1.648159 1_555
O35 Ta9 1.910868 1_555
O36 Si8 1.617933 1_555
O36 Ta0 1.988143 1_455
O37 Si6 1.630218 1_555
O37 Ta0 1.959950 1_555
O38 Si7 1.616517 1_555
O38 Ta0 2.000607 1_445
O39 Si4 1.629289 1_555
O39 Ta1 1.967605 1_555
O40 Si5 1.630514 1_555
O40 Ta1 1.955728 1_565
O41 Si3 1.617011 1_555
O41 Ta1 1.993858 1_665
O42 P3 1.589725 1_555
O42 Ta2 2.048221 1_655
O43 P4 1.594189 1_555
O43 Ta2 2.039191 1_555
O44 P5 1.580559 1_555
O44 Ta2 2.084771 1_665
O45 P6 1.578796 1_555
O45 Ta3 2.088744 1_565
O46 P7 1.587037 1_555
O46 Ta3 2.052323 1_555
O47 P8 1.574675 1_555
O47 Ta3 2.097658 1_455
O48 P2 1.521541 1_545
O49 Si2 1.572504 1_555
O50 P1 1.521710 1_655
O51 Si0 1.584138 1_555
O52 Si1 1.584057 1_655
O53 P0 1.525312 1_545
O54 Si3 1.641284 1_555
O54 Ta4 1.945712 1_555
O55 Si4 1.640732 1_655
O55 Ta4 1.949884 1_555
O56 Si5 1.640018 1_545
O56 Ta4 1.952890 1_555
O57 Si6 1.638225 1_545
O57 Ta5 1.951401 1_555
O58 Si7 1.640328 1_555
O58 Ta5 1.945941 1_555
O59 Si8 1.640578 1_655
O59 Ta5 1.950657 1_555
O60 P8 1.562130 1_555
O60 Ta6 2.027736 1_555
O61 P6 1.564255 1_455
O61 Ta6 2.016375 1_555
O62 P7 1.557917 1_565
O62 Ta6 2.033779 1_555
O63 P4 1.561252 1_565
O63 Ta7 2.023284 1_555
O64 P5 1.565024 1_555
O64 Ta7 2.020491 1_555
O65 P3 1.558755 1_455
O65 Ta7 2.035968 1_555
O66 P0 1.558756 1_555
O66 Ta8 2.101332 1_555
O67 Si0 1.670554 1_555
O67 Ta8 2.047750 1_555
O68 Si1 1.651527 1_555
O68 Ta8 2.015182 1_555
O69 Si2 1.670052 1_555
O69 Ta9 2.019640 1_555
O70 P1 1.569102 1_555
O70 Ta9 2.109776 1_555
O71 P2 1.552869 1_555
O71 Ta9 2.071013 1_555
