# generated using pymatgen
data_Na2Y2Ta6Si7S5O48
_symmetry_space_group_name_H-M   'P 1'
_cell_length_a   17.84263627
_cell_length_b   8.96366840
_cell_length_c   23.25627856
_cell_angle_alpha   90.03896629
_cell_angle_beta   90.00142993
_cell_angle_gamma   120.18209129
_symmetry_Int_Tables_number   1
_chemical_formula_structural   Na2Y2Ta6Si7S5O48
_chemical_formula_sum   'Na6 Y6 Ta18 Si21 S15 O144'
_cell_volume   3215.25715805
_cell_formula_units_Z   3
loop_
 _symmetry_equiv_pos_site_id
 _symmetry_equiv_pos_as_xyz
  1  'x, y, z'
loop_
 _atom_site_type_symbol
 _atom_site_label
 _atom_site_symmetry_multiplicity
 _atom_site_fract_x
 _atom_site_fract_y
 _atom_site_fract_z
 _atom_site_occupancy
  Na  Na0  1  0.99497214  0.00111870  0.49634183  1
  Na  Na1  1  0.49625984  0.00299074  0.99219233  1
  Na  Na2  1  0.33627439  0.32239737  0.83205399  1
  Na  Na3  1  0.82398427  0.33732184  0.83120460  1
  Na  Na4  1  0.32488557  0.31224243  0.33707893  1
  Na  Na5  1  0.83465204  0.35017517  0.33979513  1
  Y  Y0  1  -0.00003086  0.98085137  0.35597052  1
  Y  Y1  1  0.50060235  0.01972010  0.85403914  1
  Y  Y2  1  0.99330944  0.01313002  0.64750555  1
  Y  Y3  1  0.49514980  0.98493828  0.15156460  1
  Y  Y4  1  0.83672859  0.33448947  0.97801509  1
  Y  Y5  1  0.33545277  0.33731579  0.47829459  1
  Ta  Ta0  1  0.50079803  0.99449568  0.35806616  1
  Ta  Ta1  1  0.00126650  0.00483085  0.85548514  1
  Ta  Ta2  1  0.50152786  0.00674739  0.64486703  1
  Ta  Ta3  1  0.00055994  0.99663933  0.14537628  1
  Ta  Ta4  1  0.32403053  0.33479409  0.68808837  1
  Ta  Ta5  1  0.83326651  0.31072436  0.68620828  1
  Ta  Ta6  1  0.33096365  0.34603508  0.18899294  1
  Ta  Ta7  1  0.82450489  0.31247551  0.18968130  1
  Ta  Ta8  1  0.32466049  0.32761068  0.97284648  1
  Ta  Ta9  1  0.82879547  0.31993578  0.47480354  1
  Ta  Ta10  1  0.16828958  0.66834744  0.02148724  1
  Ta  Ta11  1  0.67827200  0.67407131  0.01980956  1
  Ta  Ta12  1  0.17138725  0.67246790  0.52400684  1
  Ta  Ta13  1  0.67040744  0.66783825  0.52228987  1
  Ta  Ta14  1  0.16461897  0.68127511  0.31171753  1
  Ta  Ta15  1  0.68093223  0.67818073  0.31044813  1
  Ta  Ta16  1  0.18040293  0.68310634  0.80919825  1
  Ta  Ta17  1  0.66328661  0.64640493  0.80994411  1
  Si  Si0  1  0.14564791  0.00333004  0.24942748  1
  Si  Si1  1  0.64208317  0.99181489  0.25265501  1
  Si  Si2  1  0.35128937  0.70768929  0.25397172  1
  Si  Si3  1  0.85745392  0.70552871  0.24723852  1
  Si  Si4  1  0.14335862  0.29210595  0.75220661  1
  Si  Si5  1  0.64931661  0.28815895  0.74882812  1
  Si  Si6  1  0.35805521  0.01087782  0.74726495  1
  Si  Si7  1  0.85109466  0.99560491  0.75393025  1
  Si  Si8  1  0.97763848  0.33985505  0.57910444  1
  Si  Si9  1  0.68832435  0.04250316  0.58189073  1
  Si  Si10  1  0.33580334  0.62820103  0.58258872  1
  Si  Si11  1  0.83402663  0.04189036  0.08314987  1
  Si  Si12  1  0.18922949  0.33488005  0.08312989  1
  Si  Si13  1  0.31169523  0.67137268  0.91826875  1
  Si  Si14  1  0.81213765  0.66647728  0.91237902  1
  Si  Si15  1  0.52437106  0.38806463  0.92064025  1
  Si  Si16  1  0.16178788  0.94157318  0.91677645  1
  Si  Si17  1  0.31025293  0.95428009  0.41557583  1
  Si  Si18  1  0.81181934  0.95415579  0.41863332  1
  Si  Si19  1  0.66418902  0.38245702  0.41711445  1
  Si  Si20  1  0.02383741  0.66080831  0.42007931  1
  S  S0  1  0.99938712  0.29206237  0.24723770  1
  S  S1  1  0.49986552  0.29484453  0.25278551  1
  S  S2  1  0.00029428  0.70718973  0.75362018  1
  S  S3  1  0.49879690  0.70534882  0.74767889  1
  S  S4  1  0.48006806  0.33527809  0.58530276  1
  S  S5  1  0.18871919  0.03808507  0.58384016  1
  S  S6  1  0.83066664  0.61081894  0.58002368  1
  S  S7  1  0.47653614  0.61038930  0.07967160  1
  S  S8  1  0.98017247  0.62552762  0.08539959  1
  S  S9  1  0.33130427  0.04930222  0.07970548  1
  S  S10  1  0.68796805  0.33842932  0.08324102  1
  S  S11  1  0.02922363  0.38449476  0.91430869  1
  S  S12  1  0.66586507  0.94295580  0.91715565  1
  S  S13  1  0.16642788  0.39078435  0.41692364  1
  S  S14  1  0.52895334  0.67250243  0.41434572  1
  O  O0  1  0.11909321  0.06410298  0.30585185  1
  O  O1  1  0.59695510  0.03253124  0.30692173  1
  O  O2  1  0.42069704  0.80874054  0.30614204  1
  O  O3  1  0.90972375  0.76412255  0.30571086  1
  O  O4  1  0.48119835  0.17725498  0.30235381  1
  O  O5  1  0.97641322  0.18658740  0.29903052  1
  O  O6  1  0.09881562  0.16451748  0.80795727  1
  O  O7  1  0.61960962  0.17595447  0.80627721  1
  O  O8  1  0.47655395  0.76528407  0.79972856  1
  O  O9  1  0.98558514  0.79568043  0.80386604  1
  O  O10  1  0.40835676  0.05402763  0.80685186  1
  O  O11  1  0.92018602  0.03173468  0.80709300  1
  O  O12  1  0.40718024  0.98001352  0.69384874  1
  O  O13  1  0.88155704  0.94787883  0.69636790  1
  O  O14  1  0.09405060  0.21954251  0.69358755  1
  O  O15  1  0.58462220  0.18698210  0.69501067  1
  O  O16  1  0.01831720  0.80784866  0.70122533  1
  O  O17  1  0.51259056  0.81604819  0.69732618  1
  O  O18  1  0.38254813  0.81263141  0.19512886  1
  O  O19  1  0.90663336  0.83385953  0.19315921  1
  O  O20  1  0.01173387  0.20644956  0.19654233  1
  O  O21  1  0.51791237  0.22892520  0.20010256  1
  O  O22  1  0.08374404  0.97972383  0.19444995  1
  O  O23  1  0.59388089  0.96681374  0.19291270  1
  O  O24  1  0.43662218  0.36063610  0.63515022  1
  O  O25  1  0.93170856  0.36422771  0.63857891  1
  O  O26  1  0.24292693  0.13114697  0.63611775  1
  O  O27  1  0.75296889  0.13197136  0.63886975  1
  O  O28  1  0.31951675  0.49569989  0.63854058  1
  O  O29  1  0.81808057  0.50905658  0.63237297  1
  O  O30  1  0.43683925  0.50948035  0.13392647  1
  O  O31  1  0.93715918  0.51274893  0.13499089  1
  O  O32  1  0.32225605  0.13076078  0.13225152  1
  O  O33  1  0.81805106  0.14219110  0.13844862  1
  O  O34  1  0.25604462  0.37240594  0.13868269  1
  O  O35  1  0.74111810  0.35656989  0.13550770  1
  O  O36  1  0.23863936  0.30723624  0.02838796  1
  O  O37  1  0.72749797  0.31463703  0.03188124  1
  O  O38  1  0.41946029  0.51677925  0.03029766  1
  O  O39  1  0.92913420  0.56148766  0.03290248  1
  O  O40  1  0.34011109  0.15262599  0.02809850  1
  O  O41  1  0.85314874  0.15552702  0.02700637  1
  O  O42  1  0.22794789  0.14248478  0.53270560  1
  O  O43  1  0.73336708  0.16550967  0.52645655  1
  O  O44  1  0.35659017  0.55142057  0.52744154  1
  O  O45  1  0.83719081  0.52675395  0.52760282  1
  O  O46  1  0.42913622  0.29720805  0.53285320  1
  O  O47  1  0.91156459  0.32088940  0.52639977  1
  O  O48  1  0.25557297  0.68314765  0.97380879  1
  O  O49  1  0.76733442  0.69175951  0.97300285  1
  O  O50  1  0.07664975  0.46349705  0.96958397  1
  O  O51  1  0.58582533  0.49792173  0.97589810  1
  O  O52  1  0.14884372  0.82472362  0.97461308  1
  O  O53  1  0.66436252  0.84845083  0.97167061  1
  O  O54  1  0.26583662  0.84143765  0.47380900  1
  O  O55  1  0.75545744  0.82817684  0.47355797  1
  O  O56  1  0.16444750  0.47816489  0.47108862  1
  O  O57  1  0.64825420  0.47246536  0.47426965  1
  O  O58  1  0.08763584  0.67743129  0.47327256  1
  O  O59  1  0.57591356  0.68935074  0.46891159  1
  O  O60  1  0.06623433  0.63395161  0.35977049  1
  O  O61  1  0.57265421  0.65368909  0.36391069  1
  O  O62  1  0.24657852  0.85042083  0.35977554  1
  O  O63  1  0.75614106  0.85814168  0.36011395  1
  O  O64  1  0.17094630  0.48867908  0.36498652  1
  O  O65  1  0.67805251  0.50375636  0.36084770  1
  O  O66  1  0.07314168  0.49341971  0.86461075  1
  O  O67  1  0.56513956  0.49912985  0.86116988  1
  O  O68  1  0.17968038  0.85425765  0.86134400  1
  O  O69  1  0.67010019  0.85416041  0.86560764  1
  O  O70  1  0.25567389  0.65155367  0.86032292  1
  O  O71  1  0.74486158  0.64180972  0.86023813  1
  O  O72  1  0.01901756  0.83435014  0.42103185  1
  O  O73  1  0.52336297  0.83412055  0.40923510  1
  O  O74  1  0.40378299  0.96362092  0.40260657  1
  O  O75  1  0.90610672  0.98126597  0.41913905  1
  O  O76  1  0.08771713  0.22058180  0.41640172  1
  O  O77  1  0.57978235  0.19282044  0.40323069  1
  O  O78  1  0.02420596  0.21372339  0.90933199  1
  O  O79  1  0.51866143  0.20463119  0.92123541  1
  O  O80  1  0.07987754  0.96769808  0.90444750  1
  O  O81  1  0.58671741  0.95377723  0.91858324  1
  O  O82  1  0.40659587  0.83109454  0.91937647  1
  O  O83  1  0.90417167  0.84436339  0.90297767  1
  O  O84  1  0.49419149  0.18591933  0.59504066  1
  O  O85  1  0.98418097  0.16758719  0.57954821  1
  O  O86  1  0.10077082  0.00549526  0.59099288  1
  O  O87  1  0.59493757  0.02185627  0.59742831  1
  O  O88  1  0.41729659  0.81563745  0.60111307  1
  O  O89  1  0.90668388  0.78328395  0.58333314  1
  O  O90  1  0.48255523  0.78073608  0.08263168  1
  O  O91  1  0.99452546  0.80309438  0.09502321  1
  O  O92  1  0.40696959  0.02616654  0.08235399  1
  O  O93  1  0.91501796  0.01475631  0.10062355  1
  O  O94  1  0.09607654  0.16822083  0.09720825  1
  O  O95  1  0.59941972  0.19312175  0.08940528  1
  O  O96  1  0.34221455  0.17099790  0.73024829  1
  O  O97  1  0.84650339  0.17721331  0.74490861  1
  O  O98  1  0.24440210  0.32031286  0.74511048  1
  O  O99  1  0.74845316  0.33545409  0.73131943  1
  O  O100  1  0.42353257  0.52382531  0.73578891  1
  O  O101  1  0.92111630  0.53384113  0.74816700  1
  O  O102  1  0.34744923  0.51545197  0.24311967  1
  O  O103  1  0.84128865  0.51364629  0.22893992  1
  O  O104  1  0.42105339  0.31244384  0.24313006  1
  O  O105  1  0.92320040  0.32144426  0.23496088  1
  O  O106  1  0.24595092  0.16077440  0.23040307  1
  O  O107  1  0.74314639  0.16695212  0.24471239  1
  O  O108  1  0.31128593  0.48645335  0.92597636  1
  O  O109  1  0.82191208  0.49932075  0.91497636  1
  O  O110  1  0.42678961  0.36710518  0.93008160  1
  O  O111  1  0.94204142  0.36062060  0.91703716  1
  O  O112  1  0.24973910  0.13387187  0.92668032  1
  O  O113  1  0.74441652  0.11485888  0.91900076  1
  O  O114  1  0.32315609  0.14470578  0.41486576  1
  O  O115  1  0.80967200  0.13499104  0.42343367  1
  O  O116  1  0.24540114  0.37576662  0.41753728  1
  O  O117  1  0.75068899  0.36767599  0.42591171  1
  O  O118  1  0.44124622  0.52232551  0.41594041  1
  O  O119  1  0.92605576  0.48741770  0.42582706  1
  O  O120  1  0.17668835  0.50153369  0.07023773  1
  O  O121  1  0.68522905  0.50243123  0.07776787  1
  O  O122  1  0.06686916  0.64110656  0.07717539  1
  O  O123  1  0.56286089  0.62955655  0.07361863  1
  O  O124  1  0.25019609  0.87399781  0.07344285  1
  O  O125  1  0.74512555  0.85217200  0.07484498  1
  O  O126  1  0.18895619  0.87304138  0.57979681  1
  O  O127  1  0.67501784  0.84938861  0.56972275  1
  O  O128  1  0.24898766  0.64253249  0.57437856  1
  O  O129  1  0.75009974  0.62942258  0.57379495  1
  O  O130  1  0.07293370  0.51195517  0.57010092  1
  O  O131  1  0.56657326  0.49280588  0.57764538  1
  O  O132  1  0.15360962  0.82954536  0.25817457  1
  O  O133  1  0.65448680  0.82898099  0.26761552  1
  O  O134  1  0.25333339  0.65856599  0.27035949  1
  O  O135  1  0.75986353  0.68194708  0.25601357  1
  O  O136  1  0.07593490  0.46307175  0.25386252  1
  O  O137  1  0.57292098  0.46957519  0.26516878  1
  O  O138  1  0.15560858  0.48025576  0.76802205  1
  O  O139  1  0.65319191  0.47665357  0.75839234  1
  O  O140  1  0.07434304  0.68062268  0.76730525  1
  O  O141  1  0.57570722  0.68673835  0.75530414  1
  O  O142  1  0.26023215  0.83773141  0.75609213  1
  O  O143  1  0.75297213  0.84578405  0.77154729  1
loop_
_geom_bond_atom_site_label_1
_geom_bond_atom_site_label_2
_geom_bond_distance
_geom_bond_site_symmetry_2
Na0 O75 2.342034 1_545
Na0 O72 2.475384 1_645
Na0 O85 2.508608 1_555
Na0 O76 2.606998 1_655
Na0 O89 2.701815 1_545
Na0 O86 2.887159 1_655
Na1 O82 2.306296 1_545
Na1 O79 2.329681 1_555
Na1 O81 2.538726 1_545
Na1 O92 2.703774 1_556
Na1 O90 2.822838 1_546
Na1 O95 2.871258 1_556
Na2 O98 2.597088 1_555
Na2 O110 2.704443 1_555
Na2 O112 2.732077 1_555
Na2 O96 2.756600 1_555
Na2 O108 2.790579 1_555
Na2 O100 2.806273 1_555
Na3 O109 2.440425 1_555
Na3 O101 2.602121 1_555
Na3 O97 2.612434 1_555
Na3 O99 2.681369 1_555
Na3 O113 2.705555 1_555
Na3 O111 2.832355 1_555
Na4 O114 2.342196 1_555
Na4 O116 2.578268 1_555
Na4 O118 2.698929 1_555
Na4 O102 2.742791 1_555
Na4 O104 2.777615 1_555
Na4 O106 2.838007 1_555
Na5 O119 2.481017 1_555
Na5 O117 2.552649 1_555
Na5 O115 2.615968 1_555
Na5 O107 2.747984 1_555
Na5 O103 2.939100 1_555
Na5 O105 2.985816 1_555
O0 Si0 1.581692 1_555
O0 Y0 2.199908 1_545
O1 Si1 1.633774 1_545
O1 Ta0 1.971568 1_545
O2 Si2 1.642167 1_555
O2 Ta0 1.969168 1_555
O3 Si3 1.581544 1_555
O3 Y0 2.141147 1_655
O4 S1 1.483066 1_555
O4 Ta0 2.250250 1_545
O5 S0 1.457609 1_555
O5 Y0 2.472596 1_645
O6 Si4 1.645840 1_555
O6 Ta1 1.948646 1_555
O7 Si5 1.594796 1_555
O7 Y1 2.171646 1_555
O8 S3 1.457713 1_555
O8 Y1 2.448062 1_565
O9 S2 1.507179 1_655
O9 Ta1 2.122169 1_665
O10 Si6 1.589228 1_555
O10 Y1 2.125362 1_555
O11 Si7 1.658662 1_545
O11 Ta1 1.941321 1_655
O12 Si6 1.622177 1_565
O12 Ta2 1.945190 1_565
O13 Si7 1.582269 1_555
O13 Y2 2.106567 1_565
O14 Si4 1.574456 1_555
O14 Y2 2.110916 1_455
O15 Si5 1.633154 1_555
O15 Ta2 1.938308 1_555
O16 S2 1.453287 1_555
O16 Y2 2.444267 1_465
O17 S3 1.473939 1_555
O17 Ta2 2.188924 1_565
O18 Si2 1.594642 1_555
O18 Y3 2.080999 1_555
O19 Si3 1.631583 1_555
O19 Ta3 1.927704 1_655
O20 S0 1.481965 1_455
O20 Ta3 2.147681 1_545
O21 S1 1.464346 1_555
O21 Y3 2.307749 1_545
O22 Si0 1.632196 1_565
O22 Ta3 1.937742 1_555
O23 Si1 1.589346 1_555
O23 Y3 2.083816 1_555
O24 S4 1.474225 1_555
O24 Ta4 2.266668 1_555
O25 Si8 1.676935 1_555
O25 Ta5 1.922484 1_555
O26 S5 1.515510 1_555
O26 Ta4 2.056188 1_555
O27 Si9 1.672683 1_555
O27 Ta5 1.876511 1_555
O28 Si10 1.686226 1_555
O28 Ta4 1.879781 1_555
O29 S6 1.469766 1_555
O29 Ta5 2.299744 1_555
O30 S7 1.506418 1_555
O30 Ta6 2.138915 1_555
O31 S8 1.470576 1_555
O31 Ta7 2.292528 1_555
O32 S9 1.473051 1_555
O32 Ta6 2.276858 1_555
O33 Si11 1.673201 1_555
O33 Ta7 1.893011 1_555
O34 Si12 1.673214 1_555
O34 Ta6 1.878768 1_555
O35 S10 1.499304 1_555
O35 Ta7 2.132853 1_555
O36 Si12 1.636664 1_555
O36 Ta8 1.943226 1_554
O37 S10 1.456221 1_555
O37 Y4 2.247475 1_554
O38 S7 1.482930 1_555
O38 Ta8 2.152756 1_554
O39 S8 1.456965 1_555
O39 Y4 2.260768 1_554
O40 S9 1.475838 1_555
O40 Ta8 2.150541 1_554
O41 Si11 1.584666 1_555
O41 Y4 2.105311 1_554
O42 S5 1.456979 1_555
O42 Y5 2.228303 1_555
O43 Si9 1.623147 1_555
O43 Ta9 1.972499 1_555
O44 Si10 1.584793 1_555
O44 Y5 2.097863 1_555
O45 S6 1.467841 1_555
O45 Ta9 2.164403 1_555
O46 S4 1.455239 1_555
O46 Y5 2.266728 1_555
O47 Si8 1.649024 1_555
O47 Ta9 1.899505 1_555
O48 Si13 1.669851 1_555
O48 Ta10 1.861457 1_556
O49 Si14 1.691143 1_555
O49 Ta11 1.866099 1_556
O50 S11 1.505396 1_555
O50 Ta10 2.116657 1_556
O51 Si15 1.654080 1_555
O51 Ta11 1.906757 1_556
O52 Si16 1.648722 1_555
O52 Ta10 1.940256 1_556
O53 S12 1.517992 1_555
O53 Ta11 2.037301 1_556
O54 Si17 1.637424 1_555
O54 Ta12 1.983145 1_555
O55 Si18 1.666814 1_555
O55 Ta13 1.860694 1_555
O56 S13 1.492649 1_555
O56 Ta12 2.084118 1_555
O57 Si19 1.651606 1_555
O57 Ta13 1.942063 1_555
O58 Si20 1.636305 1_555
O58 Ta12 1.921984 1_555
O59 S14 1.485827 1_555
O59 Ta13 2.178990 1_555
O60 Si20 1.667357 1_555
O60 Ta14 1.939690 1_555
O61 S14 1.464305 1_555
O61 Ta15 2.213731 1_555
O62 Si17 1.666218 1_555
O62 Ta14 1.858671 1_555
O63 Si18 1.648769 1_555
O63 Ta15 1.886218 1_555
O64 S13 1.471648 1_555
O64 Ta14 2.174094 1_555
O65 Si19 1.639273 1_555
O65 Ta15 1.934598 1_555
O66 S11 1.461325 1_555
O66 Ta16 2.223865 1_555
O67 Si15 1.645257 1_555
O67 Ta17 1.976463 1_555
O68 Si16 1.620584 1_555
O68 Ta16 1.960051 1_555
O69 S12 1.461355 1_555
O69 Ta17 2.219826 1_555
O70 Si13 1.633337 1_555
O70 Ta16 1.918252 1_555
O71 Si14 1.641005 1_555
O71 Ta17 1.883763 1_555
O72 Si20 1.600673 1_555
O72 Y0 2.140293 1_555
O73 S14 1.506092 1_555
O73 Ta0 2.056457 1_555
O74 Si17 1.656054 1_555
O74 Ta0 1.914348 1_555
O75 Si18 1.574284 1_555
O75 Y0 2.229201 1_655
O76 S13 1.464805 1_555
O76 Y0 2.378436 1_545
O77 Si19 1.639203 1_555
O77 Ta0 1.930782 1_545
O78 S11 1.492156 1_555
O78 Ta1 2.113752 1_555
O79 Si15 1.595521 1_555
O79 Y1 2.180058 1_555
O80 Si16 1.617782 1_555
O80 Ta1 1.960768 1_565
O81 S12 1.463750 1_555
O81 Y1 2.424408 1_565
O82 Si13 1.574789 1_555
O82 Y1 2.265629 1_565
O83 Si14 1.629282 1_555
O83 Ta1 1.945976 1_665
O84 S4 1.498941 1_555
O84 Ta2 2.037931 1_555
O85 Si8 1.606054 1_555
O85 Y2 2.161217 1_555
O86 S5 1.454180 1_555
O86 Y2 2.353794 1_455
O87 Si9 1.622132 1_555
O87 Ta2 1.945929 1_555
O88 Si10 1.632554 1_555
O88 Ta2 1.907228 1_565
O89 S6 1.458412 1_555
O89 Y2 2.377968 1_565
O90 S7 1.477417 1_555
O90 Y3 2.356538 1_555
O91 S8 1.496222 1_555
O91 Ta3 2.049898 1_655
O92 S9 1.466635 1_555
O92 Y3 2.405855 1_545
O93 Si11 1.632826 1_555
O93 Ta3 1.920560 1_645
O94 Si12 1.614155 1_555
O94 Ta3 1.972739 1_545
O95 S10 1.464351 1_555
O95 Y3 2.355047 1_545
O96 Si6 1.644731 1_555
O96 Ta4 1.924369 1_555
O97 Si7 1.683826 1_545
O97 Ta5 1.907364 1_555
O98 Si4 1.698021 1_555
O98 Ta4 1.899726 1_555
O99 Si5 1.649437 1_555
O99 Ta5 1.943425 1_555
O100 S3 1.526323 1_555
O100 Ta4 2.055775 1_555
O101 S2 1.489570 1_655
O101 Ta5 2.318813 1_555
O102 Si2 1.708313 1_555
O102 Ta6 1.877615 1_555
O103 Si3 1.650081 1_555
O103 Ta7 1.905169 1_555
O104 S1 1.508589 1_555
O104 Ta6 2.178703 1_555
O105 S0 1.535852 1_555
O105 Ta7 2.018382 1_555
O106 Si0 1.688684 1_555
O106 Ta6 1.858878 1_555
O107 Si1 1.704191 1_545
O107 Ta7 1.882851 1_555
O108 Si13 1.663703 1_555
O108 Ta8 1.901601 1_555
O109 Si14 1.594348 1_555
O109 Y4 2.190397 1_555
O110 Si15 1.669174 1_555
O110 Ta8 1.946017 1_555
O111 S11 1.461127 1_655
O111 Y4 2.270423 1_555
O112 Si16 1.663260 1_545
O112 Ta8 1.902288 1_555
O113 S12 1.472728 1_545
O113 Y4 2.282117 1_555
O114 Si17 1.603661 1_545
O114 Y5 2.195569 1_555
O115 Si18 1.644263 1_545
O115 Ta9 1.928842 1_555
O116 S13 1.481415 1_555
O116 Y5 2.292244 1_555
O117 Si19 1.626988 1_555
O117 Ta9 2.004598 1_555
O118 S14 1.464354 1_555
O118 Y5 2.296086 1_555
O119 Si20 1.658656 1_655
O119 Ta9 1.986329 1_555
O120 Si12 1.645661 1_555
O120 Ta10 1.941977 1_555
O121 S10 1.500718 1_555
O121 Ta11 2.096218 1_555
O122 S8 1.493928 1_455
O122 Ta10 2.137249 1_555
O123 S7 1.468229 1_555
O123 Ta11 2.267222 1_555
O124 S9 1.515872 1_565
O124 Ta10 2.069275 1_555
O125 Si11 1.653051 1_565
O125 Ta11 1.921470 1_555
O126 S5 1.484445 1_565
O126 Ta12 2.108117 1_555
O127 Si9 1.648923 1_565
O127 Ta13 1.932580 1_555
O128 Si10 1.628659 1_555
O128 Ta12 1.932704 1_555
O129 S6 1.535034 1_555
O129 Ta13 2.016928 1_555
O130 Si8 1.636376 1_455
O130 Ta12 1.940605 1_555
O131 S4 1.488892 1_555
O131 Ta13 2.152073 1_555
O132 Si0 1.646535 1_565
O132 Ta14 1.902694 1_555
O133 Si1 1.620470 1_555
O133 Ta15 1.919690 1_555
O134 Si2 1.618749 1_555
O134 Ta14 1.948313 1_555
O135 Si3 1.657810 1_555
O135 Ta15 1.881363 1_555
O136 S0 1.460622 1_455
O136 Ta14 2.241454 1_555
O137 S1 1.477052 1_555
O137 Ta15 2.166376 1_555
O138 Si4 1.629688 1_555
O138 Ta16 1.899386 1_555
O139 Si5 1.670638 1_555
O139 Ta17 1.872698 1_555
O140 S2 1.489995 1_555
O140 Ta16 2.118574 1_555
O141 S3 1.473989 1_555
O141 Ta17 2.180801 1_555
O142 Si6 1.665544 1_565
O142 Ta16 1.868839 1_555
O143 Si7 1.634996 1_555
O143 Ta17 1.918000 1_555
