# generated using pymatgen
data_MgV4O7F5
_symmetry_space_group_name_H-M   'P 1'
_cell_length_a   5.23334340
_cell_length_b   7.37437226
_cell_length_c   5.44951326
_cell_angle_alpha   92.94181431
_cell_angle_beta   88.38044971
_cell_angle_gamma   90.04235461
_symmetry_Int_Tables_number   1
_chemical_formula_structural   MgV4O7F5
_chemical_formula_sum   'Mg1 V4 O7 F5'
_cell_volume   209.94989734
_cell_formula_units_Z   1
loop_
 _symmetry_equiv_pos_site_id
 _symmetry_equiv_pos_as_xyz
  1  'x, y, z'
loop_
 _atom_site_type_symbol
 _atom_site_label
 _atom_site_symmetry_multiplicity
 _atom_site_fract_x
 _atom_site_fract_y
 _atom_site_fract_z
 _atom_site_occupancy
  Mg  Mg0  1  0.00286200  0.79155700  0.40726200  1
  V  V0  1  0.47978100  0.51768400  0.51511400  1
  V  V1  1  0.51628300  0.02902600  0.49229300  1
  V  V2  1  0.06310500  0.49456500  0.00069800  1
  V  V3  1  0.00596400  0.99786900  0.98619300  1
  O  O0  1  0.74326600  0.95070200  0.22758900  1
  O  O1  1  0.58330200  0.25198800  0.51187500  1
  O  O2  1  0.37343200  0.74153500  0.49046500  1
  O  O3  1  0.29029100  0.44292600  0.20424300  1
  O  O4  1  0.26079100  0.03161500  0.78438200  1
  O  O5  1  0.19529500  0.44687300  0.71397100  1
  O  O6  1  0.08440200  0.73364800  0.02661300  1
  F  F0  1  0.88423500  0.25785100  0.00742300  1
  F  F1  1  0.81027500  0.56102300  0.33241600  1
  F  F2  1  0.79362500  0.92035000  0.69220700  1
  F  F3  1  0.69268000  0.54904700  0.79865000  1
  F  F4  1  0.20791300  0.04067200  0.29610500  1
loop_
_geom_bond_atom_site_label_1
_geom_bond_atom_site_label_2
_geom_bond_distance
_geom_bond_site_symmetry_2
Mg0 O2 2.042193 1_555
Mg0 O0 2.092173 1_455
Mg0 O6 2.127605 1_555
O0 V1 1.908962 1_565
O0 V3 1.919785 1_654
O1 V1 1.679602 1_555
O1 V0 2.032317 1_555
O2 V0 1.755323 1_555
O2 V1 2.247126 1_565
O3 V2 1.705151 1_555
O3 V0 2.038523 1_555
O4 V3 1.730493 1_545
O4 V1 2.049000 1_555
O5 V2 1.710731 1_556
O5 V0 1.905080 1_555
O6 V2 1.765187 1_555
O6 V3 2.015907 1_554
F0 V2 1.981665 1_655
F0 V3 2.017365 1_644
F1 V0 2.004838 1_555
F1 Mg0 2.005455 1_655
F1 V2 2.243548 1_655
F2 V1 2.028914 1_565
F2 V3 2.033224 1_655
F2 Mg0 2.065520 1_655
F3 V0 1.934570 1_555
F3 V2 2.301954 1_656
F4 V1 1.965182 1_555
F4 V3 2.028439 1_544
F4 Mg0 2.228870 1_545
