# generated using pymatgen
data_Na3ScNb3Si3(PO8)3
_symmetry_space_group_name_H-M   'P 1'
_cell_length_a   8.90783585
_cell_length_b   8.93285064
_cell_length_c   22.94487403
_cell_angle_alpha   89.93995216
_cell_angle_beta   89.98386488
_cell_angle_gamma   119.93302888
_symmetry_Int_Tables_number   1
_chemical_formula_structural   Na3ScNb3Si3(PO8)3
_chemical_formula_sum   'Na9 Sc3 Nb9 Si9 P9 O72'
_cell_volume   1582.23449415
_cell_formula_units_Z   3
loop_
 _symmetry_equiv_pos_site_id
 _symmetry_equiv_pos_as_xyz
  1  'x, y, z'
loop_
 _atom_site_type_symbol
 _atom_site_label
 _atom_site_symmetry_multiplicity
 _atom_site_fract_x
 _atom_site_fract_y
 _atom_site_fract_z
 _atom_site_occupancy
  Na  Na0  1  0.63783499  0.00193717  0.24943218  1
  Na  Na1  1  0.36973483  0.36406073  0.24865077  1
  Na  Na2  1  0.70585252  0.67373235  0.41524041  1
  Na  Na3  1  0.00538010  0.00538927  0.49610722  1
  Na  Na4  1  0.00065460  0.00051478  0.99995571  1
  Na  Na5  1  0.66705219  0.33319737  0.83142283  1
  Na  Na6  1  0.67258747  0.33629856  0.33272116  1
  Na  Na7  1  0.32930943  0.66530578  0.16486120  1
  Na  Na8  1  0.33436930  0.66618855  0.66591604  1
  Sc  Sc0  1  0.00142508  0.99974667  0.35500281  1
  Sc  Sc1  1  0.66471606  0.33626655  0.68559760  1
  Sc  Sc2  1  0.67080913  0.34400507  0.18312301  1
  Nb  Nb0  1  0.00118935  0.00120752  0.85582644  1
  Nb  Nb1  1  0.99731431  0.99701115  0.64460346  1
  Nb  Nb2  1  0.99794014  0.99799630  0.14498366  1
  Nb  Nb3  1  0.66057859  0.33137321  0.97751841  1
  Nb  Nb4  1  0.66818367  0.33434695  0.47899590  1
  Nb  Nb5  1  0.33347359  0.66306814  0.01930479  1
  Nb  Nb6  1  0.33547413  0.66567721  0.51981404  1
  Nb  Nb7  1  0.33290563  0.66742523  0.31618550  1
  Nb  Nb8  1  0.33318979  0.66665708  0.81386241  1
  Si  Si0  1  0.71225614  0.70610546  0.25143206  1
  Si  Si1  1  0.66390676  0.61983136  0.58431555  1
  Si  Si2  1  0.37622205  0.33411176  0.08418613  1
  Si  Si3  1  0.62160159  0.66708124  0.91642544  1
  Si  Si4  1  0.04404451  0.37883395  0.91652263  1
  Si  Si5  1  0.33363766  0.95305489  0.91696134  1
  Si  Si6  1  0.62416378  0.96041494  0.41766245  1
  Si  Si7  1  0.32716856  0.37094511  0.41770540  1
  Si  Si8  1  0.04539917  0.66851632  0.41824856  1
  P  P0  1  0.28761024  0.99795903  0.25000675  1
  P  P1  1  0.99861899  0.28925889  0.25016608  1
  P  P2  1  0.28814333  0.28788546  0.74999944  1
  P  P3  1  0.99927426  0.71160500  0.75037317  1
  P  P4  1  0.71210634  0.00102640  0.75030411  1
  P  P5  1  0.95557325  0.33466004  0.58452004  1
  P  P6  1  0.37937889  0.04454490  0.58432960  1
  P  P7  1  0.95676214  0.62209355  0.08260586  1
  P  P8  1  0.66470240  0.04367178  0.08367576  1
  O  O0  1  0.21111118  0.03570667  0.30304156  1
  O  O1  1  0.82140078  0.79403740  0.30877110  1
  O  O2  1  0.96851738  0.17748465  0.30341673  1
  O  O3  1  0.19467141  0.17296191  0.80423641  1
  O  O4  1  0.97743430  0.80480941  0.80415976  1
  O  O5  1  0.82716971  0.02201639  0.80416517  1
  O  O6  1  0.80228142  0.97171715  0.69592103  1
  O  O7  1  0.17018457  0.19908029  0.69603116  1
  O  O8  1  0.02872964  0.83078650  0.69598877  1
  O  O9  1  0.80428225  0.83858139  0.19385146  1
  O  O10  1  0.03432618  0.20390494  0.19510598  1
  O  O11  1  0.17161020  0.97139765  0.19486235  1
  O  O12  1  0.87600775  0.36288936  0.63823342  1
  O  O13  1  0.48780278  0.12203846  0.63814252  1
  O  O14  1  0.63359629  0.50557151  0.64073040  1
  O  O15  1  0.88165500  0.51452761  0.13762648  1
  O  O16  1  0.63671172  0.11806300  0.13989548  1
  O  O17  1  0.48632539  0.36635359  0.14261770  1
  O  O18  1  0.47071292  0.30408442  0.02686560  1
  O  O19  1  0.84165538  0.53780688  0.02855956  1
  O  O20  1  0.69690758  0.15940177  0.02934043  1
  O  O21  1  0.46258211  0.15879984  0.52897764  1
  O  O22  1  0.69801652  0.53525930  0.52496995  1
  O  O23  1  0.84101305  0.30169556  0.52897696  1
  O  O24  1  0.53161404  0.69906553  0.97330206  1
  O  O25  1  0.16781381  0.46899927  0.97318206  1
  O  O26  1  0.30149644  0.83272750  0.97378231  1
  O  O27  1  0.52633153  0.83062891  0.47263076  1
  O  O28  1  0.30860179  0.47528670  0.47318370  1
  O  O29  1  0.16712864  0.69215217  0.47399746  1
  O  O30  1  0.13525246  0.63254498  0.36003868  1
  O  O31  1  0.50005869  0.86835804  0.35855943  1
  O  O32  1  0.37148567  0.50187178  0.35935529  1
  O  O33  1  0.13790673  0.50162743  0.85940868  1
  O  O34  1  0.36378917  0.86190935  0.85938335  1
  O  O35  1  0.49844748  0.63560947  0.85943474  1
  O  O36  1  0.01561604  0.82922307  0.41277238  1
  O  O37  1  0.80551026  0.96766304  0.41205116  1
  O  O38  1  0.16238554  0.18665288  0.41180115  1
  O  O39  1  0.02481083  0.18837496  0.90693001  1
  O  O40  1  0.16450615  0.97629065  0.90686520  1
  O  O41  1  0.81261209  0.83675768  0.90698803  1
  O  O42  1  0.97745648  0.17070512  0.59178401  1
  O  O43  1  0.19420303  0.02563146  0.59180475  1
  O  O44  1  0.83881841  0.81683807  0.59281091  1
  O  O45  1  0.97586782  0.80584879  0.09058170  1
  O  O46  1  0.83038039  0.02415321  0.09025770  1
  O  O47  1  0.18189888  0.16075736  0.09117320  1
  O  O48  1  0.69287366  0.15948335  0.74457218  1
  O  O49  1  0.46668735  0.30580365  0.74558983  1
  O  O50  1  0.84124118  0.53290756  0.74501378  1
  O  O51  1  0.67646385  0.51082981  0.24486410  1
  O  O52  1  0.83544114  0.30406619  0.24206012  1
  O  O53  1  0.47228770  0.15483586  0.24242238  1
  O  O54  1  0.64412631  0.49787921  0.92539052  1
  O  O55  1  0.85372122  0.35725513  0.92593734  1
  O  O56  1  0.50451774  0.14476895  0.92500157  1
  O  O57  1  0.63681799  0.14722968  0.42530980  1
  O  O58  1  0.51056363  0.36884706  0.42518674  1
  O  O59  1  0.85288528  0.49278251  0.42518578  1
  O  O60  1  0.35257861  0.50367478  0.07438099  1
  O  O61  1  0.14091550  0.64791278  0.07468662  1
  O  O62  1  0.50563119  0.86117780  0.07488614  1
  O  O63  1  0.35208968  0.86087467  0.57497453  1
  O  O64  1  0.49803757  0.64920919  0.57500824  1
  O  O65  1  0.13823773  0.49310892  0.57517406  1
  O  O66  1  0.30901259  0.83465772  0.25465993  1
  O  O67  1  0.51616028  0.69276312  0.25500869  1
  O  O68  1  0.16771472  0.46958816  0.25500997  1
  O  O69  1  0.30278533  0.46879422  0.75733395  1
  O  O70  1  0.16683231  0.69820408  0.75688427  1
  O  O71  1  0.53176766  0.83365381  0.75699325  1
loop_
_geom_bond_atom_site_label_1
_geom_bond_atom_site_label_2
_geom_bond_distance
_geom_bond_site_symmetry_2
Na0 O52 2.380926 1_555
Na0 O67 2.414649 1_545
Na0 O53 2.464895 1_555
Na0 O66 2.541312 1_545
Na0 O16 2.719886 1_555
Na0 O31 2.780316 1_545
Na0 O2 2.840171 1_555
Na0 O9 2.848881 1_545
Na1 O51 2.369922 1_555
Na1 O68 2.416900 1_555
Na1 O53 2.460162 1_555
Na1 O67 2.554024 1_555
Na1 O17 2.641092 1_555
Na1 O32 2.820505 1_555
Na1 O0 2.830645 1_555
Na1 O10 2.867554 1_555
Na2 O37 2.315344 1_555
Na2 O36 2.391903 1_655
Na2 O58 2.401248 1_555
Na2 O59 2.548022 1_555
Na2 O1 2.659211 1_555
Na2 O22 2.789465 1_555
Na2 O32 2.883646 1_555
Na2 O27 2.914610 1_555
Na3 O38 2.460005 1_555
Na3 O36 2.508047 1_545
Na3 O37 2.531333 1_445
Na3 O43 2.717097 1_555
Na3 O42 2.726722 1_455
Na3 O44 2.730921 1_445
Na4 O47 2.595755 1_556
Na4 O46 2.637617 1_456
Na4 O45 2.646792 1_446
Na4 O39 2.655223 1_555
Na4 O40 2.655907 1_545
Na4 O41 2.656898 1_445
Na5 O49 2.586739 1_555
Na5 O50 2.597966 1_555
Na5 O48 2.606618 1_555
Na5 O56 2.664257 1_555
Na5 O55 2.675903 1_555
Na5 O54 2.675941 1_555
Na6 O51 2.536778 1_555
Na6 O59 2.608104 1_555
Na6 O57 2.631019 1_555
Na6 O52 2.632681 1_555
Na6 O58 2.662177 1_555
Na6 O53 2.688232 1_555
Na7 O67 2.589299 1_555
Na7 O60 2.596597 1_555
Na7 O66 2.616459 1_555
Na7 O61 2.619885 1_555
Na7 O68 2.624187 1_555
Na7 O62 2.652998 1_555
Na8 O64 2.592112 1_555
Na8 O71 2.660894 1_555
Na8 O69 2.661766 1_555
Na8 O65 2.662866 1_555
Na8 O70 2.662911 1_555
Na8 O63 2.668654 1_555
Nb0 O40 1.964935 1_545
Nb0 O39 1.966652 1_555
Nb0 O41 1.972411 1_445
Nb0 O3 2.020328 1_555
Nb0 O5 2.032411 1_455
Nb0 O4 2.040114 1_445
Nb1 O44 1.932138 1_555
Nb1 O6 2.015521 1_555
Nb1 O8 2.020998 1_655
Nb1 O43 2.039526 1_665
Nb1 O42 2.043910 1_565
Nb1 O7 2.062385 1_665
Nb2 O9 1.950630 1_555
Nb2 O47 1.985190 1_665
Nb2 O11 2.031449 1_655
Nb2 O46 2.051257 1_565
Nb2 O45 2.052005 1_555
Nb2 O10 2.054401 1_665
Nb3 O18 1.946487 1_556
Nb3 O56 1.963598 1_555
Nb3 O54 1.969326 1_555
Nb3 O55 2.003883 1_555
Nb3 O20 2.090687 1_556
Nb3 O19 2.100235 1_556
Nb4 O59 1.976301 1_555
Nb4 O57 1.981860 1_555
Nb4 O22 1.983064 1_555
Nb4 O58 2.005667 1_555
Nb4 O23 2.053980 1_555
Nb4 O21 2.063347 1_555
Nb5 O25 1.937676 1_554
Nb5 O24 1.940260 1_554
Nb5 O60 1.972670 1_555
Nb5 O26 1.973999 1_554
Nb5 O61 2.083727 1_555
Nb5 O62 2.099380 1_555
Nb6 O28 1.921509 1_555
Nb6 O27 1.931121 1_555
Nb6 O29 1.940142 1_555
Nb6 O64 1.983851 1_555
Nb6 O65 2.090071 1_555
Nb6 O63 2.100318 1_555
Nb7 O30 1.913199 1_555
Nb7 O31 1.929077 1_555
Nb7 O32 1.946949 1_555
Nb7 O67 2.077412 1_555
Nb7 O66 2.140762 1_555
Nb7 O68 2.160988 1_555
Nb8 O33 1.930780 1_555
Nb8 O34 1.933091 1_555
Nb8 O35 1.935215 1_555
Nb8 O70 2.098012 1_555
Nb8 O69 2.099266 1_555
Nb8 O71 2.101949 1_555
O0 P0 1.512798 1_545
O0 Sc0 2.100631 1_545
O1 Si0 1.591821 1_555
O1 Sc0 2.034152 1_655
O2 P1 1.513858 1_555
O2 Sc0 2.113874 1_645
O3 P2 1.561906 1_555
O4 P3 1.554919 1_555
O5 P4 1.556408 1_555
O6 P4 1.575062 1_565
O7 P2 1.561312 1_555
O8 P3 1.574056 1_455
O9 Si0 1.686982 1_555
O10 P1 1.588197 1_455
O11 P0 1.575326 1_555
O12 P5 1.504451 1_555
O12 Sc1 2.081277 1_555
O13 P6 1.507251 1_555
O13 Sc1 2.080118 1_555
O14 Si1 1.585000 1_555
O14 Sc1 1.959396 1_555
O15 P7 1.523177 1_555
O15 Sc2 2.019412 1_555
O16 P8 1.527978 1_555
O16 Sc2 2.131235 1_555
O17 Si2 1.600631 1_555
O17 Sc2 1.982952 1_555
O18 Si2 1.653976 1_555
O19 P7 1.545405 1_555
O20 P8 1.551279 1_555
O21 P6 1.563918 1_555
O22 Si1 1.657777 1_555
O23 P5 1.566491 1_555
O24 Si3 1.629734 1_555
O25 Si4 1.634373 1_555
O26 Si5 1.620743 1_555
O27 Si6 1.637779 1_555
O28 Si7 1.634839 1_555
O29 Si8 1.621567 1_555
O30 Si8 1.668751 1_555
O31 Si6 1.683254 1_555
O32 Si7 1.688734 1_555
O33 Si4 1.643381 1_555
O34 Si5 1.643378 1_555
O35 Si3 1.638978 1_555
O36 Si8 1.589580 1_555
O36 Sc0 2.069137 1_555
O37 Si6 1.589272 1_555
O37 Sc0 2.083255 1_655
O38 Si7 1.572299 1_555
O38 Sc0 2.039207 1_545
O39 Si4 1.637763 1_555
O40 Si5 1.636689 1_555
O41 Si3 1.632384 1_555
O42 P5 1.579623 1_555
O43 P6 1.581304 1_555
O44 Si1 1.681400 1_555
O45 P7 1.574387 1_555
O46 P8 1.577390 1_555
O47 Si2 1.656586 1_555
O48 P4 1.513883 1_555
O48 Sc1 2.186041 1_555
O49 P2 1.520257 1_555
O49 Sc1 2.144612 1_555
O50 P3 1.517519 1_555
O50 Sc1 2.160189 1_555
O51 Si0 1.616394 1_555
O51 Sc2 2.039539 1_555
O52 P1 1.535222 1_555
O52 Sc2 2.151495 1_555
O53 P0 1.548877 1_545
O53 Sc2 2.201273 1_555
O54 Si3 1.633738 1_555
O55 Si4 1.622240 1_655
O56 Si5 1.638041 1_545
O57 Si6 1.625191 1_545
O58 Si7 1.652074 1_555
O59 Si8 1.656257 1_655
O60 Si2 1.645268 1_555
O61 P7 1.548973 1_455
O62 P8 1.549713 1_565
O63 P6 1.549129 1_565
O64 Si1 1.638477 1_555
O65 P5 1.548456 1_455
O66 P0 1.566179 1_555
O67 Si0 1.692437 1_555
O68 P1 1.566865 1_455
O69 P2 1.564328 1_555
O70 P3 1.562960 1_455
O71 P4 1.562685 1_565
