# generated using pymatgen
data_SmCuSeF
_symmetry_space_group_name_H-M   'P 1'
_cell_length_a   3.82496600
_cell_length_b   3.82496600
_cell_length_c   9.35121700
_cell_angle_alpha   90.00000000
_cell_angle_beta   90.00000000
_cell_angle_gamma   90.00000000
_symmetry_Int_Tables_number   1
_chemical_formula_structural   SmCuSeF
_chemical_formula_sum   'Sm2 Cu2 Se2 F2'
_cell_volume   136.81171698
_cell_formula_units_Z   2
loop_
 _symmetry_equiv_pos_site_id
 _symmetry_equiv_pos_as_xyz
  1  'x, y, z'
loop_
 _atom_site_type_symbol
 _atom_site_label
 _atom_site_symmetry_multiplicity
 _atom_site_fract_x
 _atom_site_fract_y
 _atom_site_fract_z
 _atom_site_occupancy
  Sm  Sm0  1  0.50000000  0.00000000  0.17452900  1
  Sm  Sm1  1  0.00000000  0.50000000  0.82547100  1
  Cu  Cu0  1  0.50000000  0.50000000  0.50000000  1
  Cu  Cu1  1  0.00000000  0.00000000  0.50000000  1
  Se  Se0  1  0.00000000  0.50000000  0.30147000  1
  Se  Se1  1  0.50000000  0.00000000  0.69853000  1
  F  F0  1  0.00000000  0.00000000  0.00000000  1
  F  F1  1  0.50000000  0.50000000  0.00000000  1
loop_
_geom_bond_atom_site_label_1
_geom_bond_atom_site_label_2
_geom_bond_distance
_geom_bond_site_symmetry_2
Cu0 Se0 2.665365 1_555
Cu0 Se0 2.665365 1_655
Cu0 Se1 2.665365 1_565
Cu0 Se1 2.665365 1_555
Cu1 Se0 2.665365 1_555
Cu1 Se0 2.665365 1_545
Cu1 Se1 2.665365 1_555
Cu1 Se1 2.665365 1_455
Se0 Sm0 2.953689 1_465
Se0 Sm0 2.953689 1_555
Se0 Sm0 2.953689 1_565
Se0 Sm0 2.953689 1_455
Se1 Sm1 2.953689 1_655
Se1 Sm1 2.953689 1_645
Se1 Sm1 2.953689 1_555
Se1 Sm1 2.953689 1_545
F0 Sm0 2.514201 1_555
F0 Sm0 2.514201 1_455
F0 Sm1 2.514201 1_544
F0 Sm1 2.514201 1_554
F1 Sm0 2.514201 1_555
F1 Sm0 2.514201 1_565
F1 Sm1 2.514201 1_554
F1 Sm1 2.514201 1_654
