# generated using pymatgen
data_CaCrH2O5
_symmetry_space_group_name_H-M   'P 1'
_cell_length_a   8.02743700
_cell_length_b   8.29902400
_cell_length_c   12.80539400
_cell_angle_alpha   90.00000000
_cell_angle_beta   90.00000000
_cell_angle_gamma   90.00000000
_symmetry_Int_Tables_number   1
_chemical_formula_structural   CaCrH2O5
_chemical_formula_sum   'Ca8 Cr8 H16 O40'
_cell_volume   853.09396941
_cell_formula_units_Z   8
loop_
 _symmetry_equiv_pos_site_id
 _symmetry_equiv_pos_as_xyz
  1  'x, y, z'
loop_
 _atom_site_type_symbol
 _atom_site_label
 _atom_site_symmetry_multiplicity
 _atom_site_fract_x
 _atom_site_fract_y
 _atom_site_fract_z
 _atom_site_occupancy
  Ca  Ca0  1  0.26504700  0.09777300  0.33060800  1
  Ca  Ca1  1  0.76504700  0.40222700  0.66939200  1
  Ca  Ca2  1  0.73495300  0.59777300  0.16939200  1
  Ca  Ca3  1  0.23495300  0.90222700  0.83060800  1
  Ca  Ca4  1  0.73495300  0.90222700  0.66939200  1
  Ca  Ca5  1  0.23495300  0.59777300  0.33060800  1
  Ca  Ca6  1  0.26504700  0.40222700  0.83060800  1
  Ca  Ca7  1  0.76504700  0.09777300  0.16939200  1
  Cr  Cr0  1  0.12912000  0.38039300  0.12342700  1
  Cr  Cr1  1  0.62912000  0.11960700  0.87657300  1
  Cr  Cr2  1  0.87088000  0.88039300  0.37657300  1
  Cr  Cr3  1  0.37088000  0.61960700  0.62342700  1
  Cr  Cr4  1  0.87088000  0.61960700  0.87657300  1
  Cr  Cr5  1  0.37088000  0.88039300  0.12342700  1
  Cr  Cr6  1  0.12912000  0.11960700  0.62342700  1
  Cr  Cr7  1  0.62912000  0.38039300  0.37657300  1
  H  H0  1  0.56791000  0.33991300  0.03472600  1
  H  H1  1  0.06791000  0.16008700  0.96527400  1
  H  H2  1  0.43209000  0.83991300  0.46527400  1
  H  H3  1  0.93209000  0.66008700  0.53472600  1
  H  H4  1  0.43209000  0.66008700  0.96527400  1
  H  H5  1  0.93209000  0.83991300  0.03472600  1
  H  H6  1  0.56791000  0.16008700  0.53472600  1
  H  H7  1  0.06791000  0.33991300  0.46527400  1
  H  H8  1  0.47947400  0.33662400  0.14445800  1
  H  H9  1  0.97947400  0.16337600  0.85554200  1
  H  H10  1  0.52052600  0.83662400  0.35554200  1
  H  H11  1  0.02052600  0.66337600  0.64445800  1
  H  H12  1  0.52052600  0.66337600  0.85554200  1
  H  H13  1  0.02052600  0.83662400  0.14445800  1
  H  H14  1  0.47947400  0.16337600  0.64445800  1
  H  H15  1  0.97947400  0.33662400  0.35554200  1
  O  O0  1  0.49430100  0.77629800  0.60014800  1
  O  O1  1  0.70742200  0.05567700  0.98732800  1
  O  O2  1  0.79257800  0.94432300  0.48732800  1
  O  O3  1  0.29257800  0.55567700  0.51267200  1
  O  O4  1  0.79257800  0.55567700  0.98732800  1
  O  O5  1  0.29257800  0.94432300  0.01267200  1
  O  O6  1  0.20742200  0.05567700  0.51267200  1
  O  O7  1  0.70742200  0.44432300  0.48732800  1
  O  O8  1  0.00569900  0.22370200  0.10014800  1
  O  O9  1  0.50569900  0.27629800  0.89985200  1
  O  O10  1  0.99430100  0.72370200  0.39985200  1
  O  O11  1  0.20742200  0.44432300  0.01267200  1
  O  O12  1  0.99430100  0.77629800  0.89985200  1
  O  O13  1  0.49430100  0.72370200  0.10014800  1
  O  O14  1  0.00569900  0.27629800  0.60014800  1
  O  O15  1  0.50569900  0.22370200  0.39985200  1
  O  O16  1  0.28429400  0.32661300  0.20415900  1
  O  O17  1  0.78429400  0.17338700  0.79584100  1
  O  O18  1  0.71570600  0.82661300  0.29584100  1
  O  O19  1  0.21570600  0.67338700  0.70415900  1
  O  O20  1  0.71570600  0.67338700  0.79584100  1
  O  O21  1  0.21570600  0.82661300  0.20415900  1
  O  O22  1  0.28429400  0.17338700  0.70415900  1
  O  O23  1  0.78429400  0.32661300  0.29584100  1
  O  O24  1  0.02627300  0.52710100  0.18533800  1
  O  O25  1  0.52627300  0.97289900  0.81466200  1
  O  O26  1  0.97372700  0.02710100  0.31466200  1
  O  O27  1  0.47372700  0.47289900  0.68533800  1
  O  O28  1  0.97372700  0.47289900  0.81466200  1
  O  O29  1  0.47372700  0.02710100  0.18533800  1
  O  O30  1  0.02627300  0.97289900  0.68533800  1
  O  O31  1  0.52627300  0.52710100  0.31466200  1
  O  O32  1  0.09100800  0.34755000  0.38943500  1
  O  O33  1  0.59100800  0.15245000  0.61056500  1
  O  O34  1  0.90899200  0.84755000  0.11056500  1
  O  O35  1  0.40899200  0.65245000  0.88943500  1
  O  O36  1  0.90899200  0.65245000  0.61056500  1
  O  O37  1  0.40899200  0.84755000  0.38943500  1
  O  O38  1  0.59100800  0.34755000  0.11056500  1
  O  O39  1  0.09100800  0.15245000  0.88943500  1
loop_
_geom_bond_atom_site_label_1
_geom_bond_atom_site_label_2
_geom_bond_distance
_geom_bond_site_symmetry_2
Ca0 O15 2.368621 1_555
Ca0 O6 2.402387 1_555
Ca0 O26 2.419611 1_455
Ca0 O37 2.492983 1_545
Ca0 O16 2.500508 1_555
Ca0 O29 2.571121 1_555
Ca0 O32 2.610796 1_555
Ca0 O21 2.800521 1_545
Ca1 O14 2.368621 1_655
Ca1 O7 2.402387 1_555
Ca1 O27 2.419611 1_555
Ca1 O36 2.492983 1_555
Ca1 O17 2.500508 1_555
Ca1 O28 2.571121 1_555
Ca1 O33 2.610796 1_555
Ca1 O20 2.800521 1_555
Ca2 O13 2.368621 1_555
Ca2 O4 2.402387 1_554
Ca2 O24 2.419611 1_655
Ca2 O38 2.492983 1_555
Ca2 O18 2.500508 1_555
Ca2 O31 2.571121 1_555
Ca2 O34 2.610796 1_555
Ca2 O23 2.800521 1_555
Ca3 O12 2.368621 1_455
Ca3 O5 2.402387 1_556
Ca3 O25 2.419611 1_555
Ca3 O39 2.492983 1_565
Ca3 O19 2.500508 1_555
Ca3 O30 2.571121 1_555
Ca3 O35 2.610796 1_555
Ca3 O22 2.800521 1_565
Ca4 O0 2.368621 1_555
Ca4 O2 2.402387 1_555
Ca4 O30 2.419611 1_655
Ca4 O33 2.492983 1_565
Ca4 O20 2.500508 1_555
Ca4 O25 2.571121 1_555
Ca4 O36 2.610796 1_555
Ca4 O17 2.800521 1_565
Ca5 O10 2.368621 1_455
Ca5 O3 2.402387 1_555
Ca5 O31 2.419611 1_555
Ca5 O32 2.492983 1_555
Ca5 O21 2.500508 1_555
Ca5 O24 2.571121 1_555
Ca5 O37 2.610796 1_555
Ca5 O16 2.800521 1_555
Ca6 O9 2.368621 1_555
Ca6 O11 2.402387 1_556
Ca6 O28 2.419611 1_455
Ca6 O35 2.492983 1_555
Ca6 O22 2.500508 1_555
Ca6 O27 2.571121 1_555
Ca6 O39 2.610796 1_555
Ca6 O19 2.800521 1_555
Ca7 O8 2.368621 1_655
Ca7 O1 2.402387 1_554
Ca7 O29 2.419611 1_555
Ca7 O34 2.492983 1_545
Ca7 O23 2.500508 1_555
Ca7 O26 2.571121 1_555
Ca7 O38 2.610796 1_555
Ca7 O18 2.800521 1_545
Cr0 O11 1.639527 1_555
Cr0 O8 1.661761 1_555
Cr0 O24 1.671084 1_555
Cr0 O16 1.679166 1_555
Cr1 O1 1.639527 1_555
Cr1 O9 1.661761 1_555
Cr1 O25 1.671084 1_545
Cr1 O17 1.679166 1_555
Cr2 O2 1.639527 1_555
Cr2 O10 1.661761 1_555
Cr2 O26 1.671084 1_565
Cr2 O18 1.679166 1_555
Cr3 O3 1.639527 1_555
Cr3 O0 1.661761 1_555
Cr3 O27 1.671084 1_555
Cr3 O19 1.679166 1_555
Cr4 O4 1.639527 1_555
Cr4 O12 1.661761 1_555
Cr4 O28 1.671084 1_555
Cr4 O20 1.679166 1_555
Cr5 O5 1.639527 1_555
Cr5 O13 1.661761 1_555
Cr5 O29 1.671084 1_565
Cr5 O21 1.679166 1_555
Cr6 O6 1.639527 1_555
Cr6 O14 1.661761 1_555
Cr6 O30 1.671084 1_545
Cr6 O22 1.679166 1_555
Cr7 O7 1.639527 1_555
Cr7 O15 1.661761 1_555
Cr7 O31 1.671084 1_555
Cr7 O23 1.679166 1_555
H0 O38 0.990720 1_555
H1 O39 0.990720 1_555
H2 O37 0.990720 1_555
H3 O36 0.990720 1_555
H4 O35 0.990720 1_555
H5 O34 0.990720 1_555
H6 O33 0.990720 1_555
H7 O32 0.990720 1_555
H8 O38 0.999104 1_555
H9 O39 0.999104 1_655
H10 O37 0.999104 1_555
H11 O36 0.999104 1_455
H12 O35 0.999104 1_555
H13 O34 0.999104 1_455
H14 O33 0.999104 1_555
H15 O32 0.999104 1_655
