# generated using pymatgen
data_NaS
_symmetry_space_group_name_H-M   'P 1'
_cell_length_a   4.45154640
_cell_length_b   4.45154804
_cell_length_c   10.17580278
_cell_angle_alpha   90.00000000
_cell_angle_beta   90.00000000
_cell_angle_gamma   119.99998783
_symmetry_Int_Tables_number   1
_chemical_formula_structural   NaS
_chemical_formula_sum   'Na4 S4'
_cell_volume   174.63099763
_cell_formula_units_Z   4
loop_
 _symmetry_equiv_pos_site_id
 _symmetry_equiv_pos_as_xyz
  1  'x, y, z'
loop_
 _atom_site_type_symbol
 _atom_site_label
 _atom_site_symmetry_multiplicity
 _atom_site_fract_x
 _atom_site_fract_y
 _atom_site_fract_z
 _atom_site_occupancy
  Na  Na0  1  0.00000000  -0.00000000  0.00000000  1
  Na  Na1  1  0.00000000  -0.00000000  0.50000000  1
  Na  Na2  1  0.33333300  0.66666700  0.25000000  1
  Na  Na3  1  0.66666700  0.33333300  0.75000000  1
  S  S0  1  0.33333300  0.66666700  0.64418912  1
  S  S1  1  0.66666700  0.33333300  0.14418912  1
  S  S2  1  0.66666700  0.33333300  0.35581088  1
  S  S3  1  0.33333300  0.66666700  0.85581088  1
loop_
_geom_bond_atom_site_label_1
_geom_bond_atom_site_label_2
_geom_bond_distance
_geom_bond_site_symmetry_2
Na0 S1 2.959426 1_455
Na0 S3 2.959426 1_544
Na0 S3 2.959430 1_444
Na0 S1 2.959430 1_555
Na0 S1 2.959430 1_445
Na0 S3 2.959430 1_554
Na1 S2 2.959426 1_455
Na1 S0 2.959426 1_545
Na1 S0 2.959430 1_445
Na1 S2 2.959430 1_555
Na1 S2 2.959430 1_445
Na1 S0 2.959430 1_555
Na2 S2 2.786524 1_455
Na2 S1 2.786524 1_455
Na2 S2 2.786525 1_565
Na2 S1 2.786525 1_565
Na2 S1 2.786531 1_555
Na2 S2 2.786531 1_555
Na3 S0 2.786524 1_655
Na3 S3 2.786524 1_655
Na3 S3 2.786525 1_545
Na3 S0 2.786525 1_545
Na3 S0 2.786531 1_555
Na3 S3 2.786531 1_555
S0 S3 2.153421 1_555
S1 S2 2.153421 1_555
