# generated using pymatgen
data_Ta3SeI7
_symmetry_space_group_name_H-M   'P 1'
_cell_length_a   7.64371443
_cell_length_b   7.64371443
_cell_length_c   14.83594600
_cell_angle_alpha   90.00000000
_cell_angle_beta   90.00000000
_cell_angle_gamma   120.00000372
_symmetry_Int_Tables_number   1
_chemical_formula_structural   Ta3SeI7
_chemical_formula_sum   'Ta6 Se2 I14'
_cell_volume   750.67986311
_cell_formula_units_Z   2
loop_
 _symmetry_equiv_pos_site_id
 _symmetry_equiv_pos_as_xyz
  1  'x, y, z'
loop_
 _atom_site_type_symbol
 _atom_site_label
 _atom_site_symmetry_multiplicity
 _atom_site_fract_x
 _atom_site_fract_y
 _atom_site_fract_z
 _atom_site_occupancy
  Ta  Ta0  1  0.12975100  0.87024900  0.75015500  1
  Ta  Ta1  1  0.25950300  0.12975100  0.25015500  1
  Ta  Ta2  1  0.87024900  0.74049700  0.25015500  1
  Ta  Ta3  1  0.12975100  0.25950300  0.75015500  1
  Ta  Ta4  1  0.74049700  0.87024900  0.75015500  1
  Ta  Ta5  1  0.87024900  0.12975100  0.25015500  1
  Se  Se0  1  0.00000000  0.00000000  0.87760100  1
  Se  Se1  1  0.00000000  0.00000000  0.37760100  1
  I  I0  1  0.49793500  0.99587000  0.35440100  1
  I  I1  1  0.50206500  0.00413000  0.85440100  1
  I  I2  1  0.99587000  0.49793500  0.85440100  1
  I  I3  1  0.49793500  0.50206500  0.35440100  1
  I  I4  1  0.00413000  0.50206500  0.35440100  1
  I  I5  1  0.50206500  0.49793500  0.85440100  1
  I  I6  1  0.33333300  0.66666700  0.65395000  1
  I  I7  1  0.66666700  0.33333300  0.15395000  1
  I  I8  1  0.83219600  0.16780400  0.62376100  1
  I  I9  1  0.66439200  0.83219600  0.12376100  1
  I  I10  1  0.16780400  0.33560800  0.12376100  1
  I  I11  1  0.83219600  0.66439200  0.62376100  1
  I  I12  1  0.33560800  0.16780400  0.62376100  1
  I  I13  1  0.16780400  0.83219600  0.12376100  1
loop_
_geom_bond_atom_site_label_1
_geom_bond_atom_site_label_2
_geom_bond_distance
_geom_bond_site_symmetry_2
Se0 Ta0 2.554591 1_545
Se0 Ta3 2.554596 1_555
Se0 Ta4 2.554596 1_445
Se1 Ta5 2.554591 1_455
Se1 Ta2 2.554596 1_445
Se1 Ta1 2.554596 1_555
I0 Ta1 2.936965 1_565
I0 Ta5 2.936971 1_565
I1 Ta4 2.936965 1_545
I1 Ta0 2.936971 1_545
I2 Ta3 2.936965 1_655
I2 Ta0 2.936971 1_655
I3 Ta1 2.936970 1_555
I3 Ta2 2.936970 1_555
I4 Ta2 2.936965 1_455
I4 Ta5 2.936971 1_455
I5 Ta4 2.936970 1_555
I5 Ta3 2.936970 1_555
I6 Ta3 3.049871 1_555
I6 Ta4 3.049871 1_555
I6 Ta0 3.049872 1_555
I7 Ta1 3.049871 1_555
I7 Ta2 3.049871 1_555
I7 Ta5 3.049872 1_555
I8 Ta3 2.754340 1_655
I8 Ta4 2.754340 1_545
I9 Ta5 2.754341 1_565
I9 Ta2 2.754345 1_555
I10 Ta5 2.754341 1_455
I10 Ta1 2.754345 1_555
I11 Ta0 2.754341 1_655
I11 Ta4 2.754345 1_555
I12 Ta0 2.754341 1_545
I12 Ta3 2.754345 1_555
I13 Ta1 2.754340 1_565
I13 Ta2 2.754340 1_455
