# generated using pymatgen
data_Sr2MgZrCrO6
_symmetry_space_group_name_H-M   'P 1'
_cell_length_a   6.86384329
_cell_length_b   5.66908118
_cell_length_c   5.43999861
_cell_angle_alpha   90.08426853
_cell_angle_beta   118.46956788
_cell_angle_gamma   114.43484539
_symmetry_Int_Tables_number   1
_chemical_formula_structural   Sr2MgZrCrO6
_chemical_formula_sum   'Sr2 Mg1 Zr1 Cr1 O6'
_cell_volume   164.11231593
_cell_formula_units_Z   1
loop_
 _symmetry_equiv_pos_site_id
 _symmetry_equiv_pos_as_xyz
  1  'x, y, z'
loop_
 _atom_site_type_symbol
 _atom_site_label
 _atom_site_symmetry_multiplicity
 _atom_site_fract_x
 _atom_site_fract_y
 _atom_site_fract_z
 _atom_site_occupancy
  Sr  Sr0  1  0.45303600  0.20483200  0.77588500  1
  Sr  Sr1  1  0.59627600  0.77668000  0.29330000  1
  Mg  Mg0  1  0.02596100  0.51613900  0.03615600  1
  Zr  Zr0  1  0.02227100  0.50708100  0.53330700  1
  Cr  Cr0  1  0.02206700  0.00525900  0.03236200  1
  O  O0  1  0.87328500  0.18497800  0.17582900  1
  O  O1  1  0.18437100  0.83546000  0.89999600  1
  O  O2  1  0.71001000  0.38531500  0.56354100  1
  O  O3  1  0.33207400  0.69650100  0.49557100  1
  O  O4  1  0.86058500  0.67326900  0.16383300  1
  O  O5  1  0.17006200  0.33353400  0.88736300  1
loop_
_geom_bond_atom_site_label_1
_geom_bond_atom_site_label_2
_geom_bond_distance
_geom_bond_site_symmetry_2
Mg0 O4 2.037343 1_455
Mg0 O1 2.037469 1_554
Mg0 O5 2.076783 1_554
Mg0 O0 2.082244 1_455
Mg0 O3 2.216980 1_555
Mg0 O2 2.282818 1_454
Cr0 O0 2.075657 1_455
Cr0 O4 2.077532 1_445
Cr0 O5 2.078869 1_554
Cr0 O1 2.082332 1_544
O0 Zr0 2.170398 1_655
O0 Sr1 2.627345 1_545
O0 Sr0 2.711609 1_554
O1 Zr0 2.200496 1_555
O1 Sr0 2.497556 1_565
O1 Sr1 2.774269 1_556
O2 Zr0 2.051762 1_655
O2 Sr0 2.438294 1_555
O2 Sr1 2.835764 1_555
O3 Zr0 2.060267 1_555
O3 Sr1 2.434726 1_555
O3 Sr0 2.849532 1_565
O4 Zr0 2.214285 1_655
O4 Sr1 2.495555 1_555
O4 Sr0 2.746015 1_554
O5 Zr0 2.162231 1_555
O5 Sr0 2.639450 1_555
O5 Sr1 2.736869 1_556
