# generated using pymatgen
data_Mg5Si9
_symmetry_space_group_name_H-M   'P 1'
_cell_length_a   7.39191420
_cell_length_b   7.45077571
_cell_length_c   11.06256707
_cell_angle_alpha   99.30225380
_cell_angle_beta   99.46921071
_cell_angle_gamma   118.24169668
_symmetry_Int_Tables_number   1
_chemical_formula_structural   Mg5Si9
_chemical_formula_sum   'Mg10 Si18'
_cell_volume   508.92912953
_cell_formula_units_Z   2
loop_
 _symmetry_equiv_pos_site_id
 _symmetry_equiv_pos_as_xyz
  1  'x, y, z'
loop_
 _atom_site_type_symbol
 _atom_site_label
 _atom_site_symmetry_multiplicity
 _atom_site_fract_x
 _atom_site_fract_y
 _atom_site_fract_z
 _atom_site_occupancy
  Mg  Mg0  1  0.69859162  0.27876601  0.24533680  1
  Mg  Mg1  1  0.93952726  0.51994633  0.55659907  1
  Mg  Mg2  1  0.82500102  0.05731693  0.48298311  1
  Mg  Mg3  1  0.16131278  0.00885225  0.66162369  1
  Mg  Mg4  1  0.42312203  0.20756552  0.43355281  1
  Mg  Mg5  1  0.37161751  0.80047681  0.50868578  1
  Mg  Mg6  1  0.43593543  0.11226043  0.94832169  1
  Mg  Mg7  1  0.33211574  0.40164670  0.14562549  1
  Mg  Mg8  1  0.10680611  0.42651464  0.85068893  1
  Mg  Mg9  1  0.79347022  0.64287839  0.03544389  1
  Si  Si0  1  0.70091895  0.97694200  0.74404556  1
  Si  Si1  1  0.45986017  0.75572127  0.04888373  1
  Si  Si2  1  0.30329939  0.43791741  0.63063035  1
  Si  Si3  1  0.65101805  0.59537474  0.38693203  1
  Si  Si4  1  0.67137918  0.67663293  0.60788083  1
  Si  Si5  1  0.04346919  0.05456611  0.25431366  1
  Si  Si6  1  0.88348383  0.64280046  0.79142368  1
  Si  Si7  1  0.11258500  0.59958889  0.25743839  1
  Si  Si8  1  0.52550784  0.38058475  0.79628595  1
  Si  Si9  1  0.10388072  0.37203542  0.39489598  1
  Si  Si10  1  0.26551879  0.97675926  0.13814928  1
  Si  Si11  1  0.99088817  0.01362671  0.90397776  1
  Si  Si12  1  0.32934909  0.76944591  0.75120115  1
  Si  Si13  1  0.46740688  0.86084485  0.27017792  1
  Si  Si14  1  0.81255767  0.02133250  0.06570434  1
  Si  Si15  1  0.91657012  0.36635760  0.04984831  1
  Si  Si16  1  0.00949759  0.81471504  0.38272145  1
  Si  Si17  1  0.66590965  0.22868215  0.65689838  1
loop_
_geom_bond_atom_site_label_1
_geom_bond_atom_site_label_2
_geom_bond_distance
_geom_bond_site_symmetry_2
Mg0 Si10 2.790799 1_545
Mg0 Si3 2.813154 1_555
Mg0 Si7 2.817017 1_655
Mg0 Si13 2.843776 1_545
Mg0 Si9 2.867508 1_655
Mg0 Si15 2.882123 1_555
Mg0 Si14 3.030753 1_555
Mg1 Si9 2.689849 1_655
Mg1 Si17 2.719256 1_555
Mg1 Si6 2.775267 1_555
Mg1 Si4 2.821241 1_555
Mg1 Si12 2.826507 1_655
Mg1 Si3 2.923208 1_555
Mg1 Si2 3.044237 1_655
Mg1 Si16 3.067424 1_655
Mg2 Si9 2.742753 1_655
Mg2 Si13 2.801515 1_545
Mg2 Si17 2.843601 1_555
Mg2 Si16 2.922323 1_645
Mg2 Si3 2.967854 1_545
Mg2 Si4 3.158906 1_545
Mg2 Si2 3.213028 1_655
Mg3 Si8 2.725410 1_555
Mg3 Si12 2.823106 1_545
Mg3 Si2 2.955750 1_555
Mg3 Si16 2.958531 1_545
Mg3 Si11 3.146306 1_455
Mg3 Si4 3.150901 1_445
Mg4 Si17 2.738320 1_555
Mg4 Si5 2.741814 1_555
Mg4 Si3 2.759341 1_555
Mg4 Si16 2.943568 1_545
Mg4 Si2 3.057406 1_555
Mg4 Si13 3.087533 1_545
Mg4 Si9 3.134857 1_555
Mg4 Si4 3.144542 1_555
Mg4 Si10 3.166759 1_545
Mg5 Si9 2.755702 1_555
Mg5 Si12 2.785084 1_555
Mg5 Si7 2.797064 1_555
Mg5 Si17 2.857721 1_565
Mg5 Si16 2.864843 1_555
Mg5 Si0 2.865680 1_555
Mg5 Si13 2.891778 1_555
Mg5 Si4 2.903052 1_555
Mg5 Si2 3.079511 1_555
Mg6 Si10 2.714455 1_546
Mg6 Si8 2.732183 1_555
Mg6 Si12 2.762178 1_545
Mg6 Si11 2.944084 1_455
Mg6 Si15 3.016986 1_556
Mg6 Si1 3.108232 1_546
Mg7 Si1 2.807926 1_555
Mg7 Si3 2.868805 1_555
Mg7 Si7 2.945181 1_555
Mg7 Si10 2.949268 1_545
Mg7 Si15 2.949864 1_455
Mg7 Si5 3.051746 1_555
Mg7 Si13 3.064137 1_555
Mg7 Si11 3.201284 1_454
Mg8 Si15 2.788304 1_456
Mg8 Si1 2.820465 1_556
Mg8 Si12 2.823639 1_555
Mg8 Si6 2.873132 1_455
Mg8 Si11 2.967055 1_455
Mg8 Si2 3.026011 1_555
Mg8 Si17 3.085995 1_455
Mg8 Si0 3.108128 1_445
Mg9 Si15 2.632654 1_555
Mg9 Si14 2.717699 1_565
Mg9 Si8 2.771842 1_554
Mg9 Si6 2.884585 1_554
Mg9 Si1 2.975339 1_555
Mg9 Si10 3.036738 1_655
Mg9 Si5 3.073858 1_665
Mg9 Si11 3.171351 1_564
Si0 Si17 2.340164 1_565
Si0 Si4 2.379716 1_555
Si0 Si11 2.416752 1_565
Si0 Si12 2.456170 1_555
Si1 Si14 2.363596 1_565
Si1 Si13 2.429717 1_555
Si1 Si10 2.816234 1_555
Si2 Si8 2.483033 1_555
Si2 Si4 2.533739 1_555
Si2 Si9 2.617470 1_555
Si3 Si4 2.382839 1_555
Si4 Si6 2.477196 1_555
Si5 Si9 2.407432 1_555
Si6 Si8 2.451549 1_555
Si7 Si9 2.439970 1_555
Si10 Si13 2.452881 1_555
Si10 Si5 2.456686 1_565
Si11 Si14 2.399228 1_556
Si11 Si6 2.510206 1_545
Si12 Si2 2.513560 1_555
Si13 Si7 2.376145 1_555
Si14 Si15 2.355856 1_555
Si14 Si5 2.364191 1_655
Si15 Si7 2.371736 1_655
Si16 Si3 2.379399 1_455
Si16 Si5 2.405812 1_565
Si16 Si7 2.419900 1_555
Si17 Si8 2.410349 1_555
Si17 Si6 2.711702 1_555
