# generated using pymatgen
data_Zr4CuPd
_symmetry_space_group_name_H-M   'P 1'
_cell_length_a   5.43106819
_cell_length_b   5.43106908
_cell_length_c   5.43106844
_cell_angle_alpha   103.73943735
_cell_angle_beta   103.73944293
_cell_angle_gamma   121.66731448
_symmetry_Int_Tables_number   1
_chemical_formula_structural   Zr4CuPd
_chemical_formula_sum   'Zr4 Cu1 Pd1'
_cell_volume   119.05836256
_cell_formula_units_Z   1
loop_
 _symmetry_equiv_pos_site_id
 _symmetry_equiv_pos_as_xyz
  1  'x, y, z'
loop_
 _atom_site_type_symbol
 _atom_site_label
 _atom_site_symmetry_multiplicity
 _atom_site_fract_x
 _atom_site_fract_y
 _atom_site_fract_z
 _atom_site_occupancy
  Zr  Zr0  1  0.15834800  0.65834800  0.81669500  1
  Zr  Zr1  1  0.34165200  0.15834800  0.50000000  1
  Zr  Zr2  1  0.65834800  0.84165200  0.50000000  1
  Zr  Zr3  1  0.84165200  0.34165200  0.18330500  1
  Cu  Cu0  1  0.75000000  0.75000000  0.00000000  1
  Pd  Pd0  1  0.25000000  0.25000000  0.00000000  1
loop_
_geom_bond_atom_site_label_1
_geom_bond_atom_site_label_2
_geom_bond_distance
_geom_bond_site_symmetry_2
Cu0 Pd0 2.646814 1_665
Cu0 Pd0 2.646814 1_555
Cu0 Zr2 2.851285 1_554
Cu0 Zr2 2.851285 1_555
Cu0 Zr1 2.851285 1_665
Cu0 Zr0 2.851285 1_554
Cu0 Zr1 2.851286 1_554
Cu0 Zr3 2.851286 1_565
Cu0 Zr0 2.851288 1_654
Cu0 Zr3 2.851288 1_555
Pd0 Zr1 2.851285 1_555
Pd0 Zr1 2.851285 1_554
Pd0 Zr2 2.851285 1_444
Pd0 Zr3 2.851285 1_555
Pd0 Zr2 2.851286 1_555
Pd0 Zr0 2.851286 1_544
Pd0 Zr3 2.851288 1_455
Pd0 Zr0 2.851288 1_554
