# generated using pymatgen
data_Nd2MgNb2O8
_symmetry_space_group_name_H-M   'P 1'
_cell_length_a   5.45853169
_cell_length_b   5.73501308
_cell_length_c   6.47646675
_cell_angle_alpha   113.02912232
_cell_angle_beta   99.27319803
_cell_angle_gamma   102.81590560
_symmetry_Int_Tables_number   1
_chemical_formula_structural   Nd2MgNb2O8
_chemical_formula_sum   'Nd2 Mg1 Nb2 O8'
_cell_volume   174.85747452
_cell_formula_units_Z   1
loop_
 _symmetry_equiv_pos_site_id
 _symmetry_equiv_pos_as_xyz
  1  'x, y, z'
loop_
 _atom_site_type_symbol
 _atom_site_label
 _atom_site_symmetry_multiplicity
 _atom_site_fract_x
 _atom_site_fract_y
 _atom_site_fract_z
 _atom_site_occupancy
  Nd  Nd0  1  0.15912944  0.39458805  0.76651810  1
  Nd  Nd1  1  0.85894836  0.65769782  0.26575524  1
  Mg  Mg0  1  0.51217772  0.03115600  0.51221374  1
  Nb  Nb0  1  0.68760606  0.94444202  0.90030310  1
  Nb  Nb1  1  0.32363193  0.10670905  0.12725132  1
  O  O0  1  0.83144286  -0.01736020  0.62385882  1
  O  O1  1  0.37968397  0.71905000  0.64923561  1
  O  O2  1  0.18436115  0.06980620  0.40661977  1
  O  O3  1  0.63195428  0.33282099  0.38087179  1
  O  O4  1  0.03771642  0.29243945  0.08335031  1
  O  O5  1  0.50679443  0.80182342  0.12430404  1
  O  O6  1  0.97678187  0.76009659  0.94716705  1
  O  O7  1  0.50977151  0.25196860  0.90699512  1
loop_
_geom_bond_atom_site_label_1
_geom_bond_atom_site_label_2
_geom_bond_distance
_geom_bond_site_symmetry_2
Nd0 O0 2.349343 1_455
Nd0 O2 2.396197 1_555
Nd0 O7 2.423967 1_555
Nd0 O1 2.428089 1_555
Nd0 O6 2.477036 1_455
Nd0 O4 2.489872 1_556
Nd0 O5 2.609150 1_556
Nd1 O2 2.345555 1_665
Nd1 O0 2.393545 1_565
Nd1 O3 2.433696 1_555
Nd1 O5 2.438700 1_555
Nd1 O4 2.465362 1_655
Nd1 O6 2.494808 1_554
Nd1 O7 2.611695 1_554
Mg0 O0 1.898348 1_555
Mg0 O2 1.902351 1_555
Mg0 O3 2.230012 1_555
Mg0 O1 2.321580 1_545
Mg0 O5 2.327252 1_545
Mg0 O7 2.371909 1_555
Nb0 O1 1.910703 1_555
Nb0 O6 2.130358 1_555
Nb0 O0 2.133892 1_565
Nb0 O4 2.183433 1_666
Nb0 O7 2.183567 1_565
Nb0 O5 2.186191 1_556
Nb1 O3 1.919998 1_555
Nb1 O4 2.117209 1_555
Nb1 O2 2.137257 1_555
Nb1 O6 2.168191 1_444
Nb1 O7 2.186908 1_554
Nb1 O5 2.193829 1_545
