# generated using pymatgen
data_MgMn3Cd2O8
_symmetry_space_group_name_H-M   'P 1'
_cell_length_a   5.35806381
_cell_length_b   6.17404208
_cell_length_c   6.26420005
_cell_angle_alpha   119.52502882
_cell_angle_beta   88.70882200
_cell_angle_gamma   89.99999165
_symmetry_Int_Tables_number   1
_chemical_formula_structural   MgMn3Cd2O8
_chemical_formula_sum   'Mg1 Mn3 Cd2 O8'
_cell_volume   180.25478355
_cell_formula_units_Z   1
loop_
 _symmetry_equiv_pos_site_id
 _symmetry_equiv_pos_as_xyz
  1  'x, y, z'
loop_
 _atom_site_type_symbol
 _atom_site_label
 _atom_site_symmetry_multiplicity
 _atom_site_fract_x
 _atom_site_fract_y
 _atom_site_fract_z
 _atom_site_occupancy
  Mg  Mg0  1  0.13606489  0.18618123  0.37236345  1
  Mn  Mn0  1  0.51119494  0.99007100  0.98014400  1
  Mn  Mn1  1  0.00165344  0.71948105  0.94193239  1
  Mn  Mn2  1  0.00165444  0.22245434  0.94193439  1
  Cd  Cd0  1  0.53392439  0.70787177  0.41574253  1
  Cd  Cd1  1  0.50049759  0.42827662  0.85655523  1
  O  O0  1  0.11508355  0.36260636  0.72521171  1
  O  O1  1  0.86076991  0.56132898  0.12265996  1
  O  O2  1  0.19304552  0.89666834  0.79333768  1
  O  O3  1  0.84119576  0.07416814  0.14833527  1
  O  O4  1  0.34057504  0.31609634  0.18521474  1
  O  O5  1  0.34057504  0.86911740  0.18521474  1
  O  O6  1  0.66188525  0.07351018  0.74901145  1
  O  O7  1  0.66188525  0.67550127  0.74901145  1
loop_
_geom_bond_atom_site_label_1
_geom_bond_atom_site_label_2
_geom_bond_distance
_geom_bond_site_symmetry_2
Mg0 O0 1.923656 1_555
Mg0 O3 2.021688 1_455
Mg0 O5 2.021726 1_545
Mg0 O4 2.021726 1_555
Mn0 O7 1.922504 1_555
Mn0 O6 1.922512 1_565
Mn0 O5 1.983986 1_556
Mn0 O4 1.983990 1_566
Mn0 O2 2.008128 1_555
Mn0 O3 2.012666 1_566
Mn1 O1 1.963656 1_456
Mn1 O2 2.018771 1_555
Mn1 O0 2.020353 1_555
Mn1 O3 2.089406 1_466
Mn1 O7 2.150381 1_455
Mn1 O5 2.282712 1_556
Mn2 O1 1.963633 1_456
Mn2 O2 2.018787 1_545
Mn2 O0 2.020353 1_555
Mn2 O3 2.089407 1_456
Mn2 O6 2.150393 1_455
Mn2 O4 2.282703 1_556
Cd0 O6 2.311726 1_565
Cd0 O7 2.311730 1_555
Cd0 O1 2.339672 1_555
Cd0 O5 2.373615 1_555
Cd0 O4 2.373624 1_555
Cd0 O2 2.716117 1_555
Cd1 O6 2.125698 1_555
Cd1 O7 2.125709 1_555
Cd1 O0 2.203097 1_555
Cd1 O1 2.444415 1_556
Cd1 O4 2.603546 1_556
Cd1 O5 2.603550 1_556
