# generated using pymatgen
data_MgZn2Bi3O8
_symmetry_space_group_name_H-M   'P 1'
_cell_length_a   5.90680053
_cell_length_b   6.86250567
_cell_length_c   7.11071898
_cell_angle_alpha   118.85185918
_cell_angle_beta   121.20323042
_cell_angle_gamma   89.99999303
_symmetry_Int_Tables_number   1
_chemical_formula_structural   MgZn2Bi3O8
_chemical_formula_sum   'Mg1 Zn2 Bi3 O8'
_cell_volume   203.55820980
_cell_formula_units_Z   1
loop_
 _symmetry_equiv_pos_site_id
 _symmetry_equiv_pos_as_xyz
  1  'x, y, z'
loop_
 _atom_site_type_symbol
 _atom_site_label
 _atom_site_symmetry_multiplicity
 _atom_site_fract_x
 _atom_site_fract_y
 _atom_site_fract_z
 _atom_site_occupancy
  Mg  Mg0  1  0.43507653  0.76629783  0.53259467  1
  Zn  Zn0  1  0.72615311  0.65293634  0.30587269  1
  Zn  Zn1  1  0.32268685  0.32388696  0.64777292  1
  Bi  Bi0  1  0.62831310  0.10540597  0.21081395  1
  Bi  Bi1  1  0.97884568  0.71715592  0.95505452  1
  Bi  Bi2  1  0.97884568  0.23789860  0.95505452  1
  O  O0  1  0.97021587  0.32339164  0.64678329  1
  O  O1  1  0.01240292  0.62611266  0.25222433  1
  O  O2  1  0.90314757  0.85353690  0.70707480  1
  O  O3  1  0.04249840  0.11492038  0.22984175  1
  O  O4  1  0.47105143  0.42334415  0.26921741  1
  O  O5  1  0.47105143  0.84587326  0.26921741  1
  O  O6  1  0.51943772  0.13115804  0.77775638  1
  O  O7  1  0.51943772  0.64659733  0.77775638  1
loop_
_geom_bond_atom_site_label_1
_geom_bond_atom_site_label_2
_geom_bond_distance
_geom_bond_site_symmetry_2
Mg0 O1 2.031012 1_555
Mg0 O6 2.108075 1_565
Mg0 O7 2.108086 1_555
Mg0 O5 2.291313 1_555
Mg0 O4 2.291317 1_555
Mg0 O2 2.295813 1_555
Bi0 O0 2.228027 1_555
Bi0 O5 2.306732 1_545
Bi0 O4 2.306744 1_555
Bi0 O3 2.378334 1_655
Bi1 O2 2.227310 1_555
Bi1 O7 2.248049 1_555
Bi1 O3 2.345563 1_666
Bi1 O5 2.364194 1_656
Bi1 O1 2.394776 1_656
Bi1 O0 2.505433 1_555
Bi2 O2 2.227315 1_545
Bi2 O6 2.248049 1_555
Bi2 O3 2.345568 1_656
Bi2 O4 2.364194 1_656
Bi2 O1 2.394780 1_656
Bi2 O0 2.505433 1_555
O0 Zn1 2.078336 1_655
O1 Zn0 1.907575 1_455
O2 Zn0 2.060632 1_555
O3 Zn1 2.101909 1_555
O4 Zn0 2.004408 1_555
O5 Zn0 2.004408 1_555
O6 Zn1 2.005239 1_555
O7 Zn1 2.005227 1_555
