# generated using pymatgen
data_LiNi(PO3)4
_symmetry_space_group_name_H-M   'P 1'
_cell_length_a   8.38681300
_cell_length_b   9.02823100
_cell_length_c   12.57897300
_cell_angle_alpha   90.00000000
_cell_angle_beta   90.00000000
_cell_angle_gamma   90.00000000
_symmetry_Int_Tables_number   1
_chemical_formula_structural   LiNi(PO3)4
_chemical_formula_sum   'Li4 Ni4 P16 O48'
_cell_volume   952.45574831
_cell_formula_units_Z   4
loop_
 _symmetry_equiv_pos_site_id
 _symmetry_equiv_pos_as_xyz
  1  'x, y, z'
loop_
 _atom_site_type_symbol
 _atom_site_label
 _atom_site_symmetry_multiplicity
 _atom_site_fract_x
 _atom_site_fract_y
 _atom_site_fract_z
 _atom_site_occupancy
  Li  Li0  1  0.00996000  0.75000000  0.00000000  1
  Li  Li1  1  0.99004000  0.25000000  0.00000000  1
  Li  Li2  1  0.49004000  0.25000000  0.50000000  1
  Li  Li3  1  0.50996000  0.75000000  0.50000000  1
  Ni  Ni0  1  0.37109700  0.75000000  0.00000000  1
  Ni  Ni1  1  0.62890300  0.25000000  0.00000000  1
  Ni  Ni2  1  0.12890300  0.25000000  0.50000000  1
  Ni  Ni3  1  0.87109700  0.75000000  0.50000000  1
  P  P0  1  0.81607300  0.50162200  0.86157400  1
  P  P1  1  0.18392700  0.00162200  0.86157400  1
  P  P2  1  0.53951200  0.99400500  0.85423300  1
  P  P3  1  0.46048800  0.49400500  0.85423300  1
  P  P4  1  0.18392700  0.49837800  0.13842600  1
  P  P5  1  0.81607300  0.99837800  0.13842600  1
  P  P6  1  0.46048800  0.00599500  0.14576700  1
  P  P7  1  0.53951200  0.50599500  0.14576700  1
  P  P8  1  0.03951200  0.50599500  0.35423300  1
  P  P9  1  0.96048800  0.00599500  0.35423300  1
  P  P10  1  0.96048800  0.49400500  0.64576700  1
  P  P11  1  0.68392700  0.49837800  0.36157400  1
  P  P12  1  0.31607300  0.50162200  0.63842600  1
  P  P13  1  0.68392700  0.00162200  0.63842600  1
  P  P14  1  0.03951200  0.99400500  0.64576700  1
  P  P15  1  0.31607300  0.99837800  0.36157400  1
  O  O0  1  0.86217300  0.86698700  0.37709500  1
  O  O1  1  0.90297900  0.63760500  0.89150500  1
  O  O2  1  0.54311600  0.87328300  0.93683200  1
  O  O3  1  0.45688400  0.37328300  0.93683200  1
  O  O4  1  0.19008500  0.62670300  0.06062200  1
  O  O5  1  0.80991500  0.12670300  0.06062200  1
  O  O6  1  0.45688400  0.12671700  0.06316800  1
  O  O7  1  0.54311600  0.62671700  0.06316800  1
  O  O8  1  0.09702100  0.36239500  0.10849500  1
  O  O9  1  0.90297900  0.86239500  0.10849500  1
  O  O10  1  0.36217300  0.86698700  0.12290500  1
  O  O11  1  0.63782700  0.36698700  0.12290500  1
  O  O12  1  0.36261700  0.45891000  0.17732600  1
  O  O13  1  0.63738300  0.95891000  0.17732600  1
  O  O14  1  0.11163600  0.57069600  0.24685300  1
  O  O15  1  0.88836400  0.07069600  0.24685300  1
  O  O16  1  0.38836400  0.07069600  0.25314700  1
  O  O17  1  0.61163600  0.57069600  0.25314700  1
  O  O18  1  0.13738300  0.95891000  0.32267400  1
  O  O19  1  0.86261700  0.45891000  0.32267400  1
  O  O20  1  0.13782700  0.36698700  0.37709500  1
  O  O21  1  0.80991500  0.37329700  0.93937800  1
  O  O22  1  0.40297900  0.86239500  0.39150500  1
  O  O23  1  0.59702100  0.36239500  0.39150500  1
  O  O24  1  0.04311600  0.62671700  0.43683200  1
  O  O25  1  0.95688400  0.12671700  0.43683200  1
  O  O26  1  0.30991500  0.12670300  0.43937800  1
  O  O27  1  0.69008500  0.62670300  0.43937800  1
  O  O28  1  0.30991500  0.37329700  0.56062200  1
  O  O29  1  0.69008500  0.87329700  0.56062200  1
  O  O30  1  0.04311600  0.87328300  0.56316800  1
  O  O31  1  0.95688400  0.37328300  0.56316800  1
  O  O32  1  0.40297900  0.63760500  0.60849500  1
  O  O33  1  0.59702100  0.13760500  0.60849500  1
  O  O34  1  0.13782700  0.13301300  0.62290500  1
  O  O35  1  0.86217300  0.63301300  0.62290500  1
  O  O36  1  0.13738300  0.54109000  0.67732600  1
  O  O37  1  0.86261700  0.04109000  0.67732600  1
  O  O38  1  0.38836400  0.42930400  0.74685300  1
  O  O39  1  0.61163600  0.92930400  0.74685300  1
  O  O40  1  0.11163600  0.92930400  0.75314700  1
  O  O41  1  0.88836400  0.42930400  0.75314700  1
  O  O42  1  0.36261700  0.04109000  0.82267400  1
  O  O43  1  0.63738300  0.54109000  0.82267400  1
  O  O44  1  0.36217300  0.63301300  0.87709500  1
  O  O45  1  0.63782700  0.13301300  0.87709500  1
  O  O46  1  0.09702100  0.13760500  0.89150500  1
  O  O47  1  0.19008500  0.87329700  0.93937800  1
loop_
_geom_bond_atom_site_label_1
_geom_bond_atom_site_label_2
_geom_bond_distance
_geom_bond_site_symmetry_2
Li0 O9 1.922824 1_455
Li0 O1 1.922824 1_454
Li0 O4 2.025525 1_555
Li0 O47 2.025525 1_554
Li1 O8 1.922824 1_655
Li1 O46 1.922824 1_654
Li1 O5 2.025525 1_555
Li1 O21 2.025525 1_554
Li2 O23 1.922824 1_555
Li2 O33 1.922824 1_555
Li2 O28 2.025525 1_555
Li2 O26 2.025525 1_555
Li3 O22 1.922824 1_555
Li3 O32 1.922824 1_555
Li3 O29 2.025525 1_555
Li3 O27 2.025525 1_555
Ni0 O10 1.873847 1_555
Ni0 O44 1.873847 1_554
Ni0 O2 1.987853 1_554
Ni0 O7 1.987853 1_555
Ni0 O4 2.031079 1_555
Ni0 O47 2.031079 1_554
Ni1 O11 1.873847 1_555
Ni1 O45 1.873847 1_554
Ni1 O3 1.987853 1_554
Ni1 O6 1.987853 1_555
Ni1 O5 2.031079 1_555
Ni1 O21 2.031079 1_554
Ni2 O34 1.873847 1_555
Ni2 O20 1.873847 1_555
Ni2 O31 1.987853 1_455
Ni2 O25 1.987853 1_455
Ni2 O28 2.031079 1_555
Ni2 O26 2.031079 1_555
Ni3 O35 1.873847 1_555
Ni3 O0 1.873847 1_555
Ni3 O30 1.987853 1_655
Ni3 O24 1.987853 1_655
Ni3 O27 2.031079 1_555
Ni3 O29 2.031079 1_555
O0 P9 1.528921 1_565
O1 P0 1.476553 1_555
O2 P2 1.506105 1_555
O3 P3 1.506105 1_555
O4 P4 1.517479 1_555
O5 P5 1.517479 1_545
O6 P6 1.506105 1_555
O7 P7 1.506105 1_555
O8 P4 1.476553 1_555
O9 P5 1.476553 1_555
O10 P6 1.528921 1_565
O11 P7 1.528921 1_555
O12 P7 1.593525 1_555
O12 P4 1.616269 1_555
O13 P6 1.593525 1_565
O13 P5 1.616269 1_555
O14 P8 1.591094 1_555
O14 P4 1.629140 1_555
O15 P9 1.591094 1_555
O15 P5 1.629140 1_545
O16 P6 1.591094 1_555
O16 P15 1.629140 1_545
O17 P7 1.591094 1_555
O17 P11 1.629140 1_555
O18 P9 1.593525 1_465
O18 P15 1.616269 1_555
O19 P8 1.593525 1_655
O19 P11 1.616269 1_555
O20 P8 1.528921 1_555
O21 P0 1.517479 1_555
O22 P15 1.476553 1_555
O23 P11 1.476553 1_555
O24 P8 1.506105 1_555
O25 P9 1.506105 1_555
O26 P15 1.517479 1_545
O27 P11 1.517479 1_555
O28 P12 1.517479 1_555
O29 P13 1.517479 1_565
O30 P14 1.506105 1_555
O31 P10 1.506105 1_555
O32 P12 1.476553 1_555
O33 P13 1.476553 1_555
O34 P14 1.528921 1_545
O35 P10 1.528921 1_555
O36 P10 1.593525 1_455
O36 P12 1.616269 1_555
O37 P14 1.593525 1_645
O37 P13 1.616269 1_555
O38 P3 1.591094 1_555
O38 P12 1.629140 1_555
O39 P2 1.591094 1_555
O39 P13 1.629140 1_565
O40 P14 1.591094 1_555
O40 P1 1.629140 1_565
O41 P10 1.591094 1_555
O41 P0 1.629140 1_555
O42 P2 1.593525 1_545
O42 P1 1.616269 1_555
O43 P3 1.593525 1_555
O43 P0 1.616269 1_555
O44 P3 1.528921 1_555
O45 P2 1.528921 1_545
O46 P1 1.476553 1_555
O47 P1 1.517479 1_565
