# generated using pymatgen
data_NaMgSn3P3(SO8)3
_symmetry_space_group_name_H-M   'P 1'
_cell_length_a   8.74034706
_cell_length_b   8.73538887
_cell_length_c   22.75876177
_cell_angle_alpha   90.30499211
_cell_angle_beta   90.03446716
_cell_angle_gamma   120.19229810
_symmetry_Int_Tables_number   1
_chemical_formula_structural   NaMgSn3P3(SO8)3
_chemical_formula_sum   'Na3 Mg3 Sn9 P9 S9 O72'
_cell_volume   1501.88298380
_cell_formula_units_Z   3
loop_
 _symmetry_equiv_pos_site_id
 _symmetry_equiv_pos_as_xyz
  1  'x, y, z'
loop_
 _atom_site_type_symbol
 _atom_site_label
 _atom_site_symmetry_multiplicity
 _atom_site_fract_x
 _atom_site_fract_y
 _atom_site_fract_z
 _atom_site_occupancy
  Na  Na0  1  0.66161615  0.33271977  0.83249758  1
  Na  Na1  1  0.67050769  0.33234446  0.33225022  1
  Na  Na2  1  0.33226997  0.67051166  0.16650455  1
  Mg  Mg0  1  0.65797047  0.33855168  0.68625114  1
  Mg  Mg1  1  0.67242728  0.33207441  0.18267315  1
  Mg  Mg2  1  0.33123724  0.67258649  0.31627346  1
  Sn  Sn0  1  0.99438019  0.99283710  0.35599573  1
  Sn  Sn1  1  0.00577744  0.00481606  0.85667415  1
  Sn  Sn2  1  0.99932337  0.99975268  0.64643426  1
  Sn  Sn3  1  0.99389286  0.99494482  0.14300558  1
  Sn  Sn4  1  0.67338501  0.33447091  0.98150080  1
  Sn  Sn5  1  0.67498184  0.34000884  0.48230123  1
  Sn  Sn6  1  0.33355200  0.67323262  0.01804979  1
  Sn  Sn7  1  0.34055196  0.67345688  0.51845806  1
  Sn  Sn8  1  0.33319426  0.65992538  0.81441632  1
  P  P0  1  0.29255675  0.28957441  0.75006248  1
  P  P1  1  0.66460008  0.62279759  0.58510046  1
  P  P2  1  0.95716888  0.62014004  0.08530269  1
  P  P3  1  0.66381322  0.04371221  0.08515639  1
  P  P4  1  0.62519490  0.66565925  0.91690705  1
  P  P5  1  0.04277149  0.37788578  0.91676034  1
  P  P6  1  0.33586523  0.95845734  0.91556767  1
  P  P7  1  0.62169999  0.95857621  0.41508294  1
  P  P8  1  0.04611717  0.66512735  0.41536319  1
  S  S0  1  0.29244370  0.00158344  0.24983310  1
  S  S1  1  0.70350505  0.70358756  0.24974966  1
  S  S2  1  0.00139545  0.29234231  0.25026331  1
  S  S3  1  -0.00057916  0.70664370  0.75042334  1
  S  S4  1  0.70760559  0.00199360  0.75032398  1
  S  S5  1  0.95915923  0.33534115  0.58531864  1
  S  S6  1  0.37792715  0.04426425  0.58453900  1
  S  S7  1  0.37789596  0.33495598  0.08482430  1
  S  S8  1  0.33403720  0.37718571  0.41499287  1
  O  O0  1  0.21143249  0.03481112  0.30359032  1
  O  O1  1  0.81922024  0.78462806  0.30306698  1
  O  O2  1  0.96917511  0.17835151  0.30361030  1
  O  O3  1  0.20552472  0.17196363  0.80472742  1
  O  O4  1  0.96527159  0.78623323  0.80326135  1
  O  O5  1  0.81893763  0.03184137  0.80342777  1
  O  O6  1  0.78310314  0.96406691  0.69696145  1
  O  O7  1  0.17173126  0.20843366  0.69436972  1
  O  O8  1  0.03454500  0.81871839  0.69717128  1
  O  O9  1  0.78560813  0.81970455  0.19745973  1
  O  O10  1  0.03417133  0.21043743  0.19687130  1
  O  O11  1  0.17753415  0.96882882  0.19668227  1
  O  O12  1  0.87742215  0.36282527  0.63647732  1
  O  O13  1  0.48814237  0.12296217  0.63590839  1
  O  O14  1  0.63567279  0.50925248  0.63767856  1
  O  O15  1  0.87639243  0.51072046  0.13937223  1
  O  O16  1  0.62987432  0.12174359  0.13925820  1
  O  O17  1  0.48538609  0.36485823  0.13705839  1
  O  O18  1  0.44860634  0.30084388  0.02993001  1
  O  O19  1  0.84625404  0.54904568  0.02791679  1
  O  O20  1  0.69822807  0.15130060  0.02774910  1
  O  O21  1  0.45029537  0.15000059  0.52945688  1
  O  O22  1  0.70156553  0.54850598  0.52724408  1
  O  O23  1  0.85070928  0.29650645  0.53017057  1
  O  O24  1  0.54597177  0.70023869  0.97220120  1
  O  O25  1  0.15734995  0.45509466  0.97226944  1
  O  O26  1  0.29874613  0.84648216  0.97100718  1
  O  O27  1  0.55032311  0.84913933  0.47225465  1
  O  O28  1  0.29987333  0.44772283  0.47015166  1
  O  O29  1  0.15363713  0.69771510  0.47350390  1
  O  O30  1  0.12319577  0.63005056  0.36143978  1
  O  O31  1  0.51068264  0.87793520  0.36095628  1
  O  O32  1  0.36491373  0.48512265  0.36337061  1
  O  O33  1  0.11781928  0.49166800  0.86094759  1
  O  O34  1  0.37188538  0.87948590  0.85961183  1
  O  O35  1  0.51150177  0.62884818  0.86078212  1
  O  O36  1  0.02562074  0.83101905  0.40991837  1
  O  O37  1  0.80983681  0.98330372  0.40951593  1
  O  O38  1  0.17523082  0.19815579  0.40918067  1
  O  O39  1  0.02307418  0.19490731  0.90951566  1
  O  O40  1  0.16990275  0.97327159  0.90883180  1
  O  O41  1  0.80711727  0.83065385  0.90758696  1
  O  O42  1  0.97782000  0.17530280  0.59004349  1
  O  O43  1  0.19881483  0.02399593  0.58986021  1
  O  O44  1  0.83189881  0.81161638  0.59126374  1
  O  O45  1  0.98169563  0.80867876  0.09046763  1
  O  O46  1  0.83071514  0.02486095  0.09051109  1
  O  O47  1  0.19888318  0.17563356  0.09067237  1
  O  O48  1  0.69291492  0.15981230  0.74249583  1
  O  O49  1  0.47303517  0.30670779  0.74392588  1
  O  O50  1  0.84374084  0.53108368  0.74304886  1
  O  O51  1  0.69040594  0.53052525  0.24304399  1
  O  O52  1  0.84118819  0.30524235  0.24437888  1
  O  O53  1  0.46593341  0.16213526  0.24384281  1
  O  O54  1  0.64136903  0.49788248  0.92322097  1
  O  O55  1  0.85753146  0.35844481  0.92150939  1
  O  O56  1  0.50109957  0.14481875  0.92252350  1
  O  O57  1  0.64132973  0.14621118  0.42427385  1
  O  O58  1  0.49256807  0.35576939  0.42253095  1
  O  O59  1  0.85581973  0.49993589  0.42243444  1
  O  O60  1  0.35753427  0.49377603  0.07799585  1
  O  O61  1  0.14451025  0.64099193  0.07788369  1
  O  O62  1  0.50007101  0.85299064  0.07806350  1
  O  O63  1  0.35605498  0.86523815  0.57683929  1
  O  O64  1  0.49939460  0.64222913  0.57473722  1
  O  O65  1  0.13610065  0.49372914  0.57573959  1
  O  O66  1  0.30490051  0.84111344  0.25585630  1
  O  O67  1  0.53096753  0.69076874  0.25703164  1
  O  O68  1  0.16212629  0.46586007  0.25683767  1
  O  O69  1  0.30426849  0.47177651  0.75685253  1
  O  O70  1  0.16246419  0.69638929  0.75721314  1
  O  O71  1  0.53177884  0.84035211  0.75691126  1
loop_
_geom_bond_atom_site_label_1
_geom_bond_atom_site_label_2
_geom_bond_distance
_geom_bond_site_symmetry_2
Na0 O49 2.538938 1_555
Na0 O56 2.565824 1_555
Na0 O54 2.569359 1_555
Na0 O55 2.586601 1_555
Na0 O48 2.633470 1_555
Na0 O50 2.635878 1_555
Na1 O59 2.560929 1_555
Na1 O52 2.575789 1_555
Na1 O57 2.591302 1_555
Na1 O53 2.597302 1_555
Na1 O51 2.623751 1_555
Na1 O58 2.646101 1_555
Na2 O61 2.528317 1_555
Na2 O62 2.535669 1_555
Na2 O66 2.596208 1_555
Na2 O60 2.607713 1_555
Na2 O67 2.640999 1_555
Na2 O68 2.646291 1_555
Mg0 O14 1.947584 1_555
Mg0 O49 1.991796 1_555
Mg0 O13 2.055727 1_555
Mg0 O50 2.088920 1_555
Mg0 O12 2.145535 1_555
Mg0 O48 2.161049 1_555
Mg1 O16 1.945064 1_555
Mg1 O15 1.950609 1_555
Mg1 O17 2.074691 1_555
Mg1 O52 2.133445 1_555
Mg1 O51 2.148964 1_555
Mg1 O53 2.174717 1_555
Mg2 O30 1.956493 1_555
Mg2 O31 1.964862 1_555
Mg2 O32 2.102451 1_555
Mg2 O66 2.114924 1_555
Mg2 O68 2.135989 1_555
Mg2 O67 2.148675 1_555
O0 S0 1.512087 1_555
O0 Sn0 2.112749 1_445
O1 S1 1.505233 1_555
O1 Sn0 2.068009 1_555
O2 S2 1.508686 1_655
O2 Sn0 2.115520 1_545
O3 P0 1.552625 1_555
O3 Sn1 2.008618 1_555
O4 S3 1.489556 1_655
O4 Sn1 2.131602 1_665
O5 S4 1.488478 1_555
O5 Sn1 2.139978 1_655
O6 S4 1.495558 1_565
O6 Sn2 2.098789 1_555
O7 P0 1.568486 1_555
O7 Sn2 1.999471 1_445
O8 S3 1.494096 1_555
O8 Sn2 2.106572 1_455
O9 S1 1.497268 1_555
O9 Sn3 2.100788 1_555
O10 S2 1.505934 1_555
O10 Sn3 2.116282 1_445
O11 S0 1.503212 1_565
O11 Sn3 2.118869 1_455
O12 S5 1.447127 1_555
O13 S6 1.446163 1_555
O14 P1 1.496784 1_555
O15 P2 1.503710 1_555
O16 P3 1.504517 1_555
O17 S7 1.453485 1_555
O18 S7 1.487875 1_555
O18 Sn4 2.141618 1_554
O19 P2 1.554188 1_555
O19 Sn4 2.010140 1_554
O20 P3 1.552401 1_555
O20 Sn4 2.020477 1_554
O21 S6 1.500129 1_555
O21 Sn5 2.122816 1_555
O22 P1 1.568966 1_555
O22 Sn5 1.992884 1_555
O23 S5 1.503152 1_555
O23 Sn5 2.068767 1_555
O24 P4 1.536791 1_555
O24 Sn6 2.038607 1_556
O25 P5 1.537473 1_555
O25 Sn6 2.028211 1_556
O26 P6 1.532464 1_555
O26 Sn6 2.002278 1_556
O27 P7 1.552565 1_555
O27 Sn7 2.002977 1_555
O28 S8 1.490636 1_555
O28 Sn7 2.120061 1_555
O29 P8 1.562208 1_555
O29 Sn7 2.027095 1_555
O30 P8 1.502817 1_555
O31 P7 1.502350 1_555
O32 S8 1.448576 1_555
O33 P5 1.546072 1_555
O33 Sn8 2.015310 1_555
O34 P6 1.551240 1_555
O34 Sn8 2.043795 1_555
O35 P4 1.547631 1_555
O35 Sn8 2.010631 1_555
O36 P8 1.552553 1_555
O36 Sn0 1.996245 1_455
O37 P7 1.552413 1_555
O37 Sn0 1.990128 1_555
O38 S8 1.484629 1_555
O38 Sn0 2.074509 1_445
O39 P5 1.527105 1_555
O39 Sn1 1.988084 1_555
O40 P6 1.527465 1_555
O40 Sn1 1.985407 1_565
O41 P4 1.532718 1_555
O41 Sn1 2.009062 1_665
O42 S5 1.491134 1_555
O42 Sn2 2.084363 1_545
O43 S6 1.489459 1_555
O43 Sn2 2.092147 1_445
O44 P1 1.565193 1_555
O44 Sn2 1.993937 1_555
O45 P2 1.554041 1_555
O45 Sn3 1.973119 1_555
O46 P3 1.552941 1_555
O46 Sn3 1.976337 1_545
O47 S7 1.488204 1_555
O47 Sn3 2.073211 1_445
O48 S4 1.459252 1_555
O49 P0 1.514352 1_555
O50 S3 1.459339 1_655
O51 S1 1.464674 1_555
O52 S2 1.466296 1_655
O53 S0 1.465659 1_555
O54 P4 1.548939 1_555
O54 Sn4 2.072851 1_555
O55 P5 1.544583 1_655
O55 Sn4 2.040871 1_555
O56 P6 1.547005 1_545
O56 Sn4 2.068452 1_555
O57 P7 1.572635 1_545
O57 Sn5 2.042398 1_555
O58 S8 1.498379 1_555
O58 Sn5 2.152094 1_555
O59 P8 1.569515 1_655
O59 Sn5 2.026878 1_555
O60 S7 1.493713 1_555
O60 Sn6 2.171547 1_555
O61 P2 1.563180 1_455
O61 Sn6 2.049995 1_555
O62 P3 1.564797 1_565
O62 Sn6 2.031158 1_555
O63 S6 1.486359 1_565
O63 Sn7 2.082811 1_555
O64 P1 1.554342 1_555
O64 Sn7 2.006231 1_555
O65 S5 1.484930 1_455
O65 Sn7 2.135518 1_555
O66 S0 1.466674 1_565
O67 S1 1.464525 1_555
O68 S2 1.465959 1_555
O69 P0 1.549536 1_555
O69 Sn8 2.010034 1_555
O70 S3 1.480189 1_555
O70 Sn8 2.122091 1_555
O71 S4 1.482539 1_565
O71 Sn8 2.117243 1_555
