# generated using pymatgen
data_Na14Zr4Ti4Si11SO48
_symmetry_space_group_name_H-M   'P 1'
_cell_length_a   18.18036278
_cell_length_b   9.10328573
_cell_length_c   22.58890472
_cell_angle_alpha   90.09192785
_cell_angle_beta   89.98407536
_cell_angle_gamma   120.01857716
_symmetry_Int_Tables_number   1
_chemical_formula_structural   Na14Zr4Ti4Si11SO48
_chemical_formula_sum   'Na42 Zr12 Ti12 Si33 S3 O144'
_cell_volume   3237.01384724
_cell_formula_units_Z   3
loop_
 _symmetry_equiv_pos_site_id
 _symmetry_equiv_pos_as_xyz
  1  'x, y, z'
loop_
 _atom_site_type_symbol
 _atom_site_label
 _atom_site_symmetry_multiplicity
 _atom_site_fract_x
 _atom_site_fract_y
 _atom_site_fract_z
 _atom_site_occupancy
  Na  Na0  1  0.31852238  0.99986540  0.24987651  1
  Na  Na1  1  0.81849491  0.00004844  0.25005685  1
  Na  Na2  1  0.31866729  0.64123174  0.75142086  1
  Na  Na3  1  0.81657868  0.63177016  0.74934347  1
  Na  Na4  1  0.50249279  0.36643328  0.75148452  1
  Na  Na5  1  0.68475301  0.00253480  0.74935479  1
  Na  Na6  1  0.15028170  0.33506000  0.58145771  1
  Na  Na7  1  0.65140055  0.33627018  0.58313072  1
  Na  Na8  1  0.01534455  0.69499830  0.58337919  1
  Na  Na9  1  0.51949613  0.70216512  0.58228689  1
  Na  Na10  1  0.33358204  0.96755742  0.58348767  1
  Na  Na11  1  0.83032783  0.96357184  0.58251486  1
  Na  Na12  1  0.15109563  0.96484480  0.08179232  1
  Na  Na13  1  0.65151893  0.96600086  0.08159669  1
  Na  Na14  1  0.33128095  0.69792296  0.08297662  1
  Na  Na15  1  0.83080497  0.69791340  0.08294683  1
  Na  Na16  1  0.01819728  0.33816833  0.08272398  1
  Na  Na17  1  0.51855685  0.33738311  0.08281142  1
  Na  Na18  1  0.48341443  0.66770981  0.91646391  1
  Na  Na19  1  0.98111564  0.65959470  0.91746356  1
  Na  Na20  1  0.35069129  0.03383171  0.91672523  1
  Na  Na21  1  0.84920816  0.03798559  0.91748800  1
  Na  Na22  1  0.16706871  0.30361805  0.91849761  1
  Na  Na23  1  0.66859026  0.29855688  0.91722477  1
  Na  Na24  1  0.48436790  0.30278653  0.41619563  1
  Na  Na25  1  0.98103012  0.30133006  0.41709508  1
  Na  Na26  1  0.16626176  0.02955117  0.41737327  1
  Na  Na27  1  0.66924505  0.03674852  0.41868039  1
  Na  Na28  1  0.35004151  0.66573540  0.41629042  1
  Na  Na29  1  0.84918427  0.66154528  0.41740900  1
  Na  Na30  1  0.00036202  0.00015748  0.49960151  1
  Na  Na31  1  0.50043771  0.99965243  0.50067855  1
  Na  Na32  1  0.00079821  0.00155629  0.00054419  1
  Na  Na33  1  0.50017450  0.99998126  0.99954879  1
  Na  Na34  1  0.33361551  0.32865286  0.83391395  1
  Na  Na35  1  0.83659955  0.33410929  0.83145215  1
  Na  Na36  1  0.33658204  0.34340304  0.32999806  1
  Na  Na37  1  0.83628672  0.34290589  0.33192715  1
  Na  Na38  1  0.16479200  0.65710303  0.16816639  1
  Na  Na39  1  0.66495841  0.65686038  0.16834285  1
  Na  Na40  1  0.16439770  0.67293266  0.66933092  1
  Na  Na41  1  0.66712146  0.66716342  0.66671027  1
  Zr  Zr0  1  0.99194215  0.99399382  0.35103464  1
  Zr  Zr1  1  0.49544412  0.99672429  0.35092629  1
  Zr  Zr2  1  0.99335751  0.99006563  0.85283687  1
  Zr  Zr3  1  0.50057624  0.00206661  0.85187190  1
  Zr  Zr4  1  0.99414398  0.98469838  0.64763727  1
  Zr  Zr5  1  0.50111919  0.00124089  0.64989604  1
  Zr  Zr6  1  0.99513587  0.00391112  0.14843280  1
  Zr  Zr7  1  0.49683890  0.00541485  0.14902987  1
  Zr  Zr8  1  0.33604187  0.32870708  0.68354378  1
  Zr  Zr9  1  0.33341142  0.33377421  0.98170151  1
  Zr  Zr10  1  0.33411883  0.33400339  0.48024038  1
  Zr  Zr11  1  0.16556771  0.66622260  0.51772183  1
  Ti  Ti0  1  0.83655579  0.33497619  0.68601924  1
  Ti  Ti1  1  0.34130016  0.35293799  0.18319103  1
  Ti  Ti2  1  0.84129424  0.35319351  0.18282875  1
  Ti  Ti3  1  0.83260708  0.33114349  0.98263232  1
  Ti  Ti4  1  0.83323795  0.33225864  0.48221908  1
  Ti  Ti5  1  0.16713954  0.66421753  0.01821339  1
  Ti  Ti6  1  0.66747576  0.66759820  0.01822334  1
  Ti  Ti7  1  0.66773952  0.66976854  0.51749903  1
  Ti  Ti8  1  0.16386864  0.64772145  0.31596228  1
  Ti  Ti9  1  0.66576147  0.64718004  0.31692829  1
  Ti  Ti10  1  0.16336348  0.67897686  0.81745627  1
  Ti  Ti11  1  0.66841717  0.66920762  0.81541756  1
  Si  Si0  1  0.34751094  0.69459529  0.24997031  1
  Si  Si1  1  0.84709741  0.69347310  0.24969989  1
  Si  Si2  1  0.99996976  0.30544501  0.24989185  1
  Si  Si3  1  0.50039090  0.30612960  0.25014298  1
  Si  Si4  1  0.65120184  0.30204060  0.75031535  1
  Si  Si5  1  0.00182254  0.69759895  0.74992916  1
  Si  Si6  1  0.50149376  0.70254092  0.75153697  1
  Si  Si7  1  0.34684781  0.99251152  0.75154615  1
  Si  Si8  1  0.85021773  0.00382793  0.75019499  1
  Si  Si9  1  0.48479298  0.33828275  0.58138189  1
  Si  Si10  1  0.97533269  0.33268002  0.58356117  1
  Si  Si11  1  0.18511764  0.03837400  0.58270886  1
  Si  Si12  1  0.69180969  0.04615745  0.58285798  1
  Si  Si13  1  0.33314173  0.62819140  0.58432437  1
  Si  Si14  1  0.82984728  0.61353354  0.58263712  1
  Si  Si15  1  0.48253790  0.62789568  0.08287552  1
  Si  Si16  1  0.97925062  0.62157788  0.08073970  1
  Si  Si17  1  0.33012935  0.04074784  0.08515074  1
  Si  Si18  1  0.83007859  0.04643346  0.08362171  1
  Si  Si19  1  0.18878239  0.33571983  0.08472848  1
  Si  Si20  1  0.69189180  0.33682407  0.08296776  1
  Si  Si21  1  0.30763539  0.66600084  0.91503589  1
  Si  Si22  1  0.80762906  0.65993886  0.91788732  1
  Si  Si23  1  0.02306993  0.38318827  0.91730802  1
  Si  Si24  1  0.52530060  0.38400278  0.91653441  1
  Si  Si25  1  0.16647982  0.95338891  0.91847183  1
  Si  Si26  1  0.66883811  0.95496415  0.91790411  1
  Si  Si27  1  0.30961645  0.95373815  0.41340242  1
  Si  Si28  1  0.80684540  0.95388484  0.41632962  1
  Si  Si29  1  0.16596853  0.37221261  0.41568437  1
  Si  Si30  1  0.66865676  0.37877293  0.41931746  1
  Si  Si31  1  0.02008372  0.66324855  0.41506938  1
  Si  Si32  1  0.52647925  0.66875997  0.41578164  1
  S  S0  1  0.14804055  0.00011601  0.24995459  1
  S  S1  1  0.64861096  0.00005200  0.24990485  1
  S  S2  1  0.14608870  0.29686772  0.75058536  1
  O  O0  1  0.10732093  0.02520150  0.30315877  1
  O  O1  1  0.60781188  0.02548375  0.30308574  1
  O  O2  1  0.40927103  0.78470822  0.30801785  1
  O  O3  1  0.90848005  0.78302962  0.30748814  1
  O  O4  1  0.48280285  0.17820669  0.30698710  1
  O  O5  1  0.98249540  0.17860482  0.30694502  1
  O  O6  1  0.10642899  0.18933706  0.80362338  1
  O  O7  1  0.60727018  0.17661564  0.80757890  1
  O  O8  1  0.48222216  0.78907177  0.80853847  1
  O  O9  1  0.98347774  0.78920964  0.80716567  1
  O  O10  1  0.41124447  0.03417556  0.80846868  1
  O  O11  1  0.91053203  0.03344681  0.80812474  1
  O  O12  1  0.39171990  0.96128277  0.69286539  1
  O  O13  1  0.89371926  0.96388293  0.69323774  1
  O  O14  1  0.09476541  0.21449396  0.69681721  1
  O  O15  1  0.58807549  0.21721312  0.69298768  1
  O  O16  1  0.01741655  0.82040386  0.69217030  1
  O  O17  1  0.51945231  0.82226296  0.69291003  1
  O  O18  1  0.39392507  0.82213621  0.19309709  1
  O  O19  1  0.89335385  0.82143978  0.19288208  1
  O  O20  1  0.01640131  0.21440755  0.19220315  1
  O  O21  1  0.51690078  0.21609162  0.19223766  1
  O  O22  1  0.09461208  0.97474723  0.19669962  1
  O  O23  1  0.59501629  0.97476512  0.19693915  1
  O  O24  1  0.44190200  0.37369433  0.63992917  1
  O  O25  1  0.92769848  0.36390898  0.63941953  1
  O  O26  1  0.24780600  0.12759287  0.63886517  1
  O  O27  1  0.75154331  0.13549687  0.64074127  1
  O  O28  1  0.31492480  0.50700823  0.64226227  1
  O  O29  1  0.81602028  0.49768171  0.64100366  1
  O  O30  1  0.43332733  0.49754214  0.13850015  1
  O  O31  1  0.93269389  0.49673648  0.13800954  1
  O  O32  1  0.31527480  0.13349556  0.14207845  1
  O  O33  1  0.81532580  0.13485911  0.14160922  1
  O  O34  1  0.25468009  0.36719629  0.13900069  1
  O  O35  1  0.75541147  0.36718386  0.13858484  1
  O  O36  1  0.22700950  0.29682378  0.02464755  1
  O  O37  1  0.73668522  0.30380558  0.02427051  1
  O  O38  1  0.42127075  0.54723332  0.02512056  1
  O  O39  1  0.91528862  0.52911598  0.02429904  1
  O  O40  1  0.35128639  0.15843093  0.02568957  1
  O  O41  1  0.84825645  0.16941947  0.02520720  1
  O  O42  1  0.22650410  0.15713971  0.52407737  1
  O  O43  1  0.73710072  0.16983553  0.52469170  1
  O  O44  1  0.35067574  0.54326415  0.52586366  1
  O  O45  1  0.84860542  0.52708141  0.52469842  1
  O  O46  1  0.42132104  0.29778659  0.52498443  1
  O  O47  1  0.91551469  0.30134368  0.52469682  1
  O  O48  1  0.26256813  0.69538658  0.97432124  1
  O  O49  1  0.76396071  0.69730557  0.97520659  1
  O  O50  1  0.08461994  0.47264600  0.97567805  1
  O  O51  1  0.58523206  0.47491803  0.97497629  1
  O  O52  1  0.15017554  0.83032350  0.97567881  1
  O  O53  1  0.65239146  0.83015551  0.97525142  1
  O  O54  1  0.27233725  0.84104031  0.47376184  1
  O  O55  1  0.76393048  0.83097953  0.47463723  1
  O  O56  1  0.14709205  0.45119144  0.47473129  1
  O  O57  1  0.65087575  0.47114987  0.47548924  1
  O  O58  1  0.07809250  0.70332243  0.47491323  1
  O  O59  1  0.58480282  0.69699027  0.47542834  1
  O  O60  1  0.07087701  0.63313638  0.36086066  1
  O  O61  1  0.57412761  0.63677477  0.36047643  1
  O  O62  1  0.24793212  0.86166561  0.35695243  1
  O  O63  1  0.74821646  0.86521662  0.35820677  1
  O  O64  1  0.18258889  0.50300083  0.36071860  1
  O  O65  1  0.68444491  0.50305186  0.36189120  1
  O  O66  1  0.07098293  0.50886519  0.86146144  1
  O  O67  1  0.57075008  0.50426388  0.85870414  1
  O  O68  1  0.18243896  0.86187397  0.86126881  1
  O  O69  1  0.68362423  0.86396403  0.85968263  1
  O  O70  1  0.24723435  0.63400341  0.85754878  1
  O  O71  1  0.74933025  0.63423188  0.85933873  1
  O  O72  1  0.01225770  0.83467429  0.40932340  1
  O  O73  1  0.51738190  0.83890720  0.41164421  1
  O  O74  1  0.40540790  0.97547433  0.41075721  1
  O  O75  1  0.90239320  0.97328923  0.41316241  1
  O  O76  1  0.08270304  0.18446830  0.40882063  1
  O  O77  1  0.58446455  0.19159753  0.41107655  1
  O  O78  1  0.01557837  0.19564227  0.91177338  1
  O  O79  1  0.51575384  0.19542080  0.91374141  1
  O  O80  1  0.08270382  0.97451336  0.91143799  1
  O  O81  1  0.58357963  0.97260593  0.91382996  1
  O  O82  1  0.40259344  0.83589745  0.91356645  1
  O  O83  1  0.90249600  0.83240019  0.91338045  1
  O  O84  1  0.49086795  0.16630827  0.58721305  1
  O  O85  1  0.98659323  0.16542808  0.58933172  1
  O  O86  1  0.09272358  0.02652475  0.58849119  1
  O  O87  1  0.59714313  0.02660889  0.58658804  1
  O  O88  1  0.41869877  0.81482009  0.58769333  1
  O  O89  1  0.91569719  0.80430846  0.58668633  1
  O  O90  1  0.49234135  0.81452245  0.09132880  1
  O  O91  1  0.98853798  0.80889828  0.08864726  1
  O  O92  1  0.41575423  0.02097122  0.08896684  1
  O  O93  1  0.91582230  0.02657653  0.08671841  1
  O  O94  1  0.09488640  0.16467124  0.09041126  1
  O  O95  1  0.59793460  0.16550516  0.08805954  1
  O  O96  1  0.34449023  0.16959330  0.74654412  1
  O  O97  1  0.83838292  0.16769260  0.74224058  1
  O  O98  1  0.23253203  0.31512602  0.74585490  1
  O  O99  1  0.74320524  0.31554279  0.74264838  1
  O  O100  1  0.41428123  0.51753023  0.74677215  1
  O  O101  1  0.91261812  0.51899285  0.74137928  1
  O  O102  1  0.34061767  0.50970850  0.24084883  1
  O  O103  1  0.84040372  0.50934808  0.24064533  1
  O  O104  1  0.40990404  0.30399772  0.24139341  1
  O  O105  1  0.90988218  0.30405251  0.24118183  1
  O  O106  1  0.23335208  0.15217784  0.24450822  1
  O  O107  1  0.73359400  0.15249416  0.24446182  1
  O  O108  1  0.31815198  0.49772764  0.92008843  1
  O  O109  1  0.81911549  0.49385883  0.92354723  1
  O  O110  1  0.43073508  0.36388088  0.91989868  1
  O  O111  1  0.92852899  0.36212453  0.92384854  1
  O  O112  1  0.25182917  0.14023466  0.92000017  1
  O  O113  1  0.75360837  0.14363568  0.92397664  1
  O  O114  1  0.32038623  0.14269365  0.41839787  1
  O  O115  1  0.81908085  0.14397817  0.42404733  1
  O  O116  1  0.25267277  0.36130479  0.41818978  1
  O  O117  1  0.75396994  0.36261324  0.42395840  1
  O  O118  1  0.43167233  0.50067737  0.42017739  1
  O  O119  1  0.92645537  0.49304984  0.42212429  1
  O  O120  1  0.17971777  0.50556189  0.07772531  1
  O  O121  1  0.68150871  0.50492430  0.07593702  1
  O  O122  1  0.07243808  0.63718996  0.07601624  1
  O  O123  1  0.57485004  0.63938090  0.07768288  1
  O  O124  1  0.24623437  0.85171564  0.07732893  1
  O  O125  1  0.74737623  0.85597806  0.07572815  1
  O  O126  1  0.17679277  0.85240725  0.57959526  1
  O  O127  1  0.68165745  0.85685847  0.57570819  1
  O  O128  1  0.24778184  0.64359337  0.57983717  1
  O  O129  1  0.74753612  0.63931688  0.57588940  1
  O  O130  1  0.06928573  0.50135672  0.57981543  1
  O  O131  1  0.57710983  0.51008811  0.57588327  1
  O  O132  1  0.15717597  0.84816293  0.25529968  1
  O  O133  1  0.65743272  0.84809646  0.25543237  1
  O  O134  1  0.25795705  0.69574508  0.25829734  1
  O  O135  1  0.75809913  0.69624161  0.25842850  1
  O  O136  1  0.08540695  0.49009145  0.25857759  1
  O  O137  1  0.58576770  0.49055557  0.25912264  1
  O  O138  1  0.15612918  0.46523717  0.75574422  1
  O  O139  1  0.65750029  0.48695041  0.75814979  1
  O  O140  1  0.08642020  0.68198218  0.75891380  1
  O  O141  1  0.58658722  0.68655989  0.75797583  1
  O  O142  1  0.25715258  0.81515637  0.75858981  1
  O  O143  1  0.75806997  0.82919474  0.75809172  1
loop_
_geom_bond_atom_site_label_1
_geom_bond_atom_site_label_2
_geom_bond_distance
_geom_bond_site_symmetry_2
Na0 O104 2.421011 1_565
Na0 O134 2.421701 1_555
Na0 O132 2.544359 1_555
Na0 O106 2.546300 1_565
Na0 O62 2.733600 1_555
Na0 O32 2.737547 1_565
Na0 O18 2.890233 1_555
Na0 O4 2.892074 1_565
Na1 O135 2.419361 1_545
Na1 O105 2.420820 1_555
Na1 O133 2.539680 1_545
Na1 O107 2.543274 1_555
Na1 O63 2.746994 1_545
Na1 O33 2.755169 1_555
Na1 O5 2.886100 1_555
Na1 O19 2.893133 1_545
Na2 O142 2.356799 1_555
Na2 O100 2.501775 1_555
Na2 O138 2.563548 1_555
Na2 O98 2.574561 1_555
Na2 O70 2.711324 1_555
Na2 O28 2.735852 1_555
Na2 O12 2.853374 1_555
Na2 O8 2.882719 1_555
Na3 O101 2.434704 1_555
Na3 O99 2.499152 1_555
Na3 O143 2.512375 1_555
Na3 O139 2.515444 1_555
Na3 O29 2.730801 1_555
Na3 O71 2.773878 1_555
Na3 O13 2.912458 1_555
Na3 O9 2.934615 1_555
Na4 O139 2.464586 1_555
Na4 O96 2.514795 1_555
Na4 O141 2.528308 1_555
Na4 O100 2.585124 1_555
Na4 O67 2.722906 1_555
Na4 O24 2.764544 1_555
Na4 O15 2.849565 1_555
Na4 O10 2.923733 1_555
Na5 O97 2.426163 1_555
Na5 O99 2.498583 1_555
Na5 O141 2.522300 1_545
Na5 O143 2.532047 1_545
Na5 O27 2.737933 1_555
Na5 O69 2.790487 1_545
Na5 O17 2.900180 1_545
Na5 O7 2.907112 1_555
Na6 O128 2.459860 1_555
Na6 O86 2.463649 1_555
Na6 O85 2.583576 1_455
Na6 O130 2.586914 1_555
Na6 O56 2.646261 1_555
Na6 O14 2.813018 1_555
Na6 O42 2.908883 1_555
Na6 O28 2.933215 1_555
Na7 O129 2.422597 1_555
Na7 O87 2.478703 1_555
Na7 O84 2.530301 1_555
Na7 O131 2.548334 1_555
Na7 O15 2.723369 1_555
Na7 O57 2.727861 1_555
Na7 O29 2.901916 1_555
Na7 O43 2.969859 1_555
Na8 O130 2.409303 1_555
Na8 O89 2.466002 1_455
Na8 O126 2.543205 1_555
Na8 O86 2.617541 1_565
Na8 O58 2.687526 1_555
Na8 O16 2.700345 1_555
Na8 O25 2.903709 1_455
Na8 O45 2.939775 1_455
Na9 O131 2.450923 1_555
Na9 O88 2.510906 1_555
Na9 O127 2.557971 1_555
Na9 O87 2.559860 1_565
Na9 O59 2.700448 1_555
Na9 O17 2.726106 1_555
Na9 O24 2.901282 1_555
Na9 O44 2.948057 1_555
Na10 O126 2.498395 1_555
Na10 O84 2.506089 1_565
Na10 O88 2.547585 1_555
Na10 O128 2.556138 1_555
Na10 O12 2.699486 1_555
Na10 O54 2.723765 1_555
Na10 O26 2.895732 1_565
Na10 O46 2.922598 1_565
Na11 O127 2.376025 1_555
Na11 O85 2.499473 1_565
Na11 O129 2.560127 1_555
Na11 O89 2.602244 1_555
Na11 O55 2.717828 1_555
Na11 O13 2.753557 1_555
Na11 O27 2.909694 1_565
Na11 O47 2.967478 1_565
Na12 O124 2.417502 1_555
Na12 O94 2.499991 1_565
Na12 O91 2.564380 1_455
Na12 O122 2.586461 1_555
Na12 O52 2.686177 1_554
Na12 O22 2.808971 1_555
Na12 O32 2.920830 1_565
Na12 O36 2.922738 1_565
Na13 O125 2.409080 1_555
Na13 O95 2.457244 1_565
Na13 O90 2.516416 1_555
Na13 O123 2.577552 1_555
Na13 O53 2.703753 1_554
Na13 O23 2.816000 1_555
Na13 O33 2.912846 1_565
Na13 O37 2.962819 1_565
Na14 O120 2.417595 1_555
Na14 O92 2.550513 1_565
Na14 O124 2.556085 1_555
Na14 O90 2.574124 1_555
Na14 O18 2.732646 1_555
Na14 O48 2.749157 1_554
Na14 O34 2.901961 1_555
Na14 O38 2.916335 1_555
Na15 O121 2.388914 1_555
Na15 O91 2.522226 1_555
Na15 O125 2.565584 1_555
Na15 O93 2.592306 1_565
Na15 O49 2.719339 1_554
Na15 O19 2.727205 1_555
Na15 O35 2.899122 1_555
Na15 O39 2.971392 1_555
Na16 O122 2.391766 1_555
Na16 O93 2.497290 1_455
Na16 O120 2.545776 1_555
Na16 O94 2.583182 1_555
Na16 O50 2.707878 1_554
Na16 O20 2.712610 1_555
Na16 O31 2.880619 1_455
Na16 O41 2.973284 1_455
Na17 O123 2.409267 1_555
Na17 O92 2.534520 1_555
Na17 O121 2.570296 1_555
Na17 O95 2.608585 1_555
Na17 O21 2.702850 1_555
Na17 O51 2.731310 1_554
Na17 O30 2.891801 1_555
Na17 O40 2.933478 1_555
Na18 O110 2.433799 1_555
Na18 O81 2.442677 1_555
Na18 O82 2.599758 1_555
Na18 O108 2.603230 1_555
Na18 O8 2.682743 1_555
Na18 O38 2.696447 1_556
Na19 O111 2.382991 1_555
Na19 O80 2.520226 1_655
Na19 O109 2.554189 1_555
Na19 O83 2.603156 1_555
Na19 O39 2.693022 1_556
Na19 O9 2.749609 1_555
Na19 O66 2.896337 1_655
Na19 O52 2.967778 1_655
Na20 O82 2.417204 1_545
Na20 O112 2.432236 1_555
Na20 O79 2.599457 1_555
Na20 O110 2.602820 1_555
Na20 O10 2.680856 1_555
Na20 O40 2.706263 1_556
Na20 O68 2.929385 1_545
Na20 O48 2.970633 1_545
Na21 O113 2.374695 1_555
Na21 O83 2.502638 1_545
Na21 O111 2.558949 1_555
Na21 O78 2.623362 1_655
Na21 O41 2.713662 1_556
Na21 O11 2.718782 1_555
Na21 O69 2.915628 1_545
Na21 O49 2.987077 1_545
Na22 O108 2.410779 1_555
Na22 O78 2.421911 1_555
Na22 O80 2.598933 1_545
Na22 O112 2.623225 1_555
Na22 O36 2.647685 1_556
Na22 O6 2.806506 1_555
Na22 O50 2.929694 1_555
Na22 O70 2.948145 1_555
Na23 O109 2.408646 1_555
Na23 O79 2.449093 1_555
Na23 O113 2.565761 1_555
Na23 O81 2.570951 1_545
Na23 O37 2.706282 1_556
Na23 O7 2.713670 1_555
Na24 O118 2.428454 1_555
Na24 O77 2.488383 1_555
Na24 O114 2.582085 1_555
Na24 O74 2.583243 1_545
Na24 O46 2.702108 1_555
Na24 O4 2.707644 1_555
Na24 O61 2.921980 1_555
Na24 O57 2.942820 1_555
Na25 O119 2.403179 1_555
Na25 O115 2.554603 1_555
Na25 O76 2.559323 1_655
Na25 O75 2.587858 1_545
Na25 O47 2.706490 1_555
Na25 O5 2.731421 1_555
Na25 O60 2.912018 1_655
Na25 O56 2.923423 1_655
Na26 O114 2.454612 1_555
Na26 O72 2.459439 1_545
Na26 O76 2.545288 1_555
Na26 O116 2.615673 1_555
Na26 O42 2.660437 1_555
Na26 O0 2.786553 1_555
Na26 O58 2.885561 1_545
Na26 O62 2.943778 1_545
Na27 O115 2.393185 1_555
Na27 O73 2.432219 1_545
Na27 O77 2.562650 1_555
Na27 O117 2.571712 1_555
Na27 O43 2.687204 1_555
Na27 O1 2.821743 1_555
Na27 O63 2.932725 1_545
Na27 O59 2.971008 1_545
Na28 O116 2.430525 1_555
Na28 O74 2.477999 1_555
Na28 O118 2.588357 1_555
Na28 O73 2.636942 1_555
Na28 O2 2.674770 1_555
Na28 O44 2.718669 1_555
Na28 O54 2.911331 1_555
Na28 O64 2.919268 1_555
Na29 O117 2.389884 1_555
Na29 O75 2.500530 1_555
Na29 O119 2.548372 1_555
Na29 O72 2.575339 1_655
Na29 O3 2.713829 1_555
Na29 O45 2.714527 1_555
Na29 O65 2.880485 1_555
Na29 O55 2.972703 1_555
Na30 O86 2.550689 1_555
Na30 O75 2.570836 1_445
Na30 O89 2.584826 1_445
Na30 O76 2.599511 1_555
Na30 O72 2.605895 1_545
Na30 O85 2.607931 1_455
Na31 O84 2.531251 1_565
Na31 O88 2.531810 1_555
Na31 O87 2.546743 1_565
Na31 O73 2.592738 1_555
Na31 O74 2.603694 1_555
Na31 O77 2.611955 1_565
Na32 O93 2.564513 1_455
Na32 O83 2.584677 1_444
Na32 O80 2.587061 1_544
Na32 O94 2.588944 1_555
Na32 O91 2.589612 1_445
Na32 O78 2.598244 1_554
Na33 O81 2.546669 1_555
Na33 O82 2.547932 1_555
Na33 O79 2.551296 1_565
Na33 O95 2.596054 1_566
Na33 O92 2.600457 1_566
Na33 O90 2.634253 1_556
Na34 O96 2.511531 1_555
Na34 O112 2.528164 1_555
Na34 O110 2.535018 1_555
Na34 O100 2.543245 1_555
Na34 O108 2.580737 1_555
Na34 O98 2.669082 1_555
Na35 O97 2.529111 1_555
Na35 O101 2.562140 1_555
Na35 O99 2.578603 1_555
Na35 O111 2.605418 1_555
Na35 O109 2.645009 1_555
Na35 O113 2.653956 1_555
Na36 O102 2.500248 1_555
Na36 O104 2.527096 1_555
Na36 O116 2.562889 1_555
Na36 O118 2.589237 1_555
Na36 O114 2.624037 1_555
Na36 O106 2.646532 1_555
Na37 O103 2.539582 1_555
Na37 O119 2.541208 1_555
Na37 O105 2.566478 1_555
Na37 O117 2.619029 1_555
Na37 O107 2.673361 1_555
Na37 O115 2.674371 1_555
Na38 O136 2.525517 1_555
Na38 O120 2.552572 1_555
Na38 O134 2.557579 1_555
Na38 O122 2.623191 1_555
Na38 O124 2.631858 1_555
Na38 O132 2.673585 1_555
Na39 O137 2.529277 1_555
Na39 O135 2.555198 1_555
Na39 O123 2.577394 1_555
Na39 O121 2.601413 1_555
Na39 O133 2.673322 1_555
Na39 O125 2.683355 1_555
Na40 O140 2.495223 1_555
Na40 O142 2.528683 1_555
Na40 O126 2.543807 1_555
Na40 O130 2.609173 1_555
Na40 O128 2.618751 1_555
Na40 O138 2.671127 1_555
Na41 O131 2.565766 1_555
Na41 O141 2.584737 1_555
Na41 O139 2.590726 1_555
Na41 O143 2.592771 1_555
Na41 O129 2.603443 1_555
Na41 O127 2.613803 1_555
O0 S0 1.487395 1_555
O0 Zr0 2.248063 1_445
O1 S1 1.489069 1_555
O1 Zr1 2.207783 1_545
O2 Si0 1.651895 1_555
O2 Zr1 2.021970 1_555
O3 Si1 1.643502 1_555
O3 Zr0 2.009299 1_555
O4 Si3 1.655029 1_555
O4 Zr1 2.037800 1_545
O5 Si2 1.653062 1_555
O5 Zr0 2.034686 1_545
O6 S2 1.486792 1_555
O6 Zr2 2.241961 1_445
O7 Si4 1.645141 1_555
O7 Zr3 2.051480 1_555
O8 Si6 1.635177 1_555
O8 Zr3 2.043470 1_565
O9 Si5 1.659195 1_655
O9 Zr2 2.026144 1_555
O10 Si7 1.650099 1_545
O10 Zr3 2.039882 1_555
O11 Si8 1.640514 1_555
O11 Zr2 2.010122 1_545
O12 Si7 1.653363 1_555
O12 Zr5 2.075192 1_565
O13 Si8 1.642782 1_565
O13 Zr4 2.020831 1_555
O14 S2 1.485170 1_555
O14 Zr4 2.263047 1_445
O15 Si4 1.643552 1_555
O15 Zr5 2.048645 1_555
O16 Si5 1.649171 1_555
O16 Zr4 2.016447 1_455
O17 Si6 1.642126 1_555
O17 Zr5 2.063580 1_565
O18 Si0 1.653614 1_555
O18 Zr7 2.038657 1_565
O19 Si1 1.653933 1_555
O19 Zr6 2.029857 1_565
O20 Si2 1.648700 1_455
O20 Zr6 2.012905 1_455
O21 Si3 1.647821 1_555
O21 Zr7 2.014469 1_555
O22 S0 1.489732 1_565
O22 Zr6 2.238834 1_465
O23 S1 1.486336 1_565
O23 Zr7 2.221542 1_565
O24 Si9 1.646387 1_555
O24 Zr8 2.013445 1_555
O25 Si10 1.633232 1_555
O25 Ti0 1.867173 1_555
O26 Si11 1.624501 1_555
O26 Zr8 2.000038 1_555
O27 Si12 1.632195 1_555
O27 Ti0 1.979677 1_555
O28 Si13 1.636559 1_555
O28 Zr8 2.068827 1_555
O29 Si14 1.628721 1_555
O29 Ti0 1.981294 1_555
O30 Si15 1.652047 1_555
O30 Ti1 1.830537 1_555
O31 Si16 1.650208 1_555
O31 Ti2 1.823298 1_555
O32 Si17 1.632141 1_555
O32 Ti1 2.031133 1_555
O33 Si18 1.627304 1_555
O33 Ti2 2.023775 1_555
O34 Si19 1.636025 1_555
O34 Ti1 1.923285 1_555
O35 Si20 1.633611 1_555
O35 Ti2 1.911338 1_555
O36 Si19 1.641468 1_555
O36 Zr9 2.035977 1_554
O37 Si20 1.659697 1_555
O37 Ti3 1.885035 1_554
O38 Si15 1.631343 1_555
O38 Zr9 2.044126 1_554
O39 Si16 1.644445 1_555
O39 Ti3 1.917846 1_554
O40 Si17 1.640657 1_555
O40 Zr9 2.040850 1_554
O41 Si18 1.654719 1_555
O41 Ti3 1.896596 1_554
O42 Si11 1.636835 1_555
O42 Zr10 2.062243 1_555
O43 Si12 1.657870 1_555
O43 Ti4 1.891931 1_555
O44 Si13 1.638992 1_555
O44 Zr10 2.049808 1_555
O45 Si14 1.647282 1_555
O45 Ti4 1.908697 1_555
O46 Si9 1.632214 1_555
O46 Zr10 2.041709 1_555
O47 Si10 1.649635 1_555
O47 Ti4 1.913175 1_555
O48 Si21 1.659473 1_555
O48 Ti5 1.892327 1_556
O49 Si22 1.640327 1_555
O49 Ti6 1.902516 1_556
O50 Si23 1.655120 1_555
O50 Ti5 1.895478 1_556
O51 Si24 1.646187 1_555
O51 Ti6 1.907304 1_556
O52 Si25 1.638596 1_555
O52 Ti5 1.943242 1_556
O53 Si26 1.650144 1_555
O53 Ti6 1.902123 1_556
O54 Si27 1.636805 1_555
O54 Zr11 2.049323 1_555
O55 Si28 1.651071 1_555
O55 Ti7 1.893440 1_555
O56 Si29 1.630112 1_555
O56 Zr11 2.055200 1_555
O57 Si30 1.640128 1_555
O57 Ti7 1.924495 1_555
O58 Si31 1.639193 1_555
O58 Zr11 2.029189 1_555
O59 Si32 1.653108 1_555
O59 Ti7 1.900912 1_555
O60 Si31 1.636732 1_555
O60 Ti8 1.918157 1_555
O61 Si32 1.626809 1_555
O61 Ti9 1.895651 1_555
O62 Si27 1.625739 1_555
O62 Ti8 2.000746 1_555
O63 Si28 1.627262 1_555
O63 Ti9 2.018416 1_555
O64 Si29 1.641653 1_555
O64 Ti8 1.823916 1_555
O65 Si30 1.650647 1_555
O65 Ti9 1.821751 1_555
O66 Si23 1.632782 1_555
O66 Ti10 1.899642 1_555
O67 Si24 1.639097 1_555
O67 Ti11 1.923438 1_555
O68 Si25 1.638922 1_555
O68 Ti10 1.813562 1_555
O69 Si26 1.645380 1_555
O69 Ti11 1.929643 1_555
O70 Si21 1.629884 1_555
O70 Ti10 1.984793 1_555
O71 Si22 1.636730 1_555
O71 Ti11 1.928751 1_555
O72 Si31 1.641702 1_555
O72 Zr0 2.125062 1_455
O73 Si32 1.640723 1_555
O73 Zr1 2.164287 1_555
O74 Si27 1.652518 1_555
O74 Zr1 2.055775 1_555
O75 Si28 1.657338 1_555
O75 Zr0 2.085209 1_555
O76 Si29 1.627028 1_555
O76 Zr0 2.136434 1_445
O77 Si30 1.634146 1_555
O77 Zr1 2.175610 1_545
O78 Si23 1.647928 1_555
O78 Zr2 2.161868 1_445
O79 Si24 1.637910 1_555
O79 Zr3 2.152636 1_555
O80 Si25 1.635628 1_555
O80 Zr2 2.154698 1_455
O81 Si26 1.638918 1_555
O81 Zr3 2.171450 1_565
O82 Si21 1.643802 1_555
O82 Zr3 2.170911 1_565
O83 Si22 1.655581 1_555
O83 Zr2 2.071696 1_555
O84 Si9 1.629145 1_555
O84 Zr5 2.141209 1_555
O85 Si10 1.639988 1_555
O85 Zr4 2.166406 1_545
O86 Si11 1.633681 1_555
O86 Zr4 2.111762 1_445
O87 Si12 1.641456 1_555
O87 Zr5 2.177690 1_555
O88 Si13 1.633146 1_555
O88 Zr5 2.132773 1_565
O89 Si14 1.657688 1_555
O89 Zr4 2.068038 1_555
O90 Si15 1.628053 1_555
O90 Zr7 2.139144 1_565
O91 Si16 1.636821 1_555
O91 Zr6 2.183823 1_565
O92 Si17 1.656402 1_555
O92 Zr7 2.060235 1_555
O93 Si18 1.658201 1_555
O93 Zr6 2.089239 1_555
O94 Si19 1.641971 1_555
O94 Zr6 2.120761 1_455
O95 Si20 1.642649 1_555
O95 Zr7 2.173421 1_555
O96 Si7 1.637972 1_545
O96 Zr8 2.091936 1_555
O97 Si8 1.620428 1_555
O97 Ti0 1.997449 1_555
O98 S2 1.499161 1_555
O98 Zr8 2.303063 1_555
O99 Si4 1.623908 1_555
O99 Ti0 2.060836 1_555
O100 Si6 1.640040 1_555
O100 Zr8 2.136522 1_555
O101 Si5 1.634577 1_655
O101 Ti0 1.989640 1_555
O102 Si0 1.636693 1_555
O102 Ti1 1.935175 1_555
O103 Si1 1.631233 1_555
O103 Ti2 1.934867 1_555
O104 Si3 1.647412 1_555
O104 Ti1 2.010319 1_555
O105 Si2 1.643393 1_555
O105 Ti2 2.013311 1_555
O106 S0 1.479579 1_555
O106 Ti1 2.351162 1_555
O107 S1 1.477553 1_555
O107 Ti2 2.353179 1_555
O108 Si21 1.640040 1_555
O108 Zr9 2.159343 1_555
O109 Si22 1.631641 1_555
O109 Ti3 2.098961 1_555
O110 Si24 1.637062 1_555
O110 Zr9 2.160890 1_555
O111 Si23 1.637992 1_655
O111 Ti3 2.095647 1_555
O112 Si25 1.631285 1_545
O112 Zr9 2.150626 1_555
O113 Si26 1.641578 1_545
O113 Ti3 2.067074 1_555
O114 Si27 1.634709 1_545
O114 Zr10 2.145727 1_555
O115 Si28 1.639609 1_545
O115 Ti4 2.069348 1_555
O116 Si29 1.629266 1_555
O116 Zr10 2.142293 1_555
O117 Si30 1.633016 1_555
O117 Ti4 2.070224 1_555
O118 Si32 1.638153 1_555
O118 Zr10 2.145043 1_555
O119 Si31 1.638671 1_655
O119 Ti4 2.092946 1_555
O120 Si19 1.642685 1_555
O120 Ti5 2.069369 1_555
O121 Si20 1.640850 1_555
O121 Ti6 2.083760 1_555
O122 Si16 1.631217 1_455
O122 Ti5 2.074995 1_555
O123 Si15 1.632678 1_555
O123 Ti6 2.067067 1_555
O124 Si17 1.640678 1_565
O124 Ti5 2.074186 1_555
O125 Si18 1.639911 1_565
O125 Ti6 2.059045 1_555
O126 Si11 1.623900 1_565
O126 Zr11 2.124669 1_555
O127 Si12 1.646390 1_565
O127 Ti7 2.062864 1_555
O128 Si13 1.629750 1_555
O128 Zr11 2.134344 1_555
O129 Si14 1.633815 1_555
O129 Ti7 2.079851 1_555
O130 Si10 1.630527 1_455
O130 Zr11 2.158862 1_555
O131 Si9 1.628642 1_555
O131 Ti7 2.043449 1_555
O132 S0 1.478520 1_565
O132 Ti8 2.335002 1_555
O133 S1 1.475589 1_565
O133 Ti9 2.362881 1_555
O134 Si0 1.644125 1_555
O134 Ti8 2.016490 1_555
O135 Si1 1.642593 1_555
O135 Ti9 2.003575 1_555
O136 Si2 1.631966 1_455
O136 Ti8 1.929033 1_555
O137 Si3 1.631179 1_555
O137 Ti9 1.942502 1_555
O138 S2 1.454516 1_555
O138 Ti10 2.341320 1_555
O139 Si4 1.638317 1_555
O139 Ti11 2.032081 1_555
O140 Si5 1.626633 1_555
O140 Ti10 1.935395 1_555
O141 Si6 1.631258 1_555
O141 Ti11 2.039286 1_555
O142 Si7 1.630201 1_555
O142 Ti10 2.025206 1_555
O143 Si8 1.643666 1_565
O143 Ti11 2.020970 1_555
