# generated using pymatgen
data_CaNiBP2H3O10
_symmetry_space_group_name_H-M   'P 1'
_cell_length_a   6.68114727
_cell_length_b   6.68114727
_cell_length_c   9.24140818
_cell_angle_alpha   70.34892215
_cell_angle_beta   70.34892215
_cell_angle_gamma   78.22796178
_symmetry_Int_Tables_number   1
_chemical_formula_structural   CaNiBP2H3O10
_chemical_formula_sum   'Ca2 Ni2 B2 P4 H6 O20'
_cell_volume   363.93556722
_cell_formula_units_Z   2
loop_
 _symmetry_equiv_pos_site_id
 _symmetry_equiv_pos_as_xyz
  1  'x, y, z'
loop_
 _atom_site_type_symbol
 _atom_site_label
 _atom_site_symmetry_multiplicity
 _atom_site_fract_x
 _atom_site_fract_y
 _atom_site_fract_z
 _atom_site_occupancy
  Ca  Ca0  1  0.12567700  0.87432300  0.75000000  1
  Ca  Ca1  1  0.87432300  0.12567700  0.25000000  1
  Ni  Ni0  1  0.00000000  0.50000000  0.50000000  1
  Ni  Ni1  1  0.50000000  0.00000000  0.00000000  1
  B  B0  1  0.52760400  0.47239600  0.75000000  1
  B  B1  1  0.47239600  0.52760400  0.25000000  1
  P  P0  1  0.71744700  0.84716100  0.67304800  1
  P  P1  1  0.15283900  0.28255300  0.82695200  1
  P  P2  1  0.84716100  0.71744700  0.17304800  1
  P  P3  1  0.28255300  0.15283900  0.32695200  1
  H  H0  1  0.50000000  0.00000000  0.50000000  1
  H  H1  1  0.00000000  0.50000000  0.00000000  1
  H  H2  1  0.69440600  0.33741200  0.91488000  1
  H  H3  1  0.66258800  0.30559400  0.58512000  1
  H  H4  1  0.33741200  0.69440600  0.41488000  1
  H  H5  1  0.30559400  0.66258800  0.08512000  1
  O  O0  1  0.52969500  0.70031400  0.74327400  1
  O  O1  1  0.56099400  0.32315300  0.89886800  1
  O  O2  1  0.70031400  0.52969500  0.24327400  1
  O  O3  1  0.47030500  0.29968600  0.25672600  1
  O  O4  1  0.29968600  0.47030500  0.75672600  1
  O  O5  1  0.67684700  0.43900600  0.60113200  1
  O  O6  1  0.97038000  0.34643300  0.97037100  1
  O  O7  1  0.65356700  0.02962000  0.52962900  1
  O  O8  1  0.02962000  0.65356700  0.02962900  1
  O  O9  1  0.34643300  0.97038000  0.47037100  1
  O  O10  1  0.43900600  0.67684700  0.10113200  1
  O  O11  1  0.73152500  0.93856200  0.11373600  1
  O  O12  1  0.93856200  0.73152500  0.61373600  1
  O  O13  1  0.26847500  0.06143800  0.88626400  1
  O  O14  1  0.93882000  0.73376400  0.29886500  1
  O  O15  1  0.26623600  0.06118000  0.20113500  1
  O  O16  1  0.06118000  0.26623600  0.70113500  1
  O  O17  1  0.73376400  0.93882000  0.79886500  1
  O  O18  1  0.32315300  0.56099400  0.39886800  1
  O  O19  1  0.06143800  0.26847500  0.38626400  1
loop_
_geom_bond_atom_site_label_1
_geom_bond_atom_site_label_2
_geom_bond_distance
_geom_bond_site_symmetry_2
Ca0 O8 2.443856 1_556
Ca0 O9 2.443856 1_555
Ca0 O17 2.474062 1_455
Ca0 O16 2.474062 1_565
Ca0 O13 2.532268 1_565
Ca0 O12 2.532268 1_455
Ca0 O4 2.701290 1_555
Ca0 O0 2.701290 1_555
Ca1 O7 2.443856 1_555
Ca1 O6 2.443856 1_554
Ca1 O14 2.474062 1_545
Ca1 O15 2.474062 1_655
Ca1 O19 2.532268 1_655
Ca1 O11 2.532268 1_545
Ca1 O3 2.701290 1_555
Ca1 O2 2.701290 1_555
Ni0 O12 2.051897 1_455
Ni0 O19 2.051897 1_555
Ni0 O14 2.087905 1_455
Ni0 O16 2.087905 1_555
Ni0 O18 2.108708 1_555
Ni0 O5 2.108708 1_455
Ni1 O11 2.051897 1_545
Ni1 O13 2.051897 1_554
Ni1 O15 2.087905 1_555
Ni1 O17 2.087905 1_544
Ni1 O1 2.108708 1_554
Ni1 O10 2.108708 1_545
B0 O5 1.459354 1_555
B0 O1 1.459354 1_555
B0 O4 1.505747 1_555
B0 O0 1.505747 1_555
B1 O10 1.459354 1_555
B1 O18 1.459354 1_555
B1 O3 1.505747 1_555
B1 O2 1.505747 1_555
H0 O9 1.214522 1_545
H0 O7 1.214522 1_555
H1 O6 1.214522 1_454
H1 O8 1.214522 1_555
H2 O1 0.978932 1_555
H3 O5 0.978932 1_555
H4 O18 0.978932 1_555
H5 O10 0.978932 1_555
O0 P0 1.575959 1_555
O2 P2 1.575959 1_555
O3 P3 1.575959 1_555
O4 P1 1.575959 1_555
O6 P1 1.583143 1_655
O7 P0 1.583143 1_545
O8 P2 1.583143 1_455
O9 P3 1.583143 1_565
O11 P2 1.534352 1_555
O12 P0 1.534352 1_555
O13 P1 1.534352 1_555
O14 P2 1.526511 1_555
O15 P3 1.526511 1_555
O16 P1 1.526511 1_555
O17 P0 1.526511 1_555
O19 P3 1.534352 1_555
