# generated using pymatgen
data_Nb2Se4O13
_symmetry_space_group_name_H-M   'P 1'
_cell_length_a   6.70775494
_cell_length_b   7.62282535
_cell_length_c   11.49056528
_cell_angle_alpha   70.66994566
_cell_angle_beta   90.00000000
_cell_angle_gamma   90.00000000
_symmetry_Int_Tables_number   1
_chemical_formula_structural   Nb2Se4O13
_chemical_formula_sum   'Nb4 Se8 O26'
_cell_volume   554.41518697
_cell_formula_units_Z   2
loop_
 _symmetry_equiv_pos_site_id
 _symmetry_equiv_pos_as_xyz
  1  'x, y, z'
loop_
 _atom_site_type_symbol
 _atom_site_label
 _atom_site_symmetry_multiplicity
 _atom_site_fract_x
 _atom_site_fract_y
 _atom_site_fract_z
 _atom_site_occupancy
  Nb  Nb0  1  0.49462280  0.93625047  0.39720070  1
  Nb  Nb1  1  0.50537720  0.43625047  0.39720070  1
  Nb  Nb2  1  0.00307317  0.82930359  0.04748951  1
  Nb  Nb3  1  0.99692683  0.32930359  0.04748951  1
  Se  Se0  1  0.51905124  0.89338575  0.70918094  1
  Se  Se1  1  0.48094876  0.39338575  0.70918094  1
  Se  Se2  1  0.07239882  0.05177252  0.71961127  1
  Se  Se3  1  0.92760118  0.55177252  0.71961127  1
  Se  Se4  1  0.05241670  0.67376431  0.38544372  1
  Se  Se5  1  0.94758330  0.17376431  0.38544372  1
  Se  Se6  1  0.55142505  0.58912404  0.05817232  1
  Se  Se7  1  0.44857495  0.08912404  0.05817232  1
  O  O0  1  0.09980754  0.50213975  0.63377115  1
  O  O1  1  0.90019246  0.00213975  0.63377115  1
  O  O2  1  0.58355000  0.69923082  0.81646528  1
  O  O3  1  0.41645000  0.19923082  0.81646528  1
  O  O4  1  0.24604713  0.86572727  0.72396398  1
  O  O5  1  0.75395287  0.36572727  0.72396398  1
  O  O6  1  0.58102255  0.66200463  0.40441153  1
  O  O7  1  0.41897745  0.16200463  0.40441153  1
  O  O8  1  0.52941733  0.81967430  0.58053680  1
  O  O9  1  0.47058267  0.31967430  0.58053680  1
  O  O10  1  0.21140714  0.83675994  0.40650912  1
  O  O11  1  0.78859286  0.33675994  0.40650912  1
  O  O12  1  0.99195682  0.27205991  0.23187621  1
  O  O13  1  0.00804318  0.77205991  0.23187621  1
  O  O14  1  0.29149286  0.26986462  0.05593988  1
  O  O15  1  0.70850714  0.76986462  0.05593988  1
  O  O16  1  0.28914362  0.92474084  0.04067947  1
  O  O17  1  0.71085638  0.42474084  0.04067947  1
  O  O18  1  0.02187748  0.44295605  0.86583537  1
  O  O19  1  0.97812252  0.94295605  0.86583537  1
  O  O20  1  0.91902529  0.09945251  0.05074034  1
  O  O21  1  0.08097471  0.59945251  0.05074034  1
  O  O22  1  0.48331586  -0.00243317  0.21420505  1
  O  O23  1  0.51668414  0.49756683  0.21420505  1
  O  O24  1  0.21097105  0.49792085  0.38196637  1
  O  O25  1  0.78902895  0.99792085  0.38196637  1
loop_
_geom_bond_atom_site_label_1
_geom_bond_atom_site_label_2
_geom_bond_distance
_geom_bond_site_symmetry_2
Nb0 O7 1.822133 1_565
Nb0 O22 1.998754 1_565
Nb0 O8 2.010657 1_555
Nb0 O25 2.024108 1_555
Nb0 O10 2.035172 1_555
Nb0 O6 2.144383 1_555
Nb1 O6 1.822133 1_555
Nb1 O23 1.998754 1_555
Nb1 O9 2.010657 1_555
Nb1 O24 2.024108 1_555
Nb1 O11 2.035172 1_555
Nb1 O7 2.144383 1_555
Nb2 O21 1.816873 1_555
Nb2 O19 1.984509 1_454
Nb2 O13 2.017026 1_555
Nb2 O15 2.022297 1_455
Nb2 O16 2.044464 1_555
Nb2 O20 2.147293 1_465
Nb3 O20 1.816873 1_555
Nb3 O18 1.984509 1_654
Nb3 O12 2.017026 1_555
Nb3 O14 2.022297 1_655
Nb3 O17 2.044464 1_555
Nb3 O21 2.147293 1_655
O0 Se3 1.642370 1_455
O1 Se2 1.642370 1_655
O2 Se0 1.639954 1_555
O3 Se1 1.639954 1_555
O4 Se2 1.823059 1_565
O4 Se0 1.844737 1_555
O5 Se3 1.823059 1_555
O5 Se1 1.844737 1_555
O8 Se0 1.747991 1_555
O9 Se1 1.747991 1_555
O10 Se4 1.714299 1_555
O11 Se5 1.714299 1_555
O12 Se5 1.699545 1_555
O13 Se4 1.699545 1_555
O14 Se7 1.727913 1_555
O15 Se6 1.727913 1_555
O16 Se7 1.709090 1_565
O17 Se6 1.709090 1_555
O18 Se3 1.728689 1_455
O19 Se2 1.728689 1_665
O22 Se7 1.710999 1_555
O23 Se6 1.710999 1_555
O24 Se4 1.721893 1_555
O25 Se5 1.721893 1_565
