# generated using pymatgen
data_K2BaCo(NO2)6
_symmetry_space_group_name_H-M   'P 1'
_cell_length_a   7.64026331
_cell_length_b   7.64026331
_cell_length_c   7.64026331
_cell_angle_alpha   60.00000000
_cell_angle_beta   60.00000000
_cell_angle_gamma   60.00000000
_symmetry_Int_Tables_number   1
_chemical_formula_structural   K2BaCo(NO2)6
_chemical_formula_sum   'K2 Ba1 Co1 N6 O12'
_cell_volume   315.36245035
_cell_formula_units_Z   1
loop_
 _symmetry_equiv_pos_site_id
 _symmetry_equiv_pos_as_xyz
  1  'x, y, z'
loop_
 _atom_site_type_symbol
 _atom_site_label
 _atom_site_symmetry_multiplicity
 _atom_site_fract_x
 _atom_site_fract_y
 _atom_site_fract_z
 _atom_site_occupancy
  K  K0  1  0.25000000  0.25000000  0.25000000  1
  K  K1  1  0.75000000  0.75000000  0.75000000  1
  Ba  Ba0  1  0.50000000  0.50000000  0.50000000  1
  Co  Co0  1  0.00000000  0.00000000  0.00000000  1
  N  N0  1  0.18729800  0.81270200  0.81270200  1
  N  N1  1  0.81270200  0.18729800  0.18729800  1
  N  N2  1  0.81270200  0.18729800  0.81270200  1
  N  N3  1  0.18729800  0.81270200  0.18729800  1
  N  N4  1  0.81270200  0.81270200  0.18729800  1
  N  N5  1  0.18729800  0.18729800  0.81270200  1
  O  O0  1  0.85188400  0.34801700  0.14811600  1
  O  O1  1  0.34801700  0.85188400  0.65198300  1
  O  O2  1  0.14811600  0.65198300  0.85188400  1
  O  O3  1  0.34801700  0.14811600  0.85188400  1
  O  O4  1  0.85188400  0.14811600  0.65198300  1
  O  O5  1  0.65198300  0.34801700  0.85188400  1
  O  O6  1  0.34801700  0.65198300  0.14811600  1
  O  O7  1  0.14811600  0.85188400  0.34801700  1
  O  O8  1  0.65198300  0.14811600  0.34801700  1
  O  O9  1  0.65198300  0.85188400  0.14811600  1
  O  O10  1  0.14811600  0.34801700  0.65198300  1
  O  O11  1  0.85188400  0.65198300  0.34801700  1
loop_
_geom_bond_atom_site_label_1
_geom_bond_atom_site_label_2
_geom_bond_distance
_geom_bond_site_symmetry_2
K0 O8 3.150506 1_555
K0 O5 3.150506 1_554
K0 O2 3.150506 1_554
K0 O7 3.150506 1_545
K0 O1 3.150506 1_545
K0 O3 3.150506 1_554
K0 O0 3.150506 1_455
K0 O6 3.150506 1_555
K0 O4 3.150506 1_455
K0 O10 3.150506 1_555
K0 O9 3.150506 1_545
K0 O11 3.150506 1_455
K1 O4 3.150506 1_565
K1 O2 3.150506 1_655
K1 O8 3.150506 1_565
K1 O9 3.150506 1_556
K1 O6 3.150506 1_556
K1 O0 3.150506 1_556
K1 O3 3.150506 1_565
K1 O7 3.150506 1_655
K1 O10 3.150506 1_655
K1 O5 3.150506 1_555
K1 O11 3.150506 1_555
K1 O1 3.150506 1_555
Ba0 O11 2.928536 1_555
Ba0 O8 2.928536 1_555
Ba0 O6 2.928536 1_555
Ba0 O9 2.928536 1_555
Ba0 O0 2.928536 1_555
Ba0 O3 2.928536 1_555
Ba0 O10 2.928536 1_555
Ba0 O7 2.928536 1_555
Ba0 O1 2.928536 1_555
Ba0 O4 2.928536 1_555
Ba0 O5 2.928536 1_555
Ba0 O2 2.928536 1_555
Co0 N5 2.023748 1_554
Co0 N2 2.023748 1_454
Co0 N4 2.023748 1_445
Co0 N1 2.023748 1_455
Co0 N0 2.023748 1_544
Co0 N3 2.023748 1_545
N0 O1 1.263900 1_555
N0 O2 1.263900 1_555
N1 O0 1.263900 1_555
N1 O8 1.263900 1_555
N2 O5 1.263900 1_555
N2 O4 1.263900 1_555
N3 O7 1.263900 1_555
N3 O6 1.263900 1_555
N4 O11 1.263900 1_555
N4 O9 1.263900 1_555
N5 O3 1.263900 1_555
N5 O10 1.263900 1_555
