# generated using pymatgen
data_K3BiO3
_symmetry_space_group_name_H-M   'P 1'
_cell_length_a   9.26653661
_cell_length_b   9.26645003
_cell_length_c   9.26643560
_cell_angle_alpha   109.47173109
_cell_angle_beta   109.47047258
_cell_angle_gamma   109.47119454
_symmetry_Int_Tables_number   1
_chemical_formula_structural   K3BiO3
_chemical_formula_sum   'K12 Bi4 O12'
_cell_volume   612.52394141
_cell_formula_units_Z   4
loop_
 _symmetry_equiv_pos_site_id
 _symmetry_equiv_pos_as_xyz
  1  'x, y, z'
loop_
 _atom_site_type_symbol
 _atom_site_label
 _atom_site_symmetry_multiplicity
 _atom_site_fract_x
 _atom_site_fract_y
 _atom_site_fract_z
 _atom_site_occupancy
  K  K0  1  0.72662606  0.24356049  0.72661849  1
  K  K1  1  0.27337037  0.99999859  0.51693737  1
  K  K2  1  0.00000881  0.27338167  0.51694923  1
  K  K3  1  0.48306790  0.48307334  0.75643595  1
  K  K4  1  0.00000039  0.51693920  0.27337333  1
  K  K5  1  0.51693092  -0.00000699  0.27335781  1
  K  K6  1  0.48306577  0.75643246  0.48305435  1
  K  K7  1  0.27336719  0.51693569  0.00000274  1
  K  K8  1  0.51694042  0.27338138  0.00000642  1
  K  K9  1  0.72663725  0.72663793  0.24357835  1
  K  K10  1  0.24356977  0.72661643  0.72661976  1
  K  K11  1  0.75642715  0.48305417  0.48304743  1
  Bi  Bi0  1  0.29461072  0.29463041  0.29462682  1
  Bi  Bi1  1  0.00000347  0.70536165  -0.00001813  1
  Bi  Bi2  1  0.70535802  0.00000677  0.00000419  1
  Bi  Bi3  1  0.00000982  -0.00000165  0.70539535  1
  O  O0  1  0.47275727  0.47275873  0.26259344  1
  O  O1  1  0.00000137  0.78983149  0.52724077  1
  O  O2  1  0.78983576  -0.00000027  0.52724238  1
  O  O3  1  0.21017082  0.73740753  0.21016868  1
  O  O4  1  -0.00000104  0.52723345  0.78982728  1
  O  O5  1  0.52723487  0.00000026  0.78982965  1
  O  O6  1  0.47276001  0.26259185  0.47276009  1
  O  O7  1  0.78983383  0.52724105  0.00000182  1
  O  O8  1  0.52723799  0.78982938  -0.00000120  1
  O  O9  1  0.21017064  0.21016812  0.73740821  1
  O  O10  1  0.73740789  0.21017109  0.21016956  1
  O  O11  1  0.26259755  0.47276579  0.47276885  1
loop_
_geom_bond_atom_site_label_1
_geom_bond_atom_site_label_2
_geom_bond_distance
_geom_bond_site_symmetry_2
K0 O4 2.686104 1_655
K0 O7 2.686168 1_556
K0 O2 2.770017 1_555
K0 O5 2.770111 1_555
K0 O6 2.821849 1_555
K1 O9 2.686076 1_565
K1 O1 2.686109 1_555
K1 O3 2.770065 1_555
K1 O6 2.770096 1_565
K1 O5 2.821843 1_565
K2 O9 2.686109 1_555
K2 O2 2.686153 1_455
K2 O11 2.770071 1_555
K2 O10 2.770184 1_455
K2 O4 2.821705 1_555
K3 O11 2.686064 1_555
K3 O6 2.686116 1_555
K3 O8 2.769991 1_556
K3 O7 2.770139 1_556
K3 O9 2.821928 1_555
K4 O3 2.686123 1_555
K4 O7 2.686126 1_455
K4 O10 2.770083 1_455
K4 O11 2.770151 1_555
K4 O1 2.821807 1_555
K5 O8 2.686014 1_545
K5 O10 2.686102 1_555
K5 O3 2.770070 1_545
K5 O6 2.770120 1_555
K5 O2 2.821991 1_555
K6 O0 2.686020 1_555
K6 O11 2.686144 1_555
K6 O2 2.770063 1_565
K6 O5 2.770140 1_565
K6 O3 2.821848 1_555
K7 O3 2.686041 1_555
K7 O4 2.686127 1_554
K7 O9 2.770085 1_554
K7 O0 2.770099 1_555
K7 O8 2.821890 1_555
K8 O10 2.686142 1_555
K8 O5 2.686144 1_554
K8 O0 2.770018 1_555
K8 O9 2.770110 1_554
K8 O7 2.821840 1_555
K9 O2 2.686005 1_565
K9 O1 2.686082 1_655
K9 O7 2.770116 1_555
K9 O8 2.770157 1_555
K9 O0 2.821918 1_555
K10 O5 2.686114 1_565
K10 O8 2.686115 1_556
K10 O4 2.770121 1_555
K10 O1 2.770161 1_555
K10 O11 2.821651 1_555
K11 O0 2.686091 1_555
K11 O6 2.686125 1_555
K11 O1 2.770103 1_655
K11 O4 2.770191 1_655
K11 O10 2.821713 1_555
Bi0 O11 2.091409 1_555
Bi0 O0 2.091542 1_555
Bi0 O6 2.091632 1_555
Bi1 O4 2.091354 1_554
Bi1 O7 2.091571 1_455
Bi1 O3 2.091574 1_555
Bi2 O10 2.091383 1_555
Bi2 O8 2.091477 1_545
Bi2 O5 2.091484 1_554
Bi3 O1 2.091527 1_545
Bi3 O9 2.091579 1_555
Bi3 O2 2.091660 1_455
