# generated using pymatgen
data_Li3Cu2(WO4)4
_symmetry_space_group_name_H-M   'P 1'
_cell_length_a   5.90051900
_cell_length_b   6.87444149
_cell_length_c   8.16226661
_cell_angle_alpha   70.60782004
_cell_angle_beta   77.76103113
_cell_angle_gamma   71.05547349
_symmetry_Int_Tables_number   1
_chemical_formula_structural   Li3Cu2(WO4)4
_chemical_formula_sum   'Li3 Cu2 W4 O16'
_cell_volume   293.36346504
_cell_formula_units_Z   1
loop_
 _symmetry_equiv_pos_site_id
 _symmetry_equiv_pos_as_xyz
  1  'x, y, z'
loop_
 _atom_site_type_symbol
 _atom_site_label
 _atom_site_symmetry_multiplicity
 _atom_site_fract_x
 _atom_site_fract_y
 _atom_site_fract_z
 _atom_site_occupancy
  Li  Li0  1  0.93408700  0.65386300  0.13062200  1
  Li  Li1  1  0.06363200  0.34744600  0.87316500  1
  Li  Li2  1  0.43642100  0.14411800  0.62556300  1
  Cu  Cu0  1  0.00190100  0.49572400  0.49854600  1
  Cu  Cu1  1  0.50079600  0.00523300  0.00683100  1
  W  W0  1  0.96889000  0.04134700  0.29860900  1
  W  W1  1  0.47679700  0.54875500  0.79613200  1
  W  W2  1  0.52667900  0.45545200  0.20276600  1
  W  W3  1  0.02408300  0.95234200  0.69838000  1
  O  O0  1  0.98066400  0.75885000  0.32094400  1
  O  O1  1  0.14182800  0.63821600  0.72162400  1
  O  O2  1  0.85251900  0.36424500  0.28037400  1
  O  O3  1  0.53505600  0.73521500  0.16985000  1
  O  O4  1  0.71798500  0.48479000  0.94147300  1
  O  O5  1  0.83194100  0.91234600  0.91371800  1
  O  O6  1  0.67452500  0.57925500  0.59147300  1
  O  O7  1  0.35531100  0.86140700  0.77614000  1
  O  O8  1  0.77639600  0.01471800  0.55818300  1
  O  O9  1  0.28522700  0.51518200  0.05595000  1
  O  O10  1  0.03894600  0.23201700  0.68080700  1
  O  O11  1  0.20146400  0.99383000  0.44591400  1
  O  O12  1  0.65051900  0.14352900  0.21146100  1
  O  O13  1  0.33623800  0.40211700  0.41577100  1
  O  O14  1  0.16384500  0.09432700  0.08620600  1
  O  O15  1  0.45754800  0.26557500  0.82339700  1
loop_
_geom_bond_atom_site_label_1
_geom_bond_atom_site_label_2
_geom_bond_distance
_geom_bond_site_symmetry_2
Li0 O0 2.015934 1_555
Li0 O9 2.034964 1_655
Li0 O5 2.079200 1_554
Li0 O2 2.108634 1_555
Li0 O3 2.214320 1_555
Li1 O4 1.994743 1_455
Li1 O10 2.028637 1_555
Li1 O14 2.039547 1_556
Li1 O1 2.110304 1_555
Li1 O15 2.187762 1_555
Li2 O8 1.953556 1_555
Li2 O13 2.039347 1_555
Li2 O7 2.070041 1_545
Li2 O15 2.090079 1_555
Li2 O10 2.209369 1_555
Cu0 O0 1.891459 1_455
Cu0 O6 1.893218 1_455
Cu0 O10 1.907084 1_555
Cu0 O13 1.913555 1_555
Cu1 O3 1.867395 1_545
Cu1 O15 1.896285 1_554
Cu1 O14 1.916889 1_555
Cu1 O5 1.919826 1_544
Cu1 O12 2.588334 1_555
O0 W0 1.868723 1_565
O1 W3 1.997885 1_555
O1 W1 2.031402 1_555
O2 W2 1.990168 1_555
O2 W0 2.062807 1_555
O3 W2 1.867176 1_555
O4 W1 1.894483 1_555
O4 W2 2.169088 1_556
O5 W3 1.867323 1_655
O6 W1 1.815375 1_555
O7 W1 1.994069 1_555
O7 W3 2.020527 1_555
O8 W3 1.898839 1_645
O8 W0 2.160945 1_555
O9 W2 1.910929 1_555
O9 W1 2.157867 1_554
O10 W3 1.909374 1_545
O11 W0 1.892945 1_465
O11 W3 2.076622 1_555
O12 W0 1.976437 1_555
O12 W2 2.010110 1_555
O13 W2 1.853582 1_555
O14 W0 1.862465 1_455
O15 W1 1.922821 1_555
