# generated using pymatgen
data_Li3MnPCO7
_symmetry_space_group_name_H-M   'P 1'
_cell_length_a   5.02058878
_cell_length_b   6.58088100
_cell_length_c   8.63769018
_cell_angle_alpha   89.99961613
_cell_angle_beta   83.45159705
_cell_angle_gamma   90.00052962
_symmetry_Int_Tables_number   1
_chemical_formula_structural   Li3MnPCO7
_chemical_formula_sum   'Li6 Mn2 P2 C2 O14'
_cell_volume   283.52648504
_cell_formula_units_Z   2
loop_
 _symmetry_equiv_pos_site_id
 _symmetry_equiv_pos_as_xyz
  1  'x, y, z'
loop_
 _atom_site_type_symbol
 _atom_site_label
 _atom_site_symmetry_multiplicity
 _atom_site_fract_x
 _atom_site_fract_y
 _atom_site_fract_z
 _atom_site_occupancy
  Li  Li0  1  0.72932800  0.97826600  0.73231200  1
  Li  Li1  1  0.27070100  0.02177200  0.26772000  1
  Li  Li2  1  0.79953500  0.25000500  0.10345900  1
  Li  Li3  1  0.20038800  0.75001600  0.89654400  1
  Li  Li4  1  0.27071600  0.47824300  0.26770800  1
  Li  Li5  1  0.72932000  0.52177400  0.73231900  1
  Mn  Mn0  1  0.78120000  0.75000100  0.34126500  1
  Mn  Mn1  1  0.21898700  0.25003500  0.65876000  1
  P  P0  1  0.73751000  0.24998400  0.40661800  1
  P  P1  1  0.26253000  0.75001100  0.59338400  1
  C  C0  1  0.67067400  0.75000800  0.03938400  1
  C  C1  1  0.32933700  0.24997400  0.96061700  1
  O  O0  1  0.51209100  0.25004100  0.83915500  1
  O  O1  1  0.91913100  0.75000400  0.06363900  1
  O  O2  1  0.17512400  0.74999800  0.42817400  1
  O  O3  1  0.48787200  0.75001100  0.16084300  1
  O  O4  1  0.15169300  0.56557600  0.69407200  1
  O  O5  1  0.82488400  0.25001600  0.57182700  1
  O  O6  1  0.15165000  0.93443400  0.69409400  1
  O  O7  1  0.84834600  0.43440700  0.30590200  1
  O  O8  1  0.84843200  0.06555700  0.30593200  1
  O  O9  1  0.42367200  0.24999900  0.42171500  1
  O  O10  1  0.59835800  0.75000700  0.89929500  1
  O  O11  1  0.40142700  0.24984000  0.10068000  1
  O  O12  1  0.57633400  0.75000700  0.57828100  1
  O  O13  1  0.08075800  0.25001400  0.93630100  1
loop_
_geom_bond_atom_site_label_1
_geom_bond_atom_site_label_2
_geom_bond_distance
_geom_bond_site_symmetry_2
Li0 O6 2.127966 1_655
Li0 O10 2.133731 1_555
Li0 O12 2.202204 1_555
Li0 O0 2.238418 1_565
Li0 O5 2.279965 1_565
Li1 O8 2.127662 1_455
Li1 O11 2.132879 1_555
Li1 O9 2.201812 1_555
Li1 O3 2.238304 1_545
Li1 O2 2.279947 1_545
Li2 O13 1.900850 1_654
Li2 O11 2.001616 1_555
Li2 O7 2.165227 1_555
Li2 O8 2.165687 1_555
Li3 O1 1.900595 1_456
Li3 O10 2.000893 1_555
Li3 O6 2.165250 1_555
Li3 O4 2.165453 1_555
Li4 O7 2.128191 1_455
Li4 O11 2.134370 1_555
Li4 O9 2.201921 1_555
Li4 O3 2.238244 1_555
Li4 O2 2.279942 1_555
Li5 O4 2.128195 1_655
Li5 O10 2.133585 1_555
Li5 O12 2.202107 1_555
Li5 O0 2.238132 1_555
Li5 O5 2.280069 1_555
Mn0 O8 2.120373 1_565
Mn0 O7 2.120599 1_555
Mn0 O12 2.183792 1_555
Mn0 O2 2.193989 1_655
Mn0 O3 2.262953 1_555
Mn0 O1 2.418970 1_555
Mn1 O4 2.120308 1_555
Mn1 O6 2.120739 1_545
Mn1 O9 2.183682 1_555
Mn1 O5 2.194927 1_455
Mn1 O0 2.261955 1_555
Mn1 O13 2.418526 1_555
C0 O1 1.288219 1_555
C0 O10 1.302395 1_554
C0 O3 1.312767 1_555
C1 O13 1.288968 1_555
C1 O11 1.301744 1_556
C1 O0 1.312640 1_555
O2 P1 1.540074 1_555
O4 P1 1.558467 1_555
O5 P0 1.540002 1_555
O6 P1 1.558584 1_555
O7 P0 1.558529 1_555
O8 P0 1.558559 1_555
O9 P0 1.566148 1_555
O12 P1 1.565976 1_555
