# generated using pymatgen
data_GdSbPd
_symmetry_space_group_name_H-M   'P 1'
_cell_length_a   4.59257722
_cell_length_b   4.59257677
_cell_length_c   7.52517552
_cell_angle_alpha   90.00000000
_cell_angle_beta   90.00000000
_cell_angle_gamma   119.99999587
_symmetry_Int_Tables_number   1
_chemical_formula_structural   GdSbPd
_chemical_formula_sum   'Gd2 Sb2 Pd2'
_cell_volume   137.45488416
_cell_formula_units_Z   2
loop_
 _symmetry_equiv_pos_site_id
 _symmetry_equiv_pos_as_xyz
  1  'x, y, z'
loop_
 _atom_site_type_symbol
 _atom_site_label
 _atom_site_symmetry_multiplicity
 _atom_site_fract_x
 _atom_site_fract_y
 _atom_site_fract_z
 _atom_site_occupancy
  Gd  Gd0  1  -0.00000000  -0.00000000  0.49776405  1
  Gd  Gd1  1  0.00000000  0.00000000  0.99776043  1
  Sb  Sb0  1  0.33333300  0.66666700  0.72429102  1
  Sb  Sb1  1  0.66666700  0.33333300  0.22430162  1
  Pd  Pd0  1  0.66666700  0.33333300  0.82272491  1
  Pd  Pd1  1  0.33333300  0.66666700  0.32273899  1
loop_
_geom_bond_atom_site_label_1
_geom_bond_atom_site_label_2
_geom_bond_distance
_geom_bond_site_symmetry_2
Gd0 Pd1 2.960627 1_545
Gd0 Pd1 2.960630 1_555
Gd0 Pd1 2.960631 1_445
Gd0 Sb0 3.152209 1_545
Gd0 Sb0 3.152213 1_555
Gd0 Sb0 3.152213 1_445
Gd0 Sb1 3.356387 1_455
Gd0 Sb1 3.356390 1_445
Gd0 Sb1 3.356390 1_555
Gd0 Pd0 3.607006 1_455
Gd0 Pd0 3.607009 1_445
Gd0 Pd0 3.607009 1_555
Gd1 Pd0 2.960662 1_455
Gd1 Pd0 2.960665 1_445
Gd1 Pd0 2.960666 1_555
Gd1 Sb1 3.152267 1_456
Gd1 Sb1 3.152270 1_446
Gd1 Sb1 3.152271 1_556
Gd1 Sb0 3.356419 1_545
Gd1 Sb0 3.356422 1_555
Gd1 Sb0 3.356422 1_445
Gd1 Pd1 3.607096 1_546
Gd1 Pd1 3.607099 1_556
Gd1 Pd1 3.607100 1_446
Pd0 Sb0 2.753045 1_545
Pd0 Sb0 2.753045 1_655
Pd0 Sb0 2.753053 1_555
Pd0 Sb1 3.021935 1_556
Pd1 Sb1 2.753052 1_565
Pd1 Sb1 2.753053 1_455
Pd1 Sb1 2.753060 1_555
Pd1 Sb0 3.021750 1_555
