# generated using pymatgen
data_MgCr(WO4)2
_symmetry_space_group_name_H-M   'P 1'
_cell_length_a   4.97467136
_cell_length_b   6.78514190
_cell_length_c   6.31820260
_cell_angle_alpha   105.75980723
_cell_angle_beta   124.10817420
_cell_angle_gamma   92.03307479
_symmetry_Int_Tables_number   1
_chemical_formula_structural   MgCr(WO4)2
_chemical_formula_sum   'Mg1 Cr1 W2 O8'
_cell_volume   165.15437354
_cell_formula_units_Z   1
loop_
 _symmetry_equiv_pos_site_id
 _symmetry_equiv_pos_as_xyz
  1  'x, y, z'
loop_
 _atom_site_type_symbol
 _atom_site_label
 _atom_site_symmetry_multiplicity
 _atom_site_fract_x
 _atom_site_fract_y
 _atom_site_fract_z
 _atom_site_occupancy
  Mg  Mg0  1  0.59193900  0.86835300  0.08916200  1
  Cr  Cr0  1  0.12316100  0.22291100  0.09642700  1
  W  W0  1  0.89318400  0.38956700  0.60741300  1
  W  W1  1  0.35358000  0.06569300  0.58631700  1
  O  O0  1  0.19784600  0.63504900  0.83053400  1
  O  O1  1  0.53459500  0.46735700  0.35549700  1
  O  O2  1  0.18455300  0.18611200  0.80490300  1
  O  O3  1  0.48976500  0.07799800  0.32682300  1
  O  O4  1  0.71270100  0.98571200  0.88360000  1
  O  O5  1  0.03758000  0.82425500  0.34388400  1
  O  O6  1  0.06658800  0.26737500  0.40068200  1
  O  O7  1  0.76117000  0.35413800  0.83387500  1
loop_
_geom_bond_atom_site_label_1
_geom_bond_atom_site_label_2
_geom_bond_distance
_geom_bond_site_symmetry_2
Mg0 O0 1.949714 1_554
Mg0 O5 1.975246 1_655
Mg0 O4 2.021074 1_554
Mg0 O3 2.069672 1_565
Cr0 O2 1.983611 1_554
Cr0 O4 2.019820 1_444
Cr0 O1 2.036290 1_555
Cr0 O6 2.040433 1_555
Cr0 O3 2.083070 1_555
Cr0 O7 2.086458 1_454
O0 W0 1.791050 1_455
O1 W0 1.825643 1_555
O2 W1 2.005030 1_555
O2 W0 2.147763 1_455
O3 W1 2.114257 1_555
O3 W0 2.304903 1_555
O4 W1 1.968060 1_565
O5 W1 1.804106 1_565
O6 W0 1.965637 1_455
O6 W1 2.102160 1_555
O7 W0 1.940579 1_555
O7 W1 2.210626 1_555
