# generated using pymatgen
data_NaZnGe3P3(SO8)3
_symmetry_space_group_name_H-M   'P 1'
_cell_length_a   8.43707467
_cell_length_b   8.42523704
_cell_length_c   21.84765473
_cell_angle_alpha   90.42109303
_cell_angle_beta   90.03495295
_cell_angle_gamma   120.17975508
_symmetry_Int_Tables_number   1
_chemical_formula_structural   NaZnGe3P3(SO8)3
_chemical_formula_sum   'Na3 Zn3 Ge9 P9 S9 O72'
_cell_volume   1342.46464923
_cell_formula_units_Z   3
loop_
 _symmetry_equiv_pos_site_id
 _symmetry_equiv_pos_as_xyz
  1  'x, y, z'
loop_
 _atom_site_type_symbol
 _atom_site_label
 _atom_site_symmetry_multiplicity
 _atom_site_fract_x
 _atom_site_fract_y
 _atom_site_fract_z
 _atom_site_occupancy
  Na  Na0  1  0.66104150  0.33288710  0.83210048  1
  Na  Na1  1  0.67084043  0.33131486  0.33245271  1
  Na  Na2  1  0.33140560  0.67073008  0.16623716  1
  Zn  Zn0  1  0.65651848  0.33968028  0.68590107  1
  Zn  Zn1  1  0.67319593  0.33131912  0.18144394  1
  Zn  Zn2  1  0.33116347  0.67393713  0.31736594  1
  Ge  Ge0  1  0.99358457  0.99149156  0.35851546  1
  Ge  Ge1  1  0.00700466  0.00507451  0.85943316  1
  Ge  Ge2  1  0.99823008  0.00060246  0.64619920  1
  Ge  Ge3  1  0.99276757  0.99428497  0.14014672  1
  Ge  Ge4  1  0.67636745  0.33556609  0.97997908  1
  Ge  Ge5  1  0.67832118  0.34322751  0.48336465  1
  Ge  Ge6  1  0.33407373  0.67439782  0.01642355  1
  Ge  Ge7  1  0.34357661  0.67703023  0.51688844  1
  Ge  Ge8  1  0.33320203  0.65783964  0.81527663  1
  P  P0  1  0.28076960  0.28578319  0.75217101  1
  P  P1  1  0.66390045  0.62836519  0.58368818  1
  P  P2  1  0.96173643  0.62424701  0.08290705  1
  P  P3  1  0.66359970  0.03976372  0.08263011  1
  P  P4  1  0.62305155  0.66639324  0.91685539  1
  P  P5  1  0.04691231  0.38089754  0.91675045  1
  P  P6  1  0.33592219  0.95523400  0.91561827  1
  P  P7  1  0.62751364  0.96520131  0.41683258  1
  P  P8  1  0.04232434  0.66536120  0.41706022  1
  S  S0  1  0.28165344  0.00233238  0.24957531  1
  S  S1  1  0.71297359  0.71283805  0.24957116  1
  S  S2  1  0.00170989  0.28127304  0.25044871  1
  S  S3  1  0.00712986  0.71653026  0.75217499  1
  S  S4  1  0.71002670  0.99497597  0.75208619  1
  S  S5  1  0.96513180  0.33685203  0.58388173  1
  S  S6  1  0.37345708  0.03973394  0.58299593  1
  S  S7  1  0.37411238  0.33501717  0.08277695  1
  S  S8  1  0.33446696  0.37254473  0.41672787  1
  O  O0  1  0.19787604  0.03028169  0.30690434  1
  O  O1  1  0.82768529  0.79644395  0.30663905  1
  O  O2  1  0.97362882  0.16852594  0.30694966  1
  O  O3  1  0.19012428  0.16232633  0.80829443  1
  O  O4  1  0.96811510  0.79788456  0.80666252  1
  O  O5  1  0.82635164  0.02722543  0.80687565  1
  O  O6  1  0.78625108  0.95674833  0.69492840  1
  O  O7  1  0.16037847  0.20171852  0.69241445  1
  O  O8  1  0.03936215  0.82820583  0.69524641  1
  O  O9  1  0.79767337  0.82784342  0.19404186  1
  O  O10  1  0.02915936  0.19640631  0.19354618  1
  O  O11  1  0.16764702  0.97324002  0.19326026  1
  O  O12  1  0.88884230  0.37137634  0.63826453  1
  O  O13  1  0.48533176  0.11064784  0.63758753  1
  O  O14  1  0.62367077  0.51444243  0.63939105  1
  O  O15  1  0.89318355  0.51591078  0.14105572  1
  O  O16  1  0.61658812  0.10450775  0.14082209  1
  O  O17  1  0.48125309  0.37340752  0.13858957  1
  O  O18  1  0.45250211  0.29612156  0.02739162  1
  O  O19  1  0.83547260  0.54177479  0.02553639  1
  O  O20  1  0.70220043  0.16250202  0.02535643  1
  O  O21  1  0.45310202  0.15660302  0.52758663  1
  O  O22  1  0.70650451  0.54479533  0.52551701  1
  O  O23  1  0.84344676  0.29211074  0.52802476  1
  O  O24  1  0.54018947  0.70532770  0.97337146  1
  O  O25  1  0.16835710  0.46280620  0.97353369  1
  O  O26  1  0.29514367  0.83646471  0.97248949  1
  O  O27  1  0.54609393  0.84019059  0.47366880  1
  O  O28  1  0.29593525  0.45212208  0.47213179  1
  O  O29  1  0.16445566  0.70174198  0.47498164  1
  O  O30  1  0.10661413  0.61652716  0.35954675  1
  O  O31  1  0.51627546  0.89633419  0.35907355  1
  O  O32  1  0.37452810  0.48141870  0.36169484  1
  O  O33  1  0.12379708  0.50242166  0.85919285  1
  O  O34  1  0.37772917  0.87332001  0.85793029  1
  O  O35  1  0.50065206  0.62194437  0.85871091  1
  O  O36  1  0.02484194  0.83949290  0.41067062  1
  O  O37  1  0.82115144  0.98769149  0.41027434  1
  O  O38  1  0.16826782  0.18838342  0.41082237  1
  O  O39  1  0.02532971  0.19030138  0.90866973  1
  O  O40  1  0.16384839  0.97106999  0.90764812  1
  O  O41  1  0.81197976  0.83714563  0.90641737  1
  O  O42  1  0.98167660  0.16864181  0.58888586  1
  O  O43  1  0.18853608  0.02132378  0.58922839  1
  O  O44  1  0.84007846  0.82328784  0.59153138  1
  O  O45  1  0.98412309  0.81867297  0.08937693  1
  O  O46  1  0.83850657  0.02371555  0.08952775  1
  O  O47  1  0.18859383  0.16787957  0.08866738  1
  O  O48  1  0.69521411  0.15892042  0.74574760  1
  O  O49  1  0.46782436  0.30326723  0.74831698  1
  O  O50  1  0.84715849  0.53305543  0.74680084  1
  O  O51  1  0.69955324  0.53358691  0.24591438  1
  O  O52  1  0.83559100  0.29459640  0.24790537  1
  O  O53  1  0.46074602  0.16940380  0.24693019  1
  O  O54  1  0.63972420  0.49274009  0.92500727  1
  O  O55  1  0.85528776  0.36129023  0.92330564  1
  O  O56  1  0.50694348  0.14828260  0.92417979  1
  O  O57  1  0.64562130  0.15593208  0.42972662  1
  O  O58  1  0.49668682  0.34945587  0.42664317  1
  O  O59  1  0.84739319  0.49667377  0.42726360  1
  O  O60  1  0.35242969  0.49810954  0.07400799  1
  O  O61  1  0.15311696  0.64477908  0.07238625  1
  O  O62  1  0.49631666  0.84400443  0.07254275  1
  O  O63  1  0.35004178  0.85365740  0.57348675  1
  O  O64  1  0.49366407  0.64754101  0.57029486  1
  O  O65  1  0.14689042  0.49951268  0.57229061  1
  O  O66  1  0.29389487  0.83495192  0.25210485  1
  O  O67  1  0.53402044  0.70026144  0.25398225  1
  O  O68  1  0.16969025  0.46083517  0.25374807  1
  O  O69  1  0.29212329  0.47519282  0.75896371  1
  O  O70  1  0.17835843  0.70930128  0.75846788  1
  O  O71  1  0.52763560  0.82597798  0.75790248  1
loop_
_geom_bond_atom_site_label_1
_geom_bond_atom_site_label_2
_geom_bond_distance
_geom_bond_site_symmetry_2
Na0 O49 2.377191 1_555
Na0 O54 2.483967 1_555
Na0 O50 2.483971 1_555
Na0 O56 2.484449 1_555
Na0 O48 2.485080 1_555
Na0 O55 2.511649 1_555
Na1 O52 2.422174 1_555
Na1 O53 2.453856 1_555
Na1 O51 2.484024 1_555
Na1 O59 2.513523 1_555
Na1 O57 2.544759 1_555
Na1 O58 2.577191 1_555
Na2 O66 2.436549 1_555
Na2 O61 2.484699 1_555
Na2 O67 2.494103 1_555
Na2 O62 2.502501 1_555
Na2 O68 2.504242 1_555
Na2 O60 2.534479 1_555
Ge0 O37 1.830846 1_555
Ge0 O36 1.835369 1_655
Ge0 O1 1.897962 1_555
Ge0 O38 1.934388 1_665
Ge0 O0 1.946932 1_665
Ge0 O2 1.949169 1_565
Ge1 O40 1.823936 1_545
Ge1 O39 1.830023 1_555
Ge1 O3 1.832051 1_555
Ge1 O41 1.856252 1_445
Ge1 O4 1.969304 1_445
Ge1 O5 1.990847 1_455
Ge2 O7 1.845184 1_655
Ge2 O44 1.845635 1_545
Ge2 O6 1.952513 1_545
Ge2 O42 1.953579 1_555
Ge2 O43 1.970161 1_655
Ge2 O8 1.976769 1_645
Ge3 O45 1.814404 1_555
Ge3 O46 1.818019 1_565
Ge3 O47 1.931505 1_665
Ge3 O9 1.941185 1_555
Ge3 O10 1.949345 1_665
Ge3 O11 1.954217 1_655
Ge4 O19 1.854496 1_556
Ge4 O20 1.870010 1_556
Ge4 O55 1.880460 1_555
Ge4 O56 1.929013 1_555
Ge4 O54 1.930317 1_555
Ge4 O18 2.031558 1_556
Ge5 O22 1.832884 1_555
Ge5 O59 1.838405 1_555
Ge5 O57 1.863920 1_555
Ge5 O23 1.919954 1_555
Ge5 O58 1.991578 1_555
Ge5 O21 2.009238 1_555
Ge6 O26 1.833977 1_554
Ge6 O62 1.850543 1_555
Ge6 O25 1.865143 1_554
Ge6 O61 1.873982 1_555
Ge6 O24 1.877964 1_554
Ge6 O60 2.017745 1_555
Ge7 O64 1.829060 1_555
Ge7 O27 1.833105 1_555
Ge7 O29 1.866273 1_555
Ge7 O63 1.907297 1_555
Ge7 O28 1.978601 1_555
Ge7 O65 1.997358 1_555
Ge8 O35 1.849346 1_555
Ge8 O69 1.853976 1_555
Ge8 O33 1.857731 1_555
Ge8 O34 1.895904 1_555
Ge8 O71 1.990279 1_555
Ge8 O70 2.002650 1_555
O0 S0 1.512591 1_555
O1 S1 1.512469 1_555
O2 S2 1.507837 1_655
O3 P0 1.546083 1_555
O4 S3 1.486812 1_655
O5 S4 1.481751 1_545
O6 S4 1.509987 1_555
O7 P0 1.580913 1_555
O8 S3 1.505495 1_555
O9 S1 1.497834 1_555
O10 S2 1.504721 1_555
O11 S0 1.502044 1_565
O12 S5 1.447298 1_555
O12 Zn0 2.115863 1_555
O13 S6 1.446229 1_555
O13 Zn0 2.022328 1_555
O14 P1 1.485808 1_555
O14 Zn0 1.925944 1_555
O15 P2 1.506238 1_555
O15 Zn1 1.939636 1_555
O16 P3 1.509697 1_555
O16 Zn1 1.929861 1_555
O17 S7 1.451728 1_555
O17 Zn1 2.050688 1_555
O18 S7 1.490661 1_555
O19 P2 1.558862 1_555
O20 P3 1.556301 1_555
O21 S6 1.496599 1_555
O22 P1 1.575443 1_555
O23 S5 1.512606 1_555
O24 P4 1.531872 1_555
O25 P5 1.529734 1_555
O26 P6 1.528448 1_555
O27 P7 1.554332 1_555
O28 S8 1.492674 1_555
O29 P8 1.559566 1_555
O30 P8 1.503327 1_555
O30 Zn2 1.939028 1_555
O31 P7 1.500053 1_555
O31 Zn2 1.952262 1_555
O32 S8 1.451300 1_555
O32 Zn2 2.078960 1_555
O33 P5 1.550016 1_555
O34 P6 1.556183 1_555
O35 P4 1.556594 1_555
O36 P8 1.553765 1_555
O37 P7 1.554016 1_555
O38 S8 1.483136 1_555
O39 P5 1.531265 1_555
O40 P6 1.533177 1_555
O41 P4 1.536925 1_555
O42 S5 1.497026 1_555
O43 S6 1.494675 1_555
O44 P1 1.573869 1_555
O45 P2 1.557069 1_555
O46 P3 1.555419 1_555
O47 S7 1.495424 1_555
O48 S4 1.455698 1_545
O48 Zn0 2.159670 1_555
O49 P0 1.511983 1_555
O49 Zn0 2.001478 1_555
O50 S3 1.457546 1_655
O50 Zn0 2.083875 1_555
O51 S1 1.458182 1_555
O51 Zn1 2.126230 1_555
O52 S2 1.462269 1_655
O52 Zn1 2.124096 1_555
O53 S0 1.459698 1_555
O53 Zn1 2.166599 1_555
O54 P4 1.550097 1_555
O55 P5 1.547185 1_655
O56 P6 1.548554 1_545
O57 P7 1.559311 1_545
O58 S8 1.491961 1_555
O59 P8 1.558669 1_655
O60 S7 1.488242 1_555
O61 P2 1.552478 1_455
O62 P3 1.553911 1_565
O63 S6 1.491227 1_565
O64 P1 1.551826 1_555
O65 S5 1.478678 1_455
O66 S0 1.466295 1_565
O66 Zn2 2.104489 1_555
O67 S1 1.462741 1_555
O67 Zn2 2.126468 1_555
O68 S2 1.464608 1_555
O68 Zn2 2.124415 1_555
O69 P0 1.555844 1_555
O70 S3 1.482574 1_555
O71 S4 1.487098 1_555
