# generated using pymatgen
data_Li4V3O8
_symmetry_space_group_name_H-M   'P 1'
_cell_length_a   4.02655700
_cell_length_b   6.21723800
_cell_length_c   11.80242112
_cell_angle_alpha   79.64547377
_cell_angle_beta   90.00000000
_cell_angle_gamma   90.00000000
_symmetry_Int_Tables_number   1
_chemical_formula_structural   Li4V3O8
_chemical_formula_sum   'Li8 V6 O16'
_cell_volume   290.65078085
_cell_formula_units_Z   2
loop_
 _symmetry_equiv_pos_site_id
 _symmetry_equiv_pos_as_xyz
  1  'x, y, z'
loop_
 _atom_site_type_symbol
 _atom_site_label
 _atom_site_symmetry_multiplicity
 _atom_site_fract_x
 _atom_site_fract_y
 _atom_site_fract_z
 _atom_site_occupancy
  Li  Li0  1  0.75000000  0.18299300  0.40608600  1
  Li  Li1  1  0.25000000  0.81700700  0.59391400  1
  Li  Li2  1  0.75000000  0.01354800  0.68247800  1
  Li  Li3  1  0.25000000  0.45122400  0.30344100  1
  Li  Li4  1  0.75000000  0.42155600  0.94201800  1
  Li  Li5  1  0.25000000  0.57844400  0.05798200  1
  Li  Li6  1  0.25000000  0.98645200  0.31752200  1
  Li  Li7  1  0.75000000  0.54877600  0.69655900  1
  V  V0  1  0.75000000  0.76732300  0.19189300  1
  V  V1  1  0.25000000  0.23267700  0.80810700  1
  V  V2  1  0.75000000  0.88785400  0.92220200  1
  V  V3  1  0.25000000  0.11214600  0.07779800  1
  V  V4  1  0.75000000  0.67027200  0.44703000  1
  V  V5  1  0.25000000  0.32972800  0.55297000  1
  O  O0  1  0.75000000  0.19268000  0.82224100  1
  O  O1  1  0.75000000  0.51731400  0.31002400  1
  O  O2  1  0.25000000  0.80732000  0.17775900  1
  O  O3  1  0.25000000  0.48268600  0.68997600  1
  O  O4  1  0.25000000  0.63079100  0.45370600  1
  O  O5  1  0.75000000  0.36920900  0.54629400  1
  O  O6  1  0.25000000  0.94352700  0.93366700  1
  O  O7  1  0.75000000  0.05647300  0.06633300  1
  O  O8  1  0.25000000  0.07437000  0.68293800  1
  O  O9  1  0.75000000  0.92563000  0.31706200  1
  O  O10  1  0.25000000  0.26996700  0.18093800  1
  O  O11  1  0.75000000  0.73003300  0.81906200  1
  O  O12  1  0.25000000  0.18020100  0.43780300  1
  O  O13  1  0.75000000  0.81979900  0.56219700  1
  O  O14  1  0.25000000  0.35886300  0.94315500  1
  O  O15  1  0.75000000  0.64113700  0.05684500  1
loop_
_geom_bond_atom_site_label_1
_geom_bond_atom_site_label_2
_geom_bond_distance
_geom_bond_site_symmetry_2
Li0 O12 2.047287 1_555
Li0 O12 2.047287 1_655
Li0 O9 2.066060 1_545
Li0 O1 2.181437 1_555
Li0 O5 2.183443 1_555
Li1 O13 2.047287 1_455
Li1 O13 2.047287 1_555
Li1 O8 2.066060 1_565
Li1 O3 2.181437 1_555
Li1 O4 2.183443 1_555
Li2 O13 2.020154 1_545
Li2 O8 2.048671 1_555
Li2 O8 2.048671 1_655
Li2 O0 2.149820 1_555
Li2 O11 2.164304 1_545
Li2 O5 2.489042 1_555
Li3 O10 1.986475 1_555
Li3 O1 2.059039 1_555
Li3 O1 2.059039 1_455
Li3 O12 2.096061 1_555
Li3 O4 2.259068 1_555
Li3 O2 2.433372 1_555
Li4 O14 2.050248 1_655
Li4 O14 2.050248 1_555
Li4 O15 2.089375 1_556
Li4 O0 2.178628 1_555
Li4 O11 2.187161 1_555
Li4 O7 2.471354 1_556
Li5 O15 2.050248 1_455
Li5 O15 2.050248 1_555
Li5 O14 2.089375 1_554
Li5 O2 2.178628 1_555
Li5 O10 2.187161 1_555
Li5 O6 2.471354 1_554
Li6 O12 2.020154 1_565
Li6 O9 2.048671 1_555
Li6 O9 2.048671 1_455
Li6 O2 2.149820 1_555
Li6 O10 2.164304 1_565
Li6 O4 2.489042 1_555
Li7 O11 1.986475 1_555
Li7 O3 2.059039 1_655
Li7 O3 2.059039 1_555
Li7 O13 2.096061 1_555
Li7 O5 2.259068 1_555
Li7 O0 2.433372 1_555
O0 V1 2.031759 1_655
O0 V1 2.031759 1_555
O0 V2 2.044462 1_545
O1 V0 1.892325 1_555
O1 V4 2.017878 1_555
O2 V0 2.031759 1_555
O2 V0 2.031759 1_455
O2 V3 2.044462 1_565
O3 V1 1.892325 1_555
O3 V5 2.017878 1_555
O4 V5 2.021833 1_555
O4 V4 2.028003 1_555
O4 V4 2.028003 1_455
O5 V4 2.021833 1_555
O5 V5 2.028003 1_655
O5 V5 2.028003 1_555
O6 V2 2.051401 1_455
O6 V2 2.051401 1_555
O6 V1 2.114279 1_565
O6 V3 2.152630 1_566
O7 V3 2.051401 1_555
O7 V3 2.051401 1_655
O7 V0 2.114279 1_545
O7 V2 2.152630 1_544
O8 V1 1.916716 1_555
O8 V5 1.999517 1_555
O9 V0 1.916716 1_555
O9 V4 1.999517 1_555
O10 V3 1.695278 1_555
O11 V2 1.695278 1_555
O12 V5 1.779337 1_555
O13 V4 1.779337 1_555
O14 V1 1.898813 1_555
O14 V3 2.000472 1_556
O15 V0 1.898813 1_555
O15 V2 2.000472 1_554
