# generated using pymatgen
data_KMgMn16O32
_symmetry_space_group_name_H-M   'P 1'
_cell_length_a   5.92349237
_cell_length_b   10.03673271
_cell_length_c   10.24357200
_cell_angle_alpha   89.75886587
_cell_angle_beta   89.95784469
_cell_angle_gamma   90.06616665
_symmetry_Int_Tables_number   1
_chemical_formula_structural   KMgMn16O32
_chemical_formula_sum   'K1 Mg1 Mn16 O32'
_cell_volume   609.00009639
_cell_formula_units_Z   1
loop_
 _symmetry_equiv_pos_site_id
 _symmetry_equiv_pos_as_xyz
  1  'x, y, z'
loop_
 _atom_site_type_symbol
 _atom_site_label
 _atom_site_symmetry_multiplicity
 _atom_site_fract_x
 _atom_site_fract_y
 _atom_site_fract_z
 _atom_site_occupancy
  K  K0  1  0.00059700  0.49961600  0.49606800  1
  Mg  Mg0  1  0.00563400  0.99938200  0.49634800  1
  Mn  Mn0  1  0.50170200  0.16970900  0.35294000  1
  Mn  Mn1  1  0.00093700  0.17958200  0.32829100  1
  Mn  Mn2  1  0.50216600  0.34967500  0.83554600  1
  Mn  Mn3  1  0.00203000  0.34908300  0.83708900  1
  Mn  Mn4  1  0.00199700  0.65010100  0.15536400  1
  Mn  Mn5  1  0.50238300  0.64956600  0.15686300  1
  Mn  Mn6  1  0.00139100  0.81906800  0.66406300  1
  Mn  Mn7  1  0.50190300  0.82908300  0.63957600  1
  Mn  Mn8  1  0.74800600  0.66424600  0.84913800  1
  Mn  Mn9  1  0.25247500  0.66386200  0.84889300  1
  Mn  Mn10  1  0.75327600  0.83929600  0.32427800  1
  Mn  Mn11  1  0.25557500  0.83959800  0.32351900  1
  Mn  Mn12  1  0.75258300  0.15969900  0.66815400  1
  Mn  Mn13  1  0.25492100  0.15950500  0.66888500  1
  Mn  Mn14  1  0.74733300  0.33466400  0.14330300  1
  Mn  Mn15  1  0.25193100  0.33527300  0.14384300  1
  O  O0  1  0.77354400  0.96281400  0.64289800  1
  O  O1  1  0.23505100  0.96080700  0.64372300  1
  O  O2  1  0.74955200  0.66786800  0.03748300  1
  O  O3  1  0.25424100  0.66702700  0.03748400  1
  O  O4  1  0.74918000  0.33129800  0.95507900  1
  O  O5  1  0.25392900  0.33213200  0.95503400  1
  O  O6  1  0.77470100  0.03545400  0.34978700  1
  O  O7  1  0.23593500  0.03893900  0.34883200  1
  O  O8  1  0.99965100  0.45797300  0.15056000  1
  O  O9  1  0.50064900  0.45710800  0.15393800  1
  O  O10  1  0.00388900  0.18699200  0.54029200  1
  O  O11  1  0.50324500  0.17525200  0.54514500  1
  O  O12  1  0.50331700  0.82403400  0.44752200  1
  O  O13  1  0.00427400  0.81183700  0.45241600  1
  O  O14  1  0.50081100  0.54190200  0.83885800  1
  O  O15  1  0.00012100  0.54104400  0.84230100  1
  O  O16  1  0.50023000  0.79240500  0.83310700  1
  O  O17  1  0.00037100  0.79216200  0.84693100  1
  O  O18  1  0.00369200  0.83944000  0.20077200  1
  O  O19  1  0.50428900  0.84079600  0.19980300  1
  O  O20  1  0.99978800  0.20665000  0.14569900  1
  O  O21  1  0.49928300  0.20662400  0.15942700  1
  O  O22  1  0.50350400  0.15838900  0.79271800  1
  O  O23  1  0.00289600  0.15970300  0.79165800  1
  O  O24  1  0.75940600  0.30231200  0.33200200  1
  O  O25  1  0.23413100  0.30655000  0.33059600  1
  O  O26  1  0.75324200  0.35069200  0.71024400  1
  O  O27  1  0.25188000  0.35021600  0.71035200  1
  O  O28  1  0.76118900  0.69551400  0.66082800  1
  O  O29  1  0.23635900  0.69302200  0.66179400  1
  O  O30  1  0.75298500  0.64849600  0.28224900  1
  O  O31  1  0.25157300  0.64919700  0.28214900  1
loop_
_geom_bond_atom_site_label_1
_geom_bond_atom_site_label_2
_geom_bond_distance
_geom_bond_site_symmetry_2
K0 O25 2.927797 1_555
K0 O29 2.936891 1_555
K0 O28 2.959093 1_455
K0 O24 2.968536 1_455
K0 O26 3.026039 1_455
K0 O30 3.027153 1_455
K0 O31 3.037794 1_555
K0 O27 3.043755 1_555
K0 O13 3.163605 1_555
K0 O10 3.168454 1_555
Mg0 O13 1.937236 1_555
Mg0 O10 1.937928 1_565
Mg0 O6 2.062965 1_465
Mg0 O0 2.066273 1_455
Mg0 O1 2.067605 1_555
Mg0 O7 2.071881 1_565
Mn0 O11 1.969913 1_555
Mn0 O21 2.015124 1_555
Mn0 O24 2.034686 1_555
Mn0 O7 2.049036 1_555
Mn0 O6 2.106445 1_555
Mn0 O25 2.110382 1_555
Mn1 O25 1.878510 1_555
Mn1 O20 1.888908 1_455
Mn1 O24 1.889472 1_455
Mn1 O6 1.982261 1_455
Mn1 O7 1.994251 1_555
Mn1 O10 2.173316 1_555
Mn2 O4 1.917174 1_555
Mn2 O5 1.919959 1_555
Mn2 O14 1.929798 1_555
Mn2 O27 1.960977 1_555
Mn2 O26 1.963804 1_555
Mn2 O22 1.971196 1_555
Mn3 O15 1.927671 1_555
Mn3 O5 1.927842 1_555
Mn3 O4 1.931539 1_455
Mn3 O23 1.958811 1_555
Mn3 O26 1.965459 1_455
Mn3 O27 1.967973 1_555
Mn4 O3 1.927306 1_555
Mn4 O8 1.929206 1_455
Mn4 O2 1.930663 1_455
Mn4 O18 1.958359 1_555
Mn4 O30 1.965263 1_455
Mn4 O31 1.968526 1_555
Mn5 O2 1.915105 1_555
Mn5 O3 1.920433 1_555
Mn5 O9 1.932024 1_555
Mn5 O31 1.962506 1_555
Mn5 O30 1.963692 1_555
Mn5 O19 1.970907 1_555
Mn6 O29 1.882141 1_555
Mn6 O28 1.886714 1_455
Mn6 O17 1.891466 1_555
Mn6 O0 1.988053 1_455
Mn6 O1 1.993843 1_555
Mn6 O13 2.169596 1_555
Mn7 O12 1.968197 1_555
Mn7 O16 2.014830 1_555
Mn7 O28 2.050928 1_555
Mn7 O1 2.062401 1_555
Mn7 O29 2.093500 1_555
Mn7 O0 2.094584 1_555
Mn8 O14 1.913145 1_555
Mn8 O2 1.929849 1_556
Mn8 O15 1.941401 1_655
Mn8 O28 1.954514 1_555
Mn8 O16 1.959236 1_555
Mn8 O17 1.969454 1_655
Mn9 O14 1.917765 1_555
Mn9 O3 1.932276 1_556
Mn9 O15 1.937823 1_555
Mn9 O29 1.939998 1_555
Mn9 O16 1.959066 1_555
Mn9 O17 1.973051 1_555
Mn10 O18 1.948870 1_655
Mn10 O19 1.950367 1_555
Mn10 O12 1.950546 1_555
Mn10 O30 1.964573 1_555
Mn10 O6 1.991056 1_565
Mn10 O13 2.002536 1_655
Mn11 O19 1.942612 1_555
Mn11 O12 1.947575 1_555
Mn11 O18 1.951895 1_555
Mn11 O31 1.959288 1_555
Mn11 O13 2.007467 1_555
Mn11 O7 2.022018 1_565
Mn12 O11 1.948101 1_555
Mn12 O23 1.949814 1_655
Mn12 O22 1.949923 1_555
Mn12 O26 1.966604 1_555
Mn12 O0 1.998017 1_545
Mn12 O10 1.999912 1_655
Mn13 O22 1.944238 1_555
Mn13 O11 1.946882 1_555
Mn13 O23 1.951299 1_555
Mn13 O27 1.962525 1_555
Mn13 O10 2.005782 1_555
Mn13 O1 2.015258 1_545
Mn14 O9 1.913738 1_555
Mn14 O4 1.928547 1_554
Mn14 O8 1.941065 1_555
Mn14 O21 1.957338 1_555
Mn14 O24 1.960058 1_555
Mn14 O20 1.972794 1_555
Mn15 O9 1.916683 1_555
Mn15 O5 1.934496 1_554
Mn15 O25 1.936196 1_555
Mn15 O8 1.938898 1_455
Mn15 O21 1.960223 1_555
Mn15 O20 1.973060 1_455
