# generated using pymatgen
data_Sr4MgTi3O10
_symmetry_space_group_name_H-M   'P 1'
_cell_length_a   3.99134723
_cell_length_b   3.99134661
_cell_length_c   15.36344276
_cell_angle_alpha   97.46367349
_cell_angle_beta   97.46366882
_cell_angle_gamma   89.99999908
_symmetry_Int_Tables_number   1
_chemical_formula_structural   Sr4MgTi3O10
_chemical_formula_sum   'Sr4 Mg1 Ti3 O10'
_cell_volume   240.58746103
_cell_formula_units_Z   1
loop_
 _symmetry_equiv_pos_site_id
 _symmetry_equiv_pos_as_xyz
  1  'x, y, z'
loop_
 _atom_site_type_symbol
 _atom_site_label
 _atom_site_symmetry_multiplicity
 _atom_site_fract_x
 _atom_site_fract_y
 _atom_site_fract_z
 _atom_site_occupancy
  Sr  Sr0  1  0.59337747  0.59337747  0.18675494  1
  Sr  Sr1  1  0.40662253  0.40662253  0.81324506  1
  Sr  Sr2  1  0.29330686  0.29330686  0.58661272  1
  Sr  Sr3  1  0.70669314  0.70669314  0.41338728  1
  Mg  Mg0  1  0.50000000  0.50000000  -0.00000000  1
  Ti  Ti0  1  0.00000000  0.00000000  -0.00000000  1
  Ti  Ti1  1  0.85409740  0.85409740  0.70819481  1
  Ti  Ti2  1  0.14590260  0.14590260  0.29180519  1
  O  O0  1  0.14485372  0.64485372  0.28970744  1
  O  O1  1  0.78815160  0.78815160  0.57630420  1
  O  O2  1  0.21184840  0.21184840  0.42369580  1
  O  O3  1  0.50000000  0.00000000  -0.00000000  1
  O  O4  1  0.00000000  0.50000000  -0.00000000  1
  O  O5  1  0.07297837  0.07297837  0.14595573  1
  O  O6  1  0.92702163  0.92702163  0.85404427  1
  O  O7  1  0.64485372  0.14485372  0.28970744  1
  O  O8  1  0.35514628  0.85514628  0.71029256  1
  O  O9  1  0.85514628  0.35514628  0.71029256  1
loop_
_geom_bond_atom_site_label_1
_geom_bond_atom_site_label_2
_geom_bond_distance
_geom_bond_site_symmetry_2
Mg0 O3 1.995673 1_555
Mg0 O3 1.995673 1_565
Mg0 O4 1.995674 1_555
Mg0 O4 1.995674 1_655
Mg0 Sr0 2.820370 1_555
Mg0 Sr1 2.820370 1_554
O0 Ti2 1.995925 1_555
O0 Ti2 1.995925 1_565
O0 Sr0 2.529837 1_555
O0 Sr0 2.529837 1_455
O0 Sr3 2.733391 1_555
O0 Sr3 2.733393 1_455
O1 Ti1 1.991810 1_555
O1 Sr3 2.460369 1_555
O1 Sr2 2.826593 1_555
O1 Sr2 2.826599 1_565
O1 Sr2 2.826599 1_655
O1 Sr2 2.826605 1_665
O2 Ti2 1.991810 1_555
O2 Sr2 2.460369 1_555
O2 Sr3 2.826593 1_555
O2 Sr3 2.826599 1_545
O2 Sr3 2.826599 1_455
O2 Sr3 2.826605 1_445
O3 Ti0 1.995674 1_555
O3 Ti0 1.995674 1_655
O4 Ti0 1.995673 1_565
O4 Ti0 1.995673 1_555
O5 Ti2 2.202616 1_555
O5 Ti0 2.204221 1_555
O5 Sr0 2.888780 1_555
O5 Sr0 2.888783 1_455
O5 Sr0 2.888783 1_545
O5 Sr0 2.888785 1_445
O6 Ti1 2.202616 1_555
O6 Ti0 2.204221 1_666
O6 Sr1 2.888780 1_555
O6 Sr1 2.888783 1_655
O6 Sr1 2.888783 1_565
O6 Sr1 2.888785 1_665
O7 Ti2 1.995925 1_555
O7 Ti2 1.995925 1_655
O7 Sr0 2.529837 1_545
O7 Sr0 2.529837 1_555
O7 Sr3 2.733390 1_555
O7 Sr3 2.733393 1_545
O8 Ti1 1.995925 1_555
O8 Ti1 1.995925 1_455
O8 Sr1 2.529837 1_565
O8 Sr1 2.529837 1_555
O8 Sr2 2.733390 1_555
O8 Sr2 2.733393 1_565
O9 Ti1 1.995925 1_555
O9 Ti1 1.995925 1_545
O9 Sr1 2.529837 1_555
O9 Sr1 2.529837 1_655
O9 Sr2 2.733391 1_555
O9 Sr2 2.733393 1_655
