# generated using pymatgen
data_WS2(NO)2
_symmetry_space_group_name_H-M   'P 1'
_cell_length_a   6.41862008
_cell_length_b   6.41862008
_cell_length_c   9.67947071
_cell_angle_alpha   69.07717888
_cell_angle_beta   69.07717888
_cell_angle_gamma   74.36630206
_symmetry_Int_Tables_number   1
_chemical_formula_structural   WS2(NO)2
_chemical_formula_sum   'W2 S4 N4 O4'
_cell_volume   343.28941638
_cell_formula_units_Z   2
loop_
 _symmetry_equiv_pos_site_id
 _symmetry_equiv_pos_as_xyz
  1  'x, y, z'
loop_
 _atom_site_type_symbol
 _atom_site_label
 _atom_site_symmetry_multiplicity
 _atom_site_fract_x
 _atom_site_fract_y
 _atom_site_fract_z
 _atom_site_occupancy
  W  W0  1  0.41200337  0.58799663  0.75000000  1
  W  W1  1  0.58799663  0.41200337  0.25000000  1
  S  S0  1  0.26885951  0.77941297  0.54527815  1
  S  S1  1  0.22058703  0.73114049  0.95472185  1
  S  S2  1  0.73114049  0.22058703  0.45472185  1
  S  S3  1  0.77941297  0.26885951  0.04527815  1
  N  N0  1  0.09740358  0.25311579  0.65749942  1
  N  N1  1  0.74688421  0.90259642  0.84250058  1
  N  N2  1  0.90259642  0.74688421  0.34250058  1
  N  N3  1  0.25311579  0.09740358  0.15749942  1
  O  O0  1  0.69370088  0.61988627  0.68237448  1
  O  O1  1  0.38011373  0.30629912  0.81762552  1
  O  O2  1  0.30629912  0.38011373  0.31762552  1
  O  O3  1  0.61988627  0.69370088  0.18237448  1
loop_
_geom_bond_atom_site_label_1
_geom_bond_atom_site_label_2
_geom_bond_distance
_geom_bond_site_symmetry_2
S0 W0 2.287683 1_555
S1 W0 2.287683 1_555
S2 W1 2.287683 1_555
S3 W1 2.287683 1_555
O0 W0 1.731500 1_555
O1 W0 1.731500 1_555
O2 W1 1.731500 1_555
O3 W1 1.731500 1_555
