# generated using pymatgen
data_Na3InAs2
_symmetry_space_group_name_H-M   'P 1'
_cell_length_a   7.50027560
_cell_length_b   9.66533133
_cell_length_c   15.68565271
_cell_angle_alpha   87.13511909
_cell_angle_beta   90.00000000
_cell_angle_gamma   90.00000000
_symmetry_Int_Tables_number   1
_chemical_formula_structural   Na3InAs2
_chemical_formula_sum   'Na24 In8 As16'
_cell_volume   1135.67334878
_cell_formula_units_Z   8
loop_
 _symmetry_equiv_pos_site_id
 _symmetry_equiv_pos_as_xyz
  1  'x, y, z'
loop_
 _atom_site_type_symbol
 _atom_site_label
 _atom_site_symmetry_multiplicity
 _atom_site_fract_x
 _atom_site_fract_y
 _atom_site_fract_z
 _atom_site_occupancy
  Na  Na0  1  0.15116341  0.87356488  0.70342749  1
  Na  Na1  1  0.65116341  0.12643512  0.79657251  1
  Na  Na2  1  0.84883659  0.12643512  0.29657251  1
  Na  Na3  1  0.34883659  0.87356488  0.20342749  1
  Na  Na4  1  0.48915912  0.56060202  0.10573398  1
  Na  Na5  1  0.98915912  0.43939798  0.39426602  1
  Na  Na6  1  0.51084088  0.43939798  0.89426602  1
  Na  Na7  1  0.01084088  0.56060202  0.60573398  1
  Na  Na8  1  0.96872224  0.18716028  0.64827100  1
  Na  Na9  1  0.46872224  0.81283972  0.85172900  1
  Na  Na10  1  0.03127776  0.81283972  0.35172900  1
  Na  Na11  1  0.53127776  0.18716028  0.14827100  1
  Na  Na12  1  0.84827109  0.38296563  0.04647801  1
  Na  Na13  1  0.34827109  0.61703437  0.45352199  1
  Na  Na14  1  0.15172891  0.61703437  0.95352199  1
  Na  Na15  1  0.65172891  0.38296563  0.54647801  1
  Na  Na16  1  0.97390166  0.93378271  0.89415409  1
  Na  Na17  1  0.47390166  0.06621729  0.60584591  1
  Na  Na18  1  0.02609834  0.06621729  0.10584591  1
  Na  Na19  1  0.52609834  0.93378271  0.39415409  1
  Na  Na20  1  0.00819946  0.32129273  0.86213349  1
  Na  Na21  1  0.50819946  0.67870727  0.63786651  1
  Na  Na22  1  0.99180054  0.67870727  0.13786651  1
  Na  Na23  1  0.49180054  0.32129273  0.36213349  1
  In  In0  1  0.64047985  0.87457625  0.04184627  1
  In  In1  1  0.14047985  0.12542375  0.45815373  1
  In  In2  1  0.35952015  0.12542375  0.95815373  1
  In  In3  1  0.85952015  0.87457625  0.54184627  1
  In  In4  1  0.65284807  0.63760575  0.29080686  1
  In  In5  1  0.15284807  0.36239425  0.20919314  1
  In  In6  1  0.34715193  0.36239425  0.70919314  1
  In  In7  1  0.84715193  0.63760575  0.79080686  1
  As  As0  1  0.22255532  0.87156125  0.52338923  1
  As  As1  1  0.72255532  0.12843875  0.97661077  1
  As  As2  1  0.77744468  0.12843875  0.47661077  1
  As  As3  1  0.27744468  0.87156125  0.02338923  1
  As  As4  1  0.71129582  0.40696152  0.72525787  1
  As  As5  1  0.21129582  0.59303848  0.77474213  1
  As  As6  1  0.28870418  0.59303848  0.27474213  1
  As  As7  1  0.78870418  0.40696152  0.22525787  1
  As  As8  1  0.76208916  0.65082406  0.96022577  1
  As  As9  1  0.26208916  0.34917594  0.53977423  1
  As  As10  1  0.23791084  0.34917594  0.03977423  1
  As  As11  1  0.73791084  0.65082406  0.46022577  1
  As  As12  1  0.75819120  0.87816907  0.70772748  1
  As  As13  1  0.25819120  0.12183093  0.79227252  1
  As  As14  1  0.24180880  0.12183093  0.29227252  1
  As  As15  1  0.74180880  0.87816907  0.20772748  1
loop_
_geom_bond_atom_site_label_1
_geom_bond_atom_site_label_2
_geom_bond_distance
_geom_bond_site_symmetry_2
In0 Na4 3.346274 1_555
In0 Na16 3.437381 1_554
In1 Na5 3.346274 1_455
In1 Na17 3.437381 1_555
In2 Na6 3.346274 1_555
In2 Na18 3.437381 1_556
In3 Na7 3.346274 1_655
In3 Na19 3.437381 1_555
In4 Na4 3.271778 1_555
In4 Na23 3.422825 1_555
In4 Na13 3.423673 1_555
In4 Na3 3.459264 1_555
In4 Na10 3.464053 1_655
In4 Na19 3.491453 1_555
In4 Na22 3.504365 1_555
In4 Na5 3.515038 1_555
In5 Na5 3.271778 1_455
In5 Na22 3.422825 1_455
In5 Na12 3.423673 1_455
In5 Na2 3.459264 1_455
In5 Na11 3.464053 1_555
In5 Na18 3.491453 1_555
In5 Na23 3.504365 1_555
In5 Na4 3.515038 1_555
In6 Na6 3.271778 1_555
In6 Na21 3.422825 1_555
In6 Na15 3.423673 1_555
In6 Na1 3.459264 1_555
In6 Na8 3.464053 1_455
In6 Na17 3.491453 1_555
In6 Na20 3.504365 1_555
In6 Na7 3.515038 1_555
In7 Na7 3.271778 1_655
In7 Na20 3.422825 1_655
In7 Na14 3.423673 1_655
In7 Na0 3.459264 1_655
In7 Na9 3.464053 1_555
In7 Na16 3.491453 1_555
In7 Na21 3.504365 1_555
In7 Na6 3.515038 1_555
As0 In1 2.682445 1_565
As0 In3 2.738521 1_455
As0 Na0 2.875349 1_555
As0 Na13 2.900279 1_555
As0 Na17 3.001612 1_565
As0 Na19 3.087436 1_555
As0 Na10 3.127807 1_555
As0 Na21 3.309711 1_555
As1 In0 2.682445 1_546
As1 In2 2.738521 1_555
As1 Na1 2.875349 1_555
As1 Na12 2.900279 1_556
As1 Na16 3.001612 1_545
As1 Na18 3.087436 1_656
As1 Na11 3.127807 1_556
As1 Na20 3.309711 1_655
As2 In3 2.682445 1_545
As2 In1 2.738521 1_655
As2 Na2 2.875349 1_555
As2 Na15 2.900279 1_555
As2 Na19 3.001612 1_545
As2 Na17 3.087436 1_555
As2 Na8 3.127807 1_555
As2 Na23 3.309711 1_555
As3 In2 2.682445 1_564
As3 In0 2.738521 1_555
As3 Na3 2.875349 1_555
As3 Na14 2.900279 1_554
As3 Na18 3.001612 1_565
As3 Na16 3.087436 1_454
As3 Na9 3.127807 1_554
As3 Na22 3.309711 1_455
As4 In7 2.700762 1_555
As4 In6 2.778352 1_555
As4 Na15 2.860487 1_555
As4 Na1 2.916010 1_555
As4 Na6 3.077271 1_555
As4 Na8 3.155295 1_555
As4 Na20 3.174326 1_655
As4 Na7 3.238723 1_655
As4 Na21 3.276906 1_555
As5 In6 2.700762 1_555
As5 In7 2.778352 1_455
As5 Na14 2.860487 1_555
As5 Na0 2.916010 1_555
As5 Na7 3.077271 1_555
As5 Na9 3.155295 1_555
As5 Na21 3.174326 1_555
As5 Na6 3.238723 1_555
As5 Na20 3.276906 1_555
As6 In5 2.700762 1_555
As6 In4 2.778352 1_555
As6 Na13 2.860487 1_555
As6 Na3 2.916010 1_555
As6 Na4 3.077271 1_555
As6 Na10 3.155295 1_555
As6 Na22 3.174326 1_455
As6 Na5 3.238723 1_455
As6 Na23 3.276906 1_555
As7 In4 2.700762 1_555
As7 In5 2.778352 1_655
As7 Na12 2.860487 1_555
As7 Na2 2.916010 1_555
As7 Na5 3.077271 1_555
As7 Na11 3.155295 1_555
As7 Na23 3.174326 1_555
As7 Na4 3.238723 1_555
As7 Na22 3.276906 1_555
As8 In0 2.724849 1_556
As8 In7 2.742137 1_555
As8 Na12 2.932695 1_556
As8 Na14 2.943060 1_655
As8 Na6 3.001462 1_555
As8 Na9 3.150157 1_555
As8 Na4 3.156137 1_556
As8 Na16 3.285450 1_555
As8 Na22 3.298509 1_556
As9 In1 2.724849 1_555
As9 In6 2.742137 1_555
As9 Na13 2.932695 1_555
As9 Na15 2.943060 1_555
As9 Na7 3.001462 1_555
As9 Na8 3.150157 1_455
As9 Na5 3.156137 1_455
As9 Na17 3.285450 1_555
As9 Na23 3.298509 1_555
As10 In2 2.724849 1_554
As10 In5 2.742137 1_555
As10 Na14 2.932695 1_554
As10 Na12 2.943060 1_455
As10 Na4 3.001462 1_555
As10 Na11 3.150157 1_555
As10 Na6 3.156137 1_554
As10 Na18 3.285450 1_555
As10 Na20 3.298509 1_554
As11 In3 2.724849 1_555
As11 In4 2.742137 1_555
As11 Na15 2.932695 1_555
As11 Na13 2.943060 1_555
As11 Na5 3.001462 1_555
As11 Na10 3.150157 1_655
As11 Na7 3.156137 1_655
As11 Na19 3.285450 1_555
As11 Na21 3.298509 1_555
As12 In7 2.691974 1_555
As12 In3 2.712563 1_555
As12 Na21 2.940119 1_555
As12 Na1 2.945966 1_565
As12 Na0 2.948558 1_655
As12 Na9 3.173607 1_555
As12 Na17 3.180170 1_565
As12 Na16 3.408034 1_555
As12 Na8 3.464667 1_565
As13 In6 2.691974 1_555
As13 In2 2.712563 1_555
As13 Na20 2.940119 1_555
As13 Na0 2.945966 1_545
As13 Na1 2.948558 1_555
As13 Na8 3.173607 1_455
As13 Na16 3.180170 1_445
As13 Na17 3.408034 1_555
As13 Na9 3.464667 1_545
As14 In5 2.691974 1_555
As14 In1 2.712563 1_555
As14 Na23 2.940119 1_555
As14 Na3 2.945966 1_545
As14 Na2 2.948558 1_455
As14 Na11 3.173607 1_555
As14 Na19 3.180170 1_545
As14 Na18 3.408034 1_555
As14 Na10 3.464667 1_545
As15 In4 2.691974 1_555
As15 In0 2.712563 1_555
As15 Na22 2.940119 1_555
As15 Na2 2.945966 1_565
As15 Na3 2.948558 1_555
As15 Na10 3.173607 1_655
As15 Na18 3.180170 1_665
As15 Na19 3.408034 1_555
As15 Na11 3.464667 1_565
