# generated using pymatgen
data_As2Pd
_symmetry_space_group_name_H-M   'P 1'
_cell_length_a   6.02777512
_cell_length_b   6.02777512
_cell_length_c   6.02777512
_cell_angle_alpha   90.00000000
_cell_angle_beta   90.00000000
_cell_angle_gamma   90.00000000
_symmetry_Int_Tables_number   1
_chemical_formula_structural   As2Pd
_chemical_formula_sum   'As8 Pd4'
_cell_volume   219.01362062
_cell_formula_units_Z   4
loop_
 _symmetry_equiv_pos_site_id
 _symmetry_equiv_pos_as_xyz
  1  'x, y, z'
loop_
 _atom_site_type_symbol
 _atom_site_label
 _atom_site_symmetry_multiplicity
 _atom_site_fract_x
 _atom_site_fract_y
 _atom_site_fract_z
 _atom_site_occupancy
  As  As0  1  0.38415327  0.11584673  0.88415327  1
  As  As1  1  0.11584673  0.88415327  0.38415327  1
  As  As2  1  0.88415327  0.38415327  0.11584673  1
  As  As3  1  0.61584673  0.61584673  0.61584673  1
  As  As4  1  0.38415327  0.38415327  0.38415327  1
  As  As5  1  0.11584673  0.61584673  0.88415327  1
  As  As6  1  0.88415327  0.11584673  0.61584673  1
  As  As7  1  0.61584673  0.88415327  0.11584673  1
  Pd  Pd0  1  -0.00000000  0.50000000  0.50000000  1
  Pd  Pd1  1  0.50000000  0.50000000  0.00000000  1
  Pd  Pd2  1  0.50000000  0.00000000  0.50000000  1
  Pd  Pd3  1  -0.00000000  0.00000000  0.00000000  1
loop_
_geom_bond_atom_site_label_1
_geom_bond_atom_site_label_2
_geom_bond_distance
_geom_bond_site_symmetry_2
As0 As7 2.418975 1_546
As0 Pd1 2.517379 1_556
As0 Pd3 2.517379 1_556
As0 Pd2 2.517379 1_555
As1 As6 2.418975 1_465
As1 Pd2 2.517379 1_565
As1 Pd0 2.517379 1_555
As1 Pd3 2.517379 1_565
As2 As5 2.418975 1_654
As2 Pd3 2.517379 1_655
As2 Pd1 2.517379 1_555
As2 Pd0 2.517379 1_655
As3 As4 2.418975 1_555
As3 Pd2 2.517379 1_565
As3 Pd0 2.517379 1_655
As3 Pd1 2.517379 1_556
As4 Pd0 2.517379 1_555
As4 Pd2 2.517379 1_555
As4 Pd1 2.517379 1_555
As5 Pd1 2.517379 1_556
As5 Pd0 2.517379 1_555
As5 Pd3 2.517379 1_566
As6 Pd3 2.517379 1_656
As6 Pd2 2.517379 1_555
As6 Pd0 2.517379 1_655
As7 Pd1 2.517379 1_555
As7 Pd3 2.517379 1_665
As7 Pd2 2.517379 1_565
