# generated using pymatgen
data_MgMn6O7F5
_symmetry_space_group_name_H-M   'P 1'
_cell_length_a   5.12159623
_cell_length_b   7.78037484
_cell_length_c   5.67485446
_cell_angle_alpha   92.79204095
_cell_angle_beta   82.70640771
_cell_angle_gamma   94.85970320
_symmetry_Int_Tables_number   1
_chemical_formula_structural   MgMn6O7F5
_chemical_formula_sum   'Mg1 Mn6 O7 F5'
_cell_volume   223.33033648
_cell_formula_units_Z   1
loop_
 _symmetry_equiv_pos_site_id
 _symmetry_equiv_pos_as_xyz
  1  'x, y, z'
loop_
 _atom_site_type_symbol
 _atom_site_label
 _atom_site_symmetry_multiplicity
 _atom_site_fract_x
 _atom_site_fract_y
 _atom_site_fract_z
 _atom_site_occupancy
  Mg  Mg0  1  0.46050826  0.81629959  0.88104581  1
  Mn  Mn0  1  0.49357966  0.01721791  0.47967443  1
  Mn  Mn1  1  0.65241995  0.61224534  0.28098175  1
  Mn  Mn2  1  0.50888949  0.35318807  0.79989241  1
  Mn  Mn3  1  0.97330080  0.69260838  0.66654159  1
  Mn  Mn4  1  0.05289035  0.32187830  0.36890136  1
  Mn  Mn5  1  0.97225210  0.00603573  0.01527977  1
  O  O0  1  0.77846971  0.47727095  0.56844684  1
  O  O1  1  0.78128329  0.77097020  0.01932245  1
  O  O2  1  0.81725317  0.10584053  0.30408928  1
  O  O3  1  0.66776521  0.79258058  0.53246046  1
  O  O4  1  0.67233536  0.42553351  0.07098107  1
  O  O5  1  0.35042721  0.24043427  0.53422443  1
  O  O6  1  0.17862729  0.91070048  0.71757937  1
  F  F0  1  0.65798383  0.08264320  0.82553451  1
  F  F1  1  0.26178827  0.58655938  0.82994868  1
  F  F2  1  0.29456313  0.91526096  0.18475196  1
  F  F3  1  0.23220083  0.58362092  0.35198861  1
  F  F4  1  0.19346109  0.23911367  0.00883421  1
loop_
_geom_bond_atom_site_label_1
_geom_bond_atom_site_label_2
_geom_bond_distance
_geom_bond_site_symmetry_2
Mg0 O1 1.972727 1_556
Mg0 O6 2.017491 1_555
Mg0 O3 2.130362 1_555
Mn0 O2 1.915778 1_555
Mn0 O5 1.937847 1_555
Mn0 O3 2.079254 1_545
Mn0 O6 2.107377 1_545
Mn1 O4 1.834801 1_555
Mn1 O3 1.956055 1_555
Mn1 O1 1.989282 1_555
Mn1 O0 2.174848 1_555
Mn2 O4 1.883347 1_556
Mn2 O5 1.939688 1_555
Mn2 O0 2.000155 1_555
Mn3 O6 1.948366 1_655
Mn3 O0 1.969642 1_555
Mn3 O3 2.049111 1_555
Mn3 O1 2.197627 1_556
Mn4 O2 2.031203 1_455
Mn4 O5 2.046560 1_555
Mn4 O0 2.114189 1_455
Mn5 O2 1.889295 1_555
Mn5 O1 1.999329 1_545
Mn5 O6 2.019611 1_644
F0 Mn5 2.184147 1_556
F0 Mg0 2.245879 1_545
F0 Mn0 2.251660 1_555
F0 Mn2 2.316338 1_555
F1 Mg0 2.007775 1_555
F1 Mn3 2.086320 1_455
F1 Mn2 2.287334 1_555
F2 Mg0 1.973639 1_554
F2 Mn0 2.153158 1_565
F2 Mn5 2.194424 1_465
F3 Mn1 2.133363 1_555
F3 Mn4 2.163223 1_555
F3 Mn3 2.259581 1_455
F4 Mn2 2.043698 1_554
F4 Mn5 2.054575 1_455
F4 Mn4 2.164490 1_555
