# generated using pymatgen
data_Na2Mg5Sn3(SO4)12
_symmetry_space_group_name_H-M   'P 1'
_cell_length_a   17.36300105
_cell_length_b   8.68083509
_cell_length_c   22.69569014
_cell_angle_alpha   90.05222651
_cell_angle_beta   89.97898514
_cell_angle_gamma   119.98946321
_symmetry_Int_Tables_number   1
_chemical_formula_structural   Na2Mg5Sn3(SO4)12
_chemical_formula_sum   'Na6 Mg15 Sn9 S36 O144'
_cell_volume   2962.82664499
_cell_formula_units_Z   3
loop_
 _symmetry_equiv_pos_site_id
 _symmetry_equiv_pos_as_xyz
  1  'x, y, z'
loop_
 _atom_site_type_symbol
 _atom_site_label
 _atom_site_symmetry_multiplicity
 _atom_site_fract_x
 _atom_site_fract_y
 _atom_site_fract_z
 _atom_site_occupancy
  Na  Na0  1  0.99993400  0.99991141  0.50210228  1
  Na  Na1  1  0.50349387  0.00525605  0.99713192  1
  Na  Na2  1  0.33461778  0.33555944  0.82929932  1
  Na  Na3  1  0.83204282  0.33083416  0.82972146  1
  Na  Na4  1  0.33162315  0.33334160  0.33926997  1
  Na  Na5  1  0.83491168  0.33319158  0.33354313  1
  Mg  Mg0  1  0.99850130  0.00018985  0.35377806  1
  Mg  Mg1  1  0.50075825  0.00073370  0.85000257  1
  Mg  Mg2  1  0.99983514  0.99970849  0.64789135  1
  Mg  Mg3  1  0.50495550  0.00469040  0.14755071  1
  Mg  Mg4  1  0.33209460  0.33055061  0.68530635  1
  Mg  Mg5  1  0.83451830  0.33621214  0.68489422  1
  Mg  Mg6  1  0.83193096  0.33346948  0.18540436  1
  Mg  Mg7  1  0.33439902  0.33465010  0.97812014  1
  Mg  Mg8  1  0.83192073  0.33167633  0.98152956  1
  Mg  Mg9  1  0.33212311  0.33316865  0.48446501  1
  Mg  Mg10  1  0.83478349  0.33401226  0.48373762  1
  Mg  Mg11  1  0.16292287  0.65904603  0.31280570  1
  Mg  Mg12  1  0.67027462  0.67371898  0.31149170  1
  Mg  Mg13  1  0.16782996  0.66726887  0.80763929  1
  Mg  Mg14  1  0.66536388  0.66624788  0.80828589  1
  Sn  Sn0  1  0.50115700  0.99935435  0.35305720  1
  Sn  Sn1  1  0.99926825  0.99950278  0.84840126  1
  Sn  Sn2  1  0.50019676  0.00035249  0.64985752  1
  Sn  Sn3  1  0.99517310  0.99593057  0.14959506  1
  Sn  Sn4  1  0.33405689  0.33314966  0.18355786  1
  Sn  Sn5  1  0.16427497  0.66635191  0.01628988  1
  Sn  Sn6  1  0.66896798  0.66631450  0.01716508  1
  Sn  Sn7  1  0.16521576  0.66533427  0.52065286  1
  Sn  Sn8  1  0.66809760  0.66794259  0.52093353  1
  S  S0  1  0.14627975  0.99874595  0.25066056  1
  S  S1  1  0.64679784  -0.00011807  0.24934895  1
  S  S2  1  0.35302325  0.70895664  0.24862564  1
  S  S3  1  0.85267576  0.70321361  0.25233593  1
  S  S4  1  0.99941867  0.29292305  0.25134947  1
  S  S5  1  0.50108851  0.29373125  0.24925256  1
  S  S6  1  0.14770083  0.29376009  0.74913576  1
  S  S7  1  0.64795555  0.29350527  0.75162408  1
  S  S8  1  0.99958538  0.70435449  0.74901589  1
  S  S9  1  0.49848571  0.70439160  0.75158620  1
  S  S10  1  0.35369571  0.00245478  0.75171425  1
  S  S11  1  0.85241987  0.00120621  0.74882100  1
  S  S12  1  0.47811667  0.33207508  0.58317218  1
  S  S13  1  0.97778198  0.32898042  0.58306116  1
  S  S14  1  0.18707663  0.04394566  0.58260977  1
  S  S15  1  0.68763101  0.04441593  0.58350159  1
  S  S16  1  0.33433375  0.62497257  0.58356784  1
  S  S17  1  0.83513574  0.62557110  0.58263514  1
  S  S18  1  0.47966824  0.62747844  0.08137846  1
  S  S19  1  0.97890908  0.62451586  0.08339066  1
  S  S20  1  0.33400340  0.03983256  0.08120120  1
  S  S21  1  0.83290702  0.04353230  0.08319119  1
  S  S22  1  0.18618497  0.33193789  0.08210743  1
  S  S23  1  0.68727958  0.33200130  0.08243395  1
  S  S24  1  0.31326309  0.66746883  0.91579211  1
  S  S25  1  0.81392446  0.66590813  0.91421393  1
  S  S26  1  0.01951620  0.37334812  0.91455017  1
  S  S27  1  0.51984118  0.37235634  0.91530992  1
  S  S28  1  0.16688351  0.96112109  0.91444551  1
  S  S29  1  0.66651950  0.95949932  0.91568378  1
  S  S30  1  0.31217897  0.95951702  0.41445804  1
  S  S31  1  0.81297216  0.96110721  0.41570802  1
  S  S32  1  0.16755733  0.37385980  0.41543199  1
  S  S33  1  0.66796764  0.37678277  0.41483490  1
  S  S34  1  0.01941143  0.66655078  0.41515006  1
  S  S35  1  0.52010692  0.66230900  0.41517424  1
  O  O0  1  0.10632775  0.03578817  0.30109256  1
  O  O1  1  0.60884963  0.04104484  0.30516802  1
  O  O2  1  0.40981055  0.77964235  0.30368084  1
  O  O3  1  0.91290701  0.79280469  0.30180567  1
  O  O4  1  0.47935291  0.17887324  0.30391492  1
  O  O5  1  0.98450768  0.17497561  0.30146821  1
  O  O6  1  0.11158264  0.18137945  0.80628593  1
  O  O7  1  0.60488398  0.17642905  0.80224116  1
  O  O8  1  0.48314888  0.79035407  0.80236212  1
  O  O9  1  0.97928277  0.77630067  0.80625795  1
  O  O10  1  0.41187578  0.03279089  0.80246859  1
  O  O11  1  0.90903897  0.04283077  0.80604245  1
  O  O12  1  0.39084707  0.96711403  0.69535744  1
  O  O13  1  0.89718085  0.97429447  0.69883961  1
  O  O14  1  0.08996745  0.20501855  0.69889323  1
  O  O15  1  0.59268191  0.21873734  0.69535736  1
  O  O16  1  0.01285142  0.81999220  0.69888506  1
  O  O17  1  0.51640247  0.81452994  0.69533789  1
  O  O18  1  0.39646675  0.81484549  0.19672592  1
  O  O19  1  0.88884530  0.81131790  0.19511707  1
  O  O20  1  0.01857452  0.21888793  0.19463141  1
  O  O21  1  0.50975972  0.20728117  0.19701336  1
  O  O22  1  0.09604345  0.97436125  0.19390333  1
  O  O23  1  0.58929674  0.97271968  0.19864090  1
  O  O24  1  0.43965955  0.36185934  0.63586937  1
  O  O25  1  0.93854788  0.36011834  0.63531611  1
  O  O26  1  0.24174146  0.12233590  0.63497018  1
  O  O27  1  0.74069250  0.12098786  0.63632042  1
  O  O28  1  0.31987049  0.51865682  0.63626667  1
  O  O29  1  0.81977106  0.51689294  0.63507028  1
  O  O30  1  0.44341257  0.51739977  0.13754529  1
  O  O31  1  0.94073805  0.51942148  0.13628853  1
  O  O32  1  0.31496580  0.11224016  0.13726393  1
  O  O33  1  0.81982323  0.12033186  0.13660523  1
  O  O34  1  0.24069930  0.36899069  0.13787147  1
  O  O35  1  0.74085086  0.36155188  0.13536876  1
  O  O36  1  0.22854774  0.30391271  0.03150274  1
  O  O37  1  0.72741479  0.30762535  0.02896639  1
  O  O38  1  0.42269824  0.53940600  0.03104861  1
  O  O39  1  0.92723495  0.54864897  0.02983175  1
  O  O40  1  0.34623220  0.15211978  0.03065267  1
  O  O41  1  0.84714438  0.14863732  0.03011769  1
  O  O42  1  0.22707546  0.14716452  0.52857672  1
  O  O43  1  0.72574943  0.14716607  0.52985942  1
  O  O44  1  0.34835231  0.54886341  0.52996646  1
  O  O45  1  0.84583923  0.54532321  0.52837733  1
  O  O46  1  0.42648866  0.30494794  0.52940039  1
  O  O47  1  0.92655302  0.30631273  0.52893092  1
  O  O48  1  0.27574162  0.70180582  0.97348805  1
  O  O49  1  0.77899198  0.70390746  0.97065561  1
  O  O50  1  0.07383040  0.44305457  0.97141095  1
  O  O51  1  0.57374998  0.44726166  0.97260332  1
  O  O52  1  0.14858742  0.85418799  0.97125520  1
  O  O53  1  0.64923220  0.85025820  0.97306662  1
  O  O54  1  0.27583925  0.85035341  0.46920244  1
  O  O55  1  0.77447003  0.84930316  0.47136475  1
  O  O56  1  0.15132094  0.45145232  0.47122078  1
  O  O57  1  0.64934480  0.44988097  0.46971274  1
  O  O58  1  0.07541285  0.70130673  0.47070882  1
  O  O59  1  0.57484548  0.69870954  0.47002576  1
  O  O60  1  0.06278912  0.64055613  0.36380311  1
  O  O61  1  0.56242964  0.63925882  0.36312276  1
  O  O62  1  0.25824648  0.87514495  0.36223781  1
  O  O63  1  0.75666455  0.87430130  0.36456213  1
  O  O64  1  0.18127810  0.48684033  0.36414903  1
  O  O65  1  0.67887829  0.48394600  0.36286791  1
  O  O66  1  0.06380954  0.48733127  0.86461531  1
  O  O67  1  0.56386350  0.48741616  0.86513014  1
  O  O68  1  0.17987465  0.87293150  0.86426015  1
  O  O69  1  0.67976996  0.87101341  0.86553468  1
  O  O70  1  0.25537999  0.64029915  0.86582491  1
  O  O71  1  0.75741433  0.64055403  0.86387609  1
  O  O72  1  0.01181089  0.82743032  0.41008525  1
  O  O73  1  0.51160508  0.82686576  0.41050277  1
  O  O74  1  0.40272129  0.97487976  0.40921107  1
  O  O75  1  0.90112108  0.97656660  0.41102838  1
  O  O76  1  0.08730039  0.19765567  0.41039322  1
  O  O77  1  0.58465120  0.19622156  0.41032303  1
  O  O78  1  0.01179536  0.19414035  0.90961206  1
  O  O79  1  0.51112206  0.19543669  0.91104756  1
  O  O80  1  0.08521482  0.97682406  0.90955199  1
  O  O81  1  0.58639276  0.97591783  0.91157046  1
  O  O82  1  0.40145588  0.82707604  0.91173360  1
  O  O83  1  0.90370783  0.83013628  0.90956006  1
  O  O84  1  0.49005039  0.17276042  0.58946071  1
  O  O85  1  0.99017895  0.17390181  0.58877297  1
  O  O86  1  0.09711070  0.01848172  0.58852708  1
  O  O87  1  0.59591888  0.02065134  0.58950080  1
  O  O88  1  0.41421520  0.80804374  0.58970332  1
  O  O89  1  0.91233856  0.80574062  0.58835510  1
  O  O90  1  0.48787045  0.80234354  0.08975413  1
  O  O91  1  0.99185743  0.80950763  0.08989725  1
  O  O92  1  0.41221250  0.02086730  0.08994316  1
  O  O93  1  0.91383466  0.02093111  0.08840235  1
  O  O94  1  0.09788925  0.17172603  0.09092593  1
  O  O95  1  0.59680425  0.17609523  0.08834764  1
  O  O96  1  0.34634394  0.16285782  0.74354689  1
  O  O97  1  0.84451657  0.16140594  0.74336903  1
  O  O98  1  0.23578594  0.30979560  0.74394200  1
  O  O99  1  0.73524371  0.30746870  0.74313556  1
  O  O100  1  0.41823868  0.52956763  0.74319085  1
  O  O101  1  0.91939844  0.52827639  0.74380715  1
  O  O102  1  0.34526666  0.52499335  0.24433910  1
  O  O103  1  0.84612064  0.52890724  0.24371019  1
  O  O104  1  0.41665975  0.30893198  0.24520635  1
  O  O105  1  0.91891601  0.30592849  0.24246853  1
  O  O106  1  0.23790726  0.16863194  0.24411674  1
  O  O107  1  0.73456874  0.16051201  0.24396704  1
  O  O108  1  0.31966090  0.50596782  0.92433104  1
  O  O109  1  0.82353386  0.50882992  0.92273851  1
  O  O110  1  0.43226349  0.35848737  0.92349742  1
  O  O111  1  0.93186071  0.35548882  0.92362690  1
  O  O112  1  0.24558963  0.13642436  0.92316192  1
  O  O113  1  0.74714927  0.13470202  0.92398403  1
  O  O114  1  0.32370053  0.13773199  0.42205680  1
  O  O115  1  0.82010477  0.13611812  0.42349672  1
  O  O116  1  0.24796523  0.35855767  0.42298921  1
  O  O117  1  0.74560941  0.35486091  0.42247650  1
  O  O118  1  0.43132910  0.50647228  0.42280879  1
  O  O119  1  0.93189562  0.50600115  0.42283776  1
  O  O120  1  0.17667640  0.49263112  0.07651957  1
  O  O121  1  0.67819393  0.49734720  0.07667498  1
  O  O122  1  0.07124790  0.64718604  0.07715683  1
  O  O123  1  0.56884321  0.64306004  0.07639227  1
  O  O124  1  0.25174412  0.86074908  0.07607907  1
  O  O125  1  0.75276109  0.86000529  0.07721538  1
  O  O126  1  0.17988083  0.86192676  0.57664411  1
  O  O127  1  0.67582829  0.85999798  0.57749065  1
  O  O128  1  0.25382721  0.64695624  0.57696329  1
  O  O129  1  0.75124553  0.64100861  0.57744558  1
  O  O130  1  0.06948815  0.49555701  0.57771356  1
  O  O131  1  0.56967599  0.49377240  0.57668136  1
  O  O132  1  0.15825524  0.84668626  0.25716972  1
  O  O133  1  0.65210680  0.84059982  0.25932542  1
  O  O134  1  0.26626726  0.68834711  0.25809501  1
  O  O135  1  0.76625703  0.68871498  0.25883020  1
  O  O136  1  0.07875098  0.46650253  0.25767513  1
  O  O137  1  0.57748833  0.46713844  0.25859422  1
  O  O138  1  0.15337362  0.46415428  0.75931344  1
  O  O139  1  0.65500730  0.46648884  0.75870836  1
  O  O140  1  0.07908205  0.69330672  0.75936201  1
  O  O141  1  0.57800540  0.69020531  0.75835943  1
  O  O142  1  0.26710570  0.84358901  0.75845052  1
  O  O143  1  0.76751592  0.84209282  0.75932508  1
loop_
_geom_bond_atom_site_label_1
_geom_bond_atom_site_label_2
_geom_bond_distance
_geom_bond_site_symmetry_2
Na0 O89 2.535238 1_555
Na0 O85 2.535609 1_565
Na0 O86 2.539725 1_665
Na0 O75 2.628943 1_555
Na0 O72 2.635981 1_655
Na0 O76 2.642172 1_665
Na1 O81 2.504207 1_545
Na1 O79 2.519388 1_555
Na1 O82 2.558397 1_545
Na1 O95 2.589382 1_556
Na1 O90 2.669060 1_546
Na1 O92 2.679378 1_556
Na2 O100 2.514583 1_555
Na2 O98 2.523020 1_555
Na2 O96 2.525134 1_555
Na2 O110 2.673798 1_555
Na2 O112 2.692363 1_555
Na2 O108 2.699144 1_555
Na3 O97 2.522677 1_555
Na3 O99 2.527567 1_555
Na3 O101 2.538771 1_555
Na3 O109 2.662337 1_555
Na3 O113 2.672797 1_555
Na3 O111 2.687538 1_555
Na4 O116 2.466404 1_555
Na4 O114 2.490926 1_555
Na4 O118 2.499341 1_555
Na4 O106 2.650842 1_555
Na4 O102 2.660477 1_555
Na4 O104 2.663097 1_555
Na5 O119 2.581625 1_555
Na5 O115 2.593659 1_555
Na5 O103 2.599357 1_555
Na5 O105 2.607279 1_555
Na5 O107 2.608015 1_555
Na5 O117 2.608094 1_555
Mg0 O5 2.035360 1_555
Mg0 O3 2.040536 1_545
Mg0 O75 2.059472 1_545
Mg0 O72 2.070211 1_645
Mg0 O76 2.078928 1_655
Mg0 O0 2.109748 1_655
Mg1 O7 2.003707 1_555
Mg1 O8 2.009042 1_545
Mg1 O10 2.013468 1_555
Mg1 O79 2.121430 1_555
Mg1 O81 2.128847 1_545
Mg1 O82 2.147544 1_545
Mg2 O13 2.041684 1_555
Mg2 O14 2.043212 1_665
Mg2 O16 2.044586 1_655
Mg2 O85 2.090991 1_565
Mg2 O89 2.099783 1_555
Mg2 O86 2.101924 1_665
Mg3 O23 1.993532 1_545
Mg3 O95 2.047576 1_555
Mg3 O21 2.051793 1_555
Mg3 O90 2.090276 1_545
Mg3 O18 2.099593 1_545
Mg3 O92 2.133102 1_555
Mg4 O26 2.048439 1_555
Mg4 O96 2.071542 1_555
Mg4 O98 2.072999 1_555
Mg4 O28 2.073687 1_555
Mg4 O24 2.076647 1_555
Mg4 O100 2.088504 1_555
Mg5 O25 2.048406 1_555
Mg5 O29 2.051645 1_555
Mg5 O101 2.068950 1_555
Mg5 O27 2.077202 1_555
Mg5 O99 2.085574 1_555
Mg5 O97 2.088369 1_555
Mg6 O35 2.058426 1_555
Mg6 O103 2.066014 1_555
Mg6 O33 2.074054 1_555
Mg6 O107 2.084048 1_555
Mg6 O31 2.090583 1_555
Mg6 O105 2.092489 1_555
Mg7 O110 2.028410 1_555
Mg7 O108 2.037518 1_555
Mg7 O38 2.055747 1_556
Mg7 O112 2.059007 1_555
Mg7 O40 2.074480 1_556
Mg7 O36 2.103720 1_556
Mg8 O37 2.028665 1_556
Mg8 O41 2.057641 1_556
Mg8 O113 2.068164 1_555
Mg8 O39 2.090372 1_556
Mg8 O109 2.096254 1_555
Mg8 O111 2.102630 1_555
Mg9 O42 1.998424 1_555
Mg9 O44 2.030025 1_555
Mg9 O46 2.046366 1_555
Mg9 O116 2.110561 1_555
Mg9 O118 2.144754 1_555
Mg9 O114 2.157222 1_555
Mg10 O47 2.008342 1_555
Mg10 O45 2.018138 1_555
Mg10 O43 2.059743 1_555
Mg10 O115 2.107992 1_555
Mg10 O119 2.113761 1_555
Mg10 O117 2.155310 1_555
Mg11 O136 2.012642 1_555
Mg11 O60 2.026841 1_555
Mg11 O64 2.042999 1_555
Mg11 O134 2.090202 1_555
Mg11 O132 2.095232 1_555
Mg11 O62 2.100182 1_555
Mg12 O135 2.001183 1_555
Mg12 O133 2.014971 1_555
Mg12 O63 2.029554 1_555
Mg12 O65 2.084574 1_555
Mg12 O137 2.088544 1_555
Mg12 O61 2.099517 1_555
Mg13 O142 1.981028 1_555
Mg13 O138 1.982191 1_555
Mg13 O140 1.993981 1_555
Mg13 O70 2.113602 1_555
Mg13 O68 2.122553 1_555
Mg13 O66 2.134418 1_555
Mg14 O141 1.986188 1_555
Mg14 O139 1.997570 1_555
Mg14 O143 2.001460 1_555
Mg14 O67 2.108845 1_555
Mg14 O69 2.112329 1_555
Mg14 O71 2.134096 1_555
O0 S0 1.454792 1_545
O1 S1 1.549410 1_555
O1 Sn0 2.032586 1_545
O2 S2 1.518117 1_555
O2 Sn0 2.093423 1_555
O3 S3 1.464684 1_555
O4 S5 1.517035 1_555
O4 Sn0 2.099775 1_545
O5 S4 1.464968 1_555
O6 S6 1.554824 1_555
O6 Sn1 2.032918 1_445
O7 S7 1.467511 1_555
O8 S9 1.467187 1_555
O9 S8 1.555762 1_555
O9 Sn1 2.028348 1_555
O10 S10 1.466649 1_555
O11 S11 1.558380 1_555
O11 Sn1 2.027538 1_545
O12 S10 1.530594 1_565
O12 Sn2 2.050830 1_565
O13 S11 1.457994 1_565
O14 S6 1.458019 1_555
O15 S7 1.532894 1_555
O15 Sn2 2.047756 1_555
O16 S8 1.458067 1_455
O17 S9 1.531398 1_555
O17 Sn2 2.050293 1_565
O18 S2 1.452427 1_555
O19 S3 1.540760 1_555
O19 Sn3 2.021869 1_555
O20 S4 1.546792 1_455
O20 Sn3 2.041170 1_445
O21 S5 1.450074 1_555
O22 S0 1.510198 1_555
O22 Sn3 2.107893 1_455
O23 S1 1.463509 1_565
O24 S12 1.454155 1_555
O25 S13 1.458264 1_555
O26 S14 1.459387 1_555
O27 S15 1.454242 1_555
O28 S16 1.454451 1_555
O29 S17 1.458644 1_555
O30 S18 1.527959 1_555
O30 Sn4 2.054168 1_555
O31 S19 1.452532 1_555
O32 S20 1.526186 1_555
O32 Sn4 2.062135 1_555
O33 S21 1.454442 1_555
O34 S22 1.515558 1_555
O34 Sn4 2.074960 1_555
O35 S23 1.461529 1_555
O36 S22 1.448117 1_555
O37 S23 1.466038 1_555
O38 S18 1.452921 1_555
O39 S19 1.457720 1_555
O40 S20 1.451316 1_555
O41 S21 1.456299 1_555
O42 S14 1.472526 1_555
O43 S15 1.458438 1_555
O44 S16 1.461082 1_555
O45 S17 1.471019 1_555
O46 S12 1.462059 1_555
O47 S13 1.471247 1_555
O48 S24 1.555869 1_555
O48 Sn5 2.046419 1_556
O49 S25 1.521933 1_555
O49 Sn6 2.060599 1_556
O50 S26 1.532935 1_555
O50 Sn5 2.053167 1_556
O51 S27 1.542941 1_555
O51 Sn6 2.055970 1_556
O52 S28 1.527113 1_555
O52 Sn5 2.055451 1_556
O53 S29 1.550125 1_555
O53 Sn6 2.054021 1_556
O54 S30 1.497890 1_555
O54 Sn7 2.133131 1_555
O55 S31 1.528879 1_555
O55 Sn8 2.061628 1_555
O56 S32 1.524583 1_555
O56 Sn7 2.076705 1_555
O57 S33 1.503941 1_555
O57 Sn8 2.102569 1_555
O58 S34 1.527550 1_555
O58 Sn7 2.074203 1_555
O59 S35 1.500946 1_555
O59 Sn8 2.112368 1_555
O60 S34 1.464585 1_555
O61 S35 1.456551 1_555
O62 S30 1.459989 1_555
O63 S31 1.460774 1_555
O64 S32 1.463429 1_555
O65 S33 1.455332 1_555
O66 S26 1.447610 1_555
O67 S27 1.455031 1_555
O68 S28 1.450901 1_555
O69 S29 1.453707 1_555
O70 S24 1.454349 1_555
O71 S25 1.449428 1_555
O72 S34 1.471591 1_555
O73 S35 1.511524 1_555
O73 Sn0 2.061562 1_555
O74 S30 1.514505 1_555
O74 Sn0 2.055823 1_555
O75 S31 1.471865 1_555
O76 S32 1.470910 1_555
O77 S33 1.514294 1_555
O77 Sn0 2.057192 1_545
O78 S26 1.497285 1_555
O78 Sn1 2.112014 1_445
O79 S27 1.469115 1_555
O80 S28 1.495011 1_555
O80 Sn1 2.118384 1_455
O81 S29 1.470688 1_555
O82 S24 1.467031 1_555
O83 S25 1.500739 1_555
O83 Sn1 2.098720 1_555
O84 S12 1.504261 1_555
O84 Sn2 2.101768 1_555
O85 S13 1.471543 1_555
O86 S14 1.470273 1_555
O87 S15 1.506094 1_555
O87 Sn2 2.091847 1_555
O88 S16 1.504970 1_555
O88 Sn2 2.094138 1_565
O89 S17 1.470980 1_555
O90 S18 1.464256 1_555
O91 S19 1.513235 1_555
O91 Sn3 2.088268 1_555
O92 S20 1.460901 1_555
O93 S21 1.517459 1_555
O93 Sn3 2.068531 1_545
O94 S22 1.481024 1_555
O94 Sn3 2.136289 1_445
O95 S23 1.480630 1_555
O96 S10 1.472310 1_555
O97 S11 1.469421 1_555
O98 S6 1.469514 1_555
O99 S7 1.471387 1_555
O100 S9 1.471950 1_555
O101 S8 1.470073 1_555
O102 S2 1.537071 1_555
O102 Sn4 2.094334 1_555
O103 S3 1.472460 1_555
O104 S5 1.538932 1_555
O104 Sn4 2.088609 1_555
O105 S4 1.471438 1_555
O106 S0 1.543617 1_545
O106 Sn4 2.081861 1_555
O107 S1 1.468871 1_555
O108 S24 1.473634 1_555
O109 S25 1.467152 1_555
O110 S27 1.475840 1_555
O111 S26 1.465193 1_655
O112 S28 1.463953 1_545
O113 S29 1.476377 1_545
O114 S30 1.467410 1_545
O115 S31 1.471773 1_545
O116 S32 1.477103 1_555
O117 S33 1.462991 1_555
O118 S35 1.466892 1_555
O119 S34 1.471389 1_655
O120 S22 1.489898 1_555
O120 Sn5 2.125491 1_555
O121 S23 1.526069 1_555
O121 Sn6 2.059108 1_555
O122 S19 1.521090 1_455
O122 Sn5 2.067630 1_555
O123 S18 1.489634 1_555
O123 Sn6 2.125523 1_555
O124 S20 1.500116 1_565
O124 Sn5 2.104965 1_555
O125 S21 1.508806 1_565
O125 Sn6 2.086402 1_555
O126 S14 1.527368 1_565
O126 Sn7 2.038132 1_555
O127 S15 1.514974 1_565
O127 Sn8 2.053710 1_555
O128 S16 1.509871 1_555
O128 Sn7 2.067150 1_555
O129 S17 1.532568 1_555
O129 Sn8 2.030588 1_555
O130 S13 1.529553 1_455
O130 Sn7 2.040807 1_555
O131 S12 1.512850 1_555
O131 Sn8 2.055745 1_555
O132 S0 1.442994 1_555
O133 S1 1.449010 1_565
O134 S2 1.441420 1_555
O135 S3 1.449176 1_555
O136 S4 1.453725 1_455
O137 S5 1.440149 1_555
O138 S6 1.450769 1_555
O139 S7 1.453115 1_555
O140 S8 1.449889 1_455
O141 S9 1.454406 1_555
O142 S10 1.453659 1_565
O143 S11 1.450057 1_565
