# generated using pymatgen
data_Zr6CoAs2
_symmetry_space_group_name_H-M   'P 1'
_cell_length_a   7.50975844
_cell_length_b   7.50975868
_cell_length_c   3.56779969
_cell_angle_alpha   90.00000000
_cell_angle_beta   90.00000000
_cell_angle_gamma   120.00000343
_symmetry_Int_Tables_number   1
_chemical_formula_structural   Zr6CoAs2
_chemical_formula_sum   'Zr6 Co1 As2'
_cell_volume   174.25410965
_cell_formula_units_Z   1
loop_
 _symmetry_equiv_pos_site_id
 _symmetry_equiv_pos_as_xyz
  1  'x, y, z'
loop_
 _atom_site_type_symbol
 _atom_site_label
 _atom_site_symmetry_multiplicity
 _atom_site_fract_x
 _atom_site_fract_y
 _atom_site_fract_z
 _atom_site_occupancy
  Zr  Zr0  1  0.24595067  0.00000000  -0.00000000  1
  Zr  Zr1  1  0.75404933  0.75404933  0.00000000  1
  Zr  Zr2  1  0.00000000  0.24595067  -0.00000000  1
  Zr  Zr3  1  -0.00000000  0.58610508  0.50000000  1
  Zr  Zr4  1  0.41389492  0.41389492  0.50000000  1
  Zr  Zr5  1  0.58610508  -0.00000000  0.50000000  1
  Co  Co0  1  0.00000000  0.00000000  0.50000000  1
  As  As0  1  0.33333300  0.66666700  0.00000000  1
  As  As1  1  0.66666700  0.33333300  0.00000000  1
loop_
_geom_bond_atom_site_label_1
_geom_bond_atom_site_label_2
_geom_bond_distance
_geom_bond_site_symmetry_2
Co0 Zr1 2.567843 1_445
Co0 Zr1 2.567843 1_446
Co0 Zr0 2.567843 1_555
Co0 Zr0 2.567843 1_556
Co0 Zr2 2.567843 1_556
Co0 Zr2 2.567843 1_555
Co0 Zr4 3.108251 1_555
Co0 Zr5 3.108251 1_455
Co0 Zr3 3.108251 1_545
As0 Zr3 2.880993 1_554
As0 Zr3 2.880993 1_555
As0 Zr5 2.880994 1_565
As0 Zr5 2.880994 1_564
As0 Zr4 2.880998 1_555
As0 Zr4 2.880998 1_554
As0 Zr0 2.887832 1_565
As0 Zr2 2.887836 1_555
As0 Zr1 2.887839 1_555
As1 Zr5 2.880993 1_554
As1 Zr5 2.880993 1_555
As1 Zr3 2.880994 1_654
As1 Zr3 2.880994 1_655
As1 Zr4 2.880998 1_555
As1 Zr4 2.880998 1_554
As1 Zr2 2.887831 1_655
As1 Zr0 2.887836 1_555
As1 Zr1 2.887839 1_555
