# generated using pymatgen
data_MgFe4(O3F)2
_symmetry_space_group_name_H-M   'P 1'
_cell_length_a   5.29233428
_cell_length_b   9.57097293
_cell_length_c   3.07173475
_cell_angle_alpha   90.09601163
_cell_angle_beta   90.04195788
_cell_angle_gamma   98.25807752
_symmetry_Int_Tables_number   1
_chemical_formula_structural   MgFe4(O3F)2
_chemical_formula_sum   'Mg1 Fe4 O6 F2'
_cell_volume   153.97832927
_cell_formula_units_Z   1
loop_
 _symmetry_equiv_pos_site_id
 _symmetry_equiv_pos_as_xyz
  1  'x, y, z'
loop_
 _atom_site_type_symbol
 _atom_site_label
 _atom_site_symmetry_multiplicity
 _atom_site_fract_x
 _atom_site_fract_y
 _atom_site_fract_z
 _atom_site_occupancy
  Mg  Mg0  1  0.61879453  0.55568421  0.99350424  1
  Fe  Fe0  1  0.89543100  0.97901812  -0.00015398  1
  Fe  Fe1  1  0.12691885  0.43122070  0.00549245  1
  Fe  Fe2  1  0.59271835  0.24113799  0.50141351  1
  Fe  Fe3  1  0.34352662  0.78825849  0.49814514  1
  O  O0  1  0.32918396  0.39310762  0.50508750  1
  O  O1  1  0.07476023  0.89839811  0.49958135  1
  O  O2  1  0.27471452  0.62758475  0.00139028  1
  O  O3  1  0.56416006  0.85746064  0.99832946  1
  O  O4  1  0.76896225  0.36848893  0.00119377  1
  O  O5  1  0.82184565  0.10841178  0.50041041  1
  F  F0  1  0.37441000  0.15723700  0.00103184  1
  F  F1  1  0.79790798  0.62256166  0.49457302  1
loop_
_geom_bond_atom_site_label_1
_geom_bond_atom_site_label_2
_geom_bond_distance
_geom_bond_site_symmetry_2
Mg0 O2 2.037186 1_556
Mg0 O4 2.061865 1_556
Mg0 O0 2.514949 1_555
Mg0 O0 2.562513 1_556
Fe0 O3 1.959925 1_554
Fe0 O1 2.016114 1_655
Fe0 O1 2.016441 1_654
Fe0 O5 2.045143 1_565
Fe0 O5 2.045228 1_564
Fe1 O4 1.903341 1_455
Fe1 O2 1.929223 1_555
Fe1 O0 1.935367 1_555
Fe1 O0 1.937614 1_554
Fe2 O5 1.877940 1_555
Fe2 O4 2.092251 1_556
Fe2 O4 2.097238 1_555
Fe2 O0 2.154907 1_555
Fe3 O1 1.888170 1_555
Fe3 O3 1.983571 1_555
Fe3 O3 1.985736 1_554
Fe3 O2 2.157841 1_555
Fe3 O2 2.176003 1_556
F0 Fe2 2.017159 1_555
F0 Fe2 2.018710 1_554
F1 Mg0 1.867674 1_555
F1 Mg0 1.870166 1_554
