# generated using pymatgen
data_Na6CaTi7(PO4)12
_symmetry_space_group_name_H-M   'P 1'
_cell_length_a   17.50800938
_cell_length_b   8.74028305
_cell_length_c   22.13721130
_cell_angle_alpha   90.01337319
_cell_angle_beta   89.98175027
_cell_angle_gamma   119.95678688
_symmetry_Int_Tables_number   1
_chemical_formula_structural   Na6CaTi7(PO4)12
_chemical_formula_sum   'Na18 Ca3 Ti21 P36 O144'
_cell_volume   2934.97720716
_cell_formula_units_Z   3
loop_
 _symmetry_equiv_pos_site_id
 _symmetry_equiv_pos_as_xyz
  1  'x, y, z'
loop_
 _atom_site_type_symbol
 _atom_site_label
 _atom_site_symmetry_multiplicity
 _atom_site_fract_x
 _atom_site_fract_y
 _atom_site_fract_z
 _atom_site_occupancy
  Na  Na0  1  0.68787040  0.37482880  0.24635454  1
  Na  Na1  1  0.99828960  0.62795919  0.24701272  1
  Na  Na2  1  0.99523914  0.36718293  0.74397809  1
  Na  Na3  1  0.49533158  0.36722775  0.74409693  1
  Na  Na4  1  0.18983723  0.00487275  0.74363934  1
  Na  Na5  1  0.68994023  0.00520643  0.74370573  1
  Na  Na6  1  0.00020598  0.99966935  0.49856958  1
  Na  Na7  1  0.50102355  0.00137446  0.49834988  1
  Na  Na8  1  0.00089301  0.00057312  0.00086931  1
  Na  Na9  1  0.50005014  0.00103093  0.00108502  1
  Na  Na10  1  0.33256930  0.34900306  0.83518554  1
  Na  Na11  1  0.83262965  0.34856489  0.83640384  1
  Na  Na12  1  0.33314758  0.33339814  0.33487736  1
  Na  Na13  1  0.83291364  0.31552045  0.33580682  1
  Na  Na14  1  0.17359702  0.66711579  0.16530171  1
  Na  Na15  1  0.66928277  0.68864498  0.16441334  1
  Na  Na16  1  0.17599928  0.66292700  0.65916250  1
  Na  Na17  1  0.67596305  0.66344166  0.65928771  1
  Ca  Ca0  1  0.33283114  0.34344909  0.68129956  1
  Ca  Ca1  1  0.83266294  0.34315242  0.68131313  1
  Ca  Ca2  1  0.83276331  0.32149635  0.18317166  1
  Ti  Ti0  1  0.00405655  0.00512225  0.35624661  1
  Ti  Ti1  1  0.49533621  0.99592318  0.35563027  1
  Ti  Ti2  1  0.99934378  0.99864326  0.85869505  1
  Ti  Ti3  1  0.49983322  0.99875391  0.85817113  1
  Ti  Ti4  1  0.99846938  0.99721474  0.64239053  1
  Ti  Ti5  1  0.49857035  0.99680698  0.64237927  1
  Ti  Ti6  1  0.99913923  0.00335360  0.14504049  1
  Ti  Ti7  1  0.49967056  0.99785819  0.14481661  1
  Ti  Ti8  1  0.33345006  0.33515362  0.18720573  1
  Ti  Ti9  1  0.33322536  0.33194475  0.98015342  1
  Ti  Ti10  1  0.83383808  0.33239329  0.98478024  1
  Ti  Ti11  1  0.33369188  0.33381781  0.48416333  1
  Ti  Ti12  1  0.83335857  0.33417233  0.48363638  1
  Ti  Ti13  1  0.16849490  0.66922864  0.02060841  1
  Ti  Ti14  1  0.66378139  0.66189692  0.01868068  1
  Ti  Ti15  1  0.16571226  0.66734896  0.51557988  1
  Ti  Ti16  1  0.66590552  0.66704385  0.51493941  1
  Ti  Ti17  1  0.17182375  0.66674852  0.31255947  1
  Ti  Ti18  1  0.66483031  0.67255506  0.31434818  1
  Ti  Ti19  1  0.16890256  0.66527763  0.81519496  1
  Ti  Ti20  1  0.66969134  0.66605486  0.81506093  1
  P  P0  1  0.14476259  0.00127891  0.24969600  1
  P  P1  1  0.63724461  0.98933897  0.25229241  1
  P  P2  1  0.35675069  0.71361803  0.24982997  1
  P  P3  1  0.85586211  0.72537197  0.25181971  1
  P  P4  1  0.00633030  0.29129032  0.25282309  1
  P  P5  1  0.49794849  0.28432302  0.24995222  1
  P  P6  1  0.13911728  0.28654031  0.75305827  1
  P  P7  1  0.63930810  0.28697471  0.75280625  1
  P  P8  1  0.00323075  0.71942722  0.75343492  1
  P  P9  1  0.50330030  0.71909093  0.75326207  1
  P  P10  1  0.35570575  0.98522890  0.75215889  1
  P  P11  1  0.85582619  0.98562441  0.75221905  1
  P  P12  1  0.48520285  0.33594034  0.58401366  1
  P  P13  1  0.98470447  0.33612946  0.58399684  1
  P  P14  1  0.18323052  0.03120111  0.58441597  1
  P  P15  1  0.68354011  0.03094261  0.58430681  1
  P  P16  1  0.33148470  0.63473183  0.58134182  1
  P  P17  1  0.83138995  0.63448805  0.58127691  1
  P  P18  1  0.47623703  0.61993325  0.08319036  1
  P  P19  1  0.98434385  0.63481695  0.08441511  1
  P  P20  1  0.33350780  0.04728943  0.08379343  1
  P  P21  1  0.83220400  0.02841760  0.08151308  1
  P  P22  1  0.19071656  0.33581708  0.08368954  1
  P  P23  1  0.68227030  0.33075944  0.08425880  1
  P  P24  1  0.31132286  0.66487988  0.91868485  1
  P  P25  1  0.81022369  0.66103306  0.91805827  1
  P  P26  1  0.02193489  0.38039658  0.91805895  1
  P  P27  1  0.51947352  0.37792494  0.91525664  1
  P  P28  1  0.16927249  0.95813872  0.91645903  1
  P  P29  1  0.66837243  0.95874863  0.91722147  1
  P  P30  1  0.30995731  0.95980953  0.41548491  1
  P  P31  1  0.81220838  0.96042669  0.41549155  1
  P  P32  1  0.16984126  0.37828299  0.41639978  1
  P  P33  1  0.66785548  0.37630432  0.41344835  1
  P  P34  1  0.02062208  0.66054548  0.41298488  1
  P  P35  1  0.51850004  0.66292317  0.41623119  1
  O  O0  1  0.10215479  0.02167208  0.30798477  1
  O  O1  1  0.58531320  0.00308419  0.30678281  1
  O  O2  1  0.40928721  0.79711387  0.30800433  1
  O  O3  1  0.91480709  0.82517791  0.30659856  1
  O  O4  1  0.48392508  0.16984455  0.30670220  1
  O  O5  1  0.00409497  0.18551404  0.30923335  1
  O  O6  1  0.08854009  0.17986254  0.81002503  1
  O  O7  1  0.58861745  0.18026463  0.80974821  1
  O  O8  1  0.50083154  0.81835631  0.81050355  1
  O  O9  1  0.00105199  0.81902760  0.81066262  1
  O  O10  1  0.40975944  0.99726698  0.80899377  1
  O  O11  1  0.90990467  0.99770742  0.80912362  1
  O  O12  1  0.40143821  0.97398920  0.69370212  1
  O  O13  1  0.90143268  0.97391396  0.69379636  1
  O  O14  1  0.08428755  0.19739772  0.69530766  1
  O  O15  1  0.58429774  0.19710957  0.69515039  1
  O  O16  1  0.01224442  0.82792520  0.69555644  1
  O  O17  1  0.51186437  0.82747774  0.69544940  1
  O  O18  1  0.40149780  0.82954733  0.19362280  1
  O  O19  1  0.90170817  0.82899238  0.19293093  1
  O  O20  1  0.01010843  0.19637998  0.19411639  1
  O  O21  1  0.51421060  0.19588629  0.19418005  1
  O  O22  1  0.08345004  0.97096262  0.19468903  1
  O  O23  1  0.58591721  0.97582555  0.19303928  1
  O  O24  1  0.45883177  0.37441565  0.64481380  1
  O  O25  1  0.95839541  0.37398286  0.64489676  1
  O  O26  1  0.22916189  0.08217954  0.64508562  1
  O  O27  1  0.72932935  0.08205719  0.64501806  1
  O  O28  1  0.30783676  0.53722525  0.64040562  1
  O  O29  1  0.80808969  0.53747463  0.64036391  1
  O  O30  1  0.43171320  0.50371309  0.13949730  1
  O  O31  1  0.95836892  0.54379814  0.14506938  1
  O  O32  1  0.31987026  0.13737132  0.13970619  1
  O  O33  1  0.80872421  0.07951830  0.14042749  1
  O  O34  1  0.24912263  0.36327221  0.13982660  1
  O  O35  1  0.72776080  0.37181070  0.14495519  1
  O  O36  1  0.23449981  0.30661939  0.02710212  1
  O  O37  1  0.73787644  0.30865588  0.03301590  1
  O  O38  1  0.41870010  0.52983971  0.02647559  1
  O  O39  1  0.91826935  0.52442848  0.03295241  1
  O  O40  1  0.34703053  0.16253603  0.02682117  1
  O  O41  1  0.84547590  0.15840280  0.02850211  1
  O  O42  1  0.23787867  0.16585025  0.53333377  1
  O  O43  1  0.73805634  0.16624067  0.53322137  1
  O  O44  1  0.34546439  0.53127376  0.52871149  1
  O  O45  1  0.84558401  0.53161024  0.52850481  1
  O  O46  1  0.41838282  0.31296725  0.53289282  1
  O  O47  1  0.91823819  0.31337091  0.53268826  1
  O  O48  1  0.26803114  0.69241669  0.97462446  1
  O  O49  1  0.76313910  0.68583384  0.97168314  1
  O  O50  1  0.08399972  0.47317271  0.97188438  1
  O  O51  1  0.57807726  0.47226313  0.96954503  1
  O  O52  1  0.15958755  0.84057008  0.97064552  1
  O  O53  1  0.65255424  0.83664601  0.97129898  1
  O  O54  1  0.26507777  0.84215684  0.46995793  1
  O  O55  1  0.76637494  0.84236387  0.46983774  1
  O  O56  1  0.15572982  0.46831362  0.47090076  1
  O  O57  1  0.65411531  0.47145797  0.46705185  1
  O  O58  1  0.08095219  0.68869487  0.46713970  1
  O  O59  1  0.57800509  0.69228864  0.47072204  1
  O  O60  1  0.06362517  0.63703760  0.35435729  1
  O  O61  1  0.56546258  0.63860299  0.35967325  1
  O  O62  1  0.25341232  0.86855927  0.35800563  1
  O  O63  1  0.75259104  0.86700869  0.35878932  1
  O  O64  1  0.18141488  0.49441385  0.35930726  1
  O  O65  1  0.68064386  0.48693298  0.35468001  1
  O  O66  1  0.06532502  0.49150371  0.85929048  1
  O  O67  1  0.56327885  0.48856467  0.85684009  1
  O  O68  1  0.18080070  0.87188518  0.85759260  1
  O  O69  1  0.68049797  0.87056007  0.85864206  1
  O  O70  1  0.25247952  0.64112660  0.86196081  1
  O  O71  1  0.75281929  0.63854161  0.86021699  1
  O  O72  1  0.01181352  0.82853890  0.40817461  1
  O  O73  1  0.50787520  0.82789036  0.41062748  1
  O  O74  1  0.40226558  0.97708737  0.40977875  1
  O  O75  1  0.90496088  0.98102156  0.40926838  1
  O  O76  1  0.08708417  0.19189821  0.41157277  1
  O  O77  1  0.58382838  0.19135080  0.40774728  1
  O  O78  1  0.01079290  0.19323973  0.91300866  1
  O  O79  1  0.50932490  0.19168533  0.91196311  1
  O  O80  1  0.08614333  0.97742400  0.91300681  1
  O  O81  1  0.58590469  0.98080231  0.91214753  1
  O  O82  1  0.40392556  0.82928100  0.91293106  1
  O  O83  1  0.90282415  0.82709046  0.91241496  1
  O  O84  1  0.48841964  0.16108354  0.58616823  1
  O  O85  1  0.98846153  0.16165874  0.58622011  1
  O  O86  1  0.09253584  0.02399666  0.58761253  1
  O  O87  1  0.59274321  0.02353462  0.58751266  1
  O  O88  1  0.41937599  0.81500339  0.58601610  1
  O  O89  1  0.91912500  0.81502299  0.58614790  1
  O  O90  1  0.48265555  0.80246984  0.08985211  1
  O  O91  1  0.99136424  0.81873640  0.08532772  1
  O  O92  1  0.41656408  0.02963340  0.09082589  1
  O  O93  1  0.91967263  0.02292766  0.08510360  1
  O  O94  1  0.09866314  0.17116586  0.09149435  1
  O  O95  1  0.59149580  0.15590587  0.08566659  1
  O  O96  1  0.34580025  0.14950804  0.75213206  1
  O  O97  1  0.84590532  0.14974427  0.75219917  1
  O  O98  1  0.22832683  0.29853448  0.75354909  1
  O  O99  1  0.72837946  0.29866296  0.75346894  1
  O  O100  1  0.42482293  0.53365914  0.75407313  1
  O  O101  1  0.92490491  0.53387526  0.75412850  1
  O  O102  1  0.34725446  0.52850608  0.24292362  1
  O  O103  1  0.84651977  0.54196116  0.25210303  1
  O  O104  1  0.41641476  0.30642228  0.24265165  1
  O  O105  1  0.92697049  0.31736158  0.25476730  1
  O  O106  1  0.23647053  0.16713547  0.24223448  1
  O  O107  1  0.72666976  0.15574303  0.25409856  1
  O  O108  1  0.31861380  0.49684923  0.92299639  1
  O  O109  1  0.81916038  0.49533894  0.92384071  1
  O  O110  1  0.42765268  0.36080260  0.92145318  1
  O  O111  1  0.93089460  0.36558878  0.92480571  1
  O  O112  1  0.25202226  0.14264663  0.92231057  1
  O  O113  1  0.75154021  0.14174551  0.92406890  1
  O  O114  1  0.31963874  0.14372049  0.42283842  1
  O  O115  1  0.82025884  0.14325409  0.42311404  1
  O  O116  1  0.25229803  0.35958070  0.42285849  1
  O  O117  1  0.74984420  0.35619253  0.42263723  1
  O  O118  1  0.42789899  0.49495224  0.42297011  1
  O  O119  1  0.92882577  0.49601242  0.42216864  1
  O  O120  1  0.18165542  0.50221921  0.07692812  1
  O  O121  1  0.66622842  0.48447286  0.06835454  1
  O  O122  1  0.07622357  0.65753250  0.06893487  1
  O  O123  1  0.56916366  0.64367296  0.07689104  1
  O  O124  1  0.25123280  0.86281460  0.07714714  1
  O  O125  1  0.75405440  0.84184660  0.06721134  1
  O  O126  1  0.16648584  0.84548901  0.56866354  1
  O  O127  1  0.66757061  0.84573816  0.56863234  1
  O  O128  1  0.25611435  0.67115367  0.56666273  1
  O  O129  1  0.75561320  0.66952202  0.56633622  1
  O  O130  1  0.07739847  0.49064679  0.56925697  1
  O  O131  1  0.57800143  0.48933664  0.56882729  1
  O  O132  1  0.15183647  0.83062907  0.25380332  1
  O  O133  1  0.64339230  0.81864490  0.25637303  1
  O  O134  1  0.26454571  0.69744375  0.25491992  1
  O  O135  1  0.76256343  0.70562955  0.25528930  1
  O  O136  1  0.09178901  0.47707482  0.25388526  1
  O  O137  1  0.58367993  0.46677102  0.25593988  1
  O  O138  1  0.14543164  0.47087517  0.75653778  1
  O  O139  1  0.64554350  0.47118412  0.75607595  1
  O  O140  1  0.08993418  0.70674907  0.75565802  1
  O  O141  1  0.59021731  0.70753666  0.75534618  1
  O  O142  1  0.26250466  0.81743445  0.75559781  1
  O  O143  1  0.76249074  0.81816543  0.75539725  1
loop_
_geom_bond_atom_site_label_1
_geom_bond_atom_site_label_2
_geom_bond_distance
_geom_bond_site_symmetry_2
Na0 O107 2.335994 1_555
Na0 O137 2.341378 1_555
Na0 O35 2.354678 1_555
Na0 O103 2.411069 1_555
Na0 O135 2.516478 1_555
Na0 O65 2.617078 1_555
Na0 O21 2.876932 1_555
Na1 O105 2.360728 1_555
Na1 O31 2.368387 1_555
Na1 O132 2.373122 1_655
Na1 O103 2.375607 1_555
Na1 O136 2.568713 1_655
Na1 O60 2.621571 1_655
Na1 O22 2.844090 1_655
Na2 O25 2.295609 1_555
Na2 O138 2.331011 1_655
Na2 O101 2.341144 1_555
Na2 O97 2.349090 1_555
Na2 O140 2.590329 1_655
Na2 O66 2.805664 1_655
Na2 O14 2.846480 1_655
Na3 O24 2.298679 1_555
Na3 O139 2.329425 1_555
Na3 O100 2.341316 1_555
Na3 O96 2.351849 1_555
Na3 O141 2.594988 1_555
Na3 O67 2.740383 1_555
Na3 O15 2.849947 1_555
Na4 O26 2.285945 1_555
Na4 O98 2.315724 1_555
Na4 O140 2.316920 1_545
Na4 O96 2.375383 1_555
Na4 O142 2.540597 1_545
Na4 O68 2.749017 1_545
Na4 O16 2.896804 1_545
Na5 O27 2.288374 1_555
Na5 O141 2.312395 1_545
Na5 O99 2.313923 1_555
Na5 O97 2.375452 1_555
Na5 O143 2.535193 1_545
Na5 O69 2.773617 1_545
Na5 O17 2.905026 1_545
Na6 O89 2.467822 1_455
Na6 O85 2.470017 1_465
Na6 O86 2.490456 1_565
Na6 O76 2.508554 1_565
Na6 O75 2.538870 1_455
Na6 O72 2.566085 1_555
Na7 O84 2.466308 1_555
Na7 O88 2.477364 1_545
Na7 O87 2.490656 1_555
Na7 O73 2.502954 1_545
Na7 O77 2.545046 1_555
Na7 O74 2.552355 1_545
Na8 O91 2.405367 1_445
Na8 O93 2.411026 1_455
Na8 O80 2.520196 1_544
Na8 O78 2.521621 1_554
Na8 O83 2.546011 1_444
Na8 O94 2.574862 1_555
Na9 O95 2.395386 1_555
Na9 O82 2.524225 1_544
Na9 O79 2.535082 1_554
Na9 O81 2.535813 1_544
Na9 O90 2.537608 1_545
Na9 O92 2.551170 1_555
Na10 O108 2.412896 1_555
Na10 O100 2.415349 1_555
Na10 O98 2.447283 1_555
Na10 O110 2.501890 1_555
Na10 O112 2.534042 1_555
Na10 O96 2.622197 1_555
Na11 O109 2.397616 1_555
Na11 O101 2.436576 1_555
Na11 O99 2.469628 1_555
Na11 O113 2.546814 1_555
Na11 O111 2.560876 1_555
Na11 O97 2.636302 1_555
Na12 O116 2.484142 1_555
Na12 O114 2.491109 1_555
Na12 O118 2.492029 1_555
Na12 O104 2.586554 1_555
Na12 O102 2.587157 1_555
Na12 O106 2.593658 1_555
Na13 O115 2.391547 1_555
Na13 O105 2.429424 1_555
Na13 O107 2.467527 1_555
Na13 O119 2.513668 1_555
Na13 O117 2.539806 1_555
Na13 O103 2.633985 1_555
Na14 O134 2.474239 1_555
Na14 O120 2.475066 1_555
Na14 O124 2.501907 1_555
Na14 O136 2.505934 1_555
Na14 O132 2.562810 1_555
Na14 O122 2.706284 1_555
Na15 O133 2.480607 1_555
Na15 O123 2.508929 1_555
Na15 O135 2.548759 1_555
Na15 O125 2.576916 1_555
Na15 O137 2.685033 1_555
Na15 O121 2.759034 1_555
Na16 O128 2.462346 1_555
Na16 O130 2.571648 1_555
Na16 O142 2.575464 1_555
Na16 O138 2.618118 1_555
Na16 O126 2.618118 1_555
Na16 O140 2.748507 1_555
Na17 O129 2.470988 1_555
Na17 O143 2.570054 1_555
Na17 O131 2.581023 1_555
Na17 O139 2.608705 1_555
Na17 O127 2.612132 1_555
Na17 O141 2.738525 1_555
Ca0 O28 2.149570 1_555
Ca0 O24 2.234910 1_555
Ca0 O26 2.238854 1_555
Ca0 O100 2.297721 1_555
Ca0 O98 2.311053 1_555
Ca0 O96 2.401981 1_555
Ca1 O29 2.149939 1_555
Ca1 O25 2.230448 1_555
Ca1 O27 2.236794 1_555
Ca1 O101 2.301533 1_555
Ca1 O99 2.307724 1_555
Ca1 O97 2.401391 1_555
Ca2 O33 2.157751 1_555
Ca2 O31 2.248341 1_555
Ca2 O35 2.257728 1_555
Ca2 O105 2.301082 1_555
Ca2 O107 2.307832 1_555
Ca2 O103 2.373802 1_555
O0 P0 1.544451 1_555
O0 Ti0 1.965446 1_555
O1 P1 1.550646 1_545
O1 Ti1 1.885559 1_545
O2 P2 1.538518 1_555
O2 Ti1 1.945866 1_555
O3 P3 1.548468 1_555
O3 Ti0 1.915496 1_665
O4 P5 1.547493 1_555
O4 Ti1 1.956545 1_545
O5 P4 1.542740 1_555
O5 Ti0 1.889115 1_555
O6 P6 1.555343 1_555
O6 Ti2 1.907300 1_445
O7 P7 1.555524 1_555
O7 Ti3 1.902392 1_545
O8 P9 1.548298 1_555
O8 Ti3 1.904366 1_555
O9 P8 1.548174 1_555
O9 Ti2 1.908444 1_455
O10 P10 1.546262 1_555
O10 Ti3 1.911260 1_555
O11 P11 1.547675 1_555
O11 Ti2 1.909094 1_555
O12 P10 1.550225 1_555
O12 Ti5 1.970474 1_555
O13 P11 1.549713 1_555
O13 Ti4 1.968791 1_555
O14 P6 1.554455 1_555
O14 Ti4 2.016387 1_445
O15 P7 1.555119 1_555
O15 Ti5 2.014534 1_545
O16 P8 1.554610 1_555
O16 Ti4 1.997516 1_455
O17 P9 1.554485 1_555
O17 Ti5 1.992423 1_555
O18 P2 1.547853 1_555
O18 Ti7 1.939093 1_555
O19 P3 1.561365 1_555
O19 Ti6 1.938977 1_565
O20 P4 1.560682 1_555
O20 Ti6 1.933694 1_455
O21 P5 1.556274 1_555
O21 Ti7 1.952934 1_545
O22 P0 1.556258 1_565
O22 Ti6 1.971185 1_465
O23 P1 1.561005 1_555
O23 Ti7 1.936058 1_555
O24 P12 1.514029 1_555
O25 P13 1.513521 1_555
O26 P14 1.513797 1_555
O27 P15 1.513696 1_555
O28 P16 1.501695 1_555
O29 P17 1.500346 1_555
O30 P18 1.549961 1_555
O30 Ti8 1.927161 1_555
O31 P19 1.510421 1_555
O32 P20 1.547917 1_555
O32 Ti8 1.933741 1_555
O33 P21 1.500721 1_555
O34 P22 1.550225 1_555
O34 Ti8 1.924506 1_555
O35 P23 1.511133 1_555
O36 P22 1.554531 1_555
O36 Ti9 1.932278 1_554
O37 P23 1.568109 1_555
O37 Ti10 1.912281 1_554
O38 P18 1.555402 1_555
O38 Ti9 1.922980 1_554
O39 P19 1.566098 1_555
O39 Ti10 1.913587 1_554
O40 P20 1.556778 1_555
O40 Ti9 1.917395 1_554
O41 P21 1.568016 1_555
O41 Ti10 1.897677 1_554
O42 P14 1.566716 1_555
O42 Ti11 1.922027 1_555
O43 P15 1.568771 1_555
O43 Ti12 1.922768 1_555
O44 P16 1.566962 1_555
O44 Ti11 1.907239 1_555
O45 P17 1.567650 1_555
O45 Ti12 1.908075 1_555
O46 P12 1.567091 1_555
O46 Ti11 1.914801 1_555
O47 P13 1.566339 1_555
O47 Ti12 1.921337 1_555
O48 P24 1.532113 1_555
O48 Ti13 1.939198 1_556
O49 P25 1.521015 1_555
O49 Ti14 1.946209 1_556
O50 P26 1.542231 1_555
O50 Ti13 1.938226 1_556
O51 P27 1.527202 1_555
O51 Ti14 1.923084 1_556
O52 P28 1.532972 1_555
O52 Ti13 1.929894 1_556
O53 P29 1.534262 1_555
O53 Ti14 1.942255 1_556
O54 P30 1.523818 1_555
O54 Ti15 1.930272 1_555
O55 P31 1.526149 1_555
O55 Ti16 1.935660 1_555
O56 P32 1.526240 1_555
O56 Ti15 1.931520 1_555
O57 P33 1.535189 1_555
O57 Ti16 1.932771 1_555
O58 P34 1.534458 1_555
O58 Ti15 1.914291 1_555
O59 P35 1.529694 1_555
O59 Ti16 1.927542 1_555
O60 P34 1.564364 1_555
O60 Ti17 2.004952 1_555
O61 P35 1.569264 1_555
O61 Ti18 1.898661 1_555
O62 P30 1.564303 1_555
O62 Ti17 1.909884 1_555
O63 P31 1.575111 1_555
O63 Ti18 1.899864 1_555
O64 P32 1.569622 1_555
O64 Ti17 1.902994 1_555
O65 P33 1.569007 1_555
O65 Ti18 1.988814 1_555
O66 P26 1.573492 1_555
O66 Ti19 1.948624 1_555
O67 P27 1.566818 1_555
O67 Ti20 1.961158 1_555
O68 P28 1.567986 1_555
O68 Ti19 1.951639 1_555
O69 P29 1.575951 1_555
O69 Ti20 1.955263 1_555
O70 P24 1.571109 1_555
O70 Ti19 1.888656 1_555
O71 P25 1.578503 1_555
O71 Ti20 1.877727 1_555
O72 P34 1.554763 1_555
O72 Ti0 1.982977 1_565
O73 P35 1.548197 1_555
O73 Ti1 2.002601 1_555
O74 P30 1.551384 1_555
O74 Ti1 1.962173 1_555
O75 P31 1.548034 1_555
O75 Ti0 2.016436 1_665
O76 P32 1.551557 1_555
O76 Ti0 1.976962 1_555
O77 P33 1.555113 1_555
O77 Ti1 2.001587 1_545
O78 P26 1.551660 1_555
O78 Ti2 2.009318 1_445
O79 P27 1.548444 1_555
O79 Ti3 2.002120 1_545
O80 P28 1.548418 1_555
O80 Ti2 2.017955 1_455
O81 P29 1.553229 1_555
O81 Ti3 1.990128 1_555
O82 P24 1.543654 1_555
O82 Ti3 1.999674 1_555
O83 P25 1.549372 1_555
O83 Ti2 1.996790 1_555
O84 P12 1.557927 1_555
O84 Ti5 1.974186 1_545
O85 P13 1.559601 1_555
O85 Ti4 1.973616 1_545
O86 P14 1.558980 1_555
O86 Ti4 1.962513 1_445
O87 P15 1.559944 1_555
O87 Ti5 1.965319 1_545
O88 P16 1.561995 1_555
O88 Ti5 1.950408 1_555
O89 P17 1.562169 1_555
O89 Ti4 1.951064 1_555
O90 P18 1.549385 1_555
O90 Ti7 1.994204 1_555
O91 P19 1.549922 1_555
O91 Ti6 2.036998 1_565
O92 P20 1.544949 1_555
O92 Ti7 2.006884 1_545
O93 P21 1.557972 1_555
O93 Ti6 1.991101 1_555
O94 P22 1.543359 1_555
O94 Ti6 2.009893 1_455
O95 P23 1.560996 1_555
O95 Ti7 1.997249 1_545
O96 P10 1.529843 1_545
O97 P11 1.528614 1_545
O98 P6 1.512306 1_555
O99 P7 1.511120 1_555
O100 P9 1.513592 1_555
O101 P8 1.513226 1_655
O102 P2 1.549184 1_555
O102 Ti8 2.006749 1_555
O103 P3 1.527986 1_555
O104 P5 1.541652 1_555
O104 Ti8 2.011237 1_555
O105 P4 1.516724 1_655
O106 P0 1.543427 1_555
O106 Ti8 2.008184 1_555
O107 P1 1.514622 1_545
O108 P24 1.539348 1_555
O108 Ti9 2.028076 1_555
O109 P25 1.537721 1_555
O109 Ti10 2.069026 1_555
O110 P27 1.544406 1_555
O110 Ti9 2.016863 1_555
O111 P26 1.540622 1_655
O111 Ti10 2.059310 1_555
O112 P28 1.543726 1_545
O112 Ti9 2.012290 1_555
O113 P29 1.541282 1_545
O113 Ti10 2.064311 1_555
O114 P30 1.538461 1_545
O114 Ti11 2.062766 1_555
O115 P31 1.541681 1_545
O115 Ti12 2.061331 1_555
O116 P32 1.538544 1_555
O116 Ti11 2.060355 1_555
O117 P33 1.544352 1_555
O117 Ti12 2.069023 1_555
O118 P35 1.538828 1_555
O118 Ti11 2.053919 1_555
O119 P34 1.544051 1_655
O119 Ti12 2.069882 1_555
O120 P22 1.547062 1_555
O120 Ti13 2.018710 1_555
O121 P23 1.544331 1_555
O121 Ti14 1.919116 1_555
O122 P19 1.557327 1_455
O122 Ti13 1.897042 1_555
O123 P18 1.540204 1_555
O123 Ti14 2.040915 1_555
O124 P20 1.541692 1_565
O124 Ti13 2.019934 1_555
O125 P21 1.550237 1_565
O125 Ti14 1.908827 1_555
O126 P14 1.538445 1_565
O126 Ti15 1.945104 1_555
O127 P15 1.538406 1_565
O127 Ti16 1.951069 1_555
O128 P16 1.538858 1_555
O128 Ti15 1.932246 1_555
O129 P17 1.539262 1_555
O129 Ti16 1.931052 1_555
O130 P13 1.541147 1_455
O130 Ti15 1.950068 1_555
O131 P12 1.541001 1_555
O131 Ti16 1.953594 1_555
O132 P0 1.559749 1_565
O132 Ti17 2.089898 1_555
O133 P1 1.551127 1_555
O133 Ti18 1.974361 1_555
O134 P2 1.552644 1_555
O134 Ti17 1.974673 1_555
O135 P3 1.556388 1_555
O135 Ti18 2.055605 1_555
O136 P4 1.565112 1_555
O136 Ti17 2.019678 1_555
O137 P5 1.556612 1_555
O137 Ti18 2.091280 1_555
O138 P6 1.560766 1_555
O138 Ti19 2.010978 1_555
O139 P7 1.560066 1_555
O139 Ti20 2.016160 1_555
O140 P8 1.577048 1_555
O140 Ti19 2.069266 1_555
O141 P9 1.575295 1_555
O141 Ti20 2.078514 1_555
O142 P10 1.558616 1_555
O142 Ti19 2.004422 1_555
O143 P11 1.558484 1_555
O143 Ti20 1.998497 1_555
