# generated using pymatgen
data_MgFe6(O5F)2
_symmetry_space_group_name_H-M   'P 1'
_cell_length_a   12.07267605
_cell_length_b   6.42759253
_cell_length_c   3.00281718
_cell_angle_alpha   90.10354509
_cell_angle_beta   89.43930333
_cell_angle_gamma   71.86433117
_symmetry_Int_Tables_number   1
_chemical_formula_structural   MgFe6(O5F)2
_chemical_formula_sum   'Mg1 Fe6 O10 F2'
_cell_volume   221.42424030
_cell_formula_units_Z   1
loop_
 _symmetry_equiv_pos_site_id
 _symmetry_equiv_pos_as_xyz
  1  'x, y, z'
loop_
 _atom_site_type_symbol
 _atom_site_label
 _atom_site_symmetry_multiplicity
 _atom_site_fract_x
 _atom_site_fract_y
 _atom_site_fract_z
 _atom_site_occupancy
  Mg  Mg0  1  0.50092500  0.99663600  0.96133800  1
  Fe  Fe0  1  0.01609200  0.99025400  0.99713200  1
  Fe  Fe1  1  0.99152200  0.50370000  0.50015600  1
  Fe  Fe2  1  0.27190500  0.34302800  0.99260700  1
  Fe  Fe3  1  0.70817700  0.18127900  0.47854700  1
  Fe  Fe4  1  0.29001200  0.82226000  0.48354000  1
  Fe  Fe5  1  0.70553400  0.67254600  0.99960600  1
  O  O0  1  0.99104000  0.30653300  0.00049300  1
  O  O1  1  0.33115400  0.00374300  0.97989300  1
  O  O2  1  0.99657100  0.69825500  0.99899600  1
  O  O3  1  0.17384200  0.38635600  0.49566600  1
  O  O4  1  0.12042200  0.93420500  0.49308300  1
  O  O5  1  0.31407500  0.61399500  0.98342500  1
  O  O6  1  0.69309400  0.37701800  0.98083100  1
  O  O7  1  0.58107100  0.76775800  0.45552400  1
  O  O8  1  0.81295300  0.61808900  0.50978800  1
  O  O9  1  0.67376100  0.01089400  0.97810200  1
  F  F0  1  0.44572500  0.22172600  0.46720400  1
  F  F1  1  0.88212900  0.06214400  0.49406700  1
loop_
_geom_bond_atom_site_label_1
_geom_bond_atom_site_label_2
_geom_bond_distance
_geom_bond_site_symmetry_2
Mg0 O1 2.036045 1_565
Mg0 O7 2.110072 1_556
Mg0 O7 2.117645 1_555
Mg0 O9 2.117991 1_565
Fe0 O4 1.919727 1_555
Fe0 O4 1.921007 1_556
Fe0 O0 1.959952 1_466
Fe0 O2 1.963036 1_455
Fe1 O2 1.963101 1_555
Fe1 O0 1.963463 1_555
Fe1 O0 1.968420 1_556
Fe1 O2 1.970958 1_554
Fe1 O8 2.049604 1_555
Fe1 O3 2.092782 1_655
Fe2 O3 1.875968 1_556
Fe2 O3 1.880609 1_555
Fe2 O5 1.960929 1_555
Fe2 O1 2.072920 1_555
Fe3 O6 1.928531 1_554
Fe3 O6 1.932890 1_555
Fe3 O9 1.974653 1_555
Fe3 O9 1.979851 1_554
Fe4 O4 1.947329 1_555
Fe4 O5 1.968178 1_554
Fe4 O5 1.975665 1_555
Fe4 O1 2.048850 1_565
Fe4 O1 2.060831 1_564
Fe5 O8 1.909417 1_555
Fe5 O6 1.952265 1_555
Fe5 O7 1.972523 1_556
Fe5 O8 1.977248 1_556
Fe5 O9 2.088677 1_565
Fe5 O7 2.186496 1_555
F0 Mg0 2.041037 1_545
F0 Mg0 2.053473 1_544
F0 Fe2 2.467077 1_554
F0 Fe2 2.532349 1_555
F1 Fe3 1.999938 1_555
F1 Fe0 2.130931 1_644
F1 Fe0 2.167073 1_645
