# generated using pymatgen
data_NaYHfSi(SO6)2
_symmetry_space_group_name_H-M   'P 1'
_cell_length_a   9.05715853
_cell_length_b   9.09241556
_cell_length_c   23.64519891
_cell_angle_alpha   90.21053072
_cell_angle_beta   90.00000000
_cell_angle_gamma   119.87181165
_symmetry_Int_Tables_number   1
_chemical_formula_structural   NaYHfSi(SO6)2
_chemical_formula_sum   'Na6 Y6 Hf6 Si6 S12 O72'
_cell_volume   1688.49774591
_cell_formula_units_Z   6
loop_
 _symmetry_equiv_pos_site_id
 _symmetry_equiv_pos_as_xyz
  1  'x, y, z'
loop_
 _atom_site_type_symbol
 _atom_site_label
 _atom_site_symmetry_multiplicity
 _atom_site_fract_x
 _atom_site_fract_y
 _atom_site_fract_z
 _atom_site_occupancy
  Na  Na0  1  0.03442273  0.01551599  0.50206227  1
  Na  Na1  1  0.98109326  0.01551599  0.00206227  1
  Na  Na2  1  0.69846843  0.33109624  0.83418367  1
  Na  Na3  1  0.63262881  0.33109624  0.33418367  1
  Na  Na4  1  0.34401999  0.70416378  0.16773863  1
  Na  Na5  1  0.36014279  0.70416378  0.66773863  1
  Y  Y0  1  0.99770290  0.99797511  0.64707065  1
  Y  Y1  1  0.00027221  0.99797511  0.14707065  1
  Y  Y2  1  0.67636111  0.32430979  0.97997688  1
  Y  Y3  1  0.64794968  0.32430979  0.47997688  1
  Y  Y4  1  0.33698175  0.66802014  0.31354198  1
  Y  Y5  1  0.33103739  0.66802014  0.81354198  1
  Hf  Hf0  1  0.02138899  0.01199096  0.35262720  1
  Hf  Hf1  1  0.99060197  0.01199096  0.85262720  1
  Hf  Hf2  1  0.65681108  0.31017053  0.68552330  1
  Hf  Hf3  1  0.65336045  0.31017053  0.18552330  1
  Hf  Hf4  1  0.33074095  0.66389960  0.01886157  1
  Hf  Hf5  1  0.33315765  0.66389960  0.51886157  1
  Si  Si0  1  0.29853720  0.00246616  0.24831048  1
  Si  Si1  1  0.70392895  0.00246616  0.74831048  1
  Si  Si2  1  0.36835287  0.02723722  0.58220438  1
  Si  Si3  1  0.65888536  0.02723722  0.08220438  1
  Si  Si4  1  0.04345843  0.37213290  0.91554937  1
  Si  Si5  1  0.32867347  0.37213290  0.41554937  1
  S  S0  1  0.71422700  0.70244744  0.25059032  1
  S  S1  1  0.99007680  0.28797594  0.25069839  1
  S  S2  1  0.29789913  0.28797594  0.75069839  1
  S  S3  1  0.98822044  0.70244744  0.75059032  1
  S  S4  1  0.96289625  0.34379538  0.58284411  1
  S  S5  1  0.65787957  0.62030819  0.58368767  1
  S  S6  1  0.96242961  0.62030819  0.08368767  1
  S  S7  1  0.38090013  0.34379538  0.08284411  1
  S  S8  1  0.63051340  0.67480043  0.91736174  1
  S  S9  1  0.32087956  0.95396755  0.91764292  1
  S  S10  1  0.63308698  0.95396755  0.41764292  1
  S  S11  1  0.04428603  0.67480043  0.41736174  1
  O  O0  1  0.19935748  0.02463262  0.30531707  1
  O  O1  1  0.81635887  0.79093451  0.30196766  1
  O  O2  1  0.96616941  0.17993814  0.30154779  1
  O  O3  1  0.21376873  0.17993814  0.80154779  1
  O  O4  1  0.97457565  0.79093451  0.80196766  1
  O  O5  1  0.82527514  0.02463262  0.80531707  1
  O  O6  1  0.79481583  0.98531091  0.69306014  1
  O  O7  1  0.19858158  0.20944443  0.69951913  1
  O  O8  1  0.01488466  0.80449707  0.69957005  1
  O  O9  1  0.78961241  0.80449707  0.19957005  1
  O  O10  1  0.01086285  0.20944443  0.19951913  1
  O  O11  1  0.19049508  0.98531091  0.19306014  1
  O  O12  1  0.87726514  0.36521160  0.63431449  1
  O  O13  1  0.49100793  0.13009750  0.63910371  1
  O  O14  1  0.63949663  0.51767916  0.63484923  1
  O  O15  1  0.87818353  0.51767916  0.13484923  1
  O  O16  1  0.63909057  0.13009750  0.13910371  1
  O  O17  1  0.48794745  0.36521160  0.13431449  1
  O  O18  1  0.45911477  0.32430760  0.03190099  1
  O  O19  1  0.86107299  0.54551611  0.03266495  1
  O  O20  1  0.68065492  0.14063549  0.02800495  1
  O  O21  1  0.45998157  0.14063549  0.52800495  1
  O  O22  1  0.68444412  0.54551611  0.53266495  1
  O  O23  1  0.86519383  0.32430760  0.53190099  1
  O  O24  1  0.54636673  0.70133342  0.96824174  1
  O  O25  1  0.16204942  0.47188657  0.97231008  1
  O  O26  1  0.30713704  0.84880460  0.96845673  1
  O  O27  1  0.54166655  0.84880460  0.46845673  1
  O  O28  1  0.30983616  0.47188657  0.47231008  1
  O  O29  1  0.15496569  0.70133342  0.46824174  1
  O  O30  1  0.12328635  0.65601036  0.36588351  1
  O  O31  1  0.52823353  0.88213855  0.36664851  1
  O  O32  1  0.34248838  0.47682539  0.35987623  1
  O  O33  1  0.13433602  0.47682539  0.85987623  1
  O  O34  1  0.35390402  0.88213855  0.86664851  1
  O  O35  1  0.53272301  0.65601036  0.86588351  1
  O  O36  1  0.02594216  0.83015013  0.41215095  1
  O  O37  1  0.79752685  0.95576916  0.41176322  1
  O  O38  1  0.15062265  0.18103530  0.41080917  1
  O  O39  1  0.03041265  0.18103530  0.91080917  1
  O  O40  1  0.15824231  0.95576916  0.91176322  1
  O  O41  1  0.80420797  0.83015013  0.91215095  1
  O  O42  1  0.98751243  0.19620470  0.58897001  1
  O  O43  1  0.17933536  0.00225899  0.58677561  1
  O  O44  1  0.80273070  0.79424147  0.58864786  1
  O  O45  1  0.99151077  0.79424147  0.08864786  1
  O  O46  1  0.82292364  0.00225899  0.08677561  1
  O  O47  1  0.20869227  0.19620470  0.08897001  1
  O  O48  1  0.69721771  0.18327089  0.74395907  1
  O  O49  1  0.47103258  0.30491132  0.74528841  1
  O  O50  1  0.82860301  0.53506453  0.74460891  1
  O  O51  1  0.70646251  0.53506453  0.24460891  1
  O  O52  1  0.83387975  0.30491132  0.24528841  1
  O  O53  1  0.48605419  0.18327089  0.24395907  1
  O  O54  1  0.64872265  0.52535297  0.92447745  1
  O  O55  1  0.85249934  0.34472755  0.91743012  1
  O  O56  1  0.46230129  0.12881225  0.92404994  1
  O  O57  1  0.66651196  0.12881225  0.42404994  1
  O  O58  1  0.49222921  0.34472755  0.41743012  1
  O  O59  1  0.87663133  0.52535297  0.42447745  1
  O  O60  1  0.36671277  0.50155529  0.07858831  1
  O  O61  1  0.13348211  0.63084943  0.07777087  1
  O  O62  1  0.48143425  0.84132894  0.07619720  1
  O  O63  1  0.35989369  0.84132894  0.57619720  1
  O  O64  1  0.49736632  0.63084943  0.57777087  1
  O  O65  1  0.13484152  0.50155529  0.57858831  1
  O  O66  1  0.32935000  0.84321794  0.25315845  1
  O  O67  1  0.53978234  0.67543570  0.25503565  1
  O  O68  1  0.13836383  0.45833604  0.25660633  1
  O  O69  1  0.31997121  0.45833604  0.75660633  1
  O  O70  1  0.13565236  0.67543570  0.75503565  1
  O  O71  1  0.51386694  0.84321794  0.75315845  1
loop_
_geom_bond_atom_site_label_1
_geom_bond_atom_site_label_2
_geom_bond_distance
_geom_bond_site_symmetry_2
Na0 O43 2.430804 1_555
Na0 O38 2.544473 1_555
Na0 O36 2.685334 1_545
Na0 O42 2.788002 1_455
Na0 O37 2.878881 1_445
Na0 O44 2.909925 1_445
Na1 O46 2.430804 1_555
Na1 O39 2.544473 1_654
Na1 O41 2.685334 1_544
Na1 O47 2.788002 1_655
Na1 O40 2.878881 1_644
Na1 O45 2.909925 1_545
Na2 O55 2.379517 1_555
Na2 O48 2.514313 1_555
Na2 O50 2.676951 1_555
Na2 O49 2.868088 1_555
Na2 O56 2.929712 1_555
Na2 O54 2.940403 1_555
Na3 O58 2.379517 1_555
Na3 O53 2.514313 1_555
Na3 O51 2.676951 1_555
Na3 O52 2.868089 1_555
Na3 O57 2.929712 1_555
Na3 O59 2.940403 1_555
Na4 O66 2.417487 1_555
Na4 O62 2.502636 1_555
Na4 O61 2.707275 1_555
Na4 O67 2.817441 1_555
Na4 O60 2.868473 1_555
Na4 O68 2.961118 1_555
Na5 O71 2.417487 1_555
Na5 O63 2.502636 1_555
Na5 O64 2.707275 1_555
Na5 O70 2.817441 1_555
Na5 O65 2.868473 1_555
Na5 O69 2.961118 1_555
Hf0 O0 1.918119 1_555
Hf0 O38 1.953834 1_555
Hf0 O36 2.191182 1_545
Hf0 O2 2.194324 1_455
Hf0 O1 2.277600 1_445
Hf0 O37 2.302237 1_445
Hf1 O5 1.918119 1_555
Hf1 O39 1.953834 1_655
Hf1 O41 2.191182 1_545
Hf1 O3 2.194324 1_655
Hf1 O4 2.277600 1_545
Hf1 O40 2.302237 1_645
Hf2 O13 1.917858 1_555
Hf2 O48 1.951090 1_555
Hf2 O12 2.170813 1_555
Hf2 O49 2.179651 1_555
Hf2 O14 2.308996 1_555
Hf2 O50 2.316001 1_555
Hf3 O16 1.917858 1_555
Hf3 O53 1.951090 1_555
Hf3 O17 2.170813 1_555
Hf3 O52 2.179651 1_555
Hf3 O15 2.308996 1_555
Hf3 O51 2.316001 1_555
Hf4 O25 1.980598 1_554
Hf4 O62 2.023362 1_555
Hf4 O26 2.159969 1_554
Hf4 O61 2.165817 1_555
Hf4 O24 2.168721 1_554
Hf4 O60 2.184914 1_555
Hf5 O28 1.980598 1_555
Hf5 O63 2.023362 1_555
Hf5 O27 2.159969 1_555
Hf5 O64 2.165817 1_555
Hf5 O29 2.168721 1_555
Hf5 O65 2.184914 1_555
O0 Si0 1.686063 1_555
O1 S0 1.493405 1_555
O2 S1 1.501425 1_555
O3 S2 1.501425 1_555
O4 S3 1.493405 1_555
O5 Si1 1.686063 1_555
O6 Si1 1.592184 1_565
O6 Y0 2.088687 1_555
O7 S2 1.461951 1_555
O7 Y0 2.245657 1_445
O8 S3 1.469576 1_455
O8 Y0 2.224558 1_455
O9 S0 1.469576 1_555
O9 Y1 2.224558 1_655
O10 S1 1.461951 1_455
O10 Y1 2.245657 1_545
O11 Si0 1.592184 1_565
O11 Y1 2.088687 1_555
O12 S4 1.506415 1_555
O13 Si2 1.695494 1_555
O14 S5 1.488439 1_555
O15 S6 1.488439 1_555
O16 Si3 1.695494 1_555
O17 S7 1.506415 1_555
O18 S7 1.451779 1_555
O18 Y2 2.319252 1_554
O19 S6 1.460411 1_555
O19 Y2 2.241875 1_554
O20 Si3 1.597360 1_555
O20 Y2 2.039326 1_554
O21 Si2 1.597360 1_555
O21 Y3 2.039326 1_555
O22 S5 1.460411 1_555
O22 Y3 2.241875 1_555
O23 S4 1.451779 1_555
O23 Y3 2.319252 1_555
O24 S8 1.505799 1_555
O25 Si4 1.672795 1_555
O26 S9 1.504420 1_555
O27 S10 1.504420 1_555
O28 Si5 1.672795 1_555
O29 S11 1.505799 1_555
O30 S11 1.463901 1_555
O30 Y4 2.253921 1_555
O31 S10 1.469250 1_555
O31 Y4 2.233907 1_555
O32 Si5 1.595388 1_555
O32 Y4 2.079727 1_555
O33 Si4 1.595388 1_555
O33 Y5 2.079727 1_555
O34 S9 1.469250 1_555
O34 Y5 2.233907 1_555
O35 S8 1.463901 1_555
O35 Y5 2.253921 1_555
O36 S11 1.507647 1_555
O37 S10 1.487783 1_555
O38 Si5 1.685115 1_555
O39 Si4 1.685119 1_555
O40 S9 1.487774 1_555
O41 S8 1.507652 1_555
O42 S4 1.473430 1_555
O42 Y0 2.308322 1_545
O43 Si2 1.614607 1_555
O43 Y0 2.162626 1_445
O44 S5 1.472374 1_555
O44 Y0 2.276155 1_555
O45 S6 1.472377 1_555
O45 Y1 2.276155 1_655
O46 Si3 1.614598 1_555
O46 Y1 2.162626 1_645
O47 S7 1.473435 1_555
O47 Y1 2.308322 1_545
O48 Si1 1.678583 1_555
O49 S2 1.502872 1_555
O50 S3 1.494312 1_555
O51 S0 1.494316 1_555
O52 S1 1.502862 1_555
O53 Si0 1.678588 1_555
O54 S8 1.458378 1_555
O54 Y2 2.366367 1_555
O55 Si4 1.620550 1_655
O55 Y2 2.115117 1_555
O56 S9 1.469958 1_545
O56 Y2 2.284095 1_555
O57 S10 1.469952 1_545
O57 Y3 2.284095 1_555
O58 Si5 1.620568 1_555
O58 Y3 2.115117 1_555
O59 S11 1.458368 1_655
O59 Y3 2.366367 1_555
O60 S7 1.506273 1_555
O61 S6 1.510338 1_455
O62 Si3 1.659097 1_565
O63 Si2 1.659089 1_565
O64 S5 1.510356 1_555
O65 S4 1.506263 1_455
O66 Si0 1.609760 1_565
O66 Y4 2.169629 1_555
O67 S0 1.476934 1_555
O67 Y4 2.273646 1_555
O68 S1 1.465870 1_455
O68 Y4 2.290876 1_555
O69 S2 1.465874 1_555
O69 Y5 2.290876 1_555
O70 S3 1.476925 1_455
O70 Y5 2.273646 1_555
O71 Si1 1.609766 1_565
O71 Y5 2.169629 1_555
