# generated using pymatgen
data_Na3B5S9
_symmetry_space_group_name_H-M   'P 1'
_cell_length_a   16.71574913
_cell_length_b   16.71574913
_cell_length_c   16.71574913
_cell_angle_alpha   128.39683905
_cell_angle_beta   128.39683905
_cell_angle_gamma   75.98304075
_symmetry_Int_Tables_number   1
_chemical_formula_structural   Na3B5S9
_chemical_formula_sum   'Na24 B40 S72'
_cell_volume   2789.39025788
_cell_formula_units_Z   8
loop_
 _symmetry_equiv_pos_site_id
 _symmetry_equiv_pos_as_xyz
  1  'x, y, z'
loop_
 _atom_site_type_symbol
 _atom_site_label
 _atom_site_symmetry_multiplicity
 _atom_site_fract_x
 _atom_site_fract_y
 _atom_site_fract_z
 _atom_site_occupancy
  Na  Na0  1  0.87500000  0.62500000  0.25000000  1
  Na  Na1  1  0.37500000  0.62500000  0.25000000  1
  Na  Na2  1  0.37500000  0.12500000  0.75000000  1
  Na  Na3  1  0.37500000  0.12500000  0.25000000  1
  Na  Na4  1  0.87500000  0.12500000  0.75000000  1
  Na  Na5  1  0.87500000  0.12500000  0.25000000  1
  Na  Na6  1  0.87500000  0.62500000  0.75000000  1
  Na  Na7  1  0.37500000  0.62500000  0.75000000  1
  Na  Na8  1  0.03827300  0.37500000  0.16327300  1
  Na  Na9  1  0.12500000  0.46172700  0.83672700  1
  Na  Na10  1  0.62500000  0.28827300  0.16327300  1
  Na  Na11  1  0.21172700  0.87500000  0.83672700  1
  Na  Na12  1  0.71172700  0.87500000  0.33672700  1
  Na  Na13  1  0.62500000  0.78827300  0.66327300  1
  Na  Na14  1  0.12500000  0.96172700  0.33672700  1
  Na  Na15  1  0.53827300  0.37500000  0.66327300  1
  Na  Na16  1  0.04607100  0.04607100  0.59214100  1
  Na  Na17  1  0.79607100  0.70392900  0.50000000  1
  Na  Na18  1  0.20392900  0.29607100  0.50000000  1
  Na  Na19  1  0.45392900  0.45392900  0.40785900  1
  Na  Na20  1  0.70392900  0.20392900  0.90785900  1
  Na  Na21  1  0.95392900  0.54607100  0.00000000  1
  Na  Na22  1  0.54607100  0.95392900  0.00000000  1
  Na  Na23  1  0.29607100  0.79607100  0.09214100  1
  B  B0  1  0.09909900  0.77443900  0.37372600  1
  B  B1  1  0.52443900  0.65071300  0.17534000  1
  B  B2  1  0.47537300  0.34909900  0.82466000  1
  B  B3  1  0.15090100  0.02462700  0.17534000  1
  B  B4  1  0.84928700  0.97556100  0.82466000  1
  B  B5  1  0.77462700  0.09928700  0.37372600  1
  B  B6  1  0.72556100  0.40090100  0.62627400  1
  B  B7  1  0.40071300  0.72537300  0.62627400  1
  B  B8  1  0.65090100  0.47556100  0.12627400  1
  B  B9  1  0.22556100  0.59928700  0.32466000  1
  B  B10  1  0.27462700  0.90090100  0.67534000  1
  B  B11  1  0.59909900  0.22537300  0.32466000  1
  B  B12  1  0.90071300  0.27443900  0.67534000  1
  B  B13  1  0.97537300  0.15071300  0.12627400  1
  B  B14  1  0.02443900  0.84909900  0.87372600  1
  B  B15  1  0.34928700  0.52462700  0.87372600  1
  B  B16  1  0.16540000  0.66540000  0.50000000  1
  B  B17  1  0.41540000  0.41540000  0.00000000  1
  B  B18  1  0.08460000  0.08460000  0.00000000  1
  B  B19  1  0.83460000  0.33460000  0.50000000  1
  B  B20  1  0.58460000  0.58460000  0.00000000  1
  B  B21  1  0.33460000  0.83460000  0.50000000  1
  B  B22  1  0.66540000  0.16540000  0.50000000  1
  B  B23  1  0.91540000  0.91540000  0.00000000  1
  B  B24  1  0.04533500  0.83485100  0.54639100  1
  B  B25  1  0.58485100  0.53846000  0.28951600  1
  B  B26  1  0.24894400  0.29533500  0.71048400  1
  B  B27  1  0.20466500  0.25105600  0.28951600  1
  B  B28  1  0.96154000  0.91514900  0.71048400  1
  B  B29  1  0.00105600  0.21154000  0.54639100  1
  B  B30  1  0.66514900  0.45466500  0.45360900  1
  B  B31  1  0.28846000  0.49894400  0.45360900  1
  B  B32  1  0.70466500  0.41514900  0.95360900  1
  B  B33  1  0.16514900  0.71154000  0.21048400  1
  B  B34  1  0.50105600  0.95466500  0.78951600  1
  B  B35  1  0.54533500  0.99894400  0.21048400  1
  B  B36  1  0.78846000  0.33485100  0.78951600  1
  B  B37  1  0.74894400  0.03846000  0.95360900  1
  B  B38  1  0.08485100  0.79533500  0.04639100  1
  B  B39  1  0.46154000  0.75105600  0.04639100  1
  S  S0  1  0.11675500  0.64165400  0.34509400  1
  S  S1  1  0.39165400  0.54656100  0.02489900  1
  S  S2  1  0.52166100  0.36675500  0.97510100  1
  S  S3  1  0.13324500  0.97833900  0.02489900  1
  S  S4  1  0.95343900  0.10834600  0.97510100  1
  S  S5  1  0.72833900  0.20343900  0.34509400  1
  S  S6  1  0.85834600  0.38324500  0.65490600  1
  S  S7  1  0.29656100  0.77166100  0.65490600  1
  S  S8  1  0.63324500  0.60834600  0.15490600  1
  S  S9  1  0.35834600  0.70343900  0.47510100  1
  S  S10  1  0.22833900  0.88324500  0.52489900  1
  S  S11  1  0.61675500  0.27166100  0.47510100  1
  S  S12  1  0.79656100  0.14165400  0.52489900  1
  S  S13  1  0.02166100  0.04656100  0.15490600  1
  S  S14  1  0.89165400  0.86675500  0.84509400  1
  S  S15  1  0.45343900  0.47833900  0.84509400  1
  S  S16  1  0.17287900  0.94673900  0.70321900  1
  S  S17  1  0.69673900  0.49352000  0.27386100  1
  S  S18  1  0.21966000  0.42287900  0.72613900  1
  S  S19  1  0.07712100  0.28034000  0.27386100  1
  S  S20  1  0.00648000  0.80326100  0.72613900  1
  S  S21  1  0.03034000  0.25648000  0.70321900  1
  S  S22  1  0.55326100  0.32712100  0.29678100  1
  S  S23  1  0.24352000  0.46966000  0.29678100  1
  S  S24  1  0.57712100  0.30326100  0.79678100  1
  S  S25  1  0.05326100  0.75648000  0.22613900  1
  S  S26  1  0.53034000  0.82712100  0.77386100  1
  S  S27  1  0.67287900  0.96966000  0.22613900  1
  S  S28  1  0.74352000  0.44673900  0.77386100  1
  S  S29  1  0.71966000  0.99352000  0.79678100  1
  S  S30  1  0.19673900  0.92287900  0.20321900  1
  S  S31  1  0.50648000  0.78034000  0.20321900  1
  S  S32  1  0.99344800  0.82051500  0.39540800  1
  S  S33  1  0.57051500  0.67510700  0.32706800  1
  S  S34  1  0.34804000  0.24344800  0.67293200  1
  S  S35  1  0.25655200  0.15196000  0.32706800  1
  S  S36  1  0.82489300  0.92948500  0.67293200  1
  S  S37  1  0.90196000  0.07489300  0.39540800  1
  S  S38  1  0.67948500  0.50655200  0.60459200  1
  S  S39  1  0.42510700  0.59804000  0.60459200  1
  S  S40  1  0.75655200  0.42948500  0.10459200  1
  S  S41  1  0.17948500  0.57489300  0.17293200  1
  S  S42  1  0.40196000  0.00655200  0.82706800  1
  S  S43  1  0.49344800  0.09804000  0.17293200  1
  S  S44  1  0.92510700  0.32051500  0.82706800  1
  S  S45  1  0.84804000  0.17510700  0.10459200  1
  S  S46  1  0.07051500  0.74344800  0.89540800  1
  S  S47  1  0.32489300  0.65196000  0.89540800  1
  S  S48  1  0.05991100  0.70483900  0.52017100  1
  S  S49  1  0.45483900  0.43466800  0.14492800  1
  S  S50  1  0.28974000  0.30991100  0.85507200  1
  S  S51  1  0.19008900  0.21026000  0.14492800  1
  S  S52  1  0.06533200  0.04516100  0.85507200  1
  S  S53  1  0.96026000  0.31533200  0.52017100  1
  S  S54  1  0.79516100  0.44008900  0.47982900  1
  S  S55  1  0.18466800  0.53974000  0.47982900  1
  S  S56  1  0.69008900  0.54516100  0.97982900  1
  S  S57  1  0.29516100  0.81533200  0.35507200  1
  S  S58  1  0.46026000  0.94008900  0.64492800  1
  S  S59  1  0.55991100  0.03974000  0.35507200  1
  S  S60  1  0.68466800  0.20483900  0.64492800  1
  S  S61  1  0.78974000  0.93466800  0.97982900  1
  S  S62  1  0.95483900  0.80991100  0.02017100  1
  S  S63  1  0.56533200  0.71026000  0.02017100  1
  S  S64  1  0.92908800  0.87500000  0.55408800  1
  S  S65  1  0.62500000  0.57091200  0.44591200  1
  S  S66  1  0.12500000  0.17908800  0.55408800  1
  S  S67  1  0.32091200  0.37500000  0.44591200  1
  S  S68  1  0.82091200  0.37500000  0.94591200  1
  S  S69  1  0.12500000  0.67908800  0.05408800  1
  S  S70  1  0.62500000  0.07091200  0.94591200  1
  S  S71  1  0.42908800  0.87500000  0.05408800  1
loop_
_geom_bond_atom_site_label_1
_geom_bond_atom_site_label_2
_geom_bond_distance
_geom_bond_site_symmetry_2
Na0 S32 2.792462 1_555
Na0 S40 2.792462 1_555
Na0 S56 2.983552 1_554
Na0 S48 2.983552 1_655
Na0 S0 3.309173 1_655
Na0 S8 3.309173 1_555
Na1 S41 2.792454 1_555
Na1 S33 2.792454 1_555
Na1 S57 2.983552 1_555
Na1 S49 2.983552 1_555
Na1 S1 3.309178 1_555
Na1 S9 3.309178 1_555
Na2 S34 2.792475 1_555
Na2 S42 2.792475 1_555
Na2 S50 2.983552 1_555
Na2 S58 2.983552 1_545
Na2 S2 3.309173 1_555
Na2 S10 3.309173 1_545
Na3 S43 2.792475 1_555
Na3 S35 2.792475 1_555
Na3 S51 2.983552 1_555
Na3 S59 2.983552 1_555
Na3 S3 3.309173 1_545
Na3 S11 3.309173 1_555
Na4 S44 2.792454 1_555
Na4 S36 2.792454 1_545
Na4 S52 2.983552 1_655
Na4 S60 2.983552 1_555
Na4 S12 3.309178 1_555
Na4 S4 3.309178 1_555
Na5 S37 2.792462 1_555
Na5 S45 2.792462 1_555
Na5 S61 2.983552 1_544
Na5 S53 2.983552 1_555
Na5 S13 3.309174 1_655
Na5 S5 3.309174 1_555
Na6 S46 2.792462 1_655
Na6 S38 2.792462 1_555
Na6 S62 2.983552 1_556
Na6 S54 2.983552 1_555
Na6 S6 3.309173 1_555
Na6 S14 3.309173 1_555
Na7 S47 2.792462 1_555
Na7 S39 2.792462 1_555
Na7 S63 2.983552 1_556
Na7 S55 2.983552 1_555
Na7 S15 3.309174 1_555
Na7 S7 3.309174 1_555
Na8 S23 2.826139 1_555
Na8 S19 2.826153 1_555
Na8 S68 3.162876 1_454
Na8 S51 3.263384 1_555
Na8 S55 3.263384 1_555
Na8 S0 3.446365 1_555
Na8 S4 3.446368 1_454
Na9 S21 2.826139 1_555
Na9 S18 2.826153 1_555
Na9 S69 3.162876 1_556
Na9 S53 3.263384 1_455
Na9 S50 3.263384 1_555
Na9 S6 3.446365 1_455
Na9 S1 3.446368 1_556
Na10 S17 2.826133 1_555
Na10 S22 2.826139 1_555
Na10 S70 3.162876 1_554
Na10 S54 3.263384 1_555
Na10 S49 3.263384 1_555
Na10 S2 3.446365 1_554
Na10 S5 3.446379 1_555
Na11 S20 2.826133 1_555
Na11 S16 2.826139 1_555
Na11 S71 3.162876 1_556
Na11 S48 3.263384 1_555
Na11 S52 3.263384 1_565
Na11 S3 3.446365 1_556
Na11 S7 3.446379 1_555
Na12 S31 2.826139 1_555
Na12 S27 2.826153 1_555
Na12 S64 3.162876 1_555
Na12 S63 3.263384 1_555
Na12 S59 3.263384 1_565
Na12 S8 3.446365 1_555
Na12 S12 3.446368 1_565
Na13 S29 2.826139 1_555
Na13 S26 2.826153 1_555
Na13 S65 3.162876 1_555
Na13 S58 3.263384 1_555
Na13 S61 3.263384 1_555
Na13 S14 3.446365 1_555
Na13 S9 3.446368 1_555
Na14 S25 2.826133 1_555
Na14 S30 2.826139 1_555
Na14 S66 3.162876 1_565
Na14 S62 3.263384 1_455
Na14 S57 3.263384 1_555
Na14 S10 3.446365 1_555
Na14 S13 3.446379 1_565
Na15 S28 2.826133 1_555
Na15 S24 2.826139 1_555
Na15 S67 3.162876 1_555
Na15 S56 3.263384 1_555
Na15 S60 3.263384 1_555
Na15 S11 3.446365 1_555
Na15 S15 3.446379 1_555
Na16 S21 2.816604 1_555
Na16 S16 2.816614 1_545
Na16 S37 2.900834 1_455
Na16 S32 2.900843 1_445
Na17 S17 2.816602 1_555
Na17 S20 2.816602 1_655
Na17 S33 2.900844 1_555
Na17 S36 2.900844 1_555
Na18 S18 2.816591 1_555
Na18 S19 2.816591 1_555
Na18 S34 2.900834 1_555
Na18 S35 2.900834 1_555
Na19 S23 2.816604 1_555
Na19 S22 2.816614 1_555
Na19 S39 2.900834 1_555
Na19 S38 2.900843 1_555
Na20 S29 2.816604 1_545
Na20 S24 2.816614 1_555
Na20 S45 2.900834 1_556
Na20 S40 2.900843 1_556
Na21 S25 2.816602 1_655
Na21 S28 2.816602 1_554
Na21 S44 2.900844 1_554
Na21 S41 2.900844 1_655
Na22 S26 2.816591 1_554
Na22 S27 2.816591 1_555
Na22 S42 2.900834 1_564
Na22 S43 2.900834 1_565
Na23 S31 2.816604 1_555
Na23 S30 2.816614 1_555
Na23 S47 2.900834 1_554
Na23 S46 2.900843 1_554
B0 S25 1.899147 1_555
B0 S32 1.906011 1_455
B0 S10 1.942528 1_555
B0 S0 1.944560 1_555
B1 S31 1.899131 1_555
B1 S33 1.906027 1_555
B1 S8 1.942528 1_555
B1 S1 1.944554 1_555
B2 S24 1.899131 1_555
B2 S34 1.906012 1_555
B2 S15 1.942528 1_555
B2 S2 1.944560 1_555
B3 S30 1.899131 1_545
B3 S35 1.906012 1_555
B3 S13 1.942528 1_555
B3 S3 1.944560 1_545
B4 S29 1.899131 1_555
B4 S36 1.906027 1_555
B4 S14 1.942528 1_555
B4 S4 1.944554 1_565
B5 S27 1.899132 1_545
B5 S37 1.906011 1_555
B5 S12 1.942519 1_555
B5 S5 1.944544 1_555
B6 S28 1.899147 1_555
B6 S38 1.906011 1_555
B6 S11 1.942528 1_555
B6 S6 1.944560 1_555
B7 S26 1.899132 1_555
B7 S39 1.906011 1_555
B7 S9 1.942519 1_555
B7 S7 1.944544 1_555
B8 S17 1.899147 1_555
B8 S40 1.906011 1_555
B8 S2 1.942528 1_554
B8 S8 1.944560 1_555
B9 S23 1.899131 1_555
B9 S41 1.906027 1_555
B9 S0 1.942528 1_555
B9 S9 1.944554 1_555
B10 S16 1.899131 1_555
B10 S42 1.906012 1_565
B10 S7 1.942528 1_555
B10 S10 1.944560 1_555
B11 S22 1.899131 1_555
B11 S43 1.906012 1_555
B11 S5 1.942528 1_555
B11 S11 1.944560 1_555
B12 S21 1.899131 1_655
B12 S44 1.906027 1_555
B12 S6 1.942528 1_555
B12 S12 1.944554 1_555
B13 S19 1.899132 1_655
B13 S45 1.906011 1_555
B13 S4 1.942519 1_554
B13 S13 1.944544 1_655
B14 S20 1.899147 1_555
B14 S46 1.906011 1_555
B14 S3 1.942528 1_556
B14 S14 1.944560 1_455
B15 S18 1.899132 1_555
B15 S47 1.906011 1_555
B15 S1 1.942519 1_556
B15 S15 1.944544 1_555
B16 S55 1.885982 1_555
B16 S48 1.885982 1_555
B16 S0 1.946201 1_555
B16 S7 1.946210 1_555
B17 S50 1.885982 1_554
B17 S49 1.885982 1_555
B17 S2 1.946201 1_554
B17 S1 1.946217 1_555
B18 S52 1.885982 1_554
B18 S51 1.885982 1_555
B18 S3 1.946201 1_545
B18 S4 1.946217 1_454
B19 S53 1.885982 1_555
B19 S54 1.885982 1_555
B19 S6 1.946201 1_555
B19 S5 1.946210 1_555
B20 S56 1.885982 1_554
B20 S63 1.885982 1_555
B20 S8 1.946201 1_555
B20 S15 1.946210 1_554
B21 S57 1.885982 1_555
B21 S58 1.885982 1_555
B21 S10 1.946201 1_555
B21 S9 1.946217 1_555
B22 S60 1.885982 1_555
B22 S59 1.885982 1_555
B22 S11 1.946201 1_555
B22 S12 1.946217 1_555
B23 S62 1.885982 1_555
B23 S61 1.885982 1_554
B23 S14 1.946201 1_554
B23 S13 1.946210 1_665
B24 S48 1.915047 1_555
B24 S32 1.951788 1_455
B24 S16 1.952945 1_555
B24 S64 1.953045 1_455
B25 S49 1.915047 1_555
B25 S33 1.951783 1_555
B25 S17 1.952937 1_555
B25 S65 1.953045 1_555
B26 S50 1.915047 1_555
B26 S34 1.951798 1_555
B26 S18 1.952952 1_555
B26 S66 1.953045 1_555
B27 S51 1.915047 1_555
B27 S35 1.951798 1_555
B27 S19 1.952952 1_555
B27 S67 1.953045 1_555
B28 S52 1.915047 1_665
B28 S36 1.951783 1_555
B28 S20 1.952937 1_655
B28 S64 1.953045 1_555
B29 S53 1.915047 1_455
B29 S37 1.951788 1_455
B29 S21 1.952945 1_555
B29 S66 1.953045 1_555
B30 S54 1.915047 1_555
B30 S38 1.951788 1_555
B30 S22 1.952945 1_555
B30 S65 1.953045 1_555
B31 S55 1.915047 1_555
B31 S39 1.951788 1_555
B31 S23 1.952945 1_555
B31 S67 1.953045 1_555
B32 S56 1.915047 1_555
B32 S40 1.951788 1_556
B32 S24 1.952945 1_555
B32 S68 1.953045 1_555
B33 S57 1.915047 1_555
B33 S41 1.951783 1_555
B33 S25 1.952937 1_555
B33 S69 1.953045 1_555
B34 S58 1.915047 1_555
B34 S42 1.951798 1_565
B34 S26 1.952952 1_555
B34 S70 1.953045 1_565
B35 S59 1.915047 1_565
B35 S43 1.951798 1_565
B35 S27 1.952952 1_555
B35 S71 1.953045 1_555
B36 S60 1.915047 1_555
B36 S44 1.951783 1_555
B36 S28 1.952937 1_555
B36 S68 1.953045 1_555
B37 S61 1.915047 1_545
B37 S45 1.951788 1_556
B37 S29 1.952945 1_545
B37 S70 1.953045 1_555
B38 S62 1.915047 1_455
B38 S46 1.951788 1_554
B38 S30 1.952945 1_555
B38 S69 1.953045 1_555
B39 S63 1.915047 1_555
B39 S47 1.951788 1_554
B39 S31 1.952945 1_555
B39 S71 1.953045 1_555
