# generated using pymatgen
data_MgMn4(CuO4)2
_symmetry_space_group_name_H-M   'P 1'
_cell_length_a   6.16366429
_cell_length_b   6.06742740
_cell_length_c   6.16366431
_cell_angle_alpha   60.51516240
_cell_angle_beta   64.48594167
_cell_angle_gamma   60.51515577
_symmetry_Int_Tables_number   1
_chemical_formula_structural   MgMn4(CuO4)2
_chemical_formula_sum   'Mg1 Mn4 Cu2 O8'
_cell_volume   169.17560097
_cell_formula_units_Z   1
loop_
 _symmetry_equiv_pos_site_id
 _symmetry_equiv_pos_as_xyz
  1  'x, y, z'
loop_
 _atom_site_type_symbol
 _atom_site_label
 _atom_site_symmetry_multiplicity
 _atom_site_fract_x
 _atom_site_fract_y
 _atom_site_fract_z
 _atom_site_occupancy
  Mg  Mg0  1  0.45755235  0.04244765  0.45755235  1
  Mn  Mn0  1  0.06471802  0.93528198  0.06471802  1
  Mn  Mn1  1  0.13290463  0.36709537  0.13290463  1
  Mn  Mn2  1  0.13119705  0.63049633  0.60781029  1
  Mn  Mn3  1  0.60781029  0.63049633  0.13119705  1
  Cu  Cu0  1  0.68155630  0.09859607  0.68155630  1
  Cu  Cu1  1  0.68155630  0.53829133  0.68155630  1
  O  O0  1  0.31867709  0.44199001  0.31867709  1
  O  O1  1  0.40218305  0.39856522  0.80068550  1
  O  O2  1  0.31867709  0.92065582  0.31867709  1
  O  O3  1  0.44268658  0.85836977  0.84057488  1
  O  O4  1  0.80068550  0.39856522  0.40218305  1
  O  O5  1  0.84057488  0.85836977  0.44268658  1
  O  O6  1  0.92419394  0.35755346  0.92419394  1
  O  O7  1  0.92419394  0.79405866  0.92419394  1
loop_
_geom_bond_atom_site_label_1
_geom_bond_atom_site_label_2
_geom_bond_distance
_geom_bond_site_symmetry_2
Mg0 O0 1.971799 1_555
Mg0 O2 1.971799 1_545
Mg0 O5 2.036689 1_545
Mg0 O3 2.036689 1_545
Mn0 O6 2.083759 1_464
Mn0 O7 2.083759 1_454
Mn0 O3 2.084609 1_554
Mn0 O5 2.084609 1_455
Mn0 O0 2.597232 1_555
Mn0 O2 2.597232 1_555
Mn1 O4 1.995872 1_455
Mn1 O1 1.995872 1_554
Mn1 O7 2.210287 1_454
Mn1 O6 2.210288 1_454
Mn1 O2 2.232175 1_545
Mn1 O0 2.232176 1_555
Mn2 O5 1.975744 1_455
Mn2 O1 1.983272 1_555
Mn2 O0 2.179636 1_555
Mn2 O2 2.179636 1_555
Mn2 O7 2.220540 1_455
Mn2 O6 2.220541 1_455
Mn3 O3 1.975744 1_554
Mn3 O4 1.983272 1_555
Mn3 O2 2.179636 1_555
Mn3 O0 2.179636 1_555
Mn3 O6 2.220540 1_554
Mn3 O7 2.220541 1_554
Cu0 O1 1.989488 1_555
Cu0 O4 1.989488 1_555
Cu0 O7 2.091354 1_545
Cu0 O5 2.171603 1_545
Cu0 O3 2.171604 1_545
Cu1 O4 1.989493 1_555
Cu1 O1 1.989493 1_555
Cu1 O6 2.091354 1_555
Cu1 O3 2.171608 1_555
Cu1 O5 2.171608 1_555
