# generated using pymatgen
data_Ba(FeAs)2
_symmetry_space_group_name_H-M   'P 1'
_cell_length_a   5.60357148
_cell_length_b   7.21891450
_cell_length_c   5.85867786
_cell_angle_alpha   66.01278578
_cell_angle_beta   90.00037324
_cell_angle_gamma   89.99991222
_symmetry_Int_Tables_number   1
_chemical_formula_structural   Ba(FeAs)2
_chemical_formula_sum   'Ba2 Fe4 As4'
_cell_volume   216.52583989
_cell_formula_units_Z   2
loop_
 _symmetry_equiv_pos_site_id
 _symmetry_equiv_pos_as_xyz
  1  'x, y, z'
loop_
 _atom_site_type_symbol
 _atom_site_label
 _atom_site_symmetry_multiplicity
 _atom_site_fract_x
 _atom_site_fract_y
 _atom_site_fract_z
 _atom_site_occupancy
  Ba  Ba0  1  0.00000435  0.00000100  0.99999900  1
  Ba  Ba1  1  0.50001617  0.99999900  0.50000100  1
  Fe  Fe0  1  0.25003685  0.49999800  -0.00000000  1
  Fe  Fe1  1  0.74997798  0.50000300  0.99999900  1
  Fe  Fe2  1  0.75003752  0.49999700  0.49999900  1
  Fe  Fe3  1  0.24997635  0.50000100  0.50000100  1
  As  As0  1  0.49998872  0.70762568  0.14621212  1
  As  As1  1  0.99998217  0.70761348  0.64617660  1
  As  As2  1  -0.00001283  0.29238652  0.35382340  1
  As  As3  1  0.49999372  0.29237432  0.85378888  1
loop_
_geom_bond_atom_site_label_1
_geom_bond_atom_site_label_2
_geom_bond_distance
_geom_bond_site_symmetry_2
As0 Fe3 2.445306 1_555
As0 Fe2 2.445406 1_555
As0 Fe0 2.446625 1_555
As0 Fe1 2.446725 1_554
As0 Ba0 3.401176 1_564
As0 Ba0 3.401335 1_664
As0 Ba1 3.505870 1_554
As0 Ba1 3.508262 1_555
As1 Fe1 2.445370 1_555
As1 Fe0 2.445527 1_656
As1 Fe2 2.446420 1_555
As1 Fe3 2.446553 1_655
As1 Ba1 3.401130 1_555
As1 Ba1 3.401458 1_655
As1 Ba0 3.505723 1_664
As1 Ba0 3.508512 1_665
As2 Fe1 2.445386 1_454
As2 Fe0 2.445521 1_555
As2 Fe2 2.446400 1_455
As2 Fe3 2.446551 1_555
As2 Ba1 3.401175 1_445
As2 Ba1 3.401428 1_545
As2 Ba0 3.505711 1_555
As2 Ba0 3.508510 1_554
As3 Fe3 2.445304 1_555
As3 Fe2 2.445407 1_555
As3 Fe0 2.446619 1_556
As3 Fe1 2.446727 1_555
As3 Ba0 3.401206 1_555
As3 Ba0 3.401290 1_655
As3 Ba1 3.505877 1_546
As3 Ba1 3.508269 1_545
