# generated using pymatgen
data_NaMnSb
_symmetry_space_group_name_H-M   'P 1'
_cell_length_a   4.42757500
_cell_length_b   4.42757500
_cell_length_c   7.49278600
_cell_angle_alpha   90.00000000
_cell_angle_beta   90.00000000
_cell_angle_gamma   90.00000000
_symmetry_Int_Tables_number   1
_chemical_formula_structural   NaMnSb
_chemical_formula_sum   'Na2 Mn2 Sb2'
_cell_volume   146.88423378
_cell_formula_units_Z   2
loop_
 _symmetry_equiv_pos_site_id
 _symmetry_equiv_pos_as_xyz
  1  'x, y, z'
loop_
 _atom_site_type_symbol
 _atom_site_label
 _atom_site_symmetry_multiplicity
 _atom_site_fract_x
 _atom_site_fract_y
 _atom_site_fract_z
 _atom_site_occupancy
  Na  Na0  1  0.50000000  0.00000000  0.65136600  1
  Na  Na1  1  0.00000000  0.50000000  0.34863400  1
  Mn  Mn0  1  0.50000000  0.50000000  0.00000000  1
  Mn  Mn1  1  0.00000000  0.00000000  0.00000000  1
  Sb  Sb0  1  0.50000000  0.00000000  0.21737300  1
  Sb  Sb1  1  0.00000000  0.50000000  0.78262700  1
loop_
_geom_bond_atom_site_label_1
_geom_bond_atom_site_label_2
_geom_bond_distance
_geom_bond_site_symmetry_2
Na0 Sb0 3.251817 1_555
Na0 Sb1 3.281616 1_645
Na0 Sb1 3.281616 1_655
Na0 Sb1 3.281616 1_555
Na0 Sb1 3.281616 1_545
Na1 Sb1 3.251817 1_555
Na1 Sb0 3.281616 1_555
Na1 Sb0 3.281616 1_565
Na1 Sb0 3.281616 1_465
Na1 Sb0 3.281616 1_455
Mn0 Sb1 2.748384 1_554
Mn0 Sb0 2.748384 1_565
Mn0 Sb1 2.748384 1_654
Mn0 Sb0 2.748384 1_555
Mn0 Na1 3.424128 1_655
Mn0 Na0 3.424128 1_554
Mn0 Na0 3.424128 1_564
Mn0 Na1 3.424128 1_555
Mn1 Sb1 2.748384 1_554
Mn1 Sb1 2.748384 1_544
Mn1 Sb0 2.748384 1_455
Mn1 Sb0 2.748384 1_555
Mn1 Na0 3.424128 1_454
Mn1 Na0 3.424128 1_554
Mn1 Na1 3.424128 1_545
Mn1 Na1 3.424128 1_555
