# generated using pymatgen
data_MgMnV5O12
_symmetry_space_group_name_H-M   'P 1'
_cell_length_a   6.95483003
_cell_length_b   6.95498382
_cell_length_c   5.83158567
_cell_angle_alpha   73.25717965
_cell_angle_beta   106.74221228
_cell_angle_gamma   100.15288950
_symmetry_Int_Tables_number   1
_chemical_formula_structural   MgMnV5O12
_chemical_formula_sum   'Mg1 Mn1 V5 O12'
_cell_volume   257.32776768
_cell_formula_units_Z   1
loop_
 _symmetry_equiv_pos_site_id
 _symmetry_equiv_pos_as_xyz
  1  'x, y, z'
loop_
 _atom_site_type_symbol
 _atom_site_label
 _atom_site_symmetry_multiplicity
 _atom_site_fract_x
 _atom_site_fract_y
 _atom_site_fract_z
 _atom_site_occupancy
  Mg  Mg0  1  0.71816100  0.71816400  0.74998900  1
  Mn  Mn0  1  0.91868700  0.91868400  0.25000000  1
  V  V0  1  0.07983000  0.07983600  0.74999200  1
  V  V1  1  0.18566700  0.60712600  0.75743300  1
  V  V2  1  0.38281600  0.80132500  0.25889000  1
  V  V3  1  0.60712100  0.18566000  0.74258000  1
  V  V4  1  0.80134100  0.38283300  0.24111500  1
  O  O0  1  0.99454500  0.78826700  0.66159300  1
  O  O1  1  0.09637600  0.35944300  0.78280900  1
  O  O2  1  0.19605400  0.96597700  0.13576100  1
  O  O3  1  0.40384200  0.68552800  0.58695400  1
  O  O4  1  0.35943300  0.09636600  0.71718700  1
  O  O5  1  0.34796200  0.63575800  0.07253200  1
  O  O6  1  0.68550700  0.40385600  0.91303300  1
  O  O7  1  0.62233300  0.92322000  0.27879100  1
  O  O8  1  0.63577200  0.34797600  0.42747800  1
  O  O9  1  0.78827100  0.99455500  0.83840400  1
  O  O10  1  0.92326400  0.62233700  0.22122100  1
  O  O11  1  0.96598000  0.19604900  0.36423700  1
loop_
_geom_bond_atom_site_label_1
_geom_bond_atom_site_label_2
_geom_bond_distance
_geom_bond_site_symmetry_2
Mg0 O0 2.072190 1_555
Mg0 O9 2.072334 1_555
Mg0 O6 2.118042 1_555
Mg0 O3 2.118061 1_555
Mg0 O7 2.655342 1_555
Mg0 O10 2.655594 1_556
Mn0 O7 2.121940 1_555
Mn0 O10 2.121973 1_555
Mn0 O2 2.159549 1_655
Mn0 O11 2.159578 1_565
Mn0 O0 2.246555 1_555
Mn0 O9 2.246571 1_554
O0 V1 1.850153 1_655
O0 V0 2.175282 1_665
O1 V1 1.704092 1_555
O1 V0 1.988571 1_555
O2 V2 1.739943 1_555
O2 V0 2.119666 1_564
O3 V2 1.822827 1_555
O3 V1 1.962951 1_555
O4 V3 1.704089 1_555
O4 V0 1.988489 1_555
O5 V2 1.742593 1_555
O5 V1 1.904426 1_554
O6 V4 1.822968 1_556
O6 V3 1.963020 1_555
O7 V2 1.718869 1_555
O8 V4 1.742593 1_555
O8 V3 1.904513 1_555
O9 V3 1.850121 1_565
O9 V0 2.175199 1_665
O10 V4 1.718884 1_555
O11 V4 1.739999 1_555
O11 V0 2.119577 1_655
