# generated using pymatgen
data_Na18Ta8Zn4Si15(SO24)3
_symmetry_space_group_name_H-M   'P 1'
_cell_length_a   9.09271421
_cell_length_b   9.08190715
_cell_length_c   22.39722190
_cell_angle_alpha   90.00813526
_cell_angle_beta   90.03461216
_cell_angle_gamma   120.16474601
_symmetry_Int_Tables_number   1
_chemical_formula_structural   Na18Ta8Zn4Si15(SO24)3
_chemical_formula_sum   'Na18 Ta8 Zn4 Si15 S3 O72'
_cell_volume   1599.08622459
_cell_formula_units_Z   1
loop_
 _symmetry_equiv_pos_site_id
 _symmetry_equiv_pos_as_xyz
  1  'x, y, z'
loop_
 _atom_site_type_symbol
 _atom_site_label
 _atom_site_symmetry_multiplicity
 _atom_site_fract_x
 _atom_site_fract_y
 _atom_site_fract_z
 _atom_site_occupancy
  Na  Na0  1  0.65009258  0.62981602  0.74589858  1
  Na  Na1  1  0.97596641  0.36116985  0.74676932  1
  Na  Na2  1  0.02614847  0.68669232  0.58678382  1
  Na  Na3  1  0.65931358  0.97719177  0.58742646  1
  Na  Na4  1  0.32098478  0.97564244  0.08774107  1
  Na  Na5  1  0.66230977  0.68693896  0.08697019  1
  Na  Na6  1  0.96473201  0.68440471  0.90952442  1
  Na  Na7  1  0.71904001  0.03506852  0.91010165  1
  Na  Na8  1  0.31832933  0.28643021  0.91359749  1
  Na  Na9  1  0.96683268  0.28616137  0.41303206  1
  Na  Na10  1  0.31676283  0.03450270  0.40914948  1
  Na  Na11  1  0.71400172  0.68126719  0.41275636  1
  Na  Na12  1  0.01000800  0.01006008  0.49399764  1
  Na  Na13  1  0.99796254  0.00723816  0.99254393  1
  Na  Na14  1  0.66818969  0.32477012  0.82335400  1
  Na  Na15  1  0.65510919  0.32451192  0.32096109  1
  Na  Na16  1  0.32379054  0.65967442  0.16777072  1
  Na  Na17  1  0.33391421  0.67114817  0.66628028  1
  Ta  Ta0  1  0.99407128  0.98906855  0.64522359  1
  Ta  Ta1  1  0.00917854  0.00073292  0.14531430  1
  Ta  Ta2  1  0.66972753  0.33347169  0.98086421  1
  Ta  Ta3  1  0.66375501  0.33055303  0.48030844  1
  Ta  Ta4  1  0.32790875  0.66313055  0.02080758  1
  Ta  Ta5  1  0.33512842  0.66503112  0.52004995  1
  Ta  Ta6  1  0.33126128  0.67406145  0.31259095  1
  Ta  Ta7  1  0.33610471  0.68014322  0.81304995  1
  Zn  Zn0  1  0.01337266  0.00296181  0.35319759  1
  Zn  Zn1  1  0.98375760  0.98787065  0.85220588  1
  Zn  Zn2  1  0.67461863  0.32835700  0.68039152  1
  Zn  Zn3  1  0.64954348  0.31769181  0.17933384  1
  Si  Si0  1  0.30195839  0.00888664  0.25370595  1
  Si  Si1  1  0.99944334  0.70554149  0.75337558  1
  Si  Si2  1  0.70690745  0.00359353  0.75275885  1
  Si  Si3  1  0.96255940  0.33394783  0.58485663  1
  Si  Si4  1  0.37549539  0.04484649  0.58482977  1
  Si  Si5  1  0.65893037  0.61679531  0.58670540  1
  Si  Si6  1  0.95447135  0.61491329  0.08810206  1
  Si  Si7  1  0.66923383  0.04239088  0.08471671  1
  Si  Si8  1  0.37839614  0.33757426  0.08466757  1
  Si  Si9  1  0.61925066  0.66151523  0.91714211  1
  Si  Si10  1  0.04229725  0.37705786  0.91524391  1
  Si  Si11  1  0.33590352  0.96347815  0.91850822  1
  Si  Si12  1  0.62528561  0.95932039  0.41623993  1
  Si  Si13  1  0.33669906  0.38015564  0.41476315  1
  Si  Si14  1  0.04011844  0.66289495  0.41732755  1
  S  S0  1  0.70707607  0.71071022  0.25183114  1
  S  S1  1  0.00300898  0.29081364  0.25195980  1
  S  S2  1  0.28831086  0.28986436  0.75156389  1
  O  O0  1  0.21096997  0.01928512  0.31352032  1
  O  O1  1  0.80160957  0.79371946  0.30616788  1
  O  O2  1  0.98254997  0.19617481  0.30713806  1
  O  O3  1  0.21338810  0.19678610  0.80705360  1
  O  O4  1  0.97622752  0.79089340  0.81254643  1
  O  O5  1  0.81966042  0.03540927  0.81193289  1
  O  O6  1  0.80739841  0.97234264  0.69331408  1
  O  O7  1  0.17553033  0.20099108  0.69837732  1
  O  O8  1  0.02760882  0.83012814  0.69269440  1
  O  O9  1  0.79286686  0.82016187  0.19681857  1
  O  O10  1  0.02113451  0.19671865  0.19870880  1
  O  O11  1  0.17020487  0.98015725  0.19407128  1
  O  O12  1  0.90125463  0.38894414  0.64306803  1
  O  O13  1  0.50336857  0.11608462  0.63914884  1
  O  O14  1  0.63036098  0.51609943  0.64700998  1
  O  O15  1  0.87171035  0.50366145  0.14484420  1
  O  O16  1  0.60654117  0.10721558  0.13885937  1
  O  O17  1  0.50185524  0.39331475  0.13999473  1
  O  O18  1  0.46226886  0.29485591  0.02461165  1
  O  O19  1  0.83302940  0.53443483  0.02623951  1
  O  O20  1  0.69950355  0.16337909  0.02386745  1
  O  O21  1  0.46635259  0.16235469  0.52349744  1
  O  O22  1  0.69799138  0.52987547  0.52705607  1
  O  O23  1  0.83310231  0.29880343  0.52596292  1
  O  O24  1  0.51796701  0.68263780  0.97392211  1
  O  O25  1  0.16474916  0.48171255  0.97176595  1
  O  O26  1  0.31254153  0.84101446  0.97534705  1
  O  O27  1  0.53103740  0.84148941  0.47492191  1
  O  O28  1  0.31683110  0.48304118  0.47189959  1
  O  O29  1  0.16380586  0.68918213  0.47442360  1
  O  O30  1  0.13749842  0.62873751  0.36026431  1
  O  O31  1  0.49184063  0.86155659  0.35978333  1
  O  O32  1  0.37121476  0.50845660  0.35775730  1
  O  O33  1  0.13533229  0.50245285  0.85669545  1
  O  O34  1  0.37019372  0.86619466  0.86058838  1
  O  O35  1  0.49453294  0.62852693  0.85811531  1
  O  O36  1  0.01553168  0.82557767  0.41615651  1
  O  O37  1  0.80999488  0.97900089  0.41128175  1
  O  O38  1  0.16809323  0.19581126  0.41578253  1
  O  O39  1  0.02641177  0.19357752  0.91497698  1
  O  O40  1  0.17231594  0.98476593  0.91546769  1
  O  O41  1  0.80477923  0.82825222  0.91872318  1
  O  O42  1  0.97263421  0.15790973  0.59037887  1
  O  O43  1  0.18187176  0.01822408  0.58977569  1
  O  O44  1  0.83789638  0.81178965  0.58918630  1
  O  O45  1  0.97260467  0.81159372  0.09300151  1
  O  O46  1  0.83378109  0.01269011  0.09293712  1
  O  O47  1  0.18741054  0.16065417  0.09160277  1
  O  O48  1  0.68377464  0.16569529  0.74547392  1
  O  O49  1  0.46068455  0.31985439  0.74480739  1
  O  O50  1  0.83265395  0.51895480  0.74741360  1
  O  O51  1  0.68824923  0.54165742  0.24577278  1
  O  O52  1  0.85908726  0.31872187  0.24438039  1
  O  O53  1  0.48891461  0.16912643  0.24662614  1
  O  O54  1  0.62993894  0.48540475  0.92310205  1
  O  O55  1  0.85710571  0.36909095  0.92252691  1
  O  O56  1  0.51513072  0.14665980  0.92205647  1
  O  O57  1  0.63319508  0.14450153  0.42196400  1
  O  O58  1  0.51233370  0.36898829  0.42284653  1
  O  O59  1  0.85544980  0.48476898  0.42269482  1
  O  O60  1  0.34833882  0.49894240  0.07288998  1
  O  O61  1  0.15287643  0.66304354  0.07598169  1
  O  O62  1  0.50550165  0.84729954  0.07229203  1
  O  O63  1  0.34443233  0.84954172  0.57343614  1
  O  O64  1  0.50743891  0.66263213  0.57547051  1
  O  O65  1  0.15097896  0.50122235  0.57220122  1
  O  O66  1  0.30486774  0.82034068  0.25543398  1
  O  O67  1  0.53318841  0.69788503  0.25315937  1
  O  O68  1  0.16891402  0.46148321  0.25324545  1
  O  O69  1  0.29556012  0.46214745  0.75231986  1
  O  O70  1  0.17476239  0.68565247  0.75471469  1
  O  O71  1  0.52336711  0.81301532  0.75497053  1
loop_
_geom_bond_atom_site_label_1
_geom_bond_atom_site_label_2
_geom_bond_distance
_geom_bond_site_symmetry_2
Na0 O50 2.334516 1_555
Na0 O14 2.411829 1_555
Na0 O49 2.453323 1_555
Na0 O71 2.462548 1_555
Na0 O69 2.792636 1_555
Na1 O48 2.339009 1_555
Na1 O50 2.372418 1_555
Na1 O12 2.467824 1_555
Na1 O69 2.573412 1_655
Na1 O70 2.574787 1_655
Na1 O33 2.816744 1_655
Na2 O65 2.480723 1_555
Na2 O44 2.485591 1_455
Na2 O63 2.520311 1_555
Na2 O43 2.605847 1_565
Na2 O12 2.666009 1_455
Na2 O8 2.702906 1_555
Na2 O29 2.806359 1_555
Na2 O22 2.906042 1_455
Na3 O42 2.472887 1_565
Na3 O64 2.484884 1_555
Na3 O63 2.510522 1_555
Na3 O13 2.596703 1_565
Na3 O44 2.710367 1_555
Na3 O6 2.737733 1_555
Na3 O27 2.789194 1_555
Na3 O23 2.879015 1_565
Na4 O61 2.470604 1_555
Na4 O62 2.501826 1_555
Na4 O47 2.521288 1_565
Na4 O16 2.521579 1_565
Na4 O45 2.743278 1_455
Na4 O11 2.759217 1_555
Na4 O26 2.782492 1_554
Na4 O18 2.883511 1_565
Na5 O45 2.459633 1_555
Na5 O60 2.502986 1_555
Na5 O62 2.519620 1_555
Na5 O46 2.562267 1_565
Na5 O17 2.596758 1_555
Na5 O9 2.734663 1_555
Na5 O24 2.842423 1_554
Na5 O19 2.888043 1_555
Na6 O4 2.358659 1_555
Na6 O41 2.402964 1_555
Na6 O40 2.417997 1_655
Na6 O55 2.535195 1_555
Na6 O54 2.664204 1_555
Na6 O19 2.913464 1_556
Na7 O41 2.375826 1_545
Na7 O5 2.381381 1_555
Na7 O39 2.419014 1_655
Na7 O56 2.534830 1_555
Na7 O55 2.651042 1_555
Na7 O20 2.844244 1_556
Na7 O34 2.957969 1_545
Na8 O39 2.346942 1_555
Na8 O40 2.369588 1_545
Na8 O54 2.488456 1_555
Na8 O3 2.546305 1_555
Na8 O56 2.670553 1_555
Na8 O18 2.792205 1_556
Na9 O38 2.352654 1_655
Na9 O37 2.412267 1_545
Na9 O59 2.482343 1_555
Na9 O2 2.535876 1_555
Na9 O57 2.641366 1_555
Na9 O23 2.834300 1_555
Na9 O30 2.938691 1_655
Na10 O0 2.322861 1_555
Na10 O36 2.429961 1_545
Na10 O38 2.446646 1_555
Na10 O57 2.543439 1_555
Na10 O58 2.656052 1_555
Na10 O21 2.857477 1_555
Na10 O31 2.956057 1_545
Na11 O36 2.372565 1_655
Na11 O37 2.388026 1_555
Na11 O58 2.496237 1_555
Na11 O1 2.561661 1_555
Na11 O59 2.682324 1_555
Na11 O22 2.874976 1_555
Na11 O32 2.962114 1_555
Na11 O27 3.042821 1_555
Na12 O38 2.355376 1_555
Na12 O36 2.435783 1_545
Na12 O37 2.509875 1_445
Na12 O43 2.632249 1_555
Na12 O42 2.652732 1_455
Na12 O44 2.722114 1_445
Na13 O39 2.347432 1_655
Na13 O41 2.363832 1_545
Na13 O40 2.421453 1_645
Na13 O46 2.713901 1_556
Na13 O47 2.722770 1_656
Na13 O45 2.804046 1_546
Na14 O48 2.314120 1_555
Na14 O50 2.364929 1_555
Na14 O49 2.562838 1_555
Na14 O56 2.680072 1_555
Na14 O55 2.710480 1_555
Na14 O54 2.783938 1_555
Na15 O53 2.213616 1_555
Na15 O51 2.494031 1_555
Na15 O52 2.546852 1_555
Na15 O57 2.739360 1_555
Na15 O58 2.754295 1_555
Na15 O59 2.821000 1_555
Na16 O66 2.503126 1_555
Na16 O68 2.518879 1_555
Na16 O61 2.585811 1_555
Na16 O67 2.595101 1_555
Na16 O60 2.650236 1_555
Na16 O62 2.717056 1_555
Na17 O70 2.495915 1_555
Na17 O71 2.517534 1_555
Na17 O64 2.599737 1_555
Na17 O69 2.602809 1_555
Na17 O63 2.608378 1_555
Na17 O65 2.646397 1_555
O0 Si0 1.602483 1_555
O0 Zn0 1.942704 1_555
O1 S0 1.461335 1_555
O1 Zn0 2.178988 1_665
O2 S1 1.463059 1_655
O2 Zn0 2.171699 1_655
O3 S2 1.464871 1_555
O3 Zn1 2.236966 1_445
O4 Si1 1.601950 1_555
O4 Zn1 1.967319 1_555
O5 Si2 1.609856 1_555
O5 Zn1 1.967797 1_545
O6 Si2 1.717577 1_565
O6 Ta0 1.951252 1_555
O7 S2 1.512793 1_555
O7 Ta0 2.156275 1_445
O8 Si1 1.703705 1_455
O8 Ta0 1.936357 1_455
O9 S0 1.528720 1_555
O9 Ta1 2.156457 1_665
O10 S1 1.523614 1_555
O10 Ta1 2.101160 1_555
O11 Si0 1.723680 1_565
O11 Ta1 1.909006 1_565
O12 Si3 1.593901 1_555
O12 Zn2 2.027526 1_555
O13 Si4 1.578818 1_555
O13 Zn2 1.993840 1_555
O14 Si5 1.578008 1_555
O14 Zn2 2.077913 1_555
O15 Si6 1.561941 1_555
O15 Zn3 2.025713 1_555
O16 Si7 1.574793 1_555
O16 Zn3 1.968890 1_555
O17 Si8 1.574495 1_555
O17 Zn3 1.994237 1_555
O18 Si8 1.685175 1_555
O18 Ta2 1.994715 1_554
O19 Si6 1.691171 1_555
O19 Ta2 1.960314 1_554
O20 Si7 1.684470 1_555
O20 Ta2 1.951331 1_554
O21 Si4 1.680519 1_555
O21 Ta3 1.933367 1_555
O22 Si5 1.678147 1_555
O22 Ta3 1.975554 1_555
O23 Si3 1.687546 1_555
O23 Ta3 1.985996 1_555
O24 Si9 1.637402 1_555
O24 Ta4 1.953241 1_556
O25 Si10 1.637103 1_555
O25 Ta4 1.913921 1_556
O26 Si11 1.632797 1_555
O26 Ta4 1.973148 1_556
O27 Si12 1.639245 1_555
O27 Ta5 1.974014 1_555
O28 Si13 1.647101 1_555
O28 Ta5 1.909300 1_555
O29 Si14 1.638748 1_555
O29 Ta5 1.964845 1_555
O30 Si14 1.670624 1_555
O30 Ta6 1.920194 1_555
O31 Si12 1.665724 1_555
O31 Ta6 1.909881 1_555
O32 Si13 1.649172 1_555
O32 Ta6 1.991593 1_555
O33 Si10 1.663039 1_555
O33 Ta7 1.983538 1_555
O34 Si11 1.684538 1_555
O34 Ta7 1.886149 1_555
O35 Si9 1.667388 1_555
O35 Ta7 1.997675 1_555
O36 Si14 1.601728 1_555
O36 Zn0 2.148593 1_565
O37 Si12 1.601117 1_555
O37 Zn0 2.181300 1_665
O38 Si13 1.604495 1_555
O38 Zn0 2.128906 1_555
O39 Si10 1.598666 1_555
O39 Zn1 2.210792 1_445
O40 Si11 1.594812 1_555
O40 Zn1 2.234628 1_455
O41 Si9 1.603999 1_555
O41 Zn1 2.145240 1_555
O42 Si3 1.651350 1_555
O42 Ta0 2.049104 1_545
O43 Si4 1.656131 1_555
O43 Ta0 2.019054 1_445
O44 Si5 1.700305 1_555
O44 Ta0 1.970670 1_555
O45 Si6 1.712833 1_555
O45 Ta1 1.964408 1_665
O46 Si7 1.658459 1_555
O46 Ta1 2.025661 1_655
O47 Si8 1.678622 1_555
O47 Ta1 1.954580 1_555
O48 Si2 1.596699 1_555
O48 Zn2 2.106688 1_555
O49 S2 1.457715 1_555
O49 Zn2 2.392463 1_555
O50 Si1 1.614415 1_555
O50 Zn2 2.193499 1_555
O51 S0 1.463116 1_555
O51 Zn3 2.398861 1_555
O52 S1 1.462422 1_655
O52 Zn3 2.394058 1_555
O53 Si0 1.595924 1_555
O53 Zn3 2.061070 1_555
O54 Si9 1.655797 1_555
O54 Ta2 2.051872 1_555
O55 Si10 1.656874 1_655
O55 Ta2 2.040489 1_555
O56 Si11 1.644674 1_545
O56 Ta2 2.046863 1_555
O57 Si12 1.651795 1_545
O57 Ta3 2.041320 1_555
O58 Si13 1.660087 1_555
O58 Ta3 2.038339 1_555
O59 Si14 1.649663 1_655
O59 Ta3 2.052970 1_555
O60 Si8 1.641525 1_555
O60 Ta4 1.974170 1_555
O61 Si6 1.651500 1_455
O61 Ta4 2.015221 1_555
O62 Si7 1.667808 1_565
O62 Ta4 2.004417 1_555
O63 Si4 1.669537 1_565
O63 Ta5 2.025266 1_555
O64 Si5 1.646182 1_555
O64 Ta5 2.006975 1_555
O65 Si3 1.645745 1_455
O65 Ta5 1.969944 1_555
O66 Si0 1.726240 1_565
O66 Ta6 1.944689 1_555
O67 S0 1.526218 1_555
O67 Ta6 2.189425 1_555
O68 S1 1.526130 1_555
O68 Ta6 2.192229 1_555
O69 S2 1.532688 1_555
O69 Ta7 2.273941 1_555
O70 Si1 1.692362 1_455
O70 Ta7 1.983241 1_555
O71 Si2 1.697221 1_565
O71 Ta7 1.996437 1_555
