# generated using pymatgen
data_FeMo3S4
_symmetry_space_group_name_H-M   'P 1'
_cell_length_a   6.49100000
_cell_length_b   6.51368238
_cell_length_c   6.52809002
_cell_angle_alpha   97.38980490
_cell_angle_beta   91.30438992
_cell_angle_gamma   95.91651081
_symmetry_Int_Tables_number   1
_chemical_formula_structural   FeMo3S4
_chemical_formula_sum   'Fe2 Mo6 S8'
_cell_volume   272.07751809
_cell_formula_units_Z   2
loop_
 _symmetry_equiv_pos_site_id
 _symmetry_equiv_pos_as_xyz
  1  'x, y, z'
loop_
 _atom_site_type_symbol
 _atom_site_label
 _atom_site_symmetry_multiplicity
 _atom_site_fract_x
 _atom_site_fract_y
 _atom_site_fract_z
 _atom_site_occupancy
  Fe  Fe0  1  0.99710200  0.14767600  0.90515100  1
  Fe  Fe1  1  0.00289800  0.85232400  0.09484900  1
  Mo  Mo0  1  0.77943700  0.59046500  0.45012600  1
  Mo  Mo1  1  0.22056300  0.40953500  0.54987400  1
  Mo  Mo2  1  0.45724500  0.78159000  0.59806100  1
  Mo  Mo3  1  0.54275500  0.21841000  0.40193900  1
  Mo  Mo4  1  0.58368600  0.46299200  0.77732100  1
  Mo  Mo5  1  0.41631400  0.53700800  0.22267900  1
  S  S0  1  0.73553600  0.35995800  0.12052000  1
  S  S1  1  0.26446400  0.64004200  0.87948000  1
  S  S2  1  0.79647900  0.81332900  0.78569100  1
  S  S3  1  0.20352100  0.18667100  0.21430900  1
  S  S4  1  0.64157800  0.86002200  0.26891100  1
  S  S5  1  0.35842200  0.13997800  0.73108900  1
  S  S6  1  0.14437000  0.72346800  0.38529400  1
  S  S7  1  0.85563000  0.27653200  0.61470600  1
loop_
_geom_bond_atom_site_label_1
_geom_bond_atom_site_label_2
_geom_bond_distance
_geom_bond_site_symmetry_2
Fe0 S3 2.368078 1_656
Fe0 S7 2.373129 1_555
Fe0 S2 2.445228 1_545
Fe0 S0 2.619893 1_556
Fe0 S5 2.631569 1_655
Fe1 S2 2.368078 1_454
Fe1 S6 2.373129 1_555
Fe1 S3 2.445228 1_565
Fe1 S1 2.619893 1_554
Fe1 S4 2.631569 1_455
Mo0 S0 2.453199 1_555
Mo0 S2 2.460921 1_555
Mo0 S4 2.468419 1_555
Mo0 S6 2.501535 1_655
Mo0 S7 2.515913 1_555
Mo1 S1 2.453199 1_555
Mo1 S3 2.460921 1_555
Mo1 S5 2.468419 1_555
Mo1 S7 2.501535 1_455
Mo1 S6 2.515913 1_555
Mo2 S6 2.403078 1_555
Mo2 S1 2.468503 1_555
Mo2 S2 2.471824 1_555
Mo2 S5 2.535300 1_565
Mo2 S4 2.565743 1_555
Mo3 S7 2.403078 1_555
Mo3 S0 2.468503 1_555
Mo3 S3 2.471824 1_555
Mo3 S4 2.535300 1_545
Mo3 S5 2.565743 1_555
Mo4 S5 2.416251 1_555
Mo4 S7 2.431780 1_555
Mo4 S1 2.534940 1_555
Mo4 S2 2.536325 1_555
Mo4 S0 2.619944 1_556
Mo5 S4 2.416251 1_555
Mo5 S6 2.431780 1_555
Mo5 S0 2.534940 1_555
Mo5 S3 2.536325 1_555
Mo5 S1 2.619944 1_554
