# generated using pymatgen
data_K3BrO
_symmetry_space_group_name_H-M   'P 1'
_cell_length_a   5.19026401
_cell_length_b   5.19026401
_cell_length_c   5.19026401
_cell_angle_alpha   90.00000000
_cell_angle_beta   90.00000000
_cell_angle_gamma   90.00000000
_symmetry_Int_Tables_number   1
_chemical_formula_structural   K3BrO
_chemical_formula_sum   'K3 Br1 O1'
_cell_volume   139.81969428
_cell_formula_units_Z   1
loop_
 _symmetry_equiv_pos_site_id
 _symmetry_equiv_pos_as_xyz
  1  'x, y, z'
loop_
 _atom_site_type_symbol
 _atom_site_label
 _atom_site_symmetry_multiplicity
 _atom_site_fract_x
 _atom_site_fract_y
 _atom_site_fract_z
 _atom_site_occupancy
  K  K0  1  -0.00000000  0.00000000  0.50000000  1
  K  K1  1  -0.00000000  0.50000000  -0.00000000  1
  K  K2  1  0.50000000  -0.00000000  -0.00000000  1
  Br  Br0  1  0.50000000  0.50000000  0.50000000  1
  O  O0  1  0.00000000  -0.00000000  0.00000000  1
loop_
_geom_bond_atom_site_label_1
_geom_bond_atom_site_label_2
_geom_bond_distance
_geom_bond_site_symmetry_2
K0 O0 2.595132 1_555
K0 O0 2.595132 1_556
K1 O0 2.595132 1_565
K1 O0 2.595132 1_555
K2 O0 2.595132 1_555
K2 O0 2.595132 1_655
Br0 K0 3.670071 1_665
Br0 K1 3.670071 1_655
Br0 K1 3.670071 1_556
Br0 K1 3.670071 1_656
Br0 K2 3.670071 1_555
Br0 K2 3.670071 1_565
Br0 K2 3.670071 1_566
Br0 K0 3.670071 1_555
Br0 K1 3.670071 1_555
Br0 K0 3.670071 1_565
Br0 K0 3.670071 1_655
Br0 K2 3.670071 1_556
