# generated using pymatgen
data_Na2Ta3GaSi2(PO6)4
_symmetry_space_group_name_H-M   'P 1'
_cell_length_a   8.74097970
_cell_length_b   8.75149430
_cell_length_c   22.67443585
_cell_angle_alpha   90.04805189
_cell_angle_beta   89.93860964
_cell_angle_gamma   119.95488522
_symmetry_Int_Tables_number   1
_chemical_formula_structural   Na2Ta3GaSi2(PO6)4
_chemical_formula_sum   'Na6 Ta9 Ga3 Si6 P12 O72'
_cell_volume   1502.81812977
_cell_formula_units_Z   3
loop_
 _symmetry_equiv_pos_site_id
 _symmetry_equiv_pos_as_xyz
  1  'x, y, z'
loop_
 _atom_site_type_symbol
 _atom_site_label
 _atom_site_symmetry_multiplicity
 _atom_site_fract_x
 _atom_site_fract_y
 _atom_site_fract_z
 _atom_site_occupancy
  Na  Na0  1  0.99792462  0.00037339  0.49436520  1
  Na  Na1  1  0.00100203  0.00066543  0.00059254  1
  Na  Na2  1  0.66765696  0.33354559  0.83156543  1
  Na  Na3  1  0.66621045  0.33297980  0.32786395  1
  Na  Na4  1  0.33346003  0.66451766  0.16546054  1
  Na  Na5  1  0.33072624  0.66476346  0.66675014  1
  Ta  Ta0  1  0.00064396  0.00012016  0.85593145  1
  Ta  Ta1  1  0.99944072  0.00184852  0.64470291  1
  Ta  Ta2  1  0.00212707  0.00240347  0.14622737  1
  Ta  Ta3  1  0.66202692  0.33171124  0.97831469  1
  Ta  Ta4  1  0.66970237  0.32953088  0.47754425  1
  Ta  Ta5  1  0.33341968  0.66375601  0.02167821  1
  Ta  Ta6  1  0.33516073  0.66684586  0.51995016  1
  Ta  Ta7  1  0.33643678  0.67066150  0.31046971  1
  Ta  Ta8  1  0.33292301  0.66653443  0.81314974  1
  Ga  Ga0  1  0.99502788  0.00005832  0.35158059  1
  Ga  Ga1  1  0.67100904  0.33547881  0.68571956  1
  Ga  Ga2  1  0.66442251  0.33498623  0.18570321  1
  Si  Si0  1  0.95188277  0.33638075  0.58605611  1
  Si  Si1  1  0.38375565  0.33466671  0.08664411  1
  Si  Si2  1  0.61980343  0.66576579  0.91674657  1
  Si  Si3  1  0.04500827  0.38039647  0.91683005  1
  Si  Si4  1  0.33477298  0.95311520  0.91733760  1
  Si  Si5  1  0.63157033  0.95514175  0.41505871  1
  P  P0  1  0.29012062  0.00759085  0.25207122  1
  P  P1  1  0.71707677  0.70785030  0.25134659  1
  P  P2  1  0.99172873  0.28513356  0.25127561  1
  P  P3  1  0.29520623  0.28889666  0.74902198  1
  P  P4  1  0.99420561  0.70581672  0.74918558  1
  P  P5  1  0.71056656  0.00508501  0.74948754  1
  P  P6  1  0.38387755  0.04926730  0.58484335  1
  P  P7  1  0.66544500  0.61538089  0.58488038  1
  P  P8  1  0.95043027  0.61666528  0.08559701  1
  P  P9  1  0.66562174  0.04911012  0.08555777  1
  P  P10  1  0.32860743  0.37405526  0.41531109  1
  P  P11  1  0.04676630  0.67301320  0.41540268  1
  O  O0  1  0.20244800  0.03041512  0.30656829  1
  O  O1  1  0.82615699  0.79444066  0.30597375  1
  O  O2  1  0.96763879  0.17499076  0.30566014  1
  O  O3  1  0.20218470  0.17424060  0.80358401  1
  O  O4  1  0.97436276  0.80067743  0.80383004  1
  O  O5  1  0.82631194  0.02690103  0.80377760  1
  O  O6  1  0.80173995  0.97337772  0.69453673  1
  O  O7  1  0.17213166  0.19761343  0.69423839  1
  O  O8  1  0.02646775  0.82710446  0.69433992  1
  O  O9  1  0.79813465  0.82754044  0.19536608  1
  O  O10  1  0.02782158  0.19941896  0.19521687  1
  O  O11  1  0.17014678  0.97116946  0.19573640  1
  O  O12  1  0.86879147  0.37033010  0.64311856  1
  O  O13  1  0.49294220  0.12650926  0.63988750  1
  O  O14  1  0.62956101  0.50560317  0.63998046  1
  O  O15  1  0.87461223  0.50608910  0.14027197  1
  O  O16  1  0.63605542  0.12847366  0.14036918  1
  O  O17  1  0.50079488  0.36865086  0.14353072  1
  O  O18  1  0.46777782  0.30128088  0.02639619  1
  O  O19  1  0.83971377  0.53597384  0.02900327  1
  O  O20  1  0.69952575  0.16092192  0.02892143  1
  O  O21  1  0.46365727  0.16292162  0.52870326  1
  O  O22  1  0.69584088  0.53512427  0.52866857  1
  O  O23  1  0.83163347  0.30245050  0.52628519  1
  O  O24  1  0.53317567  0.70153214  0.97437022  1
  O  O25  1  0.16845792  0.46766986  0.97424765  1
  O  O26  1  0.29899837  0.83248468  0.97485889  1
  O  O27  1  0.52884389  0.83415947  0.47349495  1
  O  O28  1  0.30463750  0.46662419  0.47139783  1
  O  O29  1  0.16073675  0.69219656  0.47139968  1
  O  O30  1  0.13021388  0.63368284  0.36136183  1
  O  O31  1  0.49690634  0.86045362  0.35909894  1
  O  O32  1  0.36160321  0.49571079  0.36139569  1
  O  O33  1  0.13574665  0.50126947  0.85789147  1
  O  O34  1  0.36569546  0.86391837  0.85796297  1
  O  O35  1  0.49858875  0.63359534  0.85787463  1
  O  O36  1  0.03009917  0.83524150  0.40983107  1
  O  O37  1  0.82245100  0.97721058  0.40947402  1
  O  O38  1  0.16927263  0.19306448  0.40971175  1
  O  O39  1  0.02621329  0.18731492  0.90684862  1
  O  O40  1  0.16255515  0.97563914  0.90689965  1
  O  O41  1  0.81351179  0.83906683  0.90698412  1
  O  O42  1  0.97571966  0.16021750  0.59197229  1
  O  O43  1  0.19390674  0.02364218  0.59156676  1
  O  O44  1  0.83174761  0.80402870  0.59195593  1
  O  O45  1  0.97106817  0.80491298  0.09206010  1
  O  O46  1  0.83047145  0.02332312  0.09191233  1
  O  O47  1  0.18294781  0.15900751  0.09220090  1
  O  O48  1  0.69062438  0.16650737  0.74350043  1
  O  O49  1  0.47601845  0.30680075  0.74197175  1
  O  O50  1  0.83010871  0.52601099  0.74418041  1
  O  O51  1  0.69219769  0.52450735  0.24395732  1
  O  O52  1  0.83314690  0.30979502  0.24191433  1
  O  O53  1  0.47480605  0.16251983  0.24383513  1
  O  O54  1  0.64376854  0.49577228  0.92438176  1
  O  O55  1  0.85277263  0.35823554  0.92476751  1
  O  O56  1  0.50748810  0.14610806  0.92382656  1
  O  O57  1  0.63801049  0.14646301  0.42425570  1
  O  O58  1  0.50037920  0.36498107  0.42507051  1
  O  O59  1  0.86161856  0.50405726  0.42485277  1
  O  O60  1  0.35471211  0.50462189  0.07700491  1
  O  O61  1  0.13961869  0.64566613  0.07663990  1
  O  O62  1  0.50265204  0.86246824  0.07666989  1
  O  O63  1  0.35768304  0.86139714  0.57470593  1
  O  O64  1  0.50437897  0.64406176  0.57520423  1
  O  O65  1  0.15016503  0.50456268  0.57437868  1
  O  O66  1  0.30188465  0.83186012  0.25767662  1
  O  O67  1  0.52717973  0.69169872  0.25790490  1
  O  O68  1  0.16489237  0.47157495  0.25764013  1
  O  O69  1  0.30626971  0.47119767  0.75474007  1
  O  O70  1  0.16546397  0.69353792  0.75510661  1
  O  O71  1  0.52837214  0.83329565  0.75485353  1
loop_
_geom_bond_atom_site_label_1
_geom_bond_atom_site_label_2
_geom_bond_distance
_geom_bond_site_symmetry_2
Na0 O37 2.407059 1_545
Na0 O36 2.498322 1_645
Na0 O38 2.499670 1_655
Na0 O42 2.675396 1_555
Na0 O44 2.732399 1_545
Na0 O43 2.737269 1_655
Na1 O47 2.562345 1_555
Na1 O46 2.614684 1_455
Na1 O40 2.618579 1_544
Na1 O45 2.619504 1_445
Na1 O41 2.622751 1_444
Na1 O39 2.623021 1_554
Na2 O50 2.527937 1_555
Na2 O48 2.540057 1_555
Na2 O49 2.569565 1_555
Na2 O56 2.594852 1_555
Na2 O54 2.603551 1_555
Na2 O55 2.605452 1_555
Na3 O51 2.470814 1_555
Na3 O53 2.482813 1_555
Na3 O52 2.501472 1_555
Na3 O57 2.665551 1_555
Na3 O58 2.726748 1_555
Na3 O59 2.728387 1_555
Na4 O60 2.503890 1_555
Na4 O61 2.584901 1_555
Na4 O62 2.585052 1_555
Na4 O68 2.627841 1_555
Na4 O67 2.630990 1_555
Na4 O66 2.643911 1_555
Na5 O70 2.553452 1_555
Na5 O69 2.557133 1_555
Na5 O71 2.570731 1_555
Na5 O65 2.576006 1_555
Na5 O64 2.629223 1_555
Na5 O63 2.640574 1_555
Ga0 O37 1.932276 1_545
Ga0 O1 1.958035 1_545
Ga0 O2 1.963261 1_555
Ga0 O0 1.978612 1_655
Ga0 O38 2.083653 1_655
Ga0 O36 2.089167 1_645
Ga1 O12 1.866877 1_555
Ga1 O14 1.991373 1_555
Ga1 O13 2.001192 1_555
Ga1 O50 2.038631 1_555
Ga1 O49 2.040481 1_555
Ga1 O48 2.046833 1_555
Ga2 O17 1.863077 1_555
Ga2 O15 1.982443 1_555
Ga2 O16 1.983515 1_555
Ga2 O51 2.037027 1_555
Ga2 O52 2.043862 1_555
Ga2 O53 2.064713 1_555
O0 P0 1.518070 1_555
O1 P1 1.515583 1_555
O2 P2 1.514214 1_555
O3 P3 1.543925 1_555
O3 Ta0 2.037666 1_555
O4 P4 1.547928 1_555
O4 Ta0 2.022773 1_665
O5 P5 1.544271 1_555
O5 Ta0 2.033821 1_655
O6 P5 1.575663 1_565
O6 Ta1 1.972689 1_565
O7 P3 1.575278 1_555
O7 Ta1 1.973096 1_455
O8 P4 1.566929 1_455
O8 Ta1 2.006354 1_465
O9 P1 1.571478 1_555
O9 Ta2 2.009064 1_665
O10 P2 1.584866 1_455
O10 Ta2 1.966658 1_555
O11 P0 1.581574 1_565
O11 Ta2 1.974038 1_565
O12 Si0 1.581989 1_555
O13 P6 1.510336 1_555
O14 P7 1.510800 1_555
O15 P8 1.507441 1_555
O16 P9 1.506952 1_555
O17 Si1 1.580242 1_555
O18 Si1 1.643907 1_555
O18 Ta3 1.920266 1_554
O19 P8 1.549387 1_555
O19 Ta3 2.038757 1_554
O20 P9 1.551190 1_555
O20 Ta3 2.037422 1_554
O21 P6 1.550341 1_555
O21 Ta4 2.022676 1_555
O22 P7 1.540315 1_555
O22 Ta4 2.054221 1_555
O23 Si0 1.649373 1_555
O23 Ta4 1.902582 1_555
O24 Si2 1.616289 1_555
O24 Ta5 1.931011 1_556
O25 Si3 1.618956 1_555
O25 Ta5 1.926078 1_556
O26 Si4 1.607839 1_555
O26 Ta5 1.960853 1_556
O27 Si5 1.653277 1_555
O27 Ta6 1.908649 1_555
O28 P10 1.576294 1_555
O28 Ta6 1.970794 1_555
O29 P11 1.571018 1_555
O29 Ta6 1.981770 1_555
O30 P11 1.549222 1_555
O30 Ta7 2.024666 1_555
O31 Si5 1.646081 1_555
O31 Ta7 1.901507 1_555
O32 P10 1.551125 1_555
O32 Ta7 2.016390 1_555
O33 Si3 1.642030 1_555
O33 Ta8 1.897603 1_555
O34 Si4 1.644096 1_555
O34 Ta8 1.897892 1_555
O35 Si2 1.639607 1_555
O35 Ta8 1.904983 1_555
O36 P11 1.503244 1_555
O37 Si5 1.585863 1_555
O38 P10 1.503910 1_555
O39 Si3 1.629628 1_555
O39 Ta0 1.923125 1_555
O40 Si4 1.630376 1_555
O40 Ta0 1.921243 1_565
O41 Si2 1.628317 1_555
O41 Ta0 1.923151 1_665
O42 Si0 1.661148 1_555
O42 Ta1 1.919305 1_555
O43 P6 1.567970 1_555
O43 Ta1 2.012370 1_455
O44 P7 1.570954 1_555
O44 Ta1 2.010535 1_565
O45 P8 1.571932 1_555
O45 Ta2 2.024335 1_665
O46 P9 1.572661 1_555
O46 Ta2 2.019961 1_655
O47 Si1 1.662902 1_555
O47 Ta2 1.926806 1_555
O48 P5 1.513535 1_555
O49 P3 1.516644 1_555
O50 P4 1.514088 1_555
O51 P1 1.516916 1_555
O52 P2 1.520705 1_555
O53 P0 1.514350 1_555
O54 Si2 1.612086 1_555
O54 Ta3 1.953103 1_555
O55 Si3 1.602335 1_655
O55 Ta3 1.979290 1_555
O56 Si4 1.614674 1_545
O56 Ta3 1.948993 1_555
O57 Si5 1.659942 1_545
O57 Ta4 1.912522 1_555
O58 P10 1.558670 1_555
O58 Ta4 2.040930 1_555
O59 P11 1.568901 1_655
O59 Ta4 2.003609 1_555
O60 Si1 1.643840 1_555
O60 Ta5 1.951972 1_555
O61 P8 1.555825 1_455
O61 Ta5 2.043478 1_555
O62 P9 1.553795 1_565
O62 Ta5 2.049036 1_555
O63 P6 1.559491 1_565
O63 Ta6 2.035033 1_555
O64 P7 1.564257 1_555
O64 Ta6 2.023897 1_555
O65 Si0 1.640892 1_455
O65 Ta6 1.964735 1_555
O66 P0 1.596924 1_565
O66 Ta7 1.985800 1_555
O67 P1 1.600786 1_555
O67 Ta7 1.980874 1_555
O68 P2 1.583629 1_455
O68 Ta7 2.027395 1_555
O69 P3 1.554699 1_555
O69 Ta8 2.080822 1_555
O70 P4 1.559351 1_455
O70 Ta8 2.068968 1_555
O71 P5 1.555693 1_565
O71 Ta8 2.074687 1_555
