# generated using pymatgen
data_Na14Y4Sc4Si7S5O48
_symmetry_space_group_name_H-M   'P 1'
_cell_length_a   18.65229316
_cell_length_b   9.31179052
_cell_length_c   23.10799957
_cell_angle_alpha   89.95275994
_cell_angle_beta   90.06363052
_cell_angle_gamma   120.04391039
_symmetry_Int_Tables_number   1
_chemical_formula_structural   Na14Y4Sc4Si7S5O48
_chemical_formula_sum   'Na42 Y12 Sc12 Si21 S15 O144'
_cell_volume   3474.28779867
_cell_formula_units_Z   3
loop_
 _symmetry_equiv_pos_site_id
 _symmetry_equiv_pos_as_xyz
  1  'x, y, z'
loop_
 _atom_site_type_symbol
 _atom_site_label
 _atom_site_symmetry_multiplicity
 _atom_site_fract_x
 _atom_site_fract_y
 _atom_site_fract_z
 _atom_site_occupancy
  Na  Na0  1  0.81010434  0.98896228  0.24298180  1
  Na  Na1  1  0.18774471  0.36544019  0.25918123  1
  Na  Na2  1  0.69091895  0.36794014  0.25615579  1
  Na  Na3  1  0.99720500  0.64892254  0.24088092  1
  Na  Na4  1  0.50316658  0.65525714  0.24447433  1
  Na  Na5  1  0.30935047  0.63258629  0.75319120  1
  Na  Na6  1  0.00142815  0.34862658  0.74842595  1
  Na  Na7  1  0.50029860  0.34764243  0.74731708  1
  Na  Na8  1  0.18579545  0.00771671  0.76070689  1
  Na  Na9  1  0.69006972  0.01200652  0.76287734  1
  Na  Na10  1  0.14172168  0.33208226  0.58380964  1
  Na  Na11  1  0.64115216  0.33339176  0.58467284  1
  Na  Na12  1  0.33840806  0.97854200  0.57867125  1
  Na  Na13  1  0.83959006  0.98040276  0.58166866  1
  Na  Na14  1  0.13773337  0.94700336  0.08623585  1
  Na  Na15  1  0.65187787  0.95678632  0.08531122  1
  Na  Na16  1  0.33913006  0.69794809  0.08163111  1
  Na  Na17  1  0.83827307  0.71472742  0.07841024  1
  Na  Na18  1  0.48911677  0.68875621  0.92468042  1
  Na  Na19  1  0.98273647  0.68033982  0.92528578  1
  Na  Na20  1  0.34166977  0.01470546  0.91241387  1
  Na  Na21  1  0.84053974  0.01675301  0.91990067  1
  Na  Na22  1  0.16902357  0.29422028  0.90807668  1
  Na  Na23  1  0.67755932  0.30852294  0.90991461  1
  Na  Na24  1  0.48672162  0.28711007  0.41982007  1
  Na  Na25  1  0.98586138  0.28396065  0.42084197  1
  Na  Na26  1  0.17206470  0.04163651  0.40481291  1
  Na  Na27  1  0.67074410  0.04458259  0.40516569  1
  Na  Na28  1  0.34145077  0.66764110  0.40839773  1
  Na  Na29  1  0.84132409  0.66879453  0.40887831  1
  Na  Na30  1  0.99775417  0.01557855  0.49400135  1
  Na  Na31  1  0.49827849  0.01613098  0.49333734  1
  Na  Na32  1  0.98849398  0.98158059  0.00132922  1
  Na  Na33  1  0.50099382  0.98329164  0.99610664  1
  Na  Na34  1  0.32203884  0.32035840  0.83498404  1
  Na  Na35  1  0.82116723  0.33055176  0.83673559  1
  Na  Na36  1  0.32159697  0.31466576  0.33054328  1
  Na  Na37  1  0.82253975  0.32639937  0.32825087  1
  Na  Na38  1  0.16454967  0.68095042  0.17171865  1
  Na  Na39  1  0.66606424  0.68247352  0.16396056  1
  Na  Na40  1  0.15712990  0.64757277  0.67182761  1
  Na  Na41  1  0.66793240  0.65202883  0.67397827  1
  Y  Y0  1  0.99838824  0.00901190  0.65151021  1
  Y  Y1  1  0.49637778  0.00551088  0.65030642  1
  Y  Y2  1  0.99256789  0.98903865  0.14803041  1
  Y  Y3  1  0.49975392  0.98796287  0.15076893  1
  Y  Y4  1  0.83631477  0.33738812  0.68846753  1
  Y  Y5  1  0.33593436  0.33386834  0.18787250  1
  Y  Y6  1  0.16194785  0.66831387  0.01481480  1
  Y  Y7  1  0.67017277  0.68328055  0.01687032  1
  Y  Y8  1  0.16507393  0.65804541  0.51418830  1
  Y  Y9  1  0.66284539  0.65611104  0.51451790  1
  Y  Y10  1  0.17888212  0.68537964  0.31582448  1
  Y  Y11  1  0.67946436  0.67267211  0.81742692  1
  Sc  Sc0  1  0.99963440  0.99576006  0.34811981  1
  Sc  Sc1  1  0.50037017  0.99811159  0.34762075  1
  Sc  Sc2  1  0.99964761  0.00142013  0.84894387  1
  Sc  Sc3  1  0.50070506  0.00555073  0.84955708  1
  Sc  Sc4  1  0.33626702  0.32651223  0.68764716  1
  Sc  Sc5  1  0.83558183  0.33278018  0.18265025  1
  Sc  Sc6  1  0.33466802  0.34607456  0.97964684  1
  Sc  Sc7  1  0.83637959  0.33425878  0.98490303  1
  Sc  Sc8  1  0.33607144  0.32715923  0.48077276  1
  Sc  Sc9  1  0.83478027  0.32317400  0.47925663  1
  Sc  Sc10  1  0.67854304  0.67805746  0.31728260  1
  Sc  Sc11  1  0.17741180  0.67767146  0.81852429  1
  Si  Si0  1  0.14569867  0.99811468  0.25009125  1
  Si  Si1  1  0.65098877  0.99819292  0.25251937  1
  Si  Si2  1  0.35126458  0.70081225  0.25043594  1
  Si  Si3  1  0.84978098  0.69685020  0.25288558  1
  Si  Si4  1  0.15145942  0.30426870  0.75048576  1
  Si  Si5  1  0.64672873  0.29672595  0.75025657  1
  Si  Si6  1  0.34895992  0.99804984  0.75130844  1
  Si  Si7  1  0.85079342  0.00006768  0.74986328  1
  Si  Si8  1  0.48029014  0.33815510  0.58443526  1
  Si  Si9  1  0.98314453  0.33729135  0.58226887  1
  Si  Si10  1  0.48151823  0.62830620  0.08211713  1
  Si  Si11  1  0.98104955  0.62197560  0.08455095  1
  Si  Si12  1  0.83523813  0.04556404  0.08289255  1
  Si  Si13  1  0.31816456  0.66858423  0.91716496  1
  Si  Si14  1  0.82241022  0.66545204  0.91974324  1
  Si  Si15  1  0.16658380  0.97008671  0.91505869  1
  Si  Si16  1  0.66507520  0.97552995  0.91490814  1
  Si  Si17  1  0.32158244  0.97369590  0.42168342  1
  Si  Si18  1  0.81811745  0.96717009  0.41786227  1
  Si  Si19  1  0.16616231  0.35641482  0.41689909  1
  Si  Si20  1  0.66633027  0.36210160  0.41617150  1
  S  S0  1  0.99809741  0.29457718  0.25243692  1
  S  S1  1  0.50283843  0.29812425  0.25380254  1
  S  S2  1  0.00339735  0.70835436  0.75281924  1
  S  S3  1  0.49738009  0.70167947  0.75058896  1
  S  S4  1  0.18964735  0.04480159  0.58383165  1
  S  S5  1  0.68653065  0.04039701  0.58139607  1
  S  S6  1  0.33382870  0.62082344  0.58321964  1
  S  S7  1  0.83417747  0.62747442  0.57956375  1
  S  S8  1  0.33387784  0.04098416  0.07960669  1
  S  S9  1  0.18834533  0.33483088  0.08148915  1
  S  S10  1  0.68844792  0.33331010  0.08359119  1
  S  S11  1  0.01870323  0.36957991  0.91253916  1
  S  S12  1  0.51528118  0.36522261  0.91605136  1
  S  S13  1  0.01500315  0.66630895  0.41633187  1
  S  S14  1  0.51715518  0.66717671  0.41454621  1
  O  O0  1  0.09878229  0.02051470  0.30725039  1
  O  O1  1  0.60363920  0.02678779  0.30782067  1
  O  O2  1  0.40831545  0.80153163  0.30715918  1
  O  O3  1  0.90898209  0.79010843  0.30920228  1
  O  O4  1  0.49297877  0.19731337  0.30602474  1
  O  O5  1  0.98736413  0.19252455  0.30483165  1
  O  O6  1  0.10653026  0.17915952  0.80549990  1
  O  O7  1  0.59761626  0.17598918  0.80568164  1
  O  O8  1  0.48527231  0.78087428  0.80280992  1
  O  O9  1  0.99432729  0.79044606  0.80499853  1
  O  O10  1  0.40981793  0.02899071  0.80645296  1
  O  O11  1  0.91100882  0.01735831  0.80477941  1
  O  O12  1  0.38544906  0.95821368  0.69286209  1
  O  O13  1  0.89013990  0.97758927  0.68959544  1
  O  O14  1  0.09752617  0.22415467  0.69107360  1
  O  O15  1  0.59571880  0.21129219  0.68977117  1
  O  O16  1  0.01505254  0.80841960  0.70055423  1
  O  O17  1  0.51018295  0.80444643  0.69888176  1
  O  O18  1  0.39181859  0.80517246  0.19114959  1
  O  O19  1  0.88712224  0.81388801  0.19568772  1
  O  O20  1  0.01244962  0.21870961  0.20094273  1
  O  O21  1  0.51421353  0.21983495  0.20146892  1
  O  O22  1  0.09589454  0.98569060  0.19034553  1
  O  O23  1  0.59564451  0.96924818  0.19374544  1
  O  O24  1  0.43019981  0.34335115  0.64240051  1
  O  O25  1  0.93866767  0.34819382  0.64129359  1
  O  O26  1  0.23938058  0.12976007  0.63641215  1
  O  O27  1  0.73549305  0.12157414  0.63434368  1
  O  O28  1  0.32568149  0.52226786  0.63586935  1
  O  O29  1  0.82307437  0.52570983  0.63186913  1
  O  O30  1  0.43657475  0.52966447  0.14134731  1
  O  O31  1  0.93258007  0.51949908  0.14321869  1
  O  O32  1  0.32313713  0.12020162  0.13159970  1
  O  O33  1  0.82448231  0.13619118  0.14102889  1
  O  O34  1  0.23757397  0.35325638  0.13421467  1
  O  O35  1  0.73745279  0.35022881  0.13653560  1
  O  O36  1  0.23018750  0.31375719  0.02952345  1
  O  O37  1  0.72859041  0.31244163  0.03115644  1
  O  O38  1  0.42178105  0.52784748  0.02578751  1
  O  O39  1  0.92695647  0.53042241  0.02634934  1
  O  O40  1  0.33852300  0.13532641  0.02683496  1
  O  O41  1  0.83711411  0.14578681  0.02408725  1
  O  O42  1  0.23023862  0.14680642  0.53135928  1
  O  O43  1  0.72830497  0.14578647  0.52975612  1
  O  O44  1  0.33836106  0.53690195  0.53027339  1
  O  O45  1  0.83854295  0.54200281  0.52706764  1
  O  O46  1  0.42437919  0.32364374  0.52740802  1
  O  O47  1  0.92442698  0.32038125  0.52571315  1
  O  O48  1  0.27692871  0.69735922  0.97509904  1
  O  O49  1  0.78249626  0.70113313  0.97737273  1
  O  O50  1  0.07092775  0.44473292  0.96448816  1
  O  O51  1  0.56979571  0.44619021  0.96618872  1
  O  O52  1  0.14760540  0.85484483  0.97298588  1
  O  O53  1  0.64384025  0.85153701  0.97069230  1
  O  O54  1  0.28308266  0.86409272  0.48102778  1
  O  O55  1  0.77741540  0.85759838  0.47655602  1
  O  O56  1  0.14733221  0.43847798  0.47390454  1
  O  O57  1  0.64619966  0.43637523  0.47474957  1
  O  O58  1  0.06918975  0.69447477  0.46703853  1
  O  O59  1  0.56945915  0.69557314  0.46629128  1
  O  O60  1  0.05057476  0.63328361  0.36419277  1
  O  O61  1  0.55469911  0.63711272  0.36316525  1
  O  O62  1  0.25393277  0.88911467  0.36985393  1
  O  O63  1  0.75552273  0.87704638  0.36292925  1
  O  O64  1  0.18256437  0.47570527  0.36075639  1
  O  O65  1  0.68023665  0.48716100  0.36184542  1
  O  O66  1  0.05858533  0.47397945  0.86118133  1
  O  O67  1  0.54956942  0.46580668  0.86299663  1
  O  O68  1  0.18132674  0.87523699  0.85999648  1
  O  O69  1  0.67873504  0.88781953  0.85788198  1
  O  O70  1  0.25693239  0.63473565  0.86107161  1
  O  O71  1  0.75619307  0.61635212  0.86669496  1
  O  O72  1  0.00654170  0.81545066  0.41123841  1
  O  O73  1  0.50816793  0.81669965  0.40914027  1
  O  O74  1  0.41183059  0.98654266  0.41110667  1
  O  O75  1  0.91005467  0.98686720  0.40979175  1
  O  O76  1  0.08418027  0.16983956  0.41115080  1
  O  O77  1  0.58525318  0.17479480  0.40927808  1
  O  O78  1  0.00973475  0.20144310  0.90731451  1
  O  O79  1  0.50535345  0.19679305  0.91092565  1
  O  O80  1  0.08625009  0.99589223  0.90755708  1
  O  O81  1  0.58252497  0.99775035  0.90947695  1
  O  O82  1  0.40987321  0.83336048  0.90861577  1
  O  O83  1  0.91274037  0.83649792  0.90915737  1
  O  O84  1  0.48531697  0.16331742  0.58267226  1
  O  O85  1  0.98924361  0.16339394  0.57996902  1
  O  O86  1  0.10635504  0.02616729  0.58726339  1
  O  O87  1  0.60317114  0.02326803  0.58436219  1
  O  O88  1  0.40781779  0.78943399  0.58534282  1
  O  O89  1  0.90861344  0.79364055  0.58322179  1
  O  O90  1  0.48720772  0.81404006  0.07991708  1
  O  O91  1  0.98974912  0.80886238  0.08357242  1
  O  O92  1  0.40878350  0.02430346  0.08322526  1
  O  O93  1  0.91566353  0.01982383  0.08223504  1
  O  O94  1  0.10557554  0.18452775  0.08453739  1
  O  O95  1  0.60506673  0.18197153  0.08728487  1
  O  O96  1  0.34121122  0.16781922  0.74537446  1
  O  O97  1  0.84859639  0.17588148  0.75066317  1
  O  O98  1  0.24574031  0.32927521  0.74368036  1
  O  O99  1  0.73706506  0.30779366  0.74859686  1
  O  O100  1  0.41933661  0.53617278  0.74476921  1
  O  O101  1  0.92925729  0.54092810  0.74901432  1
  O  O102  1  0.34927102  0.52097430  0.25158794  1
  O  O103  1  0.84213927  0.51320077  0.24739953  1
  O  O104  1  0.42875916  0.31664373  0.24963879  1
  O  O105  1  0.92150621  0.30564374  0.24711417  1
  O  O106  1  0.23712424  0.16726855  0.24990635  1
  O  O107  1  0.74364258  0.16393405  0.24774108  1
  O  O108  1  0.32719906  0.50011173  0.92088974  1
  O  O109  1  0.83540708  0.50370507  0.92445635  1
  O  O110  1  0.43074519  0.34369419  0.92422772  1
  O  O111  1  0.93537866  0.35191549  0.91912238  1
  O  O112  1  0.25279797  0.15211495  0.92168431  1
  O  O113  1  0.74948659  0.15821703  0.92225084  1
  O  O114  1  0.33472384  0.16293492  0.42530470  1
  O  O115  1  0.82772030  0.15424677  0.42197093  1
  O  O116  1  0.25141002  0.34524814  0.42595231  1
  O  O117  1  0.75221852  0.35229711  0.42314545  1
  O  O118  1  0.43262244  0.51920193  0.42259529  1
  O  O119  1  0.93074658  0.51869062  0.42474586  1
  O  O120  1  0.18350903  0.48751002  0.07674292  1
  O  O121  1  0.68171263  0.48452364  0.07928006  1
  O  O122  1  0.07673669  0.65335194  0.08475166  1
  O  O123  1  0.57494144  0.65677618  0.08046508  1
  O  O124  1  0.25898086  0.87028197  0.07785101  1
  O  O125  1  0.75097914  0.85809146  0.08382822  1
  O  O126  1  0.18532399  0.88155533  0.58034188  1
  O  O127  1  0.68160665  0.87779779  0.57700836  1
  O  O128  1  0.25787439  0.63840812  0.58171219  1
  O  O129  1  0.75886161  0.64718627  0.57806167  1
  O  O130  1  0.07857042  0.49571605  0.58157179  1
  O  O131  1  0.57551528  0.49522335  0.58444474  1
  O  O132  1  0.14377567  0.82002624  0.25395290  1
  O  O133  1  0.65520620  0.82578083  0.25958276  1
  O  O134  1  0.25452812  0.65881664  0.25087404  1
  O  O135  1  0.75605187  0.67313120  0.25885932  1
  O  O136  1  0.07046549  0.46374301  0.25856554  1
  O  O137  1  0.57731681  0.46668803  0.25921715  1
  O  O138  1  0.15631318  0.48572980  0.75774064  1
  O  O139  1  0.64434518  0.46975295  0.75348010  1
  O  O140  1  0.07787911  0.68825826  0.75804423  1
  O  O141  1  0.56846112  0.67528457  0.75655807  1
  O  O142  1  0.25516944  0.83678414  0.75743072  1
  O  O143  1  0.75421562  0.84859077  0.75060814  1
loop_
_geom_bond_atom_site_label_1
_geom_bond_atom_site_label_2
_geom_bond_distance
_geom_bond_site_symmetry_2
Na0 O107 2.495305 1_565
Na0 O133 2.531616 1_555
Na0 O135 2.613488 1_555
Na0 O105 2.624321 1_565
Na0 O33 2.670165 1_565
Na0 O19 2.875291 1_555
Na0 O63 2.957063 1_555
Na1 O134 2.375660 1_555
Na1 O106 2.449996 1_555
Na1 O64 2.583940 1_555
Na1 O102 2.614769 1_555
Na1 O136 2.761949 1_555
Na2 O103 2.450894 1_555
Na2 O135 2.469635 1_555
Na2 O107 2.546626 1_555
Na2 O137 2.700345 1_555
Na2 O65 2.732016 1_555
Na2 O35 2.927574 1_555
Na2 O1 2.997808 1_555
Na3 O132 2.396085 1_655
Na3 O103 2.515140 1_555
Na3 O31 2.557787 1_555
Na3 O136 2.713791 1_655
Na3 O105 2.777150 1_555
Na3 O22 2.967266 1_655
Na3 O3 3.017328 1_555
Na3 O60 3.044656 1_655
Na4 O133 2.484995 1_555
Na4 O102 2.497395 1_555
Na4 O30 2.670758 1_555
Na4 O104 2.738667 1_555
Na4 O137 2.746259 1_555
Na4 O23 2.801252 1_555
Na4 O61 2.937840 1_555
Na5 O98 2.465368 1_555
Na5 O138 2.474062 1_555
Na5 O142 2.563415 1_555
Na5 O100 2.626391 1_555
Na5 O70 2.682531 1_555
Na6 O97 2.474886 1_455
Na6 O138 2.515599 1_555
Na6 O101 2.726281 1_455
Na6 O25 2.736404 1_455
Na6 O140 2.751258 1_555
Na6 O66 2.835622 1_555
Na6 O14 2.898416 1_555
Na6 O11 2.973960 1_455
Na7 O139 2.339313 1_555
Na7 O96 2.575947 1_555
Na7 O141 2.662073 1_555
Na7 O24 2.744037 1_555
Na7 O100 2.831993 1_555
Na7 O67 2.861419 1_555
Na7 O10 2.916175 1_555
Na7 O15 2.969654 1_555
Na8 O142 2.505268 1_545
Na8 O96 2.534850 1_555
Na8 O68 2.585685 1_545
Na8 O140 2.628460 1_545
Na8 O98 2.649032 1_555
Na8 O6 2.859275 1_555
Na9 O143 2.377395 1_545
Na9 O69 2.440008 1_545
Na9 O99 2.458674 1_555
Na9 O97 2.575744 1_555
Na9 O141 2.806439 1_545
Na10 O130 2.347089 1_555
Na10 O85 2.467849 1_455
Na10 O128 2.577694 1_555
Na10 O86 2.583457 1_555
Na10 O14 2.646539 1_555
Na10 O56 2.708346 1_555
Na11 O131 2.370041 1_555
Na11 O84 2.519812 1_555
Na11 O87 2.606309 1_555
Na11 O15 2.635191 1_555
Na11 O129 2.637787 1_555
Na11 O57 2.699393 1_555
Na12 O84 2.399231 1_565
Na12 O54 2.487839 1_555
Na12 O126 2.527503 1_555
Na12 O88 2.661335 1_555
Na12 O128 2.743859 1_555
Na12 O12 2.815830 1_555
Na13 O85 2.436034 1_565
Na13 O127 2.605399 1_555
Na13 O89 2.631537 1_555
Na13 O13 2.670017 1_555
Na13 O55 2.687515 1_555
Na13 O129 2.687694 1_555
Na14 O122 2.378565 1_555
Na14 O91 2.392037 1_455
Na14 O94 2.565445 1_565
Na14 O22 2.610288 1_555
Na14 O124 2.698431 1_555
Na14 O52 2.789612 1_554
Na15 O123 2.421182 1_555
Na15 O125 2.442098 1_555
Na15 O95 2.644782 1_565
Na15 O90 2.669768 1_555
Na15 O23 2.742322 1_555
Na15 O53 2.802574 1_554
Na16 O90 2.410227 1_555
Na16 O120 2.565605 1_555
Na16 O92 2.640293 1_565
Na16 O124 2.686899 1_555
Na16 O18 2.717266 1_555
Na16 O48 2.719113 1_554
Na17 O93 2.460988 1_565
Na17 O91 2.506961 1_555
Na17 O49 2.532346 1_554
Na17 O125 2.574148 1_555
Na17 O121 2.618217 1_555
Na17 O19 2.860656 1_555
Na18 O82 2.475177 1_555
Na18 O81 2.533328 1_555
Na18 O108 2.627167 1_555
Na18 O53 2.715206 1_555
Na18 O38 2.719845 1_556
Na18 O110 2.829638 1_555
Na18 O8 2.954486 1_555
Na19 O109 2.394029 1_555
Na19 O83 2.420107 1_555
Na19 O80 2.616983 1_655
Na19 O39 2.651593 1_556
Na19 O111 2.729229 1_555
Na19 O52 2.881658 1_655
Na19 O9 2.932370 1_555
Na20 O112 2.560471 1_555
Na20 O82 2.574714 1_545
Na20 O79 2.648391 1_555
Na20 O110 2.669012 1_555
Na20 O10 2.732376 1_555
Na20 O68 2.864217 1_545
Na20 O40 2.885694 1_556
Na20 O48 2.951694 1_545
Na21 O113 2.619748 1_555
Na21 O83 2.637704 1_545
Na21 O41 2.706663 1_556
Na21 O111 2.709566 1_555
Na21 O78 2.751069 1_655
Na21 O49 2.895543 1_545
Na21 O11 2.967290 1_555
Na21 O69 2.994790 1_545
Na22 O80 2.409627 1_545
Na22 O112 2.521947 1_555
Na22 O108 2.608241 1_555
Na22 O6 2.621583 1_555
Na22 O78 2.646473 1_555
Na23 O113 2.391407 1_555
Na23 O81 2.525895 1_545
Na23 O109 2.593309 1_555
Na23 O71 2.674673 1_555
Na23 O7 2.775282 1_555
Na23 O79 2.837962 1_555
Na23 O37 2.952302 1_556
Na24 O74 2.431196 1_545
Na24 O114 2.471619 1_555
Na24 O77 2.541042 1_555
Na24 O4 2.780203 1_555
Na24 O118 2.806627 1_555
Na24 O46 2.837734 1_555
Na24 O57 2.871584 1_555
Na25 O75 2.408598 1_545
Na25 O76 2.548570 1_655
Na25 O115 2.567658 1_555
Na25 O47 2.774425 1_555
Na25 O5 2.817812 1_555
Na25 O119 2.844819 1_555
Na25 O56 2.880999 1_655
Na26 O76 2.468620 1_555
Na26 O116 2.496559 1_555
Na26 O0 2.591216 1_555
Na26 O62 2.679140 1_545
Na26 O114 2.696520 1_555
Na26 O72 2.734828 1_545
Na27 O77 2.441009 1_555
Na27 O117 2.516494 1_555
Na27 O1 2.537876 1_555
Na27 O115 2.602074 1_555
Na27 O73 2.695152 1_545
Na27 O63 2.891901 1_545
Na28 O74 2.577229 1_555
Na28 O116 2.635993 1_555
Na28 O2 2.650930 1_555
Na28 O118 2.694776 1_555
Na28 O73 2.697183 1_555
Na28 O64 2.807388 1_555
Na29 O75 2.571835 1_555
Na29 O117 2.579074 1_555
Na29 O3 2.597812 1_555
Na29 O72 2.674030 1_655
Na29 O119 2.683718 1_555
Na29 O65 2.824343 1_555
Na29 O45 2.964680 1_555
Na29 O55 3.010789 1_555
Na30 O76 2.451744 1_655
Na30 O75 2.467745 1_545
Na30 O85 2.467810 1_555
Na30 O72 2.733077 1_645
Na30 O89 2.801072 1_545
Na30 O86 2.923716 1_655
Na31 O74 2.415745 1_545
Na31 O77 2.487964 1_555
Na31 O84 2.556564 1_555
Na31 O73 2.760060 1_545
Na31 O87 2.849115 1_555
Na31 O88 2.873548 1_545
Na32 O93 2.441036 1_565
Na32 O91 2.496317 1_555
Na32 O83 2.538657 1_554
Na32 O80 2.793356 1_654
Na32 O94 2.811002 1_665
Na32 O78 2.872378 1_664
Na33 O90 2.427149 1_556
Na33 O81 2.477790 1_555
Na33 O82 2.558568 1_555
Na33 O79 2.768673 1_565
Na33 O92 2.797034 1_566
Na33 O95 2.833981 1_566
Na34 O112 2.472005 1_555
Na34 O98 2.568081 1_555
Na34 O108 2.568141 1_555
Na34 O96 2.635976 1_555
Na34 O110 2.821628 1_555
Na34 O100 2.833305 1_555
Na35 O113 2.473853 1_555
Na35 O99 2.512896 1_555
Na35 O109 2.520830 1_555
Na35 O97 2.652712 1_555
Na35 O111 2.787377 1_555
Na35 O101 2.838854 1_555
Na36 O106 2.381333 1_555
Na36 O102 2.507834 1_555
Na36 O116 2.652635 1_555
Na36 O114 2.681659 1_555
Na36 O104 2.731700 1_555
Na36 O118 2.913455 1_555
Na37 O107 2.384279 1_555
Na37 O103 2.451399 1_555
Na37 O117 2.628888 1_555
Na37 O105 2.706602 1_555
Na37 O115 2.723638 1_555
Na37 O119 2.937621 1_555
Na38 O132 2.438539 1_555
Na38 O122 2.521802 1_555
Na38 O134 2.558085 1_555
Na38 O136 2.764955 1_555
Na38 O124 2.794339 1_555
Na38 O120 2.971943 1_555
Na39 O125 2.453493 1_555
Na39 O123 2.500987 1_555
Na39 O133 2.642110 1_555
Na39 O135 2.787736 1_555
Na39 O121 2.803181 1_555
Na39 O137 2.879775 1_555
Na40 O138 2.486946 1_555
Na40 O130 2.533742 1_555
Na40 O140 2.620386 1_555
Na40 O142 2.670722 1_555
Na40 O128 2.836239 1_555
Na40 O126 2.887990 1_555
Na41 O139 2.387132 1_555
Na41 O143 2.474924 1_555
Na41 O131 2.619298 1_555
Na41 O141 2.746194 1_555
Na41 O129 2.806472 1_555
Na41 O127 2.993736 1_555
O0 Si0 1.655204 1_545
O0 Sc0 1.985385 1_445
O1 Si1 1.649994 1_545
O1 Sc1 2.028771 1_545
O2 Si2 1.652169 1_555
O2 Sc1 2.006292 1_555
O3 Si3 1.644838 1_555
O3 Sc0 2.022904 1_555
O4 S1 1.482242 1_555
O4 Sc1 2.153253 1_545
O5 S0 1.489014 1_555
O5 Sc0 2.196911 1_545
O6 Si4 1.642543 1_555
O6 Sc2 2.102217 1_455
O7 Si5 1.646959 1_555
O7 Sc3 1.985706 1_555
O8 S3 1.489914 1_555
O8 Sc3 2.242056 1_565
O9 S2 1.482660 1_655
O9 Sc2 2.169876 1_565
O10 Si6 1.632560 1_545
O10 Sc3 2.068826 1_555
O11 Si7 1.647380 1_555
O11 Sc2 2.009655 1_555
O12 Si6 1.637241 1_555
O12 Y1 2.129179 1_565
O13 Si7 1.636619 1_565
O13 Y0 2.085373 1_565
O14 Si4 1.643326 1_555
O14 Y0 2.135057 1_455
O15 Si5 1.653076 1_555
O15 Y1 2.093002 1_555
O16 S2 1.473097 1_555
O16 Y0 2.333889 1_465
O17 S3 1.473214 1_555
O17 Y1 2.304408 1_565
O18 Si2 1.630171 1_555
O18 Y3 2.095535 1_555
O19 Si3 1.630768 1_555
O19 Y2 2.128603 1_555
O20 S0 1.475855 1_455
O20 Y2 2.327119 1_445
O21 S1 1.481840 1_555
O21 Y3 2.351084 1_545
O22 Si0 1.634693 1_555
O22 Y2 2.174266 1_455
O23 Si1 1.643696 1_555
O23 Y3 2.126854 1_555
O24 Si8 1.648504 1_555
O24 Sc4 1.978942 1_555
O25 Si9 1.626638 1_555
O25 Y4 2.157602 1_555
O26 S4 1.492285 1_555
O26 Sc4 2.169719 1_555
O27 S5 1.486678 1_555
O27 Y4 2.313869 1_555
O28 S6 1.484732 1_555
O28 Sc4 2.269261 1_555
O29 S7 1.484555 1_555
O29 Y4 2.296920 1_555
O30 Si10 1.627639 1_555
O30 Y5 2.139616 1_555
O31 Si11 1.643948 1_555
O31 Sc5 1.994445 1_555
O32 S8 1.475716 1_555
O32 Y5 2.287905 1_555
O33 Si12 1.652022 1_555
O33 Sc5 1.985433 1_555
O34 S9 1.482275 1_555
O34 Y5 2.293944 1_555
O35 S10 1.486861 1_555
O35 Sc5 2.192081 1_555
O36 S9 1.498471 1_555
O36 Sc6 2.152658 1_554
O37 S10 1.488156 1_555
O37 Sc7 2.195735 1_554
O38 Si10 1.663133 1_555
O38 Sc6 1.971593 1_554
O39 Si11 1.640484 1_555
O39 Sc7 2.004325 1_554
O40 S8 1.479381 1_555
O40 Sc6 2.276613 1_554
O41 Si12 1.638303 1_555
O41 Sc7 1.980292 1_554
O42 S4 1.491882 1_555
O42 Sc8 2.183101 1_555
O43 S5 1.492855 1_555
O43 Sc9 2.179805 1_555
O44 S6 1.477393 1_555
O44 Sc8 2.246067 1_555
O45 S7 1.475922 1_555
O45 Sc9 2.288680 1_555
O46 Si8 1.642719 1_555
O46 Sc8 1.981278 1_555
O47 Si9 1.660340 1_555
O47 Sc9 1.997148 1_555
O48 Si13 1.632435 1_555
O48 Y6 2.222186 1_556
O49 Si14 1.639727 1_555
O49 Y7 2.214798 1_556
O50 S11 1.481844 1_555
O50 Y6 2.242667 1_556
O51 S12 1.475071 1_555
O51 Y7 2.368861 1_556
O52 Si15 1.639201 1_555
O52 Y6 2.117720 1_556
O53 Si16 1.640856 1_555
O53 Y7 2.145065 1_556
O54 Si17 1.644341 1_555
O54 Y8 2.210413 1_555
O55 Si18 1.637469 1_555
O55 Y9 2.200705 1_555
O56 Si19 1.647409 1_555
O56 Y8 2.116897 1_555
O57 Si20 1.647521 1_555
O57 Y9 2.119882 1_555
O58 S13 1.481791 1_555
O58 Y8 2.259050 1_555
O59 S14 1.480227 1_555
O59 Y9 2.246553 1_555
O60 S13 1.480914 1_555
O60 Y10 2.460617 1_555
O61 S14 1.475524 1_555
O61 Sc10 2.393401 1_555
O62 Si17 1.627884 1_555
O62 Y10 2.111469 1_555
O63 Si18 1.641989 1_555
O63 Sc10 1.985812 1_555
O64 Si19 1.633651 1_555
O64 Y10 2.241778 1_555
O65 Si20 1.641707 1_555
O65 Sc10 2.067451 1_555
O66 S11 1.477434 1_555
O66 Sc11 2.296499 1_555
O67 S12 1.479651 1_555
O67 Y11 2.453291 1_555
O68 Si15 1.649385 1_555
O68 Sc11 2.043633 1_555
O69 Si16 1.636877 1_555
O69 Y11 2.217690 1_555
O70 Si13 1.649501 1_555
O70 Sc11 1.978994 1_555
O71 Si14 1.633803 1_555
O71 Y11 2.089588 1_555
O72 S13 1.478725 1_555
O72 Sc0 2.274896 1_455
O73 S14 1.488507 1_555
O73 Sc1 2.266565 1_555
O74 Si17 1.645263 1_555
O74 Sc1 2.172120 1_555
O75 Si18 1.641586 1_555
O75 Sc0 2.167062 1_555
O76 Si19 1.647443 1_555
O76 Sc0 2.162186 1_445
O77 Si20 1.647185 1_555
O77 Sc1 2.152690 1_545
O78 S11 1.493937 1_555
O78 Sc2 2.230827 1_455
O79 S12 1.489156 1_555
O79 Sc3 2.244794 1_555
O80 Si15 1.641009 1_555
O80 Sc2 2.127142 1_465
O81 Si16 1.657691 1_555
O81 Sc3 2.087506 1_565
O82 Si13 1.640576 1_555
O82 Sc3 2.141301 1_565
O83 Si14 1.657888 1_555
O83 Sc2 2.104976 1_565
O84 Si8 1.677490 1_555
O84 Y1 2.223414 1_555
O85 Si9 1.680030 1_555
O85 Y0 2.251595 1_555
O86 S4 1.476605 1_555
O86 Y0 2.443200 1_455
O87 S5 1.483096 1_555
O87 Y1 2.448219 1_555
O88 S6 1.484050 1_555
O88 Y1 2.387881 1_565
O89 S7 1.475730 1_555
O89 Y0 2.439829 1_565
O90 Si10 1.679628 1_555
O90 Y3 2.232094 1_555
O91 Si11 1.665082 1_555
O91 Y2 2.225280 1_555
O92 S8 1.483309 1_555
O92 Y3 2.449073 1_545
O93 Si12 1.633441 1_555
O93 Y2 2.203997 1_545
O94 S9 1.477747 1_555
O94 Y2 2.463682 1_445
O95 S10 1.489129 1_555
O95 Y3 2.392270 1_545
O96 Si6 1.663486 1_545
O96 Sc4 2.025966 1_555
O97 Si7 1.658156 1_555
O97 Y4 2.172674 1_555
O98 Si4 1.661923 1_555
O98 Sc4 2.139335 1_555
O99 Si5 1.636307 1_555
O99 Y4 2.219883 1_555
O100 S3 1.505250 1_555
O100 Sc4 2.219309 1_555
O101 S2 1.480481 1_655
O101 Y4 2.294345 1_555
O102 Si2 1.656502 1_555
O102 Y5 2.198787 1_555
O103 Si3 1.648360 1_555
O103 Sc5 2.207750 1_555
O104 S1 1.478682 1_555
O104 Y5 2.309292 1_555
O105 S0 1.487834 1_555
O105 Sc5 2.291518 1_555
O106 Si0 1.643003 1_545
O106 Y5 2.235516 1_555
O107 Si1 1.646265 1_545
O107 Sc5 2.230964 1_555
O108 Si13 1.661727 1_555
O108 Sc6 2.028983 1_555
O109 Si14 1.644509 1_555
O109 Sc7 2.113282 1_555
O110 S12 1.498745 1_555
O110 Sc6 2.212891 1_555
O111 S11 1.486680 1_655
O111 Sc7 2.334355 1_555
O112 Si15 1.659214 1_545
O112 Sc6 2.150741 1_555
O113 Si16 1.649108 1_545
O113 Sc7 2.179080 1_555
O114 Si17 1.655283 1_545
O114 Sc8 1.986636 1_555
O115 Si18 1.662385 1_545
O115 Sc9 2.009896 1_555
O116 Si19 1.657609 1_555
O116 Sc8 2.094834 1_555
O117 Si20 1.657289 1_555
O117 Sc9 2.130590 1_555
O118 S14 1.498019 1_555
O118 Sc8 2.241672 1_555
O119 S13 1.494743 1_655
O119 Sc9 2.200772 1_555
O120 S9 1.472951 1_555
O120 Y6 2.390997 1_555
O121 S10 1.478254 1_555
O121 Y7 2.438314 1_555
O122 Si11 1.657912 1_455
O122 Y6 2.222822 1_555
O123 Si10 1.626591 1_555
O123 Y7 2.223036 1_555
O124 S8 1.502113 1_565
O124 Y6 2.350487 1_555
O125 Si12 1.664553 1_565
O125 Y7 2.204029 1_555
O126 S4 1.483643 1_565
O126 Y8 2.455206 1_555
O127 S5 1.473829 1_565
O127 Y9 2.397805 1_555
O128 S6 1.505755 1_555
O128 Y8 2.403067 1_555
O129 S7 1.505483 1_555
O129 Y9 2.348065 1_555
O130 Si9 1.647846 1_455
O130 Y8 2.207332 1_555
O131 Si8 1.640940 1_555
O131 Y9 2.251021 1_555
O132 Si0 1.643011 1_555
O132 Y10 2.204991 1_555
O133 Si1 1.654191 1_555
O133 Sc10 2.110610 1_555
O134 Si2 1.643845 1_555
O134 Y10 2.158571 1_555
O135 Si3 1.654721 1_555
O135 Sc10 1.996414 1_555
O136 S0 1.481313 1_455
O136 Y10 2.432894 1_555
O137 S1 1.491904 1_555
O137 Sc10 2.348786 1_555
O138 Si4 1.654912 1_555
O138 Sc11 2.149618 1_555
O139 Si5 1.635663 1_555
O139 Y11 2.223976 1_555
O140 S2 1.496507 1_555
O140 Sc11 2.363650 1_555
O141 S3 1.470742 1_555
O141 Y11 2.511918 1_555
O142 Si6 1.644730 1_555
O142 Sc11 2.034981 1_555
O143 Si7 1.640319 1_565
O143 Y11 2.173734 1_555
