# generated using pymatgen
data_Na5Ta2In2Si3(PO8)3
_symmetry_space_group_name_H-M   'P 1'
_cell_length_a   9.03006212
_cell_length_b   9.04338756
_cell_length_c   22.75244698
_cell_angle_alpha   89.72233693
_cell_angle_beta   90.26751207
_cell_angle_gamma   119.68850791
_symmetry_Int_Tables_number   1
_chemical_formula_structural   Na5Ta2In2Si3(PO8)3
_chemical_formula_sum   'Na15 Ta6 In6 Si9 P9 O72'
_cell_volume   1614.09342108
_cell_formula_units_Z   3
loop_
 _symmetry_equiv_pos_site_id
 _symmetry_equiv_pos_as_xyz
  1  'x, y, z'
loop_
 _atom_site_type_symbol
 _atom_site_label
 _atom_site_symmetry_multiplicity
 _atom_site_fract_x
 _atom_site_fract_y
 _atom_site_fract_z
 _atom_site_occupancy
  Na  Na0  1  0.98973006  0.62722500  0.24639599  1
  Na  Na1  1  0.37068982  0.01072942  0.74664259  1
  Na  Na2  1  0.03826003  0.69641495  0.57983989  1
  Na  Na3  1  0.64891534  0.95996374  0.58130642  1
  Na  Na4  1  0.30213168  0.96055138  0.07970337  1
  Na  Na5  1  0.03757234  0.35057457  0.08311252  1
  Na  Na6  1  0.97792754  0.67703902  0.91653640  1
  Na  Na7  1  0.97037224  0.29615021  0.41193172  1
  Na  Na8  1  0.32588176  0.02305849  0.41647926  1
  Na  Na9  1  0.99237391  0.99118260  0.49464324  1
  Na  Na10  1  0.99668603  0.00164271  0.99379313  1
  Na  Na11  1  0.66999135  0.32766697  0.82875266  1
  Na  Na12  1  0.66440000  0.33094108  0.32760450  1
  Na  Na13  1  0.34636349  0.65982537  0.16273348  1
  Na  Na14  1  0.33887780  0.65203616  0.66221208  1
  Ta  Ta0  1  0.99867041  0.00071658  0.64696221  1
  Ta  Ta1  1  0.99883013  0.00084467  0.14666946  1
  Ta  Ta2  1  0.65816795  0.33023380  0.97949708  1
  Ta  Ta3  1  0.66546875  0.33812684  0.47987175  1
  Ta  Ta4  1  0.33386968  0.66632751  0.31323471  1
  Ta  Ta5  1  0.33999924  0.67021597  0.81298653  1
  In  In0  1  0.98966677  0.99475650  0.35029411  1
  In  In1  1  0.00034767  0.00763643  0.85141139  1
  In  In2  1  0.66818349  0.33419734  0.68522472  1
  In  In3  1  0.66602119  0.33165078  0.18470493  1
  In  In4  1  0.33577789  0.66593264  0.01665517  1
  In  In5  1  0.33851962  0.66778110  0.51724439  1
  Si  Si0  1  0.00127213  0.29536930  0.25132457  1
  Si  Si1  1  0.70810194  0.00131271  0.75079185  1
  Si  Si2  1  0.37172068  0.04312350  0.58470169  1
  Si  Si3  1  0.66489454  0.62431713  0.58524118  1
  Si  Si4  1  0.95593972  0.62678353  0.08370273  1
  Si  Si5  1  0.37512261  0.33521166  0.08487293  1
  Si  Si6  1  0.33547580  0.96244411  0.91706964  1
  Si  Si7  1  0.62837129  0.96117148  0.41808803  1
  Si  Si8  1  0.03872570  0.66606543  0.41739267  1
  P  P0  1  0.29269028  -0.00006660  0.25154807  1
  P  P1  1  0.70515555  0.70933590  0.24969382  1
  P  P2  1  0.28844812  0.29321951  0.75067683  1
  P  P3  1  0.00031660  0.70652959  0.75188791  1
  P  P4  1  0.95776132  0.33145651  0.58306087  1
  P  P5  1  0.66858390  0.04359181  0.08321258  1
  P  P6  1  0.62385353  0.66364000  0.91691322  1
  P  P7  1  0.03991601  0.37469782  0.91739187  1
  P  P8  1  0.33787283  0.37919379  0.41623170  1
  O  O0  1  0.21355333  0.02012080  0.30734434  1
  O  O1  1  0.81708001  0.78122684  0.30387883  1
  O  O2  1  0.97878373  0.19318082  0.31130758  1
  O  O3  1  0.21615120  0.18113468  0.80440913  1
  O  O4  1  0.98061195  0.78607465  0.80765429  1
  O  O5  1  0.81706115  0.02636492  0.80819269  1
  O  O6  1  0.80360003  0.97503435  0.69146906  1
  O  O7  1  0.16958729  0.19885718  0.69566401  1
  O  O8  1  0.03303192  0.83052034  0.69667222  1
  O  O9  1  0.80071131  0.82885413  0.19514015  1
  O  O10  1  0.02294417  0.19267821  0.19296911  1
  O  O11  1  0.16942433  0.96839530  0.19633325  1
  O  O12  1  0.88193039  0.36521690  0.63692807  1
  O  O13  1  0.48811038  0.11441439  0.64243921  1
  O  O14  1  0.64534031  0.51833219  0.64281223  1
  O  O15  1  0.88651789  0.51198464  0.14205797  1
  O  O16  1  0.63377371  0.11615768  0.13784785  1
  O  O17  1  0.48209106  0.35756770  0.14249945  1
  O  O18  1  0.47042273  0.29818075  0.02716133  1
  O  O19  1  0.83305454  0.52721776  0.02502634  1
  O  O20  1  0.70187365  0.16617617  0.02875774  1
  O  O21  1  0.47190640  0.16714813  0.52587915  1
  O  O22  1  0.70134180  0.53016708  0.52723940  1
  O  O23  1  0.83821909  0.29855201  0.52714439  1
  O  O24  1  0.54805974  0.69093458  0.97186730  1
  O  O25  1  0.13660504  0.44835161  0.97484338  1
  O  O26  1  0.29954297  0.85069776  0.97612432  1
  O  O27  1  0.55381083  0.85979215  0.47838595  1
  O  O28  1  0.29778762  0.44979892  0.47037518  1
  O  O29  1  0.14675477  0.69551048  0.47668811  1
  O  O30  1  0.13737363  0.63312757  0.35952408  1
  O  O31  1  0.49568922  0.85771350  0.36170865  1
  O  O32  1  0.36402359  0.49635244  0.36140528  1
  O  O33  1  0.13724527  0.49818837  0.86419603  1
  O  O34  1  0.35941128  0.85746348  0.85940295  1
  O  O35  1  0.50524558  0.63766388  0.86206302  1
  O  O36  1  0.02934205  0.83805998  0.40991259  1
  O  O37  1  0.82368769  0.00379758  0.41379040  1
  O  O38  1  0.18980065  0.19784881  0.40886823  1
  O  O39  1  0.01297302  0.19667899  0.91209282  1
  O  O40  1  0.16435251  0.97554809  0.90994566  1
  O  O41  1  0.80607438  0.80898522  0.91020603  1
  O  O42  1  0.96357261  0.16044656  0.58955826  1
  O  O43  1  0.18142945  0.02836200  0.59172023  1
  O  O44  1  0.84696935  0.81629921  0.59131368  1
  O  O45  1  0.97256564  0.81804708  0.09182473  1
  O  O46  1  0.83983057  0.03731897  0.08953645  1
  O  O47  1  0.18360671  0.15313577  0.09130568  1
  O  O48  1  0.66504652  0.15440041  0.74645183  1
  O  O49  1  0.46615097  0.31508153  0.74363394  1
  O  O50  1  0.85147821  0.52971539  0.74460787  1
  O  O51  1  0.68458901  0.53253424  0.24318424  1
  O  O52  1  0.84362747  0.33224456  0.24681809  1
  O  O53  1  0.47000714  0.14878269  0.24438207  1
  O  O54  1  0.63726695  0.49491823  0.92225093  1
  O  O55  1  0.86306394  0.37300520  0.92125760  1
  O  O56  1  0.51326840  0.14925265  0.92351977  1
  O  O57  1  0.63265830  0.14974555  0.42254030  1
  O  O58  1  0.50502179  0.36629166  0.42262633  1
  O  O59  1  0.85379675  0.48556408  0.42297169  1
  O  O60  1  0.33331586  0.48731038  0.07759946  1
  O  O61  1  0.14969407  0.65975524  0.07796450  1
  O  O62  1  0.51565750  0.86732186  0.07531933  1
  O  O63  1  0.33718844  0.84947532  0.57933446  1
  O  O64  1  0.50979124  0.66252431  0.57989258  1
  O  O65  1  0.13383645  0.48428997  0.57529722  1
  O  O66  1  0.29639461  0.82578323  0.25569185  1
  O  O67  1  0.52872869  0.70094149  0.25611071  1
  O  O68  1  0.17972804  0.48778603  0.25638297  1
  O  O69  1  0.29730812  0.47020989  0.75753020  1
  O  O70  1  0.17391418  0.70081231  0.75640068  1
  O  O71  1  0.51433909  0.82048715  0.75783170  1
loop_
_geom_bond_atom_site_label_1
_geom_bond_atom_site_label_2
_geom_bond_distance
_geom_bond_site_symmetry_2
Na0 O52 2.317439 1_555
Na0 O51 2.447963 1_555
Na0 O66 2.451560 1_655
Na0 O15 2.575177 1_555
Na0 O68 2.592688 1_655
Na0 O1 2.875456 1_555
Na0 O30 2.881721 1_655
Na0 O11 2.910965 1_655
Na1 O48 2.309218 1_555
Na1 O49 2.443732 1_555
Na1 O70 2.475136 1_545
Na1 O13 2.577139 1_555
Na1 O71 2.628810 1_545
Na1 O3 2.866472 1_555
Na1 O8 2.882497 1_545
Na1 O34 2.888218 1_545
Na2 O63 2.345535 1_555
Na2 O65 2.465424 1_555
Na2 O44 2.467667 1_455
Na2 O29 2.549059 1_555
Na2 O43 2.629878 1_565
Na2 O22 2.898502 1_455
Na2 O12 2.905513 1_455
Na2 O8 2.937398 1_555
Na3 O64 2.338318 1_555
Na3 O63 2.477353 1_555
Na3 O27 2.504564 1_555
Na3 O42 2.508217 1_565
Na3 O44 2.689480 1_555
Na3 O6 2.834447 1_555
Na3 O13 2.835646 1_565
Na3 O23 2.935085 1_565
Na4 O61 2.363761 1_555
Na4 O62 2.459975 1_555
Na4 O47 2.470217 1_565
Na4 O26 2.557457 1_554
Na4 O45 2.607413 1_455
Na4 O18 2.906297 1_565
Na4 O16 2.916411 1_565
Na4 O11 2.932317 1_555
Na5 O60 2.325352 1_555
Na5 O61 2.459753 1_555
Na5 O46 2.494542 1_455
Na5 O25 2.620314 1_554
Na5 O47 2.699744 1_555
Na5 O15 2.792548 1_455
Na5 O10 2.843516 1_555
Na5 O20 2.911549 1_455
Na6 O40 2.375020 1_655
Na6 O41 2.383967 1_555
Na6 O55 2.412536 1_555
Na6 O4 2.657683 1_555
Na6 O54 2.678693 1_555
Na6 O19 2.807521 1_556
Na6 O26 2.864406 1_655
Na6 O33 2.905776 1_655
Na7 O37 2.297118 1_555
Na7 O59 2.428628 1_555
Na7 O2 2.491345 1_555
Na7 O38 2.543234 1_655
Na7 O57 2.667467 1_555
Na7 O23 2.889910 1_555
Na7 O28 2.889990 1_655
Na7 O30 2.900352 1_655
Na8 O36 2.356427 1_545
Na8 O57 2.420700 1_555
Na8 O38 2.440906 1_555
Na8 O0 2.673148 1_555
Na8 O58 2.701738 1_555
Na8 O21 2.816231 1_555
Na8 O31 2.906392 1_545
Na8 O29 2.915907 1_545
Na9 O37 2.421025 1_565
Na9 O36 2.497054 1_655
Na9 O44 2.645614 1_555
Na9 O38 2.678925 1_665
Na9 O43 2.703600 1_665
Na9 O42 2.739713 1_565
Na10 O39 2.510347 1_655
Na10 O40 2.524422 1_645
Na10 O41 2.577989 1_545
Na10 O46 2.709986 1_556
Na10 O47 2.711496 1_656
Na10 O45 2.718362 1_546
Na11 O48 2.433516 1_555
Na11 O50 2.592087 1_555
Na11 O55 2.627466 1_555
Na11 O49 2.629272 1_555
Na11 O56 2.643512 1_555
Na11 O54 2.716670 1_555
Na12 O52 2.450859 1_555
Na12 O53 2.552494 1_555
Na12 O51 2.585793 1_555
Na12 O57 2.634228 1_555
Na12 O59 2.685945 1_555
Na12 O58 2.709086 1_555
Na13 O60 2.458644 1_555
Na13 O67 2.594669 1_555
Na13 O61 2.615484 1_555
Na13 O68 2.627489 1_555
Na13 O62 2.639032 1_555
Na13 O66 2.764039 1_555
Na14 O64 2.404004 1_555
Na14 O63 2.595792 1_555
Na14 O65 2.617761 1_555
Na14 O69 2.628627 1_555
Na14 O71 2.678290 1_555
Na14 O70 2.774160 1_555
In0 O2 2.043260 1_565
In0 O1 2.072752 1_555
In0 O36 2.110965 1_655
In0 O37 2.117307 1_565
In0 O0 2.156798 1_665
In0 O38 2.264669 1_665
In1 O5 1.998952 1_455
In1 O3 2.092230 1_555
In1 O40 2.110621 1_545
In1 O39 2.161068 1_555
In1 O4 2.168316 1_445
In1 O41 2.229616 1_445
In2 O14 2.017293 1_555
In2 O13 2.084406 1_555
In2 O12 2.119469 1_555
In2 O48 2.125563 1_555
In2 O50 2.189683 1_555
In2 O49 2.198253 1_555
In3 O17 2.025879 1_555
In3 O15 2.086094 1_555
In3 O16 2.115248 1_555
In3 O52 2.130675 1_555
In3 O53 2.193762 1_555
In3 O51 2.195078 1_555
In4 O26 2.067173 1_554
In4 O24 2.085858 1_554
In4 O60 2.115562 1_555
In4 O25 2.123228 1_554
In4 O61 2.168107 1_555
In4 O62 2.193135 1_555
In5 O27 2.057569 1_555
In5 O29 2.079892 1_555
In5 O28 2.111153 1_555
In5 O64 2.116025 1_555
In5 O63 2.176688 1_555
In5 O65 2.208582 1_555
O0 P0 1.515118 1_555
O1 P1 1.519640 1_555
O2 Si0 1.600717 1_655
O3 P2 1.512678 1_555
O4 P3 1.515516 1_655
O5 Si1 1.579596 1_555
O6 Si1 1.684904 1_565
O6 Ta0 1.947145 1_565
O7 P2 1.592937 1_555
O7 Ta0 2.021012 1_455
O8 P3 1.607648 1_555
O8 Ta0 2.048756 1_465
O9 P1 1.589527 1_555
O9 Ta1 2.020265 1_565
O10 Si0 1.690564 1_555
O10 Ta1 1.951441 1_455
O11 P0 1.604524 1_565
O11 Ta1 2.040672 1_465
O12 P4 1.510888 1_555
O13 Si2 1.603155 1_555
O14 Si3 1.577329 1_555
O15 Si4 1.607287 1_555
O16 P5 1.513478 1_555
O17 Si5 1.578067 1_555
O18 Si5 1.696227 1_555
O18 Ta2 1.913546 1_554
O19 Si4 1.682999 1_555
O19 Ta2 1.989060 1_554
O20 P5 1.585700 1_555
O20 Ta2 2.042768 1_554
O21 Si2 1.690939 1_555
O21 Ta3 1.966194 1_555
O22 Si3 1.693326 1_555
O22 Ta3 1.933947 1_555
O23 P4 1.595323 1_555
O23 Ta3 2.062036 1_555
O24 P6 1.506997 1_555
O25 P7 1.528516 1_555
O26 Si6 1.611828 1_555
O27 Si7 1.600318 1_555
O28 P8 1.515592 1_555
O29 Si8 1.605154 1_555
O30 Si8 1.701003 1_555
O30 Ta4 1.958171 1_555
O31 Si7 1.686192 1_555
O31 Ta4 1.960976 1_555
O32 P8 1.573698 1_555
O32 Ta4 2.008402 1_555
O33 P7 1.584017 1_555
O33 Ta5 2.076249 1_555
O34 Si6 1.699271 1_555
O34 Ta5 1.932630 1_555
O35 P6 1.581418 1_555
O35 Ta5 1.994111 1_555
O36 Si8 1.607268 1_555
O37 Si7 1.611408 1_545
O38 P8 1.527698 1_555
O39 P7 1.509671 1_555
O40 Si6 1.614618 1_555
O41 P6 1.522007 1_555
O42 P4 1.579367 1_555
O42 Ta0 2.079476 1_555
O43 Si2 1.664677 1_555
O43 Ta0 1.993357 1_455
O44 Si3 1.705637 1_555
O44 Ta0 2.000569 1_565
O45 Si4 1.671543 1_555
O45 Ta1 1.993744 1_565
O46 P5 1.581111 1_555
O46 Ta1 2.075470 1_555
O47 Si5 1.703750 1_555
O47 Ta1 1.998515 1_455
O48 Si1 1.615258 1_555
O49 P2 1.525633 1_555
O50 P3 1.504092 1_655
O51 P1 1.523405 1_555
O52 Si0 1.617633 1_655
O53 P0 1.505869 1_555
O54 P6 1.593321 1_555
O54 Ta2 2.051212 1_555
O55 P7 1.592299 1_655
O55 Ta2 2.153559 1_555
O56 Si6 1.663318 1_545
O56 Ta2 1.973881 1_555
O57 Si7 1.690034 1_545
O57 Ta3 2.051716 1_555
O58 P8 1.576452 1_555
O58 Ta3 2.050653 1_555
O59 Si8 1.664057 1_655
O59 Ta3 2.025740 1_555
O60 Si5 1.604200 1_555
O61 Si4 1.628523 1_455
O62 P5 1.516647 1_565
O63 Si2 1.624733 1_565
O64 Si3 1.604128 1_555
O65 P4 1.514242 1_455
O66 P0 1.594069 1_565
O66 Ta4 2.090214 1_555
O67 P1 1.564434 1_555
O67 Ta4 2.086910 1_555
O68 Si0 1.691319 1_555
O68 Ta4 1.998703 1_555
O69 P2 1.571008 1_555
O69 Ta5 2.083042 1_555
O70 P3 1.596655 1_555
O70 Ta5 2.091168 1_555
O71 Si1 1.710858 1_565
O71 Ta5 1.944909 1_555
