# generated using pymatgen
data_MgMo2(SeS)2
_symmetry_space_group_name_H-M   'P 1'
_cell_length_a   3.27115003
_cell_length_b   3.26904700
_cell_length_c   18.70378553
_cell_angle_alpha   75.19491709
_cell_angle_beta   90.00656325
_cell_angle_gamma   120.02266588
_symmetry_Int_Tables_number   1
_chemical_formula_structural   MgMo2(SeS)2
_chemical_formula_sum   'Mg1 Mo2 Se2 S2'
_cell_volume   165.46381999
_cell_formula_units_Z   1
loop_
 _symmetry_equiv_pos_site_id
 _symmetry_equiv_pos_as_xyz
  1  'x, y, z'
loop_
 _atom_site_type_symbol
 _atom_site_label
 _atom_site_symmetry_multiplicity
 _atom_site_fract_x
 _atom_site_fract_y
 _atom_site_fract_z
 _atom_site_occupancy
  Mg  Mg0  1  0.93899900  0.88668300  0.24029800  1
  Mo  Mo0  1  0.52483400  0.04978700  0.00076600  1
  Mo  Mo1  1  0.35649000  0.71690800  0.49918600  1
  Se  Se0  1  0.59793200  0.19956700  0.59381900  1
  Se  Se1  1  0.78245100  0.56908800  0.40408600  1
  S  S0  1  0.10799400  0.21592500  0.08654200  1
  S  S1  1  0.27456700  0.54940700  0.91530300  1
loop_
_geom_bond_atom_site_label_1
_geom_bond_atom_site_label_2
_geom_bond_distance
_geom_bond_site_symmetry_2
Mg0 S0 2.749083 1_665
Mg0 Se1 2.927076 1_555
Mo0 S1 2.428114 1_654
Mo0 S1 2.428252 1_554
Mo0 S1 2.428378 1_544
Mo0 S0 2.431018 1_545
Mo0 S0 2.432077 1_555
Mo0 S0 2.432215 1_655
Mo1 Se0 2.534168 1_455
Mo1 Se0 2.534427 1_555
Mo1 Se0 2.534987 1_565
Mo1 Se1 2.539674 1_565
Mo1 Se1 2.540185 1_555
Mo1 Se1 2.540453 1_455
