# generated using pymatgen
data_MgTiNbO4
_symmetry_space_group_name_H-M   'P 1'
_cell_length_a   5.74005882
_cell_length_b   5.74064430
_cell_length_c   5.74064574
_cell_angle_alpha   141.31254299
_cell_angle_beta   136.59933133
_cell_angle_gamma   59.52838438
_symmetry_Int_Tables_number   1
_chemical_formula_structural   MgTiNbO4
_chemical_formula_sum   'Mg1 Ti1 Nb1 O4'
_cell_volume   80.44551902
_cell_formula_units_Z   1
loop_
 _symmetry_equiv_pos_site_id
 _symmetry_equiv_pos_as_xyz
  1  'x, y, z'
loop_
 _atom_site_type_symbol
 _atom_site_label
 _atom_site_symmetry_multiplicity
 _atom_site_fract_x
 _atom_site_fract_y
 _atom_site_fract_z
 _atom_site_occupancy
  Mg  Mg0  1  0.31381500  0.81383100  0.49998400  1
  Ti  Ti0  1  0.71316200  0.21324100  0.49992100  1
  Nb  Nb0  1  0.02631500  0.02624000  0.00007600  1
  O  O0  1  0.51382100  0.01376500  0.50005600  1
  O  O1  1  0.24418300  0.24422400  0.99995900  1
  O  O2  1  0.95747400  0.45744400  0.50003000  1
  O  O3  1  0.77884900  0.77887400  0.99997500  1
loop_
_geom_bond_atom_site_label_1
_geom_bond_atom_site_label_2
_geom_bond_distance
_geom_bond_site_symmetry_2
Mg0 O0 1.992566 1_565
Mg0 O1 2.024090 1_554
Mg0 O1 2.024090 1_565
Mg0 O3 2.150893 1_454
Mg0 O3 2.150927 1_555
Nb0 O2 2.021331 1_455
Nb0 O2 2.021334 1_444
Nb0 O0 2.126083 1_555
Nb0 O0 2.126209 1_454
Nb0 O1 2.172460 1_554
Nb0 O3 2.465275 1_444
O0 Ti0 1.988002 1_555
O1 Ti0 2.144740 1_556
O1 Ti0 2.144962 1_455
O2 Ti0 2.433757 1_555
O3 Ti0 2.010860 1_555
O3 Ti0 2.010860 1_566
