# generated using pymatgen
data_NaLaNb3SiP5O24
_symmetry_space_group_name_H-M   'P 1'
_cell_length_a   8.94698049
_cell_length_b   8.94768548
_cell_length_c   23.31308958
_cell_angle_alpha   89.76580503
_cell_angle_beta   90.15021387
_cell_angle_gamma   120.04133023
_symmetry_Int_Tables_number   1
_chemical_formula_structural   NaLaNb3SiP5O24
_chemical_formula_sum   'Na3 La3 Nb9 Si3 P15 O72'
_cell_volume   1615.59655590
_cell_formula_units_Z   3
loop_
 _symmetry_equiv_pos_site_id
 _symmetry_equiv_pos_as_xyz
  1  'x, y, z'
loop_
 _atom_site_type_symbol
 _atom_site_label
 _atom_site_symmetry_multiplicity
 _atom_site_fract_x
 _atom_site_fract_y
 _atom_site_fract_z
 _atom_site_occupancy
  Na  Na0  1  0.00076315  -0.00000953  0.99624290  1
  Na  Na1  1  0.65975860  0.33063981  0.83659967  1
  Na  Na2  1  0.66437306  0.33151834  0.33483975  1
  La  La0  1  0.00492369  0.00154096  0.85306433  1
  La  La1  1  0.66739547  0.33451000  0.97894457  1
  La  La2  1  0.66599493  0.33465222  0.47940084  1
  Nb  Nb0  1  0.99333003  0.99702433  0.35763563  1
  Nb  Nb1  1  0.00317176  0.00380703  0.65169550  1
  Nb  Nb2  1  0.99694123  0.00074864  0.15254132  1
  Nb  Nb3  1  0.66465194  0.33341384  0.67987547  1
  Nb  Nb4  1  0.66892888  0.33584984  0.18711059  1
  Nb  Nb5  1  0.33341925  0.66622607  0.02471845  1
  Nb  Nb6  1  0.33297771  0.66572730  0.52107549  1
  Nb  Nb7  1  0.33194682  0.66561822  0.30510474  1
  Nb  Nb8  1  0.33384981  0.66631698  0.80772249  1
  Si  Si0  1  0.71714258  0.70845756  0.25339638  1
  Si  Si1  1  0.99081905  0.28125803  0.25275900  1
  Si  Si2  1  0.30446157  0.29627283  0.75093939  1
  P  P0  1  0.28873143  0.00909928  0.25279148  1
  P  P1  1  0.99233162  0.69550954  0.74879919  1
  P  P2  1  0.70409660  0.00716652  0.74851301  1
  P  P3  1  0.96546490  0.32952335  0.58243934  1
  P  P4  1  0.36282119  0.03236795  0.58287498  1
  P  P5  1  0.67145403  0.63791530  0.58256197  1
  P  P6  1  0.96485155  0.63453227  0.08657567  1
  P  P7  1  0.66886831  0.03648188  0.08637800  1
  P  P8  1  0.36681804  0.32924387  0.08618130  1
  P  P9  1  0.60751080  0.66876358  0.91677708  1
  P  P10  1  0.05982452  0.39337706  0.91678617  1
  P  P11  1  0.33214219  0.93981524  0.91696555  1
  P  P12  1  0.61566097  0.93842644  0.41248581  1
  P  P13  1  0.32070278  0.38312914  0.41211739  1
  P  P14  1  0.06330053  0.68068164  0.41227510  1
  O  O0  1  0.20828228  0.04332815  0.30582837  1
  O  O1  1  0.84320093  0.79748174  0.30912850  1
  O  O2  1  0.95861970  0.15589240  0.30833153  1
  O  O3  1  0.25419416  0.18722393  0.80840962  1
  O  O4  1  0.93613545  0.74255327  0.80345550  1
  O  O5  1  0.80697962  0.05863376  0.80337601  1
  O  O6  1  0.80108816  0.97422704  0.69942220  1
  O  O7  1  0.16569014  0.18723745  0.69907388  1
  O  O8  1  0.02064125  0.82483334  0.69974409  1
  O  O9  1  0.81149229  0.83131341  0.19823044  1
  O  O10  1  0.02570000  0.19204346  0.19762681  1
  O  O11  1  0.17411179  0.97606694  0.19965463  1
  O  O12  1  0.87142717  0.36625900  0.63140710  1
  O  O13  1  0.49597546  0.12920280  0.63183203  1
  O  O14  1  0.63415512  0.50277052  0.63126340  1
  O  O15  1  0.86404644  0.50524482  0.13737085  1
  O  O16  1  0.64104890  0.13448305  0.13682632  1
  O  O17  1  0.49411947  0.35763388  0.13689358  1
  O  O18  1  0.42512655  0.28327788  0.03165330  1
  O  O19  1  0.85736109  0.57829175  0.03256194  1
  O  O20  1  0.71844290  0.14195862  0.03181183  1
  O  O21  1  0.41695097  0.13866303  0.52885292  1
  O  O22  1  0.72125673  0.58313451  0.52844584  1
  O  O23  1  0.86210078  0.28231482  0.52795518  1
  O  O24  1  0.50083699  0.65271304  0.97293308  1
  O  O25  1  0.15079671  0.49873103  0.97310935  1
  O  O26  1  0.34801321  0.84815798  0.97338639  1
  O  O27  1  0.52683466  0.83713840  0.46880532  1
  O  O28  1  0.31009972  0.47389036  0.46816965  1
  O  O29  1  0.16440949  0.68996078  0.46863273  1
  O  O30  1  0.15964134  0.67023543  0.35944727  1
  O  O31  1  0.50992564  0.84338877  0.35954236  1
  O  O32  1  0.33152185  0.49186856  0.35910696  1
  O  O33  1  0.16606435  0.48631600  0.86154584  1
  O  O34  1  0.31778635  0.83514723  0.86189918  1
  O  O35  1  0.51626746  0.68440362  0.86129890  1
  O  O36  1  0.05654889  0.85086827  0.40723345  1
  O  O37  1  0.79507460  0.94716164  0.40787371  1
  O  O38  1  0.15377391  0.20459071  0.40679260  1
  O  O39  1  0.05034786  0.21978813  0.92382175  1
  O  O40  1  0.16702100  0.94713828  0.92507106  1
  O  O41  1  0.78056894  0.83286964  0.92405433  1
  O  O42  1  0.99724188  0.18154472  0.60162314  1
  O  O43  1  0.18274555  0.99640660  0.60285377  1
  O  O44  1  0.81423773  0.81561212  0.60316181  1
  O  O45  1  0.00010725  0.81723643  0.10211549  1
  O  O46  1  0.82089338  0.00400586  0.10077337  1
  O  O47  1  0.18490957  0.17735916  0.10090728  1
  O  O48  1  0.67488550  0.15792475  0.72970702  1
  O  O49  1  0.49497142  0.33040837  0.72951848  1
  O  O50  1  0.84709646  0.51321062  0.72958045  1
  O  O51  1  0.69195971  0.51671838  0.23998324  1
  O  O52  1  0.81968496  0.29878154  0.23960621  1
  O  O53  1  0.47013172  0.16811048  0.24115901  1
  O  O54  1  0.61560624  0.50380468  0.91042140  1
  O  O55  1  0.88659890  0.38516204  0.91041467  1
  O  O56  1  0.49689439  0.11383962  0.91130997  1
  O  O57  1  0.64053967  0.11911649  0.41250603  1
  O  O58  1  0.48060821  0.36480582  0.41174767  1
  O  O59  1  0.88350996  0.52288114  0.41232449  1
  O  O60  1  0.35321368  0.49434838  0.07783514  1
  O  O61  1  0.14099214  0.64359160  0.07808963  1
  O  O62  1  0.50516435  0.85711518  0.07796490  1
  O  O63  1  0.35207473  0.85484664  0.57181903  1
  O  O64  1  0.50310811  0.64678157  0.57152976  1
  O  O65  1  0.14602701  0.49418211  0.57151405  1
  O  O66  1  0.31249273  0.85031879  0.26115165  1
  O  O67  1  0.52678857  0.68784157  0.26203015  1
  O  O68  1  0.15510678  0.47533450  0.26185561  1
  O  O69  1  0.32031860  0.48605378  0.75914575  1
  O  O70  1  0.15888720  0.68552826  0.75718554  1
  O  O71  1  0.52342828  0.84575187  0.75676289  1
loop_
_geom_bond_atom_site_label_1
_geom_bond_atom_site_label_2
_geom_bond_distance
_geom_bond_site_symmetry_2
Na0 O40 2.431678 1_545
Na0 O41 2.450122 1_445
Na0 O39 2.453245 1_555
Na0 O47 2.929087 1_556
Na0 O46 2.934093 1_456
Na0 O45 2.953568 1_546
Na1 O56 2.464841 1_555
Na1 O54 2.481300 1_555
Na1 O55 2.513079 1_555
Na1 O49 2.895405 1_555
Na1 O48 2.976457 1_555
Na1 O50 2.991627 1_555
Na2 O57 2.550282 1_555
Na2 O58 2.552794 1_555
Na2 O59 2.585418 1_555
Na2 O51 2.694552 1_555
Na2 O52 2.715692 1_555
Na2 O53 2.718428 1_555
La0 O3 2.259655 1_555
La0 O5 2.372662 1_455
La0 O4 2.382564 1_445
La0 O40 2.417789 1_545
La0 O39 2.434729 1_555
La0 O41 2.451481 1_445
La1 O18 2.330872 1_556
La1 O20 2.337423 1_556
La1 O19 2.346984 1_556
La1 O56 2.389336 1_555
La1 O55 2.392646 1_555
La1 O54 2.395908 1_555
La2 O23 2.320995 1_555
La2 O22 2.326416 1_555
La2 O21 2.335348 1_555
La2 O58 2.396324 1_555
La2 O59 2.404559 1_555
La2 O57 2.405458 1_555
Nb0 O2 1.965979 1_565
Nb0 O1 1.969305 1_555
Nb0 O37 1.982762 1_555
Nb0 O36 2.022859 1_655
Nb0 O38 2.040264 1_665
Nb0 O0 2.130563 1_665
Nb1 O7 1.909181 1_555
Nb1 O42 1.990895 1_455
Nb1 O43 1.999736 1_545
Nb1 O8 2.019579 1_545
Nb1 O6 2.026342 1_445
Nb1 O44 2.031925 1_445
Nb2 O9 1.914006 1_545
Nb2 O10 1.916517 1_655
Nb2 O46 1.993495 1_555
Nb2 O11 2.026630 1_645
Nb2 O47 2.026981 1_655
Nb2 O45 2.035071 1_645
Nb3 O49 1.900772 1_555
Nb3 O48 1.987980 1_555
Nb3 O50 1.992835 1_555
Nb3 O14 2.013312 1_555
Nb3 O13 2.029192 1_555
Nb3 O12 2.061449 1_555
Nb4 O51 1.965193 1_555
Nb4 O52 1.965458 1_555
Nb4 O15 2.009094 1_555
Nb4 O17 2.036781 1_555
Nb4 O16 2.061205 1_555
Nb4 O53 2.080219 1_555
Nb5 O26 1.967535 1_554
Nb5 O24 1.976816 1_554
Nb5 O25 1.978893 1_554
Nb5 O60 2.045955 1_555
Nb5 O62 2.049121 1_555
Nb5 O61 2.052627 1_555
Nb6 O65 1.990327 1_555
Nb6 O64 1.994137 1_555
Nb6 O63 2.004482 1_555
Nb6 O29 2.032724 1_555
Nb6 O28 2.042970 1_555
Nb6 O27 2.043980 1_555
Nb7 O68 1.930606 1_555
Nb7 O67 1.935805 1_555
Nb7 O32 1.995008 1_555
Nb7 O30 2.014382 1_555
Nb7 O66 2.021071 1_555
Nb7 O31 2.036239 1_555
Nb8 O69 1.928063 1_555
Nb8 O35 1.994113 1_555
Nb8 O33 1.998645 1_555
Nb8 O70 2.031298 1_555
Nb8 O34 2.032696 1_555
Nb8 O71 2.033325 1_555
O0 P0 1.539214 1_555
O1 Si0 1.641933 1_555
O2 Si1 1.638990 1_555
O3 Si2 1.581932 1_555
O4 P1 1.507723 1_555
O5 P2 1.506486 1_555
O6 P2 1.553623 1_565
O7 Si2 1.656605 1_555
O8 P1 1.551861 1_455
O9 Si0 1.624820 1_555
O10 Si1 1.626820 1_455
O11 P0 1.538326 1_565
O12 P3 1.550531 1_555
O13 P4 1.562080 1_555
O14 P5 1.565063 1_555
O15 P6 1.582320 1_555
O16 P7 1.562881 1_555
O17 P8 1.570100 1_555
O18 P8 1.509930 1_555
O19 P6 1.509321 1_555
O20 P7 1.509870 1_555
O21 P4 1.502493 1_555
O22 P5 1.502384 1_555
O23 P3 1.501389 1_555
O24 P9 1.585315 1_555
O25 P10 1.584786 1_555
O26 P11 1.590501 1_555
O27 P12 1.565717 1_555
O28 P13 1.569258 1_555
O29 P14 1.571924 1_555
O30 P14 1.534821 1_555
O31 P12 1.529214 1_555
O32 P13 1.542668 1_555
O33 P10 1.568361 1_555
O34 P11 1.558903 1_555
O35 P9 1.570409 1_555
O36 P14 1.557855 1_555
O37 P12 1.571492 1_555
O38 P13 1.552348 1_555
O39 P10 1.520761 1_555
O40 P11 1.523486 1_555
O41 P9 1.518731 1_555
O42 P3 1.550937 1_555
O43 P4 1.549152 1_565
O44 P5 1.536210 1_555
O45 P6 1.546346 1_455
O46 P7 1.561942 1_555
O47 P8 1.548598 1_555
O48 P2 1.558109 1_555
O49 Si2 1.652245 1_555
O50 P1 1.559044 1_555
O51 Si0 1.645871 1_555
O52 Si1 1.643319 1_555
O53 P0 1.555329 1_555
O54 P9 1.521401 1_555
O55 P10 1.521285 1_655
O56 P11 1.521842 1_545
O57 P12 1.517608 1_545
O58 P13 1.519442 1_555
O59 P14 1.518902 1_655
O60 P8 1.553275 1_555
O61 P6 1.550114 1_455
O62 P7 1.551426 1_565
O63 P4 1.564932 1_565
O64 P5 1.567956 1_555
O65 P3 1.568860 1_455
O66 P0 1.549694 1_565
O67 Si0 1.631566 1_555
O68 Si1 1.633023 1_455
O69 Si2 1.643646 1_555
O70 P1 1.548673 1_455
O71 P2 1.548440 1_565
