# generated using pymatgen
data_MnSnO3
_symmetry_space_group_name_H-M   'P 1'
_cell_length_a   5.72769094
_cell_length_b   5.72769294
_cell_length_c   5.72769471
_cell_angle_alpha   55.99954758
_cell_angle_beta   55.99956278
_cell_angle_gamma   55.99958216
_symmetry_Int_Tables_number   1
_chemical_formula_structural   MnSnO3
_chemical_formula_sum   'Mn2 Sn2 O6'
_cell_volume   120.55503458
_cell_formula_units_Z   2
loop_
 _symmetry_equiv_pos_site_id
 _symmetry_equiv_pos_as_xyz
  1  'x, y, z'
loop_
 _atom_site_type_symbol
 _atom_site_label
 _atom_site_symmetry_multiplicity
 _atom_site_fract_x
 _atom_site_fract_y
 _atom_site_fract_z
 _atom_site_occupancy
  Mn  Mn0  1  0.36288752  0.36288652  0.36288652  1
  Mn  Mn1  1  0.63711348  0.63711248  0.63711348  1
  Sn  Sn0  1  0.15077161  0.15077261  0.15077261  1
  Sn  Sn1  1  0.84922839  0.84922839  0.84922839  1
  O  O0  1  0.76914417  0.44556361  0.04573679  1
  O  O1  1  0.44556361  0.04573679  0.76914517  1
  O  O2  1  0.04573779  0.76914517  0.44556361  1
  O  O3  1  0.23085583  0.55443739  0.95426221  1
  O  O4  1  0.95426221  0.23085583  0.55443539  1
  O  O5  1  0.55443639  0.95426121  0.23085583  1
loop_
_geom_bond_atom_site_label_1
_geom_bond_atom_site_label_2
_geom_bond_distance
_geom_bond_site_symmetry_2
Mn0 O0 2.116954 1_555
Mn0 O1 2.116962 1_555
Mn0 O2 2.116964 1_555
Mn0 O3 2.330912 1_554
Mn0 O4 2.330916 1_455
Mn0 O5 2.330918 1_545
Mn1 O3 2.116954 1_555
Mn1 O4 2.116957 1_555
Mn1 O5 2.116959 1_555
Mn1 O0 2.330907 1_556
Mn1 O1 2.330914 1_565
Mn1 O2 2.330916 1_655
O0 Sn0 2.048837 1_655
O0 Sn1 2.126302 1_554
O1 Sn0 2.048838 1_556
O1 Sn1 2.126299 1_545
O2 Sn0 2.048831 1_565
O2 Sn1 2.126299 1_455
O3 Sn1 2.048832 1_455
O3 Sn0 2.126300 1_556
O4 Sn1 2.048832 1_545
O4 Sn0 2.126289 1_655
O5 Sn1 2.048830 1_554
O5 Sn0 2.126296 1_565
