# generated using pymatgen
data_TbGeIr
_symmetry_space_group_name_H-M   'P 1'
_cell_length_a   4.30766942
_cell_length_b   6.90255646
_cell_length_c   7.56813304
_cell_angle_alpha   90.00000000
_cell_angle_beta   90.00000000
_cell_angle_gamma   90.00000000
_symmetry_Int_Tables_number   1
_chemical_formula_structural   TbGeIr
_chemical_formula_sum   'Tb4 Ge4 Ir4'
_cell_volume   225.03034851
_cell_formula_units_Z   4
loop_
 _symmetry_equiv_pos_site_id
 _symmetry_equiv_pos_as_xyz
  1  'x, y, z'
loop_
 _atom_site_type_symbol
 _atom_site_label
 _atom_site_symmetry_multiplicity
 _atom_site_fract_x
 _atom_site_fract_y
 _atom_site_fract_z
 _atom_site_occupancy
  Tb  Tb0  1  0.75000000  0.49848502  0.80817254  1
  Tb  Tb1  1  0.25000000  0.00151498  0.30817254  1
  Tb  Tb2  1  0.75000000  0.99848502  0.69182746  1
  Tb  Tb3  1  0.25000000  0.50151498  0.19182746  1
  Ge  Ge0  1  0.25000000  0.79416467  0.89096131  1
  Ge  Ge1  1  0.25000000  0.29416467  0.60903869  1
  Ge  Ge2  1  0.75000000  0.20583533  0.10903869  1
  Ge  Ge3  1  0.75000000  0.70583533  0.39096131  1
  Ir  Ir0  1  0.25000000  0.65922429  0.56662142  1
  Ir  Ir1  1  0.25000000  0.15922429  0.93337858  1
  Ir  Ir2  1  0.75000000  0.84077571  0.06662142  1
  Ir  Ir3  1  0.75000000  0.34077571  0.43337858  1
loop_
_geom_bond_atom_site_label_1
_geom_bond_atom_site_label_2
_geom_bond_distance
_geom_bond_site_symmetry_2
Ge0 Ir1 2.540211 1_565
Ge0 Ir2 2.551445 1_556
Ge0 Ir2 2.551445 1_456
Ge0 Ir0 2.625426 1_555
Ge0 Tb2 2.983171 1_455
Ge0 Tb2 2.983171 1_555
Ge0 Tb0 3.032661 1_455
Ge0 Tb0 3.032661 1_555
Ge0 Tb3 3.043884 1_556
Ge1 Ir0 2.540211 1_555
Ge1 Ir3 2.551445 1_555
Ge1 Ir3 2.551445 1_455
Ge1 Ir1 2.625426 1_555
Ge1 Tb0 2.983171 1_555
Ge1 Tb0 2.983171 1_455
Ge1 Tb2 3.032661 1_545
Ge1 Tb2 3.032661 1_445
Ge1 Tb1 3.043884 1_555
Ge2 Ir2 2.540211 1_545
Ge2 Ir1 2.551445 1_654
Ge2 Ir1 2.551445 1_554
Ge2 Ir3 2.625426 1_555
Ge2 Tb1 2.983171 1_555
Ge2 Tb1 2.983171 1_655
Ge2 Tb3 3.032661 1_555
Ge2 Tb3 3.032661 1_655
Ge2 Tb0 3.043884 1_554
Ge3 Ir3 2.540211 1_555
Ge3 Ir0 2.551445 1_555
Ge3 Ir0 2.551445 1_655
Ge3 Ir2 2.625426 1_555
Ge3 Tb3 2.983171 1_655
Ge3 Tb3 2.983171 1_555
Ge3 Tb1 3.032661 1_565
Ge3 Tb1 3.032661 1_665
Ge3 Tb2 3.043884 1_555
Ir0 Tb0 3.035117 1_455
Ir0 Tb0 3.035117 1_555
Ir0 Tb3 3.038210 1_555
Ir0 Tb1 3.067263 1_565
Ir0 Tb2 3.319755 1_455
Ir0 Tb2 3.319755 1_555
Ir1 Tb2 3.035117 1_545
Ir1 Tb2 3.035117 1_445
Ir1 Tb1 3.038210 1_556
Ir1 Tb3 3.067263 1_556
Ir1 Tb0 3.319755 1_555
Ir1 Tb0 3.319755 1_455
Ir2 Tb1 3.035117 1_565
Ir2 Tb1 3.035117 1_665
Ir2 Tb2 3.038210 1_554
Ir2 Tb0 3.067263 1_554
Ir2 Tb3 3.319755 1_555
Ir2 Tb3 3.319755 1_655
Ir3 Tb3 3.035117 1_655
Ir3 Tb3 3.035117 1_555
Ir3 Tb0 3.038210 1_555
Ir3 Tb2 3.067263 1_545
Ir3 Tb1 3.319755 1_555
Ir3 Tb1 3.319755 1_655
