# generated using pymatgen
data_Na5Ga2SiGe2P5O24
_symmetry_space_group_name_H-M   'P 1'
_cell_length_a   8.63033713
_cell_length_b   8.62274767
_cell_length_c   21.80340165
_cell_angle_alpha   90.19129243
_cell_angle_beta   89.64259779
_cell_angle_gamma   120.04436789
_symmetry_Int_Tables_number   1
_chemical_formula_structural   Na5Ga2SiGe2P5O24
_chemical_formula_sum   'Na15 Ga6 Si3 Ge6 P15 O72'
_cell_volume   1404.51222701
_cell_formula_units_Z   3
loop_
 _symmetry_equiv_pos_site_id
 _symmetry_equiv_pos_as_xyz
  1  'x, y, z'
loop_
 _atom_site_type_symbol
 _atom_site_label
 _atom_site_symmetry_multiplicity
 _atom_site_fract_x
 _atom_site_fract_y
 _atom_site_fract_z
 _atom_site_occupancy
  Na  Na0  1  0.00171857  0.63690932  0.25076906  1
  Na  Na1  1  0.63131020  0.63640067  0.75090280  1
  Na  Na2  1  0.36857893  0.99883680  0.75075375  1
  Na  Na3  1  0.66530177  0.96875493  0.58389307  1
  Na  Na4  1  0.29832119  0.96771828  0.08291668  1
  Na  Na5  1  0.67158867  0.70012265  0.08246266  1
  Na  Na6  1  0.03115414  0.33242160  0.08336656  1
  Na  Na7  1  0.96729844  0.29971482  0.41630771  1
  Na  Na8  1  0.33567296  0.03522963  0.41751135  1
  Na  Na9  1  0.00201397  0.99478961  0.50087970  1
  Na  Na10  1  0.99974110  0.99781625  0.99732334  1
  Na  Na11  1  0.67337893  0.33308999  0.83649221  1
  Na  Na12  1  0.66113074  0.33448413  0.33352321  1
  Na  Na13  1  0.33860700  0.66700643  0.16969015  1
  Na  Na14  1  0.32357013  0.65856271  0.66691860  1
  Ga  Ga0  1  0.99502768  0.99534868  0.35039085  1
  Ga  Ga1  1  0.99910837  0.99634216  0.15091662  1
  Ga  Ga2  1  0.67026541  0.33826556  0.97832594  1
  Ga  Ga3  1  0.66186698  0.33648887  0.48354623  1
  Ga  Ga4  1  0.33934587  0.66634214  0.31441564  1
  Ga  Ga5  1  0.33343069  0.66668343  0.81522205  1
  Si  Si0  1  0.71875295  0.00693859  0.74979257  1
  Si  Si1  1  0.36921841  0.04228779  0.58281511  1
  Si  Si2  1  0.95555243  0.62240549  0.08216207  1
  Ge  Ge0  1  0.99628467  0.00272685  0.85418760  1
  Ge  Ge1  1  0.00387081  0.99972177  0.64763335  1
  Ge  Ge2  1  0.67018256  0.32679721  0.68432071  1
  Ge  Ge3  1  0.66724750  0.33251573  0.18588362  1
  Ge  Ge4  1  0.32697512  0.66554894  0.01398784  1
  Ge  Ge5  1  0.33001645  0.66690852  0.52026895  1
  P  P0  1  0.29702638  0.00511301  0.24987973  1
  P  P1  1  0.70451011  0.70755824  0.24939722  1
  P  P2  1  0.99862613  0.28870322  0.24955986  1
  P  P3  1  0.28295035  0.28679040  0.74988906  1
  P  P4  1  0.99844064  0.70999753  0.74990598  1
  P  P5  1  0.96004410  0.33657762  0.58268304  1
  P  P6  1  0.66734666  0.62019493  0.58378623  1
  P  P7  1  0.66662116  0.04600881  0.08235848  1
  P  P8  1  0.37982045  0.33348130  0.08265279  1
  P  P9  1  0.62389993  0.66633500  0.91563714  1
  P  P10  1  0.04286681  0.37540078  0.91503939  1
  P  P11  1  0.33276321  0.96021454  0.91515988  1
  P  P12  1  0.62267161  0.95216632  0.41666118  1
  P  P13  1  0.33820759  0.38328615  0.41673947  1
  P  P14  1  0.04164140  0.66570882  0.41658055  1
  O  O0  1  0.21540412  0.03808077  0.30797269  1
  O  O1  1  0.82962951  0.78606213  0.30493842  1
  O  O2  1  0.96420861  0.17617885  0.30782868  1
  O  O3  1  0.20721697  0.16252763  0.80668515  1
  O  O4  1  0.95773913  0.79200994  0.80694954  1
  O  O5  1  0.84194120  0.03856699  0.80963845  1
  O  O6  1  0.80094016  0.96097949  0.68847195  1
  O  O7  1  0.16885688  0.20283522  0.69250649  1
  O  O8  1  0.03949239  0.83255778  0.69308927  1
  O  O9  1  0.78503517  0.81822597  0.19081543  1
  O  O10  1  0.03094697  0.20927901  0.19123743  1
  O  O11  1  0.17880518  0.96508458  0.19253332  1
  O  O12  1  0.87668567  0.37367539  0.64017914  1
  O  O13  1  0.50207171  0.12625545  0.64328463  1
  O  O14  1  0.63277044  0.50566445  0.64306870  1
  O  O15  1  0.87425582  0.49539911  0.14450389  1
  O  O16  1  0.62153094  0.12294807  0.14056287  1
  O  O17  1  0.50009018  0.37449170  0.14058239  1
  O  O18  1  0.45639411  0.29076962  0.02700481  1
  O  O19  1  0.82624036  0.53687182  0.02540860  1
  O  O20  1  0.70374245  0.16303153  0.02680649  1
  O  O21  1  0.45494058  0.15823400  0.52177195  1
  O  O22  1  0.70550054  0.54417024  0.52708152  1
  O  O23  1  0.84308337  0.29492618  0.52543053  1
  O  O24  1  0.54023133  0.70354443  0.97558571  1
  O  O25  1  0.15986637  0.45454359  0.97560434  1
  O  O26  1  0.29542231  0.84096995  0.97487314  1
  O  O27  1  0.54050498  0.83774056  0.47598707  1
  O  O28  1  0.29440789  0.46414022  0.47451178  1
  O  O29  1  0.16709458  0.70525881  0.47305048  1
  O  O30  1  0.12087031  0.62805573  0.35869557  1
  O  O31  1  0.50069983  0.87340167  0.36136703  1
  O  O32  1  0.36659405  0.49441948  0.35984357  1
  O  O33  1  0.12997532  0.49441635  0.85991388  1
  O  O34  1  0.36458221  0.87671511  0.85824788  1
  O  O35  1  0.51071286  0.63610207  0.85864469  1
  O  O36  1  0.02961389  0.83746844  0.41104843  1
  O  O37  1  0.81213982  0.97675307  0.41121439  1
  O  O38  1  0.16698218  0.19334707  0.41214354  1
  O  O39  1  0.03040925  0.18828748  0.91094489  1
  O  O40  1  0.15925650  0.97385305  0.90944868  1
  O  O41  1  0.81258249  0.83847290  0.91118992  1
  O  O42  1  0.97231677  0.16419478  0.59096230  1
  O  O43  1  0.17247241  0.02106654  0.59241588  1
  O  O44  1  0.83137761  0.81245861  0.59071041  1
  O  O45  1  0.98267696  0.82228344  0.09059629  1
  O  O46  1  0.83175897  0.02432092  0.09036504  1
  O  O47  1  0.19017290  0.17153813  0.09085795  1
  O  O48  1  0.69088755  0.18183577  0.74272623  1
  O  O49  1  0.47535197  0.30883095  0.74297765  1
  O  O50  1  0.82440062  0.52533729  0.74179955  1
  O  O51  1  0.69241654  0.51893162  0.24268564  1
  O  O52  1  0.82754483  0.30965111  0.24379929  1
  O  O53  1  0.48415117  0.17556608  0.24183857  1
  O  O54  1  0.63961410  0.49964617  0.92250170  1
  O  O55  1  0.85854353  0.35484747  0.92282753  1
  O  O56  1  0.49874379  0.14279039  0.92387811  1
  O  O57  1  0.64510456  0.14218054  0.42277149  1
  O  O58  1  0.50127556  0.35749482  0.42228772  1
  O  O59  1  0.85808179  0.49540679  0.42421141  1
  O  O60  1  0.36222483  0.50570581  0.07660906  1
  O  O61  1  0.15845630  0.64317426  0.07529634  1
  O  O62  1  0.49715121  0.85385511  0.07654639  1
  O  O63  1  0.35875940  0.84465239  0.57599938  1
  O  O64  1  0.49898395  0.64300363  0.57740470  1
  O  O65  1  0.14789632  0.50352260  0.57612057  1
  O  O66  1  0.31009945  0.83376712  0.25606639  1
  O  O67  1  0.52000948  0.68770364  0.25591251  1
  O  O68  1  0.16144378  0.47957820  0.25523221  1
  O  O69  1  0.30941755  0.47490892  0.75594412  1
  O  O70  1  0.16474919  0.69218773  0.75594938  1
  O  O71  1  0.51851306  0.82929306  0.75519487  1
loop_
_geom_bond_atom_site_label_1
_geom_bond_atom_site_label_2
_geom_bond_distance
_geom_bond_site_symmetry_2
Na0 O66 2.335962 1_555
Na0 O51 2.340306 1_455
Na0 O68 2.371765 1_555
Na0 O52 2.449100 1_455
Na0 O30 2.590493 1_555
Na0 O15 2.595393 1_455
Na0 O1 2.671224 1_455
Na0 O11 2.761303 1_555
Na1 O50 2.307852 1_555
Na1 O71 2.311277 1_555
Na1 O69 2.406711 1_555
Na1 O49 2.452013 1_555
Na1 O35 2.562923 1_555
Na1 O14 2.606730 1_555
Na1 O4 2.734434 1_555
Na1 O6 2.779736 1_555
Na2 O70 2.332550 1_555
Na2 O49 2.357426 1_565
Na2 O71 2.391187 1_555
Na2 O48 2.420464 1_565
Na2 O34 2.565591 1_555
Na2 O13 2.596346 1_565
Na2 O3 2.711887 1_565
Na2 O8 2.767262 1_555
Na3 O63 2.311575 1_555
Na3 O42 2.327333 1_565
Na3 O44 2.414738 1_555
Na3 O64 2.435726 1_555
Na3 O6 2.585908 1_555
Na3 O27 2.601350 1_555
Na3 O13 2.717909 1_565
Na3 O23 2.750919 1_565
Na4 O45 2.365680 1_455
Na4 O62 2.368742 1_555
Na4 O47 2.372427 1_565
Na4 O61 2.435761 1_555
Na4 O26 2.588564 1_554
Na4 O11 2.592828 1_555
Na4 O18 2.702482 1_565
Na4 O16 2.728739 1_565
Na5 O60 2.340092 1_555
Na5 O45 2.349892 1_555
Na5 O46 2.426011 1_565
Na5 O62 2.458069 1_555
Na5 O9 2.567349 1_555
Na5 O24 2.604452 1_554
Na5 O19 2.675695 1_555
Na5 O17 2.742144 1_555
Na6 O46 2.337539 1_455
Na6 O61 2.338983 1_555
Na6 O47 2.396940 1_555
Na6 O60 2.477784 1_555
Na6 O10 2.583386 1_555
Na6 O25 2.583797 1_554
Na6 O15 2.730529 1_455
Na6 O20 2.745415 1_455
Na7 O59 2.313903 1_555
Na7 O38 2.323701 1_655
Na7 O57 2.410640 1_555
Na7 O37 2.413788 1_545
Na7 O2 2.585566 1_555
Na7 O23 2.595431 1_555
Na7 O30 2.756039 1_655
Na7 O28 2.759548 1_655
Na8 O36 2.323241 1_545
Na8 O57 2.352072 1_555
Na8 O58 2.407981 1_555
Na8 O38 2.445992 1_555
Na8 O21 2.504385 1_555
Na8 O0 2.615127 1_555
Na8 O31 2.725986 1_545
Na8 O29 2.744905 1_545
Na9 O43 2.428697 1_565
Na9 O36 2.456248 1_555
Na9 O44 2.478477 1_455
Na9 O38 2.499698 1_565
Na9 O37 2.512818 1_455
Na9 O42 2.531128 1_465
Na10 O41 2.412891 1_555
Na10 O40 2.420359 1_655
Na10 O39 2.427678 1_665
Na10 O45 2.498403 1_556
Na10 O46 2.561502 1_566
Na10 O47 2.580740 1_666
Na11 O55 2.422254 1_555
Na11 O54 2.461405 1_555
Na11 O48 2.465596 1_555
Na11 O56 2.470412 1_555
Na11 O50 2.556402 1_555
Na11 O49 2.608540 1_555
Na12 O58 2.434451 1_555
Na12 O51 2.471724 1_555
Na12 O53 2.476049 1_555
Na12 O52 2.491125 1_555
Na12 O57 2.518697 1_555
Na12 O59 2.527097 1_555
Na13 O67 2.402441 1_555
Na13 O68 2.436907 1_555
Na13 O66 2.450587 1_555
Na13 O60 2.520853 1_555
Na13 O62 2.524298 1_555
Na13 O61 2.532287 1_555
Na14 O65 2.448527 1_555
Na14 O70 2.468193 1_555
Na14 O69 2.472712 1_555
Na14 O63 2.474360 1_555
Na14 O71 2.498745 1_555
Na14 O64 2.506744 1_555
Ga0 O1 1.924223 1_555
Ga0 O2 1.947107 1_565
Ga0 O0 1.971558 1_665
Ga0 O37 1.999397 1_555
Ga0 O36 2.028636 1_655
Ga0 O38 2.098221 1_665
Ga1 O9 1.917421 1_555
Ga1 O10 1.925274 1_665
Ga1 O11 1.933611 1_655
Ga1 O45 1.943823 1_555
Ga1 O47 2.051297 1_665
Ga1 O46 2.064457 1_565
Ga2 O19 1.869697 1_556
Ga2 O55 1.966970 1_555
Ga2 O54 1.967682 1_555
Ga2 O18 1.980568 1_556
Ga2 O20 1.983820 1_556
Ga2 O56 1.987898 1_555
Ga3 O21 1.867558 1_555
Ga3 O22 1.888802 1_555
Ga3 O23 1.997406 1_555
Ga3 O58 2.003426 1_555
Ga3 O59 2.019883 1_555
Ga3 O57 2.080594 1_555
Ga4 O32 1.896258 1_555
Ga4 O31 1.921155 1_555
Ga4 O67 1.944542 1_555
Ga4 O30 1.988058 1_555
Ga4 O66 2.036552 1_555
Ga4 O68 2.037365 1_555
Ga5 O33 1.901505 1_555
Ga5 O35 1.931461 1_555
Ga5 O34 1.932998 1_555
Ga5 O71 1.993461 1_555
Ga5 O69 2.023310 1_555
Ga5 O70 2.045424 1_555
Ge0 O5 1.801012 1_555
Ge0 O39 1.922954 1_655
Ge0 O3 1.938954 1_655
Ge0 O41 1.950094 1_545
Ge0 O4 1.964520 1_545
Ge0 O40 1.966154 1_645
Ge1 O43 1.819906 1_565
Ge1 O6 1.835317 1_455
Ge1 O7 1.887031 1_565
Ge1 O8 1.900398 1_555
Ge1 O44 1.991606 1_455
Ge1 O42 2.003713 1_465
Ge2 O13 1.841024 1_555
Ge2 O48 1.858256 1_555
Ge2 O12 1.877690 1_555
Ge2 O14 1.950268 1_555
Ge2 O50 1.999433 1_555
Ge2 O49 2.049532 1_555
Ge3 O15 1.858538 1_555
Ge3 O53 1.913767 1_555
Ge3 O16 1.917432 1_555
Ge3 O17 1.931523 1_555
Ge3 O51 1.950701 1_555
Ge3 O52 1.960574 1_555
Ge4 O25 1.862279 1_554
Ge4 O26 1.874416 1_554
Ge4 O24 1.890650 1_554
Ge4 O61 1.906773 1_555
Ge4 O62 2.067903 1_555
Ge4 O60 2.072203 1_555
Ge5 O63 1.870200 1_555
Ge5 O28 1.897600 1_555
Ge5 O29 1.905840 1_555
Ge5 O65 1.925728 1_555
Ge5 O27 1.926173 1_555
Ge5 O64 2.011526 1_555
O0 P0 1.538944 1_555
O1 P1 1.539361 1_555
O2 P2 1.535790 1_555
O3 P3 1.551220 1_555
O4 P4 1.551708 1_555
O5 Si0 1.622310 1_555
O6 Si0 1.647369 1_565
O7 P3 1.534442 1_555
O8 P4 1.550912 1_455
O9 P1 1.535589 1_555
O10 P2 1.531313 1_455
O11 P0 1.543986 1_565
O12 P5 1.551750 1_555
O13 Si1 1.660828 1_555
O14 P6 1.563223 1_555
O15 Si2 1.663684 1_555
O16 P7 1.564864 1_555
O17 P8 1.563197 1_555
O18 P8 1.508387 1_555
O19 Si2 1.583531 1_555
O20 P7 1.505825 1_555
O21 Si1 1.604450 1_555
O22 P6 1.507445 1_555
O23 P5 1.534881 1_555
O24 P9 1.596946 1_555
O25 P10 1.596774 1_555
O26 P11 1.589989 1_555
O27 P12 1.563968 1_555
O28 P13 1.570897 1_555
O29 P14 1.564797 1_555
O30 P14 1.540982 1_555
O31 P12 1.522270 1_555
O32 P13 1.512044 1_555
O33 P10 1.512410 1_555
O34 P11 1.523594 1_555
O35 P9 1.524563 1_555
O36 P14 1.540809 1_555
O37 P12 1.543846 1_555
O38 P13 1.566331 1_555
O39 P10 1.564656 1_555
O40 P11 1.565365 1_555
O41 P9 1.562992 1_555
O42 P5 1.553354 1_555
O43 Si1 1.626392 1_555
O44 P6 1.557630 1_555
O45 Si2 1.628950 1_555
O46 P7 1.538451 1_555
O47 P8 1.539553 1_555
O48 Si0 1.649575 1_555
O49 P3 1.580230 1_555
O50 P4 1.558606 1_555
O51 P1 1.583148 1_555
O52 P2 1.580488 1_555
O53 P0 1.555774 1_555
O54 P9 1.517744 1_555
O55 P10 1.518330 1_655
O56 P11 1.519792 1_545
O57 P12 1.555944 1_545
O58 P13 1.536352 1_555
O59 P14 1.537081 1_655
O60 P8 1.572630 1_555
O61 Si2 1.674462 1_455
O62 P7 1.573156 1_565
O63 Si1 1.666985 1_565
O64 P6 1.567861 1_555
O65 P5 1.543580 1_455
O66 P0 1.543467 1_565
O67 P1 1.519634 1_555
O68 P2 1.543911 1_455
O69 P3 1.526020 1_555
O70 P4 1.524545 1_455
O71 Si0 1.641551 1_565
