# generated using pymatgen
data_EuCl3
_symmetry_space_group_name_H-M   'P 1'
_cell_length_a   7.38495675
_cell_length_b   7.47414259
_cell_length_c   4.22980271
_cell_angle_alpha   90.00010144
_cell_angle_beta   89.99990895
_cell_angle_gamma   118.98560910
_symmetry_Int_Tables_number   1
_chemical_formula_structural   EuCl3
_chemical_formula_sum   'Eu2 Cl6'
_cell_volume   204.22511636
_cell_formula_units_Z   2
loop_
 _symmetry_equiv_pos_site_id
 _symmetry_equiv_pos_as_xyz
  1  'x, y, z'
loop_
 _atom_site_type_symbol
 _atom_site_label
 _atom_site_symmetry_multiplicity
 _atom_site_fract_x
 _atom_site_fract_y
 _atom_site_fract_z
 _atom_site_occupancy
  Eu  Eu0  1  0.33644572  0.67129961  0.25000020  1
  Eu  Eu1  1  0.66355048  0.32867401  0.74999934  1
  Cl  Cl0  1  0.38285652  0.30448578  0.25000125  1
  Cl  Cl1  1  0.91194509  0.60354462  0.25000015  1
  Cl  Cl2  1  0.30104835  0.91342987  0.74999945  1
  Cl  Cl3  1  0.61705015  0.69553785  0.74999976  1
  Cl  Cl4  1  0.08820388  0.39659294  0.74999954  1
  Cl  Cl5  1  0.69889882  0.08643533  0.25000031  1
loop_
_geom_bond_atom_site_label_1
_geom_bond_atom_site_label_2
_geom_bond_distance
_geom_bond_site_symmetry_2
Cl0 Eu1 2.905036 1_555
Cl0 Eu1 2.905043 1_554
Cl0 Eu0 2.923124 1_555
Cl1 Eu1 2.899303 1_555
Cl1 Eu1 2.899307 1_554
Cl1 Eu0 2.923276 1_655
Cl2 Eu0 2.876574 1_555
Cl2 Eu0 2.876584 1_556
Cl2 Eu1 2.957451 1_565
Cl3 Eu0 2.904481 1_556
Cl3 Eu0 2.904483 1_555
Cl3 Eu1 2.923874 1_555
Cl4 Eu0 2.898485 1_555
Cl4 Eu0 2.898488 1_556
Cl4 Eu1 2.923966 1_455
Cl5 Eu1 2.876976 1_555
Cl5 Eu1 2.876987 1_554
Cl5 Eu0 2.956812 1_545
