# generated using pymatgen
data_NaCaNb3(PO4)6
_symmetry_space_group_name_H-M   'P 1'
_cell_length_a   8.89600185
_cell_length_b   8.89600156
_cell_length_c   23.13705199
_cell_angle_alpha   90.00000000
_cell_angle_beta   90.00000000
_cell_angle_gamma   120.00000110
_symmetry_Int_Tables_number   1
_chemical_formula_structural   NaCaNb3(PO4)6
_chemical_formula_sum   'Na3 Ca3 Nb9 P18 O72'
_cell_volume   1585.72679365
_cell_formula_units_Z   3
loop_
 _symmetry_equiv_pos_site_id
 _symmetry_equiv_pos_as_xyz
  1  'x, y, z'
loop_
 _atom_site_type_symbol
 _atom_site_label
 _atom_site_symmetry_multiplicity
 _atom_site_fract_x
 _atom_site_fract_y
 _atom_site_fract_z
 _atom_site_occupancy
  Na  Na0  1  -0.00000000  0.00000000  0.98686656  1
  Na  Na1  1  0.66666700  0.33333300  0.84258501  1
  Na  Na2  1  0.66666700  0.33333300  0.34082489  1
  Ca  Ca0  1  -0.00000000  0.00000000  0.85384323  1
  Ca  Ca1  1  0.66666700  0.33333300  0.97748625  1
  Ca  Ca2  1  0.66666700  0.33333300  0.47946035  1
  Nb  Nb0  1  -0.00000000  0.00000000  0.35960822  1
  Nb  Nb1  1  -0.00000000  0.00000000  0.64982548  1
  Nb  Nb2  1  -0.00000000  0.00000000  0.14778722  1
  Nb  Nb3  1  0.66666700  0.33333300  0.68387764  1
  Nb  Nb4  1  0.66666700  0.33333300  0.18442296  1
  Nb  Nb5  1  0.33333300  0.66666700  0.02044330  1
  Nb  Nb6  1  0.33333300  0.66666700  0.52611880  1
  Nb  Nb7  1  0.33333300  0.66666700  0.30881144  1
  Nb  Nb8  1  0.33333300  0.66666700  0.80953193  1
  P  P0  1  0.28772645  0.00532269  0.25180020  1
  P  P1  1  0.71759624  0.71227355  0.25180020  1
  P  P2  1  0.99467731  0.28240376  0.25180020  1
  P  P3  1  0.29629701  0.29316615  0.75007400  1
  P  P4  1  0.99686914  0.70370299  0.75007400  1
  P  P5  1  0.70683385  0.00313086  0.75007400  1
  P  P6  1  0.95777529  0.32796853  0.58295415  1
  P  P7  1  0.37019425  0.04222471  0.58295415  1
  P  P8  1  0.67203147  0.62980575  0.58295415  1
  P  P9  1  0.96111681  0.62755688  0.08412396  1
  P  P10  1  0.66644107  0.03888319  0.08412396  1
  P  P11  1  0.37244312  0.33355893  0.08412396  1
  P  P12  1  0.61595742  0.66720409  0.91570019  1
  P  P13  1  0.05124567  0.38404258  0.91570019  1
  P  P14  1  0.33279591  0.94875433  0.91570019  1
  P  P15  1  0.61465928  0.94463961  0.41441556  1
  P  P16  1  0.32997933  0.38534072  0.41441556  1
  P  P17  1  0.05536039  0.67002067  0.41441556  1
  O  O0  1  0.20073301  0.03436743  0.30509151  1
  O  O1  1  0.83363443  0.79926699  0.30509151  1
  O  O2  1  0.96563257  0.16636557  0.30509151  1
  O  O3  1  0.23915231  0.18699425  0.80365653  1
  O  O4  1  0.94784194  0.76084769  0.80365653  1
  O  O5  1  0.81300575  0.05215806  0.80365653  1
  O  O6  1  0.80188441  0.97654651  0.69734227  1
  O  O7  1  0.17466210  0.19811559  0.69734227  1
  O  O8  1  0.02345349  0.82533790  0.69734227  1
  O  O9  1  0.80227009  0.82664337  0.19828249  1
  O  O10  1  0.02437328  0.19772991  0.19828249  1
  O  O11  1  0.17335663  0.97562672  0.19828249  1
  O  O12  1  0.86899322  0.36373671  0.63486401  1
  O  O13  1  0.49474449  0.13100678  0.63486401  1
  O  O14  1  0.63626329  0.50525551  0.63486401  1
  O  O15  1  0.86123360  0.50526790  0.13863464  1
  O  O16  1  0.64403530  0.13876640  0.13863464  1
  O  O17  1  0.49473210  0.35596470  0.13863464  1
  O  O18  1  0.43117336  0.28106605  0.03177859  1
  O  O19  1  0.84989369  0.56882664  0.03177859  1
  O  O20  1  0.71893395  0.15010631  0.03177859  1
  O  O21  1  0.43064881  0.14421443  0.52833327  1
  O  O22  1  0.71356662  0.56935119  0.52833327  1
  O  O23  1  0.85578557  0.28643338  0.52833327  1
  O  O24  1  0.51002325  0.66663458  0.97271430  1
  O  O25  1  0.15661033  0.48997675  0.97271430  1
  O  O26  1  0.33336542  0.84338967  0.97271430  1
  O  O27  1  0.53071222  0.83626781  0.46945528  1
  O  O28  1  0.30555459  0.46928778  0.46945528  1
  O  O29  1  0.16373219  0.69444541  0.46945528  1
  O  O30  1  0.15549087  0.66193160  0.35978293  1
  O  O31  1  0.50643972  0.84450913  0.35978293  1
  O  O32  1  0.33806840  0.49356028  0.35978293  1
  O  O33  1  0.15755374  0.48937773  0.86063965  1
  O  O34  1  0.33182299  0.84244626  0.86063965  1
  O  O35  1  0.51062227  0.66817701  0.86063965  1
  O  O36  1  0.04687880  0.84272578  0.40464730  1
  O  O37  1  0.79584698  0.95312120  0.40464730  1
  O  O38  1  0.15727422  0.20415302  0.40464730  1
  O  O39  1  0.05018974  0.21482434  0.92022170  1
  O  O40  1  0.16463459  0.94981026  0.92022170  1
  O  O41  1  0.78517566  0.83536541  0.92022170  1
  O  O42  1  0.99317545  0.18068545  0.60098316  1
  O  O43  1  0.18751000  0.00682455  0.60098316  1
  O  O44  1  0.81931455  0.81249000  0.60098316  1
  O  O45  1  0.98973584  0.81216471  0.10183542  1
  O  O46  1  0.82242887  0.01026416  0.10183542  1
  O  O47  1  0.18783529  0.17757113  0.10183542  1
  O  O48  1  0.67554524  0.15729485  0.73282750  1
  O  O49  1  0.48175061  0.32445476  0.73282750  1
  O  O50  1  0.84270515  0.51824939  0.73282750  1
  O  O51  1  0.69544872  0.52910587  0.24215483  1
  O  O52  1  0.83365815  0.30455128  0.24215483  1
  O  O53  1  0.47089413  0.16634185  0.24215483  1
  O  O54  1  0.61751706  0.49909451  0.91348258  1
  O  O55  1  0.88157845  0.38248294  0.91348258  1
  O  O56  1  0.50090549  0.11842155  0.91348258  1
  O  O57  1  0.63732868  0.12294019  0.41277837  1
  O  O58  1  0.48561251  0.36267132  0.41277837  1
  O  O59  1  0.87705981  0.51438749  0.41277837  1
  O  O60  1  0.35529937  0.49589026  0.07957438  1
  O  O61  1  0.14058988  0.64470063  0.07957438  1
  O  O62  1  0.50410974  0.85941012  0.07957438  1
  O  O63  1  0.35387111  0.85690795  0.57384702  1
  O  O64  1  0.50303583  0.64612889  0.57384702  1
  O  O65  1  0.14309205  0.49696417  0.57384702  1
  O  O66  1  0.30846266  0.84336615  0.26049018  1
  O  O67  1  0.53490249  0.69153734  0.26049018  1
  O  O68  1  0.15663385  0.46509751  0.26049018  1
  O  O69  1  0.31462202  0.47556930  0.75590498  1
  O  O70  1  0.16094629  0.68537798  0.75590498  1
  O  O71  1  0.52443070  0.83905371  0.75590498  1
loop_
_geom_bond_atom_site_label_1
_geom_bond_atom_site_label_2
_geom_bond_distance
_geom_bond_site_symmetry_2
Na0 O40 2.318610 1_545
Na0 O39 2.318610 1_555
Na0 O41 2.318610 1_445
Na1 O56 2.387720 1_555
Na1 O54 2.387720 1_555
Na1 O55 2.387720 1_555
Na2 O57 2.419556 1_555
Na2 O59 2.419556 1_555
Na2 O58 2.419556 1_555
Na2 O51 2.804386 1_555
Na2 O53 2.804386 1_555
Na2 O52 2.804386 1_555
Ca0 O4 2.258919 1_445
Ca0 O3 2.258919 1_555
Ca0 O5 2.258919 1_455
Ca0 O40 2.314516 1_545
Ca0 O39 2.314516 1_555
Ca0 O41 2.314516 1_445
Ca1 O56 2.281087 1_555
Ca1 O54 2.281087 1_555
Ca1 O55 2.281087 1_555
Ca1 O19 2.282298 1_556
Ca1 O20 2.282298 1_556
Ca1 O18 2.282298 1_556
Ca2 O22 2.232738 1_555
Ca2 O21 2.232738 1_555
Ca2 O23 2.232738 1_555
Ca2 O57 2.337312 1_555
Ca2 O59 2.337312 1_555
Ca2 O58 2.337312 1_555
Nb0 O38 1.949569 1_555
Nb0 O36 1.949569 1_545
Nb0 O37 1.949569 1_445
Nb0 O2 2.080225 1_455
Nb0 O1 2.080225 1_445
Nb0 O0 2.080226 1_555
Nb1 O44 1.990474 1_445
Nb1 O42 1.990474 1_455
Nb1 O43 1.990474 1_555
Nb1 O7 1.997667 1_555
Nb1 O8 1.997667 1_545
Nb1 O6 1.997667 1_445
Nb2 O45 1.943789 1_445
Nb2 O47 1.943789 1_555
Nb2 O46 1.943789 1_455
Nb2 O10 2.030928 1_555
Nb2 O9 2.030928 1_445
Nb2 O11 2.030928 1_545
Nb3 O50 1.965979 1_555
Nb3 O48 1.965979 1_555
Nb3 O49 1.965979 1_555
Nb3 O13 2.027802 1_555
Nb3 O14 2.027802 1_555
Nb3 O12 2.027802 1_555
Nb4 O16 1.951997 1_555
Nb4 O15 1.951997 1_555
Nb4 O17 1.951997 1_555
Nb4 O51 2.106420 1_555
Nb4 O53 2.106420 1_555
Nb4 O52 2.106420 1_555
Nb5 O25 1.921099 1_554
Nb5 O26 1.921099 1_554
Nb5 O24 1.921099 1_554
Nb5 O60 2.124823 1_555
Nb5 O62 2.124823 1_555
Nb5 O61 2.124823 1_555
Nb6 O64 1.951356 1_555
Nb6 O65 1.951356 1_555
Nb6 O63 1.951356 1_555
Nb6 O28 2.104539 1_555
Nb6 O27 2.104539 1_555
Nb6 O29 2.104539 1_555
Nb7 O32 1.956767 1_555
Nb7 O31 1.956767 1_555
Nb7 O30 1.956767 1_555
Nb7 O68 2.029187 1_555
Nb7 O66 2.029187 1_555
Nb7 O67 2.029187 1_555
Nb8 O33 1.965886 1_555
Nb8 O34 1.965886 1_555
Nb8 O35 1.965886 1_555
Nb8 O70 2.043101 1_555
Nb8 O71 2.043101 1_555
Nb8 O69 2.043101 1_555
O0 P0 1.544646 1_555
O1 P1 1.544646 1_555
O2 P2 1.544646 1_555
O3 P3 1.485709 1_555
O4 P4 1.485709 1_555
O5 P5 1.485709 1_555
O6 P5 1.568257 1_565
O7 P3 1.568257 1_555
O8 P4 1.568257 1_455
O9 P1 1.539293 1_555
O10 P2 1.539293 1_455
O11 P0 1.539293 1_565
O12 P6 1.555266 1_555
O13 P7 1.555266 1_555
O14 P8 1.555265 1_555
O15 P9 1.611535 1_555
O16 P10 1.611535 1_555
O17 P11 1.611536 1_555
O18 P11 1.483853 1_555
O19 P9 1.483853 1_555
O20 P10 1.483853 1_555
O21 P7 1.490497 1_555
O22 P8 1.490497 1_555
O23 P6 1.490497 1_555
O24 P12 1.619715 1_555
O25 P13 1.619715 1_555
O26 P14 1.619715 1_555
O27 P15 1.545597 1_555
O28 P16 1.545597 1_555
O29 P17 1.545597 1_555
O30 P17 1.568606 1_555
O31 P15 1.568606 1_555
O32 P16 1.568606 1_555
O33 P13 1.584042 1_555
O34 P14 1.584042 1_555
O35 P12 1.584042 1_555
O36 P17 1.591595 1_555
O37 P15 1.591604 1_555
O38 P16 1.591600 1_555
O39 P13 1.504333 1_555
O40 P14 1.504324 1_555
O41 P12 1.504329 1_555
O42 P6 1.550000 1_555
O43 P7 1.550009 1_555
O44 P8 1.550006 1_555
O45 P9 1.584831 1_555
O46 P10 1.584822 1_555
O47 P11 1.584828 1_555
O48 P5 1.580915 1_555
O49 P3 1.580923 1_555
O50 P4 1.580920 1_555
O51 P1 1.556508 1_555
O52 P2 1.556500 1_555
O53 P0 1.556505 1_555
O54 P12 1.503364 1_555
O55 P13 1.503347 1_655
O56 P14 1.503355 1_545
O57 P15 1.496041 1_545
O58 P16 1.496059 1_555
O59 P17 1.496048 1_655
O60 P11 1.529707 1_555
O61 P9 1.529690 1_455
O62 P10 1.529697 1_565
O63 P7 1.594962 1_565
O64 P8 1.594980 1_555
O65 P6 1.594970 1_455
O66 P0 1.554361 1_565
O67 P1 1.554369 1_555
O68 P2 1.554366 1_455
O69 P3 1.553471 1_555
O70 P4 1.553463 1_455
O71 P5 1.553468 1_565
