# generated using pymatgen
data_TbCoC
_symmetry_space_group_name_H-M   'P 1'
_cell_length_a   3.63139671
_cell_length_b   3.63140510
_cell_length_c   6.94314356
_cell_angle_alpha   90.00000000
_cell_angle_beta   90.00000000
_cell_angle_gamma   90.00000000
_symmetry_Int_Tables_number   1
_chemical_formula_structural   TbCoC
_chemical_formula_sum   'Tb2 Co2 C2'
_cell_volume   91.55973773
_cell_formula_units_Z   2
loop_
 _symmetry_equiv_pos_site_id
 _symmetry_equiv_pos_as_xyz
  1  'x, y, z'
loop_
 _atom_site_type_symbol
 _atom_site_label
 _atom_site_symmetry_multiplicity
 _atom_site_fract_x
 _atom_site_fract_y
 _atom_site_fract_z
 _atom_site_occupancy
  Tb  Tb0  1  0.00000000  -0.00000000  0.74998910  1
  Tb  Tb1  1  0.00000000  -0.00000000  0.25001090  1
  Co  Co0  1  0.50000000  0.50000000  0.00000000  1
  Co  Co1  1  0.50000000  0.50000000  0.50000000  1
  C  C0  1  0.50000000  -0.00000000  0.50000000  1
  C  C1  1  0.00000000  0.50000000  0.00000000  1
loop_
_geom_bond_atom_site_label_1
_geom_bond_atom_site_label_2
_geom_bond_distance
_geom_bond_site_symmetry_2
C0 Co1 1.815703 1_545
C0 Co1 1.815703 1_555
C0 Tb0 2.511862 1_555
C0 Tb0 2.511862 1_655
C0 Tb1 2.511862 1_555
C0 Tb1 2.511862 1_655
C1 Co0 1.815698 1_555
C1 Co0 1.815698 1_455
C1 Tb1 2.511970 1_565
C1 Tb1 2.511970 1_555
C1 Tb0 2.511970 1_554
C1 Tb0 2.511970 1_564
