# generated using pymatgen
data_SrMnBi2
_symmetry_space_group_name_H-M   'P 1'
_cell_length_a   4.60716263
_cell_length_b   4.60718063
_cell_length_c   11.89671124
_cell_angle_alpha   78.81817171
_cell_angle_beta   78.81800307
_cell_angle_gamma   89.94010706
_symmetry_Int_Tables_number   1
_chemical_formula_structural   SrMnBi2
_chemical_formula_sum   'Sr2 Mn2 Bi4'
_cell_volume   242.84805835
_cell_formula_units_Z   2
loop_
 _symmetry_equiv_pos_site_id
 _symmetry_equiv_pos_as_xyz
  1  'x, y, z'
loop_
 _atom_site_type_symbol
 _atom_site_label
 _atom_site_symmetry_multiplicity
 _atom_site_fract_x
 _atom_site_fract_y
 _atom_site_fract_z
 _atom_site_occupancy
  Sr  Sr0  1  0.88240600  0.88241800  0.23524000  1
  Sr  Sr1  1  0.11757100  0.11758200  0.76476300  1
  Mn  Mn0  1  0.74973900  0.25020200  0.50004400  1
  Mn  Mn1  1  0.25032400  0.74980000  0.49994600  1
  Bi  Bi0  1  0.99998700  0.50000000  0.00000400  1
  Bi  Bi1  1  0.49998800  0.00000100  0.99999900  1
  Bi  Bi2  1  0.67762200  0.67762600  0.64489300  1
  Bi  Bi3  1  0.32236300  0.32237100  0.35510900  1
loop_
_geom_bond_atom_site_label_1
_geom_bond_atom_site_label_2
_geom_bond_distance
_geom_bond_site_symmetry_2
Mn0 Sr1 3.804459 1_555
Mn0 Sr0 3.805261 1_555
Mn0 Sr1 3.805876 1_655
Mn0 Sr0 3.806633 1_545
Mn1 Sr0 3.804119 1_555
Mn1 Sr1 3.805367 1_555
Mn1 Sr0 3.805979 1_455
Mn1 Sr1 3.806764 1_565
Bi0 Bi1 3.256059 1_654
Bi0 Bi1 3.256059 1_564
Bi0 Bi1 3.259455 1_664
Bi0 Bi1 3.259474 1_554
Bi0 Sr0 3.542313 1_545
Bi0 Sr1 3.542349 1_664
Bi0 Sr0 3.542850 1_555
Bi0 Sr1 3.542901 1_654
Bi1 Sr1 3.542303 1_655
Bi1 Sr0 3.542336 1_446
Bi1 Sr1 3.542848 1_555
Bi1 Sr0 3.542902 1_546
Bi2 Mn0 2.837326 1_555
Bi2 Mn1 2.837691 1_555
Bi2 Mn0 2.838210 1_565
Bi2 Mn1 2.839140 1_655
Bi2 Sr1 3.533078 1_655
Bi2 Sr1 3.533114 1_565
Bi2 Sr1 3.535726 1_665
Bi2 Sr1 3.536743 1_555
Bi3 Mn1 2.837243 1_555
Bi3 Mn0 2.837880 1_555
Bi3 Mn1 2.838133 1_545
Bi3 Mn0 2.838791 1_455
Bi3 Sr0 3.533076 1_545
Bi3 Sr0 3.533107 1_455
Bi3 Sr0 3.535734 1_445
Bi3 Sr0 3.536727 1_555
