# generated using pymatgen
data_K2ReCl6
_symmetry_space_group_name_H-M   'P 1'
_cell_length_a   6.97065180
_cell_length_b   6.97065104
_cell_length_c   6.97064291
_cell_angle_alpha   60.00003381
_cell_angle_beta   60.00003738
_cell_angle_gamma   59.99992700
_symmetry_Int_Tables_number   1
_chemical_formula_structural   K2ReCl6
_chemical_formula_sum   'K2 Re1 Cl6'
_cell_volume   239.49947342
_cell_formula_units_Z   1
loop_
 _symmetry_equiv_pos_site_id
 _symmetry_equiv_pos_as_xyz
  1  'x, y, z'
loop_
 _atom_site_type_symbol
 _atom_site_label
 _atom_site_symmetry_multiplicity
 _atom_site_fract_x
 _atom_site_fract_y
 _atom_site_fract_z
 _atom_site_occupancy
  K  K0  1  0.25000000  0.25000000  0.25000000  1
  K  K1  1  0.75000000  0.75000000  0.75000000  1
  Re  Re0  1  0.00000000  -0.00000000  0.00000000  1
  Cl  Cl0  1  0.75989169  0.24010831  0.75989169  1
  Cl  Cl1  1  0.75989169  0.24010831  0.24010831  1
  Cl  Cl2  1  0.75989169  0.75989169  0.24010831  1
  Cl  Cl3  1  0.24010831  0.75989169  0.24010831  1
  Cl  Cl4  1  0.24010831  0.24010831  0.75989169  1
  Cl  Cl5  1  0.24010831  0.75989169  0.75989169  1
loop_
_geom_bond_atom_site_label_1
_geom_bond_atom_site_label_2
_geom_bond_distance
_geom_bond_site_symmetry_2
Cl0 Re0 2.366983 1_656
Cl0 K1 3.486689 1_555
Cl0 K1 3.486689 1_545
Cl0 K0 3.486689 1_655
Cl0 K0 3.486689 1_556
Cl1 Re0 2.366983 1_655
Cl1 K1 3.486689 1_545
Cl1 K1 3.486689 1_554
Cl1 K0 3.486690 1_655
Cl1 K0 3.486690 1_555
Cl2 Re0 2.366988 1_665
Cl2 K1 3.486685 1_555
Cl2 K1 3.486685 1_554
Cl2 K0 3.486686 1_655
Cl2 K0 3.486686 1_565
Cl3 Re0 2.366983 1_565
Cl3 K0 3.486689 1_555
Cl3 K0 3.486689 1_565
Cl3 K1 3.486689 1_455
Cl3 K1 3.486689 1_554
Cl4 Re0 2.366988 1_556
Cl4 K0 3.486685 1_555
Cl4 K0 3.486685 1_556
Cl4 K1 3.486686 1_455
Cl4 K1 3.486686 1_545
Cl5 Re0 2.366983 1_566
Cl5 K0 3.486689 1_565
Cl5 K0 3.486689 1_556
Cl5 K1 3.486690 1_455
Cl5 K1 3.486690 1_555
