# generated using pymatgen
data_Nd2Mg(BiO4)2
_symmetry_space_group_name_H-M   'P 1'
_cell_length_a   7.50619663
_cell_length_b   7.50688356
_cell_length_c   7.10346325
_cell_angle_alpha   134.69237334
_cell_angle_beta   133.11717272
_cell_angle_gamma   71.80938268
_symmetry_Int_Tables_number   1
_chemical_formula_structural   Nd2Mg(BiO4)2
_chemical_formula_sum   'Nd2 Mg1 Bi2 O8'
_cell_volume   196.44930143
_cell_formula_units_Z   1
loop_
 _symmetry_equiv_pos_site_id
 _symmetry_equiv_pos_as_xyz
  1  'x, y, z'
loop_
 _atom_site_type_symbol
 _atom_site_label
 _atom_site_symmetry_multiplicity
 _atom_site_fract_x
 _atom_site_fract_y
 _atom_site_fract_z
 _atom_site_occupancy
  Nd  Nd0  1  0.37469800  0.12336900  0.25050300  1
  Nd  Nd1  1  0.61892700  0.86818700  0.75026000  1
  Mg  Mg0  1  0.92655400  0.17547000  0.75046400  1
  Bi  Bi0  1  0.82601900  0.57515000  0.24998700  1
  Bi  Bi1  1  0.16021100  0.40981100  0.74996800  1
  O  O0  1  0.74937500  0.47872800  0.83705500  1
  O  O1  1  0.77507100  0.10793700  0.31808800  1
  O  O2  1  0.48040400  0.21608800  0.76559000  1
  O  O3  1  0.00337300  0.26191300  0.17109800  1
  O  O4  1  0.95070200  0.71332600  0.73365600  1
  O  O5  1  0.59080600  0.83040900  0.32751700  1
  O  O6  1  0.14258600  0.91165300  0.66381700  1
  O  O7  1  0.29016200  0.45759000  0.18199700  1
loop_
_geom_bond_atom_site_label_1
_geom_bond_atom_site_label_2
_geom_bond_distance
_geom_bond_site_symmetry_2
Nd0 O6 2.327271 1_544
Nd0 O0 2.327610 1_555
Nd0 O5 2.453373 1_545
Nd0 O3 2.456558 1_555
Nd0 O1 2.676599 1_555
Nd0 O7 2.689903 1_555
Nd0 O2 2.701041 1_555
Nd0 O4 2.707548 1_444
Nd1 O7 2.348560 1_555
Nd1 O1 2.350702 1_566
Nd1 O4 2.443026 1_555
Nd1 O2 2.443972 1_565
Nd1 O3 2.665422 1_666
Nd1 O5 2.667514 1_555
Nd1 O0 3.131983 1_555
Nd1 O6 3.133679 1_555
Mg0 O7 2.090827 1_656
Mg0 O1 2.092603 1_555
Mg0 O6 2.138968 1_645
Mg0 O0 2.141944 1_555
Mg0 O3 2.198316 1_656
Mg0 O5 2.206002 1_545
Bi0 O6 2.103079 1_655
Bi0 O0 2.103708 1_554
Bi0 O5 2.196541 1_555
Bi0 O3 2.197122 1_655
Bi0 O2 2.225517 1_554
Bi0 O4 2.225720 1_555
Bi1 O7 2.253073 1_556
Bi1 O1 2.256606 1_455
Bi1 O4 2.358599 1_455
Bi1 O2 2.363008 1_555
Bi1 O5 2.696647 1_556
Bi1 O3 2.702604 1_555
