# generated using pymatgen
data_NaCoF3
_symmetry_space_group_name_H-M   'P 1'
_cell_length_a   5.36910055
_cell_length_b   5.57463889
_cell_length_c   7.70449501
_cell_angle_alpha   90.00000000
_cell_angle_beta   90.00000000
_cell_angle_gamma   90.00000000
_symmetry_Int_Tables_number   1
_chemical_formula_structural   NaCoF3
_chemical_formula_sum   'Na4 Co4 F12'
_cell_volume   230.60167405
_cell_formula_units_Z   4
loop_
 _symmetry_equiv_pos_site_id
 _symmetry_equiv_pos_as_xyz
  1  'x, y, z'
loop_
 _atom_site_type_symbol
 _atom_site_label
 _atom_site_symmetry_multiplicity
 _atom_site_fract_x
 _atom_site_fract_y
 _atom_site_fract_z
 _atom_site_occupancy
  Na  Na0  1  0.01805395  0.93891654  0.75000000  1
  Na  Na1  1  0.51805395  0.56108346  0.25000000  1
  Na  Na2  1  0.48194605  0.43891654  0.75000000  1
  Na  Na3  1  0.98194605  0.06108346  0.25000000  1
  Co  Co0  1  0.50000000  0.00000000  0.50000000  1
  Co  Co1  1  -0.00000000  0.50000000  0.50000000  1
  Co  Co2  1  -0.00000000  0.50000000  0.00000000  1
  Co  Co3  1  0.50000000  0.00000000  0.00000000  1
  F  F0  1  0.69248966  0.30316819  0.44142445  1
  F  F1  1  0.19248966  0.19683181  0.55857555  1
  F  F2  1  0.80751034  0.80316819  0.05857555  1
  F  F3  1  0.30751034  0.69683181  0.94142445  1
  F  F4  1  0.30751034  0.69683181  0.55857555  1
  F  F5  1  0.80751034  0.80316819  0.44142445  1
  F  F6  1  0.19248966  0.19683181  0.94142445  1
  F  F7  1  0.69248966  0.30316819  0.05857555  1
  F  F8  1  0.11261682  0.45970993  0.25000000  1
  F  F9  1  0.61261682  0.04029007  0.75000000  1
  F  F10  1  0.38738318  0.95970993  0.25000000  1
  F  F11  1  0.88738318  0.54029007  0.75000000  1
loop_
_geom_bond_atom_site_label_1
_geom_bond_atom_site_label_2
_geom_bond_distance
_geom_bond_site_symmetry_2
Co0 F10 2.031256 1_545
Co0 F9 2.031256 1_555
Co0 F4 2.031763 1_545
Co0 F0 2.031763 1_555
Co0 F1 2.033135 1_555
Co0 F5 2.033135 1_545
Co1 F11 2.031256 1_455
Co1 F8 2.031256 1_555
Co1 F5 2.031763 1_455
Co1 F1 2.031763 1_555
Co1 F0 2.033135 1_455
Co1 F4 2.033135 1_555
Co2 F11 2.031256 1_454
Co2 F8 2.031256 1_555
Co2 F2 2.031763 1_455
Co2 F6 2.031763 1_554
Co2 F7 2.033135 1_455
Co2 F3 2.033135 1_554
Co3 F9 2.031256 1_554
Co3 F10 2.031256 1_545
Co3 F3 2.031763 1_544
Co3 F7 2.031763 1_555
Co3 F6 2.033135 1_554
Co3 F2 2.033135 1_545
F0 Na1 2.262630 1_555
F0 Na3 2.532125 1_555
F0 Na2 2.739098 1_555
F1 Na0 2.262630 1_545
F1 Na2 2.532125 1_555
F1 Na3 2.739098 1_455
F2 Na3 2.262630 1_565
F2 Na1 2.532125 1_555
F2 Na0 2.739098 1_654
F3 Na2 2.262630 1_555
F3 Na0 2.532125 1_555
F3 Na1 2.739098 1_556
F4 Na2 2.262630 1_555
F4 Na0 2.532125 1_555
F4 Na1 2.739098 1_555
F5 Na3 2.262630 1_565
F5 Na1 2.532125 1_555
F5 Na0 2.739098 1_655
F6 Na0 2.262630 1_545
F6 Na2 2.532125 1_555
F6 Na3 2.739098 1_456
F7 Na1 2.262630 1_555
F7 Na3 2.532125 1_555
F7 Na2 2.739098 1_554
F8 Na1 2.248991 1_555
F8 Na3 2.330319 1_455
F9 Na0 2.248991 1_645
F9 Na2 2.330319 1_555
F10 Na3 2.248991 1_465
F10 Na1 2.330319 1_555
F11 Na2 2.248991 1_555
F11 Na0 2.330319 1_655
