# generated using pymatgen
data_PH5NO3F
_symmetry_space_group_name_H-M   'P 1'
_cell_length_a   7.32284335
_cell_length_b   7.39643543
_cell_length_c   7.65282210
_cell_angle_alpha   84.18457816
_cell_angle_beta   84.80520161
_cell_angle_gamma   68.15500544
_symmetry_Int_Tables_number   1
_chemical_formula_structural   PH5NO3F
_chemical_formula_sum   'P4 H20 N4 O12 F4'
_cell_volume   382.12854323
_cell_formula_units_Z   4
loop_
 _symmetry_equiv_pos_site_id
 _symmetry_equiv_pos_as_xyz
  1  'x, y, z'
loop_
 _atom_site_type_symbol
 _atom_site_label
 _atom_site_symmetry_multiplicity
 _atom_site_fract_x
 _atom_site_fract_y
 _atom_site_fract_z
 _atom_site_occupancy
  P  P0  1  0.74231024  0.73844987  0.59788604  1
  P  P1  1  0.25768976  0.26155013  0.40211396  1
  P  P2  1  0.71444111  0.23297870  0.94231975  1
  P  P3  1  0.28555889  0.76702130  0.05768025  1
  H  H0  1  0.19661536  0.74888912  0.72760993  1
  H  H1  1  0.80338464  0.25111088  0.27239007  1
  H  H2  1  0.11832913  0.77048967  0.52368363  1
  H  H3  1  0.88167087  0.22951033  0.47631637  1
  H  H4  1  0.19222717  0.94290652  0.58732457  1
  H  H5  1  0.80777283  0.05709348  0.41267543  1
  H  H6  1  0.35982481  0.71852445  0.55391204  1
  H  H7  1  0.64017519  0.28147555  0.44608796  1
  H  H8  1  0.77444904  0.58760257  0.09420511  1
  H  H9  1  0.22555096  0.41239743  0.90579489  1
  H  H10  1  0.94240317  0.69367471  0.04478386  1
  H  H11  1  0.05759683  0.30632529  0.95521614  1
  H  H12  1  0.70196170  0.83394488  0.06108918  1
  H  H13  1  0.29803830  0.16605512  0.93891082  1
  H  H14  1  0.81947518  0.72288725  0.24096276  1
  H  H15  1  0.18052482  0.27711275  0.75903724  1
  H  H16  1  0.51439043  0.90092331  0.79080256  1
  H  H17  1  0.48560957  0.09907669  0.20919744  1
  H  H18  1  0.61553991  0.45832716  0.71380995  1
  H  H19  1  0.38446009  0.54167284  0.28619005  1
  N  N0  1  0.19213247  0.29188057  0.89006996  1
  N  N1  1  0.80786753  0.70811943  0.10993004  1
  N  N2  1  0.78323041  0.20511883  0.40288931  1
  N  N3  1  0.21676959  0.79488117  0.59711069  1
  O  O0  1  0.57635968  0.36342136  0.80075995  1
  O  O1  1  0.18660507  0.66567829  0.96216351  1
  O  O2  1  0.60176615  0.92309948  0.68604235  1
  O  O3  1  0.39823385  0.07690052  0.31395765  1
  O  O4  1  0.64520390  0.59944482  0.56810139  1
  O  O5  1  0.35479610  0.40055518  0.43189861  1
  O  O6  1  0.85944917  0.79627019  0.44852598  1
  O  O7  1  0.14055083  0.20372981  0.55147402  1
  O  O8  1  0.81339493  0.33432171  0.03783649  1
  O  O9  1  0.38846504  0.88266477  0.94926251  1
  O  O10  1  0.42364032  0.63657864  0.19924005  1
  O  O11  1  0.61153396  0.11733523  0.05073749  1
  F  F0  1  0.89433028  0.62924473  0.74422552  1
  F  F1  1  0.11428212  0.91745301  0.16982549  1
  F  F2  1  0.88571788  0.08254699  0.83017451  1
  F  F3  1  0.10566972  0.37075527  0.25577448  1
loop_
_geom_bond_atom_site_label_1
_geom_bond_atom_site_label_2
_geom_bond_distance
_geom_bond_site_symmetry_2
H0 N3 1.037644 1_555
H1 N2 1.037644 1_555
H2 N3 1.028898 1_555
H3 N2 1.028898 1_555
H4 N3 1.037311 1_555
H5 N2 1.037311 1_555
H6 N3 1.029801 1_555
H7 N2 1.029801 1_555
H8 N1 1.028768 1_555
H9 N0 1.028768 1_555
H10 N1 1.036376 1_555
H11 N0 1.036376 1_555
H12 N1 1.025746 1_555
H13 N0 1.025746 1_555
H14 N1 1.034043 1_555
H15 N0 1.034043 1_555
H16 O2 1.018628 1_555
H16 O9 1.481930 1_555
H17 O3 1.018628 1_555
H17 O11 1.481926 1_555
H18 O0 1.019068 1_555
H18 O4 1.506338 1_555
H19 O10 1.019068 1_555
H19 O5 1.506338 1_555
O0 P2 1.545131 1_555
O1 P3 1.494133 1_556
O2 P0 1.547442 1_555
O3 P1 1.547442 1_555
O4 P0 1.495196 1_555
O5 P1 1.495196 1_555
O6 P0 1.490505 1_555
O7 P1 1.490505 1_555
O8 P2 1.494133 1_554
O9 P3 1.486786 1_556
O10 P3 1.545131 1_555
O11 P2 1.486790 1_554
F0 P0 1.587187 1_555
F1 P3 1.583574 1_555
F2 P2 1.583574 1_555
F3 P1 1.587187 1_555
