# generated using pymatgen
data_Ti2Si(SO6)2
_symmetry_space_group_name_H-M   'P 1'
_cell_length_a   8.68420499
_cell_length_b   8.68352576
_cell_length_c   22.38343931
_cell_angle_alpha   90.00106445
_cell_angle_beta   90.00000000
_cell_angle_gamma   120.00258759
_symmetry_Int_Tables_number   1
_chemical_formula_structural   Ti2Si(SO6)2
_chemical_formula_sum   'Ti12 Si6 S12 O72'
_cell_volume   1461.74726147
_cell_formula_units_Z   6
loop_
 _symmetry_equiv_pos_site_id
 _symmetry_equiv_pos_as_xyz
  1  'x, y, z'
loop_
 _atom_site_type_symbol
 _atom_site_label
 _atom_site_symmetry_multiplicity
 _atom_site_fract_x
 _atom_site_fract_y
 _atom_site_fract_z
 _atom_site_occupancy
  Ti  Ti0  1  0.98835225  0.01006673  0.35600168  1
  Ti  Ti1  1  0.02171449  0.01006673  0.85600168  1
  Ti  Ti2  1  0.00848739  0.02126177  0.64416232  1
  Ti  Ti3  1  0.01277438  0.02126177  0.14416232  1
  Ti  Ti4  1  0.67232713  0.33856550  0.68925841  1
  Ti  Ti5  1  0.66623938  0.33856550  0.18925841  1
  Ti  Ti6  1  0.64546326  0.32287213  0.97727538  1
  Ti  Ti7  1  0.67740987  0.32287213  0.47727538  1
  Ti  Ti8  1  0.32809883  0.66753809  0.02281454  1
  Ti  Ti9  1  0.33943826  0.66753809  0.52281454  1
  Ti  Ti10  1  0.33476649  0.67165525  0.31067837  1
  Ti  Ti11  1  0.33688775  0.67165525  0.81067837  1
  Si  Si0  1  0.00012676  0.29438029  0.24993421  1
  Si  Si1  1  0.29425353  0.29438029  0.74993421  1
  Si  Si2  1  0.95837589  0.33870188  0.58416574  1
  Si  Si3  1  0.38032699  0.33870188  0.08416574  1
  Si  Si4  1  0.33354597  0.95034501  0.91667857  1
  Si  Si5  1  0.61679804  0.95034501  0.41667857  1
  S  S0  1  0.28719397  0.00047951  0.25018759  1
  S  S1  1  0.71315343  0.71367476  0.24981549  1
  S  S2  1  0.00052133  0.71367476  0.74981549  1
  S  S3  1  0.71328554  0.00047951  0.75018759  1
  S  S4  1  0.37919456  0.04566087  0.58336272  1
  S  S5  1  0.66903902  0.62154585  0.58311062  1
  S  S6  1  0.95250783  0.62154585  0.08311062  1
  S  S7  1  0.66646731  0.04566087  0.08336272  1
  S  S8  1  0.62197132  0.66895662  0.91671098  1
  S  S9  1  0.04445111  0.37990777  0.91660164  1
  S  S10  1  0.33545566  0.37990777  0.41660164  1
  S  S11  1  0.04698429  0.66895662  0.41671098  1
  O  O0  1  0.20758676  0.03016362  0.30375391  1
  O  O1  1  0.82518415  0.79139139  0.30386139  1
  O  O2  1  0.96897734  0.16255720  0.30721357  1
  O  O3  1  0.19357986  0.16255720  0.80721357  1
  O  O4  1  0.96620725  0.79139139  0.80386139  1
  O  O5  1  0.82257687  0.03016362  0.80375391  1
  O  O6  1  0.79126682  0.96623702  0.69622247  1
  O  O7  1  0.16248664  0.19340935  0.69270057  1
  O  O8  1  0.03016825  0.82244933  0.69626860  1
  O  O9  1  0.79228108  0.82244933  0.19626860  1
  O  O10  1  0.03092271  0.19340935  0.19270057  1
  O  O11  1  0.17497020  0.96623702  0.19622247  1
  O  O12  1  0.85748034  0.36348125  0.64137162  1
  O  O13  1  0.49051673  0.12562650  0.63667538  1
  O  O14  1  0.63346296  0.50800097  0.63721883  1
  O  O15  1  0.87453901  0.50800097  0.13721883  1
  O  O16  1  0.63511077  0.12562650  0.13667538  1
  O  O17  1  0.50600191  0.36348125  0.14137162  1
  O  O18  1  0.47365543  0.30275308  0.02592787  1
  O  O19  1  0.84387067  0.53933337  0.02952645  1
  O  O20  1  0.70163287  0.15855194  0.02965658  1
  O  O21  1  0.45692007  0.15855194  0.52965658  1
  O  O22  1  0.69546369  0.53933337  0.52952645  1
  O  O23  1  0.82909864  0.30275308  0.52592787  1
  O  O24  1  0.53948906  0.69700558  0.97012931  1
  O  O25  1  0.15855043  0.45741924  0.97031452  1
  O  O26  1  0.30373342  0.82704275  0.97490214  1
  O  O27  1  0.52330834  0.82704275  0.47490214  1
  O  O28  1  0.29886781  0.45741924  0.47031452  1
  O  O29  1  0.15751552  0.69700558  0.47012931  1
  O  O30  1  0.12419397  0.63230868  0.36297502  1
  O  O31  1  0.49374911  0.85673611  0.35844619  1
  O  O32  1  0.36364617  0.49076283  0.36325821  1
  O  O33  1  0.12711566  0.49076283  0.86325821  1
  O  O34  1  0.36298600  0.85673611  0.85844619  1
  O  O35  1  0.50811370  0.63230868  0.86297502  1
  O  O36  1  0.02879332  0.82704531  0.40730790  1
  O  O37  1  0.81399972  0.97241612  0.40668381  1
  O  O38  1  0.17677249  0.19965626  0.40809298  1
  O  O39  1  0.02288378  0.19965626  0.90809298  1
  O  O40  1  0.15841641  0.97241612  0.90668381  1
  O  O41  1  0.79825198  0.82704531  0.90730790  1
  O  O42  1  0.97180656  0.15810786  0.59343552  1
  O  O43  1  0.19882387  0.02201931  0.59171872  1
  O  O44  1  0.82556235  0.79820075  0.59296487  1
  O  O45  1  0.97263839  0.79820075  0.09296487  1
  O  O46  1  0.82319544  0.02201931  0.09171872  1
  O  O47  1  0.18630130  0.15810786  0.09343552  1
  O  O48  1  0.69103819  0.15750404  0.74135077  1
  O  O49  1  0.48494138  0.30981173  0.73682176  1
  O  O50  1  0.84043708  0.53418013  0.74241415  1
  O  O51  1  0.69374405  0.53418013  0.24241415  1
  O  O52  1  0.82487135  0.30981173  0.23682176  1
  O  O53  1  0.46646685  0.15750404  0.24135077  1
  O  O54  1  0.64384452  0.51033521  0.92516888  1
  O  O55  1  0.86844698  0.36199321  0.92595936  1
  O  O56  1  0.50856075  0.14744946  0.92672713  1
  O  O57  1  0.63888971  0.14744946  0.42672713  1
  O  O58  1  0.49354723  0.36199321  0.42595936  1
  O  O59  1  0.86649170  0.51033521  0.42516888  1
  O  O60  1  0.35605875  0.50809658  0.07041328  1
  O  O61  1  0.13148017  0.63858586  0.07547471  1
  O  O62  1  0.50808252  0.86724459  0.07499510  1
  O  O63  1  0.35916106  0.86724459  0.57499510  1
  O  O64  1  0.50710469  0.63858586  0.57547471  1
  O  O65  1  0.15203684  0.50809658  0.57041328  1
  O  O66  1  0.30611145  0.84042505  0.25765550  1
  O  O67  1  0.53371420  0.69102336  0.25856153  1
  O  O68  1  0.17495556  0.48506293  0.26307312  1
  O  O69  1  0.31010637  0.48506293  0.76307312  1
  O  O70  1  0.15730816  0.69102336  0.75856153  1
  O  O71  1  0.53431260  0.84042505  0.75765550  1
loop_
_geom_bond_atom_site_label_1
_geom_bond_atom_site_label_2
_geom_bond_distance
_geom_bond_site_symmetry_2
O0 S0 1.469752 1_555
O0 Ti0 2.165786 1_455
O1 S1 1.486192 1_555
O1 Ti0 2.069945 1_565
O2 Si0 1.648537 1_655
O2 Ti0 1.788051 1_555
O3 Si1 1.648537 1_555
O3 Ti1 1.788051 1_555
O4 S2 1.486192 1_655
O4 Ti1 2.069945 1_665
O5 S3 1.469752 1_555
O5 Ti1 2.165786 1_655
O6 S3 1.485756 1_565
O6 Ti2 2.059919 1_665
O7 Si1 1.648004 1_555
O7 Ti2 1.790005 1_555
O8 S2 1.466918 1_555
O8 Ti2 2.168254 1_565
O9 S1 1.466918 1_555
O9 Ti3 2.168254 1_665
O10 Si0 1.648004 1_555
O10 Ti3 1.790005 1_555
O11 S0 1.485756 1_565
O11 Ti3 2.059919 1_565
O12 Si2 1.625469 1_555
O12 Ti4 1.852886 1_555
O13 S4 1.472889 1_555
O13 Ti4 2.092232 1_555
O14 S5 1.493259 1_555
O14 Ti4 2.032760 1_555
O15 S6 1.493259 1_555
O15 Ti5 2.032760 1_555
O16 S7 1.472889 1_555
O16 Ti5 2.092232 1_555
O17 Si3 1.625469 1_555
O17 Ti5 1.852886 1_555
O18 Si3 1.645179 1_555
O18 Ti6 1.783787 1_554
O19 S6 1.471280 1_555
O19 Ti6 2.151910 1_554
O20 S7 1.483239 1_555
O20 Ti6 2.084404 1_554
O21 S4 1.483239 1_555
O21 Ti7 2.084404 1_555
O22 S5 1.471280 1_555
O22 Ti7 2.151910 1_555
O23 Si2 1.645179 1_555
O23 Ti7 1.783787 1_555
O24 S8 1.475307 1_555
O24 Ti8 2.087201 1_556
O25 S9 1.487718 1_555
O25 Ti8 2.047233 1_556
O26 Si4 1.623175 1_555
O26 Ti8 1.845659 1_556
O27 Si5 1.623175 1_555
O27 Ti9 1.845659 1_555
O28 S10 1.487718 1_555
O28 Ti9 2.047233 1_555
O29 S11 1.475307 1_555
O29 Ti9 2.087201 1_555
O30 S11 1.486925 1_555
O30 Ti10 2.050889 1_555
O31 Si5 1.622606 1_555
O31 Ti10 1.847478 1_555
O32 S10 1.475324 1_555
O32 Ti10 2.075920 1_555
O33 S9 1.475324 1_555
O33 Ti11 2.075920 1_555
O34 Si4 1.622606 1_555
O34 Ti11 1.847478 1_555
O35 S8 1.486925 1_555
O35 Ti11 2.050889 1_555
O36 S11 1.473307 1_555
O36 Ti0 2.127494 1_465
O37 Si5 1.640528 1_555
O37 Ti0 1.786431 1_565
O38 S10 1.492668 1_555
O38 Ti0 2.013244 1_455
O39 S9 1.492672 1_555
O39 Ti1 2.013244 1_555
O40 Si4 1.640520 1_555
O40 Ti1 1.786431 1_565
O41 S8 1.473312 1_555
O41 Ti1 2.127494 1_665
O42 Si2 1.642807 1_555
O42 Ti2 1.783641 1_655
O43 S4 1.486295 1_555
O43 Ti2 2.024669 1_555
O44 S5 1.471094 1_555
O44 Ti2 2.123978 1_665
O45 S6 1.471098 1_555
O45 Ti3 2.123978 1_665
O46 S7 1.486286 1_555
O46 Ti3 2.024669 1_655
O47 Si3 1.642812 1_555
O47 Ti3 1.783641 1_555
O48 S3 1.482943 1_555
O48 Ti4 2.028180 1_555
O49 Si1 1.620009 1_555
O49 Ti4 1.854061 1_555
O50 S2 1.490797 1_655
O50 Ti4 1.988011 1_555
O51 S1 1.490801 1_555
O51 Ti5 1.988011 1_555
O52 Si0 1.620000 1_655
O52 Ti5 1.854061 1_555
O53 S0 1.482948 1_555
O53 Ti5 2.028180 1_555
O54 S8 1.493587 1_555
O54 Ti6 2.008314 1_555
O55 S9 1.471891 1_655
O55 Ti6 2.127598 1_555
O56 Si4 1.639653 1_545
O56 Ti6 1.789637 1_555
O57 Si5 1.639646 1_545
O57 Ti7 1.789637 1_555
O58 S10 1.471908 1_555
O58 Ti7 2.127598 1_555
O59 S11 1.493577 1_655
O59 Ti7 2.008314 1_555
O60 Si3 1.616444 1_555
O60 Ti8 1.856669 1_555
O61 S6 1.495578 1_455
O61 Ti8 1.984631 1_555
O62 S7 1.481916 1_565
O62 Ti8 2.025757 1_555
O63 S4 1.481909 1_565
O63 Ti9 2.025758 1_555
O64 S5 1.495595 1_555
O64 Ti9 1.984631 1_555
O65 Si2 1.616434 1_455
O65 Ti9 1.856669 1_555
O66 S0 1.488264 1_565
O66 Ti10 1.995751 1_555
O67 S1 1.482816 1_555
O67 Ti10 2.020768 1_555
O68 Si0 1.618366 1_555
O68 Ti10 1.854158 1_555
O69 Si1 1.618370 1_555
O69 Ti11 1.854158 1_555
O70 S2 1.482807 1_555
O70 Ti11 2.020768 1_555
O71 S3 1.488269 1_565
O71 Ti11 1.995751 1_555
