# generated using pymatgen
data_Er6MnBi2
_symmetry_space_group_name_H-M   'P 1'
_cell_length_a   8.14610142
_cell_length_b   8.14610196
_cell_length_c   4.36434286
_cell_angle_alpha   90.00000000
_cell_angle_beta   90.00000000
_cell_angle_gamma   120.00000602
_symmetry_Int_Tables_number   1
_chemical_formula_structural   Er6MnBi2
_chemical_formula_sum   'Er6 Mn1 Bi2'
_cell_volume   250.81246752
_cell_formula_units_Z   1
loop_
 _symmetry_equiv_pos_site_id
 _symmetry_equiv_pos_as_xyz
  1  'x, y, z'
loop_
 _atom_site_type_symbol
 _atom_site_label
 _atom_site_symmetry_multiplicity
 _atom_site_fract_x
 _atom_site_fract_y
 _atom_site_fract_z
 _atom_site_occupancy
  Er  Er0  1  0.23515681  -0.00000000  -0.00000000  1
  Er  Er1  1  0.00000000  0.60420684  0.50000000  1
  Er  Er2  1  0.39579316  0.39579316  0.50000000  1
  Er  Er3  1  0.76484319  0.76484319  0.00000000  1
  Er  Er4  1  -0.00000000  0.23515681  -0.00000000  1
  Er  Er5  1  0.60420684  0.00000000  0.50000000  1
  Mn  Mn0  1  0.00000000  -0.00000000  0.50000000  1
  Bi  Bi0  1  0.33333300  0.66666700  0.00000000  1
  Bi  Bi1  1  0.66666700  0.33333300  0.00000000  1
loop_
_geom_bond_atom_site_label_1
_geom_bond_atom_site_label_2
_geom_bond_distance
_geom_bond_site_symmetry_2
Er0 Mn0 2.903694 1_554
Er0 Mn0 2.903694 1_555
Er0 Er3 3.317936 1_445
Er0 Er4 3.317936 1_555
Er0 Er1 3.556748 1_544
Er0 Er1 3.556748 1_545
Er0 Er2 3.556749 1_555
Er0 Er2 3.556749 1_554
Er0 Er5 3.714812 1_555
Er0 Er5 3.714812 1_554
Er1 Mn0 3.224171 1_565
Er1 Er3 3.556749 1_455
Er1 Er3 3.556749 1_456
Er1 Er4 3.714812 1_555
Er1 Er4 3.714812 1_556
Er2 Mn0 3.224171 1_555
Er2 Er4 3.556748 1_556
Er2 Er4 3.556748 1_555
Er2 Er3 3.714812 1_555
Er2 Er3 3.714812 1_556
Er3 Mn0 2.903694 1_664
Er3 Mn0 2.903694 1_665
Er3 Er4 3.317936 1_665
Er3 Er5 3.556749 1_564
Er3 Er5 3.556749 1_565
Er4 Mn0 2.903694 1_554
Er4 Mn0 2.903694 1_555
Er4 Er5 3.556748 1_455
Er4 Er5 3.556748 1_454
Er5 Mn0 3.224171 1_655
Bi0 Er0 3.191306 1_565
Bi0 Er4 3.191311 1_555
Bi0 Er3 3.191313 1_555
Bi0 Er1 3.318488 1_555
Bi0 Er1 3.318488 1_554
Bi0 Er5 3.318490 1_564
Bi0 Er5 3.318490 1_565
Bi0 Er2 3.318494 1_555
Bi0 Er2 3.318494 1_554
Bi1 Er4 3.191306 1_655
Bi1 Er0 3.191311 1_555
Bi1 Er3 3.191314 1_555
Bi1 Er5 3.318488 1_554
Bi1 Er5 3.318488 1_555
Bi1 Er1 3.318490 1_654
Bi1 Er1 3.318490 1_655
Bi1 Er2 3.318494 1_554
Bi1 Er2 3.318494 1_555
