# generated using pymatgen
data_U2Fe2Sn
_symmetry_space_group_name_H-M   'P 1'
_cell_length_a   7.46185002
_cell_length_b   7.46185002
_cell_length_c   3.37532667
_cell_angle_alpha   90.00000000
_cell_angle_beta   90.00000000
_cell_angle_gamma   90.00000000
_symmetry_Int_Tables_number   1
_chemical_formula_structural   U2Fe2Sn
_chemical_formula_sum   'U4 Fe4 Sn2'
_cell_volume   187.93550803
_cell_formula_units_Z   2
loop_
 _symmetry_equiv_pos_site_id
 _symmetry_equiv_pos_as_xyz
  1  'x, y, z'
loop_
 _atom_site_type_symbol
 _atom_site_label
 _atom_site_symmetry_multiplicity
 _atom_site_fract_x
 _atom_site_fract_y
 _atom_site_fract_z
 _atom_site_occupancy
  U  U0  1  0.33461300  0.83461300  0.50000000  1
  U  U1  1  0.83461300  0.66538700  0.50000000  1
  U  U2  1  0.16538700  0.33461300  0.50000000  1
  U  U3  1  0.66538700  0.16538700  0.50000000  1
  Fe  Fe0  1  0.36466610  0.13533390  -0.00000000  1
  Fe  Fe1  1  0.86466610  0.36466610  0.00000000  1
  Fe  Fe2  1  0.13533390  0.63533390  -0.00000000  1
  Fe  Fe3  1  0.63533390  0.86466610  0.00000000  1
  Sn  Sn0  1  0.00000000  0.00000000  0.00000000  1
  Sn  Sn1  1  0.50000000  0.50000000  0.00000000  1
loop_
_geom_bond_atom_site_label_1
_geom_bond_atom_site_label_2
_geom_bond_distance
_geom_bond_site_symmetry_2
Fe0 U2 2.696385 1_555
Fe0 U2 2.696385 1_554
Fe0 U3 2.816689 1_554
Fe0 U3 2.816689 1_555
Fe0 U0 2.816689 1_545
Fe0 U0 2.816689 1_544
Fe0 Sn1 2.902426 1_555
Fe0 Sn0 2.902426 1_555
Fe1 U3 2.696385 1_555
Fe1 U3 2.696385 1_554
Fe1 U2 2.816689 1_655
Fe1 U1 2.816689 1_554
Fe1 U2 2.816689 1_654
Fe1 U1 2.816689 1_555
Fe1 Sn0 2.902426 1_655
Fe1 Sn1 2.902426 1_555
Fe2 U0 2.696385 1_555
Fe2 U0 2.696385 1_554
Fe2 U1 2.816689 1_454
Fe2 U1 2.816689 1_455
Fe2 U2 2.816689 1_555
Fe2 U2 2.816689 1_554
Fe2 Sn1 2.902426 1_555
Fe2 Sn0 2.902426 1_565
Fe3 U1 2.696385 1_555
Fe3 U1 2.696385 1_554
Fe3 U3 2.816689 1_565
Fe3 U3 2.816689 1_564
Fe3 U0 2.816689 1_555
Fe3 U0 2.816689 1_554
Fe3 Sn1 2.902426 1_555
Fe3 Sn0 2.902426 1_665
Sn0 U1 3.256588 1_445
Sn0 U2 3.256588 1_555
Sn0 U2 3.256588 1_554
Sn0 U0 3.256588 1_545
Sn0 U0 3.256588 1_544
Sn0 U1 3.256588 1_444
Sn0 U3 3.256588 1_455
Sn0 U3 3.256588 1_454
Sn1 U3 3.256588 1_554
Sn1 U2 3.256588 1_555
Sn1 U3 3.256588 1_555
Sn1 U2 3.256588 1_554
Sn1 U1 3.256588 1_554
Sn1 U1 3.256588 1_555
Sn1 U0 3.256588 1_555
Sn1 U0 3.256588 1_554
