# generated using pymatgen
data_Na8Sc2Ti2Si5SO24
_symmetry_space_group_name_H-M   'P 1'
_cell_length_a   9.10924599
_cell_length_b   9.10302228
_cell_length_c   22.33215982
_cell_angle_alpha   90.26942589
_cell_angle_beta   89.45715215
_cell_angle_gamma   120.12276135
_symmetry_Int_Tables_number   1
_chemical_formula_structural   Na8Sc2Ti2Si5SO24
_chemical_formula_sum   'Na24 Sc6 Ti6 Si15 S3 O72'
_cell_volume   1601.66371792
_cell_formula_units_Z   3
loop_
 _symmetry_equiv_pos_site_id
 _symmetry_equiv_pos_as_xyz
  1  'x, y, z'
loop_
 _atom_site_type_symbol
 _atom_site_label
 _atom_site_symmetry_multiplicity
 _atom_site_fract_x
 _atom_site_fract_y
 _atom_site_fract_z
 _atom_site_occupancy
  Na  Na0  1  0.64209616  0.00480008  0.25154107  1
  Na  Na1  1  0.35752275  0.36257060  0.24896862  1
  Na  Na2  1  -0.00003205  0.63737206  0.25006294  1
  Na  Na3  1  0.63353424  0.63280556  0.74816573  1
  Na  Na4  1  0.99436179  0.36081837  0.74947004  1
  Na  Na5  1  0.36973227  0.00749253  0.74936751  1
  Na  Na6  1  0.29713516  0.33457805  0.58581222  1
  Na  Na7  1  0.03827405  0.70385675  0.58287049  1
  Na  Na8  1  0.66578826  0.95992843  0.58324799  1
  Na  Na9  1  0.28831054  0.96543088  0.08189999  1
  Na  Na10  1  0.67020942  0.69313010  0.08685441  1
  Na  Na11  1  0.04404177  0.33719274  0.08647880  1
  Na  Na12  1  0.97523986  0.66887887  0.91652043  1
  Na  Na13  1  0.70469395  0.04347852  0.91065837  1
  Na  Na14  1  0.32261078  0.28693411  0.91768169  1
  Na  Na15  1  0.95906322  0.29581037  0.41294168  1
  Na  Na16  1  0.32999092  0.02461696  0.41637924  1
  Na  Na17  1  0.70912211  0.67611308  0.41775241  1
  Na  Na18  1  0.99296517  0.99110691  0.50165319  1
  Na  Na19  1  0.01689753  0.00610072  0.00002696  1
  Na  Na20  1  0.66756161  0.32665128  0.83051173  1
  Na  Na21  1  0.67135059  0.33022911  0.33310665  1
  Na  Na22  1  0.32706213  0.65656228  0.16782438  1
  Na  Na23  1  0.33608356  0.66639873  0.66488431  1
  Sc  Sc0  1  0.99274342  0.99324389  0.34788785  1
  Sc  Sc1  1  0.00852588  0.00717312  0.84766233  1
  Sc  Sc2  1  0.00849274  0.00044611  0.15265094  1
  Sc  Sc3  1  0.66514704  0.33371505  0.98119282  1
  Sc  Sc4  1  0.31471343  0.65500463  0.01908676  1
  Sc  Sc5  1  0.33639067  0.67838453  0.52126106  1
  Ti  Ti0  1  0.99925222  0.99977232  0.64929919  1
  Ti  Ti1  1  0.66520233  0.33290552  0.68434825  1
  Ti  Ti2  1  0.67033971  0.35282329  0.18872722  1
  Ti  Ti3  1  0.67878685  0.33118830  0.48599672  1
  Ti  Ti4  1  0.32773223  0.68236491  0.31206575  1
  Ti  Ti5  1  0.31564725  0.67159550  0.80936835  1
  Si  Si0  1  0.30073850  0.00613983  0.25021497  1
  Si  Si1  1  0.69878214  0.70618504  0.24997353  1
  Si  Si2  1  0.99984846  0.29902200  0.25009330  1
  Si  Si3  1  0.29636062  0.29654537  0.74869041  1
  Si  Si4  1  0.99285804  0.70624357  0.74929903  1
  Si  Si5  1  0.70583239  0.99961586  0.75022304  1
  Si  Si6  1  0.95728489  0.32911992  0.58592057  1
  Si  Si7  1  0.37714394  0.04934217  0.58416356  1
  Si  Si8  1  0.66950566  0.62170610  0.58404448  1
  Si  Si9  1  0.95656432  0.62751259  0.08338303  1
  Si  Si10  1  0.37523619  0.33413479  0.08380452  1
  Si  Si11  1  0.03956252  0.37111134  0.91529090  1
  Si  Si12  1  0.33267676  0.95841194  0.91666338  1
  Si  Si13  1  0.62652534  0.96207151  0.41702175  1
  Si  Si14  1  0.03749933  0.66551739  0.41786046  1
  S  S0  1  0.66734297  0.04171085  0.08393025  1
  S  S1  1  0.62225852  0.66718567  0.91583371  1
  S  S2  1  0.33575788  0.37625509  0.41604208  1
  O  O0  1  0.22297426  0.04691856  0.30946578  1
  O  O1  1  0.82198827  0.77885662  0.30800378  1
  O  O2  1  0.96038821  0.17860358  0.30888959  1
  O  O3  1  0.22077012  0.17791695  0.80799010  1
  O  O4  1  0.95675028  0.78214040  0.80955394  1
  O  O5  1  0.82251513  0.03772001  0.80915467  1
  O  O6  1  0.80271333  0.96644145  0.69211690  1
  O  O7  1  0.16547433  0.20082531  0.69163098  1
  O  O8  1  0.03382118  0.83588456  0.69172002  1
  O  O9  1  0.77631563  0.82368075  0.19060612  1
  O  O10  1  0.03972572  0.21859785  0.19085637  1
  O  O11  1  0.17822248  0.95567140  0.19198319  1
  O  O12  1  0.86138480  0.36158990  0.64203871  1
  O  O13  1  0.50123420  0.14228135  0.64152017  1
  O  O14  1  0.64115890  0.49891613  0.64176413  1
  O  O15  1  0.85842763  0.49954712  0.14146809  1
  O  O16  1  0.63985973  0.12205293  0.13754195  1
  O  O17  1  0.50092120  0.35596325  0.14147008  1
  O  O18  1  0.45864584  0.29877262  0.02426533  1
  O  O19  1  0.84155541  0.53804978  0.02440154  1
  O  O20  1  0.69393886  0.14631732  0.02901127  1
  O  O21  1  0.47196779  0.17193068  0.52479198  1
  O  O22  1  0.70017905  0.52730634  0.52469108  1
  O  O23  1  0.83328717  0.29799040  0.52622950  1
  O  O24  1  0.54509289  0.69280987  0.97131577  1
  O  O25  1  0.15821288  0.45309745  0.97448843  1
  O  O26  1  0.30904892  0.84358227  0.97583829  1
  O  O27  1  0.54362379  0.84061472  0.47528574  1
  O  O28  1  0.30795750  0.45392402  0.47129974  1
  O  O29  1  0.15580952  0.69384970  0.47567656  1
  O  O30  1  0.13377944  0.63526088  0.35871470  1
  O  O31  1  0.49898491  0.86256109  0.35894650  1
  O  O32  1  0.36038636  0.48239805  0.36257814  1
  O  O33  1  0.14408910  0.50191861  0.85775669  1
  O  O34  1  0.35898382  0.85753006  0.85757567  1
  O  O35  1  0.51695478  0.64187697  0.86257634  1
  O  O36  1  0.02227404  0.83632478  0.41224159  1
  O  O37  1  0.81759110  0.98864690  0.41170383  1
  O  O38  1  0.18172100  0.20407505  0.41187980  1
  O  O39  1  0.01559188  0.18099642  0.91198233  1
  O  O40  1  0.15990971  0.97029941  0.91264070  1
  O  O41  1  0.79478219  0.82005879  0.91166210  1
  O  O42  1  0.96781760  0.15480373  0.58955633  1
  O  O43  1  0.18941761  0.03300517  0.58940762  1
  O  O44  1  0.84236804  0.80929131  0.58956195  1
  O  O45  1  0.97103300  0.81363888  0.08770091  1
  O  O46  1  0.82152400  0.02606454  0.08796772  1
  O  O47  1  0.18452485  0.16739942  0.08808529  1
  O  O48  1  0.68391041  0.16661237  0.74139783  1
  O  O49  1  0.48503824  0.31640553  0.74069532  1
  O  O50  1  0.83084209  0.51503891  0.74155188  1
  O  O51  1  0.68160420  0.51553628  0.24279073  1
  O  O52  1  0.82927901  0.31747450  0.24149415  1
  O  O53  1  0.49256869  0.16834789  0.24023135  1
  O  O54  1  0.63901601  0.51228816  0.92019437  1
  O  O55  1  0.85585440  0.36258991  0.91777165  1
  O  O56  1  0.50514922  0.14598683  0.91700032  1
  O  O57  1  0.63525419  0.14887160  0.42158949  1
  O  O58  1  0.49004020  0.36046475  0.42067823  1
  O  O59  1  0.84712478  0.49071436  0.42158263  1
  O  O60  1  0.37115093  0.51252986  0.08245889  1
  O  O61  1  0.14515113  0.64415299  0.08353773  1
  O  O62  1  0.51501492  0.87034901  0.07834966  1
  O  O63  1  0.36004588  0.86198245  0.58151823  1
  O  O64  1  0.49872421  0.63611437  0.58001080  1
  O  O65  1  0.14345882  0.49665098  0.57953613  1
  O  O66  1  0.31738778  0.83255696  0.25757724  1
  O  O67  1  0.50716769  0.67694090  0.26028240  1
  O  O68  1  0.17148170  0.48846732  0.25887146  1
  O  O69  1  0.31425368  0.48544455  0.75622738  1
  O  O70  1  0.16897307  0.69205583  0.75437344  1
  O  O71  1  0.51744234  0.82511503  0.75598965  1
loop_
_geom_bond_atom_site_label_1
_geom_bond_atom_site_label_2
_geom_bond_distance
_geom_bond_site_symmetry_2
Na0 O53 2.486150 1_555
Na0 O52 2.487285 1_555
Na0 O66 2.562221 1_545
Na0 O67 2.602914 1_545
Na0 O31 2.721211 1_545
Na0 O16 2.769361 1_555
Na0 O2 2.827890 1_555
Na0 O9 2.834717 1_545
Na1 O68 2.484796 1_555
Na1 O67 2.489129 1_555
Na1 O51 2.557578 1_555
Na1 O53 2.617724 1_555
Na1 O17 2.737011 1_555
Na1 O32 2.752142 1_555
Na1 O10 2.833613 1_555
Na1 O0 2.837987 1_555
Na2 O52 2.527835 1_455
Na2 O66 2.528927 1_555
Na2 O51 2.538830 1_455
Na2 O68 2.539870 1_555
Na2 O30 2.730144 1_555
Na2 O15 2.743145 1_455
Na2 O11 2.826220 1_555
Na2 O1 2.828774 1_455
Na3 O71 2.462764 1_555
Na3 O49 2.498486 1_555
Na3 O50 2.515724 1_555
Na3 O69 2.523316 1_555
Na3 O14 2.681625 1_555
Na3 O35 2.774417 1_555
Na3 O4 2.904780 1_555
Na3 O6 2.909818 1_555
Na4 O48 2.478697 1_555
Na4 O50 2.515367 1_555
Na4 O69 2.547485 1_655
Na4 O70 2.611538 1_655
Na4 O12 2.699471 1_555
Na4 O33 2.762790 1_655
Na4 O5 2.872925 1_555
Na4 O7 2.905486 1_655
Na5 O49 2.466781 1_555
Na5 O48 2.480392 1_555
Na5 O70 2.516044 1_545
Na5 O71 2.614713 1_545
Na5 O13 2.690540 1_555
Na5 O34 2.757731 1_545
Na5 O3 2.832335 1_555
Na5 O8 2.952735 1_545
Na6 O43 2.408820 1_555
Na6 O64 2.421350 1_555
Na6 O65 2.496918 1_555
Na6 O42 2.598697 1_455
Na6 O7 2.648217 1_555
Na6 O28 2.764723 1_555
Na7 O44 2.416786 1_455
Na7 O65 2.508515 1_555
Na7 O63 2.535386 1_555
Na7 O43 2.598758 1_565
Na7 O29 2.632966 1_555
Na7 O8 2.715638 1_555
Na8 O42 2.417121 1_565
Na8 O63 2.462204 1_555
Na8 O64 2.551003 1_555
Na8 O44 2.589881 1_555
Na8 O27 2.654085 1_555
Na8 O6 2.729877 1_555
Na9 O47 2.456174 1_565
Na9 O45 2.503065 1_455
Na9 O61 2.535211 1_555
Na9 O62 2.609673 1_555
Na9 O11 2.631191 1_555
Na9 O26 2.655809 1_554
Na10 O60 2.375287 1_555
Na10 O45 2.386721 1_555
Na10 O9 2.564886 1_555
Na10 O46 2.625402 1_565
Na10 O62 2.633286 1_555
Na10 O24 2.829992 1_554
Na10 O19 2.919955 1_555
Na10 O17 2.921449 1_555
Na11 O47 2.452458 1_555
Na11 O61 2.465353 1_555
Na11 O46 2.523614 1_455
Na11 O10 2.565112 1_555
Na11 O60 2.580121 1_555
Na11 O25 2.706275 1_554
Na12 O40 2.394290 1_655
Na12 O55 2.431878 1_555
Na12 O41 2.623600 1_555
Na12 O4 2.646278 1_555
Na12 O54 2.652057 1_555
Na12 O19 2.687257 1_556
Na12 O33 2.947397 1_655
Na12 O26 2.955149 1_655
Na13 O56 2.427174 1_555
Na13 O39 2.455868 1_655
Na13 O5 2.510430 1_555
Na13 O55 2.518857 1_555
Na13 O41 2.546810 1_545
Na13 O20 2.817036 1_556
Na14 O39 2.462994 1_555
Na14 O40 2.495896 1_545
Na14 O56 2.559684 1_555
Na14 O54 2.566326 1_555
Na14 O3 2.634840 1_555
Na14 O18 2.670612 1_556
Na14 O25 2.891273 1_555
Na15 O37 2.421364 1_545
Na15 O59 2.456359 1_555
Na15 O38 2.551585 1_655
Na15 O2 2.554837 1_555
Na15 O57 2.560955 1_555
Na15 O23 2.771499 1_555
Na15 O30 2.934335 1_655
Na16 O57 2.423485 1_555
Na16 O36 2.446362 1_545
Na16 O38 2.592619 1_555
Na16 O0 2.634294 1_555
Na16 O58 2.647181 1_555
Na16 O21 2.760551 1_555
Na16 O31 2.900894 1_545
Na16 O29 2.922271 1_545
Na17 O36 2.469552 1_655
Na17 O37 2.503630 1_555
Na17 O58 2.546938 1_555
Na17 O59 2.562961 1_555
Na17 O1 2.635806 1_555
Na17 O22 2.731464 1_555
Na17 O27 2.894316 1_555
Na18 O44 2.485142 1_555
Na18 O36 2.526767 1_655
Na18 O42 2.536375 1_565
Na18 O43 2.561809 1_665
Na18 O37 2.571419 1_555
Na18 O38 2.712869 1_665
Na19 O40 2.446171 1_544
Na19 O47 2.476724 1_555
Na19 O45 2.521833 1_445
Na19 O39 2.539645 1_554
Na19 O46 2.704136 1_455
Na19 O41 2.731489 1_444
Na20 O56 2.481467 1_555
Na20 O48 2.507979 1_555
Na20 O55 2.518040 1_555
Na20 O50 2.552621 1_555
Na20 O49 2.588842 1_555
Na20 O54 2.708101 1_555
Na21 O57 2.492336 1_555
Na21 O59 2.507384 1_555
Na21 O52 2.525559 1_555
Na21 O53 2.598492 1_555
Na21 O51 2.606257 1_555
Na21 O58 2.649180 1_555
Na22 O60 2.450553 1_555
Na22 O61 2.484137 1_555
Na22 O68 2.506428 1_555
Na22 O66 2.588459 1_555
Na22 O67 2.597022 1_555
Na22 O62 2.709012 1_555
Na23 O64 2.493057 1_555
Na23 O63 2.513361 1_555
Na23 O65 2.532528 1_555
Na23 O71 2.568369 1_555
Na23 O69 2.570835 1_555
Na23 O70 2.580805 1_555
O0 Si0 1.622342 1_555
O0 Sc0 2.077181 1_445
O1 Si1 1.628181 1_555
O1 Sc0 1.996115 1_555
O2 Si2 1.632178 1_555
O2 Sc0 2.051900 1_545
O3 Si3 1.625992 1_555
O3 Sc1 1.975610 1_555
O4 Si4 1.614674 1_555
O4 Sc1 2.040702 1_665
O5 Si5 1.623041 1_545
O5 Sc1 2.047114 1_655
O6 Si5 1.672122 1_555
O6 Ti0 1.907019 1_555
O7 Si3 1.667366 1_555
O7 Ti0 1.940452 1_445
O8 Si4 1.657880 1_455
O8 Ti0 1.926861 1_455
O9 Si1 1.624171 1_555
O9 Sc2 2.084171 1_665
O10 Si2 1.632994 1_455
O10 Sc2 2.043050 1_555
O11 Si0 1.629414 1_565
O11 Sc2 1.997431 1_565
O12 Si6 1.629738 1_555
O12 Ti1 1.912210 1_555
O13 Si7 1.640600 1_555
O13 Ti1 1.888608 1_555
O14 Si8 1.641689 1_555
O14 Ti1 1.893608 1_555
O15 Si9 1.669057 1_555
O15 Ti2 1.874946 1_555
O16 S0 1.483530 1_555
O16 Ti2 2.279187 1_555
O17 Si10 1.675076 1_555
O17 Ti2 1.889896 1_555
O18 Si10 1.634373 1_555
O18 Sc3 1.983153 1_554
O19 Si9 1.629559 1_555
O19 Sc3 1.996403 1_554
O20 S0 1.497815 1_555
O20 Sc3 2.142598 1_554
O21 Si7 1.665571 1_555
O21 Ti3 1.908185 1_555
O22 Si8 1.672332 1_555
O22 Ti3 1.900361 1_555
O23 Si6 1.684284 1_555
O23 Ti3 1.825576 1_555
O24 S1 1.493004 1_555
O24 Sc4 2.212860 1_556
O25 Si11 1.637386 1_555
O25 Sc4 1.944786 1_556
O26 Si12 1.633135 1_555
O26 Sc4 1.996933 1_556
O27 Si13 1.625603 1_555
O27 Sc5 1.994500 1_555
O28 S2 1.500802 1_555
O28 Sc5 2.222560 1_555
O29 Si14 1.624602 1_555
O29 Sc5 2.006874 1_555
O30 Si14 1.675348 1_555
O30 Ti4 1.897248 1_555
O31 Si13 1.677375 1_555
O31 Ti4 1.914876 1_555
O32 S2 1.482454 1_555
O32 Ti4 2.289894 1_555
O33 Si11 1.681836 1_555
O33 Ti5 1.885898 1_555
O34 Si12 1.686855 1_555
O34 Ti5 1.870803 1_555
O35 S1 1.478174 1_555
O35 Ti5 2.321644 1_555
O36 Si14 1.634378 1_555
O36 Sc0 2.142552 1_455
O37 Si13 1.635723 1_555
O37 Sc0 2.113977 1_555
O38 S2 1.492582 1_555
O38 Sc0 2.322442 1_445
O39 Si11 1.633401 1_555
O39 Sc1 2.109332 1_555
O40 Si12 1.634093 1_555
O40 Sc1 2.151068 1_565
O41 S1 1.489427 1_555
O41 Sc1 2.318717 1_665
O42 Si6 1.639486 1_555
O42 Ti0 2.069841 1_545
O43 Si7 1.643533 1_555
O43 Ti0 2.077281 1_445
O44 Si8 1.647251 1_555
O44 Ti0 2.087061 1_555
O45 Si9 1.634604 1_555
O45 Sc2 2.125044 1_665
O46 S0 1.484675 1_555
O46 Sc2 2.343107 1_655
O47 Si10 1.637835 1_555
O47 Sc2 2.119155 1_555
O48 Si5 1.642529 1_545
O48 Ti1 2.055456 1_555
O49 Si3 1.643516 1_555
O49 Ti1 2.003657 1_555
O50 Si4 1.631331 1_555
O50 Ti1 2.040378 1_555
O51 Si1 1.669549 1_555
O51 Ti2 1.869521 1_555
O52 Si2 1.657461 1_555
O52 Ti2 2.022831 1_555
O53 Si0 1.639950 1_555
O53 Ti2 2.004669 1_555
O54 S1 1.496194 1_555
O54 Sc3 2.229371 1_555
O55 Si11 1.636303 1_655
O55 Sc3 2.142782 1_555
O56 Si12 1.640566 1_545
O56 Sc3 2.148549 1_555
O57 Si13 1.664649 1_545
O57 Ti3 2.075640 1_555
O58 S2 1.487338 1_555
O58 Ti3 2.380348 1_555
O59 Si14 1.665860 1_655
O59 Ti3 2.066953 1_555
O60 Si10 1.643346 1_555
O60 Sc4 2.156285 1_555
O61 Si9 1.647120 1_455
O61 Sc4 2.067181 1_555
O62 S0 1.484307 1_565
O62 Sc4 2.314044 1_555
O63 Si7 1.633774 1_565
O63 Sc5 2.067214 1_555
O64 Si8 1.628820 1_555
O64 Sc5 2.160719 1_555
O65 Si6 1.619788 1_455
O65 Sc5 2.139589 1_555
O66 Si0 1.670417 1_565
O66 Ti4 1.872422 1_555
O67 Si1 1.642282 1_555
O67 Ti4 2.013973 1_555
O68 Si2 1.659280 1_455
O68 Ti4 2.010780 1_555
O69 Si3 1.651740 1_555
O69 Ti5 2.059072 1_555
O70 Si4 1.677726 1_455
O70 Ti5 1.900318 1_555
O71 Si5 1.657251 1_555
O71 Ti5 2.036842 1_555
