# generated using pymatgen
data_DyAgGe
_symmetry_space_group_name_H-M   'P 1'
_cell_length_a   7.41135054
_cell_length_b   7.41135054
_cell_length_c   4.09836300
_cell_angle_alpha   90.00000000
_cell_angle_beta   90.00000000
_cell_angle_gamma   120.00000482
_symmetry_Int_Tables_number   1
_chemical_formula_structural   DyAgGe
_chemical_formula_sum   'Dy3 Ag3 Ge3'
_cell_volume   194.95561252
_cell_formula_units_Z   3
loop_
 _symmetry_equiv_pos_site_id
 _symmetry_equiv_pos_as_xyz
  1  'x, y, z'
loop_
 _atom_site_type_symbol
 _atom_site_label
 _atom_site_symmetry_multiplicity
 _atom_site_fract_x
 _atom_site_fract_y
 _atom_site_fract_z
 _atom_site_occupancy
  Dy  Dy0  1  0.00000000  0.60568200  0.00000000  1
  Dy  Dy1  1  0.39431800  0.39431800  0.00000000  1
  Dy  Dy2  1  0.60568200  0.00000000  0.00000000  1
  Ag  Ag0  1  0.66666700  0.33333300  0.50000000  1
  Ag  Ag1  1  0.00000000  0.00000000  0.00000000  1
  Ag  Ag2  1  0.33333300  0.66666700  0.50000000  1
  Ge  Ge0  1  0.73182200  0.73182200  0.50000000  1
  Ge  Ge1  1  0.26817800  0.00000000  0.50000000  1
  Ge  Ge2  1  0.00000000  0.26817800  0.50000000  1
loop_
_geom_bond_atom_site_label_1
_geom_bond_atom_site_label_2
_geom_bond_distance
_geom_bond_site_symmetry_2
Dy0 Ge2 3.233566 1_554
Dy0 Ge2 3.233566 1_555
Dy0 Ge1 3.298731 1_565
Dy0 Ge1 3.298731 1_564
Dy0 Ge0 3.298731 1_454
Dy0 Ge0 3.298731 1_455
Dy1 Ge0 3.233566 1_555
Dy1 Ge0 3.233566 1_554
Dy1 Ge2 3.298731 1_555
Dy1 Ge1 3.298731 1_554
Dy1 Ge1 3.298731 1_555
Dy1 Ge2 3.298731 1_554
Dy2 Ge1 3.233566 1_554
Dy2 Ge1 3.233566 1_555
Dy2 Ge2 3.298731 1_655
Dy2 Ge2 3.298731 1_654
Dy2 Ge0 3.298731 1_544
Dy2 Ge0 3.298731 1_545
Ag0 Ge2 2.743946 1_655
Ag0 Ge1 2.743950 1_555
Ag0 Ge0 2.743953 1_555
Ag0 Dy2 3.064302 1_555
Ag0 Dy2 3.064302 1_556
Ag0 Dy0 3.064304 1_655
Ag0 Dy0 3.064304 1_656
Ag0 Dy1 3.064308 1_555
Ag0 Dy1 3.064308 1_556
Ag1 Ge0 2.854741 1_444
Ag1 Ge0 2.854741 1_445
Ag1 Ge2 2.854741 1_555
Ag1 Ge1 2.854741 1_555
Ag1 Ge1 2.854741 1_554
Ag1 Ge2 2.854741 1_554
Ag1 Dy1 2.922429 1_555
Ag1 Dy2 2.922429 1_455
Ag1 Dy0 2.922429 1_545
Ag2 Ge1 2.743946 1_565
Ag2 Ge2 2.743950 1_555
Ag2 Ge0 2.743953 1_555
Ag2 Dy0 3.064302 1_556
Ag2 Dy0 3.064302 1_555
Ag2 Dy2 3.064304 1_566
Ag2 Dy2 3.064304 1_565
Ag2 Dy1 3.064308 1_556
Ag2 Dy1 3.064308 1_555
