# generated using pymatgen
data_Na7MgAl3Si3(SO8)3
_symmetry_space_group_name_H-M   'P 1'
_cell_length_a   8.83616636
_cell_length_b   8.79649277
_cell_length_c   21.77753713
_cell_angle_alpha   90.65479916
_cell_angle_beta   90.19078094
_cell_angle_gamma   119.93999365
_symmetry_Int_Tables_number   1
_chemical_formula_structural   Na7MgAl3Si3(SO8)3
_chemical_formula_sum   'Na21 Mg3 Al9 Si9 S9 O72'
_cell_volume   1466.63872674
_cell_formula_units_Z   3
loop_
 _symmetry_equiv_pos_site_id
 _symmetry_equiv_pos_as_xyz
  1  'x, y, z'
loop_
 _atom_site_type_symbol
 _atom_site_label
 _atom_site_symmetry_multiplicity
 _atom_site_fract_x
 _atom_site_fract_y
 _atom_site_fract_z
 _atom_site_occupancy
  Na  Na0  1  0.63810614  0.99680042  0.24061971  1
  Na  Na1  1  0.37733713  0.37462834  0.24027367  1
  Na  Na2  1  0.98377026  0.63495214  0.25592903  1
  Na  Na3  1  0.62445675  0.62708645  0.74101957  1
  Na  Na4  1  0.99492801  0.35234386  0.75046301  1
  Na  Na5  1  0.38580283  0.01543545  0.75782172  1
  Na  Na6  1  0.02001115  0.69434397  0.57490546  1
  Na  Na7  1  0.66520538  0.96128857  0.58437140  1
  Na  Na8  1  0.31700573  0.98296335  0.08061436  1
  Na  Na9  1  0.65239902  0.68660835  0.09019938  1
  Na  Na10  1  0.69394832  0.03356273  0.91580308  1
  Na  Na11  1  0.33105587  0.29017409  0.91688353  1
  Na  Na12  1  0.96638336  0.30206521  0.41282373  1
  Na  Na13  1  0.33601680  0.02604475  0.41646039  1
  Na  Na14  1  0.72378296  0.68689267  0.41620046  1
  Na  Na15  1  0.99409382  0.99326522  0.49970352  1
  Na  Na16  1  0.00808477  0.00718035  0.00197677  1
  Na  Na17  1  0.66017338  0.32784053  0.83316197  1
  Na  Na18  1  0.67491207  0.34620882  0.33189053  1
  Na  Na19  1  0.33940262  0.65384248  0.16071911  1
  Na  Na20  1  0.34997726  0.64410336  0.66587118  1
  Mg  Mg0  1  0.99099693  0.98687215  0.35617959  1
  Mg  Mg1  1  0.65430927  0.33281667  0.68771936  1
  Mg  Mg2  1  0.65565842  0.33788869  0.17712870  1
  Al  Al0  1  0.01525857  0.00658781  0.85039598  1
  Al  Al1  1  0.98402241  0.99825764  0.65108549  1
  Al  Al2  1  0.97935298  0.00506513  0.14270562  1
  Al  Al3  1  0.63139779  0.29600880  0.98703631  1
  Al  Al4  1  0.69193793  0.35518085  0.47866488  1
  Al  Al5  1  0.32900118  0.67322021  0.02089736  1
  Al  Al6  1  0.35378343  0.67759461  0.51612714  1
  Al  Al7  1  0.35009623  0.68863753  0.31769558  1
  Al  Al8  1  0.34916080  0.67595823  0.81213310  1
  Si  Si0  1  0.70301139  0.70545254  0.25120028  1
  Si  Si1  1  0.28318886  0.29020901  0.75172843  1
  Si  Si2  1  0.71245102  0.99663294  0.75380698  1
  Si  Si3  1  0.66403191  0.62819823  0.58319498  1
  Si  Si4  1  0.66498637  0.03604568  0.08251576  1
  Si  Si5  1  0.35220672  0.33156621  0.08213087  1
  Si  Si6  1  0.32015312  0.94697463  0.91668378  1
  Si  Si7  1  0.62937022  0.97275881  0.41918766  1
  Si  Si8  1  0.05725863  0.66611404  0.41828867  1
  S  S0  1  0.28687866  0.99483338  0.25129558  1
  S  S1  1  0.00734613  0.29411682  0.25073532  1
  S  S2  1  0.00589477  0.71717122  0.74953060  1
  S  S3  1  0.96432460  0.33447000  0.58385892  1
  S  S4  1  0.36978375  0.04094287  0.58318910  1
  S  S5  1  0.95427654  0.61645451  0.08195383  1
  S  S6  1  0.62731959  0.66488303  0.91680799  1
  S  S7  1  0.04389801  0.38701773  0.91530001  1
  S  S8  1  0.34143202  0.38647517  0.41627722  1
  O  O0  1  0.21027420  0.02192601  0.30775960  1
  O  O1  1  0.81716977  0.78526687  0.31360811  1
  O  O2  1  0.99263223  0.19778419  0.30774175  1
  O  O3  1  0.20053419  0.17369392  0.81362234  1
  O  O4  1  0.97892920  0.80244749  0.80422739  1
  O  O5  1  0.83480633  0.01688083  0.81386096  1
  O  O6  1  0.79118711  0.95912457  0.69065870  1
  O  O7  1  0.15076667  0.18702253  0.69345635  1
  O  O8  1  0.03008119  0.82066313  0.69264848  1
  O  O9  1  0.80442260  0.83673539  0.19202446  1
  O  O10  1  0.02822627  0.20189974  0.19631708  1
  O  O11  1  0.18049661  0.97566867  0.19562711  1
  O  O12  1  0.88260370  0.35843573  0.63933711  1
  O  O13  1  0.47797003  0.11712114  0.63891551  1
  O  O14  1  0.64569834  0.52389797  0.64522434  1
  O  O15  1  0.88764134  0.52543309  0.14064825  1
  O  O16  1  0.62925433  0.11879426  0.14408371  1
  O  O17  1  0.48310021  0.39049997  0.14180422  1
  O  O18  1  0.44952478  0.29259516  0.02379362  1
  O  O19  1  0.83318522  0.52377024  0.02917616  1
  O  O20  1  0.69330965  0.15373798  0.02111859  1
  O  O21  1  0.45555927  0.14489704  0.52746517  1
  O  O22  1  0.70025218  0.53099950  0.52362798  1
  O  O23  1  0.85172746  0.30894877  0.52760715  1
  O  O24  1  0.54017651  0.69121768  0.97098082  1
  O  O25  1  0.15990786  0.47700098  0.96865199  1
  O  O26  1  0.30419363  0.83470058  0.97769946  1
  O  O27  1  0.53714687  0.84166797  0.47676241  1
  O  O28  1  0.31299687  0.46733401  0.47160431  1
  O  O29  1  0.16962387  0.67547323  0.47957647  1
  O  O30  1  0.14481449  0.63169326  0.35627127  1
  O  O31  1  0.50544069  0.88595040  0.35748689  1
  O  O32  1  0.36911120  0.49398403  0.36014568  1
  O  O33  1  0.12705231  0.48083786  0.85715554  1
  O  O34  1  0.35777032  0.85413639  0.85692346  1
  O  O35  1  0.51546356  0.63252085  0.85982994  1
  O  O36  1  0.04229528  0.84363618  0.41821719  1
  O  O37  1  0.82549912  0.00231448  0.41569836  1
  O  O38  1  0.18575169  0.20919950  0.41004984  1
  O  O39  1  0.02234751  0.20373451  0.91467980  1
  O  O40  1  0.15114703  0.97801504  0.91020507  1
  O  O41  1  0.80103312  0.82639635  0.91164463  1
  O  O42  1  0.97432486  0.16969559  0.58562280  1
  O  O43  1  0.19128623  0.01903978  0.58811380  1
  O  O44  1  0.84863075  0.82888707  0.58809409  1
  O  O45  1  0.97539647  0.79766656  0.08595078  1
  O  O46  1  0.83045391  0.00166339  0.08566929  1
  O  O47  1  0.17130283  0.14420415  0.09429535  1
  O  O48  1  0.69555757  0.17249729  0.74853756  1
  O  O49  1  0.47838020  0.31587336  0.74890013  1
  O  O50  1  0.85208291  0.53815722  0.74611015  1
  O  O51  1  0.68129456  0.50883693  0.24555221  1
  O  O52  1  0.84928554  0.31285602  0.24598143  1
  O  O53  1  0.46778245  0.14734313  0.24814783  1
  O  O54  1  0.64493412  0.50556662  0.92258382  1
  O  O55  1  0.86705805  0.36768952  0.91962929  1
  O  O56  1  0.50282653  0.14935579  0.92057719  1
  O  O57  1  0.63681732  0.16375435  0.42861382  1
  O  O58  1  0.50022455  0.36742665  0.42180082  1
  O  O59  1  0.85684225  0.49375059  0.42116205  1
  O  O60  1  0.33416378  0.50224216  0.06655777  1
  O  O61  1  0.13196075  0.63937883  0.07454375  1
  O  O62  1  0.48910753  0.83957144  0.07490378  1
  O  O63  1  0.34762672  0.85803010  0.57835035  1
  O  O64  1  0.49260942  0.65500067  0.57419045  1
  O  O65  1  0.14041793  0.49162185  0.57816635  1
  O  O66  1  0.29498873  0.82676223  0.25352568  1
  O  O67  1  0.50443269  0.68908793  0.25758873  1
  O  O68  1  0.16844039  0.47262880  0.25159524  1
  O  O69  1  0.29707596  0.48580929  0.75912793  1
  O  O70  1  0.16685394  0.70177759  0.75453311  1
  O  O71  1  0.51570739  0.82039834  0.75713750  1
loop_
_geom_bond_atom_site_label_1
_geom_bond_atom_site_label_2
_geom_bond_distance
_geom_bond_site_symmetry_2
Na0 O67 2.385966 1_555
Na0 O16 2.389913 1_565
Na0 O53 2.455938 1_565
Na0 O52 2.457181 1_565
Na0 O66 2.645178 1_555
Na0 O9 2.702581 1_555
Na0 O31 2.781730 1_555
Na1 O17 2.319775 1_555
Na1 O51 2.334605 1_555
Na1 O68 2.407821 1_555
Na1 O67 2.434633 1_555
Na1 O53 2.503441 1_555
Na1 O32 2.817302 1_555
Na1 O10 2.830103 1_555
Na2 O51 2.335769 1_555
Na2 O66 2.404877 1_655
Na2 O52 2.471880 1_555
Na2 O30 2.611965 1_655
Na2 O68 2.652192 1_655
Na2 O15 2.658208 1_555
Na2 O1 2.722232 1_555
Na2 O11 2.938310 1_655
Na3 O14 2.310994 1_555
Na3 O71 2.357507 1_555
Na3 O49 2.382214 1_555
Na3 O50 2.498154 1_555
Na3 O69 2.549214 1_555
Na3 O35 2.772032 1_555
Na3 O6 2.773618 1_555
Na4 O48 2.307061 1_555
Na4 O69 2.324813 1_655
Na4 O50 2.517108 1_555
Na4 O33 2.577582 1_655
Na4 O12 2.623862 1_555
Na4 O70 2.663769 1_655
Na4 O7 2.742491 1_655
Na4 O5 2.924795 1_555
Na5 O49 2.355025 1_555
Na5 O48 2.382549 1_555
Na5 O70 2.454988 1_545
Na5 O71 2.495296 1_545
Na5 O34 2.540682 1_545
Na5 O13 2.740185 1_555
Na5 O3 2.888620 1_555
Na6 O44 2.358080 1_455
Na6 O43 2.488881 1_565
Na6 O65 2.492621 1_555
Na6 O63 2.508888 1_555
Na6 O29 2.512887 1_555
Na6 O22 2.680415 1_455
Na6 O8 2.766252 1_555
Na6 O12 2.949404 1_455
Na7 O64 2.348755 1_555
Na7 O42 2.412948 1_565
Na7 O44 2.423937 1_555
Na7 O63 2.483430 1_555
Na7 O6 2.569492 1_555
Na7 O27 2.572331 1_555
Na7 O13 2.875206 1_565
Na7 O23 2.943781 1_565
Na8 O47 2.360865 1_565
Na8 O62 2.414829 1_555
Na8 O26 2.553621 1_554
Na8 O45 2.622451 1_455
Na8 O61 2.623381 1_555
Na8 O18 2.687732 1_565
Na8 O16 2.756237 1_565
Na8 O11 2.771120 1_555
Na9 O46 2.412580 1_565
Na9 O62 2.438907 1_555
Na9 O60 2.494316 1_555
Na9 O45 2.515806 1_555
Na9 O17 2.544414 1_555
Na9 O9 2.570647 1_555
Na9 O24 2.784070 1_554
Na9 O19 2.936733 1_555
Na10 O56 2.369824 1_555
Na10 O41 2.437713 1_545
Na10 O39 2.515392 1_655
Na10 O20 2.515623 1_556
Na10 O55 2.547781 1_555
Na10 O5 2.586997 1_555
Na10 O34 2.864914 1_545
Na10 O24 2.892765 1_545
Na11 O40 2.391732 1_545
Na11 O56 2.392221 1_555
Na11 O39 2.439114 1_555
Na11 O54 2.458545 1_555
Na11 O3 2.487460 1_555
Na11 O18 2.545063 1_556
Na11 O35 2.910089 1_555
Na11 O25 2.951051 1_555
Na12 O37 2.287778 1_555
Na12 O59 2.331580 1_555
Na12 O38 2.451221 1_655
Na12 O2 2.509995 1_555
Na12 O57 2.560950 1_555
Na12 O23 2.711682 1_555
Na12 O30 2.818040 1_655
Na12 O28 2.935874 1_655
Na13 O36 2.270952 1_545
Na13 O57 2.318648 1_555
Na13 O38 2.552916 1_555
Na13 O58 2.603501 1_555
Na13 O0 2.603836 1_555
Na13 O21 2.622130 1_555
Na13 O31 2.688387 1_545
Na14 O1 2.401069 1_555
Na14 O36 2.438919 1_655
Na14 O37 2.453138 1_565
Na14 O59 2.505554 1_555
Na14 O58 2.506486 1_555
Na14 O22 2.681228 1_555
Na14 O27 2.920177 1_555
Na14 O32 2.968179 1_555
Na15 O36 2.360963 1_655
Na15 O44 2.381837 1_555
Na15 O37 2.382432 1_565
Na15 O42 2.479231 1_565
Na15 O43 2.523450 1_665
Na15 O38 2.680266 1_665
Na16 O46 2.394347 1_455
Na16 O47 2.401025 1_555
Na16 O40 2.446815 1_544
Na16 O45 2.524586 1_445
Na16 O39 2.545335 1_554
Na16 O41 2.597391 1_444
Na17 O48 2.394594 1_555
Na17 O49 2.401229 1_555
Na17 O56 2.434977 1_555
Na17 O55 2.516529 1_555
Na17 O54 2.529202 1_555
Na17 O50 2.619589 1_555
Na18 O51 2.359367 1_555
Na18 O59 2.426352 1_555
Na18 O52 2.533421 1_555
Na18 O53 2.538659 1_555
Na18 O58 2.559423 1_555
Na18 O57 2.582407 1_555
Na19 O62 2.416737 1_555
Na19 O60 2.420892 1_555
Na19 O67 2.487203 1_555
Na19 O68 2.535361 1_555
Na19 O61 2.576207 1_555
Na19 O66 2.661474 1_555
Na20 O64 2.341895 1_555
Na20 O69 2.388135 1_555
Na20 O71 2.478530 1_555
Na20 O65 2.512902 1_555
Na20 O63 2.700952 1_555
Na20 O70 2.724269 1_555
Mg0 O1 1.896759 1_555
Mg0 O37 2.010948 1_565
Mg0 O36 2.055039 1_655
Mg0 O0 2.094238 1_665
Mg0 O2 2.138479 1_565
Mg0 O38 2.176512 1_665
Mg1 O14 1.962195 1_555
Mg1 O49 2.000266 1_555
Mg1 O13 2.036985 1_555
Mg1 O48 2.104379 1_555
Mg1 O50 2.171507 1_555
Mg1 O12 2.189988 1_555
Mg2 O16 1.950641 1_555
Mg2 O17 1.958452 1_555
Mg2 O51 2.034568 1_555
Mg2 O15 2.054232 1_555
Mg2 O53 2.292651 1_555
Mg2 O52 2.364443 1_555
Al0 O3 1.765159 1_555
Al0 O5 1.822361 1_455
Al0 O40 1.870758 1_545
Al0 O4 1.928664 1_445
Al0 O39 2.192420 1_555
Al0 O41 2.223715 1_445
Al1 O6 1.787636 1_555
Al1 O7 1.814747 1_665
Al1 O44 1.922490 1_555
Al1 O8 2.022354 1_655
Al1 O42 2.119260 1_565
Al1 O43 2.226302 1_665
Al2 O46 1.795484 1_555
Al2 O47 1.858893 1_655
Al2 O9 1.870323 1_545
Al2 O10 1.936907 1_655
Al2 O45 2.177554 1_545
Al2 O11 2.237406 1_645
Al3 O20 1.765876 1_556
Al3 O18 1.784731 1_556
Al3 O56 1.879637 1_555
Al3 O19 2.101582 1_556
Al3 O54 2.285311 1_555
Al3 O55 2.370548 1_555
Al4 O22 1.790985 1_555
Al4 O57 1.842991 1_555
Al4 O59 1.857769 1_555
Al4 O23 1.966721 1_555
Al4 O58 2.141504 1_555
Al4 O21 2.262036 1_555
Al5 O26 1.814038 1_554
Al5 O60 1.831736 1_555
Al5 O62 1.846389 1_555
Al5 O25 1.968686 1_554
Al5 O61 1.997252 1_555
Al5 O24 2.100288 1_554
Al6 O27 1.773816 1_555
Al6 O29 1.800736 1_555
Al6 O64 1.839005 1_555
Al6 O28 1.944783 1_555
Al6 O63 2.096639 1_555
Al6 O65 2.246083 1_555
Al7 O31 1.796435 1_555
Al7 O30 1.832951 1_555
Al7 O67 1.892049 1_555
Al7 O32 2.033970 1_555
Al7 O66 2.071499 1_555
Al7 O68 2.266444 1_555
Al8 O34 1.805366 1_555
Al8 O71 1.842432 1_555
Al8 O69 1.877748 1_555
Al8 O35 1.985869 1_555
Al8 O33 2.109001 1_555
Al8 O70 2.139697 1_555
O0 S0 1.478809 1_545
O1 Si0 1.618550 1_555
O2 S1 1.480318 1_655
O3 Si1 1.640623 1_555
O4 S2 1.482638 1_655
O5 Si2 1.644406 1_545
O6 Si2 1.645978 1_555
O7 Si1 1.645319 1_555
O8 S2 1.497425 1_555
O9 Si0 1.675146 1_555
O10 S1 1.491775 1_555
O11 S0 1.487051 1_555
O12 S3 1.475638 1_555
O13 S4 1.473068 1_555
O14 Si3 1.604437 1_555
O15 S5 1.476289 1_555
O16 Si4 1.623940 1_555
O17 Si5 1.634428 1_555
O18 Si5 1.662099 1_555
O19 S5 1.493399 1_555
O20 Si4 1.642394 1_555
O21 S4 1.490962 1_555
O22 Si3 1.663375 1_555
O23 S3 1.517765 1_555
O24 S6 1.488706 1_555
O25 S7 1.479327 1_555
O26 Si6 1.628843 1_555
O27 Si7 1.633328 1_555
O28 S8 1.477028 1_555
O29 Si8 1.637398 1_555
O30 Si8 1.657029 1_555
O31 Si7 1.649191 1_555
O32 S8 1.498660 1_555
O33 S7 1.499714 1_555
O34 Si6 1.649447 1_555
O35 S6 1.516748 1_555
O36 Si8 1.631607 1_555
O37 Si7 1.621214 1_545
O38 S8 1.481597 1_555
O39 S7 1.526048 1_555
O40 Si6 1.652604 1_555
O41 S6 1.488370 1_555
O42 S3 1.496411 1_555
O43 S4 1.494843 1_555
O44 Si3 1.705495 1_555
O45 S5 1.511000 1_555
O46 Si4 1.635582 1_555
O47 Si5 1.650682 1_555
O48 Si2 1.631894 1_545
O49 Si1 1.625380 1_555
O50 S2 1.480789 1_655
O51 Si0 1.645271 1_555
O52 S1 1.489212 1_655
O53 S0 1.490606 1_545
O54 S6 1.491867 1_555
O55 S7 1.488500 1_655
O56 Si6 1.705633 1_545
O57 Si7 1.658568 1_545
O58 S8 1.498433 1_555
O59 Si8 1.661813 1_655
O60 Si5 1.626251 1_555
O61 S5 1.489347 1_455
O62 Si4 1.655400 1_565
O63 S4 1.523100 1_565
O64 Si3 1.656491 1_555
O65 S3 1.485123 1_455
O66 S0 1.516787 1_555
O67 Si0 1.693787 1_555
O68 S1 1.503442 1_555
O69 Si1 1.668610 1_555
O70 S2 1.498192 1_555
O71 Si2 1.656510 1_555
