# generated using pymatgen
data_MgNb4(SnO6)2
_symmetry_space_group_name_H-M   'P 1'
_cell_length_a   5.01048528
_cell_length_b   5.86337180
_cell_length_c   9.11068535
_cell_angle_alpha   92.01360284
_cell_angle_beta   106.44013833
_cell_angle_gamma   89.36753560
_symmetry_Int_Tables_number   1
_chemical_formula_structural   MgNb4(SnO6)2
_chemical_formula_sum   'Mg1 Nb4 Sn2 O12'
_cell_volume   256.55521488
_cell_formula_units_Z   1
loop_
 _symmetry_equiv_pos_site_id
 _symmetry_equiv_pos_as_xyz
  1  'x, y, z'
loop_
 _atom_site_type_symbol
 _atom_site_label
 _atom_site_symmetry_multiplicity
 _atom_site_fract_x
 _atom_site_fract_y
 _atom_site_fract_z
 _atom_site_occupancy
  Mg  Mg0  1  0.78599900  0.89535500  0.09321300  1
  Nb  Nb0  1  0.43147600  0.14367800  0.32837600  1
  Nb  Nb1  1  0.04325700  0.34624900  0.62787900  1
  Nb  Nb2  1  0.55492800  0.85329000  0.66842300  1
  Nb  Nb3  1  0.95440800  0.62889700  0.37889800  1
  Sn  Sn0  1  0.77558300  0.33341700  0.99286500  1
  Sn  Sn1  1  0.22411200  0.71007700  0.95954100  1
  O  O0  1  0.73033200  0.14089200  0.56081600  1
  O  O1  1  0.19607900  0.32725000  0.44111600  1
  O  O2  1  0.26676400  0.83826700  0.43952100  1
  O  O3  1  0.81035600  0.65958500  0.56683300  1
  O  O4  1  0.62860100  0.38697500  0.28154400  1
  O  O5  1  0.33086300  0.09618700  0.71180500  1
  O  O6  1  0.98922600  0.60580700  0.13503300  1
  O  O7  1  0.83547600  0.88305800  0.87009600  1
  O  O8  1  0.02494900  0.41051500  0.85584900  1
  O  O9  1  0.12278300  0.10352500  0.15001100  1
  O  O10  1  0.66783600  0.89129200  0.28334100  1
  O  O11  1  0.36447200  0.60282500  0.71912400  1
loop_
_geom_bond_atom_site_label_1
_geom_bond_atom_site_label_2
_geom_bond_distance
_geom_bond_site_symmetry_2
Mg0 O6 1.962652 1_555
Mg0 O10 1.983760 1_555
Mg0 O9 2.027783 1_665
Mg0 O7 2.115009 1_554
Mg0 Sn1 2.936533 1_554
Nb0 O4 1.872169 1_555
Nb0 O9 1.909689 1_555
Nb0 O10 1.988579 1_545
Nb0 O1 2.045643 1_555
Nb0 O0 2.221284 1_555
Nb0 O2 2.355057 1_545
Nb1 O0 1.931113 1_455
Nb1 O1 2.053345 1_555
Nb1 O5 2.054137 1_555
Nb1 O8 2.125149 1_555
Nb1 O3 2.168761 1_455
Nb1 O11 2.180104 1_555
Nb2 O11 1.899691 1_555
Nb2 O5 1.902958 1_565
Nb2 O7 1.975685 1_555
Nb2 O3 2.085442 1_555
Nb2 O2 2.174192 1_555
Nb2 O0 2.283371 1_565
Nb3 O2 1.940871 1_655
Nb3 O3 2.039610 1_555
Nb3 O10 2.127080 1_555
Nb3 O1 2.133170 1_655
Nb3 O4 2.146351 1_555
Nb3 O6 2.276574 1_555
O6 Sn0 2.117054 1_554
O6 Sn1 2.337700 1_654
O7 Sn1 2.144964 1_655
O8 Sn0 2.063661 1_455
O8 Sn1 2.088505 1_555
O9 Sn0 2.359482 1_454
O11 Sn1 2.540296 1_555
