# generated using pymatgen
data_MgZn2Cr2O8
_symmetry_space_group_name_H-M   'P 1'
_cell_length_a   5.59939567
_cell_length_b   5.65029326
_cell_length_c   6.26397900
_cell_angle_alpha   90.00000000
_cell_angle_beta   90.00000000
_cell_angle_gamma   59.76787507
_symmetry_Int_Tables_number   1
_chemical_formula_structural   MgZn2Cr2O8
_chemical_formula_sum   'Mg1 Zn2 Cr2 O8'
_cell_volume   171.22709047
_cell_formula_units_Z   1
loop_
 _symmetry_equiv_pos_site_id
 _symmetry_equiv_pos_as_xyz
  1  'x, y, z'
loop_
 _atom_site_type_symbol
 _atom_site_label
 _atom_site_symmetry_multiplicity
 _atom_site_fract_x
 _atom_site_fract_y
 _atom_site_fract_z
 _atom_site_occupancy
  Mg  Mg0  1  0.83090800  0.85535000  0.75000000  1
  Zn  Zn0  1  0.08103100  0.07374300  0.02556500  1
  Zn  Zn1  1  0.08103100  0.07374300  0.47443500  1
  Cr  Cr0  1  0.39114000  0.38749400  0.25000000  1
  Cr  Cr1  1  0.57656800  0.58162900  0.75000000  1
  O  O0  1  0.21165500  0.78842000  0.75000000  1
  O  O1  1  0.23375000  0.75035300  0.25000000  1
  O  O2  1  0.68492300  0.69298700  0.54238600  1
  O  O3  1  0.28288200  0.27637800  0.03535600  1
  O  O4  1  0.68492300  0.69298700  0.95761400  1
  O  O5  1  0.28288200  0.27637800  0.46464400  1
  O  O6  1  0.75859000  0.22886000  0.25000000  1
  O  O7  1  0.78721700  0.22167800  0.75000000  1
loop_
_geom_bond_atom_site_label_1
_geom_bond_atom_site_label_2
_geom_bond_distance
_geom_bond_site_symmetry_2
Mg0 O7 1.958123 1_565
Mg0 O0 1.968842 1_655
Mg0 O4 1.989031 1_555
Mg0 O2 1.989031 1_555
Cr0 O3 1.718323 1_555
Cr0 O5 1.718323 1_555
Cr0 O1 1.777836 1_555
Cr0 O6 1.783138 1_555
Cr1 O4 1.685145 1_555
Cr1 O2 1.685145 1_555
Cr1 O7 1.764077 1_555
Cr1 O0 1.770902 1_555
O0 Zn0 2.219490 1_566
O0 Zn1 2.219490 1_565
O1 Zn1 2.114953 1_565
O1 Zn0 2.114953 1_565
O3 Zn0 1.973640 1_555
O5 Zn1 1.973640 1_555
O6 Zn1 2.100199 1_655
O6 Zn0 2.100199 1_655
O7 Zn0 2.236077 1_656
O7 Zn1 2.236077 1_655
