# generated using pymatgen
data_BaNdMgMn2O6
_symmetry_space_group_name_H-M   'P 1'
_cell_length_a   5.64900307
_cell_length_b   3.83222467
_cell_length_c   7.97005598
_cell_angle_alpha   90.00000000
_cell_angle_beta   90.00000000
_cell_angle_gamma   90.00000000
_symmetry_Int_Tables_number   1
_chemical_formula_structural   BaNdMgMn2O6
_chemical_formula_sum   'Ba1 Nd1 Mg1 Mn2 O6'
_cell_volume   172.53775581
_cell_formula_units_Z   1
loop_
 _symmetry_equiv_pos_site_id
 _symmetry_equiv_pos_as_xyz
  1  'x, y, z'
loop_
 _atom_site_type_symbol
 _atom_site_label
 _atom_site_symmetry_multiplicity
 _atom_site_fract_x
 _atom_site_fract_y
 _atom_site_fract_z
 _atom_site_occupancy
  Ba  Ba0  1  0.00000000  0.00000000  0.49999900  1
  Nd  Nd0  1  0.00000000  0.00000000  0.00000000  1
  Mg  Mg0  1  0.50000000  0.00000000  0.00000000  1
  Mn  Mn0  1  0.50000100  0.50000100  0.73636927  1
  Mn  Mn1  1  0.50000100  0.50000100  0.26363073  1
  O  O0  1  0.50000100  0.50000100  0.00000000  1
  O  O1  1  0.00000000  0.50000100  0.80349309  1
  O  O2  1  0.50000100  0.00000000  0.76123711  1
  O  O3  1  0.00000000  0.50000100  0.19650691  1
  O  O4  1  0.50000100  0.50000100  0.49999900  1
  O  O5  1  0.50000100  0.00000000  0.23876289  1
loop_
_geom_bond_atom_site_label_1
_geom_bond_atom_site_label_2
_geom_bond_distance
_geom_bond_site_symmetry_2
Ba0 O3 3.085823 1_545
Ba0 O3 3.085828 1_555
Ba0 O1 3.085835 1_545
Ba0 O1 3.085840 1_555
Nd0 O1 2.474745 1_544
Nd0 O3 2.474745 1_545
Nd0 O3 2.474751 1_555
Nd0 O1 2.474751 1_554
Mg0 O2 1.902954 1_554
Mg0 O5 1.902954 1_555
Mg0 O0 1.916109 1_545
Mg0 O0 1.916116 1_555
Mn0 O4 1.883884 1_555
Mn0 O2 1.926332 1_565
Mn0 O2 1.926339 1_555
Mn0 O0 2.101152 1_556
Mn0 O1 2.874714 1_655
Mn0 O1 2.874725 1_555
Mn1 O4 1.883868 1_555
Mn1 O5 1.926332 1_565
Mn1 O5 1.926339 1_555
Mn1 O0 2.101152 1_555
Mn1 O3 2.874714 1_655
Mn1 O3 2.874725 1_555
