# generated using pymatgen
data_Ca(IO3)2
_symmetry_space_group_name_H-M   'P 1'
_cell_length_a   11.30565065
_cell_length_b   7.15431743
_cell_length_c   8.66786617
_cell_angle_alpha   53.46625823
_cell_angle_beta   90.00000000
_cell_angle_gamma   90.00000000
_symmetry_Int_Tables_number   1
_chemical_formula_structural   Ca(IO3)2
_chemical_formula_sum   'Ca4 I8 O24'
_cell_volume   563.33316417
_cell_formula_units_Z   4
loop_
 _symmetry_equiv_pos_site_id
 _symmetry_equiv_pos_as_xyz
  1  'x, y, z'
loop_
 _atom_site_type_symbol
 _atom_site_label
 _atom_site_symmetry_multiplicity
 _atom_site_fract_x
 _atom_site_fract_y
 _atom_site_fract_z
 _atom_site_occupancy
  Ca  Ca0  1  0.90082481  0.22910747  0.99404063  1
  Ca  Ca1  1  0.09917519  0.77089253  0.00595937  1
  Ca  Ca2  1  0.59917519  0.22910747  0.49404063  1
  Ca  Ca3  1  0.40082481  0.77089253  0.50595937  1
  I  I0  1  0.78484510  0.68470831  0.05168092  1
  I  I1  1  0.21515490  0.31529169  0.94831908  1
  I  I2  1  0.71515490  0.68470831  0.55168092  1
  I  I3  1  0.28484510  0.31529169  0.44831908  1
  I  I4  1  0.42528857  0.76275100  0.96754402  1
  I  I5  1  0.92528857  0.23724900  0.53245598  1
  I  I6  1  0.57471143  0.23724900  0.03245598  1
  I  I7  1  0.07471143  0.76275100  0.46754402  1
  O  O0  1  0.03945331  0.02346142  0.67281555  1
  O  O1  1  0.79449880  0.05525632  0.62270035  1
  O  O2  1  0.75452236  0.54431676  0.80135304  1
  O  O3  1  0.53945331  0.97653858  0.82718445  1
  O  O4  1  0.90668798  0.37685202  0.65208761  1
  O  O5  1  0.60943072  0.47052453  0.59370843  1
  O  O6  1  0.10175375  0.12032553  0.97456573  1
  O  O7  1  0.25452236  0.45568324  0.69864696  1
  O  O8  1  0.60175375  0.87967447  0.52543427  1
  O  O9  1  0.24547764  0.45568324  0.19864696  1
  O  O10  1  0.59331202  0.37685202  0.15208761  1
  O  O11  1  0.70550120  0.05525632  0.12270035  1
  O  O12  1  0.46054669  0.02346142  0.17281555  1
  O  O13  1  0.89056928  0.47052453  0.09370843  1
  O  O14  1  0.39824625  0.12032553  0.47456573  1
  O  O15  1  0.96054669  0.97653858  0.32718445  1
  O  O16  1  0.74547764  0.54431676  0.30135304  1
  O  O17  1  0.20550120  0.94474368  0.37729965  1
  O  O18  1  0.39056928  0.52947547  0.40629157  1
  O  O19  1  0.09331202  0.62314798  0.34791239  1
  O  O20  1  0.40668798  0.62314798  0.84791239  1
  O  O21  1  0.29449880  0.94474368  0.87729965  1
  O  O22  1  0.10943072  0.52947547  0.90629157  1
  O  O23  1  0.89824625  0.87967447  0.02543427  1
loop_
_geom_bond_atom_site_label_1
_geom_bond_atom_site_label_2
_geom_bond_distance
_geom_bond_site_symmetry_2
Ca0 O23 2.348348 1_546
Ca0 O13 2.349343 1_556
Ca0 O15 2.418088 1_546
Ca0 O6 2.439449 1_655
Ca0 O11 2.452684 1_556
Ca0 O2 2.475195 1_555
Ca0 O4 2.485332 1_555
Ca0 O22 2.968600 1_655
Ca1 O6 2.348348 1_564
Ca1 O22 2.349343 1_554
Ca1 O0 2.418088 1_564
Ca1 O23 2.439449 1_455
Ca1 O21 2.452684 1_554
Ca1 O9 2.475195 1_555
Ca1 O19 2.485332 1_555
Ca1 O13 2.968600 1_455
Ca2 O8 2.348348 1_545
Ca2 O5 2.349343 1_555
Ca2 O3 2.418088 1_545
Ca2 O14 2.439449 1_555
Ca2 O1 2.452684 1_555
Ca2 O16 2.475195 1_555
Ca2 O10 2.485332 1_555
Ca2 O18 2.968600 1_555
Ca3 O14 2.348348 1_565
Ca3 O18 2.349343 1_555
Ca3 O12 2.418088 1_565
Ca3 O8 2.439449 1_555
Ca3 O17 2.452684 1_555
Ca3 O7 2.475195 1_555
Ca3 O20 2.485332 1_555
Ca3 O5 2.968600 1_555
I0 O13 1.801349 1_555
I0 O23 1.806451 1_555
I0 O16 1.817255 1_555
I1 O22 1.801349 1_555
I1 O6 1.806451 1_555
I1 O7 1.817255 1_555
I2 O5 1.801349 1_555
I2 O8 1.806451 1_555
I2 O2 1.817255 1_555
I3 O18 1.801349 1_555
I3 O14 1.806451 1_555
I3 O9 1.817255 1_555
I4 O3 1.808310 1_555
I4 O21 1.811357 1_555
I4 O20 1.830322 1_555
I5 O0 1.808310 1_655
I5 O1 1.811357 1_555
I5 O4 1.830322 1_555
I6 O12 1.808310 1_555
I6 O11 1.811357 1_555
I6 O10 1.830322 1_555
I7 O15 1.808310 1_455
I7 O17 1.811357 1_555
I7 O19 1.830322 1_555
