# generated using pymatgen
data_MgFe2(ClO)2
_symmetry_space_group_name_H-M   'P 1'
_cell_length_a   3.72267200
_cell_length_b   3.75907500
_cell_length_c   9.53680300
_cell_angle_alpha   90.00000000
_cell_angle_beta   90.00000000
_cell_angle_gamma   90.00000000
_symmetry_Int_Tables_number   1
_chemical_formula_structural   MgFe2(ClO)2
_chemical_formula_sum   'Mg1 Fe2 Cl2 O2'
_cell_volume   133.45614480
_cell_formula_units_Z   1
loop_
 _symmetry_equiv_pos_site_id
 _symmetry_equiv_pos_as_xyz
  1  'x, y, z'
loop_
 _atom_site_type_symbol
 _atom_site_label
 _atom_site_symmetry_multiplicity
 _atom_site_fract_x
 _atom_site_fract_y
 _atom_site_fract_z
 _atom_site_occupancy
  Mg  Mg0  1  0.50000000  0.00000000  0.79173700  1
  Fe  Fe0  1  0.50000000  0.00000000  0.15493800  1
  Fe  Fe1  1  0.00000000  0.50000000  0.96863000  1
  Cl  Cl0  1  0.00000000  0.00000000  0.30724400  1
  Cl  Cl1  1  0.50000000  0.50000000  0.64386900  1
  O  O0  1  0.00000000  0.00000000  0.88763700  1
  O  O1  1  0.50000000  0.50000000  0.05063200  1
loop_
_geom_bond_atom_site_label_1
_geom_bond_atom_site_label_2
_geom_bond_distance
_geom_bond_site_symmetry_2
Mg0 O0 2.073892 1_555
Mg0 O0 2.073892 1_655
Fe0 O1 2.126542 1_545
Fe0 O1 2.126542 1_555
Fe1 O1 2.018949 1_456
Fe1 O1 2.018949 1_556
Fe1 O0 2.032064 1_555
Fe1 O0 2.032064 1_565
Cl0 Fe0 2.361009 1_555
Cl0 Fe0 2.361009 1_455
Cl1 Mg0 2.349743 1_565
Cl1 Mg0 2.349743 1_555
