# generated using pymatgen
data_NaB9H10C
_symmetry_space_group_name_H-M   'P 1'
_cell_length_a   10.33165300
_cell_length_b   10.71038200
_cell_length_c   7.93571800
_cell_angle_alpha   90.00000000
_cell_angle_beta   90.00000000
_cell_angle_gamma   90.00000000
_symmetry_Int_Tables_number   1
_chemical_formula_structural   NaB9H10C
_chemical_formula_sum   'Na4 B36 H40 C4'
_cell_volume   878.13441677
_cell_formula_units_Z   4
loop_
 _symmetry_equiv_pos_site_id
 _symmetry_equiv_pos_as_xyz
  1  'x, y, z'
loop_
 _atom_site_type_symbol
 _atom_site_label
 _atom_site_symmetry_multiplicity
 _atom_site_fract_x
 _atom_site_fract_y
 _atom_site_fract_z
 _atom_site_occupancy
  Na  Na0  1  0.63760900  0.16471300  0.55292400  1
  Na  Na1  1  0.36239100  0.83528700  0.05292400  1
  Na  Na2  1  0.86239100  0.66471300  0.05292400  1
  Na  Na3  1  0.13760900  0.33528700  0.55292400  1
  B  B0  1  0.31853400  0.12326400  0.50965200  1
  B  B1  1  0.68146600  0.87673600  0.00965200  1
  B  B2  1  0.18146600  0.62326400  0.00965200  1
  B  B3  1  0.81853400  0.37673600  0.50965200  1
  B  B4  1  0.32175500  0.85837900  0.42881500  1
  B  B5  1  0.67824500  0.14162100  0.92881500  1
  B  B6  1  0.17824500  0.35837900  0.92881500  1
  B  B7  1  0.82175500  0.64162100  0.42881500  1
  B  B8  1  0.32834500  0.87525500  0.65880500  1
  B  B9  1  0.67165500  0.12474500  0.15880500  1
  B  B10  1  0.17165500  0.37525500  0.15880500  1
  B  B11  1  0.82834500  0.62474500  0.65880500  1
  B  B12  1  0.15954500  0.92790600  0.66090900  1
  B  B13  1  0.84045500  0.07209400  0.16090900  1
  B  B14  1  0.34045500  0.42790600  0.16090900  1
  B  B15  1  0.65954500  0.57209400  0.66090900  1
  B  B16  1  0.15265100  0.91075100  0.42930500  1
  B  B17  1  0.84734900  0.08924900  0.92930500  1
  B  B18  1  0.34734900  0.41075100  0.92930500  1
  B  B19  1  0.65265100  0.58924900  0.42930500  1
  B  B20  1  0.40469500  0.98878300  0.52368800  1
  B  B21  1  0.59530500  0.01121700  0.02368800  1
  B  B22  1  0.09530500  0.48878300  0.02368800  1
  B  B23  1  0.90469500  0.51121700  0.52368800  1
  B  B24  1  0.28092600  0.01318100  0.36147200  1
  B  B25  1  0.71907400  0.98681900  0.86147200  1
  B  B26  1  0.21907400  0.51318100  0.86147200  1
  B  B27  1  0.78092600  0.48681900  0.36147200  1
  B  B28  1  0.29044100  0.03726600  0.68768700  1
  B  B29  1  0.70955900  0.96273400  0.18768700  1
  B  B30  1  0.20955900  0.53726600  0.18768700  1
  B  B31  1  0.79044100  0.46273400  0.68768700  1
  B  B32  1  0.16672200  0.06296800  0.52532300  1
  B  B33  1  0.83327800  0.93703200  0.02532300  1
  B  B34  1  0.33327800  0.56296800  0.02532300  1
  B  B35  1  0.66672200  0.43703200  0.52532300  1
  H  H0  1  0.18088300  0.71426000  0.57171500  1
  H  H1  1  0.81911800  0.28574000  0.07171500  1
  H  H2  1  0.31911700  0.21426000  0.07171500  1
  H  H3  1  0.68088200  0.78574000  0.57171500  1
  H  H4  1  0.35498400  0.22908500  0.49353000  1
  H  H5  1  0.64501600  0.77091500  0.99353000  1
  H  H6  1  0.14501600  0.72908500  0.99353000  1
  H  H7  1  0.85498400  0.27091500  0.49353000  1
  H  H8  1  0.37606000  0.78325600  0.34207500  1
  H  H9  1  0.62394000  0.21674400  0.84207500  1
  H  H10  1  0.12394000  0.28325600  0.84207500  1
  H  H11  1  0.87606000  0.71674400  0.34207500  1
  H  H12  1  0.38924600  0.81405400  0.75708700  1
  H  H13  1  0.61075400  0.18594600  0.25708700  1
  H  H14  1  0.11075400  0.31405400  0.25708700  1
  H  H15  1  0.88924600  0.68594600  0.75708700  1
  H  H16  1  0.07738200  0.91364700  0.76428100  1
  H  H17  1  0.92261800  0.08635300  0.26428100  1
  H  H18  1  0.42261800  0.41364700  0.26428100  1
  H  H19  1  0.57738200  0.58635300  0.76428100  1
  H  H20  1  0.06513100  0.88255200  0.33940800  1
  H  H21  1  0.93486900  0.11744800  0.83940800  1
  H  H22  1  0.43486900  0.38255200  0.83940800  1
  H  H23  1  0.56513100  0.61744800  0.33940800  1
  H  H24  1  0.52070500  0.98536900  0.51665100  1
  H  H25  1  0.47929500  0.01463100  0.01665100  1
  H  H26  1  0.97929500  0.48536900  0.01665100  1
  H  H27  1  0.02070500  0.51463100  0.51665100  1
  H  H28  1  0.28890900  0.03878600  0.21441700  1
  H  H29  1  0.71109100  0.96121400  0.71441700  1
  H  H30  1  0.21109100  0.53878600  0.71441700  1
  H  H31  1  0.78890900  0.46121400  0.21441700  1
  H  H32  1  0.30695100  0.08402300  0.82282200  1
  H  H33  1  0.69304900  0.91597700  0.32282200  1
  H  H34  1  0.19304900  0.58402300  0.32282200  1
  H  H35  1  0.80695100  0.41597700  0.82282200  1
  H  H36  1  0.07134300  0.12750600  0.52089500  1
  H  H37  1  0.92865700  0.87249400  0.02089500  1
  H  H38  1  0.42865700  0.62750600  0.02089500  1
  H  H39  1  0.57134300  0.37249400  0.52089500  1
  C  C0  1  0.21248900  0.81005700  0.55683800  1
  C  C1  1  0.78751100  0.18994300  0.05683800  1
  C  C2  1  0.28751100  0.31005700  0.05683800  1
  C  C3  1  0.71248900  0.68994300  0.55683800  1
loop_
_geom_bond_atom_site_label_1
_geom_bond_atom_site_label_2
_geom_bond_distance
_geom_bond_site_symmetry_2
B0 H4 1.201143 1_555
B1 H5 1.201143 1_554
B2 H6 1.201143 1_554
B3 H7 1.201143 1_555
B4 H8 1.198324 1_555
B4 C0 1.604503 1_555
B5 H9 1.198324 1_555
B5 C1 1.604503 1_556
B6 H10 1.198324 1_555
B6 C2 1.604503 1_556
B7 H11 1.198324 1_555
B7 C3 1.604503 1_555
B8 H12 1.197442 1_555
B8 C0 1.604731 1_555
B9 H13 1.197442 1_555
B9 C1 1.604731 1_555
B10 H14 1.197442 1_555
B10 C2 1.604731 1_555
B11 H15 1.197442 1_555
B11 C3 1.604731 1_555
B12 H16 1.190320 1_555
B12 C0 1.604510 1_555
B13 H17 1.190320 1_555
B13 C1 1.604510 1_555
B14 H18 1.190320 1_555
B14 C2 1.604510 1_555
B15 H19 1.190320 1_555
B15 C3 1.604510 1_555
B16 H20 1.190705 1_555
B16 C0 1.602991 1_555
B17 H21 1.190705 1_555
B17 C1 1.602991 1_556
B18 H22 1.190705 1_555
B18 C2 1.602991 1_556
B19 H23 1.190705 1_555
B19 C3 1.602991 1_555
B20 H24 1.200432 1_555
B21 H25 1.200432 1_555
B22 H26 1.200432 1_455
B23 H27 1.200432 1_655
B24 H28 1.201611 1_555
B25 H29 1.201611 1_555
B26 H30 1.201611 1_555
B27 H31 1.201611 1_555
B28 H32 1.195788 1_555
B29 H33 1.195788 1_555
B30 H34 1.195788 1_555
B31 H35 1.195788 1_555
B32 H36 1.204196 1_555
B33 H37 1.204196 1_555
B34 H38 1.204196 1_555
B35 H39 1.204196 1_555
H4 Na3 2.561209 1_555
H5 Na2 2.561209 1_556
H6 Na1 2.561209 1_556
H7 Na0 2.561209 1_555
H8 Na1 2.365540 1_555
H9 Na0 2.365540 1_555
H10 Na3 2.365540 1_555
H11 Na2 2.365540 1_555
H12 Na1 2.374931 1_556
H13 Na0 2.374931 1_555
H14 Na3 2.374931 1_555
H15 Na2 2.374931 1_556
H24 Na0 2.287205 1_565
H25 Na1 2.287205 1_545
H26 Na2 2.287205 1_555
H27 Na3 2.287205 1_555
H28 Na1 2.639928 1_545
H29 Na0 2.639928 1_565
H30 Na3 2.639928 1_555
H31 Na2 2.639928 1_555
H36 Na3 2.342178 1_555
H37 Na2 2.342178 1_555
H38 Na1 2.342178 1_555
H39 Na0 2.342178 1_555
C0 H0 1.083185 1_555
C1 H1 1.083188 1_555
C2 H2 1.083185 1_555
C3 H3 1.083188 1_555
