# generated using pymatgen
data_Na8Zn2In2Si3(SO8)3
_symmetry_space_group_name_H-M   'P 1'
_cell_length_a   9.28852102
_cell_length_b   9.27683400
_cell_length_c   22.31601581
_cell_angle_alpha   90.82214713
_cell_angle_beta   89.10818783
_cell_angle_gamma   120.35353805
_symmetry_Int_Tables_number   1
_chemical_formula_structural   Na8Zn2In2Si3(SO8)3
_chemical_formula_sum   'Na24 Zn6 In6 Si9 S9 O72'
_cell_volume   1659.09233662
_cell_formula_units_Z   3
loop_
 _symmetry_equiv_pos_site_id
 _symmetry_equiv_pos_as_xyz
  1  'x, y, z'
loop_
 _atom_site_type_symbol
 _atom_site_label
 _atom_site_symmetry_multiplicity
 _atom_site_fract_x
 _atom_site_fract_y
 _atom_site_fract_z
 _atom_site_occupancy
  Na  Na0  1  0.63854645  0.02002034  0.26222733  1
  Na  Na1  1  0.35431926  0.34589478  0.25338371  1
  Na  Na2  1  0.00308579  0.62924170  0.24220110  1
  Na  Na3  1  0.62672134  0.62895972  0.72982646  1
  Na  Na4  1  0.99167180  0.35070609  0.73300852  1
  Na  Na5  1  0.39190322  0.02627483  0.75007353  1
  Na  Na6  1  0.30596848  0.35170161  0.59431743  1
  Na  Na7  1  0.02155084  0.67911184  0.58504075  1
  Na  Na8  1  0.67104113  0.95921859  0.58039169  1
  Na  Na9  1  0.28576545  0.94643126  0.08432530  1
  Na  Na10  1  0.67115573  0.69359229  0.07972498  1
  Na  Na11  1  0.03237041  0.34742386  0.09625835  1
  Na  Na12  1  0.97890048  0.69265342  0.91649589  1
  Na  Na13  1  0.68702046  0.02524368  0.89930539  1
  Na  Na14  1  0.32298785  0.27714335  0.90386564  1
  Na  Na15  1  0.95358068  0.27714627  0.41808884  1
  Na  Na16  1  0.33544480  0.02834833  0.40674131  1
  Na  Na17  1  0.70157432  0.68552519  0.43121434  1
  Na  Na18  1  0.97508444  0.99942100  0.50200122  1
  Na  Na19  1  0.01021241  0.98649673  0.99517604  1
  Na  Na20  1  0.64837855  0.32037366  0.82172546  1
  Na  Na21  1  0.66683423  0.31123329  0.33137109  1
  Na  Na22  1  0.30968782  0.66735314  0.16934963  1
  Na  Na23  1  0.34319622  0.65810467  0.66323553  1
  Zn  Zn0  1  0.00203283  0.01504257  0.34396342  1
  Zn  Zn1  1  0.01069522  0.01951349  0.83233886  1
  Zn  Zn2  1  0.67630452  0.33848052  0.67991506  1
  Zn  Zn3  1  0.68151663  0.32718721  0.18908961  1
  Zn  Zn4  1  0.29966750  0.67672949  0.01399948  1
  Zn  Zn5  1  0.35696468  0.66524988  0.52244885  1
  In  In0  1  0.99437334  0.00943811  0.65028797  1
  In  In1  1  0.01118763  0.00024456  0.15639992  1
  In  In2  1  0.66609770  0.33236571  0.98617941  1
  In  In3  1  0.67608760  0.32926929  0.48999551  1
  In  In4  1  0.33264592  0.67548779  0.31736064  1
  In  In5  1  0.34243198  0.67654896  0.81587744  1
  Si  Si0  1  0.30447411  0.00321628  0.24994406  1
  Si  Si1  1  0.00265199  0.30225819  0.25140850  1
  Si  Si2  1  0.30737622  0.30424560  0.75126898  1
  Si  Si3  1  0.70077867  0.00003986  0.75211769  1
  Si  Si4  1  0.97808068  0.34062190  0.58194597  1
  Si  Si5  1  0.67271828  0.63106254  0.58436535  1
  Si  Si6  1  0.95786987  0.62941358  0.08535059  1
  Si  Si7  1  0.33283492  0.97244023  0.92088212  1
  Si  Si8  1  0.63355070  0.96499496  0.41839007  1
  S  S0  1  0.69934092  0.69969071  0.25004125  1
  S  S1  1  0.00021107  0.70465000  0.75376303  1
  S  S2  1  0.36439043  0.03228142  0.58420227  1
  S  S3  1  0.66714212  0.02802485  0.08340307  1
  S  S4  1  0.36338600  0.33616621  0.08335181  1
  S  S5  1  0.62497581  0.66147521  0.92222810  1
  S  S6  1  0.03652799  0.36847549  0.92066604  1
  S  S7  1  0.33495373  0.36751557  0.41615436  1
  S  S8  1  0.02792430  0.66478794  0.41640676  1
  O  O0  1  0.20707773  0.02500013  0.30800425  1
  O  O1  1  0.80390425  0.78607743  0.30214026  1
  O  O2  1  0.96669444  0.18323514  0.30862589  1
  O  O3  1  0.22866888  0.18966364  0.81124519  1
  O  O4  1  0.98736942  0.78803589  0.80962913  1
  O  O5  1  0.80650788  0.01284947  0.81271502  1
  O  O6  1  0.77755919  0.95411959  0.69334894  1
  O  O7  1  0.18955715  0.21477698  0.69267888  1
  O  O8  1  0.02579661  0.80700436  0.69972805  1
  O  O9  1  0.77160797  0.79945767  0.19335900  1
  O  O10  1  0.02771773  0.21890985  0.18806930  1
  O  O11  1  0.19429356  0.96114282  0.18772247  1
  O  O12  1  0.88483400  0.36502589  0.64055273  1
  O  O13  1  0.46849531  0.11677070  0.63660576  1
  O  O14  1  0.64388281  0.51028873  0.64039637  1
  O  O15  1  0.86059750  0.50991673  0.14191126  1
  O  O16  1  0.64122320  0.10932192  0.13636609  1
  O  O17  1  0.45987261  0.34800976  0.13675239  1
  O  O18  1  0.44132415  0.31081915  0.02742569  1
  O  O19  1  0.85034032  0.55256361  0.02225373  1
  O  O20  1  0.69014114  0.12754596  0.02764355  1
  O  O21  1  0.43565170  0.13272959  0.52779991  1
  O  O22  1  0.68906657  0.54591663  0.52030813  1
  O  O23  1  0.86370612  0.29655002  0.52099567  1
  O  O24  1  0.53564742  0.66783020  0.97695815  1
  O  O25  1  0.13521846  0.44888957  0.97581464  1
  O  O26  1  0.31083613  0.87215959  0.98330302  1
  O  O27  1  0.53874329  0.84638781  0.47580541  1
  O  O28  1  0.31736491  0.45363076  0.46916470  1
  O  O29  1  0.12682482  0.67636799  0.46915011  1
  O  O30  1  0.10366234  0.63968494  0.35972492  1
  O  O31  1  0.52371269  0.88731373  0.35617988  1
  O  O32  1  0.35175784  0.46278436  0.35982613  1
  O  O33  1  0.12126733  0.47127440  0.86660014  1
  O  O34  1  0.36793194  0.88173455  0.86311894  1
  O  O35  1  0.52578176  0.64008557  0.86741215  1
  O  O36  1  0.01686375  0.81897168  0.41309880  1
  O  O37  1  0.82060956  0.98327872  0.41360981  1
  O  O38  1  0.18451636  0.19665281  0.41434672  1
  O  O39  1  0.01209415  0.19955371  0.91685533  1
  O  O40  1  0.16583367  0.98761904  0.91493337  1
  O  O41  1  0.79207846  0.81423350  0.91988569  1
  O  O42  1  0.00674827  0.17864535  0.58412779  1
  O  O43  1  0.19383036  0.01001525  0.58931470  1
  O  O44  1  0.85043411  0.81363685  0.58580478  1
  O  O45  1  0.97670514  0.81897651  0.08717295  1
  O  O46  1  0.82349805  0.01823926  0.08691079  1
  O  O47  1  0.18999662  0.18512095  0.08345370  1
  O  O48  1  0.69277048  0.17216511  0.74759400  1
  O  O49  1  0.49561576  0.33333186  0.74505735  1
  O  O50  1  0.84722083  0.53871382  0.75059290  1
  O  O51  1  0.68126988  0.53212995  0.24509123  1
  O  O52  1  0.84362816  0.33255582  0.24905056  1
  O  O53  1  0.48834954  0.17670071  0.24473190  1
  O  O54  1  0.64622529  0.51018290  0.92093265  1
  O  O55  1  0.86905662  0.35828835  0.92256376  1
  O  O56  1  0.50881891  0.16233718  0.92167080  1
  O  O57  1  0.64491838  0.15228840  0.42050606  1
  O  O58  1  0.48854646  0.35291499  0.41765629  1
  O  O59  1  0.85492782  0.51456203  0.41701218  1
  O  O60  1  0.35245132  0.48997143  0.07937522  1
  O  O61  1  0.14444073  0.64505942  0.08340463  1
  O  O62  1  0.52157806  0.85553977  0.07896255  1
  O  O63  1  0.34669606  0.86452124  0.57856614  1
  O  O64  1  0.51306436  0.66162237  0.58427456  1
  O  O65  1  0.16114842  0.51447117  0.57643807  1
  O  O66  1  0.33089486  0.83987033  0.25199688  1
  O  O67  1  0.52866779  0.67805694  0.25418244  1
  O  O68  1  0.17978124  0.48573058  0.25421505  1
  O  O69  1  0.30910243  0.48515314  0.75631695  1
  O  O70  1  0.14928552  0.68185236  0.75569570  1
  O  O71  1  0.50749785  0.83862364  0.75216616  1
loop_
_geom_bond_atom_site_label_1
_geom_bond_atom_site_label_2
_geom_bond_distance
_geom_bond_site_symmetry_2
Na0 O31 2.393022 1_545
Na0 O66 2.488739 1_545
Na0 O53 2.508799 1_555
Na0 O52 2.558602 1_555
Na0 O67 2.802624 1_545
Na0 O2 2.836195 1_555
Na0 O16 2.935920 1_555
Na1 O53 2.451422 1_555
Na1 O68 2.536796 1_555
Na1 O32 2.601768 1_555
Na1 O51 2.632631 1_555
Na1 O67 2.659687 1_555
Na1 O17 2.763786 1_555
Na1 O0 2.855789 1_555
Na2 O52 2.382710 1_455
Na2 O15 2.554681 1_455
Na2 O68 2.601973 1_555
Na2 O51 2.650480 1_455
Na2 O66 2.670653 1_555
Na2 O30 2.781726 1_555
Na2 O11 2.937006 1_555
Na3 O14 2.307529 1_555
Na3 O49 2.399637 1_555
Na3 O69 2.612187 1_555
Na3 O50 2.623752 1_555
Na3 O71 2.718434 1_555
Na3 O6 2.736468 1_555
Na4 O12 2.337574 1_555
Na4 O48 2.428417 1_555
Na4 O69 2.613817 1_655
Na4 O70 2.696258 1_655
Na4 O50 2.706523 1_555
Na4 O7 2.834963 1_655
Na5 O48 2.412336 1_555
Na5 O71 2.465437 1_545
Na5 O49 2.507396 1_555
Na5 O13 2.650282 1_555
Na5 O34 2.826571 1_545
Na5 O70 2.833493 1_545
Na5 O3 2.942568 1_555
Na6 O42 2.419357 1_555
Na6 O7 2.493760 1_555
Na6 O65 2.517055 1_555
Na6 O64 2.536167 1_555
Na6 O43 2.793105 1_555
Na6 O14 2.909213 1_555
Na6 O28 2.944672 1_555
Na7 O65 2.456899 1_555
Na7 O44 2.467230 1_455
Na7 O63 2.616089 1_555
Na7 O43 2.650428 1_565
Na7 O29 2.754974 1_555
Na7 O8 2.797900 1_555
Na7 O12 2.819942 1_455
Na8 O64 2.385597 1_555
Na8 O27 2.602345 1_555
Na8 O44 2.626868 1_555
Na8 O63 2.679109 1_555
Na8 O42 2.731661 1_665
Na8 O6 2.731979 1_555
Na9 O26 2.390102 1_554
Na9 O61 2.414538 1_555
Na9 O11 2.472204 1_555
Na9 O45 2.491796 1_455
Na9 O62 2.716328 1_555
Na9 O47 2.772588 1_565
Na10 O45 2.471464 1_555
Na10 O62 2.509728 1_555
Na10 O24 2.582811 1_554
Na10 O60 2.584633 1_555
Na10 O46 2.604695 1_565
Na10 O9 2.709564 1_555
Na10 O19 2.865787 1_555
Na11 O10 2.374087 1_555
Na11 O61 2.428619 1_555
Na11 O47 2.587448 1_555
Na11 O60 2.595338 1_555
Na11 O46 2.672004 1_455
Na11 O25 2.847259 1_554
Na11 O15 2.862170 1_455
Na12 O40 2.388016 1_655
Na12 O41 2.502129 1_555
Na12 O4 2.541845 1_555
Na12 O19 2.667730 1_556
Na12 O54 2.670667 1_555
Na12 O55 2.736787 1_555
Na13 O5 2.243843 1_555
Na13 O56 2.586500 1_555
Na13 O41 2.639193 1_545
Na13 O39 2.639939 1_655
Na13 O34 2.695313 1_545
Na13 O55 2.715790 1_555
Na13 O20 3.000129 1_556
Na14 O3 2.233370 1_555
Na14 O40 2.334748 1_545
Na14 O56 2.482550 1_555
Na14 O39 2.611585 1_555
Na14 O54 2.699085 1_555
Na14 O18 2.937929 1_556
Na14 O35 3.027768 1_555
Na15 O37 2.358057 1_545
Na15 O23 2.466456 1_555
Na15 O57 2.490993 1_555
Na15 O38 2.603325 1_655
Na15 O2 2.603440 1_555
Na15 O59 2.780837 1_555
Na16 O0 2.513977 1_555
Na16 O57 2.521189 1_555
Na16 O38 2.574698 1_555
Na16 O36 2.595231 1_545
Na16 O58 2.609542 1_555
Na16 O21 2.862628 1_555
Na16 O31 2.872553 1_545
Na17 O22 2.357646 1_555
Na17 O37 2.436720 1_555
Na17 O36 2.566298 1_655
Na17 O59 2.626707 1_555
Na17 O58 2.710875 1_555
Na17 O27 2.774229 1_555
Na18 O42 2.375900 1_665
Na18 O44 2.411800 1_555
Na18 O37 2.415491 1_555
Na18 O38 2.710220 1_665
Na18 O36 2.725105 1_655
Na18 O43 2.801876 1_665
Na19 O40 2.280548 1_555
Na19 O41 2.497705 1_455
Na19 O45 2.511896 1_456
Na19 O47 2.636886 1_566
Na19 O39 2.650459 1_565
Na19 O46 2.770141 1_466
Na20 O49 2.282319 1_555
Na20 O48 2.298613 1_555
Na20 O50 2.500762 1_555
Na20 O56 2.624399 1_555
Na20 O54 2.815077 1_555
Na20 O55 2.963341 1_555
Na21 O52 2.387224 1_555
Na21 O57 2.437309 1_555
Na21 O53 2.446156 1_555
Na21 O59 2.633009 1_555
Na21 O58 2.669496 1_555
Na21 O51 2.784247 1_555
Na22 O66 2.368494 1_555
Na22 O61 2.415917 1_555
Na22 O68 2.418100 1_555
Na22 O60 2.727284 1_555
Na22 O62 2.737667 1_555
Na22 O67 2.764291 1_555
Na23 O64 2.336372 1_555
Na23 O65 2.477372 1_555
Na23 O71 2.547146 1_555
Na23 O69 2.559484 1_555
Na23 O63 2.697596 1_555
Na23 O70 2.796844 1_555
In0 O6 2.037621 1_545
In0 O7 2.078871 1_655
In0 O42 2.129769 1_655
In0 O44 2.165199 1_545
In0 O43 2.279374 1_655
In0 O8 2.335082 1_645
In1 O11 2.044663 1_545
In1 O10 2.070121 1_555
In1 O45 2.171053 1_445
In1 O9 2.213503 1_445
In1 O47 2.338155 1_555
In1 O46 2.420251 1_455
In2 O19 2.052347 1_556
In2 O56 2.089486 1_555
In2 O18 2.183996 1_556
In2 O20 2.236546 1_556
In2 O55 2.257314 1_555
In2 O54 2.293533 1_555
In3 O23 2.045942 1_555
In3 O22 2.056715 1_555
In3 O57 2.155148 1_555
In3 O21 2.212193 1_555
In3 O59 2.340314 1_555
In3 O58 2.484460 1_555
In4 O31 2.058146 1_555
In4 O66 2.131446 1_555
In4 O68 2.136718 1_555
In4 O30 2.181819 1_555
In4 O67 2.276112 1_555
In4 O32 2.288247 1_555
In5 O34 2.070087 1_555
In5 O71 2.072799 1_555
In5 O69 2.098714 1_555
In5 O35 2.234227 1_555
In5 O33 2.272330 1_555
In5 O70 2.278336 1_555
O0 Si0 1.636703 1_555
O0 Zn0 2.014097 1_555
O1 S0 1.469367 1_555
O1 Zn0 2.194416 1_665
O2 Si1 1.617271 1_655
O2 Zn0 1.930058 1_655
O3 Si2 1.637291 1_555
O3 Zn1 1.890519 1_555
O4 S1 1.492599 1_655
O4 Zn1 2.101662 1_665
O5 Si3 1.651076 1_555
O5 Zn1 1.923347 1_655
O6 Si3 1.634622 1_565
O7 Si2 1.640568 1_555
O8 S1 1.485938 1_555
O9 S0 1.512110 1_555
O10 Si1 1.670423 1_555
O11 Si0 1.659135 1_565
O12 Si4 1.632900 1_555
O12 Zn2 2.013733 1_555
O13 S2 1.469648 1_555
O13 Zn2 2.208809 1_555
O14 Si5 1.617713 1_555
O14 Zn2 1.985563 1_555
O15 Si6 1.621966 1_555
O15 Zn3 1.973777 1_555
O16 S3 1.474027 1_555
O16 Zn3 2.188658 1_555
O17 S4 1.471519 1_555
O17 Zn3 2.474494 1_555
O18 S4 1.507476 1_555
O19 Si6 1.668478 1_555
O20 S3 1.507225 1_555
O21 S2 1.508333 1_555
O22 Si5 1.665087 1_555
O23 Si4 1.654051 1_555
O24 S5 1.483059 1_555
O24 Zn4 2.370460 1_556
O25 S6 1.493007 1_555
O25 Zn4 2.062192 1_556
O26 Si7 1.638232 1_555
O26 Zn4 1.900061 1_556
O27 Si8 1.629075 1_555
O27 Zn5 1.971294 1_555
O28 S7 1.470750 1_555
O28 Zn5 2.149427 1_555
O29 S8 1.473469 1_555
O29 Zn5 2.510066 1_555
O30 S8 1.509491 1_555
O31 Si8 1.661277 1_555
O32 S7 1.507286 1_555
O33 S6 1.493163 1_555
O34 Si7 1.645904 1_555
O35 S5 1.492659 1_555
O36 S8 1.487834 1_555
O36 Zn0 2.459297 1_565
O37 Si8 1.660107 1_555
O37 Zn0 2.184481 1_665
O38 S7 1.492660 1_555
O38 Zn0 2.302016 1_555
O39 S6 1.466883 1_555
O39 Zn1 2.497086 1_555
O40 Si7 1.634429 1_555
O40 Zn1 2.467914 1_565
O41 S5 1.482111 1_555
O42 Si4 1.654709 1_455
O43 S2 1.493268 1_555
O44 Si5 1.664026 1_555
O45 Si6 1.676891 1_555
O46 S3 1.503522 1_555
O47 S4 1.508784 1_555
O48 Si3 1.640221 1_555
O48 Zn2 2.235510 1_555
O49 Si2 1.632749 1_555
O49 Zn2 2.185725 1_555
O50 S1 1.477560 1_655
O50 Zn2 2.339219 1_555
O51 S0 1.479388 1_555
O51 Zn3 2.261107 1_555
O52 Si1 1.638907 1_655
O52 Zn3 2.011303 1_555
O53 Si0 1.655845 1_555
O53 Zn3 2.039341 1_555
O54 S5 1.512705 1_555
O55 S6 1.509962 1_655
O56 Si7 1.692738 1_545
O57 Si8 1.686604 1_545
O58 S7 1.500571 1_555
O59 S8 1.503669 1_655
O60 S4 1.484722 1_555
O60 Zn4 2.514711 1_555
O61 Si6 1.664258 1_455
O61 Zn4 2.019784 1_555
O62 S3 1.487064 1_565
O62 Zn4 2.381239 1_555
O63 S2 1.483700 1_565
O63 Zn5 2.258935 1_555
O64 Si5 1.644543 1_555
O64 Zn5 2.029765 1_555
O65 Si4 1.653820 1_455
O65 Zn5 2.031057 1_555
O66 Si0 1.654311 1_565
O67 S0 1.495465 1_555
O68 Si1 1.666655 1_555
O69 Si2 1.672394 1_555
O70 S1 1.504002 1_555
O71 Si3 1.657817 1_565
