# generated using pymatgen
data_MgMn2Te2(MoO6)2
_symmetry_space_group_name_H-M   'P 1'
_cell_length_a   5.12189602
_cell_length_b   5.12189602
_cell_length_c   9.32274004
_cell_angle_alpha   90.00000000
_cell_angle_beta   90.00000000
_cell_angle_gamma   90.26128212
_symmetry_Int_Tables_number   1
_chemical_formula_structural   MgMn2Te2(MoO6)2
_chemical_formula_sum   'Mg1 Mn2 Te2 Mo2 O12'
_cell_volume   244.56853069
_cell_formula_units_Z   1
loop_
 _symmetry_equiv_pos_site_id
 _symmetry_equiv_pos_as_xyz
  1  'x, y, z'
loop_
 _atom_site_type_symbol
 _atom_site_label
 _atom_site_symmetry_multiplicity
 _atom_site_fract_x
 _atom_site_fract_y
 _atom_site_fract_z
 _atom_site_occupancy
  Mg  Mg0  1  0.00000000  0.50000000  0.09669183  1
  Mn  Mn0  1  0.00000000  0.00000000  0.95218324  1
  Mn  Mn1  1  0.50000000  0.50000000  0.95218324  1
  Te  Te0  1  0.00000000  0.50000000  0.73483143  1
  Te  Te1  1  0.50000000  0.00000000  0.23653603  1
  Mo  Mo0  1  0.50000000  0.00000000  0.61602139  1
  Mo  Mo1  1  0.00000000  0.50000000  0.40479026  1
  O  O0  1  0.24910329  0.74910329  0.56788653  1
  O  O1  1  0.24956032  0.25043968  0.45305977  1
  O  O2  1  0.75089671  0.25089671  0.56788653  1
  O  O3  1  0.75043968  0.74956032  0.45305977  1
  O  O4  1  0.29658496  0.20341504  0.76579665  1
  O  O5  1  0.19385831  0.69385831  0.24739850  1
  O  O6  1  0.70341504  0.79658496  0.76579665  1
  O  O7  1  0.80614169  0.30614169  0.24739850  1
  O  O8  1  0.83038217  0.33038217  0.90507898  1
  O  O9  1  0.69575423  0.80424577  0.08916138  1
  O  O10  1  0.16961783  0.66961783  0.90507898  1
  O  O11  1  0.30424577  0.19575423  0.08916138  1
loop_
_geom_bond_atom_site_label_1
_geom_bond_atom_site_label_2
_geom_bond_distance
_geom_bond_site_symmetry_2
Mg0 O7 1.984142 1_455
Mg0 O5 1.984142 1_555
Mg0 O10 2.166493 1_554
Mg0 O8 2.166493 1_454
Mg0 O11 2.209925 1_555
Mg0 O9 2.209925 1_455
Mn0 O8 1.955630 1_455
Mn0 O10 1.955630 1_545
Mn0 O11 2.247249 1_556
Mn0 O9 2.247249 1_446
Mn0 O4 2.529432 1_555
Mn0 O6 2.529432 1_445
Mn1 O10 1.955630 1_555
Mn1 O8 1.955630 1_555
Mn1 O11 2.247249 1_556
Mn1 O9 2.247249 1_556
Mn1 O6 2.529432 1_555
Mn1 O4 2.529432 1_555
Mo0 O2 1.867915 1_555
Mo0 O0 1.867915 1_545
Mo0 O4 2.032385 1_555
Mo0 O6 2.032385 1_545
Mo0 O1 2.369366 1_555
Mo0 O3 2.369366 1_545
Mo1 O3 1.866844 1_455
Mo1 O1 1.866844 1_555
Mo1 O7 2.028751 1_455
Mo1 O5 2.028751 1_555
Mo1 O2 2.356445 1_455
Mo1 O0 2.356445 1_555
O0 Te0 2.379754 1_555
O1 Te1 2.716708 1_555
O2 Te0 2.379754 1_655
O3 Te1 2.716708 1_565
O4 Te0 2.172458 1_555
O5 Te1 2.214778 1_565
O6 Te0 2.172458 1_655
O7 Te1 2.214778 1_555
O8 Te0 2.005428 1_655
O9 Te1 1.976718 1_565
O10 Te0 2.005428 1_555
O11 Te1 1.976718 1_555
