# generated using pymatgen
data_Te4O9
_symmetry_space_group_name_H-M   'P 1'
_cell_length_a   7.30014705
_cell_length_b   7.30014741
_cell_length_c   7.30014606
_cell_angle_alpha   79.57393237
_cell_angle_beta   79.57393593
_cell_angle_gamma   79.57393644
_symmetry_Int_Tables_number   1
_chemical_formula_structural   Te4O9
_chemical_formula_sum   'Te8 O18'
_cell_volume   371.85558525
_cell_formula_units_Z   2
loop_
 _symmetry_equiv_pos_site_id
 _symmetry_equiv_pos_as_xyz
  1  'x, y, z'
loop_
 _atom_site_type_symbol
 _atom_site_label
 _atom_site_symmetry_multiplicity
 _atom_site_fract_x
 _atom_site_fract_y
 _atom_site_fract_z
 _atom_site_occupancy
  Te  Te0  1  0.81704161  0.81704161  0.81704161  1
  Te  Te1  1  0.18295839  0.18295839  0.18295839  1
  Te  Te2  1  0.15725132  0.70653441  0.39961021  1
  Te  Te3  1  0.39961021  0.15725132  0.70653441  1
  Te  Te4  1  0.70653441  0.39961021  0.15725132  1
  Te  Te5  1  0.84274868  0.29346559  0.60038979  1
  Te  Te6  1  0.60038979  0.84274868  0.29346559  1
  Te  Te7  1  0.29346559  0.60038979  0.84274868  1
  O  O0  1  0.92927659  0.04486485  0.71922359  1
  O  O1  1  0.71922359  0.92927659  0.04486485  1
  O  O2  1  0.04486485  0.71922359  0.92927659  1
  O  O3  1  0.07072341  0.95513515  0.28077641  1
  O  O4  1  0.28077641  0.07072341  0.95513515  1
  O  O5  1  0.95513515  0.28077641  0.07072341  1
  O  O6  1  0.41376381  0.08444475  0.27629184  1
  O  O7  1  0.27629184  0.41376381  0.08444475  1
  O  O8  1  0.08444475  0.27629184  0.41376381  1
  O  O9  1  0.58623619  0.91555525  0.72370816  1
  O  O10  1  0.72370816  0.58623619  0.91555525  1
  O  O11  1  0.91555525  0.72370816  0.58623619  1
  O  O12  1  0.71412929  0.22699887  0.42376440  1
  O  O13  1  0.42376440  0.71412929  0.22699887  1
  O  O14  1  0.22699887  0.42376440  0.71412929  1
  O  O15  1  0.28587071  0.77300113  0.57623560  1
  O  O16  1  0.57623560  0.28587071  0.77300113  1
  O  O17  1  0.77300113  0.57623560  0.28587071  1
loop_
_geom_bond_atom_site_label_1
_geom_bond_atom_site_label_2
_geom_bond_distance
_geom_bond_site_symmetry_2
O0 Te5 1.912787 1_555
O0 Te0 1.949067 1_545
O1 Te6 1.912786 1_555
O1 Te0 1.949067 1_554
O2 Te7 1.912787 1_555
O2 Te0 1.949067 1_455
O3 Te2 1.912787 1_555
O3 Te1 1.949067 1_565
O4 Te3 1.912786 1_555
O4 Te1 1.949067 1_556
O5 Te4 1.912787 1_555
O5 Te1 1.949067 1_655
O6 Te1 1.902618 1_555
O6 Te6 2.024041 1_545
O7 Te1 1.902618 1_555
O7 Te7 2.024040 1_554
O8 Te1 1.902618 1_555
O8 Te5 2.024041 1_455
O9 Te0 1.902618 1_555
O9 Te3 2.024041 1_565
O10 Te0 1.902618 1_555
O10 Te4 2.024040 1_556
O11 Te0 1.902618 1_555
O11 Te2 2.024041 1_655
O12 Te5 1.899759 1_555
O12 Te4 2.121941 1_555
O13 Te6 1.899759 1_555
O13 Te2 2.121941 1_555
O14 Te7 1.899759 1_555
O14 Te3 2.121941 1_555
O15 Te2 1.899759 1_555
O15 Te7 2.121941 1_555
O16 Te3 1.899759 1_555
O16 Te5 2.121941 1_555
O17 Te4 1.899759 1_555
O17 Te6 2.121941 1_555
