# generated using pymatgen
data_Na2Hf2Mg2SiS5O24
_symmetry_space_group_name_H-M   'P 1'
_cell_length_a   8.77970415
_cell_length_b   8.77797306
_cell_length_c   23.10210846
_cell_angle_alpha   90.02744103
_cell_angle_beta   90.04629143
_cell_angle_gamma   119.92885398
_symmetry_Int_Tables_number   1
_chemical_formula_structural   Na2Hf2Mg2SiS5O24
_chemical_formula_sum   'Na6 Hf6 Mg6 Si3 S15 O72'
_cell_volume   1543.00351100
_cell_formula_units_Z   3
loop_
 _symmetry_equiv_pos_site_id
 _symmetry_equiv_pos_as_xyz
  1  'x, y, z'
loop_
 _atom_site_type_symbol
 _atom_site_label
 _atom_site_symmetry_multiplicity
 _atom_site_fract_x
 _atom_site_fract_y
 _atom_site_fract_z
 _atom_site_occupancy
  Na  Na0  1  0.00479931  0.00235935  0.49656770  1
  Na  Na1  1  0.99751694  0.98973104  0.99518529  1
  Na  Na2  1  0.66963929  0.31641475  0.81975148  1
  Na  Na3  1  0.64884046  0.32044970  0.34111102  1
  Na  Na4  1  0.31522323  0.67446510  0.16196328  1
  Na  Na5  1  0.34408824  0.67739391  0.65983808  1
  Hf  Hf0  1  0.98724286  0.99669516  0.64765298  1
  Hf  Hf1  1  0.00829157  0.98769705  0.14717229  1
  Hf  Hf2  1  0.67108631  0.33405987  0.18724879  1
  Hf  Hf3  1  0.67589853  0.34379863  0.97911299  1
  Hf  Hf4  1  0.33051432  0.67397290  0.31679563  1
  Hf  Hf5  1  0.34188739  0.67539072  0.80977032  1
  Mg  Mg0  1  0.01470859  0.00638284  0.35469403  1
  Mg  Mg1  1  0.99609915  0.00340373  0.84802600  1
  Mg  Mg2  1  0.66534388  0.32196052  0.68304854  1
  Mg  Mg3  1  0.66292455  0.33107506  0.48428271  1
  Mg  Mg4  1  0.32364670  0.66717367  0.01860299  1
  Mg  Mg5  1  0.33456241  0.66743152  0.51834727  1
  Si  Si0  1  0.29392092  0.00151773  0.25384151  1
  Si  Si1  1  0.71342534  0.01511147  0.75326797  1
  Si  Si2  1  0.96926952  0.62758887  0.08336287  1
  S  S0  1  0.70925341  0.71126328  0.25196663  1
  S  S1  1  0.00151849  0.28729193  0.25156439  1
  S  S2  1  0.29213838  0.28783854  0.75131481  1
  S  S3  1  0.99478619  0.70802719  0.75135392  1
  S  S4  1  0.96090459  0.33944857  0.58243650  1
  S  S5  1  0.37572790  0.03990636  0.58251779  1
  S  S6  1  0.66303080  0.61869624  0.58315160  1
  S  S7  1  0.66570340  0.04087890  0.08232537  1
  S  S8  1  0.37734332  0.33768939  0.08238173  1
  S  S9  1  0.62389657  0.67054939  0.91850522  1
  S  S10  1  0.04663238  0.37123187  0.91788116  1
  S  S11  1  0.32782910  0.95674529  0.91731440  1
  S  S12  1  0.63060965  0.96202629  0.41862474  1
  S  S13  1  0.33372941  0.37520388  0.41870694  1
  S  S14  1  0.03544035  0.66424377  0.41966460  1
  O  O0  1  0.20510432  0.03090000  0.30838872  1
  O  O1  1  0.81380460  0.79235340  0.30328019  1
  O  O2  1  0.97063464  0.18070963  0.30291628  1
  O  O3  1  0.21611772  0.18303436  0.80334588  1
  O  O4  1  0.98018241  0.79204002  0.80372136  1
  O  O5  1  0.82001970  0.02846797  0.81022250  1
  O  O6  1  0.80134392  0.97577507  0.69475539  1
  O  O7  1  0.18122962  0.20490372  0.69888145  1
  O  O8  1  0.03243775  0.82186019  0.69885293  1
  O  O9  1  0.78719352  0.81823241  0.19824139  1
  O  O10  1  0.02138888  0.20668040  0.19763426  1
  O  O11  1  0.17745132  0.96974786  0.19325296  1
  O  O12  1  0.88010447  0.36086215  0.63468285  1
  O  O13  1  0.47890766  0.12231249  0.63465827  1
  O  O14  1  0.64476516  0.51858004  0.63573428  1
  O  O15  1  0.86258474  0.50913601  0.13951167  1
  O  O16  1  0.63870417  0.12368596  0.13479335  1
  O  O17  1  0.48120177  0.35240298  0.13495569  1
  O  O18  1  0.45577623  0.30186800  0.03056631  1
  O  O19  1  0.84021815  0.52951773  0.02676930  1
  O  O20  1  0.68613192  0.15069485  0.03054911  1
  O  O21  1  0.45292252  0.14590908  0.53003452  1
  O  O22  1  0.69058798  0.54130097  0.53067094  1
  O  O23  1  0.85342820  0.30683972  0.53013093  1
  O  O24  1  0.53765499  0.68789777  0.97023775  1
  O  O25  1  0.14847141  0.45900275  0.96980591  1
  O  O26  1  0.30922976  0.85290776  0.96912480  1
  O  O27  1  0.54462918  0.85272956  0.46908888  1
  O  O28  1  0.31601302  0.46561075  0.46920665  1
  O  O29  1  0.14744874  0.68815206  0.46956250  1
  O  O30  1  0.12522869  0.64394892  0.36521779  1
  O  O31  1  0.51779701  0.87265589  0.36464565  1
  O  O32  1  0.35357620  0.48209480  0.36442445  1
  O  O33  1  0.12383110  0.48001345  0.86535671  1
  O  O34  1  0.35479680  0.87224603  0.86483388  1
  O  O35  1  0.51451855  0.64490980  0.86585178  1
  O  O36  1  0.01637972  0.82070173  0.41237169  1
  O  O37  1  0.80371277  0.97711329  0.40939848  1
  O  O38  1  0.17254912  0.20174569  0.41325958  1
  O  O39  1  0.02667805  0.19619653  0.91314919  1
  O  O40  1  0.17401389  0.97799414  0.90973470  1
  O  O41  1  0.80198435  0.81832829  0.91278169  1
  O  O42  1  0.98283825  0.17685924  0.58925033  1
  O  O43  1  0.19461124  0.02018232  0.58953256  1
  O  O44  1  0.82902201  0.80093882  0.58861234  1
  O  O45  1  0.97187285  0.81786793  0.08630849  1
  O  O46  1  0.83111284  0.03664550  0.08909720  1
  O  O47  1  0.19749118  0.18170979  0.08874919  1
  O  O48  1  0.68034406  0.17593126  0.74377567  1
  O  O49  1  0.47063424  0.32185029  0.74216484  1
  O  O50  1  0.83939472  0.53654492  0.74227391  1
  O  O51  1  0.69062747  0.53396323  0.24331168  1
  O  O52  1  0.84719907  0.31496374  0.24417861  1
  O  O53  1  0.49072063  0.16986091  0.24201359  1
  O  O54  1  0.63196365  0.50108699  0.92206458  1
  O  O55  1  0.86338454  0.35110952  0.92336577  1
  O  O56  1  0.49085268  0.13446742  0.92248132  1
  O  O57  1  0.64355234  0.13600486  0.42182043  1
  O  O58  1  0.49295470  0.35823103  0.42175605  1
  O  O59  1  0.86298231  0.50227313  0.42247536  1
  O  O60  1  0.36868561  0.49759277  0.07560678  1
  O  O61  1  0.15933706  0.64876041  0.07938236  1
  O  O62  1  0.51485352  0.86535488  0.07568361  1
  O  O63  1  0.35351949  0.86141926  0.57636020  1
  O  O64  1  0.51121344  0.64772912  0.57733151  1
  O  O65  1  0.13982331  0.49297664  0.57610719  1
  O  O66  1  0.31504584  0.82431205  0.25717155  1
  O  O67  1  0.52880832  0.68460757  0.25681837  1
  O  O68  1  0.16130858  0.46437515  0.25712857  1
  O  O69  1  0.29801868  0.46300634  0.75788696  1
  O  O70  1  0.15482580  0.68540641  0.75711470  1
  O  O71  1  0.51477341  0.82678978  0.75622015  1
loop_
_geom_bond_atom_site_label_1
_geom_bond_atom_site_label_2
_geom_bond_distance
_geom_bond_site_symmetry_2
Na0 O38 2.524295 1_555
Na0 O36 2.548647 1_545
Na0 O37 2.612435 1_445
Na0 O43 2.673566 1_555
Na0 O42 2.694488 1_455
Na0 O44 2.704736 1_445
Na1 O41 2.499905 1_555
Na1 O45 2.534380 1_556
Na1 O40 2.544195 1_655
Na1 O39 2.546179 1_665
Na1 O46 2.759652 1_566
Na1 O47 2.762717 1_666
Na2 O48 2.173498 1_555
Na2 O50 2.508528 1_555
Na2 O49 2.519119 1_555
Na2 O56 2.855738 1_555
Na2 O55 2.862144 1_555
Na2 O54 2.976020 1_555
Na3 O58 2.431176 1_555
Na3 O57 2.455215 1_555
Na3 O59 2.571480 1_555
Na3 O53 2.660180 1_555
Na3 O51 2.841005 1_555
Na3 O52 2.853031 1_555
Na4 O61 2.291499 1_555
Na4 O66 2.562671 1_555
Na4 O62 2.632675 1_555
Na4 O60 2.708626 1_555
Na4 O68 2.753631 1_555
Na4 O67 2.855339 1_555
Na5 O63 2.491027 1_555
Na5 O64 2.497846 1_555
Na5 O65 2.583218 1_555
Na5 O71 2.637074 1_555
Na5 O70 2.817610 1_555
Na5 O69 2.842880 1_555
Hf0 O6 1.893591 1_555
Hf0 O44 2.087010 1_555
Hf0 O42 2.094266 1_565
Hf0 O8 2.126136 1_655
Hf0 O7 2.128441 1_665
Hf0 O43 2.188545 1_665
Hf1 O11 1.896036 1_555
Hf1 O45 1.955322 1_455
Hf1 O9 2.120592 1_455
Hf1 O47 2.159698 1_565
Hf1 O10 2.200978 1_565
Hf1 O46 2.251355 1_465
Hf2 O15 1.957327 1_555
Hf2 O53 1.978192 1_555
Hf2 O52 2.098616 1_555
Hf2 O16 2.105450 1_555
Hf2 O51 2.117332 1_555
Hf2 O17 2.128261 1_555
Hf3 O19 1.897360 1_556
Hf3 O55 2.066494 1_555
Hf3 O54 2.079510 1_555
Hf3 O20 2.108801 1_556
Hf3 O18 2.139566 1_556
Hf3 O56 2.177835 1_555
Hf4 O66 1.958980 1_555
Hf4 O30 2.024563 1_555
Hf4 O31 2.025097 1_555
Hf4 O32 2.104827 1_555
Hf4 O68 2.181504 1_555
Hf4 O67 2.191211 1_555
Hf5 O71 1.895348 1_555
Hf5 O70 2.079843 1_555
Hf5 O69 2.083571 1_555
Hf5 O34 2.102196 1_555
Hf5 O35 2.109308 1_555
Hf5 O33 2.232790 1_555
Mg0 O0 1.905026 1_555
Mg0 O38 2.077312 1_555
Mg0 O36 2.111446 1_545
Mg0 O2 2.124631 1_455
Mg0 O37 2.150354 1_445
Mg0 O1 2.177032 1_445
Mg1 O5 1.881066 1_555
Mg1 O3 2.061220 1_655
Mg1 O4 2.061233 1_545
Mg1 O39 2.177859 1_655
Mg1 O40 2.205995 1_645
Mg1 O41 2.241759 1_545
Mg2 O48 1.948983 1_555
Mg2 O13 2.032990 1_555
Mg2 O12 2.069204 1_555
Mg2 O14 2.125764 1_555
Mg2 O49 2.188529 1_555
Mg2 O50 2.208430 1_555
Mg3 O22 2.040406 1_555
Mg3 O21 2.042770 1_555
Mg3 O23 2.077745 1_555
Mg3 O58 2.173043 1_555
Mg3 O57 2.179421 1_555
Mg3 O59 2.180486 1_555
Mg4 O61 1.962040 1_555
Mg4 O25 2.041131 1_554
Mg4 O26 2.046500 1_554
Mg4 O24 2.115285 1_554
Mg4 O62 2.159520 1_555
Mg4 O60 2.166764 1_555
Mg5 O28 2.040511 1_555
Mg5 O29 2.073028 1_555
Mg5 O27 2.086600 1_555
Mg5 O63 2.106689 1_555
Mg5 O65 2.107583 1_555
Mg5 O64 2.134630 1_555
O0 Si0 1.569885 1_555
O1 S0 1.449141 1_555
O2 S1 1.450747 1_655
O3 S2 1.458198 1_555
O4 S3 1.455215 1_555
O5 Si1 1.584051 1_555
O6 Si1 1.676162 1_565
O7 S2 1.495109 1_555
O8 S3 1.500339 1_455
O9 S0 1.500586 1_555
O10 S1 1.485293 1_555
O11 Si0 1.671945 1_565
O12 S4 1.459334 1_555
O13 S5 1.462314 1_555
O14 S6 1.460963 1_555
O15 Si2 1.634782 1_555
O16 S7 1.491755 1_555
O17 S8 1.484543 1_555
O18 S8 1.490979 1_555
O19 Si2 1.660562 1_555
O20 S7 1.490327 1_555
O21 S5 1.472540 1_555
O22 S6 1.467561 1_555
O23 S4 1.469966 1_555
O24 S9 1.463280 1_555
O25 S10 1.463558 1_555
O26 S11 1.463881 1_555
O27 S12 1.459203 1_555
O28 S13 1.462063 1_555
O29 S14 1.460118 1_555
O30 S14 1.541704 1_555
O31 S12 1.540538 1_555
O32 S13 1.523711 1_555
O33 S10 1.483313 1_555
O34 S11 1.500336 1_555
O35 S9 1.494881 1_555
O36 S14 1.473800 1_555
O37 S12 1.473925 1_555
O38 S13 1.478590 1_555
O39 S10 1.461010 1_555
O40 S11 1.462932 1_555
O41 S9 1.456550 1_555
O42 S4 1.540516 1_555
O43 S5 1.520046 1_555
O44 S6 1.540152 1_555
O45 Si2 1.660341 1_555
O46 S7 1.479312 1_555
O47 S8 1.494293 1_555
O48 Si1 1.592039 1_555
O49 S2 1.457214 1_555
O50 S3 1.456418 1_555
O51 S0 1.494854 1_555
O52 S1 1.500624 1_655
O53 Si0 1.642294 1_555
O54 S9 1.526362 1_555
O55 S10 1.533778 1_655
O56 S11 1.506007 1_545
O57 S12 1.475586 1_545
O58 S13 1.479563 1_555
O59 S14 1.473220 1_655
O60 S8 1.451585 1_555
O61 Si2 1.586973 1_455
O62 S7 1.454224 1_565
O63 S5 1.485895 1_565
O64 S6 1.482695 1_555
O65 S4 1.480977 1_455
O66 Si0 1.657676 1_565
O67 S0 1.485798 1_555
O68 S1 1.491449 1_555
O69 S2 1.520046 1_555
O70 S3 1.519728 1_455
O71 Si1 1.703699 1_565
