# generated using pymatgen
data_Na10Ta4Si11Sn4SO48
_symmetry_space_group_name_H-M   'P 1'
_cell_length_a   17.99003754
_cell_length_b   8.99683522
_cell_length_c   22.78321779
_cell_angle_alpha   90.16579138
_cell_angle_beta   90.07889070
_cell_angle_gamma   119.99554787
_symmetry_Int_Tables_number   1
_chemical_formula_structural   Na10Ta4Si11Sn4SO48
_chemical_formula_sum   'Na30 Ta12 Si33 Sn12 S3 O144'
_cell_volume   3193.61739392
_cell_formula_units_Z   3
loop_
 _symmetry_equiv_pos_site_id
 _symmetry_equiv_pos_as_xyz
  1  'x, y, z'
loop_
 _atom_site_type_symbol
 _atom_site_label
 _atom_site_symmetry_multiplicity
 _atom_site_fract_x
 _atom_site_fract_y
 _atom_site_fract_z
 _atom_site_occupancy
  Na  Na0  1  0.32047353  0.00005414  0.24982678  1
  Na  Na1  1  0.82039388  0.99984848  0.25016978  1
  Na  Na2  1  0.81922927  0.63725223  0.74975102  1
  Na  Na3  1  0.49795111  0.36285424  0.74894642  1
  Na  Na4  1  0.01630487  0.70162468  0.58419514  1
  Na  Na5  1  0.33312463  0.96930203  0.58466502  1
  Na  Na6  1  0.83337569  0.96599732  0.58344523  1
  Na  Na7  1  0.33305946  0.69808898  0.08485658  1
  Na  Na8  1  0.83317719  0.69852226  0.08526209  1
  Na  Na9  1  0.01637942  0.33268933  0.08507464  1
  Na  Na10  1  0.51478893  0.33106624  0.08514148  1
  Na  Na11  1  0.98495043  0.66638449  0.91517380  1
  Na  Na12  1  0.34856214  0.03165581  0.91593187  1
  Na  Na13  1  0.85115865  0.03289202  0.91598041  1
  Na  Na14  1  0.48381917  0.30188508  0.41507256  1
  Na  Na15  1  0.98400057  0.30182228  0.41477519  1
  Na  Na16  1  0.34999567  0.66785124  0.41482722  1
  Na  Na17  1  0.84958743  0.66832550  0.41478449  1
  Na  Na18  1  0.00501032  0.00496612  0.49952854  1
  Na  Na19  1  0.50503384  0.00068031  0.50000061  1
  Na  Na20  1  0.00573188  0.00576794  0.00032693  1
  Na  Na21  1  0.50399909  0.99868836  0.00013426  1
  Na  Na22  1  0.33168312  0.33777539  0.83303421  1
  Na  Na23  1  0.83258845  0.32926202  0.83214300  1
  Na  Na24  1  0.33428729  0.33971442  0.33126130  1
  Na  Na25  1  0.83418223  0.33964023  0.33101318  1
  Na  Na26  1  0.16462113  0.66066675  0.16860538  1
  Na  Na27  1  0.66418829  0.66027559  0.16913670  1
  Na  Na28  1  0.16762872  0.66719103  0.66981817  1
  Na  Na29  1  0.66380489  0.66692384  0.66521988  1
  Ta  Ta0  1  0.50019297  0.99804663  0.85355909  1
  Ta  Ta1  1  0.50026042  0.99810542  0.64604578  1
  Ta  Ta2  1  0.83457551  0.33139092  0.68794053  1
  Ta  Ta3  1  0.33292909  0.33985428  0.97943637  1
  Ta  Ta4  1  0.83089053  0.33272560  0.98019849  1
  Ta  Ta5  1  0.33158594  0.33023883  0.48071466  1
  Ta  Ta6  1  0.83067342  0.32756192  0.48004326  1
  Ta  Ta7  1  0.16725996  0.67037065  0.01939349  1
  Ta  Ta8  1  0.66564290  0.66958050  0.01987853  1
  Ta  Ta9  1  0.16688282  0.66282992  0.52001250  1
  Ta  Ta10  1  0.66292148  0.66213954  0.52030657  1
  Ta  Ta11  1  0.66577747  0.67129982  0.81263787  1
  Si  Si0  1  0.35309137  0.70373832  0.25010244  1
  Si  Si1  1  0.85314327  0.70427974  0.25003388  1
  Si  Si2  1  0.00119895  0.29578933  0.24988235  1
  Si  Si3  1  0.50120926  0.29586902  0.24987124  1
  Si  Si4  1  0.64448721  0.28557798  0.75016018  1
  Si  Si5  1  0.00369077  0.70992872  0.75002616  1
  Si  Si6  1  0.49754708  0.70981924  0.74959919  1
  Si  Si7  1  0.35194538  0.99526781  0.74972277  1
  Si  Si8  1  0.85587138  0.00327021  0.75020632  1
  Si  Si9  1  0.48001942  0.33522115  0.58359758  1
  Si  Si10  1  0.97932061  0.33296699  0.58377238  1
  Si  Si11  1  0.18757153  0.04640752  0.58412466  1
  Si  Si12  1  0.68709076  0.04426164  0.58387739  1
  Si  Si13  1  0.33336594  0.61991821  0.58414257  1
  Si  Si14  1  0.83064948  0.61853987  0.58365981  1
  Si  Si15  1  0.48038383  0.62869788  0.08307223  1
  Si  Si16  1  0.98087932  0.62866655  0.08269579  1
  Si  Si17  1  0.33087470  0.04563900  0.08374894  1
  Si  Si18  1  0.83088437  0.04428145  0.08438356  1
  Si  Si19  1  0.18779478  0.32825758  0.08391078  1
  Si  Si20  1  0.68717970  0.32826985  0.08428367  1
  Si  Si21  1  0.31039636  0.66380740  0.91534110  1
  Si  Si22  1  0.80934764  0.66243056  0.91629785  1
  Si  Si23  1  0.02385088  0.37653825  0.91594267  1
  Si  Si24  1  0.52237373  0.37807014  0.91637740  1
  Si  Si25  1  0.16695630  0.96165938  0.91677728  1
  Si  Si26  1  0.66455513  0.95628654  0.91680759  1
  Si  Si27  1  0.30878496  0.95628021  0.41555859  1
  Si  Si28  1  0.80819761  0.95384941  0.41617821  1
  Si  Si29  1  0.16639754  0.37067742  0.41684783  1
  Si  Si30  1  0.66613684  0.37182750  0.41717243  1
  Si  Si31  1  0.02367147  0.67152817  0.41648570  1
  Si  Si32  1  0.52320143  0.67156927  0.41580773  1
  Sn  Sn0  1  0.99730559  0.99731276  0.35337953  1
  Sn  Sn1  1  0.49741067  0.99761315  0.35334549  1
  Sn  Sn2  1  0.99945367  -0.00026866  0.85352928  1
  Sn  Sn3  1  0.99983738  0.99657087  0.64680459  1
  Sn  Sn4  1  0.99882462  0.00242529  0.14666682  1
  Sn  Sn5  1  0.49812559  0.00202531  0.14666310  1
  Sn  Sn6  1  0.33526702  0.33446124  0.68462489  1
  Sn  Sn7  1  0.33908835  0.34619326  0.18480555  1
  Sn  Sn8  1  0.83894754  0.34619688  0.18516407  1
  Sn  Sn9  1  0.16582127  0.65382032  0.31491421  1
  Sn  Sn10  1  0.66585592  0.65378059  0.31506664  1
  Sn  Sn11  1  0.16804364  0.67529850  0.81469509  1
  S  S0  1  0.14559160  0.00012822  0.25009390  1
  S  S1  1  0.64559876  0.00012008  0.24997175  1
  S  S2  1  0.14624942  0.29237633  0.75000588  1
  O  O0  1  0.10737361  0.03035690  0.30335037  1
  O  O1  1  0.60756792  0.03051593  0.30329532  1
  O  O2  1  0.41198594  0.78713967  0.30938645  1
  O  O3  1  0.91203950  0.78715927  0.30931726  1
  O  O4  1  0.48132944  0.17388392  0.30863814  1
  O  O5  1  0.98127409  0.17394551  0.30865616  1
  O  O6  1  0.10772737  0.18422063  0.80315163  1
  O  O7  1  0.59783249  0.16630881  0.80727644  1
  O  O8  1  0.48627292  0.80647072  0.80701302  1
  O  O9  1  0.97883003  0.78689601  0.80811700  1
  O  O10  1  0.41666868  0.03292391  0.80711225  1
  O  O11  1  0.91233129  0.03718951  0.80973250  1
  O  O12  1  0.40198729  0.97427341  0.69180167  1
  O  O13  1  0.89363988  0.95904337  0.69143181  1
  O  O14  1  0.09210521  0.21484159  0.69655504  1
  O  O15  1  0.58131436  0.19821211  0.69348432  1
  O  O16  1  0.01751412  0.82361063  0.69081662  1
  O  O17  1  0.51531642  0.83465328  0.69291548  1
  O  O18  1  0.39412864  0.82612833  0.19147478  1
  O  O19  1  0.89429213  0.82640369  0.19130444  1
  O  O20  1  0.01810530  0.21249461  0.19063408  1
  O  O21  1  0.51851354  0.21275819  0.19065594  1
  O  O22  1  0.09218819  0.96931654  0.19667932  1
  O  O23  1  0.59232945  0.96983374  0.19657997  1
  O  O24  1  0.44219962  0.37124427  0.64294248  1
  O  O25  1  0.93219934  0.36839235  0.63942583  1
  O  O26  1  0.24988976  0.12157646  0.64082473  1
  O  O27  1  0.75244788  0.13717128  0.63958654  1
  O  O28  1  0.31271718  0.50221772  0.64158975  1
  O  O29  1  0.81802883  0.50145865  0.64164871  1
  O  O30  1  0.44386359  0.50367859  0.13935101  1
  O  O31  1  0.94252805  0.50234219  0.13847534  1
  O  O32  1  0.31354533  0.12179847  0.14368717  1
  O  O33  1  0.81332857  0.12221771  0.14348958  1
  O  O34  1  0.25029163  0.37723368  0.14056180  1
  O  O35  1  0.75065688  0.37747485  0.14022373  1
  O  O36  1  0.23604809  0.30469168  0.02636887  1
  O  O37  1  0.73591194  0.30477061  0.02627704  1
  O  O38  1  0.41646889  0.53342685  0.02684742  1
  O  O39  1  0.91745271  0.53539311  0.02486343  1
  O  O40  1  0.34950292  0.16826289  0.02586479  1
  O  O41  1  0.84855604  0.16729044  0.02606826  1
  O  O42  1  0.23591873  0.16698157  0.52673633  1
  O  O43  1  0.73568543  0.16674447  0.52688938  1
  O  O44  1  0.34831141  0.53292180  0.52492419  1
  O  O45  1  0.84936367  0.53070784  0.52621845  1
  O  O46  1  0.41736463  0.29935575  0.52594708  1
  O  O47  1  0.91762132  0.29972075  0.52595187  1
  O  O48  1  0.26769723  0.70142560  0.97419361  1
  O  O49  1  0.76581226  0.69810316  0.97382946  1
  O  O50  1  0.08164414  0.46802620  0.97523133  1
  O  O51  1  0.58251346  0.46887399  0.97435514  1
  O  O52  1  0.14972352  0.83148332  0.97293620  1
  O  O53  1  0.65257479  0.83392766  0.97323559  1
  O  O54  1  0.26497086  0.83264675  0.47361978  1
  O  O55  1  0.76546940  0.83221097  0.47425981  1
  O  O56  1  0.14959911  0.46723321  0.47329863  1
  O  O57  1  0.65003261  0.46829747  0.47334694  1
  O  O58  1  0.08183256  0.69454364  0.47558467  1
  O  O59  1  0.58349791  0.69582868  0.47367092  1
  O  O60  1  0.06211146  0.62293376  0.36011205  1
  O  O61  1  0.56182318  0.62281949  0.35956566  1
  O  O62  1  0.25239705  0.87774917  0.35632835  1
  O  O63  1  0.75264013  0.87818641  0.35634777  1
  O  O64  1  0.19166189  0.49704443  0.36105844  1
  O  O65  1  0.69214518  0.49692896  0.36086440  1
  O  O66  1  0.06174346  0.50094986  0.85963034  1
  O  O67  1  0.56849631  0.49918874  0.85862796  1
  O  O68  1  0.19057189  0.88426223  0.86045890  1
  O  O69  1  0.68415640  0.86500251  0.86063946  1
  O  O70  1  0.25085437  0.62718238  0.85834841  1
  O  O71  1  0.75066319  0.63655210  0.85800872  1
  O  O72  1  0.00897020  0.83573348  0.41245446  1
  O  O73  1  0.50906098  0.83631270  0.41225778  1
  O  O74  1  0.40468948  0.97516583  0.41385542  1
  O  O75  1  0.90484498  0.97578028  0.41375326  1
  O  O76  1  0.07875784  0.18659093  0.41157583  1
  O  O77  1  0.57900193  0.18687339  0.41153466  1
  O  O78  1  0.00838421  0.18187740  0.91218703  1
  O  O79  1  0.50942021  0.18533660  0.90889376  1
  O  O80  1  0.07871770  0.96996789  0.91160245  1
  O  O81  1  0.58087254  0.97635125  0.90921633  1
  O  O82  1  0.40462131  0.84098501  0.90920278  1
  O  O83  1  0.90450037  0.83423540  0.91245316  1
  O  O84  1  0.48502932  0.15852344  0.58973375  1
  O  O85  1  0.98467832  0.15893922  0.59022743  1
  O  O86  1  0.09092894  0.01783688  0.58764682  1
  O  O87  1  0.59319580  0.02493163  0.59131353  1
  O  O88  1  0.41633230  0.81579578  0.59026980  1
  O  O89  1  0.91743849  0.80923980  0.58739673  1
  O  O90  1  0.48597158  0.81384345  0.08858485  1
  O  O91  1  0.98525528  0.81283602  0.08828691  1
  O  O92  1  0.41701659  0.02457459  0.08624012  1
  O  O93  1  0.91719142  0.02506429  0.08614273  1
  O  O94  1  0.09091921  0.16414611  0.08782164  1
  O  O95  1  0.59090880  0.16398222  0.08767579  1
  O  O96  1  0.34909258  0.17554664  0.74548086  1
  O  O97  1  0.84388285  0.17017927  0.74185461  1
  O  O98  1  0.23168990  0.30651043  0.74477462  1
  O  O99  1  0.74139253  0.31619214  0.74263019  1
  O  O100  1  0.41520576  0.51632166  0.74578265  1
  O  O101  1  0.91290333  0.52304968  0.74172086  1
  O  O102  1  0.34204642  0.51289215  0.24616952  1
  O  O103  1  0.84206316  0.51328941  0.24620276  1
  O  O104  1  0.40899921  0.29501785  0.24555919  1
  O  O105  1  0.90892909  0.29501143  0.24557118  1
  O  O106  1  0.23233929  0.15355520  0.24513428  1
  O  O107  1  0.73249079  0.15372781  0.24505692  1
  O  O108  1  0.32262823  0.49777187  0.92528309  1
  O  O109  1  0.82313046  0.49646751  0.92336521  1
  O  O110  1  0.42604599  0.35175339  0.92420898  1
  O  O111  1  0.92708233  0.35664899  0.92561751  1
  O  O112  1  0.25405485  0.14666687  0.92609394  1
  O  O113  1  0.75387277  0.14140582  0.92439933  1
  O  O114  1  0.32438311  0.15086697  0.42484386  1
  O  O115  1  0.82422598  0.14973095  0.42513195  1
  O  O116  1  0.25402035  0.36094754  0.42601660  1
  O  O117  1  0.75383678  0.36107368  0.42655120  1
  O  O118  1  0.42764500  0.49769354  0.42577772  1
  O  O119  1  0.92752968  0.49752497  0.42626685  1
  O  O120  1  0.17879913  0.50230044  0.07408065  1
  O  O121  1  0.67894178  0.50240338  0.07385818  1
  O  O122  1  0.07352135  0.63882432  0.07389433  1
  O  O123  1  0.57337863  0.63918605  0.07380784  1
  O  O124  1  0.24906794  0.84974038  0.07496510  1
  O  O125  1  0.74921494  0.84955300  0.07485758  1
  O  O126  1  0.17882894  0.85519263  0.57424670  1
  O  O127  1  0.68307212  0.85901905  0.57559839  1
  O  O128  1  0.25068282  0.65078147  0.57411913  1
  O  O129  1  0.74880802  0.64814745  0.57614235  1
  O  O130  1  0.07178638  0.50905473  0.57627150  1
  O  O131  1  0.57450378  0.50391239  0.57463076  1
  O  O132  1  0.15556731  0.84637638  0.25506401  1
  O  O133  1  0.65573724  0.84664791  0.25494544  1
  O  O134  1  0.26132476  0.70475314  0.25442509  1
  O  O135  1  0.76136754  0.70494936  0.25436409  1
  O  O136  1  0.08546283  0.48676480  0.25375020  1
  O  O137  1  0.58565382  0.48673958  0.25376714  1
  O  O138  1  0.15360843  0.46228156  0.75538185  1
  O  O139  1  0.65411282  0.47801706  0.75752248  1
  O  O140  1  0.08583511  0.68302282  0.75447568  1
  O  O141  1  0.58301188  0.68636967  0.75802661  1
  O  O142  1  0.25957108  0.82187540  0.75368835  1
  O  O143  1  0.76121665  0.82650394  0.75813119  1
loop_
_geom_bond_atom_site_label_1
_geom_bond_atom_site_label_2
_geom_bond_distance
_geom_bond_site_symmetry_2
Na0 O104 2.316095 1_555
Na0 O134 2.318828 1_545
Na0 O106 2.573392 1_555
Na0 O132 2.574434 1_545
Na0 O32 2.685879 1_555
Na0 O62 2.697135 1_545
Na0 O18 2.835085 1_545
Na0 O4 2.840323 1_555
Na1 O135 2.315331 1_555
Na1 O105 2.317913 1_565
Na1 O133 2.570133 1_555
Na1 O107 2.573015 1_565
Na1 O63 2.687969 1_555
Na1 O33 2.700034 1_565
Na1 O5 2.837282 1_565
Na1 O19 2.840441 1_555
Na2 O101 2.379087 1_555
Na2 O143 2.408349 1_555
Na2 O99 2.506620 1_555
Na2 O139 2.579785 1_555
Na2 O29 2.741364 1_555
Na2 O71 2.757843 1_555
Na2 O9 2.817594 1_555
Na2 O13 2.844502 1_555
Na3 O96 2.346057 1_555
Na3 O139 2.468014 1_555
Na3 O100 2.486529 1_555
Na3 O141 2.529509 1_555
Na3 O24 2.629542 1_555
Na3 O67 2.788674 1_555
Na3 O15 2.873237 1_555
Na3 O10 2.897165 1_555
Na4 O130 2.399616 1_555
Na4 O89 2.414112 1_455
Na4 O86 2.466098 1_565
Na4 O126 2.544311 1_555
Na4 O16 2.658274 1_555
Na4 O58 2.756642 1_555
Na4 O25 2.890061 1_455
Na4 O45 2.913549 1_455
Na5 O84 2.392882 1_565
Na5 O126 2.441875 1_555
Na5 O128 2.492979 1_555
Na5 O88 2.496388 1_555
Na5 O12 2.725885 1_555
Na5 O26 2.793288 1_565
Na5 O54 2.807462 1_555
Na5 O46 2.903957 1_565
Na6 O127 2.380186 1_555
Na6 O85 2.391457 1_565
Na6 O129 2.483217 1_555
Na6 O89 2.533187 1_555
Na6 O13 2.700677 1_555
Na6 O55 2.762858 1_555
Na6 O27 2.891865 1_565
Na6 O47 2.916486 1_565
Na7 O90 2.406986 1_555
Na7 O120 2.443859 1_555
Na7 O124 2.501528 1_555
Na7 O92 2.544332 1_565
Na7 O18 2.673125 1_555
Na7 O48 2.787092 1_554
Na7 O34 2.808825 1_555
Na7 O38 2.899962 1_555
Na8 O91 2.394425 1_555
Na8 O121 2.445394 1_555
Na8 O125 2.497425 1_555
Na8 O93 2.544716 1_565
Na8 O19 2.661076 1_555
Na8 O35 2.802402 1_555
Na8 O49 2.810887 1_554
Na8 O39 2.926615 1_555
Na9 O122 2.425149 1_555
Na9 O93 2.430462 1_455
Na9 O94 2.476873 1_555
Na9 O120 2.544617 1_555
Na9 O20 2.646260 1_555
Na9 O31 2.756153 1_455
Na9 O50 2.778551 1_554
Na9 O41 2.936333 1_455
Na10 O92 2.418475 1_555
Na10 O123 2.438363 1_555
Na10 O95 2.489339 1_555
Na10 O121 2.572152 1_555
Na10 O21 2.646153 1_555
Na10 O30 2.745836 1_555
Na10 O51 2.812248 1_554
Na10 O40 2.904090 1_555
Na11 O80 2.388944 1_655
Na11 O111 2.451457 1_555
Na11 O109 2.529824 1_555
Na11 O83 2.562149 1_555
Na11 O9 2.696440 1_555
Na11 O39 2.775488 1_556
Na11 O66 2.788389 1_655
Na11 O52 2.881081 1_655
Na12 O82 2.389979 1_545
Na12 O112 2.402839 1_555
Na12 O110 2.500914 1_555
Na12 O79 2.512705 1_555
Na12 O10 2.764531 1_555
Na12 O68 2.765152 1_545
Na12 O40 2.783024 1_556
Na12 O48 2.900324 1_545
Na13 O113 2.400273 1_555
Na13 O83 2.415773 1_545
Na13 O78 2.452562 1_655
Na13 O111 2.532916 1_555
Na13 O11 2.652841 1_555
Na13 O41 2.791860 1_556
Na13 O69 2.887675 1_545
Na13 O49 2.927697 1_545
Na14 O77 2.404327 1_555
Na14 O118 2.441807 1_555
Na14 O114 2.495892 1_555
Na14 O74 2.546195 1_545
Na14 O4 2.672152 1_555
Na14 O46 2.791470 1_555
Na14 O61 2.807180 1_555
Na14 O57 2.906339 1_555
Na15 O76 2.398541 1_655
Na15 O119 2.446887 1_555
Na15 O115 2.502219 1_555
Na15 O75 2.540832 1_545
Na15 O5 2.664322 1_555
Na15 O47 2.797913 1_555
Na15 O60 2.799722 1_655
Na15 O56 2.900412 1_655
Na16 O74 2.427631 1_555
Na16 O116 2.430773 1_555
Na16 O73 2.480667 1_555
Na16 O118 2.548859 1_555
Na16 O2 2.644245 1_555
Na16 O64 2.752926 1_555
Na16 O44 2.783434 1_555
Na16 O54 2.931517 1_555
Na17 O75 2.427185 1_555
Na17 O117 2.434120 1_555
Na17 O72 2.485076 1_655
Na17 O119 2.559611 1_555
Na17 O3 2.645836 1_555
Na17 O65 2.742600 1_555
Na17 O45 2.826983 1_555
Na17 O55 2.919798 1_555
Na18 O86 2.498842 1_555
Na18 O76 2.510844 1_555
Na18 O72 2.519958 1_545
Na18 O75 2.578633 1_445
Na18 O85 2.610549 1_455
Na18 O89 2.616436 1_445
Na19 O73 2.505740 1_545
Na19 O77 2.537199 1_555
Na19 O87 2.556066 1_555
Na19 O74 2.595534 1_545
Na19 O84 2.611895 1_555
Na19 O88 2.630168 1_545
Na20 O94 2.478792 1_555
Na20 O80 2.518000 1_544
Na20 O78 2.547211 1_554
Na20 O91 2.558811 1_445
Na20 O93 2.583225 1_455
Na20 O83 2.620761 1_444
Na21 O95 2.506684 1_565
Na21 O90 2.532533 1_555
Na21 O81 2.554805 1_554
Na21 O92 2.592611 1_565
Na21 O82 2.633983 1_554
Na21 O79 2.647186 1_564
Na22 O100 2.530434 1_555
Na22 O96 2.578627 1_555
Na22 O108 2.594943 1_555
Na22 O98 2.615224 1_555
Na22 O110 2.643471 1_555
Na22 O112 2.651454 1_555
Na23 O97 2.568290 1_555
Na23 O99 2.580906 1_555
Na23 O109 2.617291 1_555
Na23 O101 2.623285 1_555
Na23 O113 2.629732 1_555
Na23 O111 2.655962 1_555
Na24 O102 2.450755 1_555
Na24 O104 2.514728 1_555
Na24 O106 2.630400 1_555
Na24 O118 2.657725 1_555
Na24 O116 2.657857 1_555
Na24 O114 2.680237 1_555
Na25 O103 2.447697 1_555
Na25 O105 2.510256 1_555
Na25 O107 2.625130 1_555
Na25 O119 2.671063 1_555
Na25 O117 2.673799 1_555
Na25 O115 2.695506 1_555
Na26 O136 2.456900 1_555
Na26 O134 2.510595 1_555
Na26 O132 2.636697 1_555
Na26 O122 2.654536 1_555
Na26 O120 2.660848 1_555
Na26 O124 2.683117 1_555
Na27 O137 2.443534 1_555
Na27 O135 2.504381 1_555
Na27 O133 2.625529 1_555
Na27 O123 2.664570 1_555
Na27 O121 2.675944 1_555
Na27 O125 2.698003 1_555
Na28 O142 2.449128 1_555
Na28 O140 2.474158 1_555
Na28 O138 2.611455 1_555
Na28 O130 2.656886 1_555
Na28 O128 2.689941 1_555
Na28 O126 2.706370 1_555
Na29 O131 2.570817 1_555
Na29 O127 2.588361 1_555
Na29 O129 2.598198 1_555
Na29 O141 2.621945 1_555
Na29 O139 2.658329 1_555
Na29 O143 2.658906 1_555
O0 S0 1.485347 1_555
O0 Sn0 2.174412 1_445
O1 S1 1.485349 1_555
O1 Sn1 2.176421 1_545
O2 Si0 1.644758 1_555
O2 Sn1 2.006392 1_555
O3 Si1 1.644147 1_555
O3 Sn0 2.005112 1_555
O4 Si3 1.656017 1_555
O4 Sn1 2.025705 1_545
O5 Si2 1.655345 1_655
O5 Sn0 2.028199 1_545
O6 S2 1.492682 1_555
O6 Sn2 2.156622 1_455
O7 Si4 1.630898 1_555
O7 Ta0 1.960766 1_545
O8 Si6 1.636707 1_555
O8 Ta0 1.927473 1_555
O9 Si5 1.654436 1_655
O9 Sn2 2.037618 1_565
O10 Si7 1.667024 1_545
O10 Ta0 1.986218 1_545
O11 Si8 1.627258 1_555
O11 Sn2 2.022757 1_555
O12 Si7 1.661146 1_555
O12 Ta1 1.971209 1_555
O13 Si8 1.637939 1_565
O13 Sn3 2.039647 1_555
O14 S2 1.493592 1_555
O14 Sn3 2.149206 1_445
O15 Si4 1.635137 1_555
O15 Ta1 1.973609 1_545
O16 Si5 1.637764 1_555
O16 Sn3 2.007727 1_455
O17 Si6 1.637660 1_555
O17 Ta1 1.944922 1_555
O18 Si0 1.655321 1_555
O18 Sn5 2.025159 1_565
O19 Si1 1.656370 1_555
O19 Sn4 2.028671 1_565
O20 Si2 1.642984 1_555
O20 Sn4 2.007066 1_455
O21 Si3 1.644442 1_555
O21 Sn5 2.006582 1_555
O22 S0 1.486395 1_565
O22 Sn4 2.169126 1_465
O23 S1 1.485301 1_565
O23 Sn5 2.176404 1_565
O24 Si9 1.617565 1_555
O24 Sn6 2.020492 1_555
O25 Si10 1.642771 1_555
O25 Ta2 1.959565 1_555
O26 Si11 1.617370 1_555
O26 Sn6 2.016584 1_555
O27 Si12 1.642919 1_555
O27 Ta2 1.962882 1_555
O28 Si13 1.608856 1_555
O28 Sn6 2.005863 1_555
O29 Si14 1.635961 1_555
O29 Ta2 2.001487 1_555
O30 Si15 1.616363 1_555
O30 Sn7 1.994099 1_555
O31 Si16 1.615386 1_555
O31 Sn8 1.993497 1_555
O32 Si17 1.625069 1_555
O32 Sn7 2.055430 1_555
O33 Si18 1.619238 1_555
O33 Sn8 2.057592 1_555
O34 Si19 1.619107 1_555
O34 Sn7 2.022177 1_555
O35 Si20 1.616056 1_555
O35 Sn8 2.023484 1_555
O36 Si19 1.644006 1_555
O36 Ta3 1.933105 1_554
O37 Si20 1.657335 1_555
O37 Ta4 1.913558 1_554
O38 Si15 1.643737 1_555
O38 Ta3 1.956033 1_554
O39 Si16 1.665635 1_555
O39 Ta4 1.982694 1_554
O40 Si17 1.645779 1_555
O40 Ta3 2.014918 1_554
O41 Si18 1.657989 1_555
O41 Ta4 1.972183 1_554
O42 Si11 1.646433 1_555
O42 Ta5 1.924874 1_555
O43 Si12 1.646973 1_555
O43 Ta6 1.922108 1_555
O44 Si13 1.646360 1_555
O44 Ta5 1.967273 1_555
O45 Si14 1.646725 1_555
O45 Ta6 1.983338 1_555
O46 Si9 1.652154 1_555
O46 Ta5 1.986592 1_555
O47 Si10 1.648823 1_555
O47 Ta6 1.998053 1_555
O48 Si21 1.662121 1_555
O48 Ta7 1.976196 1_556
O49 Si22 1.638966 1_555
O49 Ta8 1.989558 1_556
O50 Si23 1.648373 1_555
O50 Ta7 1.969852 1_556
O51 Si24 1.639769 1_555
O51 Ta8 1.964096 1_556
O52 Si25 1.658782 1_555
O52 Ta7 1.945787 1_556
O53 Si26 1.637934 1_555
O53 Ta8 1.930491 1_556
O54 Si27 1.656242 1_555
O54 Ta9 1.970813 1_555
O55 Si28 1.646105 1_555
O55 Ta10 2.009342 1_555
O56 Si29 1.660478 1_555
O56 Ta9 1.940948 1_555
O57 Si30 1.649612 1_555
O57 Ta10 1.955516 1_555
O58 Si31 1.651820 1_555
O58 Ta9 1.970015 1_555
O59 Si32 1.649214 1_555
O59 Ta10 1.921733 1_555
O60 Si31 1.618787 1_555
O60 Sn9 2.026615 1_555
O61 Si32 1.618932 1_555
O61 Sn10 2.023304 1_555
O62 Si27 1.619677 1_555
O62 Sn9 2.054863 1_555
O63 Si28 1.622058 1_555
O63 Sn10 2.057066 1_555
O64 Si29 1.614935 1_555
O64 Sn9 1.993411 1_555
O65 Si30 1.617080 1_555
O65 Sn10 1.994562 1_555
O66 Si23 1.615978 1_555
O66 Sn11 2.044759 1_555
O67 Si24 1.647504 1_555
O67 Ta11 1.965525 1_555
O68 Si25 1.613652 1_555
O68 Sn11 2.002865 1_555
O69 Si26 1.649593 1_555
O69 Ta11 1.937586 1_555
O70 Si21 1.607106 1_555
O70 Sn11 2.009775 1_555
O71 Si22 1.637372 1_555
O71 Ta11 1.993274 1_555
O72 Si31 1.628578 1_555
O72 Sn0 2.069864 1_455
O73 Si32 1.626564 1_555
O73 Sn1 2.065438 1_555
O74 Si27 1.647494 1_555
O74 Sn1 2.096399 1_555
O75 Si28 1.649952 1_555
O75 Sn0 2.093323 1_555
O76 Si29 1.621931 1_555
O76 Sn0 2.071638 1_445
O77 Si30 1.622585 1_555
O77 Sn1 2.072200 1_545
O78 Si23 1.632096 1_555
O78 Sn2 2.054449 1_455
O79 Si24 1.638371 1_555
O79 Ta0 2.040506 1_545
O80 Si25 1.630201 1_555
O80 Sn2 2.057740 1_465
O81 Si26 1.612476 1_555
O81 Ta0 2.008065 1_555
O82 Si21 1.653527 1_555
O82 Ta0 2.036467 1_555
O83 Si22 1.637909 1_555
O83 Sn2 2.100470 1_565
O84 Si9 1.642982 1_555
O84 Ta1 2.051641 1_545
O85 Si10 1.623119 1_555
O85 Sn3 2.068360 1_545
O86 Si11 1.627550 1_555
O86 Sn3 2.057361 1_445
O87 Si12 1.618484 1_555
O87 Ta1 2.003124 1_545
O88 Si13 1.649517 1_555
O88 Ta1 2.022696 1_555
O89 Si14 1.645905 1_555
O89 Sn3 2.086420 1_555
O90 Si15 1.622297 1_555
O90 Sn5 2.069102 1_565
O91 Si16 1.623641 1_555
O91 Sn4 2.075520 1_565
O92 Si17 1.653530 1_555
O92 Sn5 2.087454 1_555
O93 Si18 1.646376 1_555
O93 Sn4 2.096381 1_555
O94 Si19 1.628989 1_555
O94 Sn4 2.065543 1_455
O95 Si20 1.622245 1_555
O95 Sn5 2.073906 1_555
O96 Si7 1.651297 1_545
O96 Sn6 2.096291 1_555
O97 Si8 1.631885 1_555
O97 Ta2 1.973083 1_555
O98 S2 1.482613 1_555
O98 Sn6 2.225726 1_555
O99 Si4 1.632633 1_555
O99 Ta2 2.039356 1_555
O100 Si6 1.628749 1_555
O100 Sn6 2.077328 1_555
O101 Si5 1.667885 1_655
O101 Ta2 2.003449 1_555
O102 Si0 1.628980 1_555
O102 Sn7 2.028442 1_555
O103 Si1 1.629894 1_555
O103 Sn8 2.024952 1_555
O104 Si3 1.657824 1_555
O104 Sn7 2.070647 1_555
O105 Si2 1.659224 1_655
O105 Sn8 2.066343 1_555
O106 S0 1.483614 1_555
O106 Sn7 2.296546 1_555
O107 S1 1.485714 1_555
O107 Sn8 2.287646 1_555
O108 Si21 1.631453 1_555
O108 Ta3 1.961603 1_555
O109 Si22 1.639617 1_555
O109 Ta4 2.020515 1_555
O110 Si24 1.637627 1_555
O110 Ta3 2.056250 1_555
O111 Si23 1.673634 1_655
O111 Ta4 2.054840 1_555
O112 Si25 1.630967 1_545
O112 Ta3 2.007094 1_555
O113 Si26 1.645429 1_545
O113 Ta4 2.024004 1_555
O114 Si27 1.641593 1_545
O114 Ta5 2.004985 1_555
O115 Si28 1.649294 1_545
O115 Ta6 1.985143 1_555
O116 Si29 1.635026 1_555
O116 Ta5 1.989769 1_555
O117 Si30 1.641966 1_555
O117 Ta6 1.975124 1_555
O118 Si32 1.663796 1_555
O118 Ta5 2.058253 1_555
O119 Si31 1.669635 1_655
O119 Ta6 2.056241 1_555
O120 Si19 1.668378 1_555
O120 Ta7 2.050848 1_555
O121 Si20 1.663424 1_555
O121 Ta8 2.049786 1_555
O122 Si16 1.635533 1_455
O122 Ta7 1.998862 1_555
O123 Si15 1.641817 1_555
O123 Ta8 1.973128 1_555
O124 Si17 1.648006 1_565
O124 Ta7 1.995385 1_555
O125 Si18 1.642652 1_565
O125 Ta8 2.000046 1_555
O126 Si11 1.661939 1_565
O126 Ta9 2.045273 1_555
O127 Si12 1.641957 1_565
O127 Ta10 2.049293 1_555
O128 Si13 1.659588 1_555
O128 Ta9 1.990769 1_555
O129 Si14 1.630876 1_555
O129 Ta10 2.052186 1_555
O130 Si10 1.635083 1_455
O130 Ta9 2.033105 1_555
O131 Si9 1.630252 1_555
O131 Ta10 1.959601 1_555
O132 S0 1.485785 1_565
O132 Sn9 2.286281 1_555
O133 S1 1.485015 1_565
O133 Sn10 2.291105 1_555
O134 Si0 1.658528 1_555
O134 Sn9 2.069814 1_555
O135 Si1 1.657143 1_555
O135 Sn10 2.072763 1_555
O136 Si2 1.628613 1_555
O136 Sn9 2.024984 1_555
O137 Si3 1.629404 1_555
O137 Sn10 2.026091 1_555
O138 S2 1.471633 1_555
O138 Sn11 2.247863 1_555
O139 Si4 1.659560 1_555
O139 Ta11 2.065550 1_555
O140 Si5 1.615584 1_555
O140 Sn11 2.042588 1_555
O141 Si6 1.664054 1_555
O141 Ta11 1.995289 1_555
O142 Si7 1.616328 1_555
O142 Sn11 2.056208 1_555
O143 Si8 1.660188 1_565
O143 Ta11 2.014607 1_555
