# generated using pymatgen
data_Na3La2(PO4)3
_symmetry_space_group_name_H-M   'P 1'
_cell_length_a   9.60215362
_cell_length_b   9.60215325
_cell_length_c   23.96741078
_cell_angle_alpha   89.28484980
_cell_angle_beta   90.71515025
_cell_angle_gamma   119.96008606
_symmetry_Int_Tables_number   1
_chemical_formula_structural   Na3La2(PO4)3
_chemical_formula_sum   'Na18 La12 P18 O72'
_cell_volume   1914.33720098
_cell_formula_units_Z   6
loop_
 _symmetry_equiv_pos_site_id
 _symmetry_equiv_pos_as_xyz
  1  'x, y, z'
loop_
 _atom_site_type_symbol
 _atom_site_label
 _atom_site_symmetry_multiplicity
 _atom_site_fract_x
 _atom_site_fract_y
 _atom_site_fract_z
 _atom_site_occupancy
  Na  Na0  1  0.99961184  0.99955095  0.49989491  1
  Na  Na1  1  0.00044905  0.00038816  0.99989491  1
  Na  Na2  1  0.63091266  0.32024758  0.83377793  1
  Na  Na3  1  0.67975242  0.36908734  0.33377793  1
  Na  Na4  1  0.33276601  0.66596410  0.16665562  1
  Na  Na5  1  0.33403590  0.66723399  0.66665562  1
  Na  Na6  1  0.64083480  0.00901340  0.24980340  1
  Na  Na7  1  0.35266783  0.35392622  0.25016346  1
  Na  Na8  1  0.64607378  0.64733217  0.75016346  1
  Na  Na9  1  0.99098660  0.35916520  0.74980340  1
  Na  Na10  1  0.02982098  0.68850755  0.58183265  1
  Na  Na11  1  0.67173794  0.97710924  0.58294356  1
  Na  Na12  1  0.31149245  0.97017902  0.08183265  1
  Na  Na13  1  0.02289076  0.32826206  0.08294356  1
  Na  Na14  1  0.97345804  0.66437555  0.91938498  1
  Na  Na15  1  0.69601722  0.03161193  0.91688858  1
  Na  Na16  1  0.96838807  0.30398278  0.41688858  1
  Na  Na17  1  0.33562445  0.02654196  0.41938498  1
  La  La0  1  0.98592812  0.97812405  0.34779633  1
  La  La1  1  0.02187595  0.01407188  0.84779633  1
  La  La2  1  0.02360974  0.01164929  0.65208382  1
  La  La3  1  0.98835071  0.97639026  0.15208382  1
  La  La4  1  0.64658095  0.32275943  0.68066604  1
  La  La5  1  0.67724057  0.35341905  0.18066604  1
  La  La6  1  0.65688032  0.34595126  0.98607793  1
  La  La7  1  0.65404874  0.34311968  0.48607793  1
  La  La8  1  0.34791316  0.65594676  0.01446465  1
  La  La9  1  0.34405324  0.65208684  0.51446465  1
  La  La10  1  0.32916008  0.66774447  0.31895625  1
  La  La11  1  0.33225553  0.67083992  0.81895625  1
  P  P0  1  0.31734517  0.00764873  0.24991647  1
  P  P1  1  0.67335042  0.68336172  0.25060183  1
  P  P2  1  0.99925777  0.29799063  0.24873088  1
  P  P3  1  0.31663828  0.32664958  0.75060183  1
  P  P4  1  0.99235127  0.68265483  0.74991647  1
  P  P5  1  0.70200937  0.00074223  0.74873088  1
  P  P6  1  0.96541423  0.33331959  0.58370100  1
  P  P7  1  0.35354385  0.01015780  0.57628964  1
  P  P8  1  0.67681191  0.65532995  0.58993401  1
  P  P9  1  0.98984220  0.64645615  0.07628964  1
  P  P10  1  0.66668041  0.03458577  0.08370100  1
  P  P11  1  0.34467005  0.32318809  0.08993401  1
  P  P12  1  0.65534765  0.67736306  0.90931543  1
  P  P13  1  0.01487453  0.35569110  0.91770982  1
  P  P14  1  0.33601795  0.96906468  0.92361310  1
  P  P15  1  0.64430890  0.98512547  0.41770982  1
  P  P16  1  0.32263695  0.34465235  0.40931543  1
  P  P17  1  0.03093532  0.66398205  0.42361310  1
  O  O0  1  0.22213087  0.00606114  0.30227089  1
  O  O1  1  0.76642626  0.76961282  0.30375420  1
  O  O2  1  0.98799565  0.19781109  0.30199077  1
  O  O3  1  0.23038718  0.23357374  0.80375420  1
  O  O4  1  0.99393886  0.77786913  0.80227089  1
  O  O5  1  0.80218891  0.01200435  0.80199077  1
  O  O6  1  0.79380899  0.99424348  0.69655030  1
  O  O7  1  0.22295879  0.23260367  0.69838488  1
  O  O8  1  0.00407551  0.78044056  0.69644964  1
  O  O9  1  0.76739633  0.77704121  0.19838488  1
  O  O10  1  0.00575652  0.20619101  0.19655030  1
  O  O11  1  0.21955944  0.99592449  0.19644964  1
  O  O12  1  0.87675223  0.34394375  0.63630690  1
  O  O13  1  0.45918806  0.11404779  0.62558713  1
  O  O14  1  0.66739627  0.56783686  0.64556316  1
  O  O15  1  0.88595221  0.54081194  0.12558713  1
  O  O16  1  0.65605625  0.12324777  0.13630690  1
  O  O17  1  0.43216314  0.33260373  0.14556316  1
  O  O18  1  0.44846583  0.32496628  0.04045450  1
  O  O19  1  0.90221084  0.57167475  0.02056278  1
  O  O20  1  0.67518551  0.13464164  0.03074442  1
  O  O21  1  0.42832525  0.09778916  0.52056278  1
  O  O22  1  0.67503372  0.55153417  0.54045450  1
  O  O23  1  0.86535836  0.32481449  0.53074442  1
  O  O24  1  0.55378763  0.68039175  0.95864848  1
  O  O25  1  0.11294728  0.44278439  0.97082396  1
  O  O26  1  0.33086346  0.88163528  0.97895357  1
  O  O27  1  0.55721561  0.88705272  0.47082396  1
  O  O28  1  0.31960825  0.44621237  0.45864848  1
  O  O29  1  0.11836472  0.66913654  0.47895357  1
  O  O30  1  0.12833000  0.65306184  0.37413979  1
  O  O31  1  0.54765679  0.89328847  0.36489947  1
  O  O32  1  0.32963340  0.43080609  0.35363971  1
  O  O33  1  0.10671153  0.45234321  0.86489947  1
  O  O34  1  0.34693816  0.87167000  0.87413979  1
  O  O35  1  0.56919391  0.67036660  0.85363971  1
  O  O36  1  0.02598420  0.82375203  0.41937976  1
  O  O37  1  0.82031784  0.01647500  0.41707522  1
  O  O38  1  0.16716274  0.17735849  0.41404815  1
  O  O39  1  0.98352499  0.17968216  0.91707522  1
  O  O40  1  0.17624797  0.97401580  0.91937976  1
  O  O41  1  0.82264151  0.83283726  0.91404815  1
  O  O42  1  0.97487586  0.17634996  0.58503721  1
  O  O43  1  0.17770729  0.97759672  0.57971124  1
  O  O44  1  0.83398570  0.82059855  0.58524515  1
  O  O45  1  0.02240328  0.82229271  0.07971124  1
  O  O46  1  0.82365004  0.02512414  0.08503721  1
  O  O47  1  0.17940145  0.16601430  0.08524515  1
  O  O48  1  0.68852467  0.15606167  0.74726046  1
  O  O49  1  0.49149058  0.35626862  0.75183347  1
  O  O50  1  0.83341764  0.51682145  0.75000455  1
  O  O51  1  0.64373138  0.50850942  0.25183347  1
  O  O52  1  0.84393833  0.31147533  0.24726046  1
  O  O53  1  0.48317855  0.16658236  0.25000455  1
  O  O54  1  0.68285100  0.53050952  0.91311936  1
  O  O55  1  0.84725371  0.34644819  0.91771156  1
  O  O56  1  0.48755154  0.13847597  0.92019796  1
  O  O57  1  0.65355181  0.15274629  0.41771156  1
  O  O58  1  0.46949048  0.31714900  0.41311936  1
  O  O59  1  0.86152403  0.51244846  0.42019796  1
  O  O60  1  0.31227198  0.46711618  0.08669119  1
  O  O61  1  0.15476490  0.65217510  0.08071156  1
  O  O62  1  0.51226900  0.86596398  0.08248540  1
  O  O63  1  0.34782490  0.84523510  0.58071156  1
  O  O64  1  0.53288382  0.68772802  0.58669119  1
  O  O65  1  0.13403602  0.48773100  0.58248540  1
  O  O66  1  0.35217154  0.86488007  0.25068650  1
  O  O67  1  0.50727958  0.67561623  0.24788759  1
  O  O68  1  0.15481875  0.46494663  0.24998684  1
  O  O69  1  0.32438377  0.49272042  0.74788759  1
  O  O70  1  0.13511993  0.64782846  0.75068650  1
  O  O71  1  0.53505337  0.84518125  0.74998684  1
loop_
_geom_bond_atom_site_label_1
_geom_bond_atom_site_label_2
_geom_bond_distance
_geom_bond_site_symmetry_2
Na0 O43 2.626167 1_655
Na0 O44 2.632582 1_555
Na0 O38 2.643522 1_665
Na0 O37 2.667685 1_565
Na0 O36 2.675443 1_655
Na0 O42 2.757528 1_565
Na1 O45 2.626167 1_546
Na1 O47 2.632582 1_556
Na1 O41 2.643522 1_445
Na1 O39 2.667685 1_455
Na1 O40 2.675443 1_545
Na1 O46 2.757529 1_456
Na2 O49 2.479732 1_555
Na2 O56 2.610109 1_555
Na2 O54 2.647177 1_555
Na2 O50 2.777083 1_555
Na2 O55 2.794957 1_555
Na2 O48 2.841240 1_555
Na3 O51 2.479732 1_555
Na3 O59 2.610109 1_555
Na3 O58 2.647177 1_555
Na3 O53 2.777083 1_555
Na3 O57 2.794957 1_555
Na3 O52 2.841240 1_555
Na4 O67 2.524881 1_555
Na4 O61 2.621979 1_555
Na4 O60 2.657854 1_555
Na4 O68 2.707220 1_555
Na4 O62 2.722604 1_555
Na4 O66 2.733184 1_555
Na5 O69 2.524881 1_555
Na5 O63 2.621979 1_555
Na5 O64 2.657854 1_555
Na5 O71 2.707220 1_555
Na5 O65 2.722604 1_555
Na5 O70 2.733184 1_555
Na6 O66 2.401650 1_545
Na6 O52 2.565804 1_555
Na6 O53 2.620868 1_555
Na6 O67 2.792299 1_545
Na6 O16 2.898178 1_555
Na6 O31 2.938877 1_545
Na7 O51 2.423053 1_555
Na7 O68 2.601552 1_555
Na7 O32 2.639515 1_555
Na7 O53 2.656778 1_555
Na7 O17 2.669514 1_555
Na7 O67 2.676932 1_555
Na8 O49 2.423053 1_555
Na8 O71 2.601552 1_555
Na8 O35 2.639515 1_555
Na8 O50 2.656778 1_555
Na8 O14 2.669514 1_555
Na8 O69 2.676932 1_555
Na9 O70 2.401650 1_655
Na9 O48 2.565804 1_555
Na9 O50 2.620868 1_555
Na9 O69 2.792299 1_655
Na9 O12 2.898178 1_555
Na9 O33 2.938877 1_655
Na10 O43 2.405364 1_555
Na10 O65 2.577618 1_555
Na10 O63 2.645899 1_555
Na10 O29 2.656894 1_555
Na10 O44 2.745924 1_455
Na10 O8 2.946562 1_555
Na11 O64 2.408993 1_555
Na11 O42 2.563590 1_565
Na11 O44 2.650091 1_555
Na11 O63 2.709961 1_555
Na11 O27 2.865768 1_555
Na11 O6 2.924697 1_555
Na12 O45 2.405364 1_555
Na12 O62 2.577618 1_555
Na12 O61 2.645899 1_555
Na12 O26 2.656894 1_554
Na12 O47 2.745924 1_565
Na12 O11 2.946562 1_555
Na13 O60 2.408993 1_555
Na13 O46 2.563590 1_455
Na13 O47 2.650091 1_555
Na13 O61 2.709961 1_555
Na13 O25 2.865768 1_554
Na13 O10 2.924697 1_555
Na14 O54 2.423484 1_555
Na14 O19 2.553456 1_556
Na14 O40 2.617087 1_655
Na14 O41 2.657081 1_555
Na14 O55 2.663925 1_555
Na14 O4 2.971274 1_555
Na15 O39 2.392153 1_555
Na15 O55 2.619993 1_555
Na15 O56 2.669014 1_555
Na15 O41 2.729314 1_545
Na15 O20 2.957012 1_556
Na15 O5 2.988803 1_555
Na16 O37 2.392153 1_555
Na16 O57 2.619993 1_555
Na16 O59 2.669014 1_555
Na16 O38 2.729314 1_655
Na16 O23 2.957012 1_555
Na16 O2 2.988803 1_555
Na17 O58 2.423483 1_555
Na17 O21 2.553456 1_555
Na17 O36 2.617087 1_545
Na17 O38 2.657081 1_555
Na17 O57 2.663925 1_555
Na17 O0 2.971274 1_555
La0 O1 2.312491 1_555
La0 O2 2.357204 1_565
La0 O36 2.403782 1_655
La0 O0 2.419375 1_665
La0 O38 2.427209 1_665
La0 O37 2.467288 1_565
La1 O3 2.312491 1_555
La1 O5 2.357204 1_455
La1 O40 2.403782 1_545
La1 O4 2.419375 1_445
La1 O41 2.427209 1_445
La1 O39 2.467288 1_455
La2 O7 2.312219 1_555
La2 O8 2.371674 1_545
La2 O6 2.391373 1_445
La2 O43 2.422101 1_545
La2 O44 2.431309 1_445
La2 O42 2.441157 1_455
La3 O9 2.312219 1_555
La3 O11 2.371674 1_655
La3 O10 2.391373 1_665
La3 O45 2.422101 1_655
La3 O47 2.431309 1_665
La3 O46 2.441157 1_565
La4 O13 2.324168 1_555
La4 O12 2.379214 1_555
La4 O14 2.402218 1_555
La4 O49 2.405485 1_555
La4 O48 2.415760 1_555
La4 O50 2.473166 1_555
La5 O15 2.324168 1_555
La5 O16 2.379214 1_555
La5 O17 2.402218 1_555
La5 O51 2.405485 1_555
La5 O52 2.415761 1_555
La5 O53 2.473166 1_555
La6 O18 2.323748 1_556
La6 O20 2.364570 1_556
La6 O54 2.398449 1_555
La6 O19 2.413849 1_556
La6 O56 2.425869 1_555
La6 O55 2.468268 1_555
La7 O22 2.323748 1_555
La7 O23 2.364570 1_555
La7 O58 2.398449 1_555
La7 O21 2.413849 1_555
La7 O59 2.425870 1_555
La7 O57 2.468268 1_555
La8 O24 2.312431 1_554
La8 O60 2.391245 1_555
La8 O26 2.398401 1_554
La8 O25 2.399155 1_554
La8 O61 2.442742 1_555
La8 O62 2.460549 1_555
La9 O28 2.312431 1_555
La9 O64 2.391245 1_555
La9 O29 2.398401 1_555
La9 O27 2.399155 1_555
La9 O63 2.442742 1_555
La9 O65 2.460549 1_555
La10 O30 2.296816 1_555
La10 O31 2.401702 1_555
La10 O67 2.402639 1_555
La10 O66 2.413142 1_555
La10 O32 2.414585 1_555
La10 O68 2.466215 1_555
La11 O34 2.296816 1_555
La11 O33 2.401702 1_555
La11 O69 2.402639 1_555
La11 O70 2.413143 1_555
La11 O35 2.414585 1_555
La11 O71 2.466215 1_555
O0 P0 1.557200 1_555
O1 P1 1.538236 1_555
O2 P2 1.560568 1_555
O3 P3 1.538236 1_555
O4 P4 1.557200 1_555
O5 P5 1.560568 1_555
O6 P5 1.558647 1_565
O7 P3 1.542620 1_555
O8 P4 1.550625 1_455
O9 P1 1.542620 1_555
O10 P2 1.558647 1_455
O11 P0 1.550625 1_565
O12 P6 1.562573 1_555
O13 P7 1.552087 1_555
O14 P8 1.546226 1_555
O15 P9 1.552087 1_555
O16 P10 1.562573 1_555
O17 P11 1.546226 1_555
O18 P11 1.553055 1_555
O19 P9 1.549179 1_555
O20 P10 1.560270 1_555
O21 P7 1.549179 1_555
O22 P8 1.553055 1_555
O23 P6 1.560270 1_555
O24 P12 1.551726 1_555
O25 P13 1.554606 1_555
O26 P14 1.548813 1_555
O27 P15 1.554606 1_555
O28 P16 1.551726 1_555
O29 P17 1.548813 1_555
O30 P17 1.555737 1_555
O31 P15 1.556320 1_555
O32 P16 1.545535 1_555
O33 P13 1.556320 1_555
O34 P14 1.555737 1_555
O35 P12 1.545535 1_555
O36 P17 1.560439 1_555
O37 P15 1.561909 1_545
O38 P16 1.557712 1_555
O39 P13 1.561908 1_655
O40 P14 1.560439 1_555
O41 P12 1.557712 1_555
O42 P6 1.554531 1_555
O43 P7 1.559092 1_565
O44 P8 1.554463 1_555
O45 P9 1.559092 1_455
O46 P10 1.554531 1_555
O47 P11 1.554463 1_555
O48 P5 1.560043 1_555
O49 P3 1.556503 1_555
O50 P4 1.561226 1_555
O51 P1 1.556503 1_555
O52 P2 1.560044 1_555
O53 P0 1.561226 1_555
O54 P12 1.560322 1_555
O55 P13 1.567087 1_655
O56 P14 1.551007 1_545
O57 P15 1.567087 1_545
O58 P16 1.560322 1_555
O59 P17 1.551007 1_655
O60 P11 1.561706 1_555
O61 P9 1.559223 1_455
O62 P10 1.556638 1_565
O63 P7 1.559223 1_565
O64 P8 1.561706 1_555
O65 P6 1.556638 1_455
O66 P0 1.564799 1_565
O67 P1 1.559394 1_555
O68 P2 1.552575 1_455
O69 P3 1.559394 1_555
O70 P4 1.564799 1_455
O71 P5 1.552575 1_565
