# generated using pymatgen
data_BaTeS3
_symmetry_space_group_name_H-M   'P 1'
_cell_length_a   6.98612374
_cell_length_b   7.56500176
_cell_length_c   11.07567138
_cell_angle_alpha   90.00000000
_cell_angle_beta   90.00000000
_cell_angle_gamma   90.00000000
_symmetry_Int_Tables_number   1
_chemical_formula_structural   BaTeS3
_chemical_formula_sum   'Ba4 Te4 S12'
_cell_volume   585.34965761
_cell_formula_units_Z   4
loop_
 _symmetry_equiv_pos_site_id
 _symmetry_equiv_pos_as_xyz
  1  'x, y, z'
loop_
 _atom_site_type_symbol
 _atom_site_label
 _atom_site_symmetry_multiplicity
 _atom_site_fract_x
 _atom_site_fract_y
 _atom_site_fract_z
 _atom_site_occupancy
  Ba  Ba0  1  0.25000000  0.75628159  0.91382580  1
  Ba  Ba1  1  0.75000000  0.24371841  0.08617420  1
  Ba  Ba2  1  0.25000000  0.25628159  0.58617420  1
  Ba  Ba3  1  0.75000000  0.74371841  0.41382580  1
  Te  Te0  1  0.25000000  0.02037658  0.25500903  1
  Te  Te1  1  0.75000000  0.97962342  0.74499097  1
  Te  Te2  1  0.25000000  0.52037658  0.24499097  1
  Te  Te3  1  0.75000000  0.47962342  0.75500903  1
  S  S0  1  0.48811153  0.12200834  0.84075303  1
  S  S1  1  0.98811153  0.87799166  0.15924697  1
  S  S2  1  0.01188847  0.62200834  0.65924697  1
  S  S3  1  0.51188847  0.37799166  0.34075303  1
  S  S4  1  0.51188847  0.87799166  0.15924697  1
  S  S5  1  0.01188847  0.12200834  0.84075303  1
  S  S6  1  0.98811153  0.37799166  0.34075303  1
  S  S7  1  0.48811153  0.62200834  0.65924697  1
  S  S8  1  0.75000000  0.62729218  0.94322516  1
  S  S9  1  0.25000000  0.37270782  0.05677484  1
  S  S10  1  0.75000000  0.12729218  0.55677484  1
  S  S11  1  0.25000000  0.87270782  0.44322516  1
loop_
_geom_bond_atom_site_label_1
_geom_bond_atom_site_label_2
_geom_bond_distance
_geom_bond_site_symmetry_2
Ba0 S9 3.305567 1_556
Ba0 S5 3.328202 1_565
Ba0 S0 3.328202 1_565
Ba0 S1 3.403494 1_456
Ba0 S4 3.403494 1_556
Ba0 S7 3.427722 1_555
Ba0 S2 3.427722 1_555
Ba0 S8 3.641388 1_455
Ba0 S8 3.641388 1_555
Ba1 S8 3.305567 1_554
Ba1 S4 3.328202 1_545
Ba1 S1 3.328202 1_545
Ba1 S5 3.403494 1_654
Ba1 S0 3.403494 1_554
Ba1 S6 3.427722 1_555
Ba1 S3 3.427722 1_555
Ba1 S9 3.641388 1_655
Ba1 S9 3.641388 1_555
Ba2 S11 3.305567 1_545
Ba2 S7 3.328202 1_555
Ba2 S2 3.328202 1_555
Ba2 S6 3.403494 1_455
Ba2 S3 3.403494 1_555
Ba2 S5 3.427722 1_555
Ba2 S0 3.427722 1_555
Ba2 S10 3.641388 1_455
Ba2 S10 3.641388 1_555
Ba3 S10 3.305567 1_565
Ba3 S6 3.328202 1_555
Ba3 S3 3.328202 1_555
Ba3 S7 3.403494 1_555
Ba3 S2 3.403494 1_655
Ba3 S4 3.427722 1_555
Ba3 S1 3.427722 1_555
Ba3 S11 3.641388 1_655
Ba3 S11 3.641388 1_555
S0 Te1 2.373300 1_545
S1 Te0 2.373300 1_665
S2 Te3 2.373300 1_455
S3 Te2 2.373300 1_555
S4 Te0 2.373300 1_565
S5 Te1 2.373300 1_445
S6 Te2 2.373300 1_655
S7 Te3 2.373300 1_555
S8 Te3 2.365076 1_555
S9 Te2 2.365076 1_555
S10 Te1 2.365076 1_545
S11 Te0 2.365076 1_565
