# generated using pymatgen
data_Na8NbAl3Si4(PO12)2
_symmetry_space_group_name_H-M   'P 1'
_cell_length_a   8.85479801
_cell_length_b   8.86070854
_cell_length_c   21.76206697
_cell_angle_alpha   89.81742149
_cell_angle_beta   89.90592242
_cell_angle_gamma   119.95636477
_symmetry_Int_Tables_number   1
_chemical_formula_structural   Na8NbAl3Si4(PO12)2
_chemical_formula_sum   'Na24 Nb3 Al9 Si12 P6 O72'
_cell_volume   1479.32448649
_cell_formula_units_Z   3
loop_
 _symmetry_equiv_pos_site_id
 _symmetry_equiv_pos_as_xyz
  1  'x, y, z'
loop_
 _atom_site_type_symbol
 _atom_site_label
 _atom_site_symmetry_multiplicity
 _atom_site_fract_x
 _atom_site_fract_y
 _atom_site_fract_z
 _atom_site_occupancy
  Na  Na0  1  0.63156163  0.99767338  0.25318406  1
  Na  Na1  1  0.36726870  0.36900057  0.25201097  1
  Na  Na2  1  0.00197502  0.63246530  0.25195639  1
  Na  Na3  1  0.63699053  0.63233816  0.74463946  1
  Na  Na4  1  0.99416909  0.35944919  0.74597811  1
  Na  Na5  1  0.37021439  0.00840039  0.74804901  1
  Na  Na6  1  0.29857877  0.33669755  0.58382859  1
  Na  Na7  1  0.03362735  0.69891802  0.58263508  1
  Na  Na8  1  0.66818119  0.96326097  0.58261032  1
  Na  Na9  1  0.29597115  0.96349788  0.08277431  1
  Na  Na10  1  0.66464001  0.69889460  0.08409931  1
  Na  Na11  1  0.03841071  0.33798290  0.08405254  1
  Na  Na12  1  0.97187449  0.67388503  0.91468094  1
  Na  Na13  1  0.70419042  0.03064368  0.91328356  1
  Na  Na14  1  0.32454052  0.29437603  0.91347696  1
  Na  Na15  1  0.97250490  0.29913362  0.41593622  1
  Na  Na16  1  0.32883630  0.02887320  0.41592246  1
  Na  Na17  1  0.69898204  0.67236112  0.41603185  1
  Na  Na18  1  0.99790456  0.99993312  0.49999780  1
  Na  Na19  1  0.00213035  0.00014170  0.99917182  1
  Na  Na20  1  0.66423174  0.32963280  0.82822753  1
  Na  Na21  1  0.66592755  0.33247077  0.33252912  1
  Na  Na22  1  0.33132342  0.66412144  0.16657434  1
  Na  Na23  1  0.33418149  0.66395456  0.66110369  1
  Nb  Nb0  1  0.66442947  0.33716649  0.98109689  1
  Nb  Nb1  1  0.67303707  0.33830529  0.47962376  1
  Nb  Nb2  1  0.33639370  0.66555409  0.81163603  1
  Al  Al0  1  0.99942242  0.00011249  0.35541859  1
  Al  Al1  1  0.00218906  0.00614472  0.85239543  1
  Al  Al2  1  0.99330890  0.00307545  0.64669730  1
  Al  Al3  1  0.00409453  0.99947211  0.14829961  1
  Al  Al4  1  0.66429428  0.33219491  0.68481452  1
  Al  Al5  1  0.66852860  0.33817694  0.18338679  1
  Al  Al6  1  0.32746086  0.66048539  0.01906623  1
  Al  Al7  1  0.33266653  0.65989328  0.51718076  1
  Al  Al8  1  0.33448938  0.66736307  0.31990735  1
  Si  Si0  1  0.28665786  0.27787650  0.74812797  1
  Si  Si1  1  0.72031658  0.00875870  0.74876736  1
  Si  Si2  1  0.96384812  0.33552900  0.58762509  1
  Si  Si3  1  0.66701803  0.63026318  0.58779625  1
  Si  Si4  1  0.96447892  0.63066814  0.08804883  1
  Si  Si5  1  0.36922736  0.33432048  0.08831513  1
  Si  Si6  1  0.62774818  0.67613977  0.91972517  1
  Si  Si7  1  0.04571580  0.37195961  0.91882872  1
  Si  Si8  1  0.32595250  0.95202892  0.91918914  1
  Si  Si9  1  0.61924268  0.94698915  0.41536495  1
  Si  Si10  1  0.32643648  0.37772785  0.41474822  1
  Si  Si11  1  0.05576390  0.67508108  0.41525753  1
  P  P0  1  0.28929214  0.00041629  0.24947370  1
  P  P1  1  0.71328659  0.71314632  0.24943171  1
  P  P2  1  0.99833947  0.28611536  0.24902657  1
  P  P3  1  0.99552339  0.71601179  0.74931965  1
  P  P4  1  0.37361817  0.03998446  0.58633469  1
  P  P5  1  0.66683922  0.04110191  0.08722959  1
  O  O0  1  0.20514188  0.03416148  0.30616771  1
  O  O1  1  0.82988235  0.79699029  0.30622818  1
  O  O2  1  0.96656479  0.16983223  0.30625232  1
  O  O3  1  0.20271093  0.16501455  0.81054037  1
  O  O4  1  0.96818399  0.79659003  0.80788677  1
  O  O5  1  0.83297546  0.03472034  0.81068735  1
  O  O6  1  0.79654884  0.95809950  0.68988579  1
  O  O7  1  0.16151597  0.19556058  0.68927210  1
  O  O8  1  0.03426977  0.83221907  0.69241406  1
  O  O9  1  0.79904230  0.83045143  0.19217504  1
  O  O10  1  0.02892569  0.20008772  0.19195557  1
  O  O11  1  0.17235643  0.96861758  0.19239993  1
  O  O12  1  0.86528628  0.36891208  0.64428343  1
  O  O13  1  0.49396663  0.12749874  0.64154754  1
  O  O14  1  0.62975959  0.49677241  0.64433858  1
  O  O15  1  0.86812114  0.49519939  0.14406166  1
  O  O16  1  0.63369735  0.13050094  0.14190976  1
  O  O17  1  0.50283438  0.36782634  0.14411736  1
  O  O18  1  0.45848596  0.29352886  0.02645941  1
  O  O19  1  0.83524354  0.53809856  0.02638453  1
  O  O20  1  0.70282425  0.15879949  0.02822233  1
  O  O21  1  0.45662865  0.15815028  0.52760735  1
  O  O22  1  0.70025555  0.53587888  0.52592505  1
  O  O23  1  0.83451997  0.29694961  0.52592978  1
  O  O24  1  0.53444994  0.70537792  0.97802609  1
  O  O25  1  0.16797655  0.46371023  0.97722596  1
  O  O26  1  0.29882544  0.83069157  0.97804246  1
  O  O27  1  0.53336532  0.82970340  0.47646553  1
  O  O28  1  0.29303085  0.46095824  0.47584221  1
  O  O29  1  0.17106909  0.70601656  0.47650029  1
  O  O30  1  0.13155301  0.62764804  0.35465530  1
  O  O31  1  0.49713972  0.86902098  0.35464255  1
  O  O32  1  0.37274983  0.50262029  0.35435565  1
  O  O33  1  0.12627726  0.50022991  0.85778361  1
  O  O34  1  0.36984487  0.86996383  0.85783512  1
  O  O35  1  0.49972251  0.62810099  0.85853704  1
  O  O36  1  0.02332613  0.84012106  0.40719505  1
  O  O37  1  0.81588549  0.97594605  0.40730752  1
  O  O38  1  0.15872732  0.18196648  0.40685165  1
  O  O39  1  0.02297331  0.18083558  0.91121603  1
  O  O40  1  0.15725653  0.97415855  0.91040874  1
  O  O41  1  0.81993775  0.83976266  0.90959683  1
  O  O42  1  0.97872652  0.15934736  0.58945404  1
  O  O43  1  0.19201119  0.02337915  0.59130456  1
  O  O44  1  0.84745977  0.81764035  0.59069875  1
  O  O45  1  0.97408522  0.81916442  0.09255266  1
  O  O46  1  0.83250990  0.02534906  0.09247959  1
  O  O47  1  0.17778755  0.15917299  0.09270569  1
  O  O48  1  0.69047039  0.17635848  0.74269018  1
  O  O49  1  0.48565854  0.31081084  0.74322125  1
  O  O50  1  0.83617374  0.52990587  0.74495175  1
  O  O51  1  0.69343741  0.52676078  0.24388661  1
  O  O52  1  0.83086325  0.30453992  0.24324964  1
  O  O53  1  0.47597459  0.16571184  0.24269892  1
  O  O54  1  0.64121127  0.49580259  0.92207102  1
  O  O55  1  0.85108802  0.35435855  0.92305244  1
  O  O56  1  0.50492334  0.14553210  0.92268213  1
  O  O57  1  0.64077719  0.14475779  0.42146659  1
  O  O58  1  0.50147819  0.35454755  0.42165255  1
  O  O59  1  0.85612777  0.49784024  0.42093722  1
  O  O60  1  0.35923143  0.51082819  0.07791058  1
  O  O61  1  0.15410719  0.64738670  0.07804478  1
  O  O62  1  0.50328051  0.86188286  0.07939475  1
  O  O63  1  0.35860641  0.86063309  0.57885754  1
  O  O64  1  0.49365839  0.64690469  0.57779343  1
  O  O65  1  0.15161508  0.51172943  0.57763643  1
  O  O66  1  0.30874184  0.83481013  0.25427774  1
  O  O67  1  0.52747349  0.69237584  0.25392962  1
  O  O68  1  0.16306057  0.47144773  0.25358580  1
  O  O69  1  0.30640457  0.47722555  0.75414586  1
  O  O70  1  0.16224215  0.69433451  0.75420056  1
  O  O71  1  0.51912539  0.83199995  0.75443971  1
loop_
_geom_bond_atom_site_label_1
_geom_bond_atom_site_label_2
_geom_bond_distance
_geom_bond_site_symmetry_2
Na0 O67 2.382705 1_555
Na0 O52 2.399425 1_565
Na0 O66 2.476700 1_555
Na0 O31 2.492296 1_555
Na0 O53 2.492890 1_565
Na0 O16 2.684951 1_565
Na0 O2 2.821977 1_565
Na0 O9 2.891030 1_555
Na1 O68 2.394600 1_555
Na1 O53 2.438335 1_555
Na1 O67 2.483116 1_555
Na1 O51 2.508299 1_555
Na1 O32 2.514849 1_555
Na1 O17 2.637708 1_555
Na1 O0 2.823296 1_555
Na1 O10 2.910521 1_555
Na2 O66 2.394359 1_555
Na2 O51 2.412312 1_455
Na2 O68 2.470545 1_555
Na2 O30 2.523886 1_555
Na2 O52 2.526293 1_455
Na2 O15 2.642906 1_455
Na2 O1 2.840041 1_455
Na2 O11 2.882515 1_555
Na3 O50 2.352285 1_555
Na3 O49 2.470071 1_555
Na3 O71 2.471893 1_555
Na3 O14 2.480278 1_555
Na3 O69 2.545380 1_555
Na3 O35 2.750715 1_555
Na3 O6 2.765405 1_555
Na3 O4 2.894229 1_555
Na4 O48 2.348017 1_555
Na4 O69 2.426109 1_655
Na4 O12 2.511945 1_555
Na4 O50 2.519739 1_555
Na4 O70 2.577959 1_655
Na4 O33 2.723220 1_655
Na4 O7 2.825223 1_655
Na4 O5 2.857522 1_555
Na5 O49 2.344871 1_555
Na5 O70 2.456072 1_545
Na5 O48 2.460336 1_555
Na5 O71 2.501706 1_545
Na5 O13 2.550947 1_555
Na5 O34 2.681437 1_545
Na5 O3 2.834793 1_555
Na5 O8 2.852724 1_545
Na6 O64 2.410695 1_555
Na6 O43 2.450441 1_555
Na6 O42 2.461454 1_455
Na6 O65 2.476241 1_555
Na6 O7 2.599848 1_555
Na6 O28 2.602909 1_555
Na6 O21 2.859424 1_555
Na6 O14 2.866396 1_555
Na7 O65 2.363416 1_555
Na7 O44 2.363678 1_455
Na7 O63 2.494242 1_555
Na7 O43 2.499099 1_565
Na7 O29 2.594852 1_555
Na7 O8 2.667180 1_555
Na7 O22 2.844023 1_455
Na7 O12 2.861396 1_455
Na8 O42 2.415376 1_565
Na8 O63 2.420671 1_555
Na8 O64 2.435772 1_555
Na8 O44 2.502205 1_555
Na8 O27 2.603257 1_555
Na8 O6 2.608470 1_555
Na8 O23 2.838078 1_565
Na8 O13 2.896539 1_565
Na9 O62 2.415872 1_555
Na9 O61 2.433597 1_555
Na9 O47 2.441653 1_565
Na9 O45 2.482061 1_455
Na9 O26 2.574233 1_554
Na9 O11 2.633124 1_555
Na9 O18 2.809459 1_565
Na9 O16 2.897291 1_565
Na10 O60 2.368652 1_555
Na10 O45 2.400884 1_555
Na10 O62 2.489567 1_555
Na10 O46 2.514006 1_565
Na10 O24 2.595164 1_554
Na10 O9 2.635917 1_555
Na10 O19 2.836238 1_555
Na10 O17 2.852392 1_555
Na11 O61 2.403126 1_555
Na11 O46 2.446068 1_455
Na11 O47 2.453674 1_555
Na11 O60 2.466987 1_555
Na11 O25 2.580732 1_554
Na11 O10 2.625369 1_555
Na11 O15 2.832425 1_455
Na11 O20 2.852985 1_455
Na12 O40 2.327749 1_655
Na12 O41 2.440658 1_555
Na12 O55 2.482927 1_555
Na12 O54 2.543910 1_555
Na12 O4 2.569840 1_555
Na12 O19 2.708982 1_556
Na12 O33 2.806698 1_655
Na12 O26 2.867306 1_655
Na13 O41 2.376831 1_545
Na13 O56 2.446525 1_555
Na13 O39 2.447171 1_655
Na13 O5 2.497338 1_555
Na13 O55 2.498651 1_555
Na13 O20 2.752794 1_556
Na13 O34 2.839224 1_545
Na13 O24 2.862101 1_545
Na14 O39 2.337300 1_555
Na14 O40 2.460363 1_545
Na14 O54 2.467585 1_555
Na14 O3 2.507014 1_555
Na14 O56 2.536512 1_555
Na14 O18 2.733223 1_556
Na14 O35 2.823163 1_555
Na14 O25 2.860444 1_555
Na15 O38 2.354971 1_655
Na15 O59 2.446753 1_555
Na15 O37 2.489431 1_545
Na15 O57 2.549294 1_555
Na15 O2 2.640186 1_555
Na15 O23 2.681318 1_555
Na15 O28 2.787603 1_655
Na15 O30 2.847821 1_655
Na16 O36 2.374188 1_545
Na16 O57 2.422373 1_555
Na16 O38 2.487538 1_555
Na16 O58 2.505421 1_555
Na16 O0 2.639294 1_555
Na16 O21 2.689272 1_555
Na16 O29 2.802157 1_545
Na16 O31 2.849418 1_545
Na17 O37 2.357711 1_555
Na17 O58 2.466241 1_555
Na17 O36 2.495560 1_655
Na17 O59 2.547020 1_555
Na17 O1 2.639838 1_555
Na17 O22 2.679024 1_555
Na17 O27 2.805561 1_555
Na17 O32 2.845158 1_555
Na18 O42 2.463717 1_565
Na18 O44 2.470187 1_555
Na18 O37 2.526461 1_555
Na18 O38 2.532638 1_665
Na18 O36 2.543548 1_655
Na18 O43 2.569602 1_665
Na19 O39 2.438337 1_555
Na19 O40 2.445629 1_545
Na19 O41 2.482025 1_445
Na19 O45 2.518474 1_446
Na19 O47 2.527442 1_556
Na19 O46 2.599398 1_456
Na20 O48 2.386075 1_555
Na20 O49 2.387150 1_555
Na20 O50 2.454300 1_555
Na20 O56 2.558738 1_555
Na20 O55 2.587678 1_555
Na20 O54 2.587990 1_555
Na21 O57 2.483994 1_555
Na21 O58 2.489578 1_555
Na21 O59 2.499831 1_555
Na21 O51 2.510530 1_555
Na21 O52 2.514723 1_555
Na21 O53 2.526100 1_555
Na22 O61 2.444489 1_555
Na22 O60 2.445273 1_555
Na22 O68 2.479896 1_555
Na22 O67 2.504582 1_555
Na22 O66 2.507857 1_555
Na22 O62 2.508611 1_555
Na23 O64 2.347408 1_555
Na23 O65 2.362140 1_555
Na23 O63 2.426892 1_555
Na23 O69 2.543307 1_555
Na23 O71 2.572872 1_555
Na23 O70 2.626341 1_555
Nb0 O18 1.933128 1_556
Nb0 O19 1.937937 1_556
Nb0 O54 1.986461 1_555
Nb0 O55 2.022645 1_555
Nb0 O56 2.029454 1_555
Nb0 O20 2.047585 1_556
Nb1 O23 1.928740 1_555
Nb1 O22 1.931006 1_555
Nb1 O59 1.987632 1_555
Nb1 O58 2.035554 1_555
Nb1 O57 2.037225 1_555
Nb1 O21 2.058768 1_555
Nb2 O35 1.930159 1_555
Nb2 O34 1.963630 1_555
Nb2 O33 1.969431 1_555
Nb2 O71 1.985195 1_555
Nb2 O69 1.998068 1_555
Nb2 O70 2.098178 1_555
Al0 O38 1.893617 1_655
Al0 O37 1.899230 1_545
Al0 O36 1.901147 1_645
Al0 O2 1.979575 1_555
Al0 O1 1.989509 1_545
Al0 O0 2.000175 1_655
Al1 O3 1.858571 1_555
Al1 O5 1.874804 1_455
Al1 O39 1.948659 1_555
Al1 O4 1.982582 1_445
Al1 O41 1.983194 1_445
Al1 O40 1.987875 1_545
Al2 O6 1.837527 1_545
Al2 O7 1.861024 1_655
Al2 O42 1.911532 1_555
Al2 O44 1.936866 1_545
Al2 O8 1.988275 1_645
Al2 O43 2.063193 1_655
Al3 O11 1.904073 1_555
Al3 O47 1.908158 1_565
Al3 O45 1.919458 1_455
Al3 O9 1.928959 1_455
Al3 O10 1.931811 1_565
Al3 O46 2.046661 1_465
Al4 O14 1.853105 1_555
Al4 O12 1.861743 1_555
Al4 O13 1.932515 1_555
Al4 O49 1.961137 1_555
Al4 O48 1.963726 1_555
Al4 O50 2.111043 1_555
Al5 O15 1.823030 1_555
Al5 O17 1.827459 1_555
Al5 O16 1.934098 1_555
Al5 O51 2.054553 1_555
Al5 O52 2.069718 1_555
Al5 O53 2.070393 1_555
Al6 O25 1.848980 1_554
Al6 O26 1.873470 1_554
Al6 O24 1.891948 1_554
Al6 O61 1.957485 1_555
Al6 O60 1.959692 1_555
Al6 O62 2.139863 1_555
Al7 O28 1.852814 1_555
Al7 O27 1.877010 1_555
Al7 O29 1.893185 1_555
Al7 O65 1.976045 1_555
Al7 O64 1.988569 1_555
Al7 O63 2.150877 1_555
Al8 O31 1.811233 1_555
Al8 O30 1.813020 1_555
Al8 O32 1.815313 1_555
Al8 O66 2.149090 1_555
Al8 O67 2.154641 1_555
Al8 O68 2.189147 1_555
O0 P0 1.545534 1_555
O1 P1 1.545834 1_555
O2 P2 1.546881 1_555
O3 Si0 1.625741 1_555
O4 P3 1.539556 1_555
O5 Si1 1.625132 1_555
O6 Si1 1.613232 1_565
O7 Si0 1.613647 1_555
O8 P3 1.532714 1_455
O9 P1 1.552404 1_555
O10 P2 1.551782 1_455
O11 P0 1.552190 1_565
O12 Si2 1.620519 1_555
O13 P4 1.538028 1_555
O14 Si3 1.619155 1_555
O15 Si4 1.618372 1_555
O16 P5 1.538380 1_555
O17 Si5 1.618247 1_555
O18 Si5 1.688855 1_555
O19 Si4 1.690502 1_555
O20 P5 1.579987 1_555
O21 P4 1.577881 1_555
O22 Si3 1.688383 1_555
O23 Si2 1.687580 1_555
O24 Si6 1.603665 1_555
O25 Si7 1.606277 1_555
O26 Si8 1.608194 1_555
O27 Si9 1.620169 1_555
O28 Si10 1.619211 1_555
O29 Si11 1.618999 1_555
O30 Si11 1.627463 1_555
O31 Si9 1.630040 1_555
O32 Si10 1.629678 1_555
O33 Si7 1.656214 1_555
O34 Si8 1.658092 1_555
O35 Si6 1.663158 1_555
O36 Si11 1.633961 1_555
O37 Si9 1.637378 1_555
O38 Si10 1.635193 1_555
O39 Si7 1.611594 1_555
O40 Si8 1.612303 1_555
O41 Si6 1.606039 1_555
O42 Si2 1.631249 1_555
O43 P4 1.543484 1_555
O44 Si3 1.632537 1_555
O45 Si4 1.632676 1_555
O46 P5 1.545804 1_555
O47 Si5 1.631690 1_555
O48 Si1 1.638150 1_555
O49 Si0 1.639279 1_555
O50 P3 1.548223 1_555
O51 P1 1.576193 1_555
O52 P2 1.576044 1_555
O53 P0 1.574593 1_555
O54 Si6 1.661292 1_555
O55 Si7 1.653424 1_655
O56 Si8 1.656689 1_545
O57 Si9 1.671123 1_545
O58 Si10 1.669022 1_555
O59 Si11 1.682882 1_655
O60 Si5 1.625178 1_555
O61 Si4 1.624490 1_455
O62 P5 1.534290 1_565
O63 P4 1.536358 1_565
O64 Si3 1.628650 1_555
O65 Si2 1.628931 1_455
O66 P0 1.563740 1_565
O67 P1 1.564460 1_555
O68 P2 1.563157 1_455
O69 Si0 1.691420 1_555
O70 P3 1.584641 1_455
O71 Si1 1.689239 1_565
