# generated using pymatgen
data_Li2Cu(PO3)4
_symmetry_space_group_name_H-M   'P 1'
_cell_length_a   8.26966097
_cell_length_b   8.26966097
_cell_length_c   7.52399054
_cell_angle_alpha   88.02399483
_cell_angle_beta   88.02399483
_cell_angle_gamma   112.81817429
_symmetry_Int_Tables_number   1
_chemical_formula_structural   Li2Cu(PO3)4
_chemical_formula_sum   'Li4 Cu2 P8 O24'
_cell_volume   473.35513003
_cell_formula_units_Z   2
loop_
 _symmetry_equiv_pos_site_id
 _symmetry_equiv_pos_as_xyz
  1  'x, y, z'
loop_
 _atom_site_type_symbol
 _atom_site_label
 _atom_site_symmetry_multiplicity
 _atom_site_fract_x
 _atom_site_fract_y
 _atom_site_fract_z
 _atom_site_occupancy
  Li  Li0  1  0.51384300  0.82171700  0.80823500  1
  Li  Li1  1  0.48615700  0.17828300  0.19176500  1
  Li  Li2  1  0.17828300  0.48615700  0.69176500  1
  Li  Li3  1  0.82171700  0.51384300  0.30823500  1
  Cu  Cu0  1  0.13110900  0.86889100  0.25000000  1
  Cu  Cu1  1  0.86889100  0.13110900  0.75000000  1
  P  P0  1  0.22704300  0.56277400  0.11302800  1
  P  P1  1  0.22468100  0.07312300  0.81632500  1
  P  P2  1  0.92687700  0.77531900  0.68367500  1
  P  P3  1  0.77531900  0.92687700  0.18367500  1
  P  P4  1  0.77295700  0.43722600  0.88697200  1
  P  P5  1  0.07312300  0.22468100  0.31632500  1
  P  P6  1  0.56277400  0.22704300  0.61302800  1
  P  P7  1  0.43722600  0.77295700  0.38697200  1
  O  O0  1  0.87810000  0.12190000  0.25000000  1
  O  O1  1  0.17102100  0.10367700  0.32652400  1
  O  O2  1  0.82897900  0.89632300  0.67347600  1
  O  O3  1  0.89632300  0.82897900  0.17347600  1
  O  O4  1  0.93543400  0.67546700  0.52471700  1
  O  O5  1  0.67546700  0.93543400  0.02471700  1
  O  O6  1  0.84405700  0.64524200  0.85803800  1
  O  O7  1  0.64524200  0.84405700  0.35803800  1
  O  O8  1  0.91396400  0.37470900  0.81908800  1
  O  O9  1  0.37470900  0.91396400  0.31908800  1
  O  O10  1  0.38841400  0.69856700  0.57400000  1
  O  O11  1  0.61730400  0.38269600  0.75000000  1
  O  O12  1  0.12190000  0.87810000  0.75000000  1
  O  O13  1  0.06456600  0.32453300  0.47528300  1
  O  O14  1  0.30143300  0.61158600  0.92600000  1
  O  O15  1  0.69856700  0.38841400  0.07400000  1
  O  O16  1  0.38269600  0.61730400  0.25000000  1
  O  O17  1  0.61158600  0.30143300  0.42600000  1
  O  O18  1  0.62529100  0.08603600  0.68091200  1
  O  O19  1  0.08603600  0.62529100  0.18091200  1
  O  O20  1  0.35475800  0.15594300  0.64196200  1
  O  O21  1  0.15594300  0.35475800  0.14196200  1
  O  O22  1  0.32453300  0.06456600  0.97528300  1
  O  O23  1  0.10367700  0.17102100  0.82652400  1
loop_
_geom_bond_atom_site_label_1
_geom_bond_atom_site_label_2
_geom_bond_distance
_geom_bond_site_symmetry_2
Li0 O14 2.075873 1_555
Li0 O5 2.145853 1_556
Li0 O10 2.156285 1_555
Li0 O18 2.185676 1_565
Li0 O2 2.593808 1_555
Li1 O15 2.075873 1_555
Li1 O22 2.145853 1_554
Li1 O17 2.156285 1_555
Li1 O9 2.185676 1_545
Li1 O1 2.593808 1_555
Li2 O10 2.075873 1_555
Li2 O13 2.145853 1_555
Li2 O14 2.156285 1_555
Li2 O8 2.185676 1_455
Li2 O23 2.593808 1_555
Li3 O17 2.075873 1_555
Li3 O4 2.145853 1_555
Li3 O15 2.156285 1_555
Li3 O19 2.185676 1_655
Li3 O3 2.593808 1_555
Cu0 O1 1.950233 1_565
Cu0 O3 1.950233 1_455
Cu0 O9 1.992610 1_555
Cu0 O19 1.992610 1_555
Cu1 O23 1.950233 1_655
Cu1 O2 1.950233 1_545
Cu1 O8 1.992610 1_555
Cu1 O18 1.992610 1_555
O0 P5 1.610605 1_655
O0 P3 1.610605 1_545
O1 P5 1.513264 1_555
O2 P2 1.513264 1_555
O3 P3 1.513264 1_555
O4 P2 1.491597 1_555
O5 P3 1.491597 1_555
O6 P4 1.591579 1_555
O6 P2 1.617586 1_555
O7 P7 1.591579 1_555
O7 P3 1.617586 1_555
O8 P4 1.527293 1_555
O9 P7 1.527293 1_555
O10 P7 1.493357 1_555
O11 P6 1.611098 1_555
O11 P4 1.611098 1_555
O12 P1 1.610605 1_565
O12 P2 1.610605 1_455
O13 P5 1.491597 1_555
O14 P0 1.493357 1_556
O15 P4 1.493357 1_554
O16 P7 1.611098 1_555
O16 P0 1.611098 1_555
O17 P6 1.493357 1_555
O18 P6 1.527293 1_555
O19 P0 1.527293 1_555
O20 P6 1.591579 1_555
O20 P1 1.617586 1_555
O21 P0 1.591579 1_555
O21 P5 1.617586 1_555
O22 P1 1.491597 1_555
O23 P1 1.513264 1_555
