# generated using pymatgen
data_Na5Ca4PS5O24
_symmetry_space_group_name_H-M   'P 1'
_cell_length_a   9.37748822
_cell_length_b   9.36679570
_cell_length_c   23.26904618
_cell_angle_alpha   90.13185956
_cell_angle_beta   89.77331676
_cell_angle_gamma   119.96293246
_symmetry_Int_Tables_number   1
_chemical_formula_structural   Na5Ca4PS5O24
_chemical_formula_sum   'Na15 Ca12 P3 S15 O72'
_cell_volume   1770.70190270
_cell_formula_units_Z   3
loop_
 _symmetry_equiv_pos_site_id
 _symmetry_equiv_pos_as_xyz
  1  'x, y, z'
loop_
 _atom_site_type_symbol
 _atom_site_label
 _atom_site_symmetry_multiplicity
 _atom_site_fract_x
 _atom_site_fract_y
 _atom_site_fract_z
 _atom_site_occupancy
  Na  Na0  1  0.35664485  0.34258771  0.25135122  1
  Na  Na1  1  0.00899419  0.65420466  0.24682362  1
  Na  Na2  1  0.64045467  0.65494729  0.74186186  1
  Na  Na3  1  0.98620894  0.34204893  0.75566184  1
  Na  Na4  1  0.32340611  0.35092535  0.58553091  1
  Na  Na5  1  0.66770195  0.96405709  0.58784444  1
  Na  Na6  1  0.30471160  0.97451218  0.09137320  1
  Na  Na7  1  0.69436534  0.02608988  0.91146952  1
  Na  Na8  1  0.69100666  0.66217011  0.42500516  1
  Na  Na9  1  0.00397467  0.97697817  0.50163724  1
  Na  Na10  1  0.00044008  0.99993538  0.00050332  1
  Na  Na11  1  0.64160815  0.31403591  0.83159279  1
  Na  Na12  1  0.64601541  0.26799164  0.33230673  1
  Na  Na13  1  0.35674205  0.68629647  0.16785039  1
  Na  Na14  1  0.34154827  0.70199432  0.66885382  1
  Ca  Ca0  1  0.00759670  0.01020764  0.34876512  1
  Ca  Ca1  1  0.00994623  0.00037337  0.84872682  1
  Ca  Ca2  1  0.99477782  0.98280596  0.65185634  1
  Ca  Ca3  1  0.98918671  -0.00100774  0.15152995  1
  Ca  Ca4  1  0.66603061  0.33382583  0.68077448  1
  Ca  Ca5  1  0.66982283  0.32831491  0.18049221  1
  Ca  Ca6  1  0.67659591  0.34921620  0.98525640  1
  Ca  Ca7  1  0.67519074  0.33881492  0.48524034  1
  Ca  Ca8  1  0.32275782  0.65086307  0.01500601  1
  Ca  Ca9  1  0.32226136  0.66684636  0.51343556  1
  Ca  Ca10  1  0.33777084  0.68309354  0.31879189  1
  Ca  Ca11  1  0.33320568  0.67299039  0.81955125  1
  P  P0  1  0.30170498  -0.00006376  0.24319600  1
  P  P1  1  0.69597576  0.00097319  0.75112704  1
  P  P2  1  0.66029651  0.64357768  0.58139005  1
  S  S0  1  0.69245995  0.68770215  0.25401067  1
  S  S1  1  0.00554174  0.31311989  0.25078221  1
  S  S2  1  0.30692318  0.31235034  0.74605136  1
  S  S3  1  0.99647576  0.68552849  0.75106892  1
  S  S4  1  0.97589382  0.32915008  0.58761189  1
  S  S5  1  0.36495547  0.03279650  0.58205283  1
  S  S6  1  0.98191028  0.64842245  0.08708855  1
  S  S7  1  0.66169978  0.02344523  0.07717132  1
  S  S8  1  0.36010507  0.33012330  0.08694777  1
  S  S9  1  0.63949643  0.67034724  0.91316313  1
  S  S10  1  0.01775243  0.35176831  0.91263873  1
  S  S11  1  0.33868624  0.97649989  0.92257350  1
  S  S12  1  0.64642519  0.97281578  0.42116194  1
  S  S13  1  0.33787618  0.36338956  0.41668064  1
  S  S14  1  0.01689168  0.66538872  0.41237205  1
  O  O0  1  0.19751429  0.01536252  0.29200745  1
  O  O1  1  0.77382676  0.76937073  0.30860320  1
  O  O2  1  0.98567409  0.21795818  0.30350303  1
  O  O3  1  0.21602303  0.20793728  0.79542638  1
  O  O4  1  0.99780056  0.77826012  0.80245856  1
  O  O5  1  0.79760457  0.01157182  0.80528600  1
  O  O6  1  0.78521521  0.98753410  0.69643995  1
  O  O7  1  0.22882105  0.23057011  0.69091557  1
  O  O8  1  0.01339972  0.77799421  0.69782413  1
  O  O9  1  0.77959393  0.79271300  0.20416157  1
  O  O10  1  0.00872744  0.22324281  0.19898071  1
  O  O11  1  0.21580398  0.98892014  0.18510927  1
  O  O12  1  0.90352373  0.33860585  0.64337781  1
  O  O13  1  0.46369413  0.11284030  0.63414151  1
  O  O14  1  0.65167461  0.54358496  0.63567014  1
  O  O15  1  0.90342568  0.57134277  0.14285530  1
  O  O16  1  0.65578407  0.12272726  0.12608471  1
  O  O17  1  0.44141371  0.33947297  0.14296350  1
  O  O18  1  0.46267723  0.32488693  0.03914680  1
  O  O19  1  0.88549113  0.54645555  0.03827293  1
  O  O20  1  0.67254542  0.10819791  0.02195445  1
  O  O21  1  0.45157727  0.12752327  0.53016906  1
  O  O22  1  0.66117877  0.55227824  0.52600024  1
  O  O23  1  0.86735328  0.31615256  0.53962808  1
  O  O24  1  0.53726700  0.67539017  0.96110330  1
  O  O25  1  0.11437632  0.45221394  0.96161936  1
  O  O26  1  0.32764646  0.89115708  0.97757957  1
  O  O27  1  0.56182309  0.88836162  0.47552191  1
  O  O28  1  0.33304866  0.45088591  0.46963799  1
  O  O29  1  0.11475605  0.66625732  0.46193961  1
  O  O30  1  0.09762438  0.66800107  0.35710840  1
  O  O31  1  0.54508710  0.88126713  0.37090117  1
  O  O32  1  0.33784337  0.45643038  0.36474897  1
  O  O33  1  0.09696502  0.42933627  0.85700432  1
  O  O34  1  0.34559177  0.87803893  0.87350693  1
  O  O35  1  0.55800030  0.66061821  0.85721561  1
  O  O36  1  -0.00622248  0.81273700  0.41707369  1
  O  O37  1  0.80568481  0.97200472  0.41969008  1
  O  O38  1  0.19479052  0.19379407  0.41740177  1
  O  O39  1  -0.00163930  0.18306461  0.91760529  1
  O  O40  1  0.19580861  0.00295147  0.91840519  1
  O  O41  1  0.80151932  0.82840749  0.91619098  1
  O  O42  1  0.99433956  0.17884462  0.58573746  1
  O  O43  1  0.20303602  0.02693676  0.58443517  1
  O  O44  1  0.81264312  0.82059905  0.58106005  1
  O  O45  1  0.99936081  0.81604661  0.08163549  1
  O  O46  1  0.80462699  -0.00300948  0.08125168  1
  O  O47  1  0.19740951  0.17337955  0.08351748  1
  O  O48  1  0.68523059  0.16152940  0.74974911  1
  O  O49  1  0.48235977  0.35191987  0.74877437  1
  O  O50  1  0.83550774  0.52562698  0.75097101  1
  O  O51  1  0.69301654  0.52777614  0.25024842  1
  O  O52  1  0.86915495  0.35218092  0.24819250  1
  O  O53  1  0.47591705  0.15699332  0.24638952  1
  O  O54  1  0.66533733  0.52702917  0.91746534  1
  O  O55  1  0.84729772  0.32903964  0.91320160  1
  O  O56  1  0.49666135  0.13883717  0.91971280  1
  O  O57  1  0.67612030  0.14375820  0.41895354  1
  O  O58  1  0.49578930  0.35901299  0.41527848  1
  O  O59  1  0.84872275  0.51620725  0.41334554  1
  O  O60  1  0.33579238  0.47452029  0.08274720  1
  O  O61  1  0.15260646  0.67180800  0.08650758  1
  O  O62  1  0.50370591  0.86134127  0.08022269  1
  O  O63  1  0.34184352  0.86328641  0.58043106  1
  O  O64  1  0.50151743  0.66094649  0.58304807  1
  O  O65  1  0.14403144  0.47604912  0.58212111  1
  O  O66  1  0.31031515  0.83840834  0.24894577  1
  O  O67  1  0.51628412  0.64741189  0.25306093  1
  O  O68  1  0.16584275  0.47390669  0.25200827  1
  O  O69  1  0.30633911  0.47259730  0.74843960  1
  O  O70  1  0.13187974  0.64514438  0.75254250  1
  O  O71  1  0.52362634  0.84102910  0.75192315  1
loop_
_geom_bond_atom_site_label_1
_geom_bond_atom_site_label_2
_geom_bond_distance
_geom_bond_site_symmetry_2
Na0 O67 2.474949 1_555
Na0 O53 2.495334 1_555
Na0 O68 2.629200 1_555
Na0 O17 2.645863 1_555
Na0 O51 2.737418 1_555
Na0 O0 2.819540 1_555
Na0 O32 2.881293 1_555
Na1 O52 2.453224 1_455
Na1 O66 2.468699 1_555
Na1 O15 2.584181 1_455
Na1 O51 2.584978 1_455
Na1 O30 2.683474 1_555
Na1 O68 2.741091 1_555
Na2 O49 2.465194 1_555
Na2 O71 2.489290 1_555
Na2 O50 2.659934 1_555
Na2 O14 2.701961 1_555
Na2 O69 2.722018 1_555
Na2 O35 2.798108 1_555
Na2 O6 2.905922 1_555
Na3 O70 2.461244 1_655
Na3 O48 2.465572 1_555
Na3 O33 2.543681 1_655
Na3 O69 2.620263 1_655
Na3 O50 2.719424 1_555
Na3 O12 2.723846 1_555
Na3 O5 2.928346 1_555
Na4 O65 2.485960 1_555
Na4 O64 2.526050 1_555
Na4 O43 2.657552 1_555
Na4 O7 2.658500 1_555
Na4 O42 2.674317 1_455
Na4 O28 2.842932 1_555
Na4 O14 2.926378 1_555
Na5 O44 2.345126 1_555
Na5 O64 2.466229 1_555
Na5 O42 2.697402 1_565
Na5 O63 2.716719 1_555
Na5 O6 2.724964 1_555
Na5 O27 2.761964 1_555
Na6 O11 2.359529 1_555
Na6 O61 2.459006 1_555
Na6 O45 2.492359 1_455
Na6 O47 2.528044 1_565
Na6 O62 2.577603 1_555
Na6 O26 2.796566 1_554
Na7 O55 2.458785 1_555
Na7 O39 2.474729 1_655
Na7 O41 2.512111 1_545
Na7 O56 2.557595 1_555
Na7 O5 2.677982 1_555
Na7 O20 2.717851 1_556
Na8 O36 2.466092 1_655
Na8 O59 2.478943 1_555
Na8 O58 2.504737 1_555
Na8 O22 2.525646 1_555
Na8 O37 2.545078 1_555
Na8 O1 2.857386 1_555
Na9 O36 2.467462 1_555
Na9 O44 2.478155 1_455
Na9 O43 2.562653 1_565
Na9 O37 2.652715 1_455
Na9 O38 2.743876 1_565
Na9 O42 2.750500 1_465
Na10 O45 2.555070 1_455
Na10 O39 2.590862 1_564
Na10 O47 2.607440 1_565
Na10 O46 2.612522 1_465
Na10 O40 2.632022 1_564
Na10 O41 2.632623 1_454
Na11 O48 2.529780 1_555
Na11 O56 2.551539 1_555
Na11 O49 2.573906 1_555
Na11 O55 2.665192 1_555
Na11 O50 2.672828 1_555
Na11 O54 2.750312 1_555
Na12 O57 2.417083 1_555
Na12 O53 2.445661 1_555
Na12 O52 2.675383 1_555
Na12 O58 2.758545 1_555
Na12 O59 2.858037 1_555
Na12 O51 2.950381 1_555
Na13 O66 2.526096 1_555
Na13 O62 2.545830 1_555
Na13 O67 2.621728 1_555
Na13 O61 2.652065 1_555
Na13 O68 2.725817 1_555
Na13 O60 2.736918 1_555
Na14 O71 2.478110 1_555
Na14 O63 2.554592 1_555
Na14 O70 2.621110 1_555
Na14 O64 2.633160 1_555
Na14 O69 2.731354 1_555
Na14 O65 2.842036 1_555
Ca0 O0 2.194115 1_555
Ca0 O2 2.312790 1_455
Ca0 O38 2.362963 1_555
Ca0 O36 2.395197 1_545
Ca0 O37 2.395412 1_445
Ca0 O1 2.415515 1_445
Ca1 O5 2.285350 1_455
Ca1 O4 2.292266 1_445
Ca1 O3 2.300403 1_555
Ca1 O40 2.376399 1_555
Ca1 O39 2.383398 1_555
Ca1 O41 2.392006 1_445
Ca2 O6 2.238456 1_555
Ca2 O8 2.280466 1_655
Ca2 O44 2.314744 1_555
Ca2 O43 2.370322 1_665
Ca2 O42 2.399894 1_565
Ca2 O7 2.438680 1_665
Ca3 O10 2.295927 1_655
Ca3 O9 2.301015 1_545
Ca3 O11 2.312838 1_645
Ca3 O46 2.379027 1_555
Ca3 O45 2.395816 1_545
Ca3 O47 2.405607 1_655
Ca4 O13 2.268273 1_555
Ca4 O14 2.292333 1_555
Ca4 O48 2.348909 1_555
Ca4 O50 2.361449 1_555
Ca4 O12 2.367360 1_555
Ca4 O49 2.401609 1_555
Ca5 O16 2.250620 1_555
Ca5 O53 2.303768 1_555
Ca5 O17 2.366450 1_555
Ca5 O52 2.372748 1_555
Ca5 O51 2.399059 1_555
Ca5 O15 2.400127 1_555
Ca6 O19 2.272899 1_556
Ca6 O18 2.274486 1_556
Ca6 O54 2.337202 1_555
Ca6 O55 2.385113 1_555
Ca6 O56 2.396153 1_555
Ca6 O20 2.397961 1_556
Ca7 O22 2.273191 1_555
Ca7 O21 2.292109 1_555
Ca7 O23 2.301143 1_555
Ca7 O59 2.344790 1_555
Ca7 O57 2.391680 1_555
Ca7 O58 2.420179 1_555
Ca8 O24 2.278611 1_554
Ca8 O25 2.280474 1_554
Ca8 O60 2.333043 1_555
Ca8 O61 2.375441 1_555
Ca8 O26 2.394201 1_554
Ca8 O62 2.394582 1_555
Ca9 O29 2.286919 1_555
Ca9 O28 2.309740 1_555
Ca9 O27 2.338146 1_555
Ca9 O63 2.345456 1_555
Ca9 O65 2.355871 1_555
Ca9 O64 2.359507 1_555
Ca10 O31 2.258106 1_555
Ca10 O66 2.283094 1_555
Ca10 O30 2.356476 1_555
Ca10 O32 2.379717 1_555
Ca10 O68 2.388268 1_555
Ca10 O67 2.406161 1_555
Ca11 O34 2.246302 1_555
Ca11 O71 2.307398 1_555
Ca11 O35 2.341866 1_555
Ca11 O70 2.364966 1_555
Ca11 O33 2.412367 1_555
Ca11 O69 2.416903 1_555
O0 P0 1.548230 1_555
O1 S0 1.483659 1_555
O2 S1 1.473609 1_655
O3 S2 1.472345 1_555
O4 S3 1.472781 1_555
O5 P1 1.555861 1_555
O6 P1 1.559330 1_565
O7 S2 1.487173 1_555
O8 S3 1.475270 1_455
O9 S0 1.474976 1_555
O10 S1 1.477399 1_555
O11 P0 1.552857 1_565
O12 S4 1.484847 1_555
O13 S5 1.483171 1_555
O14 P2 1.551792 1_555
O15 S6 1.487545 1_555
O16 S7 1.486431 1_555
O17 S8 1.492852 1_555
O18 S8 1.484311 1_555
O19 S6 1.469872 1_555
O20 S7 1.488084 1_555
O21 S5 1.477119 1_555
O22 P2 1.547416 1_555
O23 S4 1.477180 1_555
O24 S9 1.483971 1_555
O25 S10 1.468635 1_555
O26 S11 1.486264 1_555
O27 S12 1.491628 1_555
O28 S13 1.491369 1_555
O29 S14 1.474267 1_555
O30 S14 1.483682 1_555
O31 S12 1.482017 1_555
O32 S13 1.491594 1_555
O33 S10 1.487675 1_555
O34 S11 1.487461 1_555
O35 S9 1.491614 1_555
O36 S14 1.503925 1_555
O37 S12 1.497520 1_555
O38 S13 1.481563 1_555
O39 S10 1.502378 1_555
O40 S11 1.482795 1_545
O41 S9 1.502935 1_555
O42 S4 1.502286 1_555
O43 S5 1.492554 1_555
O44 P2 1.556983 1_555
O45 S6 1.500734 1_555
O46 S7 1.483132 1_555
O47 S8 1.500862 1_555
O48 P1 1.557081 1_555
O49 S2 1.496517 1_555
O50 S3 1.504502 1_555
O51 S0 1.502957 1_555
O52 S1 1.497124 1_655
O53 P0 1.561546 1_555
O54 S9 1.482097 1_555
O55 S10 1.503471 1_655
O56 S11 1.503588 1_545
O57 S12 1.482856 1_545
O58 S13 1.501948 1_555
O59 S14 1.496245 1_655
O60 S8 1.483138 1_555
O61 S6 1.503335 1_455
O62 S7 1.502735 1_565
O63 S5 1.491795 1_565
O64 P2 1.576835 1_555
O65 S4 1.492573 1_455
O66 P0 1.560970 1_565
O67 S0 1.499923 1_555
O68 S1 1.505801 1_555
O69 S2 1.504642 1_555
O70 S3 1.495560 1_455
O71 P1 1.561480 1_565
