# generated using pymatgen
data_Sr2YMgTlCu2O7
_symmetry_space_group_name_H-M   'P 1'
_cell_length_a   4.25059464
_cell_length_b   4.25059464
_cell_length_c   11.95105183
_cell_angle_alpha   90.00000000
_cell_angle_beta   90.00000000
_cell_angle_gamma   85.83005209
_symmetry_Int_Tables_number   1
_chemical_formula_structural   Sr2YMgTlCu2O7
_chemical_formula_sum   'Sr2 Y1 Mg1 Tl1 Cu2 O7'
_cell_volume   215.35467419
_cell_formula_units_Z   1
loop_
 _symmetry_equiv_pos_site_id
 _symmetry_equiv_pos_as_xyz
  1  'x, y, z'
loop_
 _atom_site_type_symbol
 _atom_site_label
 _atom_site_symmetry_multiplicity
 _atom_site_fract_x
 _atom_site_fract_y
 _atom_site_fract_z
 _atom_site_occupancy
  Sr  Sr0  1  0.58983377  0.58983377  0.79105774  1
  Sr  Sr1  1  0.58983377  0.58983377  0.20894226  1
  Y  Y0  1  0.36045780  0.36045780  0.50000000  1
  Mg  Mg0  1  0.81930951  0.81930951  0.50000000  1
  Tl  Tl0  1  0.13150687  0.13150687  0.00000000  1
  Cu  Cu0  1  0.09500456  0.09500456  0.70054046  1
  Cu  Cu1  1  0.09500456  0.09500456  0.29945954  1
  O  O0  1  0.44676480  0.91941336  0.60835610  1
  O  O1  1  0.91941336  0.44676480  0.60835610  1
  O  O2  1  0.44676480  0.91941336  0.39164390  1
  O  O3  1  0.91941336  0.44676480  0.39164390  1
  O  O4  1  0.96253629  0.96253629  0.84044548  1
  O  O5  1  0.96253629  0.96253629  0.15955452  1
  O  O6  1  0.48304926  0.48304926  0.00000000  1
loop_
_geom_bond_atom_site_label_1
_geom_bond_atom_site_label_2
_geom_bond_distance
_geom_bond_site_symmetry_2
Mg0 O3 2.065816 1_555
Mg0 O1 2.065816 1_555
Mg0 O0 2.065816 1_555
Mg0 O2 2.065816 1_555
Cu0 O4 1.864357 1_445
Cu0 O0 1.960639 1_545
Cu0 O1 1.960639 1_455
Cu1 O5 1.864357 1_445
Cu1 O2 1.960639 1_545
Cu1 O3 1.960639 1_455
O0 Y0 2.286048 1_565
O0 Sr0 2.641220 1_555
O0 Y0 2.753753 1_555
O1 Y0 2.286048 1_655
O1 Sr0 2.641220 1_555
O1 Y0 2.753753 1_555
O2 Y0 2.286048 1_565
O2 Sr1 2.641220 1_555
O2 Y0 2.753753 1_555
O3 Y0 2.286048 1_655
O3 Sr1 2.641220 1_555
O3 Y0 2.753753 1_555
O4 Tl0 2.177790 1_666
O4 Sr0 2.394325 1_555
O5 Tl0 2.177790 1_665
O5 Sr1 2.394325 1_555
O6 Tl0 2.188692 1_555
O6 Sr0 2.584070 1_554
O6 Sr1 2.584070 1_555
