# generated using pymatgen
data_Na2MgMn4O8
_symmetry_space_group_name_H-M   'P 1'
_cell_length_a   5.87982075
_cell_length_b   7.58822656
_cell_length_c   5.87982075
_cell_angle_alpha   67.20529623
_cell_angle_beta   90.00000000
_cell_angle_gamma   112.79470377
_symmetry_Int_Tables_number   1
_chemical_formula_structural   Na2MgMn4O8
_chemical_formula_sum   'Na2 Mg1 Mn4 O8'
_cell_volume   219.45930958
_cell_formula_units_Z   1
loop_
 _symmetry_equiv_pos_site_id
 _symmetry_equiv_pos_as_xyz
  1  'x, y, z'
loop_
 _atom_site_type_symbol
 _atom_site_label
 _atom_site_symmetry_multiplicity
 _atom_site_fract_x
 _atom_site_fract_y
 _atom_site_fract_z
 _atom_site_occupancy
  Na  Na0  1  0.00000000  -0.00000000  0.00000000  1
  Na  Na1  1  0.75000000  0.50000000  0.75000000  1
  Mg  Mg0  1  0.50000000  -0.00000000  0.50000000  1
  Mn  Mn0  1  0.41591723  0.33494990  0.33252505  1
  Mn  Mn1  1  0.91903267  0.33494990  0.33252505  1
  Mn  Mn2  1  0.33252505  0.66505010  0.41591723  1
  Mn  Mn3  1  0.33252505  0.66505010  0.91903267  1
  O  O0  1  0.16266703  0.32533306  0.11582207  1
  O  O1  1  0.62512765  0.25025630  0.16681081  1
  O  O2  1  0.55884487  0.67466694  0.16266703  1
  O  O3  1  0.11582207  0.67466694  0.16266703  1
  O  O4  1  0.62512765  0.25025630  0.58293289  1
  O  O5  1  0.16266703  0.32533306  0.55884487  1
  O  O6  1  0.58293289  0.74974370  0.62512765  1
  O  O7  1  0.16681081  0.74974370  0.62512765  1
loop_
_geom_bond_atom_site_label_1
_geom_bond_atom_site_label_2
_geom_bond_distance
_geom_bond_site_symmetry_2
Na0 O3 2.635560 1_545
Na0 O0 2.635560 1_555
Na0 O2 2.635560 1_445
Na0 O5 2.635560 1_554
Na1 O4 2.336625 1_555
Na1 O6 2.336625 1_555
Na1 O7 2.336626 1_655
Na1 O1 2.336626 1_556
Mg0 O4 2.005049 1_555
Mg0 O6 2.005049 1_545
Mg0 O7 2.005049 1_545
Mg0 O1 2.005049 1_555
Mn0 O0 1.958063 1_555
Mn0 O5 1.958063 1_555
Mn0 O1 1.993344 1_555
Mn0 O4 1.993344 1_555
Mn0 O2 2.162275 1_555
Mn1 O0 1.958068 1_655
Mn1 O5 1.958068 1_655
Mn1 O1 1.993348 1_555
Mn1 O4 1.993349 1_555
Mn1 O3 2.162275 1_655
Mn2 O3 1.958063 1_555
Mn2 O2 1.958063 1_555
Mn2 O7 1.993344 1_555
Mn2 O6 1.993344 1_555
Mn2 O5 2.162275 1_555
Mn3 O3 1.958068 1_556
Mn3 O2 1.958068 1_556
Mn3 O7 1.993348 1_555
Mn3 O6 1.993349 1_555
Mn3 O0 2.162275 1_556
