# generated using pymatgen
data_Na10Hf4Ta4Si11SO48
_symmetry_space_group_name_H-M   'P 1'
_cell_length_a   18.08971036
_cell_length_b   9.05589750
_cell_length_c   22.79027948
_cell_angle_alpha   90.04238490
_cell_angle_beta   89.94769621
_cell_angle_gamma   119.98347677
_symmetry_Int_Tables_number   1
_chemical_formula_structural   Na10Hf4Ta4Si11SO48
_chemical_formula_sum   'Na30 Hf12 Ta12 Si33 S3 O144'
_cell_volume   3233.81726413
_cell_formula_units_Z   3
loop_
 _symmetry_equiv_pos_site_id
 _symmetry_equiv_pos_as_xyz
  1  'x, y, z'
loop_
 _atom_site_type_symbol
 _atom_site_label
 _atom_site_symmetry_multiplicity
 _atom_site_fract_x
 _atom_site_fract_y
 _atom_site_fract_z
 _atom_site_occupancy
  Na  Na0  1  0.32162219  0.00003694  0.24976313  1
  Na  Na1  1  0.82149494  -0.00001597  0.25021360  1
  Na  Na2  1  0.81953351  0.63817640  0.74951835  1
  Na  Na3  1  0.49803305  0.36306361  0.74928653  1
  Na  Na4  1  0.01649155  0.70121115  0.58407678  1
  Na  Na5  1  0.33312664  0.96958405  0.58534801  1
  Na  Na6  1  0.83325596  0.96546120  0.58335818  1
  Na  Na7  1  0.33264063  0.69666631  0.08524015  1
  Na  Na8  1  0.83267807  0.69686672  0.08593292  1
  Na  Na9  1  0.01646586  0.33334130  0.08500704  1
  Na  Na10  1  0.51411090  0.33077149  0.08509457  1
  Na  Na11  1  0.98558083  0.66449549  0.91434101  1
  Na  Na12  1  0.34918311  0.03227749  0.91577279  1
  Na  Na13  1  0.85124990  0.03351094  0.91612032  1
  Na  Na14  1  0.48414245  0.30342592  0.41454734  1
  Na  Na15  1  0.98444597  0.30389024  0.41404974  1
  Na  Na16  1  0.34983505  0.66783995  0.41490762  1
  Na  Na17  1  0.84931021  0.66801502  0.41479413  1
  Na  Na18  1  0.00899958  0.00916894  0.49915869  1
  Na  Na19  1  0.50843076  0.00105952  0.50046762  1
  Na  Na20  1  0.01000761  0.00995287  0.00056136  1
  Na  Na21  1  0.50700856  0.99813343  0.99972492  1
  Na  Na22  1  0.33157237  0.34144923  0.83317770  1
  Na  Na23  1  0.83168530  0.32669865  0.83140412  1
  Na  Na24  1  0.33464626  0.34220934  0.33059679  1
  Na  Na25  1  0.83448450  0.34228101  0.33025404  1
  Na  Na26  1  0.16364458  0.65844510  0.16912017  1
  Na  Na27  1  0.66307777  0.65770452  0.16995343  1
  Na  Na28  1  0.16797336  0.66706516  0.67102472  1
  Na  Na29  1  0.66238383  0.66722314  0.66470403  1
  Hf  Hf0  1  0.99672913  0.99656248  0.35478635  1
  Hf  Hf1  1  0.49671717  0.99715349  0.35479779  1
  Hf  Hf2  1  0.99791461  0.99732404  0.85448288  1
  Hf  Hf3  1  0.99890093  0.99463247  0.64540600  1
  Hf  Hf4  1  0.99854000  0.00296662  0.14510795  1
  Hf  Hf5  1  0.49775597  0.00274968  0.14519796  1
  Hf  Hf6  1  0.33519599  0.33414217  0.68551356  1
  Hf  Hf7  1  0.33822621  0.34565180  0.18535974  1
  Hf  Hf8  1  0.83818927  0.34597243  0.18537110  1
  Hf  Hf9  1  0.16534174  0.65415294  0.31464571  1
  Hf  Hf10  1  0.66528899  0.65387878  0.31465624  1
  Hf  Hf11  1  0.16853142  0.67599970  0.81397531  1
  Ta  Ta0  1  0.50110199  0.99938214  0.85420786  1
  Ta  Ta1  1  0.50087521  0.99805051  0.64593844  1
  Ta  Ta2  1  0.83369053  0.33108343  0.68788465  1
  Ta  Ta3  1  0.33376254  0.33956689  0.97896436  1
  Ta  Ta4  1  0.83059497  0.33162978  0.97947850  1
  Ta  Ta5  1  0.33254218  0.33187010  0.48125983  1
  Ta  Ta6  1  0.83083309  0.32789662  0.48017467  1
  Ta  Ta7  1  0.16772425  0.66927662  0.01917291  1
  Ta  Ta8  1  0.66565825  0.66890980  0.01936024  1
  Ta  Ta9  1  0.16687496  0.66363842  0.52040260  1
  Ta  Ta10  1  0.66348552  0.66361746  0.52100681  1
  Ta  Ta11  1  0.66542920  0.67006860  0.81238522  1
  Si  Si0  1  0.35230773  0.70368393  0.25023184  1
  Si  Si1  1  0.85235176  0.70408529  0.25005295  1
  Si  Si2  1  0.00040601  0.29573187  0.24989289  1
  Si  Si3  1  0.50039179  0.29600160  0.24990013  1
  Si  Si4  1  0.64396927  0.28605567  0.74999190  1
  Si  Si5  1  0.00218854  0.70605114  0.74924663  1
  Si  Si6  1  0.49852129  0.71193504  0.75068622  1
  Si  Si7  1  0.35369555  0.99581508  0.74976331  1
  Si  Si8  1  0.85392095  0.00246880  0.75015651  1
  Si  Si9  1  0.48059297  0.33507700  0.58382908  1
  Si  Si10  1  0.97880818  0.33495643  0.58331619  1
  Si  Si11  1  0.18830037  0.04448341  0.58322601  1
  Si  Si12  1  0.68784564  0.04503091  0.58391562  1
  Si  Si13  1  0.33359838  0.62246807  0.58377898  1
  Si  Si14  1  0.83000778  0.61738143  0.58357160  1
  Si  Si15  1  0.48049533  0.62658823  0.08214440  1
  Si  Si16  1  0.98071789  0.62611762  0.08107859  1
  Si  Si17  1  0.32996209  0.04325738  0.08344142  1
  Si  Si18  1  0.82979323  0.04194433  0.08395173  1
  Si  Si19  1  0.18878260  0.33160896  0.08224297  1
  Si  Si20  1  0.68762140  0.33178705  0.08264199  1
  Si  Si21  1  0.31160577  0.66411155  0.91543574  1
  Si  Si22  1  0.80876922  0.66041552  0.91581740  1
  Si  Si23  1  0.02286361  0.37692128  0.91710825  1
  Si  Si24  1  0.52228074  0.37770278  0.91637330  1
  Si  Si25  1  0.16791033  0.96101072  0.91746093  1
  Si  Si26  1  0.66486285  0.95515926  0.91659384  1
  Si  Si27  1  0.30893930  0.95903018  0.41577387  1
  Si  Si28  1  0.80842532  0.95622372  0.41643935  1
  Si  Si29  1  0.16770384  0.37325409  0.41803862  1
  Si  Si30  1  0.66716392  0.37472770  0.41845458  1
  Si  Si31  1  0.02231220  0.66823403  0.41833101  1
  Si  Si32  1  0.52245190  0.66890530  0.41759540  1
  S  S0  1  0.14464056  0.99986949  0.25000602  1
  S  S1  1  0.64452493  0.00003389  0.24991490  1
  S  S2  1  0.14501742  0.29023130  0.75009462  1
  O  O0  1  0.10372908  0.02196717  0.30303636  1
  O  O1  1  0.60397288  0.02208628  0.30295734  1
  O  O2  1  0.41047273  0.79575746  0.30890726  1
  O  O3  1  0.91036134  0.79565485  0.30881940  1
  O  O4  1  0.48771449  0.17620992  0.30787060  1
  O  O5  1  0.98756245  0.17589383  0.30793954  1
  O  O6  1  0.10311069  0.18293493  0.80301441  1
  O  O7  1  0.59736721  0.16828706  0.80752876  1
  O  O8  1  0.48863713  0.81078423  0.80771199  1
  O  O9  1  0.98321771  0.79305559  0.80691553  1
  O  O10  1  0.41654411  0.02699613  0.80753790  1
  O  O11  1  0.91057035  0.03006322  0.80904940  1
  O  O12  1  0.40417227  0.97908625  0.69130959  1
  O  O13  1  0.89592431  0.96559678  0.69237221  1
  O  O14  1  0.09205162  0.20588593  0.69695216  1
  O  O15  1  0.58151189  0.19645624  0.69346040  1
  O  O16  1  0.01242061  0.82187644  0.69120737  1
  O  O17  1  0.51348438  0.83363334  0.69317154  1
  O  O18  1  0.39945457  0.82356778  0.19224104  1
  O  O19  1  0.89953110  0.82380375  0.19201642  1
  O  O20  1  0.01235721  0.20353484  0.19117277  1
  O  O21  1  0.51270923  0.20437365  0.19120704  1
  O  O22  1  0.09278822  0.97782218  0.19706738  1
  O  O23  1  0.59298407  0.97809704  0.19702755  1
  O  O24  1  0.43863472  0.36534661  0.64240647  1
  O  O25  1  0.93052737  0.36760927  0.63898711  1
  O  O26  1  0.25057545  0.12695406  0.63918963  1
  O  O27  1  0.75206029  0.13899274  0.63960773  1
  O  O28  1  0.31714985  0.50261865  0.63999936  1
  O  O29  1  0.81830919  0.50200564  0.64173334  1
  O  O30  1  0.43994937  0.50132622  0.13872115  1
  O  O31  1  0.93819138  0.49963098  0.13717250  1
  O  O32  1  0.31586267  0.12479949  0.14266480  1
  O  O33  1  0.81542206  0.12424387  0.14263756  1
  O  O34  1  0.25103841  0.37420804  0.13837101  1
  O  O35  1  0.75098017  0.37480848  0.13808126  1
  O  O36  1  0.23800403  0.30923185  0.02526719  1
  O  O37  1  0.73727494  0.30959110  0.02517230  1
  O  O38  1  0.41739896  0.52903498  0.02619354  1
  O  O39  1  0.91818797  0.53120438  0.02348371  1
  O  O40  1  0.34787045  0.16694957  0.02601842  1
  O  O41  1  0.84599848  0.16561081  0.02611121  1
  O  O42  1  0.23770447  0.16595561  0.52626338  1
  O  O43  1  0.73619932  0.16595569  0.52662451  1
  O  O44  1  0.34721146  0.53276676  0.52477825  1
  O  O45  1  0.84756103  0.52824201  0.52645146  1
  O  O46  1  0.41849231  0.30373132  0.52641904  1
  O  O47  1  0.91823247  0.30445007  0.52538054  1
  O  O48  1  0.26734576  0.69812953  0.97428309  1
  O  O49  1  0.76469757  0.69419754  0.97323231  1
  O  O50  1  0.08068403  0.46958006  0.97601325  1
  O  O51  1  0.58194129  0.47063987  0.97408157  1
  O  O52  1  0.15222187  0.83207981  0.97346318  1
  O  O53  1  0.65346350  0.83449457  0.97345520  1
  O  O54  1  0.26294558  0.83430487  0.47326699  1
  O  O55  1  0.76439245  0.83433823  0.47432053  1
  O  O56  1  0.15210486  0.47130179  0.47416950  1
  O  O57  1  0.65310186  0.47424339  0.47426369  1
  O  O58  1  0.08031568  0.68983467  0.47692217  1
  O  O59  1  0.58304065  0.69212057  0.47492443  1
  O  O60  1  0.06452807  0.62592049  0.36288462  1
  O  O61  1  0.56416448  0.62601865  0.36184809  1
  O  O62  1  0.25348062  0.87613894  0.35709232  1
  O  O63  1  0.75345344  0.87551398  0.35739383  1
  O  O64  1  0.18881470  0.49877870  0.36169362  1
  O  O65  1  0.68926713  0.49915333  0.36161187  1
  O  O66  1  0.06440856  0.50339331  0.86197692  1
  O  O67  1  0.56903739  0.49754628  0.85847216  1
  O  O68  1  0.18819666  0.87731604  0.86114217  1
  O  O69  1  0.68246622  0.86169487  0.86039361  1
  O  O70  1  0.25154629  0.63245784  0.85958121  1
  O  O71  1  0.75102421  0.63856881  0.85765732  1
  O  O72  1  0.00743449  0.83033383  0.41373098  1
  O  O73  1  0.50772629  0.83094430  0.41340765  1
  O  O74  1  0.40411387  0.97577587  0.41281160  1
  O  O75  1  0.90432835  0.97596465  0.41283187  1
  O  O76  1  0.08091551  0.19098004  0.41252398  1
  O  O77  1  0.58104925  0.19195730  0.41263165  1
  O  O78  1  0.00712006  0.18351784  0.91274530  1
  O  O79  1  0.50962235  0.18614905  0.90925494  1
  O  O80  1  0.08047808  0.96957467  0.91149900  1
  O  O81  1  0.58175408  0.97651879  0.90998280  1
  O  O82  1  0.40486702  0.84236969  0.90962342  1
  O  O83  1  0.90343453  0.83207556  0.91096016  1
  O  O84  1  0.48489394  0.15839302  0.58929866  1
  O  O85  1  0.98382504  0.16215285  0.58995772  1
  O  O86  1  0.09214734  0.01549442  0.58693002  1
  O  O87  1  0.59424198  0.02549302  0.59123640  1
  O  O88  1  0.41651945  0.81685587  0.59010725  1
  O  O89  1  0.91653021  0.80704932  0.58847063  1
  O  O90  1  0.48567286  0.80937540  0.08770397  1
  O  O91  1  0.98503645  0.80830998  0.08713369  1
  O  O92  1  0.41611695  0.02352178  0.08733620  1
  O  O93  1  0.91637344  0.02461434  0.08700439  1
  O  O94  1  0.09258162  0.16973585  0.08667971  1
  O  O95  1  0.59223744  0.16960578  0.08643935  1
  O  O96  1  0.35024914  0.17337390  0.74568477  1
  O  O97  1  0.84248368  0.16935140  0.74183591  1
  O  O98  1  0.22997755  0.30468006  0.74508266  1
  O  O99  1  0.74039832  0.31620091  0.74246085  1
  O  O100  1  0.41707924  0.52029769  0.74627287  1
  O  O101  1  0.91155355  0.52059080  0.74186393  1
  O  O102  1  0.34061377  0.51402437  0.24599969  1
  O  O103  1  0.84065789  0.51427232  0.24585354  1
  O  O104  1  0.40926919  0.29496246  0.24603085  1
  O  O105  1  0.90925872  0.29517226  0.24588434  1
  O  O106  1  0.23112169  0.15224041  0.24523698  1
  O  O107  1  0.73135979  0.15263065  0.24512331  1
  O  O108  1  0.32420057  0.49901765  0.92501538  1
  O  O109  1  0.82293426  0.49612276  0.92235166  1
  O  O110  1  0.42635014  0.35170623  0.92357424  1
  O  O111  1  0.92630650  0.35651612  0.92568913  1
  O  O112  1  0.25443288  0.14556185  0.92591907  1
  O  O113  1  0.75388849  0.13950633  0.92383212  1
  O  O114  1  0.32583786  0.15320047  0.42509738  1
  O  O115  1  0.82478207  0.15091131  0.42544648  1
  O  O116  1  0.25486359  0.36302559  0.42617815  1
  O  O117  1  0.75440331  0.36356056  0.42682084  1
  O  O118  1  0.42750711  0.49601690  0.42633193  1
  O  O119  1  0.92667318  0.49544127  0.42670637  1
  O  O120  1  0.17965290  0.50420003  0.07371582  1
  O  O121  1  0.67913021  0.50444200  0.07327840  1
  O  O122  1  0.07341555  0.63745504  0.07404799  1
  O  O123  1  0.57327281  0.63724841  0.07374403  1
  O  O124  1  0.24911689  0.84858665  0.07465628  1
  O  O125  1  0.74924219  0.84799555  0.07431986  1
  O  O126  1  0.17949329  0.85461983  0.57424756  1
  O  O127  1  0.68375024  0.86046813  0.57623432  1
  O  O128  1  0.25088505  0.65195465  0.57436320  1
  O  O129  1  0.74915273  0.64877639  0.57680831  1
  O  O130  1  0.07126697  0.50987324  0.57683786  1
  O  O131  1  0.57480076  0.50392188  0.57552638  1
  O  O132  1  0.15480369  0.84743313  0.25486407  1
  O  O133  1  0.65507466  0.84761268  0.25476180  1
  O  O134  1  0.26162090  0.70478023  0.25418878  1
  O  O135  1  0.76177361  0.70525334  0.25396174  1
  O  O136  1  0.08340357  0.48570873  0.25412830  1
  O  O137  1  0.58367670  0.48591352  0.25413154  1
  O  O138  1  0.15284182  0.45791058  0.75514045  1
  O  O139  1  0.65281495  0.47697674  0.75726321  1
  O  O140  1  0.08351926  0.67968900  0.75393407  1
  O  O141  1  0.58388224  0.68885446  0.75803050  1
  O  O142  1  0.26171730  0.82427112  0.75348147  1
  O  O143  1  0.76021921  0.82520181  0.75781205  1
loop_
_geom_bond_atom_site_label_1
_geom_bond_atom_site_label_2
_geom_bond_distance
_geom_bond_site_symmetry_2
Na0 O104 2.328504 1_555
Na0 O134 2.331746 1_545
Na0 O106 2.616592 1_555
Na0 O132 2.619384 1_545
Na0 O32 2.714240 1_555
Na0 O62 2.716204 1_545
Na0 O18 2.915009 1_545
Na0 O4 2.922239 1_555
Na1 O135 2.327314 1_545
Na1 O105 2.331190 1_555
Na1 O133 2.612564 1_545
Na1 O107 2.614642 1_555
Na1 O63 2.713678 1_545
Na1 O33 2.723461 1_555
Na1 O5 2.917890 1_555
Na1 O19 2.922672 1_545
Na2 O101 2.388751 1_555
Na2 O143 2.423036 1_555
Na2 O99 2.530750 1_555
Na2 O139 2.618545 1_555
Na2 O29 2.742921 1_555
Na2 O71 2.758363 1_555
Na2 O9 2.880844 1_555
Na2 O13 2.881768 1_555
Na3 O96 2.348330 1_555
Na3 O139 2.459815 1_555
Na3 O100 2.502247 1_555
Na3 O141 2.564387 1_555
Na3 O24 2.667449 1_555
Na3 O67 2.786187 1_555
Na3 O15 2.906287 1_555
Na3 O10 2.952290 1_555
Na4 O130 2.393065 1_555
Na4 O89 2.435228 1_455
Na4 O86 2.466641 1_565
Na4 O126 2.565081 1_555
Na4 O16 2.690119 1_555
Na4 O58 2.724108 1_555
Na4 O25 2.901301 1_455
Na4 O45 2.955810 1_455
Na5 O84 2.403612 1_565
Na5 O126 2.445542 1_555
Na5 O128 2.504440 1_555
Na5 O88 2.507265 1_555
Na5 O12 2.717658 1_555
Na5 O26 2.808538 1_565
Na5 O54 2.843253 1_555
Na5 O46 2.945629 1_565
Na6 O127 2.382264 1_555
Na6 O85 2.401117 1_565
Na6 O129 2.490057 1_555
Na6 O89 2.549770 1_555
Na6 O13 2.731567 1_555
Na6 O55 2.767644 1_555
Na6 O27 2.927621 1_565
Na6 O47 2.969602 1_565
Na7 O90 2.425804 1_555
Na7 O120 2.438314 1_555
Na7 O124 2.512493 1_555
Na7 O92 2.564451 1_565
Na7 O18 2.709450 1_555
Na7 O48 2.794819 1_554
Na7 O34 2.804645 1_555
Na7 O38 2.964091 1_555
Na8 O91 2.415662 1_555
Na8 O121 2.449062 1_555
Na8 O125 2.507414 1_555
Na8 O93 2.571126 1_565
Na8 O19 2.690878 1_555
Na8 O35 2.792226 1_555
Na8 O49 2.843573 1_554
Na8 O39 2.996879 1_555
Na9 O122 2.423448 1_555
Na9 O93 2.457106 1_455
Na9 O94 2.476216 1_555
Na9 O120 2.570708 1_555
Na9 O20 2.675466 1_555
Na9 O50 2.758383 1_554
Na9 O31 2.794925 1_455
Na9 O41 2.990147 1_455
Na10 O123 2.438645 1_555
Na10 O92 2.440705 1_555
Na10 O95 2.488024 1_555
Na10 O121 2.600730 1_555
Na10 O21 2.670986 1_555
Na10 O30 2.782856 1_555
Na10 O51 2.820746 1_554
Na10 O40 2.932982 1_555
Na11 O80 2.417374 1_655
Na11 O111 2.450879 1_555
Na11 O109 2.555468 1_555
Na11 O83 2.602232 1_555
Na11 O9 2.721280 1_555
Na11 O39 2.767394 1_556
Na11 O66 2.767617 1_655
Na11 O52 2.938988 1_655
Na12 O82 2.392245 1_545
Na12 O112 2.408353 1_555
Na12 O110 2.512312 1_555
Na12 O79 2.518817 1_555
Na12 O10 2.761221 1_555
Na12 O40 2.797326 1_556
Na12 O68 2.814192 1_545
Na12 O48 2.941317 1_545
Na13 O113 2.396488 1_555
Na13 O83 2.439929 1_545
Na13 O78 2.443978 1_655
Na13 O111 2.545051 1_555
Na13 O11 2.671245 1_555
Na13 O41 2.798659 1_556
Na13 O69 2.934638 1_545
Na13 O49 2.963298 1_545
Na14 O77 2.421249 1_555
Na14 O118 2.438924 1_555
Na14 O114 2.492910 1_555
Na14 O74 2.570600 1_545
Na14 O4 2.704086 1_555
Na14 O61 2.801350 1_555
Na14 O46 2.812209 1_555
Na14 O57 2.977531 1_555
Na15 O76 2.423930 1_655
Na15 O119 2.448506 1_555
Na15 O115 2.515685 1_555
Na15 O75 2.572605 1_545
Na15 O5 2.693649 1_555
Na15 O60 2.782507 1_655
Na15 O47 2.805869 1_555
Na15 O56 2.963609 1_655
Na16 O116 2.428463 1_555
Na16 O74 2.450761 1_555
Na16 O73 2.474673 1_555
Na16 O118 2.578690 1_555
Na16 O2 2.666529 1_555
Na16 O44 2.777537 1_555
Na16 O64 2.801007 1_555
Na16 O54 2.978855 1_555
Na17 O117 2.427637 1_555
Na17 O75 2.448606 1_555
Na17 O72 2.478044 1_655
Na17 O119 2.581075 1_555
Na17 O3 2.666885 1_555
Na17 O65 2.787099 1_555
Na17 O45 2.836066 1_555
Na17 O55 2.962188 1_555
Na18 O76 2.482115 1_555
Na18 O86 2.487206 1_555
Na18 O72 2.522644 1_545
Na18 O75 2.642578 1_445
Na18 O85 2.652080 1_455
Na18 O89 2.688950 1_445
Na19 O73 2.507206 1_545
Na19 O87 2.529778 1_555
Na19 O77 2.540071 1_555
Na19 O84 2.628757 1_555
Na19 O88 2.635766 1_545
Na19 O74 2.679292 1_545
Na20 O94 2.453134 1_555
Na20 O80 2.517696 1_544
Na20 O78 2.562335 1_554
Na20 O91 2.571098 1_445
Na20 O93 2.643119 1_455
Na20 O83 2.716578 1_444
Na21 O95 2.510378 1_566
Na21 O81 2.511670 1_555
Na21 O90 2.536820 1_556
Na21 O82 2.649147 1_555
Na21 O79 2.660258 1_565
Na21 O92 2.667242 1_566
Na22 O100 2.536468 1_555
Na22 O108 2.572903 1_555
Na22 O98 2.629346 1_555
Na22 O96 2.629660 1_555
Na22 O110 2.653188 1_555
Na22 O112 2.662214 1_555
Na23 O97 2.551190 1_555
Na23 O99 2.587243 1_555
Na23 O101 2.607500 1_555
Na23 O113 2.628077 1_555
Na23 O109 2.629206 1_555
Na23 O111 2.676544 1_555
Na24 O102 2.446616 1_555
Na24 O104 2.508196 1_555
Na24 O106 2.651932 1_555
Na24 O116 2.670052 1_555
Na24 O118 2.680647 1_555
Na24 O114 2.706612 1_555
Na25 O103 2.443046 1_555
Na25 O105 2.505921 1_555
Na25 O107 2.644484 1_555
Na25 O119 2.688335 1_555
Na25 O117 2.692905 1_555
Na25 O115 2.727929 1_555
Na26 O136 2.457065 1_555
Na26 O134 2.517497 1_555
Na26 O132 2.653550 1_555
Na26 O122 2.662835 1_555
Na26 O120 2.676040 1_555
Na26 O124 2.707170 1_555
Na27 O137 2.435102 1_555
Na27 O135 2.505036 1_555
Na27 O133 2.637764 1_555
Na27 O123 2.680716 1_555
Na27 O121 2.694833 1_555
Na27 O125 2.732048 1_555
Na28 O142 2.454137 1_555
Na28 O140 2.467059 1_555
Na28 O138 2.612213 1_555
Na28 O130 2.684718 1_555
Na28 O128 2.705529 1_555
Na28 O126 2.728325 1_555
Na29 O131 2.547022 1_555
Na29 O127 2.570003 1_555
Na29 O129 2.600029 1_555
Na29 O141 2.617392 1_555
Na29 O143 2.674573 1_555
Na29 O139 2.674808 1_555
Hf0 O3 2.001921 1_555
Hf0 O5 2.019115 1_565
Hf0 O75 2.064802 1_555
Hf0 O72 2.098345 1_655
Hf0 O76 2.114433 1_665
Hf0 O0 2.177520 1_665
Hf1 O2 2.002583 1_555
Hf1 O4 2.016546 1_565
Hf1 O74 2.064931 1_555
Hf1 O73 2.095821 1_555
Hf1 O77 2.118253 1_565
Hf1 O1 2.183951 1_565
Hf2 O11 2.031798 1_565
Hf2 O9 2.042985 1_555
Hf2 O83 2.063901 1_555
Hf2 O78 2.085757 1_665
Hf2 O80 2.088414 1_655
Hf2 O6 2.150417 1_665
Hf3 O16 1.995553 1_655
Hf3 O13 2.047469 1_555
Hf3 O89 2.063975 1_555
Hf3 O86 2.082015 1_665
Hf3 O85 2.095158 1_565
Hf3 O14 2.158152 1_665
Hf4 O20 2.001887 1_655
Hf4 O19 2.019344 1_545
Hf4 O93 2.072786 1_555
Hf4 O94 2.092591 1_655
Hf4 O91 2.116496 1_545
Hf4 O22 2.180133 1_645
Hf5 O21 2.002633 1_555
Hf5 O18 2.014862 1_545
Hf5 O92 2.058379 1_555
Hf5 O95 2.101232 1_555
Hf5 O90 2.108517 1_545
Hf5 O23 2.191145 1_545
Hf6 O28 2.002767 1_555
Hf6 O24 2.003713 1_555
Hf6 O26 2.026706 1_555
Hf6 O100 2.111380 1_555
Hf6 O96 2.115231 1_555
Hf6 O98 2.241722 1_555
Hf7 O30 1.977147 1_555
Hf7 O34 2.027905 1_555
Hf7 O102 2.041536 1_555
Hf7 O32 2.073559 1_555
Hf7 O104 2.089983 1_555
Hf7 O106 2.300156 1_555
Hf8 O31 1.974353 1_555
Hf8 O35 2.033174 1_555
Hf8 O103 2.038110 1_555
Hf8 O33 2.078765 1_555
Hf8 O105 2.088480 1_555
Hf8 O107 2.295959 1_555
Hf9 O64 1.977376 1_555
Hf9 O60 2.032380 1_555
Hf9 O136 2.041288 1_555
Hf9 O62 2.077379 1_555
Hf9 O134 2.083374 1_555
Hf9 O132 2.300809 1_555
Hf10 O65 1.976654 1_555
Hf10 O61 2.025409 1_555
Hf10 O137 2.037656 1_555
Hf10 O63 2.078757 1_555
Hf10 O135 2.088322 1_555
Hf10 O133 2.302923 1_555
Hf11 O68 1.988801 1_555
Hf11 O70 2.021441 1_555
Hf11 O66 2.060070 1_555
Hf11 O142 2.069165 1_555
Hf11 O140 2.072136 1_555
Hf11 O138 2.283764 1_555
O0 S0 1.481368 1_545
O1 S1 1.477764 1_555
O2 Si0 1.647590 1_555
O3 Si1 1.647343 1_555
O4 Si3 1.651609 1_555
O5 Si2 1.652676 1_655
O6 S2 1.495735 1_555
O7 Si4 1.633702 1_555
O7 Ta0 1.959744 1_545
O8 Si6 1.637124 1_555
O8 Ta0 1.924461 1_555
O9 Si5 1.653427 1_655
O10 Si7 1.669524 1_545
O10 Ta0 1.979715 1_545
O11 Si8 1.630989 1_555
O12 Si7 1.663477 1_555
O12 Ta1 1.963549 1_555
O13 Si8 1.635305 1_565
O14 S2 1.495847 1_555
O15 Si4 1.636953 1_555
O15 Ta1 1.977236 1_545
O16 Si5 1.640618 1_555
O17 Si6 1.646002 1_555
O17 Ta1 1.941653 1_555
O18 Si0 1.651466 1_555
O19 Si1 1.651812 1_555
O20 Si2 1.647114 1_555
O21 Si3 1.646220 1_555
O22 S0 1.479808 1_555
O23 S1 1.475845 1_565
O24 Si9 1.624505 1_555
O25 Si10 1.647889 1_555
O25 Ta2 1.959015 1_555
O26 Si11 1.616745 1_555
O27 Si12 1.642418 1_555
O27 Ta2 1.962092 1_555
O28 Si13 1.608341 1_555
O29 Si14 1.635238 1_555
O29 Ta2 2.003239 1_555
O30 Si15 1.629765 1_555
O31 Si16 1.630272 1_555
O32 Si17 1.618093 1_555
O33 Si18 1.613510 1_555
O34 Si19 1.618973 1_555
O35 Si20 1.617839 1_555
O36 Si19 1.642501 1_555
O36 Ta3 1.926437 1_554
O37 Si20 1.655464 1_555
O37 Ta4 1.906419 1_554
O38 Si15 1.643884 1_555
O38 Ta3 1.948637 1_554
O39 Si16 1.664477 1_555
O39 Ta4 1.980113 1_554
O40 Si17 1.646520 1_555
O40 Ta3 2.015056 1_554
O41 Si18 1.658654 1_555
O41 Ta4 1.972084 1_554
O42 Si11 1.646657 1_555
O42 Ta5 1.917128 1_555
O43 Si12 1.646739 1_555
O43 Ta6 1.921361 1_555
O44 Si13 1.651151 1_555
O44 Ta5 1.969570 1_555
O45 Si14 1.643468 1_555
O45 Ta6 1.986102 1_555
O46 Si9 1.654648 1_555
O46 Ta5 1.985176 1_555
O47 Si10 1.649240 1_555
O47 Ta6 1.986200 1_555
O48 Si21 1.666907 1_555
O48 Ta7 1.972041 1_556
O49 Si22 1.637878 1_555
O49 Ta8 1.988531 1_556
O50 Si23 1.650452 1_555
O50 Ta7 1.967555 1_556
O51 Si24 1.641922 1_555
O51 Ta8 1.965829 1_556
O52 Si25 1.656232 1_555
O52 Ta7 1.937410 1_556
O53 Si26 1.640818 1_555
O53 Ta8 1.930052 1_556
O54 Si27 1.657037 1_555
O54 Ta9 1.969097 1_555
O55 Si28 1.647538 1_555
O55 Ta10 2.008109 1_555
O56 Si29 1.659080 1_555
O56 Ta9 1.935988 1_555
O57 Si30 1.649687 1_555
O57 Ta10 1.945989 1_555
O58 Si31 1.649029 1_555
O58 Ta9 1.965836 1_555
O59 Si32 1.650589 1_555
O59 Ta10 1.914658 1_555
O60 Si31 1.617658 1_555
O61 Si32 1.620124 1_555
O62 Si27 1.614550 1_555
O63 Si28 1.615064 1_555
O64 Si29 1.629216 1_555
O65 Si30 1.630535 1_555
O66 Si23 1.611004 1_555
O67 Si24 1.648376 1_555
O67 Ta11 1.964891 1_555
O68 Si25 1.622423 1_555
O69 Si26 1.650862 1_555
O69 Ta11 1.940818 1_555
O70 Si21 1.604258 1_555
O71 Si22 1.637925 1_555
O71 Ta11 1.997058 1_555
O72 Si31 1.622802 1_555
O73 Si32 1.619971 1_555
O74 Si27 1.652448 1_555
O75 Si28 1.654758 1_555
O76 Si29 1.617140 1_555
O77 Si30 1.614561 1_555
O78 Si23 1.630884 1_555
O79 Si24 1.640285 1_555
O79 Ta0 2.048150 1_545
O80 Si25 1.627581 1_555
O81 Si26 1.616009 1_555
O81 Ta0 2.023100 1_555
O82 Si21 1.657567 1_555
O82 Ta0 2.042534 1_555
O83 Si22 1.643328 1_555
O84 Si9 1.645124 1_555
O84 Ta1 2.069130 1_545
O85 Si10 1.619369 1_555
O86 Si11 1.626301 1_555
O87 Si12 1.620606 1_555
O87 Ta1 2.011390 1_545
O88 Si13 1.652417 1_555
O88 Ta1 2.034175 1_555
O89 Si14 1.650889 1_555
O90 Si15 1.615427 1_555
O91 Si16 1.618092 1_555
O92 Si17 1.657551 1_555
O93 Si18 1.651780 1_555
O94 Si19 1.624100 1_555
O95 Si20 1.615176 1_555
O96 Si7 1.642703 1_545
O97 Si8 1.635764 1_555
O97 Ta2 1.979430 1_555
O98 S2 1.480184 1_555
O99 Si4 1.634131 1_555
O99 Ta2 2.045090 1_555
O100 Si6 1.623859 1_555
O101 Si5 1.668839 1_655
O101 Ta2 2.006622 1_555
O102 Si0 1.625002 1_555
O103 Si1 1.626337 1_555
O104 Si3 1.646143 1_555
O105 Si2 1.648917 1_655
O106 S0 1.485105 1_545
O107 S1 1.489739 1_555
O108 Si21 1.635804 1_555
O108 Ta3 1.969601 1_555
O109 Si22 1.637952 1_555
O109 Ta4 2.035381 1_555
O110 Si24 1.638603 1_555
O110 Ta3 2.055036 1_555
O111 Si23 1.673363 1_655
O111 Ta4 2.039071 1_555
O112 Si25 1.632674 1_545
O112 Ta3 2.021774 1_555
O113 Si26 1.649436 1_545
O113 Ta4 2.036608 1_555
O114 Si27 1.640985 1_545
O114 Ta5 2.017934 1_555
O115 Si28 1.648111 1_545
O115 Ta6 1.989585 1_555
O116 Si29 1.635692 1_555
O116 Ta5 2.007485 1_555
O117 Si30 1.642311 1_555
O117 Ta6 1.986042 1_555
O118 Si32 1.659200 1_555
O118 Ta5 2.043120 1_555
O119 Si31 1.664983 1_655
O119 Ta6 2.040206 1_555
O120 Si19 1.663255 1_555
O120 Ta7 2.037687 1_555
O121 Si20 1.659641 1_555
O121 Ta8 2.038071 1_555
O122 Si16 1.635718 1_455
O122 Ta7 2.015649 1_555
O123 Si15 1.643235 1_555
O123 Ta8 1.982215 1_555
O124 Si17 1.646167 1_565
O124 Ta7 2.003561 1_555
O125 Si18 1.642657 1_565
O125 Ta8 2.008668 1_555
O126 Si11 1.658097 1_565
O126 Ta9 2.037637 1_555
O127 Si12 1.644834 1_565
O127 Ta10 2.059324 1_555
O128 Si13 1.660169 1_555
O128 Ta9 1.999353 1_555
O129 Si14 1.630960 1_555
O129 Ta10 2.061297 1_555
O130 Si10 1.637139 1_455
O130 Ta9 2.043517 1_555
O131 Si9 1.635055 1_555
O131 Ta10 1.972083 1_555
O132 S0 1.485134 1_555
O133 S1 1.489105 1_565
O134 Si0 1.647869 1_555
O135 Si1 1.646175 1_555
O136 Si2 1.625306 1_555
O137 Si3 1.627010 1_555
O138 S2 1.457398 1_555
O139 Si4 1.662972 1_555
O139 Ta11 2.070351 1_555
O140 Si5 1.607596 1_555
O141 Si6 1.667103 1_555
O141 Ta11 1.998511 1_555
O142 Si7 1.614117 1_555
O143 Si8 1.661562 1_565
O143 Ta11 2.012897 1_555
