# generated using pymatgen
data_Cs4Mn(SbCl6)2
_symmetry_space_group_name_H-M   'P 1'
_cell_length_a   13.31004244
_cell_length_b   7.67737600
_cell_length_c   13.18899932
_cell_angle_alpha   90.00000000
_cell_angle_beta   109.44069646
_cell_angle_gamma   90.00000000
_symmetry_Int_Tables_number   1
_chemical_formula_structural   Cs4Mn(SbCl6)2
_chemical_formula_sum   'Cs8 Mn2 Sb4 Cl24'
_cell_volume   1270.89469713
_cell_formula_units_Z   2
loop_
 _symmetry_equiv_pos_site_id
 _symmetry_equiv_pos_as_xyz
  1  'x, y, z'
loop_
 _atom_site_type_symbol
 _atom_site_label
 _atom_site_symmetry_multiplicity
 _atom_site_fract_x
 _atom_site_fract_y
 _atom_site_fract_z
 _atom_site_occupancy
  Cs  Cs0  1  0.62270000  0.00000000  0.86918000  1
  Cs  Cs1  1  0.37730000  0.00000000  0.13082000  1
  Cs  Cs2  1  0.12270000  0.50000000  0.86918000  1
  Cs  Cs3  1  0.87730000  0.50000000  0.13082000  1
  Cs  Cs4  1  0.37301200  0.50000000  0.61938600  1
  Cs  Cs5  1  0.62698800  0.50000000  0.38061400  1
  Cs  Cs6  1  0.87301200  0.00000000  0.61938600  1
  Cs  Cs7  1  0.12698800  0.00000000  0.38061400  1
  Mn  Mn0  1  0.50000000  0.00000000  0.50000000  1
  Mn  Mn1  1  0.00000000  0.50000000  0.50000000  1
  Sb  Sb0  1  0.25049400  0.00000000  0.75279200  1
  Sb  Sb1  1  0.74950600  0.00000000  0.24720800  1
  Sb  Sb2  1  0.75049400  0.50000000  0.75279200  1
  Sb  Sb3  1  0.24950600  0.50000000  0.24720800  1
  Cl  Cl0  1  0.61757800  0.23317300  0.61759400  1
  Cl  Cl1  1  0.38242200  0.23317300  0.38240600  1
  Cl  Cl2  1  0.11757800  0.73317300  0.61759400  1
  Cl  Cl3  1  0.88242200  0.73317300  0.38240600  1
  Cl  Cl4  1  0.38242200  0.76682700  0.38240600  1
  Cl  Cl5  1  0.61757800  0.76682700  0.61759400  1
  Cl  Cl6  1  0.88242200  0.26682700  0.38240600  1
  Cl  Cl7  1  0.11757800  0.26682700  0.61759400  1
  Cl  Cl8  1  0.38486100  0.00000000  0.61893600  1
  Cl  Cl9  1  0.61513900  0.00000000  0.38106400  1
  Cl  Cl10  1  0.88486100  0.50000000  0.61893600  1
  Cl  Cl11  1  0.11513900  0.50000000  0.38106400  1
  Cl  Cl12  1  0.36575500  0.23333200  0.86759700  1
  Cl  Cl13  1  0.63424500  0.23333200  0.13240300  1
  Cl  Cl14  1  0.86575500  0.73333200  0.86759700  1
  Cl  Cl15  1  0.13424500  0.73333200  0.13240300  1
  Cl  Cl16  1  0.63424500  0.76666800  0.13240300  1
  Cl  Cl17  1  0.36575500  0.76666800  0.86759700  1
  Cl  Cl18  1  0.13424500  0.26666800  0.13240300  1
  Cl  Cl19  1  0.86575500  0.26666800  0.86759700  1
  Cl  Cl20  1  0.13289100  0.00000000  0.86704800  1
  Cl  Cl21  1  0.86710900  0.00000000  0.13295200  1
  Cl  Cl22  1  0.63289100  0.50000000  0.86704800  1
  Cl  Cl23  1  0.36710900  0.50000000  0.13295200  1
loop_
_geom_bond_atom_site_label_1
_geom_bond_atom_site_label_2
_geom_bond_distance
_geom_bond_site_symmetry_2
Cl0 Mn0 2.538413 1_555
Cl0 Sb2 2.899297 1_555
Cl0 Cs0 3.750862 1_555
Cl0 Cs5 3.773815 1_555
Cl0 Cs6 3.835443 1_555
Cl0 Cs4 3.852853 1_555
Cl1 Mn0 2.538413 1_555
Cl1 Sb3 2.899297 1_555
Cl1 Cs1 3.750862 1_555
Cl1 Cs4 3.773815 1_555
Cl1 Cs7 3.835443 1_555
Cl1 Cs5 3.852853 1_555
Cl2 Mn1 2.538413 1_555
Cl2 Sb0 2.899297 1_565
Cl2 Cs2 3.750862 1_555
Cl2 Cs7 3.773815 1_565
Cl2 Cs4 3.835443 1_555
Cl2 Cs6 3.852853 1_465
Cl3 Mn1 2.538413 1_655
Cl3 Sb1 2.899297 1_565
Cl3 Cs3 3.750862 1_555
Cl3 Cs6 3.773815 1_565
Cl3 Cs5 3.835443 1_555
Cl3 Cs7 3.852853 1_665
Cl4 Mn0 2.538413 1_565
Cl4 Sb3 2.899297 1_555
Cl4 Cs1 3.750862 1_565
Cl4 Cs4 3.773815 1_555
Cl4 Cs7 3.835443 1_565
Cl4 Cs5 3.852853 1_555
Cl5 Mn0 2.538413 1_565
Cl5 Sb2 2.899297 1_555
Cl5 Cs0 3.750862 1_565
Cl5 Cs5 3.773815 1_555
Cl5 Cs6 3.835443 1_565
Cl5 Cs4 3.852853 1_555
Cl6 Mn1 2.538413 1_655
Cl6 Sb1 2.899297 1_555
Cl6 Cs3 3.750862 1_555
Cl6 Cs6 3.773815 1_555
Cl6 Cs5 3.835443 1_555
Cl6 Cs7 3.852853 1_655
Cl7 Mn1 2.538413 1_555
Cl7 Sb0 2.899297 1_555
Cl7 Cs2 3.750862 1_555
Cl7 Cs7 3.773815 1_555
Cl7 Cs4 3.835443 1_555
Cl7 Cs6 3.852853 1_455
Cl8 Mn0 2.531689 1_555
Cl8 Sb0 2.901196 1_555
Cl8 Cs0 3.736241 1_555
Cl8 Cs7 3.805138 1_555
Cl8 Cs4 3.842012 1_545
Cl8 Cs4 3.842012 1_555
Cl9 Mn0 2.531689 1_555
Cl9 Sb1 2.901196 1_555
Cl9 Cs1 3.736241 1_555
Cl9 Cs6 3.805138 1_555
Cl9 Cs5 3.842012 1_555
Cl9 Cs5 3.842012 1_545
Cl10 Mn1 2.531689 1_655
Cl10 Sb2 2.901196 1_555
Cl10 Cs2 3.736241 1_655
Cl10 Cs5 3.805138 1_555
Cl10 Cs6 3.842012 1_555
Cl10 Cs6 3.842012 1_565
Cl11 Mn1 2.531689 1_555
Cl11 Sb3 2.901196 1_555
Cl11 Cs3 3.736241 1_455
Cl11 Cs4 3.805138 1_555
Cl11 Cs7 3.842012 1_555
Cl11 Cs7 3.842012 1_565
Cl12 Sb0 2.511771 1_555
Cl12 Cs2 3.834393 1_555
Cl12 Cs0 3.854606 1_555
Cl12 Cs1 3.863920 1_556
Cl12 Cs4 3.889487 1_555
Cl13 Sb1 2.511771 1_555
Cl13 Cs3 3.834393 1_555
Cl13 Cs1 3.854606 1_555
Cl13 Cs0 3.863920 1_554
Cl13 Cs5 3.889487 1_555
Cl14 Sb2 2.511771 1_555
Cl14 Cs0 3.834393 1_565
Cl14 Cs2 3.854606 1_655
Cl14 Cs3 3.863920 1_556
Cl14 Cs6 3.889487 1_565
Cl15 Sb3 2.511771 1_555
Cl15 Cs1 3.834393 1_565
Cl15 Cs3 3.854606 1_455
Cl15 Cs2 3.863920 1_554
Cl15 Cs7 3.889487 1_565
Cl16 Sb1 2.511771 1_565
Cl16 Cs3 3.834393 1_555
Cl16 Cs1 3.854606 1_565
Cl16 Cs0 3.863920 1_564
Cl16 Cs5 3.889487 1_555
Cl17 Sb0 2.511771 1_565
Cl17 Cs2 3.834393 1_555
Cl17 Cs0 3.854606 1_565
Cl17 Cs1 3.863920 1_566
Cl17 Cs4 3.889487 1_555
Cl18 Sb3 2.511771 1_555
Cl18 Cs1 3.834393 1_555
Cl18 Cs3 3.854606 1_455
Cl18 Cs2 3.863920 1_554
Cl18 Cs7 3.889487 1_555
Cl19 Sb2 2.511771 1_555
Cl19 Cs0 3.834393 1_555
Cl19 Cs2 3.854606 1_655
Cl19 Cs3 3.863920 1_556
Cl19 Cs6 3.889487 1_555
Cl20 Sb0 2.508214 1_555
Cl20 Cs2 3.841517 1_545
Cl20 Cs2 3.841517 1_555
Cl20 Cs6 3.887563 1_455
Cl20 Cs1 3.892543 1_556
Cl21 Sb1 2.508214 1_555
Cl21 Cs3 3.841517 1_545
Cl21 Cs3 3.841517 1_555
Cl21 Cs7 3.887563 1_655
Cl21 Cs0 3.892543 1_554
Cl22 Sb2 2.508214 1_555
Cl22 Cs0 3.841517 1_555
Cl22 Cs0 3.841517 1_565
Cl22 Cs4 3.887563 1_555
Cl22 Cs3 3.892543 1_556
Cl23 Sb3 2.508214 1_555
Cl23 Cs1 3.841517 1_565
Cl23 Cs1 3.841517 1_555
Cl23 Cs5 3.887563 1_555
Cl23 Cs2 3.892543 1_554
