# generated using pymatgen
data_Na15Ta4Zn8P15(SO24)3
_symmetry_space_group_name_H-M   'P 1'
_cell_length_a   8.96018907
_cell_length_b   8.96237523
_cell_length_c   22.08618079
_cell_angle_alpha   90.22601719
_cell_angle_beta   89.95263177
_cell_angle_gamma   120.02407184
_symmetry_Int_Tables_number   1
_chemical_formula_structural   Na15Ta4Zn8P15(SO24)3
_chemical_formula_sum   'Na15 Ta4 Zn8 P15 S3 O72'
_cell_volume   1535.61517633
_cell_formula_units_Z   1
loop_
 _symmetry_equiv_pos_site_id
 _symmetry_equiv_pos_as_xyz
  1  'x, y, z'
loop_
 _atom_site_type_symbol
 _atom_site_label
 _atom_site_symmetry_multiplicity
 _atom_site_fract_x
 _atom_site_fract_y
 _atom_site_fract_z
 _atom_site_occupancy
  Na  Na0  1  0.99020980  0.64290671  0.24285600  1
  Na  Na1  1  0.65376336  0.63952460  0.74613789  1
  Na  Na2  1  0.35975585  0.01635472  0.74573210  1
  Na  Na3  1  0.29619358  0.33323859  0.58551811  1
  Na  Na4  1  0.04311859  0.71691558  0.58261054  1
  Na  Na5  1  0.66226467  0.95305354  0.58526593  1
  Na  Na6  1  0.29328974  0.95347932  0.08567647  1
  Na  Na7  1  0.67267946  0.71428771  0.07955439  1
  Na  Na8  1  0.03753385  0.33472297  0.08580826  1
  Na  Na9  1  0.99883067  0.99349792  0.48931261  1
  Na  Na10  1  0.99560497  0.99440028  0.98863259  1
  Na  Na11  1  0.68400925  0.33462631  0.82481784  1
  Na  Na12  1  0.65174173  0.30661731  0.32446316  1
  Na  Na13  1  0.34257750  0.67514464  0.16301509  1
  Na  Na14  1  0.32719220  0.66109581  0.66196703  1
  Ta  Ta0  1  0.67420255  0.33394709  0.97525776  1
  Ta  Ta1  1  0.66097134  0.33469815  0.47501096  1
  Ta  Ta2  1  0.33132656  0.66774445  0.31750085  1
  Ta  Ta3  1  0.33185956  0.66425621  0.81780391  1
  Zn  Zn0  1  0.01060948  0.01517448  0.35106091  1
  Zn  Zn1  1  0.99827681  0.00077802  0.84973529  1
  Zn  Zn2  1  0.00015481  0.99564876  0.66153272  1
  Zn  Zn3  1  0.00499237  0.00718211  0.15918347  1
  Zn  Zn4  1  0.66482219  0.33164293  0.68459478  1
  Zn  Zn5  1  0.67028989  0.31368018  0.18599278  1
  Zn  Zn6  1  0.33263903  0.67467103  0.00876752  1
  Zn  Zn7  1  0.34284117  0.67789538  0.50850608  1
  P  P0  1  0.29568095  0.00117099  0.25037006  1
  P  P1  1  0.00150104  0.29679832  0.25026642  1
  P  P2  1  0.29208699  0.29615492  0.74931200  1
  P  P3  1  0.00102081  0.70146377  0.74972564  1
  P  P4  1  0.70402731  0.00022037  0.75070057  1
  P  P5  1  0.37442097  0.03941419  0.58382325  1
  P  P6  1  0.66614871  0.62698960  0.58490565  1
  P  P7  1  0.95809591  0.62626413  0.08629434  1
  P  P8  1  0.66397984  0.03647099  0.08219472  1
  P  P9  1  0.63149037  0.66817304  0.92072024  1
  P  P10  1  0.04285693  0.36843136  0.92173465  1
  P  P11  1  0.32947427  0.96531683  0.91970819  1
  P  P12  1  0.63632708  0.96430504  0.41994315  1
  P  P13  1  0.32837385  0.37245628  0.42139807  1
  P  P14  1  0.03666899  0.66951426  0.42023268  1
  S  S0  1  0.69811563  0.70354495  0.25021644  1
  S  S1  1  0.95500417  0.33335489  0.58212682  1
  S  S2  1  0.38111079  0.33377400  0.08347244  1
  O  O0  1  0.19851529  0.01022891  0.30436195  1
  O  O1  1  0.81033319  0.79210670  0.30118637  1
  O  O2  1  0.97675298  0.18204780  0.30275887  1
  O  O3  1  0.20268270  0.17386731  0.80075496  1
  O  O4  1  0.96931139  0.79174884  0.80173300  1
  O  O5  1  0.81343851  0.01984041  0.80460467  1
  O  O6  1  0.76652269  0.95659383  0.69063536  1
  O  O7  1  0.19568862  0.23246636  0.68796145  1
  O  O8  1  0.05090058  0.80959795  0.69011578  1
  O  O9  1  0.76253686  0.79917900  0.19183901  1
  O  O10  1  0.03143242  0.23277183  0.18840888  1
  O  O11  1  0.18654729  0.95268425  0.19065809  1
  O  O12  1  0.87442549  0.35467580  0.63662943  1
  O  O13  1  0.47843335  0.11816357  0.64177443  1
  O  O14  1  0.64637529  0.52473303  0.64251191  1
  O  O15  1  0.87278869  0.52417991  0.14376514  1
  O  O16  1  0.62762883  0.11438187  0.13741430  1
  O  O17  1  0.48492544  0.35653769  0.13737221  1
  O  O18  1  0.47329067  0.31975192  0.02763539  1
  O  O19  1  0.83787527  0.51779119  0.03002840  1
  O  O20  1  0.67833393  0.15571737  0.02564281  1
  O  O21  1  0.48596026  0.15900682  0.52843547  1
  O  O22  1  0.67947850  0.51853356  0.52901888  1
  O  O23  1  0.84903857  0.32157001  0.52691505  1
  O  O24  1  0.54752211  0.68071128  0.97919437  1
  O  O25  1  0.13521235  0.44905790  0.98116319  1
  O  O26  1  0.31246658  0.87090179  0.97897811  1
  O  O27  1  0.56273480  0.87391114  0.48015796  1
  O  O28  1  0.31598530  0.45300279  0.48064170  1
  O  O29  1  0.13521050  0.68616761  0.47847314  1
  O  O30  1  0.13532112  0.64360888  0.36459381  1
  O  O31  1  0.50463707  0.85969908  0.36712491  1
  O  O32  1  0.35326469  0.49694810  0.36730623  1
  O  O33  1  0.14428737  0.49556843  0.86805675  1
  O  O34  1  0.35639211  0.86475967  0.86507695  1
  O  O35  1  0.50826165  0.64380180  0.86520836  1
  O  O36  1  0.00388548  0.81570539  0.40975925  1
  O  O37  1  0.81325682  0.99153492  0.40898826  1
  O  O38  1  0.18191592  0.19220055  0.41301190  1
  O  O39  1  0.01044904  0.18992302  0.91176925  1
  O  O40  1  0.18080847  0.99441843  0.90977637  1
  O  O41  1  0.80974532  0.81708872  0.91175507  1
  O  O42  1  0.96403203  0.17286896  0.58189509  1
  O  O43  1  0.20125491  0.03611944  0.58113822  1
  O  O44  1  0.83301675  0.80345775  0.58271305  1
  O  O45  1  0.96860835  0.80332222  0.08376776  1
  O  O46  1  0.83496271  0.03433650  0.08256205  1
  O  O47  1  0.21071467  0.17272534  0.08338876  1
  O  O48  1  0.66144729  0.14567038  0.74592429  1
  O  O49  1  0.48048354  0.33245886  0.74664301  1
  O  O50  1  0.84661423  0.51913753  0.74323471  1
  O  O51  1  0.67237175  0.52770027  0.24573040  1
  O  O52  1  0.85696667  0.34377390  0.24819955  1
  O  O53  1  0.47687234  0.15560624  0.24514703  1
  O  O54  1  0.63769150  0.49339522  0.92243280  1
  O  O55  1  0.86192589  0.36527565  0.92169971  1
  O  O56  1  0.50508213  0.14541939  0.92143492  1
  O  O57  1  0.64056751  0.14453470  0.42126464  1
  O  O58  1  0.50428601  0.36536230  0.42195665  1
  O  O59  1  0.85743536  0.49342532  0.42247395  1
  O  O60  1  0.35729551  0.48545285  0.07844395  1
  O  O61  1  0.13774132  0.64284896  0.08061642  1
  O  O62  1  0.50712870  0.85308203  0.07569466  1
  O  O63  1  0.35101293  0.85705344  0.57777789  1
  O  O64  1  0.50314661  0.64311767  0.57907507  1
  O  O65  1  0.12987447  0.48648535  0.57775422  1
  O  O66  1  0.31477580  0.83061761  0.26033072  1
  O  O67  1  0.52038547  0.68523140  0.25903030  1
  O  O68  1  0.17240212  0.48519997  0.26032951  1
  O  O69  1  0.31486485  0.48349121  0.76048274  1
  O  O70  1  0.16900100  0.68644661  0.76218048  1
  O  O71  1  0.51533045  0.82759275  0.76001765  1
loop_
_geom_bond_atom_site_label_1
_geom_bond_atom_site_label_2
_geom_bond_distance
_geom_bond_site_symmetry_2
Na0 O52 2.329363 1_555
Na0 O15 2.427755 1_555
Na0 O51 2.497634 1_555
Na0 O66 2.556820 1_655
Na0 O68 2.669477 1_655
Na0 O11 2.695580 1_655
Na0 O1 2.860973 1_555
Na0 O30 2.986187 1_655
Na1 O49 2.389289 1_555
Na1 O50 2.453407 1_555
Na1 O14 2.492890 1_555
Na1 O71 2.561464 1_555
Na1 O69 2.651272 1_555
Na1 O4 2.737768 1_555
Na1 O6 2.784054 1_555
Na1 O35 2.942894 1_555
Na2 O48 2.348477 1_555
Na2 O49 2.475771 1_555
Na2 O13 2.505311 1_555
Na2 O70 2.597277 1_545
Na2 O71 2.696235 1_545
Na2 O3 2.724402 1_555
Na2 O8 2.730739 1_545
Na2 O34 2.963411 1_545
Na3 O43 2.356950 1_555
Na3 O7 2.438192 1_555
Na3 O64 2.453757 1_555
Na3 O65 2.487407 1_555
Na3 O28 2.525343 1_555
Na3 O42 2.578531 1_455
Na4 O44 2.367867 1_455
Na4 O63 2.394342 1_555
Na4 O43 2.477335 1_565
Na4 O8 2.501855 1_555
Na4 O29 2.503246 1_555
Na4 O65 2.546665 1_555
Na5 O64 2.408624 1_555
Na5 O42 2.422363 1_565
Na5 O27 2.458637 1_555
Na5 O63 2.478673 1_555
Na5 O44 2.488693 1_555
Na5 O6 2.502585 1_555
Na6 O61 2.412552 1_555
Na6 O47 2.422155 1_565
Na6 O26 2.498692 1_554
Na6 O62 2.500495 1_555
Na6 O11 2.506105 1_555
Na6 O45 2.521536 1_455
Na6 O16 2.833588 1_565
Na7 O45 2.357689 1_555
Na7 O62 2.366978 1_555
Na7 O24 2.433616 1_554
Na7 O46 2.484192 1_565
Na7 O60 2.528314 1_555
Na7 O9 2.598577 1_555
Na8 O46 2.378253 1_455
Na8 O10 2.437013 1_555
Na8 O61 2.442629 1_555
Na8 O60 2.487564 1_555
Na8 O25 2.505110 1_554
Na8 O47 2.602407 1_555
Na9 O36 2.382912 1_655
Na9 O38 2.407903 1_665
Na9 O37 2.426474 1_555
Na9 O44 2.618015 1_555
Na9 O43 2.618275 1_665
Na9 O42 2.708759 1_565
Na10 O41 2.348762 1_555
Na10 O39 2.400036 1_665
Na10 O40 2.404587 1_655
Na10 O46 2.647345 1_566
Na10 O45 2.649366 1_556
Na10 O47 2.747122 1_666
Na11 O48 2.362127 1_555
Na11 O50 2.390007 1_555
Na11 O49 2.505311 1_555
Na11 O55 2.599642 1_555
Na11 O56 2.702159 1_555
Na11 O54 2.722203 1_555
Na12 O53 2.284565 1_555
Na12 O52 2.390793 1_555
Na12 O57 2.563150 1_555
Na12 O51 2.577623 1_555
Na12 O58 2.709585 1_555
Na12 O59 2.788518 1_555
Na13 O62 2.470432 1_555
Na13 O61 2.496806 1_555
Na13 O60 2.568166 1_555
Na13 O67 2.627425 1_555
Na13 O66 2.635547 1_555
Na13 O68 2.695987 1_555
Na14 O64 2.471923 1_555
Na14 O63 2.497473 1_555
Na14 O65 2.499574 1_555
Na14 O69 2.670419 1_555
Na14 O71 2.687254 1_555
Na14 O70 2.696789 1_555
O0 P0 1.501605 1_555
O0 Zn0 1.992976 1_555
O1 S0 1.450668 1_555
O1 Zn0 2.196860 1_665
O2 P1 1.493897 1_655
O2 Zn0 1.983437 1_655
O3 P2 1.504502 1_555
O3 Zn1 2.024328 1_455
O4 P3 1.508993 1_655
O4 Zn1 2.049193 1_565
O5 P4 1.495707 1_555
O5 Zn1 2.013183 1_555
O6 P4 1.562091 1_565
O6 Zn2 2.045536 1_655
O7 P2 1.552528 1_555
O7 Zn2 2.045902 1_545
O8 P3 1.564587 1_555
O8 Zn2 2.037939 1_555
O9 S0 1.497528 1_555
O9 Zn3 2.161052 1_665
O10 P1 1.554000 1_555
O10 Zn3 2.017708 1_555
O11 P0 1.567377 1_565
O11 Zn3 2.041534 1_565
O12 S1 1.463433 1_555
O12 Zn4 2.074258 1_555
O13 P5 1.530193 1_555
O13 Zn4 2.033448 1_555
O14 P6 1.528523 1_555
O14 Zn4 2.045770 1_555
O15 P7 1.529770 1_555
O15 Zn5 2.075256 1_555
O16 P8 1.516999 1_555
O16 Zn5 1.946795 1_555
O17 S2 1.460836 1_555
O17 Zn5 2.168846 1_555
O18 S2 1.523089 1_555
O18 Ta0 2.088946 1_554
O19 P7 1.610739 1_555
O19 Ta0 1.974325 1_554
O20 P8 1.609807 1_555
O20 Ta0 1.965847 1_554
O21 P5 1.606383 1_555
O21 Ta1 1.967565 1_555
O22 P6 1.609076 1_555
O22 Ta1 1.968841 1_555
O23 S1 1.516632 1_555
O23 Ta1 2.090523 1_555
O24 P9 1.525923 1_555
O24 Zn6 2.007630 1_556
O25 P10 1.525006 1_555
O25 Zn6 2.000530 1_556
O26 P11 1.527159 1_555
O26 Zn6 1.971292 1_556
O27 P12 1.527177 1_555
O27 Zn7 1.975614 1_555
O28 P13 1.522506 1_555
O28 Zn7 2.001066 1_555
O29 P14 1.524780 1_555
O29 Zn7 2.011731 1_555
O30 P14 1.595826 1_555
O30 Ta2 1.957444 1_555
O31 P12 1.587045 1_555
O31 Ta2 1.971503 1_555
O32 P13 1.575735 1_555
O32 Ta2 1.976509 1_555
O33 P10 1.581892 1_555
O33 Ta3 1.951820 1_555
O34 P11 1.592083 1_555
O34 Ta3 1.989440 1_555
O35 P9 1.590228 1_555
O35 Ta3 1.980475 1_555
O36 P14 1.498041 1_555
O36 Zn0 2.188754 1_565
O37 P12 1.498002 1_555
O37 Zn0 2.105269 1_665
O38 P13 1.497593 1_555
O38 Zn0 2.072359 1_555
O39 P10 1.491554 1_555
O39 Zn1 2.135326 1_455
O40 P11 1.496390 1_555
O40 Zn1 2.129348 1_465
O41 P9 1.496608 1_555
O41 Zn1 2.161280 1_565
O42 S1 1.480457 1_555
O42 Zn2 2.501727 1_645
O43 P5 1.538227 1_555
O43 Zn2 2.424234 1_545
O44 P6 1.540550 1_555
O44 Zn2 2.374744 1_655
O45 P7 1.543121 1_555
O45 Zn3 2.366358 1_665
O46 P8 1.541728 1_555
O46 Zn3 2.371206 1_655
O47 S2 1.486292 1_555
O47 Zn3 2.383071 1_555
O48 P4 1.534557 1_555
O48 Zn4 2.140341 1_555
O49 P2 1.552178 1_555
O49 Zn4 2.148134 1_555
O50 P3 1.530011 1_655
O50 Zn4 2.097982 1_555
O51 S0 1.477080 1_555
O51 Zn5 2.316157 1_555
O52 P1 1.549963 1_655
O52 Zn5 2.075470 1_555
O53 P0 1.522184 1_555
O53 Zn5 2.066717 1_555
O54 P9 1.595548 1_555
O54 Ta0 1.997995 1_555
O55 P10 1.607212 1_655
O55 Ta0 1.958067 1_555
O56 P11 1.593958 1_545
O56 Ta0 1.997293 1_555
O57 P12 1.596764 1_545
O57 Ta1 2.004942 1_555
O58 P13 1.609020 1_555
O58 Ta1 1.952168 1_555
O59 P14 1.592596 1_655
O59 Ta1 1.993125 1_555
O60 S2 1.482352 1_555
O60 Zn6 2.385152 1_555
O61 P7 1.545702 1_455
O61 Zn6 2.269294 1_555
O62 P8 1.544045 1_565
O62 Zn6 2.160912 1_555
O63 P5 1.545417 1_565
O63 Zn7 2.188029 1_555
O64 P6 1.543486 1_555
O64 Zn7 2.246129 1_555
O65 S1 1.482149 1_455
O65 Zn7 2.379773 1_555
O66 P0 1.636646 1_565
O66 Ta2 1.994649 1_555
O67 S0 1.529394 1_555
O67 Ta2 2.072244 1_555
O68 P1 1.629566 1_555
O68 Ta2 1.988477 1_555
O69 P2 1.604802 1_555
O69 Ta3 1.996970 1_555
O70 P3 1.600910 1_555
O70 Ta3 1.993363 1_555
O71 P4 1.636724 1_565
O71 Ta3 2.019245 1_555
