# generated using pymatgen
data_Na10Nb7Al(SiO4)12
_symmetry_space_group_name_H-M   'P 1'
_cell_length_a   18.00369799
_cell_length_b   9.00281797
_cell_length_c   22.67665949
_cell_angle_alpha   90.02127426
_cell_angle_beta   89.98225806
_cell_angle_gamma   119.97189656
_symmetry_Int_Tables_number   1
_chemical_formula_structural   Na10Nb7Al(SiO4)12
_chemical_formula_sum   'Na30 Nb21 Al3 Si36 O144'
_cell_volume   3183.99796992
_cell_formula_units_Z   3
loop_
 _symmetry_equiv_pos_site_id
 _symmetry_equiv_pos_as_xyz
  1  'x, y, z'
loop_
 _atom_site_type_symbol
 _atom_site_label
 _atom_site_symmetry_multiplicity
 _atom_site_fract_x
 _atom_site_fract_y
 _atom_site_fract_z
 _atom_site_occupancy
  Na  Na0  1  0.81726894  0.00764341  0.24781503  1
  Na  Na1  1  0.18287287  0.36571735  0.24956189  1
  Na  Na2  1  0.68649732  0.36469094  0.24733433  1
  Na  Na3  1  0.99585767  0.62511382  0.24777461  1
  Na  Na4  1  0.31718879  0.62718986  0.74800638  1
  Na  Na5  1  0.81751991  0.62721588  0.74769957  1
  Na  Na6  1  0.99614483  0.36469140  0.74747941  1
  Na  Na7  1  0.49600331  0.36421713  0.74748238  1
  Na  Na8  1  0.18636072  0.00766566  0.74815064  1
  Na  Na9  1  0.68654141  0.00818328  0.74784626  1
  Na  Na10  1  0.15158598  0.33522610  0.58409464  1
  Na  Na11  1  0.65241829  0.33516650  0.58371762  1
  Na  Na12  1  0.33380645  0.97010214  0.58379724  1
  Na  Na13  1  0.83418962  0.97167647  0.58367286  1
  Na  Na14  1  0.65145743  0.96990822  0.08441662  1
  Na  Na15  1  0.83300577  0.69613055  0.08379193  1
  Na  Na16  1  0.01563232  0.33491070  0.08323397  1
  Na  Na17  1  0.48327721  0.29939912  0.41681718  1
  Na  Na18  1  0.99994566  0.99441418  0.49781943  1
  Na  Na19  1  0.50081888  0.99041431  0.49857511  1
  Na  Na20  1  0.00297161  0.99948023  0.99790400  1
  Na  Na21  1  0.49725344  0.00085537  0.99952109  1
  Na  Na22  1  0.33306401  0.33314649  0.83379572  1
  Na  Na23  1  0.83345223  0.33320109  0.83334614  1
  Na  Na24  1  0.33322206  0.33335727  0.33274262  1
  Na  Na25  1  0.83311826  0.33257113  0.33293022  1
  Na  Na26  1  0.17184529  0.67804539  0.16497073  1
  Na  Na27  1  0.66103596  0.65994536  0.16635852  1
  Na  Na28  1  0.16389894  0.66676196  0.66583569  1
  Na  Na29  1  0.66400582  0.66695738  0.66568791  1
  Nb  Nb0  1  0.99888247  0.99963689  0.35530972  1
  Nb  Nb1  1  0.50072307  0.99656323  0.35318706  1
  Nb  Nb2  1  0.00015882  0.00084882  0.85542243  1
  Nb  Nb3  1  0.49989420  0.99933719  0.85543126  1
  Nb  Nb4  1  0.99990386  0.99550362  0.64591442  1
  Nb  Nb5  1  0.50044275  0.99631350  0.64593086  1
  Nb  Nb6  1  0.00302712  0.99958003  0.14567259  1
  Nb  Nb7  1  0.49722854  0.99978628  0.14511133  1
  Nb  Nb8  1  0.33654555  0.33345250  0.18635680  1
  Nb  Nb9  1  0.33283776  0.33246654  0.97823825  1
  Nb  Nb10  1  0.83354847  0.33403279  0.97838388  1
  Nb  Nb11  1  0.33020050  0.33470032  0.47960934  1
  Nb  Nb12  1  0.83424305  0.33424463  0.47844352  1
  Nb  Nb13  1  0.16914920  0.67297637  0.02092822  1
  Nb  Nb14  1  0.66403830  0.65964079  0.02013360  1
  Nb  Nb15  1  0.16353920  0.66608717  0.52010566  1
  Nb  Nb16  1  0.66511401  0.66859170  0.52066990  1
  Nb  Nb17  1  0.16921452  0.67153241  0.31382038  1
  Nb  Nb18  1  0.66470437  0.66700955  0.31317656  1
  Nb  Nb19  1  0.16673648  0.66632436  0.81569193  1
  Nb  Nb20  1  0.66688427  0.66670148  0.81534758  1
  Al  Al0  1  0.33369746  0.33329915  0.68516859  1
  Al  Al1  1  0.83364370  0.33347864  0.68491343  1
  Al  Al2  1  0.83292209  0.33345672  0.18503460  1
  Si  Si0  1  0.14620514  0.00072465  0.25105572  1
  Si  Si1  1  0.64700600  0.00394393  0.24785904  1
  Si  Si2  1  0.35582528  0.71028268  0.24974810  1
  Si  Si3  1  0.85512778  0.70435609  0.24901104  1
  Si  Si4  1  0.99692541  0.29016834  0.24918637  1
  Si  Si5  1  0.49846968  0.28782092  0.25055807  1
  Si  Si6  1  0.14792069  0.28999082  0.74907637  1
  Si  Si7  1  0.64785751  0.28977730  0.74922501  1
  Si  Si8  1  0.99701067  0.70324053  0.74993525  1
  Si  Si9  1  0.49691293  0.70304417  0.74981073  1
  Si  Si10  1  0.35488494  0.00589775  0.74931128  1
  Si  Si11  1  0.85496210  0.00610601  0.74939590  1
  Si  Si12  1  0.47514457  0.33748440  0.58604764  1
  Si  Si13  1  0.97514774  0.33732933  0.58666139  1
  Si  Si14  1  0.19108684  0.04749220  0.58678142  1
  Si  Si15  1  0.69202475  0.05003497  0.58602912  1
  Si  Si16  1  0.33430837  0.61746607  0.58665795  1
  Si  Si17  1  0.83456957  0.61588330  0.58597785  1
  Si  Si18  1  0.47701068  0.62191628  0.08232232  1
  Si  Si19  1  0.97575112  0.61612696  0.08610344  1
  Si  Si20  1  0.33318119  0.04523461  0.08257411  1
  Si  Si21  1  0.83291112  0.04951798  0.08612421  1
  Si  Si22  1  0.19064911  0.33542320  0.08347604  1
  Si  Si23  1  0.69110826  0.33285521  0.08622334  1
  Si  Si24  1  0.31231592  0.66554515  0.91716861  1
  Si  Si25  1  0.81237000  0.66684679  0.91745219  1
  Si  Si26  1  0.02150414  0.37673626  0.91806921  1
  Si  Si27  1  0.51987586  0.37401116  0.91637943  1
  Si  Si28  1  0.16690156  0.95843329  0.91708600  1
  Si  Si29  1  0.66695233  0.95809319  0.91756952  1
  Si  Si30  1  0.31194401  0.95682933  0.41781312  1
  Si  Si31  1  0.81133865  0.95658721  0.41683454  1
  Si  Si32  1  0.16609535  0.37630156  0.41655762  1
  Si  Si33  1  0.66851319  0.37737168  0.41652122  1
  Si  Si34  1  0.02093391  0.66622505  0.41564414  1
  Si  Si35  1  0.52091910  0.66919454  0.41704060  1
  O  O0  1  0.09893281  0.03445050  0.30659560  1
  O  O1  1  0.59848613  0.03351909  0.30536380  1
  O  O2  1  0.41656373  0.80483701  0.30730770  1
  O  O3  1  0.91858869  0.80243955  0.30529284  1
  O  O4  1  0.48537270  0.17199038  0.30954052  1
  O  O5  1  0.98284659  0.16322513  0.30541806  1
  O  O6  1  0.09891398  0.16320213  0.80512755  1
  O  O7  1  0.59878671  0.16294047  0.80516896  1
  O  O8  1  0.48257420  0.80107107  0.80574050  1
  O  O9  1  0.98254181  0.80146221  0.80574633  1
  O  O10  1  0.41843399  0.03450712  0.80524124  1
  O  O11  1  0.91824063  0.03412801  0.80530650  1
  O  O12  1  0.39887769  0.96483299  0.69164307  1
  O  O13  1  0.89865858  0.96465161  0.69173610  1
  O  O14  1  0.08343677  0.20245630  0.69150065  1
  O  O15  1  0.58342389  0.20279741  0.69156225  1
  O  O16  1  0.01755683  0.83690529  0.69350680  1
  O  O17  1  0.51754830  0.83685988  0.69351604  1
  O  O18  1  0.40167372  0.83370238  0.19286433  1
  O  O19  1  0.89931005  0.83386769  0.19175910  1
  O  O20  1  0.01751647  0.20146392  0.19193668  1
  O  O21  1  0.51747231  0.19788705  0.19412734  1
  O  O22  1  0.08239885  0.96527571  0.19365709  1
  O  O23  1  0.58475510  0.96930746  0.19084011  1
  O  O24  1  0.43120455  0.36201959  0.64401881  1
  O  O25  1  0.93182003  0.36260644  0.64489177  1
  O  O26  1  0.25119484  0.13351096  0.64364999  1
  O  O27  1  0.75102792  0.13300185  0.64385521  1
  O  O28  1  0.31524239  0.49581494  0.64337231  1
  O  O29  1  0.81501776  0.49630765  0.64357133  1
  O  O30  1  0.43196106  0.50081523  0.14050316  1
  O  O31  1  0.93268947  0.49714512  0.14367044  1
  O  O32  1  0.31855180  0.13719379  0.14076587  1
  O  O33  1  0.81541125  0.13429065  0.14357006  1
  O  O34  1  0.24772399  0.36265363  0.14302378  1
  O  O35  1  0.75154241  0.37011875  0.14360621  1
  O  O36  1  0.23536700  0.30299517  0.02651783  1
  O  O37  1  0.73493030  0.29909544  0.02761967  1
  O  O38  1  0.41653373  0.52942126  0.02570901  1
  O  O39  1  0.91438878  0.53137321  0.02762561  1
  O  O40  1  0.34839098  0.16705986  0.02579282  1
  O  O41  1  0.85109583  0.17121072  0.02769643  1
  O  O42  1  0.23463739  0.16925624  0.52774473  1
  O  O43  1  0.73431580  0.17027926  0.52746629  1
  O  O44  1  0.34832187  0.52878236  0.52702653  1
  O  O45  1  0.84829068  0.52826054  0.52678013  1
  O  O46  1  0.41672561  0.29918894  0.52570368  1
  O  O47  1  0.91472310  0.29818507  0.52786837  1
  O  O48  1  0.26405687  0.69566746  0.97324995  1
  O  O49  1  0.76615615  0.69609085  0.97520930  1
  O  O50  1  0.08172635  0.46693077  0.97563745  1
  O  O51  1  0.58341948  0.47114740  0.97286878  1
  O  O52  1  0.15179773  0.83229497  0.97322814  1
  O  O53  1  0.65234571  0.83622297  0.97525249  1
  O  O54  1  0.26649358  0.83713290  0.47595108  1
  O  O55  1  0.76576920  0.83568641  0.47523370  1
  O  O56  1  0.15290413  0.46806469  0.47530245  1
  O  O57  1  0.65014290  0.46656569  0.47431937  1
  O  O58  1  0.08363943  0.69516833  0.47299626  1
  O  O59  1  0.58303725  0.69561284  0.47397471  1
  O  O60  1  0.06728524  0.63743796  0.35762878  1
  O  O61  1  0.56739439  0.63317657  0.36048365  1
  O  O62  1  0.25002739  0.86235902  0.36039566  1
  O  O63  1  0.75112623  0.86397280  0.35845117  1
  O  O64  1  0.18124464  0.49633370  0.35811655  1
  O  O65  1  0.68064200  0.49660452  0.35817377  1
  O  O66  1  0.06739477  0.49664176  0.85854875  1
  O  O67  1  0.56711748  0.49610322  0.85788351  1
  O  O68  1  0.18093529  0.86591628  0.85786457  1
  O  O69  1  0.68081244  0.86499646  0.85850759  1
  O  O70  1  0.25216838  0.63799298  0.85785410  1
  O  O71  1  0.75175700  0.63826283  0.85850074  1
  O  O72  1  0.01314333  0.83773993  0.40914408  1
  O  O73  1  0.51269514  0.83918987  0.41030821  1
  O  O74  1  0.40783037  0.98193328  0.41040773  1
  O  O75  1  0.90540320  0.97348143  0.40932234  1
  O  O76  1  0.08130340  0.18807541  0.40944152  1
  O  O77  1  0.57980796  0.19221488  0.40997514  1
  O  O78  1  0.01292852  0.18885779  0.90873508  1
  O  O79  1  0.51325568  0.18828465  0.90890340  1
  O  O80  1  0.08120383  0.97410947  0.90883051  1
  O  O81  1  0.58126977  0.97361569  0.90889680  1
  O  O82  1  0.40559172  0.83754546  0.90871099  1
  O  O83  1  0.90578046  0.83788347  0.90908073  1
  O  O84  1  0.48730259  0.16481375  0.59038905  1
  O  O85  1  0.98755115  0.16510699  0.59079219  1
  O  O86  1  0.09606881  0.03227155  0.59036065  1
  O  O87  1  0.59599189  0.03162829  0.59075198  1
  O  O88  1  0.41692346  0.81450595  0.59023069  1
  O  O89  1  0.91654153  0.81434412  0.59052572  1
  O  O90  1  0.49122009  0.81533043  0.08981322  1
  O  O91  1  0.98404975  0.80783603  0.09100082  1
  O  O92  1  0.41820511  0.02555054  0.09089601  1
  O  O93  1  0.91834803  0.02564101  0.09049480  1
  O  O94  1  0.09313103  0.16657835  0.09053540  1
  O  O95  1  0.59577247  0.16056409  0.09056382  1
  O  O96  1  0.34499362  0.17396632  0.74220811  1
  O  O97  1  0.84482471  0.17384099  0.74238965  1
  O  O98  1  0.24177408  0.30939180  0.74175125  1
  O  O99  1  0.74177666  0.30945775  0.74189220  1
  O  O100  1  0.41281746  0.51645088  0.74181647  1
  O  O101  1  0.91276948  0.51654445  0.74192345  1
  O  O102  1  0.34192821  0.51756717  0.24395217  1
  O  O103  1  0.84554561  0.51655151  0.24203785  1
  O  O104  1  0.41456683  0.30953015  0.24383057  1
  O  O105  1  0.91246243  0.30860034  0.24204472  1
  O  O106  1  0.23827138  0.17418851  0.24374386  1
  O  O107  1  0.74116590  0.17394834  0.24226166  1
  O  O108  1  0.32052331  0.49537613  0.92302525  1
  O  O109  1  0.82021323  0.49573140  0.92354109  1
  O  O110  1  0.42716677  0.35886669  0.92282101  1
  O  O111  1  0.92747057  0.35939022  0.92369376  1
  O  O112  1  0.25202662  0.14508871  0.92299347  1
  O  O113  1  0.75224107  0.14509483  0.92368530  1
  O  O114  1  0.32405083  0.14872374  0.42349102  1
  O  O115  1  0.82033347  0.14432194  0.42402372  1
  O  O116  1  0.25196025  0.35885297  0.42351550  1
  O  O117  1  0.75245536  0.35774908  0.42314132  1
  O  O118  1  0.42922365  0.49263623  0.42358899  1
  O  O119  1  0.92780159  0.49569404  0.42377476  1
  O  O120  1  0.17521072  0.49941604  0.07725762  1
  O  O121  1  0.68218814  0.50591386  0.07655608  1
  O  O122  1  0.07072299  0.63581521  0.07683069  1
  O  O123  1  0.57420201  0.64813917  0.07692654  1
  O  O124  1  0.24826703  0.85485026  0.07665767  1
  O  O125  1  0.74884231  0.85544421  0.07741486  1
  O  O126  1  0.18223513  0.85808101  0.57695282  1
  O  O127  1  0.68216026  0.85850288  0.57691442  1
  O  O128  1  0.24937246  0.64178868  0.57723927  1
  O  O129  1  0.74943604  0.64170015  0.57683190  1
  O  O130  1  0.07411305  0.49945269  0.57732776  1
  O  O131  1  0.57418304  0.49934448  0.57712492  1
  O  O132  1  0.15066156  0.82452990  0.25631279  1
  O  O133  1  0.65722980  0.83317796  0.25697784  1
  O  O134  1  0.25926653  0.68567583  0.25681988  1
  O  O135  1  0.76076814  0.69136416  0.25611302  1
  O  O136  1  0.08493968  0.47799523  0.25624628  1
  O  O137  1  0.58674388  0.47523054  0.25693742  1
  O  O138  1  0.15415535  0.47894072  0.75592536  1
  O  O139  1  0.65415851  0.47887080  0.75605073  1
  O  O140  1  0.08529660  0.69153459  0.75584741  1
  O  O141  1  0.58529728  0.69162814  0.75590994  1
  O  O142  1  0.26047142  0.82938456  0.75586270  1
  O  O143  1  0.76047433  0.82934362  0.75605079  1
loop_
_geom_bond_atom_site_label_1
_geom_bond_atom_site_label_2
_geom_bond_distance
_geom_bond_site_symmetry_2
Na0 O105 2.378241 1_555
Na0 O107 2.486899 1_555
Na0 O135 2.506822 1_545
Na0 O133 2.508027 1_545
Na0 O33 2.632383 1_555
Na0 O63 2.801252 1_545
Na0 O5 2.895472 1_555
Na0 O19 2.924255 1_545
Na1 O106 2.388188 1_555
Na1 O136 2.435959 1_555
Na1 O102 2.484690 1_555
Na1 O134 2.501507 1_555
Na1 O34 2.689061 1_555
Na1 O64 2.734161 1_555
Na1 O0 2.889523 1_555
Na1 O20 2.891265 1_555
Na2 O107 2.370506 1_555
Na2 O137 2.459366 1_555
Na2 O103 2.484224 1_555
Na2 O135 2.558809 1_555
Na2 O35 2.616837 1_555
Na2 O65 2.803876 1_555
Na2 O21 2.899347 1_555
Na2 O1 2.900514 1_555
Na3 O103 2.377601 1_555
Na3 O132 2.455392 1_655
Na3 O105 2.473062 1_555
Na3 O136 2.546790 1_655
Na3 O31 2.623787 1_555
Na3 O60 2.780455 1_655
Na3 O3 2.898511 1_555
Na3 O22 2.923389 1_655
Na4 O100 2.385899 1_555
Na4 O98 2.483518 1_555
Na4 O142 2.498968 1_555
Na4 O138 2.552386 1_555
Na4 O28 2.643221 1_555
Na4 O70 2.774262 1_555
Na4 O8 2.893808 1_555
Na4 O12 2.927724 1_555
Na5 O101 2.378545 1_555
Na5 O99 2.482483 1_555
Na5 O143 2.503793 1_555
Na5 O139 2.558294 1_555
Na5 O29 2.628991 1_555
Na5 O71 2.800084 1_555
Na5 O9 2.892159 1_555
Na5 O13 2.922481 1_555
Na6 O97 2.389676 1_555
Na6 O101 2.487702 1_555
Na6 O138 2.502800 1_655
Na6 O140 2.559584 1_655
Na6 O25 2.594862 1_555
Na6 O66 2.806715 1_655
Na6 O11 2.893894 1_555
Na6 O14 2.916398 1_655
Na7 O96 2.384712 1_555
Na7 O100 2.487754 1_555
Na7 O139 2.504870 1_555
Na7 O141 2.564095 1_555
Na7 O24 2.616234 1_555
Na7 O67 2.792409 1_555
Na7 O10 2.887328 1_555
Na7 O15 2.912000 1_555
Na8 O98 2.384874 1_555
Na8 O96 2.478700 1_555
Na8 O140 2.503464 1_545
Na8 O142 2.554810 1_545
Na8 O26 2.634508 1_555
Na8 O68 2.775900 1_545
Na8 O6 2.882500 1_555
Na8 O16 2.909938 1_545
Na9 O99 2.380979 1_555
Na9 O97 2.472609 1_555
Na9 O141 2.507527 1_545
Na9 O143 2.557401 1_545
Na9 O27 2.620757 1_555
Na9 O69 2.799823 1_545
Na9 O7 2.885081 1_555
Na9 O17 2.909613 1_545
Na10 O86 2.394696 1_555
Na10 O128 2.426142 1_555
Na10 O130 2.493139 1_555
Na10 O85 2.563399 1_455
Na10 O14 2.720536 1_555
Na10 O56 2.736950 1_555
Na10 O28 2.885023 1_555
Na10 O42 2.886323 1_555
Na11 O87 2.398247 1_555
Na11 O129 2.423845 1_555
Na11 O131 2.504272 1_555
Na11 O84 2.580033 1_555
Na11 O15 2.732233 1_555
Na11 O57 2.757906 1_555
Na11 O43 2.861657 1_555
Na11 O29 2.876492 1_555
Na12 O126 2.395453 1_555
Na12 O84 2.427345 1_565
Na12 O88 2.513459 1_555
Na12 O128 2.565124 1_555
Na12 O12 2.722679 1_555
Na12 O54 2.726310 1_555
Na12 O46 2.885179 1_565
Na12 O26 2.898615 1_565
Na13 O127 2.401461 1_555
Na13 O85 2.424480 1_565
Na13 O89 2.515400 1_555
Na13 O129 2.578416 1_555
Na13 O13 2.726062 1_555
Na13 O55 2.748810 1_555
Na13 O47 2.843855 1_565
Na13 O27 2.895432 1_565
Na14 O95 2.385318 1_565
Na14 O125 2.442558 1_555
Na14 O90 2.502540 1_555
Na14 O123 2.515765 1_555
Na14 O23 2.694076 1_555
Na14 O53 2.755677 1_554
Na14 O37 2.872623 1_565
Na14 O33 2.887698 1_565
Na15 O121 2.384617 1_555
Na15 O91 2.387608 1_555
Na15 O125 2.558470 1_555
Na15 O93 2.574842 1_565
Na15 O19 2.734510 1_555
Na15 O49 2.740947 1_554
Na15 O39 2.852723 1_555
Na15 O35 2.882004 1_555
Na16 O122 2.378877 1_555
Na16 O93 2.444335 1_455
Na16 O120 2.492885 1_555
Na16 O94 2.526621 1_555
Na16 O50 2.714612 1_554
Na16 O20 2.750231 1_555
Na16 O41 2.858682 1_455
Na16 O31 2.901349 1_455
Na17 O77 2.377155 1_555
Na17 O118 2.385031 1_555
Na17 O74 2.481076 1_545
Na17 O114 2.489039 1_555
Na17 O4 2.697432 1_555
Na17 O46 2.743792 1_555
Na17 O61 2.899965 1_555
Na17 O57 2.911020 1_555
Na18 O72 2.534170 1_655
Na18 O75 2.577084 1_555
Na18 O76 2.578934 1_665
Na18 O89 2.621211 1_555
Na18 O86 2.631967 1_665
Na18 O85 2.682572 1_565
Na19 O73 2.488818 1_555
Na19 O74 2.584603 1_555
Na19 O88 2.592266 1_555
Na19 O77 2.603694 1_565
Na19 O87 2.609455 1_565
Na19 O84 2.690400 1_565
Na20 O80 2.536777 1_555
Na20 O83 2.586870 1_455
Na20 O78 2.593182 1_565
Na20 O94 2.621113 1_566
Na20 O91 2.639070 1_456
Na20 O93 2.672328 1_466
Na21 O79 2.582522 1_555
Na21 O92 2.585014 1_556
Na21 O82 2.588665 1_545
Na21 O90 2.610557 1_546
Na21 O95 2.632048 1_556
Na21 O81 2.634330 1_545
Na22 O108 2.570090 1_555
Na22 O110 2.570849 1_555
Na22 O112 2.572754 1_555
Na22 O96 2.591984 1_555
Na22 O98 2.598899 1_555
Na22 O100 2.601673 1_555
Na23 O97 2.577900 1_555
Na23 O101 2.589852 1_555
Na23 O99 2.592308 1_555
Na23 O111 2.592546 1_555
Na23 O109 2.593672 1_555
Na23 O113 2.594058 1_555
Na24 O104 2.562754 1_555
Na24 O102 2.563496 1_555
Na24 O106 2.569287 1_555
Na24 O114 2.598688 1_555
Na24 O116 2.600676 1_555
Na24 O118 2.609830 1_555
Na25 O105 2.576945 1_555
Na25 O107 2.577821 1_555
Na25 O117 2.583003 1_555
Na25 O103 2.583367 1_555
Na25 O115 2.608617 1_555
Na25 O119 2.608638 1_555
Na26 O124 2.499949 1_555
Na26 O120 2.577026 1_555
Na26 O132 2.583612 1_555
Na26 O134 2.591135 1_555
Na26 O122 2.600777 1_555
Na26 O136 2.676027 1_555
Na27 O123 2.530601 1_555
Na27 O137 2.559669 1_555
Na27 O121 2.596165 1_555
Na27 O133 2.600787 1_555
Na27 O125 2.624033 1_555
Na27 O135 2.634570 1_555
Na28 O130 2.545018 1_555
Na28 O140 2.555760 1_555
Na28 O126 2.563637 1_555
Na28 O138 2.601832 1_555
Na28 O142 2.605921 1_555
Na28 O128 2.607369 1_555
Na29 O131 2.546979 1_555
Na29 O141 2.560377 1_555
Na29 O127 2.563609 1_555
Na29 O139 2.607691 1_555
Na29 O143 2.610686 1_555
Na29 O129 2.612387 1_555
Nb0 O5 1.989633 1_565
Nb0 O3 1.990797 1_555
Nb0 O75 1.997754 1_555
Nb0 O0 1.999520 1_665
Nb0 O72 2.013961 1_655
Nb0 O76 2.017701 1_665
Nb1 O2 1.934960 1_555
Nb1 O1 1.949025 1_565
Nb1 O4 1.996932 1_565
Nb1 O73 2.009550 1_555
Nb1 O74 2.068019 1_555
Nb1 O77 2.069258 1_565
Nb2 O78 1.997298 1_555
Nb2 O11 1.999805 1_455
Nb2 O6 2.000441 1_555
Nb2 O80 2.001504 1_545
Nb2 O9 2.005396 1_445
Nb2 O83 2.007359 1_445
Nb3 O82 1.998264 1_555
Nb3 O8 1.998906 1_555
Nb3 O81 2.002565 1_555
Nb3 O79 2.002896 1_565
Nb3 O10 2.002938 1_565
Nb3 O7 2.004565 1_565
Nb4 O16 1.938872 1_655
Nb4 O13 1.993134 1_555
Nb4 O14 2.000402 1_665
Nb4 O89 2.010980 1_555
Nb4 O86 2.029886 1_665
Nb4 O85 2.069844 1_565
Nb5 O17 1.939862 1_555
Nb5 O12 1.994918 1_555
Nb5 O15 1.995752 1_565
Nb5 O88 2.018914 1_555
Nb5 O87 2.019527 1_565
Nb5 O84 2.074537 1_565
Nb6 O22 1.939989 1_555
Nb6 O20 1.999279 1_565
Nb6 O94 2.004630 1_565
Nb6 O19 2.005301 1_455
Nb6 O91 2.010733 1_455
Nb6 O93 2.074528 1_465
Nb7 O18 1.948802 1_555
Nb7 O21 1.974432 1_565
Nb7 O92 1.980003 1_565
Nb7 O23 2.016683 1_555
Nb7 O90 2.039823 1_555
Nb7 O95 2.051086 1_565
Nb8 O30 1.927780 1_555
Nb8 O32 1.929407 1_555
Nb8 O34 2.003269 1_555
Nb8 O104 2.005422 1_555
Nb8 O102 2.073804 1_555
Nb8 O106 2.084472 1_555
Nb9 O40 1.968962 1_556
Nb9 O36 1.970353 1_556
Nb9 O38 1.975710 1_556
Nb9 O112 2.019708 1_555
Nb9 O108 2.023424 1_555
Nb9 O110 2.028659 1_555
Nb10 O39 1.984317 1_556
Nb10 O37 1.984675 1_556
Nb10 O41 1.990765 1_556
Nb10 O111 2.015613 1_555
Nb10 O109 2.018472 1_555
Nb10 O113 2.021484 1_555
Nb11 O44 1.935172 1_555
Nb11 O42 1.951840 1_555
Nb11 O116 1.989185 1_555
Nb11 O46 2.029852 1_555
Nb11 O114 2.061146 1_555
Nb11 O118 2.069066 1_555
Nb12 O45 1.968178 1_555
Nb12 O47 1.982988 1_555
Nb12 O43 1.999502 1_555
Nb12 O119 2.010120 1_555
Nb12 O115 2.019893 1_555
Nb12 O117 2.024433 1_555
Nb13 O52 1.942660 1_554
Nb13 O48 1.944368 1_554
Nb13 O124 1.994066 1_555
Nb13 O50 2.013830 1_554
Nb13 O120 2.063253 1_555
Nb13 O122 2.065342 1_555
Nb14 O51 1.916719 1_554
Nb14 O49 1.980372 1_554
Nb14 O53 1.985726 1_554
Nb14 O121 2.027964 1_555
Nb14 O123 2.028978 1_555
Nb14 O125 2.106221 1_555
Nb15 O58 1.912194 1_555
Nb15 O56 1.976068 1_555
Nb15 O54 1.989384 1_555
Nb15 O130 2.028137 1_555
Nb15 O126 2.044518 1_555
Nb15 O128 2.110365 1_555
Nb16 O59 1.929847 1_555
Nb16 O55 1.970980 1_555
Nb16 O57 1.998598 1_555
Nb16 O127 2.029404 1_555
Nb16 O131 2.036790 1_555
Nb16 O129 2.086596 1_555
Nb17 O62 1.919885 1_555
Nb17 O60 1.971045 1_555
Nb17 O64 1.971387 1_555
Nb17 O134 2.026834 1_555
Nb17 O132 2.042241 1_555
Nb17 O136 2.097776 1_555
Nb18 O61 1.943914 1_555
Nb18 O63 1.965262 1_555
Nb18 O65 1.979451 1_555
Nb18 O133 2.020603 1_555
Nb18 O137 2.038535 1_555
Nb18 O135 2.081743 1_555
Nb19 O70 1.933382 1_555
Nb19 O66 1.935739 1_555
Nb19 O68 1.936146 1_555
Nb19 O138 2.085850 1_555
Nb19 O142 2.090084 1_555
Nb19 O140 2.092108 1_555
Nb20 O71 1.936491 1_555
Nb20 O67 1.938868 1_555
Nb20 O69 1.938904 1_555
Nb20 O143 2.079943 1_555
Nb20 O139 2.081223 1_555
Nb20 O141 2.086965 1_555
Al0 O24 1.888117 1_555
Al0 O28 1.906915 1_555
Al0 O26 1.912617 1_555
Al0 O100 2.012669 1_555
Al0 O96 2.016201 1_555
Al0 O98 2.018557 1_555
Al1 O25 1.884857 1_555
Al1 O29 1.905952 1_555
Al1 O27 1.911564 1_555
Al1 O101 2.017592 1_555
Al1 O99 2.023193 1_555
Al1 O97 2.023713 1_555
Al2 O35 1.903260 1_555
Al2 O33 1.905962 1_555
Al2 O31 1.906058 1_555
Al2 O103 2.015935 1_555
Al2 O105 2.023272 1_555
Al2 O107 2.026083 1_555
O0 Si0 1.630951 1_555
O1 Si1 1.663083 1_555
O2 Si2 1.641373 1_555
O3 Si3 1.645008 1_555
O4 Si5 1.639259 1_555
O5 Si4 1.645538 1_555
O6 Si6 1.640453 1_555
O7 Si7 1.638974 1_555
O8 Si9 1.637272 1_555
O9 Si8 1.637277 1_555
O10 Si10 1.640172 1_555
O11 Si11 1.637836 1_555
O12 Si10 1.663037 1_565
O13 Si11 1.661375 1_565
O14 Si6 1.661190 1_555
O15 Si7 1.661706 1_555
O16 Si8 1.666854 1_455
O17 Si9 1.665135 1_555
O18 Si2 1.632145 1_555
O19 Si3 1.658784 1_555
O20 Si4 1.659913 1_455
O21 Si5 1.638855 1_555
O22 Si0 1.658306 1_565
O23 Si1 1.636023 1_565
O24 Si12 1.605144 1_555
O25 Si13 1.606369 1_555
O26 Si14 1.611406 1_555
O27 Si15 1.616544 1_555
O28 Si16 1.611361 1_555
O29 Si17 1.615750 1_555
O30 Si18 1.644396 1_555
O31 Si19 1.619649 1_555
O32 Si20 1.647102 1_555
O33 Si21 1.618011 1_555
O34 Si22 1.639611 1_555
O35 Si23 1.620333 1_555
O36 Si22 1.623453 1_555
O37 Si23 1.649102 1_555
O38 Si18 1.619024 1_555
O39 Si19 1.648967 1_555
O40 Si20 1.623756 1_555
O41 Si21 1.644807 1_555
O42 Si14 1.658429 1_555
O43 Si15 1.640769 1_555
O44 Si16 1.652243 1_555
O45 Si17 1.636789 1_555
O46 Si12 1.654029 1_555
O47 Si13 1.643973 1_555
O48 Si24 1.637138 1_555
O49 Si25 1.641622 1_555
O50 Si26 1.630812 1_555
O51 Si27 1.647710 1_555
O52 Si28 1.636056 1_555
O53 Si29 1.642112 1_555
O54 Si30 1.639597 1_555
O55 Si31 1.649165 1_555
O56 Si32 1.645750 1_555
O57 Si33 1.654190 1_555
O58 Si34 1.655465 1_555
O59 Si35 1.645925 1_555
O60 Si34 1.646054 1_555
O61 Si35 1.649315 1_555
O62 Si30 1.647444 1_555
O63 Si31 1.649287 1_555
O64 Si32 1.644623 1_555
O65 Si33 1.648416 1_555
O66 Si26 1.667014 1_555
O67 Si27 1.660560 1_555
O68 Si28 1.664423 1_555
O69 Si29 1.663266 1_555
O70 Si24 1.666014 1_555
O71 Si25 1.662596 1_555
O72 Si34 1.625507 1_555
O73 Si35 1.616806 1_555
O74 Si30 1.633844 1_555
O75 Si31 1.631751 1_555
O76 Si32 1.625817 1_555
O77 Si33 1.640511 1_555
O78 Si26 1.633532 1_555
O79 Si27 1.624629 1_555
O80 Si28 1.628862 1_555
O81 Si29 1.628935 1_555
O82 Si24 1.629883 1_555
O83 Si25 1.627253 1_555
O84 Si12 1.677573 1_555
O85 Si13 1.675921 1_555
O86 Si14 1.648480 1_555
O87 Si15 1.655845 1_555
O88 Si16 1.652076 1_555
O89 Si17 1.657201 1_555
O90 Si18 1.637394 1_555
O91 Si19 1.660026 1_555
O92 Si20 1.637509 1_555
O93 Si21 1.659068 1_555
O94 Si22 1.658974 1_555
O95 Si23 1.643652 1_555
O96 Si10 1.617567 1_555
O97 Si11 1.616937 1_555
O98 Si6 1.618079 1_555
O99 Si7 1.618230 1_555
O100 Si9 1.614260 1_555
O101 Si8 1.615932 1_555
O102 Si2 1.629776 1_555
O103 Si3 1.619214 1_555
O104 Si5 1.624319 1_555
O105 Si4 1.618154 1_555
O106 Si0 1.620930 1_555
O107 Si1 1.624817 1_555
O108 Si24 1.616429 1_555
O109 Si25 1.621643 1_555
O110 Si27 1.611933 1_555
O111 Si26 1.625568 1_655
O112 Si28 1.617813 1_545
O113 Si29 1.621234 1_545
O114 Si30 1.634708 1_545
O115 Si31 1.623491 1_545
O116 Si32 1.637722 1_555
O117 Si33 1.613875 1_555
O118 Si35 1.628539 1_555
O119 Si34 1.621858 1_655
O120 Si22 1.639232 1_555
O121 Si23 1.658775 1_555
O122 Si19 1.642010 1_455
O123 Si18 1.649140 1_555
O124 Si20 1.635480 1_565
O125 Si21 1.655376 1_565
O126 Si14 1.646546 1_565
O127 Si15 1.655703 1_565
O128 Si16 1.663338 1_555
O129 Si17 1.674047 1_555
O130 Si13 1.658726 1_455
O131 Si12 1.657588 1_555
O132 Si0 1.632220 1_565
O133 Si1 1.650200 1_565
O134 Si2 1.646799 1_555
O135 Si3 1.651341 1_555
O136 Si4 1.648838 1_455
O137 Si5 1.647479 1_555
O138 Si6 1.655124 1_555
O139 Si7 1.655828 1_555
O140 Si8 1.650156 1_455
O141 Si9 1.650850 1_555
O142 Si10 1.654631 1_565
O143 Si11 1.656578 1_565
