# generated using pymatgen
data_Na6Ti3ZnSi2(PO6)4
_symmetry_space_group_name_H-M   'P 1'
_cell_length_a   15.43006193
_cell_length_b   8.89677287
_cell_length_c   8.87349586
_cell_angle_alpha   90.36226001
_cell_angle_beta   124.73985198
_cell_angle_gamma   89.91814156
_symmetry_Int_Tables_number   1
_chemical_formula_structural   Na6Ti3ZnSi2(PO6)4
_chemical_formula_sum   'Na12 Ti6 Zn2 Si4 P8 O48'
_cell_volume   1000.97519533
_cell_formula_units_Z   2
loop_
 _symmetry_equiv_pos_site_id
 _symmetry_equiv_pos_as_xyz
  1  'x, y, z'
loop_
 _atom_site_type_symbol
 _atom_site_label
 _atom_site_symmetry_multiplicity
 _atom_site_fract_x
 _atom_site_fract_y
 _atom_site_fract_z
 _atom_site_occupancy
  Na  Na0  1  0.24945373  0.74791601  0.99820692  1
  Na  Na1  1  0.74657212  0.74828672  0.48743879  1
  Na  Na2  1  0.74945373  0.24791601  0.99820692  1
  Na  Na3  1  0.24657212  0.24828672  0.48743879  1
  Na  Na4  1  0.50795343  0.09635866  0.76822119  1
  Na  Na5  1  0.49982702  0.88829273  0.23616160  1
  Na  Na6  1  0.00795343  0.59635866  0.76822119  1
  Na  Na7  1  0.99982702  0.38829273  0.23616160  1
  Na  Na8  1  0.80269723  0.92815400  0.21716519  1
  Na  Na9  1  0.18360005  0.07378637  0.79475699  1
  Na  Na10  1  0.30269723  0.42815400  0.21716519  1
  Na  Na11  1  0.68360005  0.57378637  0.79475699  1
  Ti  Ti0  1  0.10238678  0.74550286  0.55787063  1
  Ti  Ti1  1  0.89239207  0.75462781  0.93446230  1
  Ti  Ti2  1  0.89797128  0.25484857  0.44271893  1
  Ti  Ti3  1  0.60238678  0.24550286  0.55787063  1
  Ti  Ti4  1  0.39239207  0.25462781  0.93446230  1
  Ti  Ti5  1  0.39797128  0.75484857  0.44271893  1
  Zn  Zn0  1  0.10398036  0.24301827  0.05774605  1
  Zn  Zn1  1  0.60398036  0.74301827  0.05774605  1
  Si  Si0  1  0.64957679  0.89899990  0.74995248  1
  Si  Si1  1  0.35381011  0.10012883  0.25289848  1
  Si  Si2  1  0.14957679  0.39899990  0.74995248  1
  Si  Si3  1  0.85381011  0.60012883  0.25289848  1
  P  P0  1  0.99648942  0.95671897  0.74543464  1
  P  P1  1  0.00148368  0.03986604  0.25559715  1
  P  P2  1  0.49648942  0.45671897  0.74543464  1
  P  P3  1  0.50148368  0.53986604  0.25559715  1
  P  P4  1  0.35442116  0.89440631  0.75868279  1
  P  P5  1  0.64584962  0.11483346  0.24557123  1
  P  P6  1  0.85442116  0.39440631  0.75868279  1
  P  P7  1  0.14584962  0.61483346  0.24557123  1
  O  O0  1  0.15526825  0.58127212  0.72804967  1
  O  O1  1  0.85065747  0.57134484  0.75207626  1
  O  O2  1  0.85465081  0.41475659  0.26210576  1
  O  O3  1  0.15366277  0.44305831  0.25781216  1
  O  O4  1  0.65526825  0.08127212  0.72804967  1
  O  O5  1  0.35065747  0.07134484  0.75207626  1
  O  O6  1  0.35465081  0.91475659  0.26210576  1
  O  O7  1  0.65366277  0.94305831  0.25781216  1
  O  O8  1  0.42896084  0.55507012  0.56990601  1
  O  O9  1  0.56901036  0.55126937  0.91547425  1
  O  O10  1  0.56242845  0.44267994  0.42974040  1
  O  O11  1  0.43859194  0.43051145  0.08424474  1
  O  O12  1  0.92896084  0.05507012  0.56990601  1
  O  O13  1  0.06901036  0.05126937  0.91547425  1
  O  O14  1  0.06242845  0.94267994  0.42974040  1
  O  O15  1  0.93859194  0.93051145  0.08424474  1
  O  O16  1  0.25145979  0.84183880  0.73453655  1
  O  O17  1  0.74777161  0.81318172  0.75998389  1
  O  O18  1  0.74246248  0.18075735  0.25648526  1
  O  O19  1  0.26249174  0.18573365  0.25173444  1
  O  O20  1  0.75145979  0.34183880  0.73453655  1
  O  O21  1  0.24777161  0.31318172  0.75998389  1
  O  O22  1  0.24246248  0.68075735  0.25648526  1
  O  O23  1  0.76249174  0.68573365  0.25173444  1
  O  O24  1  0.36074170  0.84813681  0.59254717  1
  O  O25  1  0.64982443  0.87644073  0.92949766  1
  O  O26  1  0.64453659  0.17011946  0.41129300  1
  O  O27  1  0.35611242  0.14046287  0.07046245  1
  O  O28  1  0.86074170  0.34813681  0.59254717  1
  O  O29  1  0.14982443  0.37644073  0.92949766  1
  O  O30  1  0.14453659  0.67011946  0.41129300  1
  O  O31  1  0.85611242  0.64046287  0.07046245  1
  O  O32  1  0.45023891  0.83687266  0.93726471  1
  O  O33  1  0.53843854  0.82224337  0.57040383  1
  O  O34  1  0.54224537  0.16868556  0.06568875  1
  O  O35  1  0.46924015  0.16133236  0.42928847  1
  O  O36  1  0.95023891  0.33687266  0.93726471  1
  O  O37  1  0.03843854  0.32224337  0.57040383  1
  O  O38  1  0.04224537  0.66868556  0.06568875  1
  O  O39  1  0.96924015  0.66133236  0.42928847  1
  O  O40  1  0.07417629  0.85238072  0.72990231  1
  O  O41  1  0.92144739  0.84716060  0.75567994  1
  O  O42  1  0.91256805  0.12916467  0.25347277  1
  O  O43  1  0.07454881  0.14978041  0.24946419  1
  O  O44  1  0.57417629  0.35238072  0.72990231  1
  O  O45  1  0.42144739  0.34716060  0.75567994  1
  O  O46  1  0.41256805  0.62916467  0.25347277  1
  O  O47  1  0.57454881  0.64978041  0.24946419  1
loop_
_geom_bond_atom_site_label_1
_geom_bond_atom_site_label_2
_geom_bond_distance
_geom_bond_site_symmetry_2
Na0 O22 2.433188 1_556
Na0 O6 2.439773 1_556
Na0 O0 2.459169 1_555
Na0 O46 2.471186 1_556
Na0 O16 2.506118 1_555
Na0 O40 2.555156 1_555
Na1 O23 2.305416 1_555
Na1 O47 2.422355 1_555
Na1 O7 2.432712 1_555
Na1 O17 2.472617 1_555
Na1 O1 2.512584 1_555
Na1 O41 2.526006 1_555
Na2 O18 2.433188 1_556
Na2 O2 2.439773 1_556
Na2 O4 2.459169 1_555
Na2 O42 2.471186 1_556
Na2 O20 2.506118 1_555
Na2 O44 2.555156 1_555
Na3 O19 2.305416 1_555
Na3 O43 2.422355 1_555
Na3 O3 2.432712 1_555
Na3 O21 2.472617 1_555
Na3 O5 2.512584 1_555
Na3 O45 2.526006 1_555
Na4 O5 2.359164 1_555
Na4 O34 2.459494 1_556
Na4 O4 2.496787 1_555
Na4 O45 2.568700 1_555
Na4 O44 2.600077 1_555
Na4 O25 2.668511 1_545
Na4 O35 2.776620 1_555
Na4 O24 2.898585 1_545
Na5 O7 2.321880 1_555
Na5 O32 2.345633 1_554
Na5 O47 2.384777 1_555
Na5 O6 2.389965 1_555
Na5 O46 2.720362 1_555
Na5 O33 2.739337 1_555
Na5 O27 2.902428 1_565
Na6 O1 2.359164 1_455
Na6 O38 2.459494 1_556
Na6 O0 2.496787 1_555
Na6 O41 2.568700 1_455
Na6 O40 2.600077 1_555
Na6 O29 2.668511 1_555
Na6 O39 2.776620 1_455
Na6 O28 2.898585 1_455
Na7 O3 2.321880 1_655
Na7 O36 2.345633 1_554
Na7 O43 2.384777 1_655
Na7 O2 2.389965 1_555
Na7 O42 2.720362 1_555
Na7 O37 2.739337 1_655
Na7 O31 2.902428 1_555
Na8 O23 2.315090 1_555
Na8 O25 2.327553 1_554
Na8 O42 2.356895 1_565
Na8 O7 2.525808 1_555
Na8 O18 2.527820 1_565
Na8 O12 2.807025 1_565
Na8 O15 2.933864 1_555
Na9 O40 2.439219 1_545
Na9 O21 2.444266 1_555
Na9 O27 2.446811 1_556
Na9 O16 2.501575 1_545
Na9 O13 2.544827 1_555
Na9 O5 2.810844 1_555
Na10 O19 2.315090 1_555
Na10 O29 2.327553 1_554
Na10 O46 2.356895 1_555
Na10 O3 2.525808 1_555
Na10 O22 2.527820 1_555
Na10 O8 2.807025 1_555
Na10 O11 2.933864 1_555
Na11 O44 2.439219 1_555
Na11 O17 2.444266 1_555
Na11 O31 2.446811 1_556
Na11 O20 2.501575 1_555
Na11 O9 2.544827 1_555
Na11 O1 2.810844 1_555
O0 Si2 1.642872 1_555
O0 Ti0 1.923854 1_555
O1 P6 1.575399 1_555
O1 Ti1 2.115348 1_555
O2 Si3 1.651420 1_555
O2 Ti2 1.960741 1_555
O3 P7 1.532486 1_555
O3 Zn0 2.306419 1_555
O4 Si0 1.642872 1_545
O4 Ti3 1.923854 1_555
O5 P4 1.575399 1_545
O5 Ti4 2.115348 1_555
O6 Si1 1.651420 1_565
O6 Ti5 1.960741 1_555
O7 P5 1.532486 1_565
O7 Zn1 2.306419 1_555
O8 P2 1.562783 1_555
O8 Ti5 2.017263 1_555
O9 P2 1.516164 1_555
O9 Zn1 1.998553 1_556
O10 P3 1.542136 1_555
O10 Ti3 1.993334 1_555
O11 P3 1.581929 1_555
O11 Ti4 1.902713 1_554
O12 P0 1.562783 1_545
O12 Ti2 2.017263 1_555
O13 P0 1.516164 1_445
O13 Zn0 1.998553 1_556
O14 P1 1.542136 1_565
O14 Ti0 1.993334 1_555
O15 P1 1.581929 1_665
O15 Ti1 1.902713 1_554
O16 P4 1.549680 1_555
O16 Ti0 2.088546 1_555
O17 Si0 1.652390 1_555
O17 Ti1 1.928042 1_555
O18 P5 1.553359 1_555
O18 Ti2 2.096318 1_555
O19 Si1 1.595623 1_555
O19 Zn0 2.100986 1_555
O20 P6 1.549680 1_555
O20 Ti3 2.088546 1_555
O21 Si2 1.652390 1_555
O21 Ti4 1.928042 1_555
O22 P7 1.553359 1_555
O22 Ti5 2.096318 1_555
O23 Si3 1.595623 1_555
O23 Zn1 2.100986 1_555
O24 P4 1.583766 1_555
O24 Ti5 1.908279 1_555
O25 Si0 1.604888 1_555
O25 Zn1 2.035052 1_556
O26 P5 1.558713 1_555
O26 Ti3 1.875180 1_555
O27 Si1 1.680362 1_555
O27 Ti4 1.894318 1_554
O28 P6 1.583766 1_555
O28 Ti2 1.908279 1_555
O29 Si2 1.604888 1_555
O29 Zn0 2.035052 1_556
O30 P7 1.558713 1_555
O30 Ti0 1.875180 1_555
O31 Si3 1.680362 1_555
O31 Ti1 1.894318 1_554
O32 P4 1.515561 1_555
O32 Zn1 2.140768 1_556
O33 Si0 1.679643 1_555
O33 Ti5 1.880765 1_555
O34 P5 1.559568 1_555
O34 Ti4 2.055388 1_554
O35 Si1 1.653301 1_555
O35 Ti3 1.845381 1_555
O36 P6 1.515561 1_555
O36 Zn0 2.140768 1_656
O37 Si2 1.679643 1_555
O37 Ti2 1.880765 1_455
O38 P7 1.559568 1_555
O38 Ti1 2.055388 1_454
O39 Si3 1.653301 1_555
O39 Ti0 1.845381 1_655
O40 P0 1.581486 1_455
O40 Ti0 2.040017 1_555
O41 P0 1.556725 1_555
O41 Ti1 2.055148 1_555
O42 P1 1.575261 1_655
O42 Ti2 2.127820 1_555
O43 P1 1.517892 1_555
O43 Zn0 2.165149 1_555
O44 P2 1.581486 1_555
O44 Ti3 2.040017 1_555
O45 P2 1.556725 1_555
O45 Ti4 2.055148 1_555
O46 P3 1.575261 1_555
O46 Ti5 2.127820 1_555
O47 P3 1.517892 1_555
O47 Zn1 2.165149 1_555
