# generated using pymatgen
data_Ba2Cu3(BrO2)2
_symmetry_space_group_name_H-M   'P 1'
_cell_length_a   8.46275046
_cell_length_b   8.46275046
_cell_length_c   8.46275046
_cell_angle_alpha   141.29491766
_cell_angle_beta   141.29491766
_cell_angle_gamma   55.89232676
_symmetry_Int_Tables_number   1
_chemical_formula_structural   Ba2Cu3(BrO2)2
_chemical_formula_sum   'Ba2 Cu3 Br2 O4'
_cell_volume   235.17878678
_cell_formula_units_Z   1
loop_
 _symmetry_equiv_pos_site_id
 _symmetry_equiv_pos_as_xyz
  1  'x, y, z'
loop_
 _atom_site_type_symbol
 _atom_site_label
 _atom_site_symmetry_multiplicity
 _atom_site_fract_x
 _atom_site_fract_y
 _atom_site_fract_z
 _atom_site_occupancy
  Ba  Ba0  1  0.63139600  0.63139600  0.00000000  1
  Ba  Ba1  1  0.36860400  0.36860400  0.00000000  1
  Cu  Cu0  1  0.50000000  0.00000000  0.50000000  1
  Cu  Cu1  1  0.00000000  0.50000000  0.50000000  1
  Cu  Cu2  1  0.00000000  0.00000000  0.00000000  1
  Br  Br0  1  0.25000000  0.75000000  0.50000000  1
  Br  Br1  1  0.75000000  0.25000000  0.50000000  1
  O  O0  1  0.24098200  0.75901800  0.00000000  1
  O  O1  1  0.75901800  0.75901800  0.51803600  1
  O  O2  1  0.24098200  0.24098200  0.48196400  1
  O  O3  1  0.75901800  0.24098200  0.00000000  1
loop_
_geom_bond_atom_site_label_1
_geom_bond_atom_site_label_2
_geom_bond_distance
_geom_bond_site_symmetry_2
Ba0 O1 2.842669 1_555
Ba0 O3 2.842669 1_555
Ba0 O2 2.842669 1_554
Ba0 O0 2.842669 1_555
Ba0 Br0 3.318028 1_655
Ba0 Br1 3.318028 1_565
Ba0 Br1 3.318028 1_554
Ba0 Br0 3.318028 1_554
Ba1 O2 2.842669 1_554
Ba1 O0 2.842669 1_555
Ba1 O3 2.842669 1_555
Ba1 O1 2.842669 1_555
Ba1 Br1 3.318028 1_454
Ba1 Br0 3.318028 1_544
Ba1 Br1 3.318028 1_555
Ba1 Br0 3.318028 1_555
Cu0 O1 1.984289 1_545
Cu0 O2 1.984289 1_555
Cu0 O0 1.984289 1_545
Cu0 O3 1.984289 1_556
Cu1 O1 1.984289 1_455
Cu1 O3 1.984289 1_455
Cu1 O2 1.984289 1_555
Cu1 O0 1.984289 1_556
Cu2 O3 1.911468 1_455
Cu2 O2 1.911468 1_555
Cu2 O0 1.911468 1_545
Cu2 O1 1.911468 1_444
