# generated using pymatgen
data_Na14Y6Nb2Si9(SO16)3
_symmetry_space_group_name_H-M   'P 1'
_cell_length_a   18.81850913
_cell_length_b   9.39267400
_cell_length_c   23.08591204
_cell_angle_alpha   90.09728403
_cell_angle_beta   89.56560151
_cell_angle_gamma   119.94054796
_symmetry_Int_Tables_number   1
_chemical_formula_structural   Na14Y6Nb2Si9(SO16)3
_chemical_formula_sum   'Na42 Y18 Nb6 Si27 S9 O144'
_cell_volume   3535.88600956
_cell_formula_units_Z   3
loop_
 _symmetry_equiv_pos_site_id
 _symmetry_equiv_pos_as_xyz
  1  'x, y, z'
loop_
 _atom_site_type_symbol
 _atom_site_label
 _atom_site_symmetry_multiplicity
 _atom_site_fract_x
 _atom_site_fract_y
 _atom_site_fract_z
 _atom_site_occupancy
  Na  Na0  1  0.81436977  0.00706983  0.24008372  1
  Na  Na1  1  0.68939718  0.36875617  0.24010747  1
  Na  Na2  1  0.50080947  0.62203281  0.24329558  1
  Na  Na3  1  0.31303892  0.61921483  0.73969978  1
  Na  Na4  1  0.99245982  0.36122073  0.74501644  1
  Na  Na5  1  0.18722179  0.01015496  0.73923655  1
  Na  Na6  1  0.15110642  0.33127083  0.58654357  1
  Na  Na7  1  0.66012393  0.34246613  0.59247656  1
  Na  Na8  1  0.01541092  0.69380101  0.58768570  1
  Na  Na9  1  0.51232348  0.67971054  0.58516367  1
  Na  Na10  1  0.32424104  0.97557772  0.58965942  1
  Na  Na11  1  0.83273214  0.97611262  0.59345364  1
  Na  Na12  1  0.15748032  0.97666665  0.08809301  1
  Na  Na13  1  0.65752670  0.96894198  0.08049658  1
  Na  Na14  1  0.33091640  0.68536550  0.08819496  1
  Na  Na15  1  0.82724654  0.68080210  0.08524316  1
  Na  Na16  1  0.01198106  0.34443207  0.08129052  1
  Na  Na17  1  0.51591541  0.34728135  0.07987915  1
  Na  Na18  1  0.49169471  0.67280512  0.91463578  1
  Na  Na19  1  0.98062771  0.64781465  0.90814557  1
  Na  Na20  1  0.36173505  0.05796960  0.91173296  1
  Na  Na21  1  0.85407614  0.05255690  0.91155314  1
  Na  Na22  1  0.15797981  0.29969426  0.91709826  1
  Na  Na23  1  0.66302061  0.28955314  0.92310558  1
  Na  Na24  1  0.48135756  0.31547386  0.41426805  1
  Na  Na25  1  0.98933323  0.30557730  0.42157244  1
  Na  Na26  1  0.16052407  0.03619023  0.42849084  1
  Na  Na27  1  0.65937627  0.01366257  0.42359637  1
  Na  Na28  1  0.35242840  0.65135726  0.42421469  1
  Na  Na29  1  0.86032171  0.66614083  0.41626290  1
  Na  Na30  1  0.00670331  0.00255230  0.50823591  1
  Na  Na31  1  0.50302135  0.98626832  0.50674948  1
  Na  Na32  1  0.00162161  0.01872455  0.00020081  1
  Na  Na33  1  0.50705669  0.01195186  0.99627675  1
  Na  Na34  1  0.34830014  0.33679924  0.81986178  1
  Na  Na35  1  0.83681866  0.32228011  0.82765381  1
  Na  Na36  1  0.33678863  0.33480130  0.33499309  1
  Na  Na37  1  0.84857734  0.36072700  0.32161968  1
  Na  Na38  1  0.16597543  0.66727048  0.16045815  1
  Na  Na39  1  0.66846284  0.66677947  0.16331626  1
  Na  Na40  1  0.16579782  0.66764095  0.66501448  1
  Na  Na41  1  0.67036779  0.67018820  0.66516047  1
  Y  Y0  1  0.00142225  0.99793473  0.34701340  1
  Y  Y1  1  0.50081242  0.00003540  0.34680952  1
  Y  Y2  1  0.99840639  0.00247032  0.84484471  1
  Y  Y3  1  0.50178591  0.00650885  0.84600034  1
  Y  Y4  1  0.33763133  0.33324756  0.68274411  1
  Y  Y5  1  0.83253582  0.33572948  0.68392436  1
  Y  Y6  1  0.33198594  0.32259840  0.18280480  1
  Y  Y7  1  0.83875341  0.34254401  0.18320926  1
  Y  Y8  1  0.33935784  0.33717863  0.98983737  1
  Y  Y9  1  0.83595774  0.33112667  0.98668176  1
  Y  Y10  1  0.33485291  0.33831467  0.48920467  1
  Y  Y11  1  0.83752203  0.33856090  0.49197472  1
  Y  Y12  1  0.16339879  0.65678284  0.01884671  1
  Y  Y13  1  0.66290240  0.66603102  0.01790682  1
  Y  Y14  1  0.16256546  0.65988897  0.52026377  1
  Y  Y15  1  0.66358391  0.67042607  0.51974561  1
  Y  Y16  1  0.66139452  0.66379425  0.30697188  1
  Y  Y17  1  0.16054520  0.65814099  0.80678970  1
  Nb  Nb0  1  0.99583062  0.99303447  0.65297185  1
  Nb  Nb1  1  0.49598511  0.98970444  0.64868623  1
  Nb  Nb2  1  0.99547985  0.00329891  0.14766095  1
  Nb  Nb3  1  0.50610657  0.01651833  0.14701816  1
  Nb  Nb4  1  0.15505996  0.63962324  0.31355576  1
  Nb  Nb5  1  0.65944044  0.68332186  0.81032936  1
  Si  Si0  1  0.64781033  0.00184702  0.24926168  1
  Si  Si1  1  0.85191099  0.70715379  0.25220874  1
  Si  Si2  1  0.00104098  0.29364220  0.25215848  1
  Si  Si3  1  0.49671215  0.29383863  0.25268865  1
  Si  Si4  1  0.14764529  0.29301895  0.75003366  1
  Si  Si5  1  0.99827943  0.70121066  0.75301510  1
  Si  Si6  1  0.49967402  0.70744737  0.75235976  1
  Si  Si7  1  0.35135327  0.99645299  0.75259749  1
  Si  Si8  1  0.84671525  0.99209472  0.75272988  1
  Si  Si9  1  0.48424524  0.32237476  0.58024820  1
  Si  Si10  1  0.98367000  0.32367310  0.58564917  1
  Si  Si11  1  0.17806858  0.03260959  0.58450357  1
  Si  Si12  1  0.68070270  0.03558885  0.58268680  1
  Si  Si13  1  0.33471223  0.63967096  0.58538968  1
  Si  Si14  1  0.83640020  0.64267847  0.58138931  1
  Si  Si15  1  0.48301428  0.64235997  0.08771662  1
  Si  Si16  1  0.98441839  0.64513914  0.08110166  1
  Si  Si17  1  0.33643606  0.02886667  0.08229596  1
  Si  Si18  1  0.83381611  0.03027848  0.08592046  1
  Si  Si19  1  0.18231166  0.32744110  0.08430332  1
  Si  Si20  1  0.68309597  0.33326747  0.08411921  1
  Si  Si21  1  0.01516107  0.36097305  0.91709599  1
  Si  Si22  1  0.51989371  0.37550631  0.91488089  1
  Si  Si23  1  0.66735009  0.97026200  0.91702827  1
  Si  Si24  1  0.16801636  0.36635648  0.41646469  1
  Si  Si25  1  0.01638021  0.66238036  0.41669999  1
  Si  Si26  1  0.51393572  0.66589835  0.41556292  1
  S  S0  1  0.14965163  0.98754279  0.25057088  1
  S  S1  1  0.34614903  0.70382199  0.25049331  1
  S  S2  1  0.64781920  0.30887411  0.74894325  1
  S  S3  1  0.31554687  0.66512229  0.91607103  1
  S  S4  1  0.81152136  0.66487116  0.91472575  1
  S  S5  1  0.16912948  0.96899305  0.91699232  1
  S  S6  1  0.30924356  0.95367949  0.41279042  1
  S  S7  1  0.81497160  0.96579131  0.41505737  1
  S  S8  1  0.66829773  0.36829911  0.41570299  1
  O  O0  1  0.10978067  0.00198593  0.30395857  1
  O  O1  1  0.60568740  0.01843876  0.30858359  1
  O  O2  1  0.39522709  0.78302962  0.30327813  1
  O  O3  1  0.89727106  0.78481905  0.31283732  1
  O  O4  1  0.48990094  0.20103710  0.31341130  1
  O  O5  1  0.99623508  0.20348976  0.31201661  1
  O  O6  1  0.10965936  0.19570898  0.81058106  1
  O  O7  1  0.60897039  0.21428642  0.80295780  1
  O  O8  1  0.49377068  0.78638672  0.81264039  1
  O  O9  1  0.99406853  0.78039488  0.81461674  1
  O  O10  1  0.39667750  0.01040880  0.81349452  1
  O  O11  1  0.89760780  0.01642598  0.81159239  1
  O  O12  1  0.41374396  0.99144228  0.69877263  1
  O  O13  1  0.89877972  0.97395475  0.69608419  1
  O  O14  1  0.08257191  0.17663562  0.69694944  1
  O  O15  1  0.59673814  0.21995806  0.69761087  1
  O  O16  1  0.00066533  0.82431683  0.69845756  1
  O  O17  1  0.51229368  0.83353744  0.69670347  1
  O  O18  1  0.38782224  0.80352153  0.19817618  1
  O  O19  1  0.91381041  0.83799300  0.19846798  1
  O  O20  1  0.01376569  0.19459008  0.19618524  1
  O  O21  1  0.49928418  0.17457181  0.19783098  1
  O  O22  1  0.09954315  0.96969401  0.19857468  1
  O  O23  1  0.58396709  0.99255715  0.19560239  1
  O  O24  1  0.44096902  0.37328332  0.62995871  1
  O  O25  1  0.94003352  0.36000695  0.63944322  1
  O  O26  1  0.23932812  0.11961277  0.63831196  1
  O  O27  1  0.74629448  0.12897635  0.63251482  1
  O  O28  1  0.31758057  0.52458143  0.64096991  1
  O  O29  1  0.81296555  0.50598384  0.63107067  1
  O  O30  1  0.44021896  0.52458897  0.14318395  1
  O  O31  1  0.94232236  0.51017637  0.13156429  1
  O  O32  1  0.31406004  0.11715628  0.13343497  1
  O  O33  1  0.81664825  0.10803795  0.14257819  1
  O  O34  1  0.24589206  0.36556248  0.13617514  1
  O  O35  1  0.73869938  0.35915116  0.13992189  1
  O  O36  1  0.21712377  0.28872803  0.02400509  1
  O  O37  1  0.71658355  0.28862652  0.02529787  1
  O  O38  1  0.42659206  0.56909126  0.02928084  1
  O  O39  1  0.92798747  0.58203461  0.02252711  1
  O  O40  1  0.36022259  0.14251560  0.02313799  1
  O  O41  1  0.85647725  0.14680644  0.02865234  1
  O  O42  1  0.21535947  0.14340517  0.52471293  1
  O  O43  1  0.71307641  0.13794137  0.52084469  1
  O  O44  1  0.35712527  0.56986734  0.52699812  1
  O  O45  1  0.85667351  0.57592769  0.52027052  1
  O  O46  1  0.42893453  0.27454271  0.52070933  1
  O  O47  1  0.92960344  0.28819925  0.52572391  1
  O  O48  1  0.27654648  0.68457986  0.96918963  1
  O  O49  1  0.77542071  0.68250332  0.96987120  1
  O  O50  1  0.06922919  0.44727877  0.97512800  1
  O  O51  1  0.56898796  0.45104628  0.97461313  1
  O  O52  1  0.16431456  0.87460807  0.96966171  1
  O  O53  1  0.65763665  0.86375166  0.97423609  1
  O  O54  1  0.27391755  0.86536807  0.46754085  1
  O  O55  1  0.77532798  0.86661322  0.46748218  1
  O  O56  1  0.15907237  0.45751633  0.47241522  1
  O  O57  1  0.66199589  0.45185421  0.46780780  1
  O  O58  1  0.07172636  0.68860674  0.47241927  1
  O  O59  1  0.57137929  0.69516536  0.47207323  1
  O  O60  1  0.07570967  0.65142117  0.35939689  1
  O  O61  1  0.56083864  0.64938785  0.35784632  1
  O  O62  1  0.25748965  0.85942124  0.36262978  1
  O  O63  1  0.76638521  0.88113823  0.36313761  1
  O  O64  1  0.17147213  0.49547607  0.35958559  1
  O  O65  1  0.67631124  0.46567414  0.36315708  1
  O  O66  1  0.06379480  0.47459704  0.86061125  1
  O  O67  1  0.57974596  0.50381827  0.86038976  1
  O  O68  1  0.17748631  0.88661046  0.86489977  1
  O  O69  1  0.67160688  0.85242350  0.86033133  1
  O  O70  1  0.26694586  0.65289288  0.86466961  1
  O  O71  1  0.76027829  0.65648316  0.86510198  1
  O  O72  1  0.00734250  0.82479619  0.41074228  1
  O  O73  1  0.49923205  0.82714363  0.41496451  1
  O  O74  1  0.39309299  0.97471239  0.40824335  1
  O  O75  1  0.89923781  0.98877435  0.41266202  1
  O  O76  1  0.08622055  0.18637370  0.41184196  1
  O  O77  1  0.59169107  0.20219478  0.41425661  1
  O  O78  1  0.00417151  0.17394619  0.91741624  1
  O  O79  1  0.50866444  0.19116996  0.91083747  1
  O  O80  1  0.09310733  0.98188536  0.91611648  1
  O  O81  1  0.58500873  0.98621876  0.91272309  1
  O  O82  1  0.40012723  0.81166805  0.91392517  1
  O  O83  1  0.89614955  0.80898452  0.91180680  1
  O  O84  1  0.49194939  0.15653460  0.59667232  1
  O  O85  1  0.98986610  0.15445481  0.59502089  1
  O  O86  1  0.08597868  0.01498811  0.59464242  1
  O  O87  1  0.59025520  0.02564107  0.59637994  1
  O  O88  1  0.42262926  0.82292822  0.59527563  1
  O  O89  1  0.92125306  0.82166468  0.59401359  1
  O  O90  1  0.48908834  0.82460883  0.09836927  1
  O  O91  1  0.99303250  0.82786894  0.09768298  1
  O  O92  1  0.42000463  0.01540951  0.09639875  1
  O  O93  1  0.92169127  0.02099628  0.09502308  1
  O  O94  1  0.09150789  0.15632150  0.09737199  1
  O  O95  1  0.58842262  0.16385412  0.09336089  1
  O  O96  1  0.33402048  0.14762023  0.74646840  1
  O  O97  1  0.83789806  0.15296950  0.74533572  1
  O  O98  1  0.23874829  0.31702956  0.74452138  1
  O  O99  1  0.72956550  0.32772383  0.74509212  1
  O  O100  1  0.41880971  0.53229594  0.74500720  1
  O  O101  1  0.92334334  0.51397101  0.74879867  1
  O  O102  1  0.33800441  0.53920672  0.24714084  1
  O  O103  1  0.83443077  0.52096689  0.24646829  1
  O  O104  1  0.42241802  0.33473510  0.24921862  1
  O  O105  1  0.92034326  0.30829795  0.24570977  1
  O  O106  1  0.23159360  0.13473286  0.24717110  1
  O  O107  1  0.73841497  0.16068479  0.24551576  1
  O  O108  1  0.32105232  0.51198492  0.91954946  1
  O  O109  1  0.81611467  0.51033364  0.91587143  1
  O  O110  1  0.43063961  0.36965454  0.91348672  1
  O  O111  1  0.92554507  0.35286726  0.91844601  1
  O  O112  1  0.24309008  0.13752251  0.91923196  1
  O  O113  1  0.75158266  0.14658496  0.91365215  1
  O  O114  1  0.31535335  0.11856964  0.41352259  1
  O  O115  1  0.82013702  0.12969875  0.41870635  1
  O  O116  1  0.25270349  0.35993961  0.41234830  1
  O  O117  1  0.74166392  0.34618624  0.41798396  1
  O  O118  1  0.42470907  0.49357607  0.41865317  1
  O  O119  1  0.92882112  0.48964109  0.41387631  1
  O  O120  1  0.16462889  0.48129830  0.08116147  1
  O  O121  1  0.66620276  0.48608713  0.08072604  1
  O  O122  1  0.07962274  0.68569690  0.07629197  1
  O  O123  1  0.57578110  0.67199011  0.08210212  1
  O  O124  1  0.26093861  0.84092638  0.07720763  1
  O  O125  1  0.76131218  0.84120918  0.07906042  1
  O  O126  1  0.16532896  0.84804347  0.58025772  1
  O  O127  1  0.66206096  0.84559140  0.58083766  1
  O  O128  1  0.26313910  0.68587248  0.57870754  1
  O  O129  1  0.76098086  0.68135267  0.57662981  1
  O  O130  1  0.07700503  0.47932124  0.58191103  1
  O  O131  1  0.57913504  0.47229168  0.57540845  1
  O  O132  1  0.15837510  0.83638925  0.25498763  1
  O  O133  1  0.64803859  0.82830780  0.24503679  1
  O  O134  1  0.26358460  0.69114538  0.25615042  1
  O  O135  1  0.76653208  0.71269564  0.24617834  1
  O  O136  1  0.08750159  0.48581922  0.25645882  1
  O  O137  1  0.58638528  0.46343994  0.24588356  1
  O  O138  1  0.14902506  0.46834309  0.74584543  1
  O  O139  1  0.65304215  0.47285776  0.75236517  1
  O  O140  1  0.08798686  0.71047612  0.74557272  1
  O  O141  1  0.58573375  0.69108958  0.75574688  1
  O  O142  1  0.26682349  0.81963895  0.74646460  1
  O  O143  1  0.75518868  0.81646081  0.75952597  1
loop_
_geom_bond_atom_site_label_1
_geom_bond_atom_site_label_2
_geom_bond_distance
_geom_bond_site_symmetry_2
Na0 O33 2.435866 1_555
Na0 O135 2.447446 1_545
Na0 O107 2.489163 1_555
Na0 O105 2.523784 1_555
Na0 O133 2.716415 1_545
Na1 O103 2.371717 1_555
Na1 O35 2.503725 1_555
Na1 O137 2.506626 1_555
Na1 O107 2.547168 1_555
Na1 O135 2.807769 1_555
Na1 O65 3.027103 1_555
Na2 O104 2.345489 1_555
Na2 O133 2.464726 1_555
Na2 O30 2.543690 1_555
Na2 O137 2.685565 1_555
Na2 O102 2.759815 1_555
Na2 O61 2.844087 1_555
Na3 O142 2.440469 1_555
Na3 O28 2.461391 1_555
Na3 O98 2.461861 1_555
Na3 O100 2.503903 1_555
Na3 O138 2.680074 1_555
Na4 O101 2.370324 1_555
Na4 O97 2.570369 1_555
Na4 O138 2.595225 1_655
Na4 O25 2.634165 1_555
Na4 O140 2.847234 1_655
Na4 O66 2.945385 1_655
Na5 O96 2.402573 1_555
Na5 O140 2.486367 1_545
Na5 O26 2.532644 1_555
Na5 O98 2.544388 1_555
Na5 O142 2.855611 1_545
Na6 O130 2.414160 1_555
Na6 O86 2.593524 1_555
Na6 O85 2.639191 1_455
Na6 O56 2.863159 1_555
Na6 O14 2.891763 1_555
Na6 O128 2.925369 1_555
Na6 O42 2.950980 1_555
Na6 O28 3.010626 1_555
Na7 O131 2.414738 1_555
Na7 O87 2.585715 1_555
Na7 O29 2.655216 1_555
Na7 O15 2.689481 1_555
Na7 O84 2.748469 1_555
Na7 O129 2.798374 1_555
Na8 O126 2.449742 1_555
Na8 O89 2.592885 1_455
Na8 O86 2.625447 1_565
Na8 O130 2.783395 1_555
Na8 O58 2.866181 1_555
Na8 O16 2.904754 1_555
Na8 O25 2.969371 1_455
Na8 O45 3.055268 1_455
Na9 O127 2.447759 1_555
Na9 O88 2.640558 1_555
Na9 O24 2.699557 1_555
Na9 O131 2.804702 1_555
Na9 O59 2.805114 1_555
Na9 O87 2.832231 1_565
Na9 O44 2.905926 1_555
Na9 O17 2.950652 1_555
Na10 O128 2.381037 1_555
Na10 O126 2.618816 1_555
Na10 O84 2.743687 1_565
Na10 O26 2.787608 1_565
Na10 O88 2.855672 1_555
Na10 O46 2.957333 1_565
Na10 O54 2.994731 1_555
Na10 O12 3.002814 1_555
Na11 O129 2.431424 1_555
Na11 O85 2.570659 1_565
Na11 O13 2.688660 1_555
Na11 O89 2.700420 1_555
Na11 O27 2.797372 1_565
Na11 O127 2.825928 1_555
Na12 O122 2.386751 1_555
Na12 O94 2.553547 1_565
Na12 O91 2.693060 1_455
Na12 O22 2.754189 1_555
Na12 O32 2.771323 1_565
Na12 O124 2.819312 1_555
Na12 O52 2.918830 1_554
Na12 O36 2.957310 1_565
Na13 O123 2.421538 1_555
Na13 O53 2.643429 1_554
Na13 O95 2.738567 1_565
Na13 O125 2.755531 1_555
Na13 O90 2.783541 1_555
Na13 O37 2.921575 1_565
Na13 O33 2.980131 1_565
Na13 O23 3.045573 1_555
Na14 O124 2.420829 1_555
Na14 O90 2.597924 1_555
Na14 O92 2.696575 1_565
Na14 O120 2.740817 1_555
Na14 O18 2.769546 1_555
Na14 O34 2.827853 1_555
Na14 O38 2.864422 1_555
Na14 O48 2.937660 1_554
Na15 O125 2.387344 1_555
Na15 O121 2.647970 1_555
Na15 O91 2.726614 1_555
Na15 O93 2.784727 1_565
Na15 O49 2.846152 1_554
Na15 O39 2.874074 1_555
Na15 O35 2.907465 1_555
Na16 O120 2.493622 1_555
Na16 O50 2.651354 1_554
Na16 O93 2.656896 1_455
Na16 O31 2.738039 1_455
Na16 O122 2.798986 1_555
Na16 O41 2.847785 1_455
Na16 O94 2.854735 1_555
Na16 O20 3.013079 1_555
Na17 O121 2.453346 1_555
Na17 O51 2.617760 1_554
Na17 O123 2.672861 1_555
Na17 O95 2.698483 1_555
Na17 O92 2.738131 1_555
Na17 O40 2.902414 1_555
Na18 O110 2.482541 1_555
Na18 O81 2.567231 1_555
Na18 O8 2.578683 1_555
Na18 O82 2.629585 1_555
Na18 O108 2.785626 1_555
Na18 O38 2.867601 1_556
Na19 O111 2.436768 1_555
Na19 O9 2.441983 1_555
Na19 O83 2.688102 1_555
Na19 O109 2.699198 1_555
Na19 O39 2.773221 1_556
Na19 O80 2.781051 1_655
Na19 O66 2.968236 1_655
Na20 O79 2.399378 1_555
Na20 O10 2.458170 1_555
Na20 O110 2.542580 1_555
Na20 O112 2.689306 1_555
Na20 O40 2.694539 1_556
Na20 O82 2.746974 1_545
Na21 O111 2.450608 1_555
Na21 O78 2.467201 1_655
Na21 O113 2.490248 1_555
Na21 O11 2.521479 1_555
Na21 O83 2.769326 1_545
Na21 O41 2.836824 1_556
Na22 O78 2.521918 1_555
Na22 O80 2.600789 1_545
Na22 O6 2.639494 1_555
Na22 O108 2.700137 1_555
Na22 O112 2.706411 1_555
Na22 O36 2.738168 1_556
Na22 O50 2.962518 1_555
Na23 O81 2.481531 1_545
Na23 O37 2.574259 1_556
Na23 O109 2.580428 1_555
Na23 O79 2.589192 1_555
Na23 O113 2.618384 1_555
Na23 O7 2.923394 1_555
Na24 O118 2.392290 1_555
Na24 O46 2.597535 1_555
Na24 O4 2.600158 1_555
Na24 O114 2.722745 1_555
Na24 O77 2.765566 1_555
Na24 O74 2.778084 1_545
Na25 O119 2.507297 1_555
Na25 O76 2.580517 1_655
Na25 O75 2.595858 1_545
Na25 O47 2.616979 1_555
Na25 O5 2.728414 1_555
Na25 O115 2.761112 1_555
Na26 O42 2.450170 1_555
Na26 O76 2.464077 1_555
Na26 O72 2.592636 1_545
Na26 O114 2.634905 1_555
Na26 O116 2.668986 1_555
Na27 O43 2.504426 1_555
Na27 O73 2.632273 1_545
Na27 O115 2.656474 1_555
Na27 O77 2.657379 1_555
Na27 O117 2.709276 1_555
Na27 O59 2.825293 1_545
Na27 O1 2.856412 1_555
Na28 O73 2.417213 1_555
Na28 O116 2.442711 1_555
Na28 O118 2.464114 1_555
Na28 O44 2.510170 1_555
Na28 O74 2.761425 1_555
Na28 O2 2.992733 1_555
Na29 O72 2.402372 1_655
Na29 O45 2.536607 1_555
Na29 O119 2.558280 1_555
Na29 O3 2.576278 1_555
Na29 O117 2.705488 1_555
Na29 O75 2.740647 1_555
Na30 O86 2.467540 1_555
Na30 O85 2.565551 1_455
Na30 O89 2.574848 1_445
Na30 O76 2.748812 1_555
Na30 O72 2.803638 1_545
Na30 O75 2.963157 1_445
Na31 O88 2.542865 1_555
Na31 O87 2.560498 1_565
Na31 O73 2.571767 1_555
Na31 O84 2.688008 1_565
Na31 O77 2.835424 1_565
Na32 O78 2.391374 1_554
Na32 O93 2.652718 1_455
Na32 O80 2.719103 1_544
Na32 O94 2.725690 1_555
Na32 O91 2.832533 1_445
Na32 O83 2.851217 1_444
Na33 O81 2.498095 1_545
Na33 O79 2.585460 1_555
Na33 O95 2.695176 1_556
Na33 O82 2.733077 1_545
Na33 O92 2.832448 1_556
Na33 O90 2.858977 1_546
Na34 O96 2.370750 1_555
Na34 O100 2.379618 1_555
Na34 O110 2.595983 1_555
Na34 O98 2.642158 1_555
Na34 O112 2.988745 1_555
Na34 O108 3.013020 1_555
Na35 O97 2.482393 1_555
Na35 O101 2.499361 1_555
Na35 O113 2.560931 1_555
Na35 O111 2.614560 1_555
Na35 O99 2.805510 1_555
Na35 O109 2.842902 1_555
Na36 O116 2.465240 1_555
Na36 O118 2.503472 1_555
Na36 O104 2.543698 1_555
Na36 O114 2.599610 1_555
Na36 O102 2.787230 1_555
Na36 O106 2.809857 1_555
Na37 O103 2.400413 1_555
Na37 O105 2.400534 1_555
Na37 O119 2.549012 1_555
Na37 O107 2.659081 1_555
Na37 O117 2.945263 1_555
Na37 O115 2.976213 1_555
Na38 O120 2.519674 1_555
Na38 O124 2.568415 1_555
Na38 O122 2.603054 1_555
Na38 O136 2.729137 1_555
Na38 O132 2.741611 1_555
Na38 O134 2.820165 1_555
Na39 O121 2.536892 1_555
Na39 O135 2.550986 1_555
Na39 O133 2.563236 1_555
Na39 O125 2.573419 1_555
Na39 O137 2.586475 1_555
Na39 O123 2.587423 1_555
Na40 O140 2.511765 1_555
Na40 O138 2.549331 1_555
Na40 O142 2.554230 1_555
Na40 O130 2.586177 1_555
Na40 O126 2.593520 1_555
Na40 O128 2.643393 1_555
Na41 O127 2.607837 1_555
Na41 O129 2.620165 1_555
Na41 O139 2.644634 1_555
Na41 O143 2.652331 1_555
Na41 O141 2.684924 1_555
Na41 O131 2.747949 1_555
Nb0 O16 1.942491 1_655
Nb0 O14 1.969386 1_665
Nb0 O13 2.001152 1_555
Nb0 O89 2.044434 1_555
Nb0 O85 2.068876 1_565
Nb0 O86 2.085878 1_665
Nb1 O12 1.931458 1_555
Nb1 O88 1.934050 1_555
Nb1 O17 1.983591 1_555
Nb1 O84 2.007400 1_565
Nb1 O87 2.022477 1_565
Nb1 O15 2.340702 1_565
Nb2 O93 1.920726 1_555
Nb2 O19 1.935312 1_545
Nb2 O91 1.991744 1_545
Nb2 O20 1.995852 1_655
Nb2 O94 2.015059 1_655
Nb2 O22 2.443224 1_645
Nb3 O95 1.919903 1_555
Nb3 O21 1.943832 1_555
Nb3 O23 1.952044 1_545
Nb3 O92 2.000738 1_555
Nb3 O90 2.008838 1_545
Nb3 O18 2.423839 1_545
Nb4 O64 1.866812 1_555
Nb4 O60 1.871595 1_555
Nb4 O136 1.904306 1_555
Nb4 O134 2.266266 1_555
Nb4 O132 2.267128 1_555
Nb4 O62 2.305219 1_555
Nb5 O69 1.882141 1_555
Nb5 O141 1.909157 1_555
Nb5 O67 1.970731 1_555
Nb5 O143 1.977307 1_555
Nb5 O139 2.338556 1_555
Nb5 O71 2.403825 1_555
O0 S0 1.479003 1_545
O0 Y0 2.244873 1_545
O1 Si0 1.623053 1_555
O1 Y1 2.082615 1_555
O2 S1 1.489814 1_555
O2 Y1 2.256797 1_565
O3 Si1 1.616458 1_555
O3 Y0 2.138388 1_655
O4 Si3 1.622116 1_555
O4 Y1 2.143663 1_555
O5 Si2 1.600134 1_655
O5 Y0 2.141156 1_645
O6 Si4 1.623950 1_555
O6 Y2 2.118931 1_455
O7 S2 1.490076 1_555
O7 Y3 2.216168 1_555
O8 Si6 1.604714 1_555
O8 Y3 2.139074 1_565
O9 Si5 1.623401 1_555
O9 Y2 2.161134 1_565
O10 Si7 1.620828 1_545
O10 Y3 2.138183 1_555
O11 Si8 1.617484 1_545
O11 Y2 2.115480 1_555
O12 Si7 1.719770 1_555
O13 Si8 1.686881 1_555
O14 Si4 1.696581 1_555
O15 S2 1.496138 1_555
O16 Si5 1.696369 1_455
O17 Si6 1.682176 1_555
O18 S1 1.485634 1_555
O19 Si1 1.720666 1_555
O20 Si2 1.675199 1_555
O21 Si3 1.705729 1_555
O22 S0 1.488920 1_555
O23 Si0 1.703870 1_565
O24 Si9 1.606729 1_555
O24 Y4 2.154939 1_555
O25 Si10 1.611182 1_555
O25 Y5 2.169710 1_555
O26 Si11 1.617953 1_555
O26 Y4 2.194820 1_555
O27 Si12 1.597995 1_555
O27 Y5 2.165430 1_555
O28 Si13 1.602951 1_555
O28 Y4 2.233925 1_555
O29 Si14 1.609521 1_555
O29 Y5 2.187016 1_555
O30 Si15 1.616123 1_555
O30 Y6 2.169093 1_555
O31 Si16 1.606330 1_555
O31 Y7 2.146431 1_555
O32 Si17 1.611368 1_555
O32 Y6 2.117772 1_555
O33 Si18 1.604542 1_555
O33 Y7 2.233562 1_555
O34 Si19 1.608242 1_555
O34 Y6 2.151081 1_555
O35 Si20 1.605942 1_555
O35 Y7 2.211428 1_555
O36 Si19 1.649667 1_555
O36 Y8 2.247062 1_554
O37 Si20 1.632731 1_555
O37 Y9 2.253067 1_554
O38 Si15 1.646231 1_555
O38 Y8 2.171506 1_554
O39 Si16 1.642670 1_555
O39 Y9 2.275771 1_554
O40 Si17 1.650378 1_555
O40 Y8 2.194134 1_554
O41 Si18 1.630391 1_555
O41 Y9 2.182632 1_554
O42 Si11 1.655882 1_555
O42 Y10 2.224396 1_555
O43 Si12 1.655442 1_555
O43 Y11 2.248333 1_555
O44 Si13 1.639923 1_555
O44 Y10 2.180889 1_555
O45 Si14 1.660456 1_555
O45 Y11 2.173445 1_555
O46 Si9 1.651462 1_555
O46 Y10 2.258750 1_555
O47 Si10 1.655742 1_555
O47 Y11 2.161817 1_555
O48 S3 1.481663 1_555
O48 Y12 2.307644 1_556
O49 S4 1.485994 1_555
O49 Y13 2.318438 1_556
O50 Si21 1.637350 1_555
O50 Y12 2.137943 1_556
O51 Si22 1.618705 1_555
O51 Y13 2.158127 1_556
O52 S5 1.481354 1_555
O52 Y12 2.334088 1_556
O53 Si23 1.611449 1_555
O53 Y13 2.160262 1_556
O54 S6 1.472401 1_555
O54 Y14 2.351532 1_555
O55 S7 1.478355 1_555
O55 Y15 2.318287 1_555
O56 Si24 1.602086 1_555
O56 Y14 2.169536 1_555
O57 S8 1.471209 1_555
O57 Y15 2.363095 1_555
O58 Si25 1.601015 1_555
O58 Y14 2.169081 1_555
O59 Si26 1.633901 1_555
O59 Y15 2.169857 1_555
O60 Si25 1.760415 1_555
O61 Si26 1.642134 1_555
O61 Y16 2.165596 1_555
O62 S6 1.492062 1_555
O63 S7 1.480734 1_555
O63 Y16 2.399188 1_555
O64 Si24 1.767680 1_555
O65 S8 1.481253 1_555
O65 Y16 2.399842 1_555
O66 Si21 1.639714 1_555
O66 Y17 2.161169 1_555
O67 Si22 1.712389 1_555
O68 S5 1.478237 1_555
O68 Y17 2.412505 1_555
O69 Si23 1.739735 1_555
O70 S3 1.472734 1_555
O70 Y17 2.436476 1_555
O71 S4 1.479576 1_555
O72 Si25 1.623301 1_555
O72 Y0 2.238986 1_555
O73 Si26 1.670025 1_555
O73 Y1 2.252420 1_565
O74 S6 1.492071 1_555
O74 Y1 2.377709 1_565
O75 S7 1.490406 1_555
O75 Y0 2.406904 1_655
O76 Si24 1.625729 1_555
O76 Y0 2.264279 1_545
O77 S8 1.506297 1_555
O77 Y1 2.396581 1_555
O78 Si21 1.663171 1_555
O78 Y2 2.287340 1_455
O79 Si22 1.638805 1_555
O79 Y3 2.244016 1_555
O80 S5 1.495035 1_555
O80 Y2 2.511996 1_465
O81 Si23 1.633288 1_555
O81 Y3 2.279756 1_565
O82 S3 1.497538 1_555
O82 Y3 2.436689 1_565
O83 S4 1.489943 1_555
O83 Y2 2.422617 1_565
O84 Si9 1.679115 1_555
O85 Si10 1.665287 1_555
O86 Si11 1.671261 1_555
O87 Si12 1.684919 1_555
O88 Si13 1.707002 1_555
O89 Si14 1.669358 1_555
O90 Si15 1.675560 1_555
O91 Si16 1.685098 1_555
O92 Si17 1.673764 1_555
O93 Si18 1.713378 1_555
O94 Si19 1.687183 1_555
O95 Si20 1.707988 1_555
O96 Si7 1.614344 1_545
O96 Y4 2.257810 1_555
O97 Si8 1.609814 1_545
O97 Y5 2.269414 1_555
O98 Si4 1.617758 1_555
O98 Y4 2.279791 1_555
O99 S2 1.460088 1_555
O99 Y5 2.359663 1_555
O100 Si6 1.598434 1_555
O100 Y4 2.251321 1_555
O101 Si5 1.617699 1_555
O101 Y5 2.267291 1_555
O102 S1 1.477621 1_555
O102 Y6 2.473945 1_555
O103 Si1 1.615453 1_555
O103 Y7 2.252524 1_555
O104 Si3 1.626824 1_555
O104 Y6 2.259470 1_555
O105 Si2 1.599831 1_655
O105 Y7 2.251885 1_555
O106 S0 1.471678 1_545
O106 Y6 2.351510 1_555
O107 Si0 1.612282 1_555
O107 Y7 2.302116 1_555
O108 S3 1.495112 1_555
O108 Y8 2.455532 1_555
O109 S4 1.496827 1_555
O109 Y9 2.508195 1_555
O110 Si22 1.653442 1_555
O110 Y8 2.362954 1_555
O111 Si21 1.649815 1_655
O111 Y9 2.232186 1_555
O112 S5 1.499052 1_545
O112 Y8 2.469567 1_555
O113 Si23 1.624687 1_545
O113 Y9 2.377280 1_555
O114 S6 1.494774 1_545
O114 Y10 2.586280 1_555
O115 S7 1.495660 1_545
O115 Y11 2.484575 1_555
O116 Si24 1.626672 1_555
O116 Y10 2.436298 1_555
O117 S8 1.496485 1_555
O117 Y11 2.520530 1_555
O118 Si26 1.652263 1_555
O118 Y10 2.267957 1_555
O119 Si25 1.638408 1_655
O119 Y11 2.396734 1_555
O120 Si19 1.638639 1_555
O120 Y12 2.198527 1_555
O121 Si20 1.619810 1_555
O121 Y13 2.253474 1_555
O122 Si16 1.638030 1_455
O122 Y12 2.170816 1_555
O123 Si15 1.628974 1_555
O123 Y13 2.223036 1_555
O124 Si17 1.626904 1_565
O124 Y12 2.244226 1_555
O125 Si18 1.619898 1_565
O125 Y13 2.262780 1_555
O126 Si11 1.630112 1_565
O126 Y14 2.223796 1_555
O127 Si12 1.638498 1_565
O127 Y15 2.176108 1_555
O128 Si13 1.616501 1_555
O128 Y14 2.244685 1_555
O129 Si14 1.635700 1_555
O129 Y15 2.223231 1_555
O130 Si10 1.632397 1_455
O130 Y14 2.177607 1_555
O131 Si9 1.634481 1_555
O131 Y15 2.159901 1_555
O132 S0 1.512081 1_555
O133 Si0 1.634890 1_565
O133 Y16 2.212672 1_555
O134 S1 1.502547 1_555
O135 Si1 1.640271 1_555
O135 Y16 2.268975 1_555
O136 Si2 1.727887 1_555
O137 Si3 1.650304 1_555
O137 Y16 2.211874 1_555
O138 Si4 1.636970 1_555
O138 Y17 2.194288 1_555
O139 S2 1.495608 1_555
O140 Si5 1.654079 1_455
O140 Y17 2.192021 1_555
O141 Si6 1.703788 1_555
O142 Si7 1.635274 1_555
O142 Y17 2.275319 1_555
O143 Si8 1.695045 1_555
