# generated using pymatgen
data_Sr3MgV2O7
_symmetry_space_group_name_H-M   'P 1'
_cell_length_a   3.91524274
_cell_length_b   3.91524320
_cell_length_c   13.20994228
_cell_angle_alpha   107.02465559
_cell_angle_beta   107.02465998
_cell_angle_gamma   90.24649921
_symmetry_Int_Tables_number   1
_chemical_formula_structural   Sr3MgV2O7
_chemical_formula_sum   'Sr3 Mg1 V2 O7'
_cell_volume   184.23877237
_cell_formula_units_Z   1
loop_
 _symmetry_equiv_pos_site_id
 _symmetry_equiv_pos_as_xyz
  1  'x, y, z'
loop_
 _atom_site_type_symbol
 _atom_site_label
 _atom_site_symmetry_multiplicity
 _atom_site_fract_x
 _atom_site_fract_y
 _atom_site_fract_z
 _atom_site_occupancy
  Sr  Sr0  1  0.65715176  0.65715276  0.36437056  1
  Sr  Sr1  1  0.37468573  0.37468573  0.58686973  1
  Sr  Sr2  1  0.36689486  0.36689685  0.07223119  1
  Mg  Mg0  1  0.65861519  0.65861519  0.86879586  1
  V  V0  1  0.04252790  0.04253090  0.75393893  1
  V  V1  1  0.01108315  0.01108215  0.21722541  1
  O  O0  1  0.08775431  0.58626372  0.79799693  1
  O  O1  1  0.58626372  0.08775331  0.79799593  1
  O  O2  1  0.01056879  0.50988566  0.21564895  1
  O  O3  1  0.50988666  0.01057079  0.21564895  1
  O  O4  1  0.88135022  0.88135022  0.59410782  1
  O  O5  1  0.82236399  0.82236399  0.02923921  1
  O  O6  1  0.19084973  0.19085073  0.39842851  1
loop_
_geom_bond_atom_site_label_1
_geom_bond_atom_site_label_2
_geom_bond_distance
_geom_bond_site_symmetry_2
Mg0 O5 1.928531 1_556
Mg0 O0 2.132386 1_655
Mg0 O1 2.132390 1_565
Mg0 O0 2.136775 1_555
Mg0 O1 2.136781 1_555
O0 V0 2.027925 1_565
O0 V0 2.028044 1_555
O1 V0 2.027906 1_655
O1 V0 2.028056 1_555
O2 V1 1.956296 1_565
O2 V1 1.959139 1_555
O2 Sr2 2.604297 1_555
O2 Sr2 2.612432 1_455
O2 Sr0 2.648132 1_555
O2 Sr0 2.653709 1_455
O3 V1 1.956296 1_655
O3 V1 1.959139 1_555
O3 Sr2 2.604297 1_555
O3 Sr2 2.612433 1_545
O3 Sr0 2.648130 1_555
O3 Sr0 2.653712 1_545
O4 V0 1.921061 1_665
O4 Sr1 2.761050 1_555
O4 Sr0 2.761284 1_555
O4 Sr1 2.766755 1_665
O4 Sr1 2.775809 1_565
O4 Sr1 2.775809 1_655
O5 V1 2.259436 1_665
O5 Sr2 2.800239 1_555
O5 Sr2 2.820648 1_665
O5 Sr2 2.822165 1_655
O5 Sr2 2.822176 1_565
O6 V1 2.177876 1_555
O6 Sr1 2.264937 1_555
O6 Sr0 2.792197 1_445
O6 Sr0 2.793195 1_555
O6 Sr0 2.804478 1_455
O6 Sr0 2.804478 1_545
