# generated using pymatgen
data_Zn2Co3O8
_symmetry_space_group_name_H-M   'P 1'
_cell_length_a   5.84712170
_cell_length_b   5.74121471
_cell_length_c   9.36329455
_cell_angle_alpha   90.01961132
_cell_angle_beta   89.33406158
_cell_angle_gamma   120.38027337
_symmetry_Int_Tables_number   1
_chemical_formula_structural   Zn2Co3O8
_chemical_formula_sum   'Zn4 Co6 O16'
_cell_volume   271.13776281
_cell_formula_units_Z   2
loop_
 _symmetry_equiv_pos_site_id
 _symmetry_equiv_pos_as_xyz
  1  'x, y, z'
loop_
 _atom_site_type_symbol
 _atom_site_label
 _atom_site_symmetry_multiplicity
 _atom_site_fract_x
 _atom_site_fract_y
 _atom_site_fract_z
 _atom_site_occupancy
  Zn  Zn0  1  0.66400000  0.33559500  0.02816600  1
  Zn  Zn1  1  0.33449200  0.66731900  0.52994900  1
  Zn  Zn2  1  0.66743500  0.33805900  0.42454700  1
  Zn  Zn3  1  0.32561100  0.66131800  0.92154400  1
  Co  Co0  1  0.66907600  0.83598800  0.24449300  1
  Co  Co1  1  0.83767000  0.16203600  0.74521300  1
  Co  Co2  1  0.15844400  0.32216000  0.24125600  1
  Co  Co3  1  0.83744600  0.67294400  0.74384100  1
  Co  Co4  1  0.32995000  0.16378400  0.74492500  1
  Co  Co5  1  0.16286300  0.83314000  0.24498800  1
  O  O0  1  0.81845200  0.13798300  0.13791000  1
  O  O1  1  0.69015500  0.84379600  0.64607300  1
  O  O2  1  0.16436900  0.31881300  0.65215000  1
  O  O3  1  0.84905200  0.68016100  0.15153500  1
  O  O4  1  0.31328600  0.15789000  0.14448000  1
  O  O5  1  0.15645100  0.84505500  0.64486200  1
  O  O6  1  0.52089900  0.48285400  0.86118500  1
  O  O7  1  0.03897800  0.51392000  0.36242300  1
  O  O8  1  0.47181900  0.96474800  0.35835700  1
  O  O9  1  0.51423200  0.03583200  0.85673600  1
  O  O10  1  0.03106300  0.01742600  0.35335700  1
  O  O11  1  0.01342500  0.98960800  0.85490500  1
  O  O12  1  0.30896100  0.65176100  0.13317800  1
  O  O13  1  0.95791100  0.48260000  0.85908000  1
  O  O14  1  0.50444000  0.54459000  0.36743000  1
  O  O15  1  0.65952000  0.34062700  0.63442000  1
loop_
_geom_bond_atom_site_label_1
_geom_bond_atom_site_label_2
_geom_bond_distance
_geom_bond_site_symmetry_2
Co0 O0 1.792798 1_565
Co0 O14 1.843139 1_555
Co0 O3 1.896265 1_555
Co0 O8 1.961305 1_555
Co0 O10 2.103180 1_665
Co0 O12 2.106264 1_555
Co1 O1 1.835033 1_545
Co1 O2 1.855055 1_655
Co1 O13 1.930152 1_555
Co1 O9 1.939219 1_555
Co1 O11 2.035977 1_645
Co1 O15 2.078146 1_555
Co2 O4 1.836920 1_555
Co2 O10 1.839139 1_555
Co2 O12 1.917177 1_555
Co2 O7 1.935389 1_555
Co2 O0 1.980988 1_455
Co2 O14 2.135584 1_555
Co3 O5 1.846802 1_655
Co3 O1 1.848053 1_555
Co3 O11 1.891267 1_655
Co3 O13 1.910940 1_555
Co3 O6 1.932470 1_555
Co3 O15 1.946249 1_555
Co4 O2 1.837349 1_555
Co4 O5 1.843562 1_545
Co4 O11 1.889486 1_545
Co4 O9 1.903707 1_555
Co4 O6 1.935305 1_555
Co4 O15 1.946867 1_555
Co5 O3 1.819514 1_455
Co5 O4 1.859764 1_565
Co5 O10 1.883807 1_565
Co5 O8 1.903827 1_555
Co5 O7 1.932016 1_555
Co5 O12 1.946377 1_555
O0 Zn0 2.053623 1_555
O1 Zn1 2.110482 1_555
O2 Zn1 2.064958 1_555
O3 Zn0 2.069045 1_555
O4 Zn0 2.065162 1_555
O5 Zn1 2.080957 1_555
O6 Zn3 1.959865 1_555
O6 Zn0 2.146216 1_556
O7 Zn2 1.956977 1_455
O7 Zn1 2.178214 1_555
O8 Zn2 1.954972 1_565
O8 Zn1 2.174178 1_555
O9 Zn3 1.947957 1_545
O9 Zn0 2.193540 1_556
O12 Zn3 1.982266 1_554
O13 Zn3 1.953153 1_655
O13 Zn0 2.154718 1_556
O14 Zn2 1.937941 1_555
O14 Zn1 2.114680 1_555
O15 Zn2 1.965336 1_555
