# generated using pymatgen
data_Na2Sc4In4SiS11O48
_symmetry_space_group_name_H-M   'P 1'
_cell_length_a   17.79966075
_cell_length_b   8.89483745
_cell_length_c   23.13973654
_cell_angle_alpha   90.01147426
_cell_angle_beta   90.02803471
_cell_angle_gamma   120.08322110
_symmetry_Int_Tables_number   1
_chemical_formula_structural   Na2Sc4In4SiS11O48
_chemical_formula_sum   'Na6 Sc12 In12 Si3 S33 O144'
_cell_volume   3170.10660103
_cell_formula_units_Z   3
loop_
 _symmetry_equiv_pos_site_id
 _symmetry_equiv_pos_as_xyz
  1  'x, y, z'
loop_
 _atom_site_type_symbol
 _atom_site_label
 _atom_site_symmetry_multiplicity
 _atom_site_fract_x
 _atom_site_fract_y
 _atom_site_fract_z
 _atom_site_occupancy
  Na  Na0  1  0.00089550  0.99448514  0.49980866  1
  Na  Na1  1  0.50116905  0.01016461  0.99609173  1
  Na  Na2  1  0.33733431  0.33352404  0.83548196  1
  Na  Na3  1  0.83765119  0.34407325  0.82972788  1
  Na  Na4  1  0.33222797  0.33203084  0.33388747  1
  Na  Na5  1  0.83812803  0.34078307  0.33595636  1
  Sc  Sc0  1  0.00122490  0.99068631  0.35480824  1
  Sc  Sc1  1  0.49904504  0.99881816  0.35557966  1
  Sc  Sc2  1  -0.00008644  0.00192846  0.14493166  1
  Sc  Sc3  1  0.50012166  0.99937085  0.14781940  1
  Sc  Sc4  1  0.33200915  0.33375166  0.18424898  1
  Sc  Sc5  1  0.83472901  0.33281003  0.18418819  1
  Sc  Sc6  1  0.83386979  0.33540215  0.97999719  1
  Sc  Sc7  1  0.33246271  0.33216274  0.48288607  1
  Sc  Sc8  1  0.16508232  0.66601586  0.01950795  1
  Sc  Sc9  1  0.66684556  0.66770221  0.52324662  1
  Sc  Sc10  1  0.15888311  0.66294204  0.31445660  1
  Sc  Sc11  1  0.66746848  0.66646574  0.31226885  1
  In  In0  1  0.99957284  0.99253662  0.85126056  1
  In  In1  1  0.50054141  0.00956647  0.85254754  1
  In  In2  1  0.99979697  0.99532477  0.65217759  1
  In  In3  1  0.50032852  0.00003861  0.64676824  1
  In  In4  1  0.33269809  0.33359150  0.68482603  1
  In  In5  1  0.83786006  0.34238474  0.68658341  1
  In  In6  1  0.33737966  0.33410449  0.97979001  1
  In  In7  1  0.83793993  0.34004324  0.48152097  1
  In  In8  1  0.66453125  0.65968176  0.01758549  1
  In  In9  1  0.16360236  0.66775617  0.51922668  1
  In  In10  1  0.16236988  0.66776560  0.81081930  1
  In  In11  1  0.66415142  0.65997507  0.81467656  1
  Si  Si0  1  0.99946975  0.70692302  0.75029073  1
  Si  Si1  1  0.52044732  0.37404296  0.91663460  1
  Si  Si2  1  0.01980703  0.66431733  0.41699413  1
  S  S0  1  0.14535932  0.00115960  0.24937241  1
  S  S1  1  0.64497933  0.00059280  0.25060530  1
  S  S2  1  0.35509116  0.71027241  0.25031536  1
  S  S3  1  0.85485738  0.70946125  0.24969643  1
  S  S4  1  0.99952437  0.28807495  0.24990457  1
  S  S5  1  0.49971889  0.28951959  0.25041707  1
  S  S6  1  0.14781651  0.29446672  0.75035581  1
  S  S7  1  0.64610410  0.29147143  0.74913881  1
  S  S8  1  0.50002029  0.70945811  0.75019783  1
  S  S9  1  0.35420092  0.00066437  0.74915606  1
  S  S10  1  0.85139447  0.99756079  0.75108045  1
  S  S11  1  0.47876497  0.33317783  0.58288539  1
  S  S12  1  0.98045794  0.32929296  0.58365878  1
  S  S13  1  0.18769977  0.04258268  0.58288246  1
  S  S14  1  0.68831350  0.04386270  0.58305275  1
  S  S15  1  0.33293120  0.62536490  0.58272960  1
  S  S16  1  0.83265321  0.62764523  0.58249471  1
  S  S17  1  0.47915953  0.62650056  0.08453034  1
  S  S18  1  0.97837537  0.62374735  0.08326782  1
  S  S19  1  0.33295266  0.03989876  0.08416317  1
  S  S20  1  0.83278772  0.04235850  0.08305858  1
  S  S21  1  0.18821400  0.33378743  0.08294815  1
  S  S22  1  0.68869653  0.33274036  0.08390829  1
  S  S23  1  0.30999800  0.66582895  0.91658038  1
  S  S24  1  0.81408533  0.66812134  0.91739241  1
  S  S25  1  0.02078434  0.37275842  0.91737166  1
  S  S26  1  0.16620027  0.95710948  0.91752271  1
  S  S27  1  0.66786990  0.96102942  0.91702181  1
  S  S28  1  0.31267611  0.95870720  0.41590226  1
  S  S29  1  0.81038736  0.95422299  0.41652857  1
  S  S30  1  0.16767687  0.37593310  0.41616826  1
  S  S31  1  0.66554735  0.37699174  0.41624965  1
  S  S32  1  0.52210899  0.66607356  0.41639617  1
  O  O0  1  0.10681447  0.03331454  0.30113078  1
  O  O1  1  0.60454147  0.03006016  0.30212170  1
  O  O2  1  0.41122615  0.79100447  0.30185892  1
  O  O3  1  0.90890630  0.78799911  0.30150583  1
  O  O4  1  0.48502672  0.17947175  0.30201117  1
  O  O5  1  0.98407151  0.18000999  0.30156579  1
  O  O6  1  0.11005392  0.18763282  0.80271847  1
  O  O7  1  0.60847855  0.18277550  0.80118816  1
  O  O8  1  0.48378865  0.78621855  0.80233056  1
  O  O9  1  0.97917989  0.78396677  0.80814391  1
  O  O10  1  0.40821531  0.03405610  0.80113743  1
  O  O11  1  0.90665895  0.03483985  0.80297513  1
  O  O12  1  0.39330697  0.97366310  0.69649786  1
  O  O13  1  0.88895833  0.97035592  0.69796152  1
  O  O14  1  0.09579851  0.22167918  0.69747858  1
  O  O15  1  0.59161324  0.21382322  0.69690300  1
  O  O16  1  0.01785048  0.82106284  0.69169970  1
  O  O17  1  0.51271590  0.81366584  0.69730707  1
  O  O18  1  0.39702755  0.81834229  0.19828182  1
  O  O19  1  0.89489968  0.81711185  0.19782819  1
  O  O20  1  0.01166850  0.20525688  0.19764916  1
  O  O21  1  0.51350020  0.20935746  0.19835740  1
  O  O22  1  0.09117644  0.97505405  0.19765297  1
  O  O23  1  0.59109881  0.97298711  0.19847117  1
  O  O24  1  0.44199085  0.36689236  0.63518694  1
  O  O25  1  0.94079131  0.35868133  0.63478901  1
  O  O26  1  0.24054107  0.12110922  0.63515595  1
  O  O27  1  0.74237301  0.11906376  0.63516057  1
  O  O28  1  0.31757308  0.51834146  0.63505625  1
  O  O29  1  0.81545946  0.51956705  0.63419587  1
  O  O30  1  0.43635110  0.51516163  0.13592482  1
  O  O31  1  0.93762203  0.51290625  0.13517115  1
  O  O32  1  0.31987867  0.12341890  0.13589375  1
  O  O33  1  0.81925325  0.12547727  0.13513966  1
  O  O34  1  0.24390937  0.36260201  0.13498865  1
  O  O35  1  0.74266591  0.35530816  0.13586340  1
  O  O36  1  0.22647550  0.30024971  0.03143084  1
  O  O37  1  0.72804700  0.30272920  0.03207002  1
  O  O38  1  0.42493373  0.55453204  0.03261480  1
  O  O39  1  0.92288024  0.54237798  0.03199062  1
  O  O40  1  0.35032908  0.14812362  0.03237784  1
  O  O41  1  0.84786001  0.15370287  0.03186279  1
  O  O42  1  0.23136774  0.15465621  0.53102541  1
  O  O43  1  0.72668194  0.15188943  0.53057610  1
  O  O44  1  0.34721265  0.54051156  0.53134175  1
  O  O45  1  0.84804584  0.55046189  0.53047912  1
  O  O46  1  0.42289216  0.30553277  0.53145164  1
  O  O47  1  0.92619128  0.29530792  0.53108071  1
  O  O48  1  0.26947215  0.69281651  0.96906692  1
  O  O49  1  0.77574382  0.69685318  0.96988811  1
  O  O50  1  0.07532726  0.45748231  0.96942315  1
  O  O51  1  0.57709903  0.45011565  0.97558636  1
  O  O52  1  0.15453474  0.84725169  0.96956148  1
  O  O53  1  0.65392145  0.85817501  0.97007009  1
  O  O54  1  0.27793579  0.85476147  0.46881149  1
  O  O55  1  0.77022857  0.84651507  0.46848866  1
  O  O56  1  0.15324960  0.44903419  0.46934793  1
  O  O57  1  0.65232011  0.45757546  0.46807143  1
  O  O58  1  0.07886134  0.70611349  0.47405771  1
  O  O59  1  0.57570392  0.69367057  0.46817688  1
  O  O60  1  0.06608890  0.63689180  0.35959698  1
  O  O61  1  0.56218057  0.63704703  0.36425648  1
  O  O62  1  0.25840602  0.87940590  0.36431415  1
  O  O63  1  0.75650730  0.87152008  0.36416059  1
  O  O64  1  0.18336374  0.48468375  0.36445936  1
  O  O65  1  0.67966683  0.48723713  0.36416474  1
  O  O66  1  0.05756968  0.48050721  0.86570364  1
  O  O67  1  0.55998859  0.49121737  0.85897048  1
  O  O68  1  0.18383301  0.88319213  0.86596427  1
  O  O69  1  0.68545977  0.89030299  0.86458541  1
  O  O70  1  0.25783735  0.63926253  0.86396818  1
  O  O71  1  0.76083293  0.63316252  0.86496396  1
  O  O72  1  0.01013479  0.83864970  0.40788995  1
  O  O73  1  0.51251928  0.82075240  0.40725520  1
  O  O74  1  0.40034492  0.98026088  0.40621737  1
  O  O75  1  0.89790244  0.97535097  0.40941350  1
  O  O76  1  0.08957740  0.20165975  0.40862437  1
  O  O77  1  0.58750561  0.20365960  0.40694987  1
  O  O78  1  0.01147208  0.19937892  0.91063264  1
  O  O79  1  0.51010098  0.17944205  0.91366345  1
  O  O80  1  0.08854834  0.97439619  0.91274476  1
  O  O81  1  0.58902917  0.97594231  0.91091784  1
  O  O82  1  0.39820379  0.82030801  0.91195987  1
  O  O83  1  0.90023284  0.82343271  0.91188866  1
  O  O84  1  0.48737689  0.17756536  0.58939195  1
  O  O85  1  0.98882565  0.17048057  0.58972525  1
  O  O86  1  0.10176817  0.03035969  0.58596144  1
  O  O87  1  0.60087206  0.02296963  0.59012586  1
  O  O88  1  0.41177047  0.79757933  0.58926028  1
  O  O89  1  0.90990548  0.80366824  0.58732428  1
  O  O90  1  0.48792672  0.80203203  0.09303525  1
  O  O91  1  0.98738333  0.79649475  0.09294340  1
  O  O92  1  0.41136482  0.02129480  0.09285400  1
  O  O93  1  0.91067392  0.02553943  0.09272566  1
  O  O94  1  0.10164226  0.17911582  0.09337052  1
  O  O95  1  0.60071660  0.17490080  0.09160380  1
  O  O96  1  0.34563705  0.15951770  0.74331594  1
  O  O97  1  0.84070429  0.15213074  0.74453583  1
  O  O98  1  0.23556430  0.30897947  0.74445902  1
  O  O99  1  0.73191719  0.30428504  0.74299470  1
  O  O100  1  0.42050096  0.53299862  0.74422250  1
  O  O101  1  0.91154634  0.51309662  0.74693717  1
  O  O102  1  0.34689742  0.53466583  0.24263274  1
  O  O103  1  0.84451329  0.53280330  0.24193137  1
  O  O104  1  0.42153754  0.30877786  0.24272892  1
  O  O105  1  0.92117645  0.30886672  0.24168104  1
  O  O106  1  0.23384415  0.15957817  0.24186116  1
  O  O107  1  0.73280276  0.15680065  0.24278133  1
  O  O108  1  0.31756699  0.50792271  0.92302948  1
  O  O109  1  0.82221930  0.50838874  0.92565953  1
  O  O110  1  0.42362664  0.35516015  0.92006170  1
  O  O111  1  0.93295548  0.35492476  0.92625052  1
  O  O112  1  0.24388232  0.13268191  0.92418335  1
  O  O113  1  0.74610518  0.13844992  0.92501669  1
  O  O114  1  0.32286691  0.13593187  0.42341115  1
  O  O115  1  0.81760536  0.12712040  0.42180617  1
  O  O116  1  0.24622243  0.35562246  0.42323737  1
  O  O117  1  0.74255765  0.35553861  0.42174492  1
  O  O118  1  0.43383022  0.50967701  0.42342689  1
  O  O119  1  0.92281068  0.49144463  0.41927275  1
  O  O120  1  0.17936289  0.48894947  0.07483549  1
  O  O121  1  0.68085209  0.48924309  0.07900951  1
  O  O122  1  0.06469750  0.64152822  0.07466723  1
  O  O123  1  0.56597351  0.64672470  0.07909151  1
  O  O124  1  0.25566663  0.86699107  0.07593929  1
  O  O125  1  0.75498162  0.86893406  0.07592427  1
  O  O126  1  0.18123683  0.87219439  0.57686422  1
  O  O127  1  0.67870364  0.86917047  0.57347530  1
  O  O128  1  0.25542551  0.64256673  0.57425805  1
  O  O129  1  0.75430442  0.64428004  0.57320816  1
  O  O130  1  0.06699623  0.48409402  0.57713513  1
  O  O131  1  0.56518760  0.48820583  0.57311078  1
  O  O132  1  0.15617880  0.84860390  0.25702677  1
  O  O133  1  0.65410842  0.84545200  0.25921441  1
  O  O134  1  0.26902041  0.69127917  0.25835891  1
  O  O135  1  0.76776611  0.69008163  0.25868748  1
  O  O136  1  0.07755963  0.46121691  0.25647479  1
  O  O137  1  0.57712977  0.46329812  0.25905021  1
  O  O138  1  0.15933253  0.46826923  0.75742316  1
  O  O139  1  0.65586838  0.46487673  0.75505412  1
  O  O140  1  0.08486317  0.68896801  0.75577259  1
  O  O141  1  0.57811733  0.69430669  0.75549872  1
  O  O142  1  0.26910436  0.84526725  0.75618862  1
  O  O143  1  0.76520498  0.83951648  0.75859022  1
loop_
_geom_bond_atom_site_label_1
_geom_bond_atom_site_label_2
_geom_bond_distance
_geom_bond_site_symmetry_2
Na0 O72 2.588459 1_555
Na0 O86 2.592635 1_565
Na0 O89 2.617938 1_455
Na0 O85 2.676225 1_465
Na0 O76 2.725474 1_565
Na0 O75 2.729166 1_455
Na1 O79 2.385773 1_555
Na1 O82 2.625485 1_545
Na1 O81 2.627329 1_545
Na1 O95 2.750161 1_556
Na1 O92 2.782154 1_556
Na1 O90 2.842493 1_546
Na2 O110 2.434598 1_555
Na2 O100 2.677738 1_555
Na2 O108 2.679695 1_555
Na2 O96 2.682181 1_555
Na2 O112 2.682715 1_555
Na2 O98 2.713849 1_555
Na3 O101 2.383619 1_555
Na3 O97 2.625966 1_555
Na3 O99 2.650197 1_555
Na3 O109 2.746095 1_555
Na3 O111 2.776266 1_555
Na3 O113 2.807060 1_555
Na4 O116 2.643343 1_555
Na4 O114 2.659322 1_555
Na4 O118 2.681506 1_555
Na4 O106 2.693759 1_555
Na4 O102 2.702960 1_555
Na4 O104 2.711475 1_555
Na5 O119 2.399136 1_555
Na5 O115 2.645355 1_555
Na5 O117 2.660599 1_555
Na5 O105 2.729168 1_555
Na5 O103 2.733312 1_555
Na5 O107 2.785721 1_555
In0 O9 1.973000 1_555
In0 O83 2.166602 1_555
In0 O6 2.173040 1_665
In0 O11 2.178848 1_565
In0 O80 2.193736 1_655
In0 O78 2.219313 1_665
In1 O79 2.013269 1_555
In1 O7 2.124325 1_555
In1 O10 2.126119 1_555
In1 O8 2.188784 1_545
In1 O81 2.205650 1_545
In1 O82 2.229634 1_545
In2 O16 1.960066 1_655
In2 O14 2.149610 1_665
In2 O13 2.151018 1_555
In2 O85 2.204425 1_565
In2 O89 2.231696 1_555
In2 O86 2.274886 1_665
In3 O15 2.121718 1_555
In3 O17 2.128699 1_545
In3 O12 2.135945 1_545
In3 O87 2.144477 1_555
In3 O88 2.156329 1_545
In3 O84 2.162132 1_555
In4 O26 2.114969 1_555
In4 O28 2.131498 1_555
In4 O98 2.136420 1_555
In4 O24 2.148540 1_555
In4 O96 2.154133 1_555
In4 O100 2.166902 1_555
In5 O101 1.994277 1_555
In5 O25 2.133108 1_555
In5 O99 2.176402 1_555
In5 O29 2.177741 1_555
In5 O97 2.179769 1_555
In5 O27 2.205192 1_555
In6 O110 2.003983 1_555
In6 O112 2.154768 1_555
In6 O40 2.157150 1_556
In6 O38 2.168178 1_556
In6 O108 2.187876 1_555
In6 O36 2.195906 1_556
In7 O119 2.033189 1_555
In7 O45 2.116657 1_555
In7 O47 2.136840 1_555
In7 O43 2.165998 1_555
In7 O115 2.222270 1_555
In7 O117 2.246563 1_555
In8 O51 1.982597 1_554
In8 O49 2.142946 1_554
In8 O53 2.167167 1_554
In8 O121 2.201113 1_555
In8 O125 2.207132 1_555
In8 O123 2.217260 1_555
In9 O58 1.999630 1_555
In9 O130 2.146662 1_555
In9 O126 2.147199 1_555
In9 O128 2.169864 1_555
In9 O56 2.188728 1_555
In9 O54 2.208810 1_555
In10 O140 1.954619 1_555
In10 O138 2.140385 1_555
In10 O142 2.167082 1_555
In10 O68 2.170401 1_555
In10 O66 2.180658 1_555
In10 O70 2.212324 1_555
In11 O67 1.988387 1_555
In11 O143 2.143238 1_555
In11 O139 2.163102 1_555
In11 O141 2.186424 1_555
In11 O71 2.186785 1_555
In11 O69 2.212355 1_555
O0 S0 1.477948 1_555
O0 Sc0 2.122957 1_545
O1 S1 1.482457 1_555
O1 Sc1 2.147745 1_545
O2 S2 1.488540 1_555
O2 Sc1 2.122735 1_555
O3 S3 1.474988 1_555
O3 Sc0 2.121082 1_655
O4 S5 1.481901 1_555
O4 Sc1 2.140865 1_545
O5 S4 1.471181 1_555
O5 Sc0 2.227752 1_645
O6 S6 1.477784 1_555
O7 S7 1.478516 1_555
O8 S8 1.484141 1_555
O9 Si0 1.624936 1_555
O10 S9 1.473716 1_555
O11 S10 1.480294 1_545
O12 S9 1.481637 1_565
O13 S10 1.476256 1_555
O14 S6 1.473494 1_555
O15 S7 1.485166 1_555
O16 Si0 1.626012 1_455
O17 S8 1.482850 1_555
O18 S2 1.487595 1_555
O18 Sc3 2.089085 1_555
O19 S3 1.477329 1_555
O19 Sc2 2.148745 1_665
O20 S4 1.486952 1_455
O20 Sc2 2.102926 1_555
O21 S5 1.481571 1_555
O21 Sc3 2.113268 1_545
O22 S0 1.480059 1_565
O22 Sc2 2.138162 1_565
O23 S1 1.482590 1_565
O23 Sc3 2.104850 1_555
O24 S11 1.476651 1_555
O25 S12 1.467101 1_555
O26 S13 1.474984 1_555
O27 S14 1.476643 1_555
O28 S15 1.478832 1_555
O29 S16 1.467977 1_555
O30 S17 1.490153 1_555
O30 Sc4 2.074091 1_555
O31 S18 1.491659 1_555
O31 Sc5 2.066020 1_555
O32 S19 1.487337 1_555
O32 Sc4 2.095888 1_555
O33 S20 1.495158 1_555
O33 Sc5 2.062680 1_555
O34 S21 1.497522 1_555
O34 Sc4 2.055733 1_555
O35 S22 1.487925 1_555
O35 Sc5 2.074327 1_555
O36 S21 1.475883 1_555
O37 S22 1.479477 1_555
O37 Sc6 2.130240 1_554
O38 S17 1.470947 1_555
O39 S18 1.479606 1_555
O39 Sc6 2.102402 1_554
O40 S19 1.469898 1_555
O41 S20 1.480091 1_555
O41 Sc6 2.125654 1_554
O42 S13 1.504133 1_555
O42 Sc7 2.031295 1_555
O43 S14 1.485806 1_555
O44 S15 1.496837 1_555
O44 Sc7 2.066808 1_555
O45 S16 1.477727 1_555
O46 S11 1.489825 1_555
O46 Sc7 2.071338 1_555
O47 S12 1.486806 1_555
O48 S23 1.492438 1_555
O48 Sc8 2.104730 1_556
O49 S24 1.477227 1_555
O50 S25 1.492045 1_555
O50 Sc8 2.088680 1_556
O51 Si1 1.627815 1_555
O52 S26 1.498428 1_555
O52 Sc8 2.067293 1_556
O53 S27 1.475968 1_555
O54 S28 1.471114 1_555
O55 S29 1.479592 1_555
O55 Sc9 2.142522 1_555
O56 S30 1.473231 1_555
O57 S31 1.475216 1_555
O57 Sc9 2.168986 1_555
O58 Si2 1.610389 1_555
O59 S32 1.473087 1_555
O59 Sc9 2.163973 1_555
O60 Si2 1.644556 1_555
O60 Sc10 1.868416 1_555
O61 S32 1.488749 1_555
O61 Sc11 2.130385 1_555
O62 S28 1.473475 1_555
O62 Sc10 2.180378 1_555
O63 S29 1.490156 1_555
O63 Sc11 2.092758 1_555
O64 S30 1.474914 1_555
O64 Sc10 2.176141 1_555
O65 S31 1.493670 1_555
O65 Sc11 2.092423 1_555
O66 S25 1.465879 1_555
O67 Si1 1.621161 1_555
O68 S26 1.470062 1_555
O69 S27 1.470910 1_555
O70 S23 1.476082 1_555
O71 S24 1.473161 1_555
O72 Si2 1.657195 1_555
O72 Sc0 1.891607 1_555
O73 S32 1.484029 1_555
O73 Sc1 2.092198 1_555
O74 S28 1.490805 1_555
O74 Sc1 2.048914 1_555
O75 S29 1.481808 1_555
O75 Sc0 2.179065 1_655
O76 S30 1.484996 1_555
O76 Sc0 2.141036 1_545
O77 S31 1.485087 1_555
O77 Sc1 2.081641 1_545
O78 S25 1.474357 1_555
O79 Si1 1.647778 1_555
O80 S26 1.469422 1_555
O81 S27 1.480991 1_555
O82 S23 1.483901 1_555
O83 S24 1.467166 1_555
O84 S11 1.474720 1_555
O85 S12 1.499448 1_555
O86 S13 1.479806 1_555
O87 S14 1.481242 1_555
O88 S15 1.477588 1_555
O89 S16 1.481934 1_555
O90 S17 1.502132 1_555
O90 Sc3 2.086166 1_555
O91 S18 1.479760 1_555
O91 Sc2 2.103865 1_665
O92 S19 1.499037 1_555
O92 Sc3 2.111543 1_545
O93 S20 1.483918 1_555
O93 Sc2 2.087878 1_655
O94 S21 1.483446 1_555
O94 Sc2 2.080408 1_555
O95 S22 1.500477 1_555
O95 Sc3 2.129870 1_545
O96 S9 1.501326 1_555
O97 S10 1.487195 1_545
O98 S6 1.507595 1_555
O99 S7 1.480533 1_555
O100 S8 1.502873 1_555
O101 Si0 1.650005 1_555
O102 S2 1.504717 1_555
O102 Sc4 2.147792 1_555
O103 S3 1.498371 1_555
O103 Sc5 2.160649 1_555
O104 S5 1.495425 1_555
O104 Sc4 2.184696 1_555
O105 S4 1.507827 1_555
O105 Sc5 2.123579 1_555
O106 S0 1.507269 1_555
O106 Sc4 2.125974 1_555
O107 S1 1.493288 1_555
O107 Sc5 2.176368 1_555
O108 S23 1.484234 1_555
O109 S24 1.510802 1_555
O109 Sc6 2.076517 1_555
O110 Si1 1.647567 1_555
O111 S25 1.504352 1_655
O111 Sc6 2.093492 1_555
O112 S26 1.486412 1_545
O113 S27 1.503463 1_545
O113 Sc6 2.093217 1_555
O114 S28 1.503755 1_545
O114 Sc7 2.160947 1_555
O115 S29 1.482689 1_545
O116 S30 1.505668 1_555
O116 Sc7 2.150392 1_555
O117 S31 1.481089 1_555
O118 S32 1.496563 1_555
O118 Sc7 2.188347 1_555
O119 Si2 1.639109 1_655
O120 S21 1.477467 1_555
O120 Sc8 2.141513 1_555
O121 S22 1.471429 1_555
O122 S18 1.477213 1_455
O122 Sc8 2.116943 1_555
O123 S17 1.468860 1_555
O124 S19 1.473981 1_565
O124 Sc8 2.146613 1_555
O125 S20 1.477419 1_565
O126 S13 1.467893 1_565
O127 S14 1.492051 1_565
O127 Sc9 2.055854 1_555
O128 S15 1.475273 1_555
O129 S16 1.489804 1_555
O129 Sc9 2.031471 1_555
O130 S12 1.471540 1_455
O131 S11 1.480847 1_555
O131 Sc9 2.064264 1_555
O132 S0 1.473717 1_565
O132 Sc10 2.139173 1_555
O133 S1 1.481633 1_565
O133 Sc11 2.116222 1_555
O134 S2 1.466669 1_555
O134 Sc10 2.258097 1_555
O135 S3 1.486116 1_555
O135 Sc11 2.096392 1_555
O136 S4 1.476284 1_455
O136 Sc10 2.123275 1_555
O137 S5 1.480599 1_555
O137 Sc11 2.109955 1_555
O138 S6 1.463177 1_555
O139 S7 1.469395 1_555
O140 Si0 1.610931 1_455
O141 S8 1.467393 1_555
O142 S9 1.460392 1_565
O143 S10 1.482659 1_555
