# generated using pymatgen
data_Na4Mg(Ni2O5)2
_symmetry_space_group_name_H-M   'P 1'
_cell_length_a   5.02200680
_cell_length_b   6.36669539
_cell_length_c   7.04017126
_cell_angle_alpha   109.56765302
_cell_angle_beta   96.46682706
_cell_angle_gamma   104.42437551
_symmetry_Int_Tables_number   1
_chemical_formula_structural   Na4Mg(Ni2O5)2
_chemical_formula_sum   'Na4 Mg1 Ni4 O10'
_cell_volume   200.61648875
_cell_formula_units_Z   1
loop_
 _symmetry_equiv_pos_site_id
 _symmetry_equiv_pos_as_xyz
  1  'x, y, z'
loop_
 _atom_site_type_symbol
 _atom_site_label
 _atom_site_symmetry_multiplicity
 _atom_site_fract_x
 _atom_site_fract_y
 _atom_site_fract_z
 _atom_site_occupancy
  Na  Na0  1  0.36928942  0.28288241  0.74941634  1
  Na  Na1  1  0.57405324  0.71657271  0.17741367  1
  Na  Na2  1  0.78148461  0.08984488  0.54788172  1
  Na  Na3  1  0.98160929  0.52116309  0.98803812  1
  Mg  Mg0  1  0.18087484  0.40381417  0.36260026  1
  Ni  Ni0  1  0.37690789  0.79910804  0.76402777  1
  Ni  Ni1  1  0.97676167  0.00208465  0.96197513  1
  Ni  Ni2  1  0.77640154  0.60116685  0.56841903  1
  Ni  Ni3  1  0.57746475  0.20893295  0.16195682  1
  O  O0  1  0.06887667  0.90703404  0.69408415  1
  O  O1  1  0.08162800  0.50165776  0.65773753  1
  O  O2  1  0.28719936  0.88633379  0.02944026  1
  O  O3  1  0.29035977  0.32694686  0.07991603  1
  O  O4  1  0.48948966  0.72496754  0.50636731  1
  O  O5  1  0.66224684  0.67199007  0.82930032  1
  O  O6  1  0.51699423  0.30330186  0.45798299  1
  O  O7  1  0.66203882  0.09902755  0.86918606  1
  O  O8  1  0.85835781  0.53374556  0.30317915  1
  O  O9  1  0.86897356  0.08277820  0.22164534  1
loop_
_geom_bond_atom_site_label_1
_geom_bond_atom_site_label_2
_geom_bond_distance
_geom_bond_site_symmetry_2
Na0 O6 2.291336 1_555
Na0 O3 2.340003 1_556
Na0 O7 2.341344 1_555
Na0 O0 2.366119 1_545
Na0 O5 2.383807 1_555
Na0 O1 2.416260 1_555
Na1 O8 2.326153 1_555
Na1 O9 2.327224 1_565
Na1 O2 2.349588 1_555
Na1 O3 2.352213 1_555
Na1 O4 2.386733 1_555
Na1 O5 2.474717 1_554
Na2 O6 2.301718 1_555
Na2 O4 2.320321 1_545
Na2 O9 2.374472 1_555
Na2 O7 2.390523 1_555
Na2 O0 2.408715 1_645
Na2 O1 2.480860 1_655
Na3 O2 2.348021 1_656
Na3 O8 2.350941 1_556
Na3 O3 2.369935 1_656
Na3 O1 2.403295 1_655
Na3 O5 2.413650 1_555
Na3 O7 2.557593 1_555
Mg0 O8 2.056548 1_455
Mg0 O3 2.056854 1_555
Mg0 O6 2.068922 1_555
Mg0 O4 2.070956 1_555
Mg0 O9 2.076573 1_455
Mg0 O1 2.115361 1_555
Ni0 O5 1.896881 1_555
Ni0 O2 1.903164 1_556
Ni0 O4 1.903525 1_555
Ni0 O0 1.921524 1_555
Ni0 O7 1.922693 1_565
Ni0 O1 1.935726 1_555
Ni1 O9 1.905607 1_556
Ni1 O0 1.925799 1_645
Ni1 O7 1.956858 1_555
Ni1 O2 1.959411 1_646
Ni1 O3 2.092808 1_656
Ni1 O5 2.117314 1_545
Ni2 O6 1.857793 1_555
Ni2 O4 1.882256 1_555
Ni2 O8 1.888075 1_555
Ni2 O1 1.918325 1_655
Ni2 O5 1.927818 1_555
Ni2 O0 1.964835 1_655
Ni3 O3 1.902598 1_555
Ni3 O9 1.907403 1_555
Ni3 O8 2.026935 1_555
Ni3 O2 2.032807 1_545
Ni3 O6 2.047267 1_555
Ni3 O7 2.073058 1_554
