# generated using pymatgen
data_YbCl2
_symmetry_space_group_name_H-M   'P 1'
_cell_length_a   6.63542200
_cell_length_b   6.85063800
_cell_length_c   13.04745300
_cell_angle_alpha   90.00000000
_cell_angle_beta   90.00000000
_cell_angle_gamma   90.00000000
_symmetry_Int_Tables_number   1
_chemical_formula_structural   YbCl2
_chemical_formula_sum   'Yb8 Cl16'
_cell_volume   593.09642834
_cell_formula_units_Z   8
loop_
 _symmetry_equiv_pos_site_id
 _symmetry_equiv_pos_as_xyz
  1  'x, y, z'
loop_
 _atom_site_type_symbol
 _atom_site_label
 _atom_site_symmetry_multiplicity
 _atom_site_fract_x
 _atom_site_fract_y
 _atom_site_fract_z
 _atom_site_occupancy
  Yb  Yb0  1  0.73233400  0.04463000  0.38767700  1
  Yb  Yb1  1  0.23233400  0.95537000  0.11232300  1
  Yb  Yb2  1  0.76766600  0.54463000  0.61232300  1
  Yb  Yb3  1  0.26766600  0.45537000  0.88767700  1
  Yb  Yb4  1  0.26766600  0.95537000  0.61232300  1
  Yb  Yb5  1  0.76766600  0.04463000  0.88767700  1
  Yb  Yb6  1  0.23233400  0.45537000  0.38767700  1
  Yb  Yb7  1  0.73233400  0.54463000  0.11232300  1
  Cl  Cl0  1  0.99987900  0.23781600  0.52765000  1
  Cl  Cl1  1  0.49987900  0.76218400  0.97235000  1
  Cl  Cl2  1  0.50012100  0.73781600  0.47235000  1
  Cl  Cl3  1  0.00012100  0.26218400  0.02765000  1
  Cl  Cl4  1  0.00012100  0.76218400  0.47235000  1
  Cl  Cl5  1  0.50012100  0.23781600  0.02765000  1
  Cl  Cl6  1  0.49987900  0.26218400  0.52765000  1
  Cl  Cl7  1  0.99987900  0.73781600  0.97235000  1
  Cl  Cl8  1  0.86284100  0.87904200  0.20857800  1
  Cl  Cl9  1  0.36284100  0.12095800  0.29142200  1
  Cl  Cl10  1  0.63715900  0.37904200  0.79142200  1
  Cl  Cl11  1  0.13715900  0.62095800  0.70857800  1
  Cl  Cl12  1  0.13715900  0.12095800  0.79142200  1
  Cl  Cl13  1  0.63715900  0.87904200  0.70857800  1
  Cl  Cl14  1  0.36284100  0.62095800  0.20857800  1
  Cl  Cl15  1  0.86284100  0.37904200  0.29142200  1
loop_
_geom_bond_atom_site_label_1
_geom_bond_atom_site_label_2
_geom_bond_distance
_geom_bond_site_symmetry_2
Cl0 Yb6 2.817037 1_655
Cl0 Yb2 2.830642 1_555
Cl0 Yb4 2.849875 1_645
Cl0 Yb0 2.870270 1_555
Cl1 Yb7 2.817037 1_556
Cl1 Yb3 2.830642 1_555
Cl1 Yb5 2.849875 1_565
Cl1 Yb1 2.870270 1_556
Cl2 Yb4 2.817037 1_555
Cl2 Yb0 2.830642 1_565
Cl2 Yb6 2.849875 1_555
Cl2 Yb2 2.870270 1_555
Cl3 Yb5 2.817037 1_454
Cl3 Yb1 2.830642 1_545
Cl3 Yb7 2.849875 1_455
Cl3 Yb3 2.870270 1_554
Cl4 Yb2 2.817037 1_455
Cl4 Yb6 2.830642 1_555
Cl4 Yb0 2.849875 1_465
Cl4 Yb4 2.870270 1_555
Cl5 Yb3 2.817037 1_554
Cl5 Yb7 2.830642 1_555
Cl5 Yb1 2.849875 1_545
Cl5 Yb5 2.870270 1_554
Cl6 Yb0 2.817037 1_555
Cl6 Yb4 2.830642 1_545
Cl6 Yb2 2.849875 1_555
Cl6 Yb6 2.870270 1_555
Cl7 Yb1 2.817037 1_656
Cl7 Yb5 2.830642 1_565
Cl7 Yb3 2.849875 1_655
Cl7 Yb7 2.870270 1_556
Cl8 Yb0 2.738119 1_565
Cl8 Yb7 2.752368 1_555
Cl8 Yb1 2.803872 1_655
Cl9 Yb1 2.738119 1_545
Cl9 Yb6 2.752368 1_555
Cl9 Yb0 2.803872 1_555
Cl10 Yb2 2.738119 1_555
Cl10 Yb5 2.752368 1_555
Cl10 Yb3 2.803872 1_555
Cl11 Yb3 2.738119 1_555
Cl11 Yb4 2.752368 1_555
Cl11 Yb2 2.803872 1_455
Cl12 Yb4 2.738119 1_545
Cl12 Yb3 2.752368 1_555
Cl12 Yb5 2.803872 1_455
Cl13 Yb5 2.738119 1_565
Cl13 Yb2 2.752368 1_555
Cl13 Yb4 2.803872 1_555
Cl14 Yb6 2.738119 1_555
Cl14 Yb1 2.752368 1_555
Cl14 Yb7 2.803872 1_555
Cl15 Yb7 2.738119 1_555
Cl15 Yb0 2.752368 1_555
Cl15 Yb6 2.803872 1_655
