# generated using pymatgen
data_Na14Ca2Hf6Si9(SO16)3
_symmetry_space_group_name_H-M   'P 1'
_cell_length_a   18.52808455
_cell_length_b   9.28748254
_cell_length_c   22.83484203
_cell_angle_alpha   90.03492090
_cell_angle_beta   90.05591647
_cell_angle_gamma   120.05757199
_symmetry_Int_Tables_number   1
_chemical_formula_structural   Na14Ca2Hf6Si9(SO16)3
_chemical_formula_sum   'Na42 Ca6 Hf18 Si27 S9 O144'
_cell_volume   3400.98236258
_cell_formula_units_Z   3
loop_
 _symmetry_equiv_pos_site_id
 _symmetry_equiv_pos_as_xyz
  1  'x, y, z'
loop_
 _atom_site_type_symbol
 _atom_site_label
 _atom_site_symmetry_multiplicity
 _atom_site_fract_x
 _atom_site_fract_y
 _atom_site_fract_z
 _atom_site_occupancy
  Na  Na0  1  0.31144833  0.00211659  0.24556625  1
  Na  Na1  1  0.81716335  0.01649278  0.24763441  1
  Na  Na2  1  0.18781976  0.36507269  0.25337074  1
  Na  Na3  1  0.69519897  0.36802246  0.24988869  1
  Na  Na4  1  0.99133839  0.61910609  0.25532583  1
  Na  Na5  1  0.49552505  0.63846388  0.24814243  1
  Na  Na6  1  0.31725054  0.61764057  0.74143676  1
  Na  Na7  1  0.81192986  0.62253421  0.74144049  1
  Na  Na8  1  0.99372032  0.34533575  0.74272998  1
  Na  Na9  1  0.49292845  0.36813325  0.75164667  1
  Na  Na10  1  0.19526312  0.02633520  0.74526914  1
  Na  Na11  1  0.68992279  0.01001052  0.74953047  1
  Na  Na12  1  0.15681180  0.34027152  0.58582285  1
  Na  Na13  1  0.66106488  0.35735743  0.57822462  1
  Na  Na14  1  0.01083704  0.69005867  0.57884696  1
  Na  Na15  1  0.51248139  0.69282248  0.57225835  1
  Na  Na16  1  0.32686235  0.96385123  0.58363010  1
  Na  Na17  1  0.83155587  0.95574787  0.57340819  1
  Na  Na18  1  0.16019512  0.96515472  0.08447671  1
  Na  Na19  1  0.65843551  0.97416090  0.08901070  1
  Na  Na20  1  0.33428441  0.70590935  0.08547778  1
  Na  Na21  1  0.82653258  0.68969314  0.08720673  1
  Na  Na22  1  0.01085978  0.32793371  0.07722499  1
  Na  Na23  1  0.51400902  0.33531744  0.08333020  1
  Na  Na24  1  0.98516712  0.67041953  0.91855269  1
  Na  Na25  1  0.34985924  0.03870890  0.91319177  1
  Na  Na26  1  0.16054618  0.29229943  0.91458274  1
  Na  Na27  1  0.48845567  0.30466594  0.41840999  1
  Na  Na28  1  0.66802671  0.02984905  0.41392013  1
  Na  Na29  1  0.84807606  0.67276201  0.41913634  1
  Na  Na30  1  0.99760795  0.99533377  0.49652647  1
  Na  Na31  1  0.49250072  0.98219341  0.49265390  1
  Na  Na32  1  0.98924100  0.00028176  0.99437126  1
  Na  Na33  1  0.50798335  0.01658163  0.00322037  1
  Na  Na34  1  0.33754034  0.33780369  0.82518132  1
  Na  Na35  1  0.82700309  0.31939780  0.83132763  1
  Na  Na36  1  0.32732916  0.33456704  0.33226672  1
  Na  Na37  1  0.83656719  0.32943667  0.32957323  1
  Na  Na38  1  0.17394471  0.68093376  0.17127431  1
  Na  Na39  1  0.67107323  0.67920573  0.16775098  1
  Na  Na40  1  0.16965279  0.66116284  0.66047893  1
  Na  Na41  1  0.67626521  0.66842918  0.66609294  1
  Ca  Ca0  1  0.32857658  0.33329756  0.68429911  1
  Ca  Ca1  1  0.83683005  0.33427254  0.68186424  1
  Ca  Ca2  1  0.33641574  0.33686833  0.18366739  1
  Ca  Ca3  1  0.82813722  0.32287721  0.18563128  1
  Ca  Ca4  1  0.16507588  0.67080721  0.01160035  1
  Ca  Ca5  1  0.66963532  0.66598113  0.50910710  1
  Hf  Hf0  1  0.99888251  0.99705720  0.35165518  1
  Hf  Hf1  1  0.49617310  0.98319081  0.35544194  1
  Hf  Hf2  1  0.99509585  0.00731650  0.85542117  1
  Hf  Hf3  1  0.50429772  0.00976383  0.85001742  1
  Hf  Hf4  1  0.99786090  0.01137468  0.64361884  1
  Hf  Hf5  1  0.49609349  0.98877397  0.65334110  1
  Hf  Hf6  1  0.99550871  0.00253332  0.15444801  1
  Hf  Hf7  1  0.49918244  0.98700639  0.14553571  1
  Hf  Hf8  1  0.34266509  0.32845051  0.98103642  1
  Hf  Hf9  1  0.82825407  0.32137513  0.97945238  1
  Hf  Hf10  1  0.32829381  0.33513230  0.47942303  1
  Hf  Hf11  1  0.84336739  0.34955622  0.47677217  1
  Hf  Hf12  1  0.66800547  0.65682113  0.01650716  1
  Hf  Hf13  1  0.16799560  0.67875569  0.51590591  1
  Hf  Hf14  1  0.16630667  0.68034908  0.31314983  1
  Hf  Hf15  1  0.67132466  0.67843944  0.32042156  1
  Hf  Hf16  1  0.16507604  0.66805885  0.81622332  1
  Hf  Hf17  1  0.66622200  0.65195505  0.81278378  1
  Si  Si0  1  0.14500848  0.99911786  0.24949162  1
  Si  Si1  1  0.64301887  0.99003315  0.25222659  1
  Si  Si2  1  0.35129650  0.70974052  0.24930915  1
  Si  Si3  1  0.84968813  0.70651672  0.25263197  1
  Si  Si4  1  0.00496707  0.29915478  0.25228379  1
  Si  Si5  1  0.14301304  0.29341754  0.75303843  1
  Si  Si6  1  0.64644506  0.29376757  0.74828990  1
  Si  Si7  1  0.50413086  0.71139087  0.75354482  1
  Si  Si8  1  0.35126774  0.99310741  0.75358467  1
  Si  Si9  1  0.85127772  0.99316053  0.74979719  1
  Si  Si10  1  0.98450883  0.33921689  0.58346587  1
  Si  Si11  1  0.18500207  0.03559485  0.58513912  1
  Si  Si12  1  0.33524452  0.63660778  0.58312319  1
  Si  Si13  1  0.83203444  0.63187573  0.58658025  1
  Si  Si14  1  0.48388634  0.63138469  0.08253317  1
  Si  Si15  1  0.33311789  0.02898275  0.08604253  1
  Si  Si16  1  0.83566571  0.03391787  0.08232200  1
  Si  Si17  1  0.68521788  0.33413323  0.08447150  1
  Si  Si18  1  0.81354656  0.66048432  0.91618374  1
  Si  Si19  1  0.01513954  0.36925915  0.91877330  1
  Si  Si20  1  0.52050198  0.36796893  0.91577489  1
  Si  Si21  1  0.16669348  0.97089098  0.91712213  1
  Si  Si22  1  0.31398257  0.96670045  0.41630812  1
  Si  Si23  1  0.82141743  0.97598223  0.41896122  1
  Si  Si24  1  0.66532378  0.36431209  0.41703175  1
  Si  Si25  1  0.02177357  0.67431655  0.41539471  1
  Si  Si26  1  0.51473750  0.65968962  0.41860154  1
  S  S0  1  0.50355697  0.29077189  0.25111437  1
  S  S1  1  0.00370088  0.71482256  0.75245861  1
  S  S2  1  0.48003268  0.32849934  0.58396795  1
  S  S3  1  0.68121380  0.03627682  0.58382732  1
  S  S4  1  0.97974837  0.63107361  0.08319760  1
  S  S5  1  0.18320014  0.32780342  0.08177640  1
  S  S6  1  0.31638754  0.66605811  0.91654648  1
  S  S7  1  0.66592379  0.95743113  0.91628418  1
  S  S8  1  0.16708460  0.37650332  0.41618051  1
  O  O0  1  0.09404789  0.01761576  0.30385575  1
  O  O1  1  0.59283545  0.01024786  0.30702366  1
  O  O2  1  0.41239106  0.81776441  0.30249644  1
  O  O3  1  0.90907486  0.80666461  0.30850724  1
  O  O4  1  0.49439541  0.18974721  0.30368140  1
  O  O5  1  0.99430892  0.17290920  0.30479248  1
  O  O6  1  0.09425764  0.17489814  0.80877254  1
  O  O7  1  0.59466232  0.17511961  0.80402458  1
  O  O8  1  0.49321992  0.81459056  0.80742381  1
  O  O9  1  0.99539298  0.79772350  0.80508648  1
  O  O10  1  0.40851720  0.00826255  0.81107612  1
  O  O11  1  0.91190631  0.00801663  0.80360711  1
  O  O12  1  0.39713336  0.96573174  0.69501718  1
  O  O13  1  0.89581206  0.96762842  0.69070633  1
  O  O14  1  0.08581193  0.20364796  0.69386826  1
  O  O15  1  0.58747552  0.20318346  0.68972290  1
  O  O16  1  0.01508337  0.81470617  0.69866538  1
  O  O17  1  0.51654669  0.82653020  0.69337545  1
  O  O18  1  0.39476901  0.82161419  0.18885916  1
  O  O19  1  0.89589249  0.82660024  0.19341493  1
  O  O20  1  0.01755240  0.21086683  0.19087995  1
  O  O21  1  0.51170213  0.20821551  0.19713439  1
  O  O22  1  0.08819965  0.97256844  0.18868287  1
  O  O23  1  0.58666555  0.97022184  0.19227565  1
  O  O24  1  0.44190935  0.34629207  0.63748858  1
  O  O25  1  0.95898285  0.38568685  0.64524713  1
  O  O26  1  0.23886468  0.08914075  0.64472559  1
  O  O27  1  0.72927775  0.10876779  0.63753192  1
  O  O28  1  0.31528834  0.53704976  0.64414981  1
  O  O29  1  0.81788848  0.52714495  0.64609676  1
  O  O30  1  0.45574041  0.52696199  0.14253197  1
  O  O31  1  0.94128806  0.53576079  0.13636913  1
  O  O32  1  0.31374887  0.10580561  0.14279087  1
  O  O33  1  0.81523391  0.09466855  0.14270563  1
  O  O34  1  0.23230442  0.35132510  0.13516932  1
  O  O35  1  0.74000705  0.38882567  0.14311873  1
  O  O36  1  0.22658508  0.31113344  0.02876866  1
  O  O37  1  0.73517947  0.30181458  0.03018672  1
  O  O38  1  0.41489628  0.52924985  0.02959649  1
  O  O39  1  0.92750709  0.54666172  0.02996797  1
  O  O40  1  0.34488484  0.15237296  0.02726271  1
  O  O41  1  0.85201914  0.16840510  0.02877640  1
  O  O42  1  0.23581828  0.16953393  0.53176937  1
  O  O43  1  0.72338165  0.13968451  0.53140258  1
  O  O44  1  0.35154889  0.53393817  0.53030931  1
  O  O45  1  0.84365044  0.53229769  0.52910008  1
  O  O46  1  0.42699505  0.30650157  0.53128043  1
  O  O47  1  0.91613922  0.30590822  0.53164219  1
  O  O48  1  0.28293669  0.69513786  0.96906352  1
  O  O49  1  0.76948770  0.69007154  0.97328905  1
  O  O50  1  0.06929952  0.43031215  0.97810512  1
  O  O51  1  0.57562520  0.46277117  0.97317559  1
  O  O52  1  0.14731731  0.86620519  0.97680584  1
  O  O53  1  0.65653701  0.85862318  0.96938949  1
  O  O54  1  0.27019841  0.84942516  0.47370148  1
  O  O55  1  0.78773687  0.86573073  0.47740749  1
  O  O56  1  0.15849738  0.45808575  0.46948104  1
  O  O57  1  0.63988480  0.42145629  0.47661598  1
  O  O58  1  0.07641610  0.68665831  0.47310670  1
  O  O59  1  0.56639196  0.70217440  0.47901690  1
  O  O60  1  0.06573939  0.64583984  0.35757109  1
  O  O61  1  0.56477364  0.63316358  0.36258099  1
  O  O62  1  0.25641646  0.87248833  0.35838317  1
  O  O63  1  0.75586490  0.87528488  0.36260959  1
  O  O64  1  0.17827297  0.47809032  0.36317844  1
  O  O65  1  0.68173358  0.49495047  0.36163884  1
  O  O66  1  0.06793273  0.49948455  0.86362114  1
  O  O67  1  0.56434617  0.48053186  0.85737808  1
  O  O68  1  0.18489810  0.87367804  0.86200579  1
  O  O69  1  0.67639124  0.87820244  0.86319088  1
  O  O70  1  0.26082169  0.64397008  0.86425828  1
  O  O71  1  0.75576136  0.63986237  0.85846828  1
  O  O72  1  0.00867009  0.83601313  0.41258133  1
  O  O73  1  0.50575124  0.82530714  0.40828561  1
  O  O74  1  0.40998932  0.00134066  0.41011462  1
  O  O75  1  0.91253433  0.99323022  0.40828190  1
  O  O76  1  0.09343116  0.20857364  0.41196647  1
  O  O77  1  0.58482438  0.17919173  0.40423320  1
  O  O78  1  0.00585550  0.18572750  0.90828001  1
  O  O79  1  0.50343659  0.17457549  0.91353436  1
  O  O80  1  0.08435240  0.98827318  0.90557313  1
  O  O81  1  0.59116494  0.97789321  0.91221210  1
  O  O82  1  0.40075837  0.81328104  0.90790791  1
  O  O83  1  0.90972534  0.81820720  0.91016666  1
  O  O84  1  0.48717598  0.17304865  0.58639591  1
  O  O85  1  0.98930470  0.16456330  0.58628269  1
  O  O86  1  0.09274028  0.02052356  0.59075779  1
  O  O87  1  0.59720654  0.02859419  0.58705034  1
  O  O88  1  0.42209766  0.82612804  0.58627033  1
  O  O89  1  0.92163918  0.81407812  0.58895965  1
  O  O90  1  0.48811558  0.81466734  0.08589529  1
  O  O91  1  0.98735477  0.80059640  0.08518518  1
  O  O92  1  0.42305094  0.03098732  0.08748193  1
  O  O93  1  0.92266912  0.01825945  0.08534142  1
  O  O94  1  0.09988836  0.16878222  0.08453984  1
  O  O95  1  0.59257670  0.16459975  0.08935218  1
  O  O96  1  0.34525346  0.15931018  0.75276043  1
  O  O97  1  0.84323108  0.15904796  0.75081329  1
  O  O98  1  0.23564424  0.31767767  0.75352986  1
  O  O99  1  0.73773774  0.31401086  0.75094362  1
  O  O100  1  0.42376986  0.52810454  0.75051715  1
  O  O101  1  0.93098031  0.54683691  0.75003161  1
  O  O102  1  0.34335956  0.52790359  0.25019456  1
  O  O103  1  0.84436842  0.52873346  0.25112376  1
  O  O104  1  0.42903598  0.30965743  0.24868039  1
  O  O105  1  0.92478632  0.32228826  0.24922006  1
  O  O106  1  0.23766766  0.16035429  0.25028634  1
  O  O107  1  0.73500932  0.15164241  0.25276849  1
  O  O108  1  0.31928735  0.50803190  0.91935116  1
  O  O109  1  0.82478881  0.49609853  0.92513350  1
  O  O110  1  0.42528470  0.34481219  0.92184069  1
  O  O111  1  0.92542376  0.36495268  0.92188278  1
  O  O112  1  0.25036142  0.16066221  0.92258983  1
  O  O113  1  0.74199035  0.12678902  0.92130161  1
  O  O114  1  0.32414073  0.15253316  0.42571510  1
  O  O115  1  0.81923490  0.15046340  0.42279788  1
  O  O116  1  0.24401188  0.36132285  0.42155019  1
  O  O117  1  0.75038635  0.35077476  0.42345807  1
  O  O118  1  0.42392638  0.48524663  0.42226886  1
  O  O119  1  0.92691770  0.51020298  0.42107829  1
  O  O120  1  0.17044180  0.47189040  0.07711304  1
  O  O121  1  0.66918570  0.49254746  0.07236898  1
  O  O122  1  0.06392088  0.65022308  0.07862091  1
  O  O123  1  0.57864195  0.66889018  0.06817232  1
  O  O124  1  0.25570881  0.83906401  0.07956152  1
  O  O125  1  0.75402442  0.84840853  0.06996551  1
  O  O126  1  0.16994789  0.84613204  0.57282002  1
  O  O127  1  0.66662232  0.86480564  0.57931541  1
  O  O128  1  0.25382181  0.65943180  0.57130300  1
  O  O129  1  0.75214064  0.66099501  0.58288509  1
  O  O130  1  0.07993768  0.49105990  0.56973296  1
  O  O131  1  0.56412572  0.47723349  0.57917513  1
  O  O132  1  0.14989134  0.82485391  0.25333026  1
  O  O133  1  0.64595137  0.81384338  0.25593430  1
  O  O134  1  0.25928769  0.69501918  0.25495259  1
  O  O135  1  0.75708651  0.69290946  0.25548705  1
  O  O136  1  0.09279012  0.47834158  0.25704376  1
  O  O137  1  0.58062050  0.45771870  0.25439395  1
  O  O138  1  0.14866319  0.47875343  0.75932562  1
  O  O139  1  0.65028803  0.47597600  0.75317099  1
  O  O140  1  0.08224393  0.70246758  0.75707805  1
  O  O141  1  0.59149976  0.70690572  0.75861415  1
  O  O142  1  0.25902350  0.82031266  0.75788551  1
  O  O143  1  0.75883473  0.82455547  0.75616264  1
loop_
_geom_bond_atom_site_label_1
_geom_bond_atom_site_label_2
_geom_bond_distance
_geom_bond_site_symmetry_2
Na0 O106 2.460234 1_555
Na0 O134 2.520850 1_545
Na0 O32 2.529582 1_555
Na0 O104 2.583744 1_555
Na0 O132 2.601291 1_545
Na0 O62 2.811561 1_545
Na1 O107 2.412537 1_555
Na1 O33 2.509454 1_555
Na1 O105 2.523922 1_555
Na1 O135 2.636829 1_545
Na1 O133 2.768038 1_545
Na1 O63 2.901849 1_545
Na2 O136 2.463631 1_555
Na2 O106 2.496404 1_555
Na2 O102 2.496423 1_555
Na2 O134 2.660841 1_555
Na2 O64 2.757528 1_555
Na2 O34 2.844323 1_555
Na3 O103 2.394725 1_555
Na3 O107 2.464133 1_555
Na3 O35 2.552377 1_555
Na3 O135 2.639902 1_555
Na3 O137 2.642584 1_555
Na3 O65 2.873286 1_555
Na4 O105 2.394437 1_555
Na4 O103 2.416332 1_555
Na4 O132 2.580806 1_655
Na4 O60 2.657660 1_655
Na4 O136 2.775899 1_655
Na4 O31 2.848014 1_555
Na5 O133 2.429771 1_555
Na5 O102 2.470937 1_555
Na5 O30 2.580772 1_555
Na5 O104 2.659867 1_555
Na5 O137 2.824055 1_555
Na5 O61 2.921344 1_555
Na5 O23 2.961356 1_555
Na5 O2 3.042499 1_555
Na6 O28 2.338229 1_555
Na6 O98 2.430182 1_555
Na6 O100 2.504601 1_555
Na6 O142 2.623402 1_555
Na6 O138 2.748558 1_555
Na7 O29 2.373430 1_555
Na7 O99 2.490554 1_555
Na7 O143 2.539692 1_555
Na7 O139 2.610053 1_555
Na7 O101 2.636468 1_555
Na7 O71 2.902218 1_555
Na7 O13 3.008012 1_555
Na8 O25 2.397839 1_555
Na8 O97 2.443530 1_555
Na8 O138 2.520783 1_655
Na8 O101 2.657182 1_555
Na8 O14 2.852913 1_655
Na8 O140 2.889115 1_655
Na9 O100 2.399387 1_555
Na9 O96 2.435755 1_555
Na9 O139 2.565039 1_555
Na9 O67 2.697550 1_555
Na9 O141 2.739131 1_555
Na9 O24 2.744538 1_555
Na10 O26 2.407741 1_555
Na10 O96 2.416247 1_555
Na10 O98 2.426527 1_555
Na10 O140 2.682852 1_545
Na10 O142 2.721067 1_545
Na10 O68 2.980881 1_545
Na11 O97 2.458958 1_555
Na11 O141 2.480353 1_545
Na11 O99 2.500330 1_555
Na11 O143 2.612053 1_545
Na11 O27 2.692609 1_555
Na11 O69 2.827600 1_545
Na12 O130 2.474414 1_555
Na12 O86 2.590366 1_555
Na12 O128 2.606201 1_555
Na12 O85 2.687374 1_455
Na12 O14 2.786702 1_555
Na12 O56 2.868011 1_555
Na12 O28 2.889538 1_555
Na12 O42 2.916721 1_555
Na13 O129 2.458399 1_555
Na13 O57 2.475023 1_555
Na13 O131 2.543459 1_555
Na13 O87 2.673184 1_555
Na13 O84 2.796799 1_555
Na13 O15 2.906405 1_555
Na13 O29 2.954615 1_555
Na13 O43 2.983504 1_555
Na14 O89 2.453295 1_455
Na14 O126 2.555632 1_555
Na14 O86 2.670069 1_565
Na14 O58 2.711372 1_555
Na14 O130 2.732900 1_555
Na14 O45 2.911559 1_455
Na14 O25 2.915566 1_455
Na14 O16 2.955797 1_555
Na15 O59 2.335814 1_555
Na15 O127 2.482492 1_555
Na15 O88 2.552862 1_555
Na15 O131 2.620880 1_555
Na15 O87 2.719747 1_565
Na15 O44 2.751558 1_555
Na15 O17 3.016374 1_555
Na16 O128 2.463673 1_555
Na16 O126 2.554002 1_555
Na16 O84 2.611515 1_565
Na16 O88 2.648418 1_555
Na16 O54 2.721521 1_555
Na16 O26 2.803856 1_565
Na16 O12 2.852298 1_555
Na17 O55 2.340518 1_555
Na17 O129 2.381635 1_555
Na17 O85 2.590300 1_565
Na17 O89 2.615806 1_555
Na17 O127 2.735962 1_555
Na17 O13 2.909583 1_555
Na17 O47 2.973724 1_565
Na18 O122 2.554894 1_555
Na18 O124 2.567495 1_555
Na18 O52 2.592850 1_554
Na18 O94 2.634755 1_565
Na18 O22 2.746690 1_555
Na18 O91 2.772853 1_455
Na18 O32 2.800256 1_565
Na19 O123 2.499714 1_555
Na19 O125 2.600551 1_555
Na19 O95 2.603713 1_565
Na19 O23 2.699526 1_555
Na19 O90 2.733958 1_555
Na19 O33 2.816068 1_565
Na19 O53 2.927862 1_554
Na19 O37 2.959836 1_565
Na20 O124 2.338908 1_555
Na20 O90 2.501993 1_555
Na20 O18 2.601718 1_555
Na20 O92 2.616843 1_565
Na20 O120 2.713805 1_555
Na20 O48 2.807327 1_554
Na21 O125 2.473082 1_555
Na21 O121 2.572272 1_555
Na21 O91 2.620622 1_555
Na21 O93 2.653659 1_565
Na21 O19 2.739227 1_555
Na21 O35 2.743929 1_555
Na21 O49 2.807527 1_554
Na22 O50 2.485053 1_554
Na22 O93 2.503947 1_455
Na22 O120 2.563184 1_555
Na22 O122 2.641798 1_555
Na22 O94 2.715857 1_555
Na22 O41 2.775624 1_455
Na22 O20 2.840936 1_555
Na23 O92 2.463130 1_555
Na23 O121 2.501495 1_555
Na23 O95 2.638920 1_555
Na23 O123 2.727170 1_555
Na23 O51 2.772559 1_554
Na23 O30 2.843581 1_555
Na23 O21 2.846395 1_555
Na23 O40 3.000208 1_555
Na24 O83 2.407523 1_555
Na24 O111 2.476758 1_555
Na24 O109 2.579827 1_555
Na24 O80 2.597565 1_655
Na24 O39 2.777399 1_556
Na24 O9 2.815545 1_555
Na24 O52 2.935757 1_655
Na24 O66 2.980836 1_655
Na25 O79 2.468253 1_555
Na25 O110 2.468426 1_555
Na25 O112 2.611430 1_555
Na25 O10 2.647716 1_555
Na25 O82 2.695390 1_545
Na25 O40 2.828855 1_556
Na25 O68 2.890521 1_545
Na26 O80 2.452308 1_545
Na26 O112 2.516960 1_555
Na26 O78 2.524338 1_555
Na26 O108 2.602439 1_555
Na26 O6 2.680424 1_555
Na26 O36 2.846959 1_556
Na27 O74 2.445767 1_555
Na27 O118 2.501748 1_555
Na27 O77 2.595372 1_555
Na27 O114 2.642921 1_555
Na27 O57 2.785210 1_555
Na27 O46 2.822240 1_555
Na27 O4 2.851223 1_555
Na27 O61 2.935894 1_555
Na28 O115 2.449428 1_555
Na28 O77 2.547713 1_555
Na28 O117 2.588880 1_555
Na28 O73 2.634888 1_545
Na28 O1 2.769671 1_555
Na28 O43 2.869247 1_555
Na28 O63 2.902441 1_545
Na29 O119 2.573806 1_555
Na29 O72 2.580060 1_655
Na29 O75 2.605198 1_555
Na29 O117 2.609064 1_555
Na29 O3 2.794105 1_555
Na29 O45 2.812647 1_555
Na29 O55 2.870443 1_555
Na29 O65 2.973332 1_555
Na30 O72 2.491386 1_655
Na30 O75 2.551134 1_555
Na30 O89 2.628048 1_555
Na30 O85 2.633173 1_565
Na30 O76 2.700344 1_665
Na30 O86 2.714871 1_665
Na31 O74 2.487623 1_565
Na31 O73 2.500148 1_555
Na31 O88 2.547059 1_555
Na31 O77 2.688184 1_565
Na31 O87 2.783671 1_565
Na31 O84 2.811545 1_565
Na32 O93 2.464810 1_556
Na32 O83 2.494407 1_545
Na32 O78 2.529830 1_655
Na32 O80 2.726355 1_645
Na32 O94 2.768628 1_656
Na32 O91 2.771442 1_546
Na33 O95 2.459073 1_555
Na33 O92 2.532368 1_555
Na33 O79 2.545894 1_554
Na33 O90 2.555459 1_545
Na33 O81 2.717209 1_544
Na33 O82 2.911663 1_544
Na34 O96 2.395372 1_555
Na34 O100 2.400723 1_555
Na34 O98 2.432351 1_555
Na34 O110 2.721361 1_555
Na34 O112 2.759114 1_555
Na34 O108 2.787618 1_555
Na35 O99 2.453218 1_555
Na35 O97 2.476844 1_555
Na35 O111 2.645540 1_555
Na35 O113 2.662776 1_555
Na35 O109 2.710459 1_555
Na35 O101 2.748597 1_555
Na36 O106 2.485912 1_555
Na36 O102 2.509112 1_555
Na36 O118 2.620258 1_555
Na36 O116 2.644085 1_555
Na36 O114 2.705508 1_555
Na36 O104 2.773242 1_555
Na37 O105 2.481369 1_555
Na37 O107 2.494142 1_555
Na37 O103 2.528350 1_555
Na37 O115 2.620813 1_555
Na37 O119 2.675913 1_555
Na37 O117 2.740103 1_555
Na38 O134 2.440308 1_555
Na38 O132 2.468088 1_555
Na38 O124 2.572735 1_555
Na38 O136 2.610211 1_555
Na38 O122 2.849851 1_555
Na38 O120 2.874921 1_555
Na39 O135 2.521904 1_555
Na39 O133 2.533153 1_555
Na39 O125 2.721968 1_555
Na39 O137 2.740900 1_555
Na39 O121 2.772162 1_555
Na39 O123 2.817857 1_555
Na40 O128 2.571018 1_555
Na40 O130 2.628967 1_555
Na40 O126 2.636801 1_555
Na40 O142 2.722322 1_555
Na40 O138 2.731740 1_555
Na40 O140 2.874712 1_555
Na41 O129 2.386116 1_555
Na41 O143 2.537949 1_555
Na41 O139 2.554344 1_555
Na41 O127 2.759530 1_555
Na41 O141 2.761448 1_555
Na41 O131 2.775099 1_555
Ca0 O26 2.222682 1_555
Ca0 O28 2.224973 1_555
Ca0 O98 2.289185 1_555
Ca0 O24 2.305892 1_555
Ca0 O100 2.337831 1_555
Ca0 O96 2.377571 1_555
Ca1 O29 2.151736 1_555
Ca1 O25 2.229588 1_555
Ca1 O27 2.279227 1_555
Ca1 O97 2.310291 1_555
Ca1 O99 2.356785 1_555
Ca1 O101 2.429928 1_555
Ca2 O32 2.178732 1_555
Ca2 O30 2.232310 1_555
Ca2 O34 2.284929 1_555
Ca2 O102 2.289086 1_555
Ca2 O106 2.313657 1_555
Ca2 O104 2.375423 1_555
Ca3 O35 2.232342 1_555
Ca3 O33 2.235973 1_555
Ca3 O107 2.261863 1_555
Ca3 O105 2.306487 1_555
Ca3 O103 2.324214 1_555
Ca3 O31 2.329112 1_555
Ca4 O52 2.152271 1_554
Ca4 O50 2.178928 1_554
Ca4 O124 2.243538 1_555
Ca4 O48 2.296370 1_554
Ca4 O122 2.353374 1_555
Ca4 O120 2.418245 1_555
Ca5 O55 2.166106 1_555
Ca5 O57 2.180590 1_555
Ca5 O59 2.210463 1_555
Ca5 O129 2.289801 1_555
Ca5 O131 2.455851 1_555
Ca5 O127 2.466382 1_555
Hf0 O3 1.978267 1_555
Hf0 O5 1.990052 1_565
Hf0 O0 2.000889 1_665
Hf0 O75 2.044499 1_555
Hf0 O72 2.116432 1_655
Hf0 O76 2.317163 1_665
Hf1 O2 1.958785 1_555
Hf1 O73 1.974876 1_555
Hf1 O1 2.011587 1_565
Hf1 O77 2.061961 1_565
Hf1 O74 2.100031 1_565
Hf1 O4 2.268100 1_565
Hf2 O11 1.944775 1_555
Hf2 O78 1.976980 1_655
Hf2 O6 2.018414 1_655
Hf2 O80 2.089794 1_645
Hf2 O83 2.091186 1_545
Hf2 O9 2.262378 1_545
Hf3 O7 1.922078 1_555
Hf3 O8 1.974498 1_545
Hf3 O10 1.977962 1_555
Hf3 O79 2.113933 1_555
Hf3 O81 2.273394 1_545
Hf3 O82 2.293197 1_545
Hf4 O85 1.997819 1_555
Hf4 O13 2.032529 1_545
Hf4 O14 2.059068 1_655
Hf4 O89 2.076393 1_545
Hf4 O86 2.099812 1_655
Hf4 O16 2.367279 1_645
Hf5 O17 1.955227 1_555
Hf5 O12 1.980891 1_555
Hf5 O15 2.034712 1_565
Hf5 O88 2.103711 1_555
Hf5 O87 2.291307 1_565
Hf5 O84 2.362030 1_565
Hf6 O20 1.951525 1_655
Hf6 O19 1.962685 1_545
Hf6 O22 2.028402 1_645
Hf6 O93 2.127552 1_555
Hf6 O94 2.385429 1_655
Hf6 O91 2.398714 1_545
Hf7 O23 2.010141 1_555
Hf7 O18 2.027208 1_555
Hf7 O90 2.031427 1_555
Hf7 O92 2.118513 1_565
Hf7 O95 2.123345 1_565
Hf7 O21 2.276415 1_565
Hf8 O40 1.964580 1_556
Hf8 O110 1.991185 1_555
Hf8 O38 1.998242 1_556
Hf8 O112 2.111331 1_555
Hf8 O36 2.344747 1_556
Hf8 O108 2.383023 1_555
Hf9 O37 2.009815 1_556
Hf9 O41 2.026942 1_556
Hf9 O109 2.069439 1_555
Hf9 O111 2.099673 1_555
Hf9 O113 2.164081 1_555
Hf9 O39 2.286652 1_556
Hf10 O42 2.023956 1_555
Hf10 O44 2.035810 1_555
Hf10 O114 2.062182 1_555
Hf10 O118 2.078157 1_555
Hf10 O116 2.149648 1_555
Hf10 O46 2.302286 1_555
Hf11 O119 1.983006 1_555
Hf11 O47 2.024115 1_555
Hf11 O45 2.072903 1_555
Hf11 O115 2.075082 1_555
Hf11 O117 2.113195 1_555
Hf11 O43 2.442397 1_555
Hf12 O121 1.997771 1_555
Hf12 O49 2.006750 1_554
Hf12 O51 2.015235 1_554
Hf12 O123 2.082171 1_555
Hf12 O125 2.085449 1_555
Hf12 O53 2.261962 1_554
Hf13 O58 1.990286 1_555
Hf13 O54 2.006423 1_555
Hf13 O126 2.011948 1_555
Hf13 O130 2.090205 1_555
Hf13 O128 2.107927 1_555
Hf13 O56 2.234010 1_555
Hf14 O60 2.002358 1_555
Hf14 O62 2.012114 1_555
Hf14 O132 2.042032 1_555
Hf14 O136 2.109590 1_555
Hf14 O134 2.126515 1_555
Hf14 O64 2.302655 1_555
Hf15 O63 1.962185 1_555
Hf15 O65 2.039116 1_555
Hf15 O61 2.042950 1_555
Hf15 O135 2.128971 1_555
Hf15 O133 2.136360 1_555
Hf15 O137 2.416620 1_555
Hf16 O66 2.011269 1_555
Hf16 O68 2.041801 1_555
Hf16 O138 2.081477 1_555
Hf16 O142 2.084513 1_555
Hf16 O140 2.183878 1_555
Hf16 O70 2.189582 1_555
Hf17 O71 2.009115 1_555
Hf17 O139 2.030905 1_555
Hf17 O67 2.032220 1_555
Hf17 O141 2.100587 1_555
Hf17 O143 2.106463 1_555
Hf17 O69 2.318565 1_555
O0 Si0 1.620685 1_545
O1 Si1 1.625528 1_545
O2 Si2 1.618997 1_555
O3 Si3 1.635348 1_555
O4 S0 1.480623 1_555
O5 Si4 1.619154 1_655
O6 Si5 1.629496 1_555
O7 Si6 1.643030 1_555
O8 Si7 1.632898 1_555
O9 S1 1.476029 1_655
O10 Si8 1.648001 1_545
O11 Si9 1.622514 1_545
O12 Si8 1.671417 1_555
O13 Si9 1.659988 1_555
O14 Si5 1.659702 1_555
O15 Si6 1.662852 1_555
O16 S1 1.489908 1_555
O17 Si7 1.685284 1_555
O18 Si2 1.673117 1_555
O19 Si3 1.689040 1_555
O20 Si4 1.698092 1_555
O21 S0 1.498384 1_555
O22 Si0 1.683305 1_555
O23 Si1 1.674089 1_555
O24 S2 1.462266 1_555
O25 Si10 1.614076 1_555
O26 Si11 1.610585 1_555
O27 S3 1.465089 1_555
O28 Si12 1.610500 1_555
O29 Si13 1.615164 1_555
O30 Si14 1.608093 1_555
O31 S4 1.461743 1_555
O32 Si15 1.604162 1_555
O33 Si16 1.605278 1_555
O34 S5 1.469823 1_555
O35 Si17 1.600611 1_555
O36 S5 1.503859 1_555
O37 Si17 1.662437 1_555
O38 Si14 1.666098 1_555
O39 S4 1.505095 1_555
O40 Si15 1.707206 1_555
O41 Si16 1.664453 1_555
O42 Si11 1.658294 1_555
O43 S3 1.489101 1_555
O44 Si12 1.656138 1_555
O45 Si13 1.680143 1_555
O46 S2 1.500388 1_555
O47 Si10 1.644642 1_555
O48 S6 1.436638 1_555
O49 Si18 1.633597 1_555
O50 Si19 1.609498 1_555
O51 Si20 1.622201 1_555
O52 Si21 1.607642 1_555
O53 S7 1.478104 1_555
O54 Si22 1.637290 1_555
O55 Si23 1.606951 1_555
O56 S8 1.483505 1_555
O57 Si24 1.614313 1_555
O58 Si25 1.629666 1_555
O59 Si26 1.610388 1_555
O60 Si25 1.641480 1_555
O61 Si26 1.669517 1_555
O62 Si22 1.647341 1_555
O63 Si23 1.692108 1_555
O64 S8 1.484557 1_555
O65 Si24 1.672594 1_555
O66 Si19 1.680720 1_555
O67 Si20 1.638318 1_555
O68 Si21 1.678524 1_555
O69 S7 1.480288 1_555
O70 S6 1.520975 1_555
O71 Si18 1.646638 1_555
O72 Si25 1.638187 1_555
O73 Si26 1.645020 1_555
O74 Si22 1.647719 1_545
O75 Si23 1.632533 1_555
O76 S8 1.473607 1_555
O77 Si24 1.641865 1_555
O78 Si19 1.642616 1_555
O79 Si20 1.661221 1_555
O80 Si21 1.633744 1_555
O81 S7 1.492257 1_555
O82 S6 1.487263 1_555
O83 Si18 1.651067 1_555
O84 S2 1.515417 1_555
O85 Si10 1.669646 1_555
O86 Si11 1.648932 1_555
O87 S3 1.523863 1_555
O88 Si12 1.689716 1_555
O89 Si13 1.675768 1_555
O90 Si14 1.666087 1_555
O91 S4 1.509440 1_555
O92 Si15 1.657334 1_555
O93 Si16 1.690888 1_555
O94 S5 1.511467 1_555
O95 Si17 1.652600 1_555
O96 Si8 1.602444 1_545
O97 Si9 1.620651 1_545
O98 Si5 1.615267 1_555
O99 Si6 1.606654 1_555
O100 Si7 1.606270 1_555
O101 S1 1.465116 1_655
O102 Si2 1.620299 1_555
O103 Si3 1.604407 1_555
O104 S0 1.477408 1_555
O105 Si4 1.605492 1_655
O106 Si0 1.617013 1_545
O107 Si1 1.610979 1_545
O108 S6 1.496707 1_555
O109 Si18 1.653760 1_555
O110 Si20 1.672797 1_555
O111 Si19 1.644199 1_655
O112 Si21 1.669578 1_545
O113 S7 1.500762 1_545
O114 Si22 1.653610 1_545
O115 Si23 1.643405 1_545
O116 S8 1.505795 1_555
O117 Si24 1.649040 1_555
O118 Si26 1.653051 1_555
O119 Si25 1.657129 1_655
O120 S5 1.474796 1_555
O121 Si17 1.663543 1_555
O122 S4 1.482315 1_455
O123 Si14 1.643106 1_555
O124 Si15 1.629488 1_565
O125 Si16 1.650467 1_565
O126 Si11 1.661572 1_565
O127 S3 1.479299 1_565
O128 Si12 1.647211 1_555
O129 Si13 1.634717 1_555
O130 Si10 1.648381 1_455
O131 S2 1.480629 1_555
O132 Si0 1.667981 1_555
O133 Si1 1.666438 1_555
O134 Si2 1.645730 1_555
O135 Si3 1.657400 1_555
O136 Si4 1.647990 1_555
O137 S0 1.493433 1_555
O138 Si5 1.677384 1_555
O139 Si6 1.661409 1_555
O140 S1 1.519554 1_555
O141 Si7 1.644010 1_555
O142 Si8 1.661052 1_555
O143 Si9 1.649511 1_555
