# generated using pymatgen
data_LaNb7O12
_symmetry_space_group_name_H-M   'P 1'
_cell_length_a   9.26312802
_cell_length_b   10.42795009
_cell_length_c   10.88963201
_cell_angle_alpha   75.58793442
_cell_angle_beta   90.00000000
_cell_angle_gamma   90.00000000
_symmetry_Int_Tables_number   1
_chemical_formula_structural   LaNb7O12
_chemical_formula_sum   'La4 Nb28 O48'
_cell_volume   1018.78662986
_cell_formula_units_Z   4
loop_
 _symmetry_equiv_pos_site_id
 _symmetry_equiv_pos_as_xyz
  1  'x, y, z'
loop_
 _atom_site_type_symbol
 _atom_site_label
 _atom_site_symmetry_multiplicity
 _atom_site_fract_x
 _atom_site_fract_y
 _atom_site_fract_z
 _atom_site_occupancy
  La  La0  1  0.51664239  0.95035844  0.33498749  1
  La  La1  1  0.01664239  0.54964156  0.66501251  1
  La  La2  1  0.48335761  0.04964156  0.66501251  1
  La  La3  1  0.98335761  0.45035844  0.33498749  1
  Nb  Nb0  1  0.88051187  0.81534558  0.41910839  1
  Nb  Nb1  1  0.38051187  0.68465442  0.58089161  1
  Nb  Nb2  1  0.11948813  0.18465442  0.58089161  1
  Nb  Nb3  1  0.61948813  0.31534558  0.41910839  1
  Nb  Nb4  1  0.88371551  0.09223566  0.28000576  1
  Nb  Nb5  1  0.38371551  0.40776434  0.71999424  1
  Nb  Nb6  1  0.11628449  0.90776434  0.71999424  1
  Nb  Nb7  1  0.61628449  0.59223566  0.28000576  1
  Nb  Nb8  1  0.87391343  0.88247501  0.15563688  1
  Nb  Nb9  1  0.37391343  0.61752499  0.84436312  1
  Nb  Nb10  1  0.12608657  0.11752499  0.84436312  1
  Nb  Nb11  1  0.62608657  0.38247501  0.15563688  1
  Nb  Nb12  1  0.86560480  0.03184765  0.58826872  1
  Nb  Nb13  1  0.36560480  0.46815235  0.41173128  1
  Nb  Nb14  1  0.13439520  0.96815235  0.41173128  1
  Nb  Nb15  1  0.63439520  0.53184765  0.58826872  1
  Nb  Nb16  1  0.12773695  0.03853587  0.14916401  1
  Nb  Nb17  1  0.62773695  0.46146413  0.85083599  1
  Nb  Nb18  1  0.87226305  0.96146413  0.85083599  1
  Nb  Nb19  1  0.37226305  0.53853587  0.14916401  1
  Nb  Nb20  1  0.87626104  0.23203936  0.71722716  1
  Nb  Nb21  1  0.37626104  0.26796064  0.28277284  1
  Nb  Nb22  1  0.12373896  0.76796064  0.28277284  1
  Nb  Nb23  1  0.62373896  0.73203936  0.71722716  1
  Nb  Nb24  1  0.88594018  0.66042349  0.00027434  1
  Nb  Nb25  1  0.38594018  0.83957651  0.99972566  1
  Nb  Nb26  1  0.11405982  0.33957651  0.99972566  1
  Nb  Nb27  1  0.61405982  0.16042349  0.00027434  1
  O  O0  1  0.77269680  0.42122596  0.71911827  1
  O  O1  1  0.27269680  0.07877404  0.28088173  1
  O  O2  1  0.22730320  0.57877404  0.28088173  1
  O  O3  1  0.72730320  0.92122596  0.71911827  1
  O  O4  1  0.73443239  0.04543247  0.15191718  1
  O  O5  1  0.23443239  0.45456753  0.84808282  1
  O  O6  1  0.26556761  0.95456753  0.84808282  1
  O  O7  1  0.76556761  0.54543247  0.15191718  1
  O  O8  1  0.72860066  0.18667020  0.58670030  1
  O  O9  1  0.22860066  0.31332980  0.41329970  1
  O  O10  1  0.27139934  0.81332980  0.41329970  1
  O  O11  1  0.77139934  0.68667020  0.58670030  1
  O  O12  1  0.77032865  0.27975424  0.29166780  1
  O  O13  1  0.27032865  0.22024576  0.70833220  1
  O  O14  1  0.22967135  0.72024576  0.70833220  1
  O  O15  1  0.72967135  0.77975424  0.29166780  1
  O  O16  1  0.74753590  0.98115180  0.42389557  1
  O  O17  1  0.24753590  0.51884820  0.57610443  1
  O  O18  1  0.25246410  0.01884820  0.57610443  1
  O  O19  1  0.75246410  0.48115180  0.42389557  1
  O  O20  1  0.25945239  0.87861259  0.13674571  1
  O  O21  1  0.75945239  0.62138741  0.86325429  1
  O  O22  1  0.74054761  0.12138741  0.86325429  1
  O  O23  1  0.24054761  0.37861259  0.13674571  1
  O  O24  1  0.76600012  0.81656735  0.00438057  1
  O  O25  1  0.26600012  0.68343265  0.99561943  1
  O  O26  1  0.23399988  0.18343265  0.99561943  1
  O  O27  1  0.73399988  0.31656735  0.00438057  1
  O  O28  1  0.00000000  0.50000000  0.00000000  1
  O  O29  1  0.50000000  -0.00000000  0.00000000  1
  O  O30  1  0.99934369  0.86190172  0.56920923  1
  O  O31  1  0.49934369  0.63809828  0.43079077  1
  O  O32  1  0.00065631  0.13809828  0.43079077  1
  O  O33  1  0.50065631  0.36190172  0.56920923  1
  O  O34  1  0.00000000  -0.00000000  0.00000000  1
  O  O35  1  0.50000000  0.50000000  0.00000000  1
  O  O36  1  0.99107870  0.70640133  0.15153697  1
  O  O37  1  0.49107870  0.79359867  0.84846303  1
  O  O38  1  0.00892130  0.29359867  0.84846303  1
  O  O39  1  0.50892130  0.20640133  0.15153697  1
  O  O40  1  0.99529086  0.78460490  0.86165779  1
  O  O41  1  0.49529086  0.71539510  0.13834221  1
  O  O42  1  0.00470914  0.21539510  0.13834221  1
  O  O43  1  0.50470914  0.28460490  0.86165779  1
  O  O44  1  0.00200475  0.64291401  0.42995151  1
  O  O45  1  0.50200475  0.85708599  0.57004849  1
  O  O46  1  0.99799525  0.35708599  0.57004849  1
  O  O47  1  0.49799525  0.14291401  0.42995151  1
loop_
_geom_bond_atom_site_label_1
_geom_bond_atom_site_label_2
_geom_bond_distance
_geom_bond_site_symmetry_2
La0 O16 2.402017 1_555
La0 O47 2.482900 1_565
La0 O45 2.505450 1_555
La0 O1 2.617987 1_565
La0 O10 2.706141 1_555
La0 O15 2.774760 1_555
La0 O4 2.836079 1_565
La0 O39 2.910279 1_565
La1 O17 2.402017 1_555
La1 O46 2.482900 1_455
La1 O44 2.505450 1_555
La1 O0 2.617987 1_455
La1 O11 2.706141 1_455
La1 O14 2.774760 1_555
La1 O5 2.836079 1_555
La1 O38 2.910279 1_555
La2 O18 2.402017 1_555
La2 O45 2.482900 1_545
La2 O47 2.505450 1_555
La2 O3 2.617987 1_545
La2 O8 2.706141 1_555
La2 O13 2.774760 1_555
La2 O6 2.836079 1_545
La2 O37 2.910279 1_545
La3 O19 2.402017 1_555
La3 O44 2.482900 1_655
La3 O46 2.505450 1_555
La3 O2 2.617987 1_655
La3 O9 2.706141 1_655
La3 O12 2.774760 1_555
La3 O7 2.836079 1_555
La3 O36 2.910279 1_555
Nb0 O15 2.066979 1_555
Nb0 O44 2.099519 1_655
Nb0 O30 2.124642 1_555
Nb0 O16 2.134094 1_555
Nb0 O11 2.221197 1_555
Nb1 O14 2.066979 1_555
Nb1 O45 2.099519 1_555
Nb1 O31 2.124642 1_555
Nb1 O17 2.134094 1_555
Nb1 O10 2.221197 1_555
Nb2 O13 2.066979 1_555
Nb2 O46 2.099519 1_455
Nb2 O32 2.124642 1_555
Nb2 O18 2.134094 1_555
Nb2 O9 2.221197 1_555
Nb3 O12 2.066979 1_555
Nb3 O47 2.099519 1_555
Nb3 O33 2.124642 1_555
Nb3 O19 2.134094 1_555
Nb3 O8 2.221197 1_555
Nb4 O42 2.073439 1_655
Nb4 O4 2.105913 1_555
Nb4 O16 2.117728 1_545
Nb4 O32 2.118768 1_655
Nb4 O12 2.250918 1_555
Nb5 O43 2.073439 1_555
Nb5 O5 2.105913 1_555
Nb5 O17 2.117728 1_555
Nb5 O33 2.118768 1_555
Nb5 O13 2.250918 1_555
Nb6 O40 2.073439 1_455
Nb6 O6 2.105913 1_555
Nb6 O18 2.117728 1_565
Nb6 O30 2.118768 1_455
Nb6 O14 2.250918 1_555
Nb7 O41 2.073439 1_555
Nb7 O7 2.105913 1_555
Nb7 O19 2.117728 1_555
Nb7 O31 2.118768 1_555
Nb7 O15 2.250918 1_555
Nb8 O15 2.082574 1_555
Nb8 O4 2.127060 1_565
Nb8 O36 2.142879 1_555
Nb8 O34 2.169003 1_665
Nb8 O24 2.179019 1_555
Nb9 O14 2.082574 1_555
Nb9 O5 2.127060 1_555
Nb9 O37 2.142879 1_555
Nb9 O35 2.169003 1_556
Nb9 O25 2.179019 1_555
Nb10 O13 2.082574 1_555
Nb10 O6 2.127060 1_545
Nb10 O38 2.142879 1_555
Nb10 O34 2.169003 1_556
Nb10 O26 2.179019 1_555
Nb11 O12 2.082574 1_555
Nb11 O7 2.127060 1_555
Nb11 O39 2.142879 1_555
Nb11 O35 2.169003 1_555
Nb11 O27 2.179019 1_555
Nb12 O3 2.045497 1_545
Nb12 O8 2.050292 1_555
Nb12 O32 2.188058 1_655
Nb12 O30 2.213944 1_545
Nb12 O16 2.269501 1_545
Nb13 O2 2.045497 1_555
Nb13 O9 2.050292 1_555
Nb13 O33 2.188058 1_555
Nb13 O31 2.213944 1_555
Nb13 O17 2.269501 1_555
Nb14 O1 2.045497 1_565
Nb14 O10 2.050292 1_555
Nb14 O30 2.188058 1_455
Nb14 O32 2.213944 1_565
Nb14 O18 2.269501 1_565
Nb15 O0 2.045497 1_555
Nb15 O11 2.050292 1_555
Nb15 O31 2.188058 1_555
Nb15 O33 2.213944 1_555
Nb15 O19 2.269501 1_555
Nb16 O1 2.082332 1_555
Nb16 O20 2.097693 1_545
Nb16 O34 2.127195 1_555
Nb16 O42 2.146114 1_555
Nb16 O26 2.188621 1_554
Nb17 O0 2.082332 1_555
Nb17 O21 2.097693 1_555
Nb17 O35 2.127195 1_556
Nb17 O43 2.146114 1_555
Nb17 O27 2.188621 1_556
Nb18 O3 2.082332 1_555
Nb18 O22 2.097693 1_565
Nb18 O34 2.127195 1_666
Nb18 O40 2.146114 1_555
Nb18 O24 2.188621 1_556
Nb19 O2 2.082332 1_555
Nb19 O23 2.097693 1_555
Nb19 O35 2.127195 1_555
Nb19 O41 2.146114 1_555
Nb19 O25 2.188621 1_554
Nb20 O38 2.102660 1_655
Nb20 O8 2.109454 1_555
Nb20 O46 2.121395 1_555
Nb20 O22 2.127699 1_555
Nb20 O0 2.198411 1_555
Nb21 O39 2.102660 1_555
Nb21 O9 2.109454 1_555
Nb21 O47 2.121395 1_555
Nb21 O23 2.127699 1_555
Nb21 O1 2.198411 1_555
Nb22 O36 2.102660 1_455
Nb22 O10 2.109454 1_555
Nb22 O44 2.121395 1_555
Nb22 O20 2.127699 1_555
Nb22 O2 2.198411 1_555
Nb23 O37 2.102660 1_555
Nb23 O11 2.109454 1_555
Nb23 O45 2.121395 1_555
Nb23 O21 2.127699 1_555
Nb23 O3 2.198411 1_555
Nb24 O28 1.979230 1_655
Nb24 O24 1.980869 1_555
Nb24 O40 2.002111 1_554
Nb24 O21 2.016736 1_554
Nb24 O36 2.069966 1_555
Nb24 O7 2.102947 1_555
Nb25 O29 1.979230 1_566
Nb25 O25 1.980869 1_555
Nb25 O41 2.002111 1_556
Nb25 O20 2.016736 1_556
Nb25 O37 2.069966 1_555
Nb25 O6 2.102947 1_555
Nb26 O28 1.979230 1_556
Nb26 O26 1.980869 1_555
Nb26 O42 2.002111 1_556
Nb26 O23 2.016736 1_556
Nb26 O38 2.069966 1_555
Nb26 O5 2.102947 1_555
Nb27 O29 1.979230 1_555
Nb27 O27 1.980869 1_555
Nb27 O43 2.002111 1_554
Nb27 O22 2.016736 1_554
Nb27 O39 2.069966 1_555
Nb27 O4 2.102947 1_555
