# generated using pymatgen
data_Na4Ga3Si3BrO12
_symmetry_space_group_name_H-M   'P 1'
_cell_length_a   9.10820200
_cell_length_b   9.10820200
_cell_length_c   9.10820200
_cell_angle_alpha   90.00000000
_cell_angle_beta   90.00000000
_cell_angle_gamma   90.00000000
_symmetry_Int_Tables_number   1
_chemical_formula_structural   Na4Ga3Si3BrO12
_chemical_formula_sum   'Na8 Ga6 Si6 Br2 O24'
_cell_volume   755.61045996
_cell_formula_units_Z   2
loop_
 _symmetry_equiv_pos_site_id
 _symmetry_equiv_pos_as_xyz
  1  'x, y, z'
loop_
 _atom_site_type_symbol
 _atom_site_label
 _atom_site_symmetry_multiplicity
 _atom_site_fract_x
 _atom_site_fract_y
 _atom_site_fract_z
 _atom_site_occupancy
  Na  Na0  1  0.31908600  0.31908600  0.68091400  1
  Na  Na1  1  0.68091400  0.31908600  0.31908600  1
  Na  Na2  1  0.18091400  0.81908600  0.81908600  1
  Na  Na3  1  0.81908600  0.18091400  0.81908600  1
  Na  Na4  1  0.18091400  0.18091400  0.18091400  1
  Na  Na5  1  0.81908600  0.81908600  0.18091400  1
  Na  Na6  1  0.68091400  0.68091400  0.68091400  1
  Na  Na7  1  0.31908600  0.68091400  0.31908600  1
  Ga  Ga0  1  0.50000000  0.75000000  0.00000000  1
  Ga  Ga1  1  0.25000000  0.00000000  0.50000000  1
  Ga  Ga2  1  0.00000000  0.50000000  0.25000000  1
  Ga  Ga3  1  0.50000000  0.25000000  0.00000000  1
  Ga  Ga4  1  0.00000000  0.50000000  0.75000000  1
  Ga  Ga5  1  0.75000000  0.00000000  0.50000000  1
  Si  Si0  1  0.50000000  0.00000000  0.25000000  1
  Si  Si1  1  0.00000000  0.25000000  0.50000000  1
  Si  Si2  1  0.25000000  0.50000000  0.00000000  1
  Si  Si3  1  0.00000000  0.75000000  0.50000000  1
  Si  Si4  1  0.50000000  0.00000000  0.75000000  1
  Si  Si5  1  0.75000000  0.50000000  0.00000000  1
  Br  Br0  1  0.50000000  0.50000000  0.50000000  1
  Br  Br1  1  0.00000000  0.00000000  0.00000000  1
  O  O0  1  0.43128200  0.13550600  0.15239800  1
  O  O1  1  0.34760200  0.63550600  0.06871800  1
  O  O2  1  0.63550600  0.06871800  0.34760200  1
  O  O3  1  0.84760200  0.43128200  0.86449400  1
  O  O4  1  0.15239800  0.56871800  0.86449400  1
  O  O5  1  0.86449400  0.15239800  0.56871800  1
  O  O6  1  0.06871800  0.34760200  0.63550600  1
  O  O7  1  0.56871800  0.13550600  0.84760200  1
  O  O8  1  0.93128200  0.34760200  0.36449400  1
  O  O9  1  0.84760200  0.56871800  0.13550600  1
  O  O10  1  0.65239800  0.63550600  0.93128200  1
  O  O11  1  0.06871800  0.65239800  0.36449400  1
  O  O12  1  0.65239800  0.36449400  0.06871800  1
  O  O13  1  0.34760200  0.36449400  0.93128200  1
  O  O14  1  0.43128200  0.86449400  0.84760200  1
  O  O15  1  0.13550600  0.84760200  0.56871800  1
  O  O16  1  0.93128200  0.65239800  0.63550600  1
  O  O17  1  0.36449400  0.93128200  0.34760200  1
  O  O18  1  0.63550600  0.93128200  0.65239800  1
  O  O19  1  0.15239800  0.43128200  0.13550600  1
  O  O20  1  0.36449400  0.06871800  0.65239800  1
  O  O21  1  0.13550600  0.15239800  0.43128200  1
  O  O22  1  0.86449400  0.84760200  0.43128200  1
  O  O23  1  0.56871800  0.86449400  0.15239800  1
loop_
_geom_bond_atom_site_label_1
_geom_bond_atom_site_label_2
_geom_bond_distance
_geom_bond_site_symmetry_2
Na0 O6 2.332112 1_555
Na0 O20 2.332112 1_555
Na0 O13 2.332112 1_555
Na1 O12 2.332112 1_555
Na1 O2 2.332112 1_555
Na1 O8 2.332112 1_555
Na2 O15 2.332112 1_555
Na2 O4 2.332112 1_555
Na2 O14 2.332112 1_555
Na3 O7 2.332112 1_555
Na3 O5 2.332112 1_555
Na3 O3 2.332112 1_555
Na4 O21 2.332112 1_555
Na4 O0 2.332112 1_555
Na4 O19 2.332112 1_555
Na5 O9 2.332112 1_555
Na5 O23 2.332112 1_555
Na5 O22 2.332112 1_555
Na6 O18 2.332112 1_555
Na6 O10 2.332112 1_555
Na6 O16 2.332112 1_555
Na7 O1 2.332112 1_555
Na7 O11 2.332112 1_555
Na7 O17 2.332112 1_555
Ga0 O1 1.845534 1_555
Ga0 O23 1.845534 1_555
Ga0 O14 1.845534 1_554
Ga0 O10 1.845534 1_554
Ga1 O17 1.845534 1_545
Ga1 O20 1.845534 1_555
Ga1 O21 1.845534 1_555
Ga1 O15 1.845534 1_545
Ga2 O8 1.845534 1_455
Ga2 O19 1.845534 1_555
Ga2 O11 1.845534 1_555
Ga2 O9 1.845534 1_455
Ga3 O13 1.845534 1_554
Ga3 O7 1.845534 1_554
Ga3 O12 1.845534 1_555
Ga3 O0 1.845534 1_555
Ga4 O6 1.845534 1_555
Ga4 O4 1.845534 1_555
Ga4 O16 1.845534 1_455
Ga4 O3 1.845534 1_455
Ga5 O2 1.845534 1_555
Ga5 O5 1.845534 1_555
Ga5 O18 1.845534 1_545
Ga5 O22 1.845534 1_545
Br0 Na7 2.854075 1_555
Br0 Na0 2.854075 1_555
Br0 Na6 2.854075 1_555
Br0 Na1 2.854075 1_555
Br1 Na5 2.854075 1_445
Br1 Na4 2.854075 1_555
Br1 Na3 2.854075 1_454
Br1 Na2 2.854075 1_544
O0 Si0 1.644786 1_555
O1 Si2 1.644786 1_555
O2 Si0 1.644786 1_555
O3 Si5 1.644786 1_556
O4 Si2 1.644786 1_556
O5 Si1 1.644786 1_655
O6 Si1 1.644786 1_555
O7 Si4 1.644786 1_555
O8 Si1 1.644786 1_655
O9 Si5 1.644786 1_555
O10 Si5 1.644786 1_556
O11 Si3 1.644786 1_555
O12 Si5 1.644786 1_555
O13 Si2 1.644786 1_556
O14 Si4 1.644786 1_565
O15 Si3 1.644786 1_555
O16 Si3 1.644786 1_655
O17 Si0 1.644786 1_565
O18 Si4 1.644786 1_565
O19 Si2 1.644786 1_555
O20 Si4 1.644786 1_555
O21 Si1 1.644786 1_555
O22 Si3 1.644786 1_655
O23 Si0 1.644786 1_565
