# generated using pymatgen
data_Np(SiAu)2
_symmetry_space_group_name_H-M   'P 1'
_cell_length_a   4.24602277
_cell_length_b   4.24602391
_cell_length_c   5.96320817
_cell_angle_alpha   110.85586545
_cell_angle_beta   110.85588572
_cell_angle_gamma   89.99998276
_symmetry_Int_Tables_number   1
_chemical_formula_structural   Np(SiAu)2
_chemical_formula_sum   'Np1 Si2 Au2'
_cell_volume   92.88811624
_cell_formula_units_Z   1
loop_
 _symmetry_equiv_pos_site_id
 _symmetry_equiv_pos_as_xyz
  1  'x, y, z'
loop_
 _atom_site_type_symbol
 _atom_site_label
 _atom_site_symmetry_multiplicity
 _atom_site_fract_x
 _atom_site_fract_y
 _atom_site_fract_z
 _atom_site_occupancy
  Np  Np0  1  0.00000000  -0.00000000  -0.00000000  1
  Si  Si0  1  0.61134038  0.61134038  0.22268176  1
  Si  Si1  1  0.38865962  0.38865962  0.77731824  1
  Au  Au0  1  0.75000000  0.25000000  0.50000000  1
  Au  Au1  1  0.25000000  0.75000000  0.50000000  1
loop_
_geom_bond_atom_site_label_1
_geom_bond_atom_site_label_2
_geom_bond_distance
_geom_bond_site_symmetry_2
Np0 Si0 3.214134 1_555
Np0 Si1 3.214134 1_444
Np0 Si1 3.214136 1_454
Np0 Si0 3.214136 1_545
Np0 Si1 3.214136 1_544
Np0 Si0 3.214136 1_455
Np0 Si1 3.214140 1_554
Np0 Si0 3.214140 1_445
Si0 Si1 2.294616 1_554
Au0 Si0 2.559035 1_555
Au0 Si1 2.559035 1_555
Au0 Si1 2.559038 1_655
Au0 Si0 2.559039 1_545
Au0 Np0 3.338195 1_555
Au0 Np0 3.338196 1_656
Au0 Np0 3.338196 1_655
Au0 Np0 3.338197 1_666
Au1 Si1 2.559035 1_555
Au1 Si0 2.559035 1_555
Au1 Si0 2.559038 1_455
Au1 Si1 2.559039 1_565
Au1 Np0 3.338195 1_666
Au1 Np0 3.338196 1_565
Au1 Np0 3.338196 1_566
Au1 Np0 3.338197 1_555
