# generated using pymatgen
data_Na3CaYP2SO12
_symmetry_space_group_name_H-M   'P 1'
_cell_length_a   9.39021643
_cell_length_b   9.37370478
_cell_length_c   23.38529047
_cell_angle_alpha   89.64926547
_cell_angle_beta   90.00000000
_cell_angle_gamma   120.05828665
_symmetry_Int_Tables_number   1
_chemical_formula_structural   Na3CaYP2SO12
_chemical_formula_sum   'Na18 Ca6 Y6 P12 S6 O72'
_cell_volume   1781.53367460
_cell_formula_units_Z   6
loop_
 _symmetry_equiv_pos_site_id
 _symmetry_equiv_pos_as_xyz
  1  'x, y, z'
loop_
 _atom_site_type_symbol
 _atom_site_label
 _atom_site_symmetry_multiplicity
 _atom_site_fract_x
 _atom_site_fract_y
 _atom_site_fract_z
 _atom_site_occupancy
  Na  Na0  1  0.35539114  0.34895608  0.24456726  1
  Na  Na1  1  0.00265160  0.63478777  0.24285682  1
  Na  Na2  1  0.63213617  0.63478777  0.74285682  1
  Na  Na3  1  0.99356495  0.34895608  0.74456726  1
  Na  Na4  1  0.02205814  0.68228908  0.57790026  1
  Na  Na5  1  0.66931860  0.96812077  0.57618982  1
  Na  Na6  1  0.29880317  0.96812077  0.07618982  1
  Na  Na7  1  0.66023195  0.68228908  0.07790026  1
  Na  Na8  1  0.68872414  0.01562308  0.91123426  1
  Na  Na9  1  0.33598460  0.30145477  0.90952382  1
  Na  Na10  1  0.96546917  0.30145477  0.40952382  1
  Na  Na11  1  0.32689795  0.01562308  0.41123426  1
  Na  Na12  1  0.97188499  0.97858774  0.49451457  1
  Na  Na13  1  0.00670275  0.97858774  0.99451457  1
  Na  Na14  1  0.63855199  0.31192074  0.82784757  1
  Na  Na15  1  0.67336975  0.31192074  0.32784757  1
  Na  Na16  1  0.30521799  0.64525474  0.16118157  1
  Na  Na17  1  0.34003575  0.64525474  0.66118157  1
  Ca  Ca0  1  0.98633359  0.99237258  0.34920242  1
  Ca  Ca1  1  0.00603899  0.99237258  0.84920242  1
  Ca  Ca2  1  0.65300059  0.32570558  0.68253542  1
  Ca  Ca3  1  0.67270599  0.32570558  0.18253542  1
  Ca  Ca4  1  0.31966659  0.65903958  0.01586942  1
  Ca  Ca5  1  0.33937199  0.65903958  0.51586942  1
  Y  Y0  1  0.00850887  0.01544738  0.65101283  1
  Y  Y1  1  0.00693851  0.01544738  0.15101283  1
  Y  Y2  1  0.67517587  0.34878038  0.98434583  1
  Y  Y3  1  0.67360551  0.34878038  0.48434583  1
  Y  Y4  1  0.34184187  0.68211438  0.31767983  1
  Y  Y5  1  0.34027151  0.68211438  0.81767983  1
  P  P0  1  0.29778234  0.00063281  0.25198918  1
  P  P1  1  0.00709069  0.31045771  0.25522582  1
  P  P2  1  0.30336702  0.31045771  0.75522582  1
  P  P3  1  0.70285047  0.00063281  0.75198918  1
  P  P4  1  0.96444934  0.33396581  0.58532218  1
  P  P5  1  0.67375769  0.64379071  0.58855882  1
  P  P6  1  0.97003402  0.64379071  0.08855882  1
  P  P7  1  0.36951747  0.33396581  0.08532218  1
  P  P8  1  0.63111534  0.66729981  0.91865618  1
  P  P9  1  0.34042369  0.97712471  0.92189282  1
  P  P10  1  0.63670002  0.97712471  0.42189282  1
  P  P11  1  0.03618347  0.66729981  0.41865618  1
  S  S0  1  0.69569018  0.69543589  0.24751506  1
  S  S1  1  0.99974571  0.69543589  0.74751506  1
  S  S2  1  0.36235718  0.02876889  0.58084806  1
  S  S3  1  0.66641271  0.02876889  0.08084806  1
  S  S4  1  0.02902318  0.36210289  0.91418206  1
  S  S5  1  0.33307871  0.36210289  0.41418206  1
  O  O0  1  0.21398782  0.01540544  0.30642839  1
  O  O1  1  0.79727683  0.78150954  0.29732875  1
  O  O2  1  0.99146964  0.21946107  0.31158446  1
  O  O3  1  0.22799143  0.21946107  0.81158446  1
  O  O4  1  0.98423271  0.78150954  0.79732875  1
  O  O5  1  0.80141762  0.01540544  0.80642839  1
  O  O6  1  0.79180570  0.97952613  0.69854613  1
  O  O7  1  0.19230062  0.21195531  0.70373717  1
  O  O8  1  0.02046210  0.79155219  0.69409566  1
  O  O9  1  0.77109009  0.79155219  0.19409566  1
  O  O10  1  0.01965469  0.21195531  0.20373717  1
  O  O11  1  0.18772043  0.97952613  0.19854613  1
  O  O12  1  0.88065482  0.34873844  0.63976139  1
  O  O13  1  0.46394383  0.11484254  0.63066175  1
  O  O14  1  0.65813664  0.55279407  0.64491746  1
  O  O15  1  0.89465843  0.55279407  0.14491746  1
  O  O16  1  0.65089971  0.11484254  0.13066175  1
  O  O17  1  0.46808462  0.34873844  0.13976139  1
  O  O18  1  0.45847270  0.31285913  0.03187913  1
  O  O19  1  0.85896762  0.54528831  0.03707017  1
  O  O20  1  0.68712910  0.12488519  0.02742866  1
  O  O21  1  0.43775709  0.12488519  0.52742866  1
  O  O22  1  0.68632169  0.54528831  0.53707017  1
  O  O23  1  0.85438743  0.31285913  0.53187913  1
  O  O24  1  0.54732082  0.68207244  0.97309539  1
  O  O25  1  0.13060983  0.44817654  0.96399575  1
  O  O26  1  0.32480264  0.88612807  0.97825146  1
  O  O27  1  0.56132443  0.88612807  0.47825146  1
  O  O28  1  0.31756571  0.44817654  0.46399575  1
  O  O29  1  0.13475062  0.68207244  0.47309539  1
  O  O30  1  0.12513870  0.64619313  0.36521313  1
  O  O31  1  0.52563362  0.87862231  0.37040417  1
  O  O32  1  0.35379510  0.45821919  0.36076266  1
  O  O33  1  0.10442309  0.45821919  0.86076266  1
  O  O34  1  0.35298769  0.87862231  0.87040417  1
  O  O35  1  0.52105343  0.64619313  0.86521313  1
  O  O36  1  0.02346052  0.82509835  0.41373944  1
  O  O37  1  0.81568639  0.01152183  0.41654118  1
  O  O38  1  0.18257599  0.19609752  0.41217271  1
  O  O39  1  0.01352153  0.19609752  0.91217271  1
  O  O40  1  0.19583544  0.01152183  0.91654118  1
  O  O41  1  0.80163782  0.82509835  0.91373944  1
  O  O42  1  0.97580585  0.17268981  0.58669750  1
  O  O43  1  0.19206097  0.00381530  0.58573090  1
  O  O44  1  0.84021330  0.81468955  0.58651375  1
  O  O45  1  0.97447625  0.81468955  0.08651375  1
  O  O46  1  0.81175433  0.00381530  0.08573090  1
  O  O47  1  0.19688396  0.17268981  0.08669750  1
  O  O48  1  0.69012752  0.15843135  0.74707244  1
  O  O49  1  0.48235339  0.34485483  0.74987418  1
  O  O50  1  0.84924299  0.52943052  0.74550571  1
  O  O51  1  0.68018853  0.52943052  0.24550571  1
  O  O52  1  0.86250244  0.34485483  0.24987418  1
  O  O53  1  0.46830482  0.15843135  0.24707244  1
  O  O54  1  0.64247285  0.50602281  0.92003050  1
  O  O55  1  0.85872797  0.33714830  0.91906390  1
  O  O56  1  0.50688030  0.14802255  0.91984675  1
  O  O57  1  0.64114325  0.14802255  0.41984675  1
  O  O58  1  0.47842133  0.33714830  0.41906390  1
  O  O59  1  0.86355096  0.50602281  0.42003050  1
  O  O60  1  0.35679352  0.49176535  0.08040644  1
  O  O61  1  0.14901939  0.67818883  0.08320818  1
  O  O62  1  0.51590899  0.86276452  0.07883971  1
  O  O63  1  0.34685453  0.86276452  0.57883971  1
  O  O64  1  0.52916844  0.67818883  0.58320818  1
  O  O65  1  0.13497082  0.49176535  0.58040644  1
  O  O66  1  0.30913885  0.83935681  0.25336450  1
  O  O67  1  0.52539397  0.67048230  0.25239790  1
  O  O68  1  0.17354630  0.48135655  0.25318075  1
  O  O69  1  0.30780925  0.48135655  0.75318075  1
  O  O70  1  0.14508733  0.67048230  0.75239790  1
  O  O71  1  0.53021696  0.83935681  0.75336450  1
loop_
_geom_bond_atom_site_label_1
_geom_bond_atom_site_label_2
_geom_bond_distance
_geom_bond_site_symmetry_2
Na0 O53 2.492547 1_555
Na0 O68 2.573451 1_555
Na0 O67 2.617722 1_555
Na0 O51 2.645024 1_555
Na0 O17 2.670026 1_555
Na0 O10 2.908478 1_555
Na0 O32 2.912418 1_555
Na1 O52 2.357247 1_455
Na1 O15 2.470933 1_455
Na1 O66 2.549029 1_555
Na1 O68 2.647589 1_555
Na1 O51 2.674230 1_455
Na2 O49 2.357246 1_555
Na2 O14 2.470936 1_555
Na2 O71 2.549036 1_555
Na2 O69 2.647597 1_555
Na2 O50 2.674239 1_555
Na3 O48 2.492540 1_555
Na3 O69 2.573442 1_655
Na3 O70 2.617722 1_655
Na3 O50 2.645017 1_555
Na3 O12 2.670022 1_555
Na3 O7 2.908478 1_655
Na3 O33 2.912416 1_655
Na4 O65 2.492532 1_555
Na4 O44 2.573451 1_455
Na4 O43 2.617722 1_565
Na4 O63 2.645017 1_555
Na4 O29 2.669999 1_555
Na4 O22 2.908478 1_455
Na4 O8 2.912418 1_555
Na5 O64 2.357240 1_555
Na5 O27 2.470913 1_555
Na5 O42 2.549029 1_565
Na5 O44 2.647589 1_555
Na5 O63 2.674242 1_555
Na6 O61 2.357240 1_555
Na6 O26 2.470908 1_554
Na6 O47 2.549036 1_565
Na6 O45 2.647597 1_455
Na6 O62 2.674224 1_555
Na7 O60 2.492547 1_555
Na7 O45 2.573442 1_555
Na7 O46 2.617722 1_565
Na7 O62 2.645033 1_555
Na7 O24 2.670006 1_554
Na7 O19 2.908478 1_555
Na7 O9 2.912416 1_555
Na8 O41 2.492547 1_545
Na8 O56 2.573433 1_555
Na8 O55 2.617713 1_555
Na8 O39 2.645024 1_655
Na8 O5 2.670026 1_555
Na8 O34 2.908478 1_545
Na8 O20 2.912391 1_556
Na9 O40 2.357247 1_555
Na9 O3 2.470933 1_555
Na9 O54 2.549032 1_555
Na9 O56 2.647603 1_555
Na9 O39 2.674230 1_555
Na10 O37 2.357246 1_555
Na10 O2 2.470936 1_555
Na10 O59 2.549018 1_555
Na10 O57 2.647586 1_555
Na10 O38 2.674239 1_655
Na11 O36 2.492540 1_545
Na11 O57 2.573450 1_555
Na11 O58 2.617712 1_555
Na11 O38 2.645017 1_555
Na11 O0 2.670022 1_555
Na11 O31 2.908478 1_545
Na11 O21 2.912394 1_555
Na12 O37 2.453209 1_565
Na12 O44 2.564046 1_555
Na12 O36 2.569830 1_655
Na12 O38 2.773111 1_665
Na12 O42 2.817771 1_565
Na12 O43 2.897772 1_665
Na13 O40 2.453209 1_565
Na13 O45 2.564046 1_456
Na13 O41 2.569830 1_455
Na13 O39 2.773111 1_565
Na13 O47 2.817771 1_566
Na13 O46 2.897772 1_466
Na14 O49 2.453209 1_555
Na14 O56 2.564046 1_555
Na14 O48 2.569830 1_555
Na14 O50 2.773111 1_555
Na14 O54 2.817771 1_555
Na14 O55 2.897772 1_555
Na15 O52 2.453209 1_555
Na15 O57 2.564046 1_555
Na15 O53 2.569830 1_555
Na15 O51 2.773111 1_555
Na15 O59 2.817771 1_555
Na15 O58 2.897772 1_555
Na16 O61 2.453209 1_555
Na16 O68 2.564046 1_555
Na16 O60 2.569830 1_555
Na16 O62 2.773111 1_555
Na16 O66 2.817771 1_555
Na16 O67 2.897772 1_555
Na17 O64 2.453209 1_555
Na17 O69 2.564046 1_555
Na17 O65 2.569830 1_555
Na17 O63 2.773111 1_555
Na17 O71 2.817771 1_555
Na17 O70 2.897772 1_555
Ca0 O1 2.245935 1_555
Ca0 O0 2.269811 1_665
Ca0 O2 2.276321 1_565
Ca0 O37 2.317616 1_565
Ca0 O36 2.318722 1_655
Ca0 O38 2.391700 1_665
Ca1 O4 2.245935 1_455
Ca1 O5 2.269811 1_465
Ca1 O3 2.276321 1_565
Ca1 O40 2.317616 1_565
Ca1 O41 2.318722 1_455
Ca1 O39 2.391700 1_565
Ca2 O13 2.245935 1_555
Ca2 O12 2.269811 1_555
Ca2 O14 2.276321 1_555
Ca2 O49 2.317616 1_555
Ca2 O48 2.318722 1_555
Ca2 O50 2.391700 1_555
Ca3 O16 2.245935 1_555
Ca3 O17 2.269811 1_555
Ca3 O15 2.276321 1_555
Ca3 O52 2.317616 1_555
Ca3 O53 2.318722 1_555
Ca3 O51 2.391700 1_555
Ca4 O25 2.245935 1_554
Ca4 O24 2.269811 1_554
Ca4 O26 2.276321 1_554
Ca4 O61 2.317616 1_555
Ca4 O60 2.318722 1_555
Ca4 O62 2.391700 1_555
Ca5 O28 2.245935 1_555
Ca5 O29 2.269811 1_555
Ca5 O27 2.276321 1_555
Ca5 O64 2.317616 1_555
Ca5 O65 2.318722 1_555
Ca5 O63 2.391700 1_555
O0 P0 1.539590 1_555
O1 S0 1.469166 1_555
O2 P1 1.531995 1_655
O3 P2 1.531995 1_555
O4 S1 1.469166 1_555
O5 P3 1.539590 1_555
O6 P3 1.570802 1_565
O6 Y0 2.190615 1_665
O7 P2 1.561730 1_555
O7 Y0 2.175992 1_555
O8 S1 1.490234 1_455
O8 Y0 2.375377 1_565
O9 S0 1.490234 1_555
O9 Y1 2.375377 1_665
O10 P1 1.561730 1_555
O10 Y1 2.175992 1_555
O11 P0 1.570802 1_565
O11 Y1 2.190615 1_565
O12 P4 1.539590 1_555
O13 S2 1.469166 1_555
O14 P5 1.531995 1_555
O15 P6 1.531995 1_555
O16 S3 1.469166 1_555
O17 P7 1.539590 1_555
O18 P7 1.570802 1_555
O18 Y2 2.190615 1_554
O19 P6 1.561730 1_555
O19 Y2 2.175992 1_554
O20 S3 1.490234 1_555
O20 Y2 2.375377 1_554
O21 S2 1.490234 1_555
O21 Y3 2.375377 1_555
O22 P5 1.561730 1_555
O22 Y3 2.175992 1_555
O23 P4 1.570802 1_555
O23 Y3 2.190615 1_555
O24 P8 1.539590 1_555
O25 S4 1.469166 1_555
O26 P9 1.531995 1_555
O27 P10 1.531995 1_555
O28 S5 1.469166 1_555
O29 P11 1.539590 1_555
O30 P11 1.570802 1_555
O30 Y4 2.190615 1_555
O31 P10 1.561730 1_555
O31 Y4 2.175992 1_555
O32 S5 1.490234 1_555
O32 Y4 2.375377 1_555
O33 S4 1.490234 1_555
O33 Y5 2.375377 1_555
O34 P9 1.561730 1_555
O34 Y5 2.175992 1_555
O35 P8 1.570802 1_555
O35 Y5 2.190615 1_555
O36 P11 1.546074 1_555
O37 P10 1.549543 1_545
O38 S5 1.489555 1_555
O39 S4 1.489559 1_555
O40 P9 1.549534 1_545
O41 P8 1.546079 1_555
O42 P4 1.568027 1_555
O42 Y0 2.226032 1_655
O43 S2 1.499966 1_555
O43 Y0 2.345973 1_555
O44 P5 1.581896 1_555
O44 Y0 2.317201 1_665
O45 P6 1.581900 1_555
O45 Y1 2.317201 1_665
O46 S3 1.499957 1_555
O46 Y1 2.345973 1_655
O47 P7 1.568032 1_555
O47 Y1 2.226032 1_555
O48 P3 1.546074 1_555
O49 P2 1.549543 1_555
O50 S1 1.489555 1_555
O51 S0 1.489559 1_555
O52 P1 1.549534 1_655
O53 P0 1.546079 1_555
O54 P8 1.568041 1_555
O54 Y2 2.226032 1_555
O55 S4 1.499952 1_655
O55 Y2 2.345973 1_555
O56 P9 1.581896 1_545
O56 Y2 2.317201 1_555
O57 P10 1.581887 1_545
O57 Y3 2.317201 1_555
O58 S5 1.499970 1_555
O58 Y3 2.345973 1_555
O59 P11 1.568031 1_655
O59 Y3 2.226032 1_555
O60 P7 1.546087 1_555
O61 P6 1.549529 1_455
O62 S3 1.489552 1_565
O63 S2 1.489544 1_565
O64 P5 1.549547 1_555
O65 P4 1.546076 1_455
O66 P0 1.568027 1_565
O66 Y4 2.226032 1_555
O67 S0 1.499966 1_555
O67 Y4 2.345973 1_555
O68 P1 1.581896 1_555
O68 Y4 2.317201 1_555
O69 P2 1.581900 1_555
O69 Y5 2.317201 1_555
O70 S1 1.499957 1_455
O70 Y5 2.345973 1_555
O71 P3 1.568032 1_565
O71 Y5 2.226032 1_555
