# generated using pymatgen
data_LiMn2O4
_symmetry_space_group_name_H-M   'P 1'
_cell_length_a   5.70118782
_cell_length_b   8.06767022
_cell_length_c   9.87795035
_cell_angle_alpha   114.09949373
_cell_angle_beta   106.76964054
_cell_angle_gamma   90.00002135
_symmetry_Int_Tables_number   1
_chemical_formula_structural   LiMn2O4
_chemical_formula_sum   'Li6 Mn12 O24'
_cell_volume   393.47630577
_cell_formula_units_Z   6
loop_
 _symmetry_equiv_pos_site_id
 _symmetry_equiv_pos_as_xyz
  1  'x, y, z'
loop_
 _atom_site_type_symbol
 _atom_site_label
 _atom_site_symmetry_multiplicity
 _atom_site_fract_x
 _atom_site_fract_y
 _atom_site_fract_z
 _atom_site_occupancy
  Li  Li0  1  0.91714273  0.04131819  0.83347123  1
  Li  Li1  1  0.58335526  0.70911487  0.16676469  1
  Li  Li2  1  0.08323822  0.95802295  0.16684024  1
  Li  Li3  1  0.75056154  0.62548778  0.49989611  1
  Li  Li4  1  0.41715766  0.29060308  0.83357001  1
  Li  Li5  1  0.25003958  0.37445342  0.50018293  1
  Mn  Mn0  1  0.83358214  0.33306641  0.16680334  1
  Mn  Mn1  1  0.50070403  0.99972330  0.00020421  1
  Mn  Mn2  1  0.66809993  0.66615172  0.83358383  1
  Mn  Mn3  1  0.16707531  0.66622817  0.33349613  1
  Mn  Mn4  1  0.16797705  0.66624466  0.83358751  1
  Mn  Mn5  1  0.00077602  0.49968002  0.00022251  1
  Mn  Mn6  1  0.00039185  0.99958913  0.50013453  1
  Mn  Mn7  1  0.33359680  0.33299799  0.16683103  1
  Mn  Mn8  1  0.83417104  0.33282978  0.66685445  1
  Mn  Mn9  1  0.50029665  0.99960030  0.50012492  1
  Mn  Mn10  1  0.33430183  0.83272152  0.66698147  1
  Mn  Mn11  1  0.66698763  0.16655350  0.33349705  1
  O  O0  1  0.82542226  0.08711994  0.65018107  1
  O  O1  1  0.14258653  0.42877551  0.83357077  1
  O  O2  1  0.50865415  0.24534957  0.01687179  1
  O  O3  1  0.49291906  0.75395612  0.98347559  1
  O  O4  1  0.97542250  0.23692762  0.50009031  1
  O  O5  1  0.35872214  0.09551602  0.16675809  1
  O  O6  1  0.47548904  0.76218014  0.50013846  1
  O  O7  1  0.00871754  0.27056033  0.01682709  1
  O  O8  1  0.30894205  0.57045269  0.16695366  1
  O  O9  1  0.67541170  0.93741069  0.35024778  1
  O  O10  1  0.15852979  0.42048160  0.31679160  1
  O  O11  1  0.32540385  0.06180908  0.65010675  1
  O  O12  1  0.65862057  0.39554984  0.31685382  1
  O  O13  1  0.64264563  0.90368470  0.83363130  1
  O  O14  1  0.99298078  0.72871349  0.98362566  1
  O  O15  1  0.34299453  0.60372501  0.68359964  1
  O  O16  1  0.02584613  0.76221785  0.50030835  1
  O  O17  1  0.17534743  0.91197518  0.35010492  1
  O  O18  1  0.69255997  0.42879261  0.83354118  1
  O  O19  1  0.19251743  0.90360317  0.83355327  1
  O  O20  1  0.85869384  0.57047595  0.16677477  1
  O  O21  1  0.80876520  0.09575025  0.16693826  1
  O  O22  1  0.84299557  0.57868936  0.68355179  1
  O  O23  1  0.52556405  0.23711750  0.50026589  1
loop_
_geom_bond_atom_site_label_1
_geom_bond_atom_site_label_2
_geom_bond_distance
_geom_bond_site_symmetry_2
Li0 O13 1.919612 1_545
Li0 O0 1.920424 1_555
Li0 O7 1.921524 1_656
Li0 O19 1.923329 1_645
Li1 O3 1.915962 1_554
Li1 O9 1.917721 1_555
Li1 O8 1.924173 1_555
Li1 O20 1.927477 1_555
Li2 O21 1.919191 1_465
Li2 O14 1.921196 1_454
Li2 O17 1.921335 1_555
Li2 O5 1.923185 1_565
Li3 O16 1.916414 1_655
Li3 O6 1.917169 1_555
Li3 O12 1.923322 1_555
Li3 O22 1.928483 1_555
Li4 O2 1.917982 1_556
Li4 O11 1.919939 1_555
Li4 O1 1.921729 1_555
Li4 O18 1.925805 1_555
Li5 O4 1.918490 1_455
Li5 O15 1.921958 1_555
Li5 O23 1.922261 1_555
Li5 O10 1.922421 1_555
Mn0 O2 1.920106 1_555
Mn0 O10 1.920253 1_655
Mn0 O21 1.920381 1_555
Mn0 O12 1.920668 1_555
Mn0 O7 1.920797 1_655
Mn0 O20 1.920806 1_555
Mn1 O2 1.919709 1_565
Mn1 O21 1.919951 1_565
Mn1 O19 1.920117 1_554
Mn1 O3 1.920637 1_554
Mn1 O5 1.920771 1_565
Mn1 O13 1.920876 1_554
Mn2 O18 1.919843 1_555
Mn2 O14 1.920172 1_555
Mn2 O22 1.920212 1_555
Mn2 O3 1.920497 1_555
Mn2 O15 1.920960 1_555
Mn2 O13 1.921644 1_555
Mn3 O16 1.920067 1_555
Mn3 O8 1.920233 1_555
Mn3 O10 1.920551 1_555
Mn3 O6 1.920873 1_555
Mn3 O17 1.920878 1_555
Mn3 O20 1.921000 1_455
Mn4 O3 1.920016 1_555
Mn4 O19 1.920179 1_555
Mn4 O15 1.920386 1_555
Mn4 O22 1.920616 1_455
Mn4 O14 1.920722 1_455
Mn4 O1 1.921213 1_555
Mn5 O14 1.919967 1_454
Mn5 O18 1.920210 1_454
Mn5 O8 1.920301 1_555
Mn5 O7 1.920696 1_555
Mn5 O1 1.920878 1_554
Mn5 O20 1.921117 1_455
Mn6 O9 1.920165 1_455
Mn6 O4 1.920222 1_465
Mn6 O17 1.920511 1_555
Mn6 O11 1.920608 1_565
Mn6 O0 1.920664 1_465
Mn6 O16 1.921186 1_555
Mn7 O7 1.920074 1_555
Mn7 O8 1.920389 1_555
Mn7 O10 1.920401 1_555
Mn7 O2 1.920421 1_555
Mn7 O12 1.920709 1_555
Mn7 O5 1.920996 1_555
Mn8 O4 1.919727 1_555
Mn8 O0 1.920362 1_555
Mn8 O18 1.920499 1_555
Mn8 O1 1.921190 1_655
Mn8 O23 1.921280 1_555
Mn8 O22 1.921486 1_555
Mn9 O11 1.919943 1_565
Mn9 O9 1.920049 1_555
Mn9 O17 1.920456 1_555
Mn9 O6 1.920699 1_555
Mn9 O23 1.921021 1_565
Mn9 O0 1.921280 1_565
Mn10 O15 1.919768 1_555
Mn10 O19 1.920111 1_555
Mn10 O6 1.920281 1_555
Mn10 O13 1.920518 1_555
Mn10 O16 1.921249 1_555
Mn10 O11 1.921697 1_565
Mn11 O12 1.919882 1_555
Mn11 O21 1.920008 1_555
Mn11 O23 1.920542 1_555
Mn11 O5 1.920604 1_555
Mn11 O4 1.920854 1_555
Mn11 O9 1.921561 1_545
