# generated using pymatgen
data_RbBr
_symmetry_space_group_name_H-M   'P 1'
_cell_length_a   4.12607730
_cell_length_b   4.12607730
_cell_length_c   4.12607730
_cell_angle_alpha   90.00000000
_cell_angle_beta   90.00000000
_cell_angle_gamma   90.00000000
_symmetry_Int_Tables_number   1
_chemical_formula_structural   RbBr
_chemical_formula_sum   'Rb1 Br1'
_cell_volume   70.24446029
_cell_formula_units_Z   1
loop_
 _symmetry_equiv_pos_site_id
 _symmetry_equiv_pos_as_xyz
  1  'x, y, z'
loop_
 _atom_site_type_symbol
 _atom_site_label
 _atom_site_symmetry_multiplicity
 _atom_site_fract_x
 _atom_site_fract_y
 _atom_site_fract_z
 _atom_site_occupancy
  Rb  Rb0  1  0.00000000  -0.00000000  0.00000000  1
  Br  Br0  1  0.50000000  0.50000000  0.50000000  1
loop_
_geom_bond_atom_site_label_1
_geom_bond_atom_site_label_2
_geom_bond_distance
_geom_bond_site_symmetry_2
Br0 Rb0 3.573288 1_565
Br0 Rb0 3.573288 1_656
Br0 Rb0 3.573288 1_655
Br0 Rb0 3.573288 1_665
Br0 Rb0 3.573288 1_566
Br0 Rb0 3.573288 1_555
Br0 Rb0 3.573288 1_666
Br0 Rb0 3.573288 1_556
