# generated using pymatgen
data_MgFe12(OF)12
_symmetry_space_group_name_H-M   'P 1'
_cell_length_a   9.63656616
_cell_length_b   14.64398968
_cell_length_c   3.07563238
_cell_angle_alpha   89.93056221
_cell_angle_beta   90.39881725
_cell_angle_gamma   88.55209613
_symmetry_Int_Tables_number   1
_chemical_formula_structural   MgFe12(OF)12
_chemical_formula_sum   'Mg1 Fe12 O12 F12'
_cell_volume   433.87689139
_cell_formula_units_Z   1
loop_
 _symmetry_equiv_pos_site_id
 _symmetry_equiv_pos_as_xyz
  1  'x, y, z'
loop_
 _atom_site_type_symbol
 _atom_site_label
 _atom_site_symmetry_multiplicity
 _atom_site_fract_x
 _atom_site_fract_y
 _atom_site_fract_z
 _atom_site_occupancy
  Mg  Mg0  1  0.76102300  0.99240000  0.02043100  1
  Fe  Fe0  1  0.04760600  0.01192000  0.97374600  1
  Fe  Fe1  1  0.02268100  0.33803900  0.00200800  1
  Fe  Fe2  1  0.99849600  0.66616000  0.00472700  1
  Fe  Fe3  1  0.24110300  0.17625300  0.49898100  1
  Fe  Fe4  1  0.24466400  0.48744100  0.50329700  1
  Fe  Fe5  1  0.25668900  0.84539600  0.48965800  1
  Fe  Fe6  1  0.49952000  0.35021400  0.00620600  1
  Fe  Fe7  1  0.48467700  0.99557100  0.00682500  1
  Fe  Fe8  1  0.50671100  0.65734900  0.00307100  1
  Fe  Fe9  1  0.75149300  0.16413200  0.51724100  1
  Fe  Fe10  1  0.72736800  0.49569800  0.50702600  1
  Fe  Fe11  1  0.71049000  0.81710300  0.51132900  1
  O  O0  1  0.10343800  0.27716600  0.50327300  1
  O  O1  1  0.11005900  0.94148100  0.47759800  1
  O  O2  1  0.16003900  0.11665300  0.99718100  1
  O  O3  1  0.14539400  0.44219200  0.00188100  1
  O  O4  1  0.35479200  0.89007600  0.99159500  1
  O  O5  1  0.40233300  0.40091600  0.50395500  1
  O  O6  1  0.63553100  0.94233900  0.51286500  1
  O  O7  1  0.59018600  0.59599500  0.50531800  1
  O  O8  1  0.65910500  0.11219000  0.01557700  1
  O  O9  1  0.65724300  0.43040200  0.00621500  1
  O  O10  1  0.62720400  0.76224600  0.00920900  1
  O  O11  1  0.88926100  0.05087000  0.52392600  1
  F  F0  1  0.10884200  0.60310800  0.50081900  1
  F  F1  1  0.15054800  0.77204700  0.99287400  1
  F  F2  1  0.35731000  0.23919300  0.00279700  1
  F  F3  1  0.34137800  0.56373200  0.00259000  1
  F  F4  1  0.39782700  0.08004800  0.50405400  1
  F  F5  1  0.38600200  0.71924900  0.49893800  1
  F  F6  1  0.60044800  0.27253800  0.50853300  1
  F  F7  1  0.85339500  0.23656500  0.01033200  1
  F  F8  1  0.84693500  0.87003700  0.01066900  1
  F  F9  1  0.84455800  0.55703900  0.00796300  1
  F  F10  1  0.90173500  0.39886400  0.50414900  1
  F  F11  1  0.88105900  0.72274600  0.50897600  1
loop_
_geom_bond_atom_site_label_1
_geom_bond_atom_site_label_2
_geom_bond_distance
_geom_bond_site_symmetry_2
Mg0 O8 1.988647 1_565
Mg0 O6 2.088377 1_555
Mg0 O6 2.111432 1_554
Mg0 O11 2.160736 1_564
Mg0 O11 2.165266 1_565
Fe0 O2 1.901189 1_555
Fe0 O1 1.933913 1_545
Fe0 O1 1.944078 1_546
Fe0 O11 2.119540 1_455
Fe0 O11 2.347635 1_456
Fe1 O0 1.929257 1_555
Fe1 O0 1.933408 1_554
Fe1 O3 1.953412 1_555
Fe3 O2 1.941069 1_555
Fe3 O2 1.942900 1_554
Fe3 O0 1.960895 1_555
Fe4 O3 1.935578 1_555
Fe4 O3 1.937961 1_556
Fe4 O5 1.953631 1_555
Fe5 O4 1.928060 1_554
Fe5 O4 1.928332 1_555
Fe5 O1 1.968878 1_555
Fe6 O5 1.938184 1_554
Fe6 O5 1.938971 1_555
Fe6 O9 1.944025 1_555
Fe7 O4 2.013083 1_554
Fe7 O6 2.237272 1_554
Fe7 O6 2.247577 1_555
Fe7 O8 2.426340 1_565
Fe8 O7 1.944723 1_554
Fe8 O7 1.945075 1_555
Fe8 O10 1.948881 1_555
Fe9 O8 1.941597 1_555
Fe9 O8 1.941846 1_556
Fe9 O11 2.098144 1_555
Fe10 O9 1.940426 1_555
Fe10 O9 1.942091 1_556
Fe10 O7 1.951051 1_555
Fe11 O10 1.918609 1_556
Fe11 O10 1.921664 1_555
Fe11 O6 1.954052 1_555
F0 Fe2 2.058083 1_455
F0 Fe2 2.088553 1_456
F0 Fe4 2.114239 1_555
F1 Fe5 2.138277 1_556
F1 Fe2 2.160585 1_456
F1 Fe5 2.160754 1_555
F2 Fe3 2.122501 1_555
F2 Fe3 2.129819 1_554
F2 Fe6 2.152622 1_555
F3 Fe4 2.124100 1_554
F3 Fe8 2.127961 1_555
F3 Fe4 2.134655 1_555
F4 Fe3 2.039135 1_555
F4 Fe7 2.130645 1_545
F4 Fe7 2.132373 1_546
F5 Fe8 2.115529 1_555
F5 Fe8 2.120635 1_556
F5 Fe5 2.202092 1_555
F6 Fe9 2.126519 1_555
F6 Fe6 2.132060 1_555
F6 Fe6 2.133490 1_556
F7 Fe9 2.103610 1_554
F7 Fe9 2.142435 1_555
F7 Fe1 2.234515 1_655
F8 Mg0 1.955163 1_555
F8 Fe11 2.171327 1_554
F8 Fe11 2.185788 1_555
F9 Fe10 2.118110 1_554
F9 Fe10 2.123751 1_555
F9 Fe2 2.207744 1_555
F10 Fe1 2.101390 1_656
F10 Fe1 2.124356 1_655
F10 Fe10 2.171206 1_555
F11 Fe2 2.053717 1_556
F11 Fe2 2.086330 1_555
F11 Fe11 2.120491 1_555
