# generated using pymatgen
data_CrH2
_symmetry_space_group_name_H-M   'P 1'
_cell_length_a   3.07768299
_cell_length_b   3.07768164
_cell_length_c   3.07768176
_cell_angle_alpha   59.99998563
_cell_angle_beta   60.00000022
_cell_angle_gamma   59.99998572
_symmetry_Int_Tables_number   1
_chemical_formula_structural   CrH2
_chemical_formula_sum   'Cr1 H2'
_cell_volume   20.61371165
_cell_formula_units_Z   1
loop_
 _symmetry_equiv_pos_site_id
 _symmetry_equiv_pos_as_xyz
  1  'x, y, z'
loop_
 _atom_site_type_symbol
 _atom_site_label
 _atom_site_symmetry_multiplicity
 _atom_site_fract_x
 _atom_site_fract_y
 _atom_site_fract_z
 _atom_site_occupancy
  Cr  Cr0  1  -0.00000000  -0.00000000  0.00000000  1
  H  H0  1  0.75000000  0.75000000  0.75000000  1
  H  H1  1  0.25000000  0.25000000  0.25000000  1
loop_
_geom_bond_atom_site_label_1
_geom_bond_atom_site_label_2
_geom_bond_distance
_geom_bond_site_symmetry_2
Cr0 H1 1.884687 1_545
Cr0 H0 1.884687 1_454
Cr0 H1 1.884687 1_554
Cr0 H0 1.884687 1_445
Cr0 H0 1.884688 1_444
Cr0 H1 1.884688 1_555
Cr0 H0 1.884688 1_544
Cr0 H1 1.884688 1_455
