# generated using pymatgen
data_ZrIn2
_symmetry_space_group_name_H-M   'P 1'
_cell_length_a   4.41119042
_cell_length_b   4.41118949
_cell_length_c   14.03474561
_cell_angle_alpha   99.04165264
_cell_angle_beta   99.04165293
_cell_angle_gamma   90.00000290
_symmetry_Int_Tables_number   1
_chemical_formula_structural   ZrIn2
_chemical_formula_sum   'Zr4 In8'
_cell_volume   266.26641365
_cell_formula_units_Z   4
loop_
 _symmetry_equiv_pos_site_id
 _symmetry_equiv_pos_as_xyz
  1  'x, y, z'
loop_
 _atom_site_type_symbol
 _atom_site_label
 _atom_site_symmetry_multiplicity
 _atom_site_fract_x
 _atom_site_fract_y
 _atom_site_fract_z
 _atom_site_occupancy
  Zr  Zr0  1  0.70208139  0.95208139  0.90416278  1
  Zr  Zr1  1  0.45208139  0.20208139  0.40416278  1
  Zr  Zr2  1  0.29791861  0.04791861  0.09583722  1
  Zr  Zr3  1  0.54791861  0.79791861  0.59583722  1
  In  In0  1  0.87550223  0.12550223  0.25100646  1
  In  In1  1  0.62550223  0.37550223  0.75100646  1
  In  In2  1  0.12449777  0.87449777  0.74899354  1
  In  In3  1  0.37449777  0.62449777  0.24899354  1
  In  In4  1  0.03702139  0.28702139  0.57404178  1
  In  In5  1  0.78702139  0.53702139  0.07404178  1
  In  In6  1  0.96297861  0.71297861  0.42595822  1
  In  In7  1  0.21297861  0.46297861  0.92595822  1
loop_
_geom_bond_atom_site_label_1
_geom_bond_atom_site_label_2
_geom_bond_distance
_geom_bond_site_symmetry_2
Zr0 Zr2 3.426931 1_566
Zr0 Zr2 3.426931 1_666
Zr1 Zr3 3.426930 1_555
Zr1 Zr3 3.426930 1_545
In0 Zr1 3.042500 1_555
In0 Zr1 3.042506 1_655
In0 Zr2 3.061538 1_555
In0 Zr2 3.061544 1_655
In0 In3 3.119291 1_545
In0 In3 3.119304 1_645
In0 In3 3.119304 1_555
In0 In3 3.119316 1_655
In0 In6 3.255127 1_545
In0 In6 3.255130 1_555
In0 In5 3.275434 1_545
In0 In5 3.275443 1_555
In1 Zr0 3.042499 1_545
In1 Zr0 3.042506 1_555
In1 Zr3 3.061538 1_545
In1 Zr3 3.061544 1_555
In1 In2 3.119291 1_545
In1 In2 3.119304 1_645
In1 In2 3.119304 1_555
In1 In2 3.119316 1_655
In1 In7 3.255127 1_555
In1 In7 3.255130 1_655
In1 In4 3.275435 1_555
In1 In4 3.275444 1_655
In2 Zr3 3.042500 1_555
In2 Zr3 3.042506 1_455
In2 Zr0 3.061538 1_555
In2 Zr0 3.061544 1_455
In2 In4 3.255127 1_565
In2 In4 3.255130 1_555
In2 In7 3.275434 1_565
In2 In7 3.275443 1_555
In3 Zr2 3.042499 1_565
In3 Zr2 3.042506 1_555
In3 Zr1 3.061538 1_565
In3 Zr1 3.061544 1_555
In3 In5 3.255127 1_555
In3 In5 3.255130 1_455
In3 In6 3.275435 1_555
In3 In6 3.275444 1_455
In4 In6 2.995108 1_455
In4 In6 2.995114 1_445
In4 Zr3 3.133405 1_555
In4 Zr3 3.133408 1_455
In4 Zr3 3.133408 1_545
In4 Zr3 3.133411 1_445
In4 Zr1 3.204421 1_555
In4 Zr1 3.204424 1_455
In5 In7 2.995108 1_654
In5 In7 2.995115 1_554
In5 Zr2 3.133405 1_665
In5 Zr2 3.133408 1_565
In5 Zr2 3.133408 1_655
In5 Zr2 3.133411 1_555
In5 Zr0 3.204421 1_554
In5 Zr0 3.204424 1_544
In6 Zr1 3.133405 1_555
In6 Zr1 3.133408 1_655
In6 Zr1 3.133408 1_565
In6 Zr1 3.133411 1_665
In6 Zr3 3.204421 1_555
In6 Zr3 3.204424 1_655
In7 Zr0 3.133405 1_445
In7 Zr0 3.133408 1_545
In7 Zr0 3.133408 1_455
In7 Zr0 3.133411 1_555
In7 Zr2 3.204421 1_556
In7 Zr2 3.204424 1_566
