# generated using pymatgen
data_Ba2YMgBiO6
_symmetry_space_group_name_H-M   'P 1'
_cell_length_a   6.24150398
_cell_length_b   6.65433351
_cell_length_c   6.65433404
_cell_angle_alpha   57.46236257
_cell_angle_beta   62.03186536
_cell_angle_gamma   62.03186898
_symmetry_Int_Tables_number   1
_chemical_formula_structural   Ba2YMgBiO6
_chemical_formula_sum   'Ba2 Y1 Mg1 Bi1 O6'
_cell_volume   196.87162956
_cell_formula_units_Z   1
loop_
 _symmetry_equiv_pos_site_id
 _symmetry_equiv_pos_as_xyz
  1  'x, y, z'
loop_
 _atom_site_type_symbol
 _atom_site_label
 _atom_site_symmetry_multiplicity
 _atom_site_fract_x
 _atom_site_fract_y
 _atom_site_fract_z
 _atom_site_occupancy
  Ba  Ba0  1  0.69295700  0.80704300  0.80704300  1
  Ba  Ba1  1  0.30704300  0.19295700  0.19295700  1
  Y  Y0  1  0.50000000  0.50000000  0.50000000  1
  Mg  Mg0  1  0.00000000  0.50000000  0.50000000  1
  Bi  Bi0  1  0.00000000  0.00000000  0.00000000  1
  O  O0  1  0.76455000  0.72559600  0.27440400  1
  O  O1  1  0.23545000  0.72559600  0.27440400  1
  O  O2  1  0.76455000  0.27440400  0.72559600  1
  O  O3  1  0.25567300  0.74432700  0.74432700  1
  O  O4  1  0.23545000  0.27440400  0.72559600  1
  O  O5  1  0.74432700  0.25567300  0.25567300  1
loop_
_geom_bond_atom_site_label_1
_geom_bond_atom_site_label_2
_geom_bond_distance
_geom_bond_site_symmetry_2
Ba0 Mg0 3.027706 1_655
Ba0 O2 3.070593 1_565
Ba0 O1 3.070593 1_556
Ba0 O4 3.070593 1_565
Ba0 O0 3.070593 1_556
Ba0 O3 3.181439 1_655
Ba0 O3 3.181439 1_555
Ba0 O5 3.238604 1_556
Ba0 O5 3.238604 1_565
Ba1 Mg0 3.027706 1_555
Ba1 O1 3.070593 1_545
Ba1 O2 3.070593 1_554
Ba1 O0 3.070593 1_545
Ba1 O4 3.070593 1_554
Ba1 O5 3.181439 1_455
Ba1 O5 3.181439 1_555
Ba1 O3 3.238604 1_554
Ba1 O3 3.238604 1_545
Mg0 O2 2.059751 1_455
Mg0 O1 2.059751 1_555
Mg0 O0 2.059752 1_455
Mg0 O4 2.059752 1_555
Bi0 O4 2.289406 1_554
Bi0 O0 2.289406 1_445
Bi0 O2 2.289406 1_454
Bi0 O1 2.289406 1_545
Bi0 O5 2.521154 1_455
Bi0 O3 2.521154 1_544
O0 Y0 2.193032 1_555
O1 Y0 2.193033 1_555
O2 Y0 2.193033 1_555
O3 Y0 2.409273 1_555
O4 Y0 2.193032 1_555
O5 Y0 2.409273 1_555
