# generated using pymatgen
data_MgTi2(Ga2O5)2
_symmetry_space_group_name_H-M   'P 1'
_cell_length_a   3.70225400
_cell_length_b   10.32285400
_cell_length_c   5.48382514
_cell_angle_alpha   90.00000000
_cell_angle_beta   70.27627632
_cell_angle_gamma   90.00000000
_symmetry_Int_Tables_number   1
_chemical_formula_structural   MgTi2(Ga2O5)2
_chemical_formula_sum   'Mg1 Ti2 Ga4 O10'
_cell_volume   197.28401777
_cell_formula_units_Z   1
loop_
 _symmetry_equiv_pos_site_id
 _symmetry_equiv_pos_as_xyz
  1  'x, y, z'
loop_
 _atom_site_type_symbol
 _atom_site_label
 _atom_site_symmetry_multiplicity
 _atom_site_fract_x
 _atom_site_fract_y
 _atom_site_fract_z
 _atom_site_occupancy
  Mg  Mg0  1  0.50275100  0.75000000  0.99457100  1
  Ti  Ti0  1  0.19099200  0.25000000  0.61797500  1
  Ti  Ti1  1  0.80207500  0.75000000  0.39550400  1
  Ga  Ga0  1  0.13893300  0.54516500  0.72195900  1
  Ga  Ga1  1  0.13893300  0.95483500  0.72195900  1
  Ga  Ga2  1  0.87813100  0.06771600  0.24357700  1
  Ga  Ga3  1  0.87813100  0.43228400  0.24357700  1
  O  O0  1  0.05367100  0.11781500  0.89198900  1
  O  O1  1  0.05367100  0.38218500  0.89198900  1
  O  O2  1  0.65779800  0.88692900  0.68419700  1
  O  O3  1  0.65779800  0.61307100  0.68419700  1
  O  O4  1  0.29718500  0.75000000  0.40543200  1
  O  O5  1  0.77099300  0.25000000  0.45825200  1
  O  O6  1  0.30434300  0.06016700  0.39120400  1
  O  O7  1  0.30434300  0.43983300  0.39120400  1
  O  O8  1  0.95298300  0.62021300  0.09370700  1
  O  O9  1  0.95298300  0.87978700  0.09370700  1
loop_
_geom_bond_atom_site_label_1
_geom_bond_atom_site_label_2
_geom_bond_distance
_geom_bond_site_symmetry_2
Mg0 O4 2.120903 1_556
Mg0 O3 2.136576 1_555
Mg0 O2 2.136576 1_555
Mg0 O9 2.341080 1_556
Mg0 O8 2.341080 1_556
Mg0 O9 2.342316 1_456
Mg0 O8 2.342316 1_456
Ga0 O1 1.897606 1_555
Ga0 O3 1.988941 1_555
Ga0 O3 1.989022 1_455
Ga0 O7 2.024217 1_555
Ga0 O8 2.069475 1_456
Ga1 O0 1.897606 1_565
Ga1 O2 1.988941 1_555
Ga1 O2 1.989022 1_455
Ga1 O6 2.024217 1_565
Ga1 O9 2.069475 1_456
Ga2 O0 1.887176 1_654
Ga2 O6 2.003338 1_555
Ga2 O6 2.003399 1_655
Ga2 O9 2.088536 1_545
Ga2 O5 2.183760 1_555
Ga3 O1 1.887176 1_654
Ga3 O7 2.003338 1_555
Ga3 O7 2.003399 1_655
Ga3 O8 2.088536 1_555
Ga3 O5 2.183760 1_555
O0 Ti0 1.965376 1_555
O1 Ti0 1.965376 1_555
O2 Ti1 2.053985 1_555
O3 Ti1 2.053985 1_555
O4 Ti1 1.851567 1_555
O4 Ti1 1.852106 1_455
O5 Ti0 2.025912 1_655
O5 Ti0 2.026978 1_555
O6 Ti0 2.282639 1_555
O7 Ti0 2.282639 1_555
O8 Ti1 2.054764 1_555
O9 Ti1 2.054764 1_555
