# generated using pymatgen
data_Na2Mn2S3
_symmetry_space_group_name_H-M   'P 1'
_cell_length_a   9.97629558
_cell_length_b   9.97629558
_cell_length_c   6.91928888
_cell_angle_alpha   70.23652318
_cell_angle_beta   70.23652318
_cell_angle_gamma   83.80286329
_symmetry_Int_Tables_number   1
_chemical_formula_structural   Na2Mn2S3
_chemical_formula_sum   'Na8 Mn8 S12'
_cell_volume   609.89785404
_cell_formula_units_Z   4
loop_
 _symmetry_equiv_pos_site_id
 _symmetry_equiv_pos_as_xyz
  1  'x, y, z'
loop_
 _atom_site_type_symbol
 _atom_site_label
 _atom_site_symmetry_multiplicity
 _atom_site_fract_x
 _atom_site_fract_y
 _atom_site_fract_z
 _atom_site_occupancy
  Na  Na0  1  0.98830073  0.81535173  0.12826247  1
  Na  Na1  1  0.18464827  0.01169927  0.37173753  1
  Na  Na2  1  0.01169927  0.18464827  0.87173753  1
  Na  Na3  1  0.81535173  0.98830073  0.62826247  1
  Na  Na4  1  0.28149476  0.71850524  0.25000000  1
  Na  Na5  1  0.71850524  0.28149476  0.75000000  1
  Na  Na6  1  0.57117775  0.42882225  0.25000000  1
  Na  Na7  1  0.42882225  0.57117775  0.75000000  1
  Mn  Mn0  1  0.08360740  0.55613651  0.75483697  1
  Mn  Mn1  1  0.91639260  0.44386349  0.24516303  1
  Mn  Mn2  1  0.55613651  0.08360740  0.25483697  1
  Mn  Mn3  1  0.36426290  0.21718533  0.79740123  1
  Mn  Mn4  1  0.78281467  0.63573710  0.70259877  1
  Mn  Mn5  1  0.63573710  0.78281467  0.20259877  1
  Mn  Mn6  1  0.21718533  0.36426290  0.29740123  1
  Mn  Mn7  1  0.44386349  0.91639260  0.74516303  1
  S  S0  1  0.22753079  0.00033778  0.95318649  1
  S  S1  1  0.00033778  0.22753079  0.45318649  1
  S  S2  1  0.77246921  -0.00033778  0.04681351  1
  S  S3  1  0.58119565  0.14470688  0.55534342  1
  S  S4  1  0.85529312  0.41880435  0.94465658  1
  S  S5  1  0.41880435  0.85529312  0.44465658  1
  S  S6  1  -0.00033778  0.77246921  0.54681351  1
  S  S7  1  0.14470688  0.58119565  0.05534342  1
  S  S8  1  0.43242341  0.28171306  0.06426882  1
  S  S9  1  0.71828694  0.56757659  0.43573118  1
  S  S10  1  0.56757659  0.71828694  0.93573118  1
  S  S11  1  0.28171306  0.43242341  0.56426882  1
loop_
_geom_bond_atom_site_label_1
_geom_bond_atom_site_label_2
_geom_bond_distance
_geom_bond_site_symmetry_2
Na0 S2 2.756791 1_565
Na0 S7 2.761146 1_655
Na0 S6 2.820773 1_655
Na0 S0 2.837795 1_664
Na1 S1 2.756791 1_555
Na1 S5 2.761146 1_545
Na1 S0 2.820773 1_554
Na1 S6 2.837795 1_545
Na2 S0 2.756791 1_555
Na2 S4 2.761146 1_455
Na2 S1 2.820773 1_555
Na2 S2 2.837795 1_456
Na3 S6 2.756791 1_655
Na3 S3 2.761146 1_565
Na3 S2 2.820773 1_566
Na3 S1 2.837795 1_665
Na4 S5 2.906394 1_555
Na4 S7 2.906394 1_555
Na4 S11 2.945988 1_555
Na4 S10 2.945988 1_554
Na4 S0 2.988121 1_564
Na4 S6 2.988121 1_555
Na5 S4 2.906394 1_555
Na5 S3 2.906394 1_555
Na5 S9 2.945988 1_555
Na5 S8 2.945988 1_556
Na5 S1 2.988121 1_655
Na5 S2 2.988121 1_556
Na6 S3 2.922237 1_555
Na6 S4 2.922237 1_554
Na6 S9 2.939173 1_555
Na6 S8 2.939173 1_555
Na6 S10 2.975374 1_554
Na6 S11 2.975374 1_555
Na7 S5 2.922237 1_555
Na7 S7 2.922237 1_556
Na7 S11 2.939173 1_555
Na7 S10 2.939173 1_555
Na7 S8 2.975374 1_556
Na7 S9 2.975374 1_555
Mn0 S6 2.398983 1_555
Mn0 S11 2.445303 1_555
Mn0 S7 2.449299 1_556
Mn0 S4 2.494766 1_455
Mn1 S1 2.398983 1_655
Mn1 S9 2.445303 1_555
Mn1 S4 2.449299 1_554
Mn1 S7 2.494766 1_655
Mn2 S2 2.398983 1_555
Mn2 S8 2.445303 1_555
Mn2 S3 2.449299 1_555
Mn2 S5 2.494766 1_545
Mn3 S0 2.401743 1_555
Mn3 S8 2.456427 1_556
Mn3 S3 2.457954 1_555
Mn3 S11 2.462780 1_555
Mn4 S6 2.401743 1_655
Mn4 S9 2.456427 1_555
Mn4 S4 2.457954 1_555
Mn4 S10 2.462780 1_555
Mn5 S2 2.401743 1_565
Mn5 S10 2.456427 1_554
Mn5 S5 2.457954 1_555
Mn5 S9 2.462780 1_555
Mn6 S1 2.401743 1_555
Mn6 S11 2.456427 1_555
Mn6 S7 2.457954 1_555
Mn6 S8 2.462780 1_555
Mn7 S0 2.398983 1_565
Mn7 S10 2.445303 1_555
Mn7 S5 2.449299 1_555
Mn7 S3 2.494766 1_565
