# generated using pymatgen
data_Mg(CuS)6
_symmetry_space_group_name_H-M   'P 1'
_cell_length_a   3.75786600
_cell_length_b   3.75645825
_cell_length_c   18.02292741
_cell_angle_alpha   89.57727423
_cell_angle_beta   90.00000000
_cell_angle_gamma   120.01239759
_symmetry_Int_Tables_number   1
_chemical_formula_structural   Mg(CuS)6
_chemical_formula_sum   'Mg1 Cu6 S6'
_cell_volume   220.29558214
_cell_formula_units_Z   1
loop_
 _symmetry_equiv_pos_site_id
 _symmetry_equiv_pos_as_xyz
  1  'x, y, z'
loop_
 _atom_site_type_symbol
 _atom_site_label
 _atom_site_symmetry_multiplicity
 _atom_site_fract_x
 _atom_site_fract_y
 _atom_site_fract_z
 _atom_site_occupancy
  Mg  Mg0  1  0.66292800  0.32585700  0.49146300  1
  Cu  Cu0  1  0.33063200  0.66126500  0.35510500  1
  Cu  Cu1  1  0.66772500  0.33544800  0.90066200  1
  Cu  Cu2  1  0.66891200  0.33782400  0.64147500  1
  Cu  Cu3  1  0.33220100  0.66440400  0.09703300  1
  Cu  Cu4  1  0.66651300  0.33302400  0.24117200  1
  Cu  Cu5  1  0.33339000  0.66678100  0.75255500  1
  S  S0  1  0.99508000  0.99016000  0.40588700  1
  S  S1  1  0.00048600  0.00097300  0.94039500  1
  S  S2  1  0.00365300  0.00730500  0.59101500  1
  S  S3  1  0.99943700  0.99887400  0.05742500  1
  S  S4  1  0.66641000  0.33281900  0.77228900  1
  S  S5  1  0.33334600  0.66669400  0.22574500  1
loop_
_geom_bond_atom_site_label_1
_geom_bond_atom_site_label_2
_geom_bond_distance
_geom_bond_site_symmetry_2
Mg0 S0 2.644086 1_555
Mg0 S0 2.670246 1_445
Mg0 S0 2.670249 1_545
Mg0 S2 2.791341 1_555
Mg0 S2 2.791346 1_655
Mg0 S2 2.863619 1_665
Cu0 S5 2.331362 1_555
Cu0 S0 2.351437 1_455
Cu0 S0 2.351440 1_555
Cu0 S0 2.359857 1_445
Cu1 S1 2.283328 1_655
Cu1 S1 2.283337 1_555
Cu1 S1 2.285960 1_665
Cu1 S4 2.313746 1_555
Cu2 S2 2.351589 1_555
Cu2 S2 2.351592 1_655
Cu2 S2 2.352785 1_665
Cu2 S4 2.357569 1_555
Cu2 Mg0 2.704267 1_555
Cu3 S3 2.282625 1_455
Cu3 S3 2.282631 1_555
Cu3 S3 2.285253 1_445
Cu3 S5 2.319842 1_555
Cu4 S5 2.186440 1_655
Cu4 S5 2.186453 1_555
Cu4 S5 2.187535 1_545
Cu5 S4 2.197805 1_455
Cu5 S4 2.197812 1_555
Cu5 S4 2.198465 1_565
S1 S3 2.109176 1_446
