# generated using pymatgen
data_MgV3OF11
_symmetry_space_group_name_H-M   'P 1'
_cell_length_a   7.33651772
_cell_length_b   6.09508103
_cell_length_c   5.21042445
_cell_angle_alpha   95.53032351
_cell_angle_beta   101.33826128
_cell_angle_gamma   95.40579634
_symmetry_Int_Tables_number   1
_chemical_formula_structural   MgV3OF11
_chemical_formula_sum   'Mg1 V3 O1 F11'
_cell_volume   225.84867946
_cell_formula_units_Z   1
loop_
 _symmetry_equiv_pos_site_id
 _symmetry_equiv_pos_as_xyz
  1  'x, y, z'
loop_
 _atom_site_type_symbol
 _atom_site_label
 _atom_site_symmetry_multiplicity
 _atom_site_fract_x
 _atom_site_fract_y
 _atom_site_fract_z
 _atom_site_occupancy
  Mg  Mg0  1  0.18932400  0.49102600  0.09779300  1
  V  V0  1  0.01132500  0.99922700  0.03851500  1
  V  V1  1  0.37298100  0.15815000  0.59923100  1
  V  V2  1  0.63810700  0.82788200  0.40713800  1
  O  O0  1  0.16455500  0.99019000  0.32742500  1
  F  F0  1  0.06184700  0.70502500  0.90031600  1
  F  F1  1  0.28045100  0.41854800  0.45707700  1
  F  F2  1  0.20593500  0.18557900  0.88188100  1
  F  F3  1  0.47100400  0.86234900  0.65448700  1
  F  F4  1  0.43074800  0.68543300  0.14806100  1
  F  F5  1  0.55799500  0.31195700  0.85116700  1
  F  F6  1  0.55272500  0.10751100  0.34378700  1
  F  F7  1  0.78362300  0.86006400  0.13912400  1
  F  F8  1  0.71281500  0.57654400  0.49286200  1
  F  F9  1  0.84587900  0.98771000  0.67032300  1
  F  F10  1  0.95465100  0.29606900  0.10707000  1
loop_
_geom_bond_atom_site_label_1
_geom_bond_atom_site_label_2
_geom_bond_distance
_geom_bond_site_symmetry_2
O0 V0 1.701502 1_555
O0 V1 1.991486 1_565
F0 Mg0 1.935158 1_556
F0 V0 1.962831 1_556
F1 V1 1.939167 1_555
F1 Mg0 1.967109 1_555
F2 V0 2.079896 1_546
F2 V1 2.097532 1_555
F2 Mg0 2.106999 1_556
F3 V2 1.955936 1_555
F3 V1 2.028191 1_565
F4 V2 1.899513 1_555
F4 Mg0 1.993030 1_555
F5 V1 1.807449 1_555
F6 V2 1.906432 1_545
F6 V1 2.072038 1_555
F7 V2 1.930768 1_555
F7 V0 1.986963 1_655
F8 V2 1.743714 1_555
F9 V2 1.947780 1_555
F9 V0 2.049637 1_656
F10 V0 1.910374 1_645
F10 Mg0 2.009192 1_655
