# generated using pymatgen
data_MnSiIr
_symmetry_space_group_name_H-M   'P 1'
_cell_length_a   3.86645540
_cell_length_b   6.19520138
_cell_length_c   7.16274726
_cell_angle_alpha   90.00000000
_cell_angle_beta   90.00000000
_cell_angle_gamma   90.00000000
_symmetry_Int_Tables_number   1
_chemical_formula_structural   MnSiIr
_chemical_formula_sum   'Mn4 Si4 Ir4'
_cell_volume   171.57265039
_cell_formula_units_Z   4
loop_
 _symmetry_equiv_pos_site_id
 _symmetry_equiv_pos_as_xyz
  1  'x, y, z'
loop_
 _atom_site_type_symbol
 _atom_site_label
 _atom_site_symmetry_multiplicity
 _atom_site_fract_x
 _atom_site_fract_y
 _atom_site_fract_z
 _atom_site_occupancy
  Mn  Mn0  1  0.75000000  0.97373952  0.17880258  1
  Mn  Mn1  1  0.25000000  0.02626048  0.82119742  1
  Mn  Mn2  1  0.75000000  0.47373952  0.32119742  1
  Mn  Mn3  1  0.25000000  0.52626048  0.67880258  1
  Si  Si0  1  0.25000000  0.27950834  0.12634113  1
  Si  Si1  1  0.75000000  0.72049166  0.87365887  1
  Si  Si2  1  0.25000000  0.77950834  0.37365887  1
  Si  Si3  1  0.75000000  0.22049166  0.62634113  1
  Ir  Ir0  1  0.25000000  0.66343267  0.06072307  1
  Ir  Ir1  1  0.75000000  0.33656733  0.93927693  1
  Ir  Ir2  1  0.25000000  0.16343267  0.43927693  1
  Ir  Ir3  1  0.75000000  0.83656733  0.56072307  1
loop_
_geom_bond_atom_site_label_1
_geom_bond_atom_site_label_2
_geom_bond_distance
_geom_bond_site_symmetry_2
Mn0 Si2 2.670824 1_555
Mn0 Si2 2.670824 1_655
Mn0 Si1 2.690475 1_554
Mn0 Si0 2.732570 1_565
Mn0 Si0 2.732570 1_665
Mn1 Si3 2.670824 1_455
Mn1 Si3 2.670824 1_555
Mn1 Si0 2.690475 1_556
Mn1 Si1 2.732570 1_445
Mn1 Si1 2.732570 1_545
Mn2 Si0 2.670824 1_555
Mn2 Si0 2.670824 1_655
Mn2 Si3 2.690475 1_555
Mn2 Si2 2.732570 1_555
Mn2 Si2 2.732570 1_655
Mn3 Si1 2.670824 1_455
Mn3 Si1 2.670824 1_555
Mn3 Si2 2.690475 1_555
Mn3 Si3 2.732570 1_455
Mn3 Si3 2.732570 1_555
Ir0 Si2 2.354008 1_555
Ir0 Si1 2.378580 1_554
Ir0 Si1 2.378580 1_454
Ir0 Si0 2.424482 1_555
Ir0 Mn1 2.827731 1_564
Ir0 Mn0 2.854536 1_455
Ir0 Mn0 2.854536 1_555
Ir0 Mn3 2.864556 1_554
Ir0 Mn2 2.932459 1_555
Ir0 Mn2 2.932459 1_455
Ir1 Si3 2.354008 1_555
Ir1 Si0 2.378580 1_656
Ir1 Si0 2.378580 1_556
Ir1 Si1 2.424482 1_555
Ir1 Mn0 2.827731 1_546
Ir1 Mn1 2.854536 1_655
Ir1 Mn1 2.854536 1_555
Ir1 Mn2 2.864556 1_556
Ir1 Mn3 2.932459 1_555
Ir1 Mn3 2.932459 1_655
Ir2 Si0 2.354008 1_555
Ir2 Si3 2.378580 1_455
Ir2 Si3 2.378580 1_555
Ir2 Si2 2.424482 1_545
Ir2 Mn3 2.827731 1_555
Ir2 Mn2 2.854536 1_555
Ir2 Mn2 2.854536 1_455
Ir2 Mn1 2.864556 1_555
Ir2 Mn0 2.932459 1_445
Ir2 Mn0 2.932459 1_545
Ir3 Si1 2.354008 1_555
Ir3 Si2 2.378580 1_555
Ir3 Si2 2.378580 1_655
Ir3 Si3 2.424482 1_565
Ir3 Mn2 2.827731 1_555
Ir3 Mn3 2.854536 1_555
Ir3 Mn3 2.854536 1_655
Ir3 Mn0 2.864556 1_555
Ir3 Mn1 2.932459 1_565
Ir3 Mn1 2.932459 1_665
