# generated using pymatgen
data_MgCd2(BiO3)2
_symmetry_space_group_name_H-M   'P 1'
_cell_length_a   5.80674339
_cell_length_b   5.80670259
_cell_length_c   6.79924784
_cell_angle_alpha   64.74078090
_cell_angle_beta   115.31236741
_cell_angle_gamma   119.99796820
_symmetry_Int_Tables_number   1
_chemical_formula_structural   MgCd2(BiO3)2
_chemical_formula_sum   'Mg1 Cd2 Bi2 O6'
_cell_volume   172.71698076
_cell_formula_units_Z   1
loop_
 _symmetry_equiv_pos_site_id
 _symmetry_equiv_pos_as_xyz
  1  'x, y, z'
loop_
 _atom_site_type_symbol
 _atom_site_label
 _atom_site_symmetry_multiplicity
 _atom_site_fract_x
 _atom_site_fract_y
 _atom_site_fract_z
 _atom_site_occupancy
  Mg  Mg0  1  0.74722364  0.25321653  0.24034549  1
  Cd  Cd0  1  0.51841697  0.48198456  0.55376156  1
  Cd  Cd1  1  0.34377741  0.65799436  0.02769156  1
  Bi  Bi0  1  0.97026044  0.03166685  0.90691609  1
  Bi  Bi1  1  0.15923146  0.84181610  0.47585402  1
  O  O0  1  0.93777433  0.75774944  0.74419301  1
  O  O1  1  0.56526617  0.06286096  0.74625940  1
  O  O2  1  0.24452584  0.43592434  0.74557738  1
  O  O3  1  0.73953008  0.57303866  0.26433025  1
  O  O4  1  0.42595077  0.90294726  0.26189117  1
  O  O5  1  0.09804187  0.26121694  0.26234707  1
loop_
_geom_bond_atom_site_label_1
_geom_bond_atom_site_label_2
_geom_bond_distance
_geom_bond_site_symmetry_2
Mg0 O4 1.955456 1_545
Mg0 O5 1.955780 1_655
Mg0 O3 1.955789 1_555
Cd0 O0 2.311838 1_555
Cd0 O1 2.312830 1_555
Cd0 O2 2.313557 1_555
Cd0 O3 2.528748 1_555
Cd0 O5 2.535885 1_555
Cd0 O4 2.542238 1_555
Cd1 O4 2.321871 1_555
Cd1 O3 2.325417 1_555
Cd1 O5 2.326406 1_555
Cd1 O1 2.466665 1_564
Cd1 O2 2.469167 1_554
Cd1 O0 2.477068 1_454
Bi0 O2 2.192731 1_655
Bi0 O0 2.193838 1_545
Bi0 O1 2.194754 1_555
Bi1 O3 2.357702 1_455
Bi1 O5 2.360408 1_565
Bi1 O4 2.361634 1_555
Bi1 O0 2.416450 1_455
Bi1 O2 2.421826 1_555
Bi1 O1 2.422365 1_565
