# generated using pymatgen
data_Ba5AlIr2O11
_symmetry_space_group_name_H-M   'P 1'
_cell_length_a   5.83672500
_cell_length_b   11.25660700
_cell_length_c   18.97110600
_cell_angle_alpha   90.00000000
_cell_angle_beta   90.00000000
_cell_angle_gamma   90.00000000
_symmetry_Int_Tables_number   1
_chemical_formula_structural   Ba5AlIr2O11
_chemical_formula_sum   'Ba20 Al4 Ir8 O44'
_cell_volume   1246.43428487
_cell_formula_units_Z   4
loop_
 _symmetry_equiv_pos_site_id
 _symmetry_equiv_pos_as_xyz
  1  'x, y, z'
loop_
 _atom_site_type_symbol
 _atom_site_label
 _atom_site_symmetry_multiplicity
 _atom_site_fract_x
 _atom_site_fract_y
 _atom_site_fract_z
 _atom_site_occupancy
  Ba  Ba0  1  0.75000000  0.60452400  0.02658400  1
  Ba  Ba1  1  0.25000000  0.87431400  0.25277100  1
  Ba  Ba2  1  0.75000000  0.04582500  0.32806800  1
  Ba  Ba3  1  0.75000000  0.89547600  0.52658400  1
  Ba  Ba4  1  0.25000000  0.47300100  0.42650500  1
  Ba  Ba5  1  0.75000000  0.45417500  0.82806800  1
  Ba  Ba6  1  0.25000000  0.39547600  0.97341600  1
  Ba  Ba7  1  0.75000000  0.12568600  0.74722900  1
  Ba  Ba8  1  0.25000000  0.62568600  0.75277100  1
  Ba  Ba9  1  0.75000000  0.97300100  0.07349500  1
  Ba  Ba10  1  0.25000000  0.10452400  0.47341600  1
  Ba  Ba11  1  0.75000000  0.69220100  0.36085900  1
  Ba  Ba12  1  0.75000000  0.80779900  0.86085900  1
  Ba  Ba13  1  0.25000000  0.19220100  0.13914100  1
  Ba  Ba14  1  0.75000000  0.37431400  0.24722900  1
  Ba  Ba15  1  0.75000000  0.52699900  0.57349500  1
  Ba  Ba16  1  0.25000000  0.54582500  0.17193200  1
  Ba  Ba17  1  0.25000000  0.30779900  0.63914100  1
  Ba  Ba18  1  0.25000000  0.95417500  0.67193200  1
  Ba  Ba19  1  0.25000000  0.02699900  0.92650500  1
  Al  Al0  1  0.75000000  0.73979700  0.18764700  1
  Al  Al1  1  0.25000000  0.23979700  0.31235300  1
  Al  Al2  1  0.75000000  0.76020300  0.68764700  1
  Al  Al3  1  0.25000000  0.26020300  0.81235300  1
  Ir  Ir0  1  0.75000000  0.28858300  0.06236600  1
  Ir  Ir1  1  0.25000000  0.79470800  0.06340800  1
  Ir  Ir2  1  0.25000000  0.78858300  0.43763400  1
  Ir  Ir3  1  0.75000000  0.20529200  0.93659200  1
  Ir  Ir4  1  0.75000000  0.29470800  0.43659200  1
  Ir  Ir5  1  0.25000000  0.71141700  0.93763400  1
  Ir  Ir6  1  0.75000000  0.21141700  0.56236600  1
  Ir  Ir7  1  0.25000000  0.70529200  0.56340800  1
  O  O0  1  0.25000000  0.88173100  0.53141900  1
  O  O1  1  0.50162000  0.25035000  0.36514000  1
  O  O2  1  0.75000000  0.59966600  0.22841400  1
  O  O3  1  0.51527400  0.32642300  0.51364900  1
  O  O4  1  0.25000000  0.35955400  0.25343900  1
  O  O5  1  0.49838000  0.75035000  0.13486000  1
  O  O6  1  0.00162000  0.74965000  0.63486000  1
  O  O7  1  0.51548000  0.10462600  0.60041300  1
  O  O8  1  0.48472600  0.82642300  0.98635100  1
  O  O9  1  0.01527400  0.67357700  0.48635100  1
  O  O10  1  0.75000000  0.90033400  0.72841400  1
  O  O11  1  0.25000000  0.40033400  0.77158600  1
  O  O12  1  0.75000000  0.11826900  0.46858100  1
  O  O13  1  0.25000000  0.54236600  0.59954400  1
  O  O14  1  0.48472600  0.67357700  0.48635100  1
  O  O15  1  0.25000000  0.61826900  0.03141900  1
  O  O16  1  0.00162000  0.75035000  0.13486000  1
  O  O17  1  0.48452000  0.60462600  0.89958700  1
  O  O18  1  0.98452000  0.39537400  0.10041300  1
  O  O19  1  0.01548000  0.89537400  0.39958700  1
  O  O20  1  0.25000000  0.14044600  0.75343900  1
  O  O21  1  0.75000000  0.45763400  0.40045600  1
  O  O22  1  0.75000000  0.30961800  0.64955500  1
  O  O23  1  0.01548000  0.60462600  0.89958700  1
  O  O24  1  0.51527400  0.17357700  0.01364900  1
  O  O25  1  0.25000000  0.95763400  0.09954400  1
  O  O26  1  0.75000000  0.38173100  0.96858100  1
  O  O27  1  0.75000000  0.04236600  0.90045600  1
  O  O28  1  0.75000000  0.19038200  0.14955500  1
  O  O29  1  0.98472600  0.17357700  0.01364900  1
  O  O30  1  0.25000000  0.69038200  0.35044500  1
  O  O31  1  0.25000000  0.80961800  0.85044500  1
  O  O32  1  0.98452000  0.10462600  0.60041300  1
  O  O33  1  0.99838000  0.25035000  0.36514000  1
  O  O34  1  0.75000000  0.64044600  0.74656100  1
  O  O35  1  0.50162000  0.24965000  0.86514000  1
  O  O36  1  0.25000000  0.09966600  0.27158600  1
  O  O37  1  0.98472600  0.32642300  0.51364900  1
  O  O38  1  0.75000000  0.85955400  0.24656100  1
  O  O39  1  0.48452000  0.89537400  0.39958700  1
  O  O40  1  0.01527400  0.82642300  0.98635100  1
  O  O41  1  0.51548000  0.39537400  0.10041300  1
  O  O42  1  0.49838000  0.74965000  0.63486000  1
  O  O43  1  0.99838000  0.24965000  0.86514000  1
loop_
_geom_bond_atom_site_label_1
_geom_bond_atom_site_label_2
_geom_bond_distance
_geom_bond_site_symmetry_2
Ba0 O26 2.738680 1_554
Ba0 O23 2.864551 1_654
Ba0 O17 2.864551 1_554
Ba0 O15 2.923900 1_555
Ba0 O15 2.923900 1_655
Ba0 O16 3.011781 1_655
Ba0 O5 3.011781 1_555
Ba0 O40 3.036290 1_654
Ba0 O8 3.036290 1_554
Ba0 O41 3.062392 1_555
Ba0 O18 3.062392 1_555
Ba1 O36 2.561689 1_565
Ba1 O30 2.778545 1_555
Ba1 O38 2.925461 1_455
Ba1 O38 2.925461 1_555
Ba1 O16 3.008757 1_555
Ba1 O5 3.008757 1_555
Ba1 O25 3.054446 1_555
Ba1 O39 3.112487 1_555
Ba1 O19 3.112487 1_555
Ba2 O38 2.605275 1_545
Ba2 O39 2.666480 1_545
Ba2 O19 2.666480 1_645
Ba2 O12 2.787631 1_555
Ba2 O1 2.810111 1_555
Ba2 O33 2.810111 1_555
Ba2 O36 3.167385 1_655
Ba2 O36 3.167385 1_555
Ba3 O12 2.738680 1_565
Ba3 O19 2.864551 1_655
Ba3 O39 2.864551 1_555
Ba3 O0 2.923900 1_555
Ba3 O0 2.923900 1_655
Ba3 O6 3.011781 1_655
Ba3 O42 3.011781 1_555
Ba3 O14 3.036290 1_555
Ba3 O9 3.036290 1_655
Ba3 O7 3.062392 1_565
Ba3 O32 3.062392 1_565
Ba4 O37 2.802296 1_455
Ba4 O3 2.802296 1_555
Ba4 O30 2.840732 1_555
Ba4 O14 2.874661 1_555
Ba4 O9 2.874661 1_555
Ba4 O21 2.964958 1_455
Ba4 O21 2.964958 1_555
Ba4 O33 3.129486 1_455
Ba4 O1 3.129486 1_555
Ba5 O34 2.605275 1_555
Ba5 O23 2.666480 1_655
Ba5 O17 2.666480 1_555
Ba5 O26 2.787631 1_555
Ba5 O35 2.810111 1_555
Ba5 O43 2.810111 1_555
Ba5 O11 3.167385 1_555
Ba5 O11 3.167385 1_655
Ba6 O15 2.738680 1_556
Ba6 O18 2.864551 1_456
Ba6 O41 2.864551 1_556
Ba6 O26 2.923900 1_455
Ba6 O26 2.923900 1_555
Ba6 O35 3.011781 1_555
Ba6 O43 3.011781 1_455
Ba6 O24 3.036290 1_556
Ba6 O29 3.036290 1_456
Ba6 O17 3.062392 1_555
Ba6 O23 3.062392 1_555
Ba7 O10 2.561689 1_545
Ba7 O22 2.778545 1_555
Ba7 O20 2.925461 1_655
Ba7 O20 2.925461 1_555
Ba7 O35 3.008757 1_555
Ba7 O43 3.008757 1_555
Ba7 O27 3.054446 1_555
Ba7 O7 3.112487 1_555
Ba7 O32 3.112487 1_555
Ba8 O11 2.561689 1_555
Ba8 O31 2.778545 1_555
Ba8 O34 2.925461 1_455
Ba8 O34 2.925461 1_555
Ba8 O6 3.008757 1_555
Ba8 O42 3.008757 1_555
Ba8 O13 3.054446 1_555
Ba8 O17 3.112487 1_555
Ba8 O23 3.112487 1_555
Ba9 O40 2.802296 1_654
Ba9 O8 2.802296 1_554
Ba9 O28 2.840732 1_565
Ba9 O24 2.874661 1_565
Ba9 O29 2.874661 1_565
Ba9 O25 2.964958 1_555
Ba9 O25 2.964958 1_655
Ba9 O16 3.129486 1_655
Ba9 O5 3.129486 1_555
Ba10 O0 2.738680 1_545
Ba10 O32 2.864551 1_455
Ba10 O7 2.864551 1_555
Ba10 O12 2.923900 1_555
Ba10 O12 2.923900 1_455
Ba10 O33 3.011781 1_455
Ba10 O1 3.011781 1_555
Ba10 O3 3.036290 1_555
Ba10 O37 3.036290 1_455
Ba10 O19 3.062392 1_545
Ba10 O39 3.062392 1_545
Ba11 O2 2.719980 1_555
Ba11 O21 2.745207 1_555
Ba11 O9 2.847651 1_655
Ba11 O14 2.847651 1_555
Ba11 O39 2.858567 1_555
Ba11 O19 2.858567 1_655
Ba11 O38 2.872383 1_555
Ba11 O30 2.925114 1_655
Ba11 O30 2.925114 1_555
Ba12 O10 2.719980 1_555
Ba12 O27 2.745207 1_565
Ba12 O40 2.847651 1_655
Ba12 O8 2.847651 1_555
Ba12 O17 2.858567 1_555
Ba12 O23 2.858567 1_655
Ba12 O34 2.872383 1_555
Ba12 O31 2.925114 1_655
Ba12 O31 2.925114 1_555
Ba13 O36 2.719980 1_555
Ba13 O25 2.745207 1_545
Ba13 O24 2.847651 1_555
Ba13 O29 2.847651 1_455
Ba13 O18 2.858567 1_455
Ba13 O41 2.858567 1_555
Ba13 O4 2.872383 1_555
Ba13 O28 2.925114 1_555
Ba13 O28 2.925114 1_455
Ba14 O2 2.561689 1_555
Ba14 O28 2.778545 1_555
Ba14 O4 2.925461 1_555
Ba14 O4 2.925461 1_655
Ba14 O1 3.008757 1_555
Ba14 O33 3.008757 1_555
Ba14 O21 3.054446 1_555
Ba14 O18 3.112487 1_555
Ba14 O41 3.112487 1_555
Ba15 O14 2.802296 1_555
Ba15 O9 2.802296 1_655
Ba15 O22 2.840732 1_555
Ba15 O37 2.874661 1_555
Ba15 O3 2.874661 1_555
Ba15 O13 2.964958 1_555
Ba15 O13 2.964958 1_655
Ba15 O42 3.129486 1_555
Ba15 O6 3.129486 1_655
Ba16 O4 2.605275 1_555
Ba16 O18 2.666480 1_455
Ba16 O41 2.666480 1_555
Ba16 O15 2.787631 1_555
Ba16 O16 2.810111 1_555
Ba16 O5 2.810111 1_555
Ba16 O2 3.167385 1_455
Ba16 O2 3.167385 1_555
Ba17 O11 2.719980 1_555
Ba17 O13 2.745207 1_555
Ba17 O37 2.847651 1_455
Ba17 O3 2.847651 1_555
Ba17 O32 2.858567 1_455
Ba17 O7 2.858567 1_555
Ba17 O20 2.872383 1_555
Ba17 O22 2.925114 1_555
Ba17 O22 2.925114 1_455
Ba18 O20 2.605275 1_565
Ba18 O32 2.666480 1_465
Ba18 O7 2.666480 1_565
Ba18 O0 2.787631 1_555
Ba18 O42 2.810111 1_555
Ba18 O6 2.810111 1_555
Ba18 O10 3.167385 1_455
Ba18 O10 3.167385 1_555
Ba19 O29 2.802296 1_456
Ba19 O24 2.802296 1_556
Ba19 O31 2.840732 1_545
Ba19 O8 2.874661 1_545
Ba19 O40 2.874661 1_545
Ba19 O27 2.964958 1_555
Ba19 O27 2.964958 1_455
Ba19 O43 3.129486 1_455
Ba19 O35 3.129486 1_555
Al0 O38 1.751123 1_555
Al0 O2 1.756795 1_555
Al0 O5 1.781534 1_555
Al0 O16 1.781534 1_655
Al1 O4 1.751123 1_555
Al1 O36 1.756795 1_555
Al1 O33 1.781534 1_455
Al1 O1 1.781534 1_555
Al2 O34 1.751123 1_555
Al2 O10 1.756795 1_555
Al2 O6 1.781534 1_655
Al2 O42 1.781534 1_555
Al3 O20 1.751123 1_555
Al3 O11 1.756795 1_555
Al3 O43 1.781534 1_455
Al3 O35 1.781534 1_555
Ir0 O41 1.959524 1_555
Ir0 O18 1.959524 1_555
Ir0 O28 1.989443 1_555
Ir0 O26 2.065185 1_554
Ir0 O29 2.099307 1_555
Ir0 O24 2.099307 1_555
Ir1 O25 1.957932 1_555
Ir1 O8 2.035058 1_554
Ir1 O40 2.035058 1_554
Ir1 O5 2.046575 1_555
Ir1 O16 2.046575 1_555
Ir1 O15 2.076752 1_555
Ir2 O19 1.959524 1_555
Ir2 O39 1.959524 1_555
Ir2 O30 1.989443 1_555
Ir2 O0 2.065185 1_555
Ir2 O14 2.099307 1_555
Ir2 O9 2.099307 1_555
Ir3 O27 1.957932 1_555
Ir3 O24 2.035058 1_556
Ir3 O29 2.035058 1_556
Ir3 O35 2.046575 1_555
Ir3 O43 2.046575 1_555
Ir3 O26 2.076752 1_555
Ir4 O21 1.957932 1_555
Ir4 O37 2.035058 1_555
Ir4 O3 2.035058 1_555
Ir4 O1 2.046575 1_555
Ir4 O33 2.046575 1_555
Ir4 O12 2.076752 1_555
Ir5 O23 1.959524 1_555
Ir5 O17 1.959524 1_555
Ir5 O31 1.989443 1_555
Ir5 O15 2.065185 1_556
Ir5 O8 2.099307 1_555
Ir5 O40 2.099307 1_555
Ir6 O7 1.959524 1_555
Ir6 O32 1.959524 1_555
Ir6 O22 1.989443 1_555
Ir6 O12 2.065185 1_555
Ir6 O3 2.099307 1_555
Ir6 O37 2.099307 1_555
Ir7 O13 1.957932 1_555
Ir7 O14 2.035058 1_555
Ir7 O9 2.035058 1_555
Ir7 O6 2.046575 1_555
Ir7 O42 2.046575 1_555
Ir7 O0 2.076752 1_555
