# generated using pymatgen
data_Ti3SnC2
_symmetry_space_group_name_H-M   'P 1'
_cell_length_a   3.13974687
_cell_length_b   3.13975278
_cell_length_c   18.68310533
_cell_angle_alpha   90.00010113
_cell_angle_beta   90.00012166
_cell_angle_gamma   120.00022048
_symmetry_Int_Tables_number   1
_chemical_formula_structural   Ti3SnC2
_chemical_formula_sum   'Ti6 Sn2 C4'
_cell_volume   159.50298653
_cell_formula_units_Z   2
loop_
 _symmetry_equiv_pos_site_id
 _symmetry_equiv_pos_as_xyz
  1  'x, y, z'
loop_
 _atom_site_type_symbol
 _atom_site_label
 _atom_site_symmetry_multiplicity
 _atom_site_fract_x
 _atom_site_fract_y
 _atom_site_fract_z
 _atom_site_occupancy
  Ti  Ti0  1  0.99999882  0.99999748  0.00005462  1
  Ti  Ti1  1  0.33333758  0.66667096  0.12479783  1
  Ti  Ti2  1  0.33332772  0.66666681  0.37518780  1
  Ti  Ti3  1  0.00000098  -0.00000131  0.50000804  1
  Ti  Ti4  1  0.66667497  0.33333109  0.62479310  1
  Ti  Ti5  1  0.66666068  0.33332459  0.87521269  1
  Sn  Sn0  1  0.00000031  0.00002604  0.24994357  1
  Sn  Sn1  1  0.00000158  0.99998629  0.74998564  1
  C  C0  1  0.33332954  0.66666000  0.93156140  1
  C  C1  1  0.66666854  0.33333536  0.06846838  1
  C  C2  1  0.66666323  0.33333322  0.43153015  1
  C  C3  1  0.33333904  0.66666446  0.56845579  1
loop_
_geom_bond_atom_site_label_1
_geom_bond_atom_site_label_2
_geom_bond_distance
_geom_bond_site_symmetry_2
Sn0 Ti1 2.958476 1_555
Sn0 Ti1 2.958494 1_445
Sn0 Ti1 2.958553 1_545
Sn0 Ti2 2.959914 1_555
Sn0 Ti2 2.959974 1_445
Sn0 Ti2 2.959997 1_545
Sn1 Ti4 2.959174 1_455
Sn1 Ti4 2.959208 1_465
Sn1 Ti4 2.959212 1_565
Sn1 Ti5 2.959688 1_565
Sn1 Ti5 2.959704 1_455
Sn1 Ti5 2.959732 1_465
C0 Ti5 2.096262 1_565
C0 Ti5 2.096263 1_455
C0 Ti5 2.096268 1_555
C0 Ti0 2.218901 1_446
C0 Ti0 2.218906 1_556
C0 Ti0 2.218914 1_456
C1 Ti1 2.096081 1_545
C1 Ti1 2.096083 1_655
C1 Ti1 2.096087 1_555
C1 Ti0 2.218044 1_555
C1 Ti0 2.218051 1_445
C1 Ti0 2.218058 1_545
C2 Ti2 2.096200 1_655
C2 Ti2 2.096201 1_545
C2 Ti2 2.096214 1_555
C2 Ti3 2.218732 1_555
C2 Ti3 2.218735 1_665
C2 Ti3 2.218757 1_655
C3 Ti4 2.096151 1_455
C3 Ti4 2.096154 1_565
C3 Ti4 2.096167 1_555
C3 Ti3 2.218407 1_665
C3 Ti3 2.218411 1_555
C3 Ti3 2.218433 1_565
