# generated using pymatgen
data_CeCrSe3
_symmetry_space_group_name_H-M   'P 1'
_cell_length_a   3.95426344
_cell_length_b   8.21435316
_cell_length_c   13.73207985
_cell_angle_alpha   90.00000000
_cell_angle_beta   90.00000000
_cell_angle_gamma   90.00000000
_symmetry_Int_Tables_number   1
_chemical_formula_structural   CeCrSe3
_chemical_formula_sum   'Ce4 Cr4 Se12'
_cell_volume   446.04152305
_cell_formula_units_Z   4
loop_
 _symmetry_equiv_pos_site_id
 _symmetry_equiv_pos_as_xyz
  1  'x, y, z'
loop_
 _atom_site_type_symbol
 _atom_site_label
 _atom_site_symmetry_multiplicity
 _atom_site_fract_x
 _atom_site_fract_y
 _atom_site_fract_z
 _atom_site_occupancy
  Ce  Ce0  1  0.25000000  0.09134036  0.17198792  1
  Ce  Ce1  1  0.75000000  0.90865964  0.82801208  1
  Ce  Ce2  1  0.25000000  0.59134036  0.32801208  1
  Ce  Ce3  1  0.75000000  0.40865964  0.67198792  1
  Cr  Cr0  1  0.25000000  0.33898991  0.94783816  1
  Cr  Cr1  1  0.75000000  0.66101009  0.05216184  1
  Cr  Cr2  1  0.25000000  0.83898991  0.55216184  1
  Cr  Cr3  1  0.75000000  0.16101009  0.44783816  1
  Se  Se0  1  0.75000000  0.01432569  0.60800783  1
  Se  Se1  1  0.25000000  0.98567431  0.39199217  1
  Se  Se2  1  0.75000000  0.51432569  0.89199217  1
  Se  Se3  1  0.25000000  0.48567431  0.10800783  1
  Se  Se4  1  0.75000000  0.30811968  0.28757524  1
  Se  Se5  1  0.25000000  0.69188032  0.71242476  1
  Se  Se6  1  0.75000000  0.80811968  0.21242476  1
  Se  Se7  1  0.25000000  0.19188032  0.78757524  1
  Se  Se8  1  0.75000000  0.15879993  0.00533950  1
  Se  Se9  1  0.25000000  0.84120007  0.99466050  1
  Se  Se10  1  0.75000000  0.65879993  0.49466050  1
  Se  Se11  1  0.25000000  0.34120007  0.50533950  1
loop_
_geom_bond_atom_site_label_1
_geom_bond_atom_site_label_2
_geom_bond_distance
_geom_bond_site_symmetry_2
Ce0 Se8 3.074577 1_455
Ce0 Se8 3.074577 1_555
Ce0 Se4 3.098278 1_455
Ce0 Se4 3.098278 1_555
Ce0 Se6 3.103204 1_545
Ce0 Se6 3.103204 1_445
Ce0 Se1 3.143331 1_545
Ce0 Se9 3.186149 1_544
Ce0 Se3 3.356234 1_555
Ce1 Se9 3.074577 1_555
Ce1 Se9 3.074577 1_655
Ce1 Se5 3.098278 1_555
Ce1 Se5 3.098278 1_655
Ce1 Se7 3.103204 1_565
Ce1 Se7 3.103204 1_665
Ce1 Se0 3.143331 1_565
Ce1 Se8 3.186149 1_566
Ce1 Se2 3.356234 1_555
Ce2 Se10 3.074577 1_555
Ce2 Se10 3.074577 1_455
Ce2 Se6 3.098278 1_455
Ce2 Se6 3.098278 1_555
Ce2 Se4 3.103204 1_455
Ce2 Se4 3.103204 1_555
Ce2 Se3 3.143331 1_555
Ce2 Se11 3.186149 1_555
Ce2 Se1 3.356234 1_555
Ce3 Se11 3.074577 1_555
Ce3 Se11 3.074577 1_655
Ce3 Se7 3.098278 1_555
Ce3 Se7 3.098278 1_655
Ce3 Se5 3.103204 1_555
Ce3 Se5 3.103204 1_655
Ce3 Se2 3.143331 1_555
Ce3 Se10 3.186149 1_555
Ce3 Se0 3.356234 1_555
Cr0 Se3 2.507880 1_556
Cr0 Se7 2.510682 1_555
Cr0 Se2 2.563501 1_555
Cr0 Se2 2.563501 1_455
Cr0 Se8 2.592945 1_556
Cr0 Se8 2.592945 1_456
Cr1 Se2 2.507880 1_554
Cr1 Se6 2.510682 1_555
Cr1 Se3 2.563501 1_555
Cr1 Se3 2.563501 1_655
Cr1 Se9 2.592945 1_654
Cr1 Se9 2.592945 1_554
Cr2 Se1 2.507880 1_555
Cr2 Se5 2.510682 1_555
Cr2 Se0 2.563501 1_465
Cr2 Se0 2.563501 1_565
Cr2 Se10 2.592945 1_555
Cr2 Se10 2.592945 1_455
Cr3 Se0 2.507880 1_555
Cr3 Se4 2.510682 1_555
Cr3 Se1 2.563501 1_545
Cr3 Se1 2.563501 1_645
Cr3 Se11 2.592945 1_555
Cr3 Se11 2.592945 1_655
