# generated using pymatgen
data_Na21Ca10Nb2P15(SO24)3
_symmetry_space_group_name_H-M   'P 1'
_cell_length_a   9.41911429
_cell_length_b   9.37403326
_cell_length_c   22.68448376
_cell_angle_alpha   90.04442236
_cell_angle_beta   89.99973250
_cell_angle_gamma   119.99248399
_symmetry_Int_Tables_number   1
_chemical_formula_structural   Na21Ca10Nb2P15(SO24)3
_chemical_formula_sum   'Na21 Ca10 Nb2 P15 S3 O72'
_cell_volume   1734.71767012
_cell_formula_units_Z   1
loop_
 _symmetry_equiv_pos_site_id
 _symmetry_equiv_pos_as_xyz
  1  'x, y, z'
loop_
 _atom_site_type_symbol
 _atom_site_label
 _atom_site_symmetry_multiplicity
 _atom_site_fract_x
 _atom_site_fract_y
 _atom_site_fract_z
 _atom_site_occupancy
  Na  Na0  1  0.35160456  0.33949081  0.24885566  1
  Na  Na1  1  0.98890924  0.33975709  0.73758767  1
  Na  Na2  1  0.35988335  0.01425615  0.73808192  1
  Na  Na3  1  0.28931104  0.31979027  0.57877733  1
  Na  Na4  1  0.04412531  0.69817687  0.58220653  1
  Na  Na5  1  0.66682795  0.98515872  0.58132344  1
  Na  Na6  1  0.30170951  0.98303627  0.09121959  1
  Na  Na7  1  0.65191917  0.68297285  0.09491639  1
  Na  Na8  1  0.04490910  0.33165775  0.09216863  1
  Na  Na9  1  0.96425815  0.67146541  0.90848456  1
  Na  Na10  1  0.71085384  0.04004334  0.90791016  1
  Na  Na11  1  0.32601332  0.28942760  0.91395087  1
  Na  Na12  1  0.96446899  0.29136056  0.41167362  1
  Na  Na13  1  0.32818994  0.03995246  0.41232036  1
  Na  Na14  1  0.70858668  0.66918193  0.40590888  1
  Na  Na15  1  0.01010990  0.01054707  0.49994516  1
  Na  Na16  1  0.01393113  0.01281222  0.99988521  1
  Na  Na17  1  0.66597967  0.34829902  0.82593511  1
  Na  Na18  1  0.68210961  0.33237434  0.32638336  1
  Na  Na19  1  0.33282637  0.67096654  0.17442164  1
  Na  Na20  1  0.33661611  0.66627501  0.65845430  1
  Ca  Ca0  1  0.99510712  0.99775869  0.34391366  1
  Ca  Ca1  1  0.99783710  0.99602265  0.84450871  1
  Ca  Ca2  1  0.99696286  0.99779227  0.65736229  1
  Ca  Ca3  1  0.99836748  0.99608625  0.16305605  1
  Ca  Ca4  1  0.66840025  0.33717611  0.68222425  1
  Ca  Ca5  1  0.67011050  0.33591199  0.18657298  1
  Ca  Ca6  1  0.65942506  0.33220961  0.97962700  1
  Ca  Ca7  1  0.66601013  0.32739910  0.48120597  1
  Ca  Ca8  1  0.33418650  0.66302252  0.01483477  1
  Ca  Ca9  1  0.33046323  0.66746260  0.51361472  1
  Nb  Nb0  1  0.33432146  0.67152231  0.31736853  1
  Nb  Nb1  1  0.33738375  0.66723431  0.81746247  1
  P  P0  1  0.31093027  0.99495414  0.25163592  1
  P  P1  1  0.67575593  0.68560981  0.25245533  1
  P  P2  1  0.01160734  0.32309981  0.25327597  1
  P  P3  1  0.30864524  0.31523480  0.75492123  1
  P  P4  1  0.01044306  0.68728904  0.75525493  1
  P  P5  1  0.68253383  0.99574049  0.75349610  1
  P  P6  1  0.97369661  0.32947599  0.58396028  1
  P  P7  1  0.35599894  0.02701330  0.58464058  1
  P  P8  1  0.35630558  0.32703838  0.08265615  1
  P  P9  1  0.63041212  0.66772563  0.91782991  1
  P  P10  1  0.03577349  0.37076210  0.91643215  1
  P  P11  1  0.33366516  0.96237618  0.91742147  1
  P  P12  1  0.63031139  0.96273170  0.41769113  1
  P  P13  1  0.33493377  0.37072415  0.41611028  1
  P  P14  1  0.03583514  0.66613170  0.41666893  1
  S  S0  1  0.66998959  0.64086054  0.58059901  1
  S  S1  1  0.96855820  0.64052370  0.07987259  1
  S  S2  1  0.67249817  0.03213867  0.08073271  1
  O  O0  1  0.21938173  0.01712017  0.30340493  1
  O  O1  1  0.77971661  0.77378828  0.30616663  1
  O  O2  1  0.99879020  0.22249991  0.30799272  1
  O  O3  1  0.22717855  0.21299311  0.81019931  1
  O  O4  1  0.99370255  0.76698544  0.81148478  1
  O  O5  1  0.78923697  0.02011556  0.80770286  1
  O  O6  1  0.75364649  0.96801024  0.69683768  1
  O  O7  1  0.19419308  0.24641855  0.70079403  1
  O  O8  1  0.04510367  0.79820666  0.70089764  1
  O  O9  1  0.74687422  0.77909502  0.19415093  1
  O  O10  1  0.04890798  0.25147434  0.19723637  1
  O  O11  1  0.21439578  0.96011137  0.19322852  1
  O  O12  1  0.88747147  0.34114293  0.64022496  1
  O  O13  1  0.45090991  0.11682302  0.64095407  1
  O  O14  1  0.65786952  0.53775239  0.63132375  1
  O  O15  1  0.87536533  0.53244359  0.12875144  1
  O  O16  1  0.66485887  0.12956541  0.12970232  1
  O  O17  1  0.46220516  0.33637050  0.13566947  1
  O  O18  1  0.43606770  0.31477529  0.02415910  1
  O  O19  1  0.88594361  0.56642728  0.02273480  1
  O  O20  1  0.68612673  0.11698192  0.02358410  1
  O  O21  1  0.44355129  0.12935784  0.52900686  1
  O  O22  1  0.68127541  0.56412920  0.52476812  1
  O  O23  1  0.87450558  0.32164848  0.52835830  1
  O  O24  1  0.56039246  0.68172137  0.97667424  1
  O  O25  1  0.12296100  0.44500411  0.97462506  1
  O  O26  1  0.32177966  0.87565717  0.97557824  1
  O  O27  1  0.56055902  0.87917688  0.47678995  1
  O  O28  1  0.32163849  0.44465926  0.47452106  1
  O  O29  1  0.12015416  0.68162358  0.47579708  1
  O  O30  1  0.15869742  0.66826630  0.36692506  1
  O  O31  1  0.51101983  0.83953484  0.36772848  1
  O  O32  1  0.33291194  0.48590944  0.36414081  1
  O  O33  1  0.15373776  0.48700928  0.86472785  1
  O  O34  1  0.33092397  0.84411326  0.86553992  1
  O  O35  1  0.51066122  0.67028850  0.86773918  1
  O  O36  1  0.01311263  0.81669704  0.40955136  1
  O  O37  1  0.80332858  0.98645202  0.41088204  1
  O  O38  1  0.18419066  0.19607586  0.41094554  1
  O  O39  1  0.01256570  0.19637704  0.91093179  1
  O  O40  1  0.18370118  0.98631126  0.91192846  1
  O  O41  1  0.80303801  0.81754670  0.91058600  1
  O  O42  1  0.98630991  0.16939309  0.58439149  1
  O  O43  1  0.17924038  0.00256080  0.58522987  1
  O  O44  1  0.82024762  0.80670978  0.58485495  1
  O  O45  1  0.97922359  0.80529766  0.08490961  1
  O  O46  1  0.81988759  0.01115091  0.08570498  1
  O  O47  1  0.18126692  0.16961021  0.08571407  1
  O  O48  1  0.65071354  0.14173137  0.75005674  1
  O  O49  1  0.47716776  0.33196001  0.74745669  1
  O  O50  1  0.86995867  0.50911914  0.74980882  1
  O  O51  1  0.63545308  0.50535790  0.25084314  1
  O  O52  1  0.86836384  0.35311931  0.24782700  1
  O  O53  1  0.48216188  0.14652603  0.24861575  1
  O  O54  1  0.63019344  0.50376552  0.90967066  1
  O  O55  1  0.87141344  0.36917399  0.90964149  1
  O  O56  1  0.49671504  0.12691347  0.90988300  1
  O  O57  1  0.62961352  0.12601325  0.40960332  1
  O  O58  1  0.49738102  0.36879821  0.40943533  1
  O  O59  1  0.87299808  0.50230052  0.40927397  1
  O  O60  1  0.33870846  0.48496225  0.08505530  1
  O  O61  1  0.13834792  0.66500218  0.08188707  1
  O  O62  1  0.52069416  0.86571631  0.08280066  1
  O  O63  1  0.34476755  0.85470860  0.58472368  1
  O  O64  1  0.52196971  0.66039218  0.58153799  1
  O  O65  1  0.15025201  0.48333508  0.58410422  1
  O  O66  1  0.33062265  0.83771669  0.26386920  1
  O  O67  1  0.49942875  0.67265984  0.26022719  1
  O  O68  1  0.17580944  0.49977868  0.26112551  1
  O  O69  1  0.33100667  0.49501237  0.76448185  1
  O  O70  1  0.17406487  0.67246633  0.76130772  1
  O  O71  1  0.50435420  0.83665704  0.76319645  1
loop_
_geom_bond_atom_site_label_1
_geom_bond_atom_site_label_2
_geom_bond_distance
_geom_bond_site_symmetry_2
Na0 O51 2.326268 1_555
Na0 O53 2.647289 1_555
Na0 O67 2.722205 1_555
Na0 O68 2.750207 1_555
Na0 O17 2.776483 1_555
Na0 O10 2.797772 1_555
Na0 O0 2.908149 1_555
Na0 O32 2.998344 1_555
Na1 O50 2.372834 1_555
Na1 O12 2.409056 1_555
Na1 O7 2.625118 1_655
Na1 O70 2.759992 1_655
Na1 O48 2.786071 1_555
Na1 O69 2.860657 1_655
Na2 O13 2.386031 1_555
Na2 O48 2.394295 1_555
Na2 O49 2.616264 1_555
Na2 O71 2.685957 1_545
Na2 O8 2.756453 1_545
Na2 O70 2.828855 1_545
Na3 O65 2.467352 1_555
Na3 O42 2.475217 1_455
Na3 O28 2.589212 1_555
Na3 O43 2.618709 1_555
Na3 O64 2.829277 1_555
Na3 O7 2.885098 1_555
Na4 O63 2.453767 1_555
Na4 O43 2.476883 1_565
Na4 O29 2.544416 1_555
Na4 O65 2.658922 1_555
Na4 O44 2.762291 1_455
Na4 O8 2.848868 1_555
Na5 O27 2.571787 1_555
Na5 O42 2.616665 1_565
Na5 O64 2.641406 1_555
Na5 O63 2.644811 1_555
Na5 O44 2.703673 1_555
Na5 O6 2.773636 1_555
Na6 O11 2.429259 1_555
Na6 O47 2.519015 1_565
Na6 O61 2.590973 1_555
Na6 O45 2.638738 1_455
Na6 O62 2.787114 1_555
Na6 O26 2.848963 1_554
Na7 O9 2.422886 1_555
Na7 O62 2.579810 1_555
Na7 O60 2.592967 1_555
Na7 O46 2.673135 1_565
Na7 O45 2.708665 1_555
Na7 O24 2.815625 1_554
Na7 O17 2.967199 1_555
Na8 O60 2.402860 1_555
Na8 O47 2.434901 1_555
Na8 O10 2.505613 1_555
Na8 O46 2.678303 1_455
Na8 O61 2.800866 1_555
Na8 O25 2.828888 1_554
Na9 O4 2.339906 1_555
Na9 O41 2.502465 1_555
Na9 O55 2.513531 1_555
Na9 O40 2.624823 1_655
Na9 O54 2.725381 1_555
Na9 O19 2.740140 1_556
Na10 O5 2.425780 1_555
Na10 O39 2.462640 1_655
Na10 O56 2.524968 1_555
Na10 O41 2.630304 1_545
Na10 O55 2.672556 1_555
Na10 O20 2.761305 1_556
Na11 O40 2.462615 1_545
Na11 O3 2.499951 1_555
Na11 O54 2.549549 1_555
Na11 O39 2.628198 1_555
Na11 O18 2.670948 1_556
Na11 O56 2.713516 1_555
Na12 O37 2.477130 1_545
Na12 O2 2.501820 1_555
Na12 O59 2.521635 1_555
Na12 O38 2.632370 1_655
Na12 O57 2.732201 1_555
Na12 O23 2.836239 1_555
Na13 O38 2.442772 1_555
Na13 O57 2.534859 1_555
Na13 O0 2.642043 1_555
Na13 O36 2.642272 1_545
Na13 O58 2.671201 1_555
Na13 O21 2.824126 1_555
Na14 O1 2.424126 1_555
Na14 O36 2.486127 1_655
Na14 O58 2.508526 1_555
Na14 O37 2.645825 1_555
Na14 O59 2.696928 1_555
Na14 O22 2.838416 1_555
Na15 O42 2.503271 1_455
Na15 O43 2.530961 1_555
Na15 O38 2.635075 1_555
Na15 O44 2.673677 1_445
Na15 O37 2.736031 1_445
Na15 O36 2.748302 1_545
Na16 O47 2.472821 1_556
Na16 O45 2.642141 1_446
Na16 O40 2.645028 1_545
Na16 O39 2.657141 1_555
Na16 O46 2.665013 1_456
Na16 O41 2.785488 1_445
Na17 O50 2.460575 1_555
Na17 O49 2.466344 1_555
Na17 O54 2.516426 1_555
Na17 O48 2.539570 1_555
Na17 O55 2.647453 1_555
Na17 O56 2.678291 1_555
Na18 O52 2.439375 1_555
Na18 O53 2.531619 1_555
Na18 O59 2.537277 1_555
Na18 O51 2.544745 1_555
Na18 O57 2.568987 1_555
Na18 O58 2.699345 1_555
Na19 O67 2.495306 1_555
Na19 O68 2.502593 1_555
Na19 O66 2.566794 1_555
Na19 O60 2.691469 1_555
Na19 O62 2.749516 1_555
Na19 O61 2.768095 1_555
Na20 O63 2.406738 1_555
Na20 O65 2.419245 1_555
Na20 O64 2.488277 1_555
Na20 O70 2.807118 1_555
Na20 O71 2.857260 1_555
Na20 O69 2.878584 1_555
Ca0 O0 2.226387 1_665
Ca0 O1 2.235140 1_555
Ca0 O2 2.243455 1_565
Ca0 O37 2.321823 1_555
Ca0 O36 2.327706 1_655
Ca0 O38 2.371833 1_665
Ca1 O3 2.240250 1_665
Ca1 O5 2.247801 1_565
Ca1 O4 2.255271 1_555
Ca1 O41 2.312418 1_555
Ca1 O39 2.356289 1_665
Ca1 O40 2.360453 1_655
Ca2 O6 2.343709 1_555
Ca2 O42 2.345884 1_565
Ca2 O7 2.349774 1_665
Ca2 O8 2.352085 1_655
Ca2 O43 2.355952 1_665
Ca2 O44 2.387259 1_555
Ca3 O11 2.325724 1_655
Ca3 O10 2.327411 1_665
Ca3 O9 2.330524 1_555
Ca3 O47 2.427895 1_665
Ca3 O45 2.458917 1_555
Ca3 O46 2.482486 1_565
Ca4 O14 2.251237 1_555
Ca4 O12 2.256160 1_555
Ca4 O13 2.259699 1_555
Ca4 O49 2.312703 1_555
Ca4 O48 2.334807 1_555
Ca4 O50 2.342980 1_555
Ca5 O53 2.264561 1_555
Ca5 O52 2.267682 1_555
Ca5 O17 2.275240 1_555
Ca5 O51 2.295633 1_555
Ca5 O15 2.301084 1_555
Ca5 O16 2.304071 1_555
Ca6 O18 2.264899 1_556
Ca6 O56 2.366850 1_555
Ca6 O54 2.372129 1_555
Ca6 O20 2.374552 1_556
Ca6 O19 2.375354 1_556
Ca6 O55 2.436508 1_555
Ca7 O23 2.260450 1_555
Ca7 O21 2.264241 1_555
Ca7 O22 2.366275 1_555
Ca7 O57 2.380709 1_555
Ca7 O58 2.437483 1_555
Ca7 O59 2.441330 1_555
Ca8 O25 2.213381 1_554
Ca8 O24 2.224100 1_554
Ca8 O26 2.239493 1_554
Ca8 O60 2.323884 1_555
Ca8 O62 2.394106 1_555
Ca8 O61 2.398067 1_555
Ca9 O29 2.222774 1_555
Ca9 O28 2.231374 1_555
Ca9 O27 2.244097 1_555
Ca9 O63 2.336712 1_555
Ca9 O65 2.343585 1_555
Ca9 O64 2.398323 1_555
Nb0 O31 1.982960 1_555
Nb0 O30 1.987634 1_555
Nb0 O66 1.989557 1_555
Nb0 O68 2.010601 1_555
Nb0 O67 2.020461 1_555
Nb0 O32 2.032996 1_555
Nb1 O35 1.979553 1_555
Nb1 O69 1.988567 1_555
Nb1 O71 2.004225 1_555
Nb1 O34 2.010072 1_555
Nb1 O70 2.016693 1_555
Nb1 O33 2.019166 1_555
O0 P0 1.531208 1_545
O1 P1 1.521798 1_555
O2 P2 1.527251 1_655
O3 P3 1.531786 1_555
O4 P4 1.525220 1_655
O5 P5 1.531130 1_545
O6 P5 1.530258 1_555
O7 P3 1.545777 1_555
O8 P4 1.539715 1_555
O9 P1 1.543005 1_555
O10 P2 1.557171 1_555
O11 P0 1.546397 1_555
O12 P6 1.545698 1_555
O13 P7 1.544574 1_555
O14 S0 1.470601 1_555
O15 S1 1.462535 1_555
O16 S2 1.461977 1_555
O17 P8 1.536693 1_555
O18 P8 1.557116 1_555
O19 S1 1.492044 1_555
O20 S2 1.493038 1_555
O21 P7 1.550505 1_555
O22 S0 1.485835 1_555
O23 P6 1.549354 1_555
O24 P9 1.523235 1_555
O25 P10 1.525957 1_555
O26 P11 1.524619 1_555
O27 P12 1.526286 1_555
O28 P13 1.528741 1_555
O29 P14 1.528175 1_555
O30 P14 1.609294 1_555
O31 P12 1.606677 1_555
O32 P13 1.605790 1_555
O33 P10 1.609085 1_555
O34 P11 1.607523 1_555
O35 P9 1.609698 1_555
O36 P14 1.538279 1_555
O37 P12 1.538469 1_555
O38 P13 1.544578 1_555
O39 P10 1.542075 1_555
O40 P11 1.542077 1_555
O41 P9 1.536405 1_555
O42 P6 1.563440 1_555
O43 P7 1.563044 1_555
O44 S0 1.493099 1_555
O45 S1 1.501173 1_555
O46 S2 1.500616 1_555
O47 P8 1.571147 1_555
O48 P5 1.542407 1_545
O49 P3 1.524502 1_555
O50 P4 1.531614 1_655
O51 P1 1.535938 1_555
O52 P2 1.514770 1_655
O53 P0 1.527689 1_545
O54 P9 1.546908 1_555
O55 P10 1.548419 1_655
O56 P11 1.548868 1_545
O57 P12 1.544977 1_545
O58 P13 1.546641 1_555
O59 P14 1.543956 1_655
O60 P8 1.570720 1_555
O61 S1 1.498499 1_455
O62 S2 1.500140 1_565
O63 P7 1.564994 1_565
O64 S0 1.494328 1_555
O65 P6 1.564535 1_455
O66 P0 1.599346 1_555
O67 P1 1.613285 1_555
O68 P2 1.614115 1_555
O69 P3 1.604991 1_555
O70 P4 1.620956 1_555
O71 P5 1.608490 1_555
