# generated using pymatgen
data_Zr6Al2CoH10
_symmetry_space_group_name_H-M   'P 1'
_cell_length_a   8.13331800
_cell_length_b   8.13331800
_cell_length_c   7.13059200
_cell_angle_alpha   90.00000000
_cell_angle_beta   90.00000000
_cell_angle_gamma   119.99999996
_symmetry_Int_Tables_number   1
_chemical_formula_structural   Zr6Al2CoH10
_chemical_formula_sum   'Zr12 Al4 Co2 H20'
_cell_volume   408.49968380
_cell_formula_units_Z   2
loop_
 _symmetry_equiv_pos_site_id
 _symmetry_equiv_pos_as_xyz
  1  'x, y, z'
loop_
 _atom_site_type_symbol
 _atom_site_label
 _atom_site_symmetry_multiplicity
 _atom_site_fract_x
 _atom_site_fract_y
 _atom_site_fract_z
 _atom_site_occupancy
  Zr  Zr0  1  0.73775000  0.00000000  0.50000000  1
  Zr  Zr1  1  0.26225000  0.26225000  0.00000000  1
  Zr  Zr2  1  0.00000000  0.73775000  0.00000000  1
  Zr  Zr3  1  0.00000000  0.73775000  0.50000000  1
  Zr  Zr4  1  0.26225000  0.26225000  0.50000000  1
  Zr  Zr5  1  0.73775000  0.00000000  0.00000000  1
  Zr  Zr6  1  0.04866200  0.42285900  0.75000000  1
  Zr  Zr7  1  0.57714100  0.62580300  0.75000000  1
  Zr  Zr8  1  0.37419700  0.95133800  0.75000000  1
  Zr  Zr9  1  0.95133800  0.37419700  0.25000000  1
  Zr  Zr10  1  0.62580300  0.57714100  0.25000000  1
  Zr  Zr11  1  0.42285900  0.04866200  0.25000000  1
  Al  Al0  1  0.66666700  0.33333300  0.55245300  1
  Al  Al1  1  0.66666700  0.33333300  0.94754700  1
  Al  Al2  1  0.33333300  0.66666700  0.44754700  1
  Al  Al3  1  0.33333300  0.66666700  0.05245300  1
  Co  Co0  1  0.00000000  0.00000000  0.75000000  1
  Co  Co1  1  0.00000000  0.00000000  0.25000000  1
  H  H0  1  0.00000000  0.00000000  0.50000000  1
  H  H1  1  0.00000000  0.00000000  0.00000000  1
  H  H2  1  0.27874000  0.00000000  0.50000000  1
  H  H3  1  0.72126000  0.72126000  0.00000000  1
  H  H4  1  0.00000000  0.27874000  0.00000000  1
  H  H5  1  0.00000000  0.27874000  0.50000000  1
  H  H6  1  0.72126000  0.72126000  0.50000000  1
  H  H7  1  0.27874000  0.00000000  0.00000000  1
  H  H8  1  0.29480800  0.41010900  0.75000000  1
  H  H9  1  0.58989100  0.88469900  0.75000000  1
  H  H10  1  0.11530100  0.70519200  0.75000000  1
  H  H11  1  0.70519200  0.11530100  0.25000000  1
  H  H12  1  0.88469900  0.58989100  0.25000000  1
  H  H13  1  0.41010900  0.29480800  0.25000000  1
  H  H14  1  0.23471600  0.11554900  0.75000000  1
  H  H15  1  0.88445100  0.11916700  0.75000000  1
  H  H16  1  0.88083300  0.76528400  0.75000000  1
  H  H17  1  0.76528400  0.88083300  0.25000000  1
  H  H18  1  0.11554900  0.23471600  0.25000000  1
  H  H19  1  0.11916700  0.88445100  0.25000000  1
loop_
_geom_bond_atom_site_label_1
_geom_bond_atom_site_label_2
_geom_bond_distance
_geom_bond_site_symmetry_2
Al0 Al1 2.817254 1_555
Al0 Zr9 3.058246 1_555
Al0 Zr11 3.058248 1_555
Al0 Zr10 3.058252 1_555
Al0 Zr0 3.064575 1_555
Al0 Zr3 3.064580 1_655
Al0 Zr4 3.064583 1_555
Al0 Zr6 3.147207 1_655
Al0 Zr8 3.147209 1_545
Al0 Zr7 3.147214 1_555
Al1 Zr9 3.058246 1_556
Al1 Zr11 3.058248 1_556
Al1 Zr10 3.058252 1_556
Al1 Zr5 3.064575 1_556
Al1 Zr2 3.064580 1_656
Al1 Zr1 3.064583 1_556
Al1 Zr6 3.147207 1_655
Al1 Zr8 3.147209 1_545
Al1 Zr7 3.147214 1_555
Al2 Al3 2.817254 1_555
Al2 Zr8 3.058246 1_555
Al2 Zr6 3.058248 1_555
Al2 Zr7 3.058252 1_555
Al2 Zr3 3.064575 1_555
Al2 Zr0 3.064580 1_565
Al2 Zr4 3.064583 1_555
Al2 Zr11 3.147207 1_565
Al2 Zr9 3.147209 1_455
Al2 Zr10 3.147214 1_555
Al3 Zr8 3.058246 1_554
Al3 Zr6 3.058248 1_554
Al3 Zr7 3.058252 1_554
Al3 Zr2 3.064575 1_555
Al3 Zr5 3.064580 1_565
Al3 Zr1 3.064583 1_555
Al3 Zr11 3.147207 1_565
Al3 Zr9 3.147209 1_455
Al3 Zr10 3.147214 1_555
Co0 H15 1.653325 1_455
Co0 H14 1.653325 1_555
Co0 H16 1.653325 1_445
Co0 H0 1.782648 1_555
Co0 H1 1.782648 1_556
Co1 H19 1.653325 1_545
Co1 H18 1.653325 1_555
Co1 H17 1.653325 1_445
Co1 H1 1.782648 1_555
Co1 H0 1.782648 1_555
H0 Zr3 2.132963 1_545
H0 Zr0 2.132963 1_455
H0 Zr4 2.132963 1_555
H1 Zr2 2.132963 1_545
H1 Zr5 2.132963 1_455
H1 Zr1 2.132963 1_555
H2 Zr8 2.060225 1_545
H2 Zr11 2.060225 1_555
H2 Zr4 2.203086 1_555
H2 Zr3 2.203086 1_545
H3 Zr7 2.060225 1_554
H3 Zr10 2.060225 1_555
H3 Zr5 2.203086 1_565
H3 Zr2 2.203086 1_655
H4 Zr9 2.060225 1_455
H4 Zr6 2.060225 1_554
H4 Zr1 2.203086 1_555
H4 Zr5 2.203086 1_455
H5 Zr9 2.060225 1_455
H5 Zr6 2.060225 1_555
H5 Zr4 2.203086 1_555
H5 Zr0 2.203086 1_455
H6 Zr7 2.060225 1_555
H6 Zr10 2.060225 1_555
H6 Zr3 2.203086 1_655
H6 Zr0 2.203086 1_565
H7 Zr8 2.060225 1_544
H7 Zr11 2.060225 1_555
H7 Zr1 2.203086 1_555
H7 Zr2 2.203086 1_545
H8 Zr6 2.055796 1_555
H8 Zr7 2.078986 1_555
H8 Zr4 2.091821 1_555
H8 Zr1 2.091821 1_556
H9 Zr7 2.055796 1_555
H9 Zr8 2.078986 1_555
H9 Zr0 2.091821 1_565
H9 Zr5 2.091821 1_566
H10 Zr8 2.055796 1_555
H10 Zr6 2.078986 1_555
H10 Zr3 2.091821 1_555
H10 Zr2 2.091821 1_556
H11 Zr9 2.055796 1_555
H11 Zr11 2.078986 1_555
H11 Zr5 2.091821 1_555
H11 Zr0 2.091821 1_555
H12 Zr10 2.055796 1_555
H12 Zr9 2.078986 1_555
H12 Zr2 2.091821 1_655
H12 Zr3 2.091821 1_655
H13 Zr11 2.055796 1_555
H13 Zr10 2.078986 1_555
H13 Zr1 2.091821 1_555
H13 Zr4 2.091821 1_555
H14 Zr4 2.093903 1_555
H14 Zr1 2.093903 1_556
H14 Zr8 2.141466 1_545
H15 Zr0 2.093903 1_555
H15 Zr5 2.093903 1_556
H15 Zr6 2.141466 1_655
H16 Zr3 2.093903 1_655
H16 Zr2 2.093903 1_656
H16 Zr7 2.141466 1_555
H17 Zr0 2.093903 1_565
H17 Zr5 2.093903 1_565
H17 Zr10 2.141466 1_555
H18 Zr1 2.093903 1_555
H18 Zr4 2.093903 1_555
H18 Zr9 2.141466 1_455
H19 Zr3 2.093903 1_555
H19 Zr2 2.093903 1_555
H19 Zr11 2.141466 1_565
