# generated using pymatgen
data_TiFe2
_symmetry_space_group_name_H-M   'P 1'
_cell_length_a   4.84550273
_cell_length_b   4.84550268
_cell_length_c   7.83829352
_cell_angle_alpha   90.00000730
_cell_angle_beta   90.00000400
_cell_angle_gamma   119.99834739
_symmetry_Int_Tables_number   1
_chemical_formula_structural   TiFe2
_chemical_formula_sum   'Ti4 Fe8'
_cell_volume   159.38119055
_cell_formula_units_Z   4
loop_
 _symmetry_equiv_pos_site_id
 _symmetry_equiv_pos_as_xyz
  1  'x, y, z'
loop_
 _atom_site_type_symbol
 _atom_site_label
 _atom_site_symmetry_multiplicity
 _atom_site_fract_x
 _atom_site_fract_y
 _atom_site_fract_z
 _atom_site_occupancy
  Ti  Ti0  1  0.33333175  0.66666784  0.43965602  1
  Ti  Ti1  1  0.66666822  0.33333188  0.93963880  1
  Ti  Ti2  1  0.66666808  0.33333166  0.56034756  1
  Ti  Ti3  1  0.33333186  0.66666802  0.06035991  1
  Fe  Fe0  1  0.66209349  0.83104978  0.74997365  1
  Fe  Fe1  1  0.33792758  0.16895939  0.25002623  1
  Fe  Fe2  1  0.83103310  0.16896911  0.25002634  1
  Fe  Fe3  1  0.16894926  0.33790647  0.74997381  1
  Fe  Fe4  1  0.16895811  0.83104275  0.74997370  1
  Fe  Fe5  1  0.83103941  0.66207230  0.25002611  1
  Fe  Fe6  1  0.00000009  -0.00000016  0.50000455  1
  Fe  Fe7  1  0.00000003  -0.00000005  -0.00000469  1
loop_
_geom_bond_atom_site_label_1
_geom_bond_atom_site_label_2
_geom_bond_distance
_geom_bond_site_symmetry_2
Ti0 Ti2 2.953177 1_555
Ti0 Ti2 2.953208 1_455
Ti0 Ti2 2.953208 1_565
Ti0 Ti3 2.973034 1_555
Ti1 Ti3 2.953251 1_556
Ti1 Ti3 2.953282 1_656
Ti1 Ti3 2.953283 1_546
Ti1 Ti2 2.972996 1_555
Fe0 Fe4 2.389472 1_555
Fe0 Fe3 2.389589 1_555
Fe0 Fe6 2.418611 1_665
Fe0 Fe7 2.418944 1_666
Fe0 Fe4 2.456031 1_655
Fe0 Fe3 2.456035 1_665
Fe0 Ti0 2.796375 1_555
Fe0 Ti3 2.796843 1_556
Fe0 Ti2 2.842392 1_565
Fe0 Ti2 2.842435 1_555
Fe0 Ti1 2.842552 1_565
Fe0 Ti1 2.842595 1_555
Fe1 Fe2 2.389321 1_555
Fe1 Fe5 2.389437 1_555
Fe1 Fe6 2.418721 1_555
Fe1 Fe7 2.419054 1_555
Fe1 Fe2 2.456182 1_455
Fe1 Fe5 2.456187 1_445
Fe1 Ti2 2.796357 1_555
Fe1 Ti1 2.796808 1_554
Fe1 Ti0 2.842404 1_545
Fe1 Ti0 2.842455 1_555
Fe1 Ti3 2.842552 1_545
Fe1 Ti3 2.842605 1_555
Fe2 Fe5 2.389318 1_555
Fe2 Fe6 2.418720 1_655
Fe2 Fe7 2.419055 1_655
Fe2 Fe5 2.456185 1_545
Fe2 Ti2 2.796312 1_555
Fe2 Ti1 2.796765 1_554
Fe2 Ti0 2.842475 1_655
Fe2 Ti0 2.842486 1_545
Fe2 Ti3 2.842626 1_655
Fe2 Ti3 2.842636 1_545
Fe3 Fe4 2.389472 1_555
Fe3 Fe6 2.418611 1_555
Fe3 Fe7 2.418943 1_556
Fe3 Fe4 2.456031 1_545
Fe3 Ti0 2.796376 1_555
Fe3 Ti3 2.796842 1_556
Fe3 Ti2 2.842389 1_455
Fe3 Ti2 2.842439 1_555
Fe3 Ti1 2.842548 1_455
Fe3 Ti1 2.842598 1_555
Fe4 Fe6 2.418611 1_565
Fe4 Fe7 2.418944 1_566
Fe4 Ti0 2.796332 1_555
Fe4 Ti3 2.796799 1_556
Fe4 Ti2 2.842463 1_565
Fe4 Ti2 2.842467 1_455
Fe4 Ti1 2.842623 1_565
Fe4 Ti1 2.842627 1_455
Fe5 Fe6 2.418721 1_665
Fe5 Fe7 2.419054 1_665
Fe5 Ti2 2.796358 1_555
Fe5 Ti1 2.796806 1_554
Fe5 Ti0 2.842408 1_655
Fe5 Ti0 2.842452 1_555
Fe5 Ti3 2.842557 1_655
Fe5 Ti3 2.842600 1_555
Fe6 Ti2 2.837220 1_455
Fe6 Ti0 2.837227 1_545
Fe6 Ti2 2.837306 1_555
Fe6 Ti2 2.837307 1_445
Fe6 Ti0 2.837314 1_555
Fe6 Ti0 2.837315 1_445
Fe7 Ti1 2.837237 1_454
Fe7 Ti3 2.837248 1_545
Fe7 Ti1 2.837324 1_444
Fe7 Ti1 2.837325 1_554
Fe7 Ti3 2.837335 1_555
Fe7 Ti3 2.837335 1_445
