# generated using pymatgen
data_CaHf3P2(SO6)4
_symmetry_space_group_name_H-M   'P 1'
_cell_length_a   8.96371246
_cell_length_b   8.98672743
_cell_length_c   23.15137074
_cell_angle_alpha   90.07095547
_cell_angle_beta   90.02036458
_cell_angle_gamma   119.95651530
_symmetry_Int_Tables_number   1
_chemical_formula_structural   CaHf3P2(SO6)4
_chemical_formula_sum   'Ca3 Hf9 P6 S12 O72'
_cell_volume   1615.79534733
_cell_formula_units_Z   3
loop_
 _symmetry_equiv_pos_site_id
 _symmetry_equiv_pos_as_xyz
  1  'x, y, z'
loop_
 _atom_site_type_symbol
 _atom_site_label
 _atom_site_symmetry_multiplicity
 _atom_site_fract_x
 _atom_site_fract_y
 _atom_site_fract_z
 _atom_site_occupancy
  Ca  Ca0  1  0.99653506  0.00106402  0.35994046  1
  Ca  Ca1  1  0.67320218  0.33544419  0.68973579  1
  Ca  Ca2  1  0.66395091  0.33420399  0.18504689  1
  Hf  Hf0  1  0.00061960  0.00066401  0.86167170  1
  Hf  Hf1  1  0.99848910  0.00533500  0.64371539  1
  Hf  Hf2  1  0.00677312  0.00698600  0.14457192  1
  Hf  Hf3  1  0.65827254  0.33180893  0.97715794  1
  Hf  Hf4  1  0.67152572  0.32516183  0.47772986  1
  Hf  Hf5  1  0.33313653  0.66180971  0.01870699  1
  Hf  Hf6  1  0.33440900  0.66645387  0.52150224  1
  Hf  Hf7  1  0.33946835  0.67282954  0.30945179  1
  Hf  Hf8  1  0.33068335  0.66484508  0.81522629  1
  P  P0  1  0.95847540  0.33384538  0.58303818  1
  P  P1  1  0.37405749  0.33371882  0.08240522  1
  P  P2  1  0.61808652  0.66469214  0.91624780  1
  P  P3  1  0.04312572  0.38177616  0.91662892  1
  P  P4  1  0.33585474  0.95230531  0.91677724  1
  P  P5  1  0.61143132  0.95148873  0.41772291  1
  S  S0  1  0.28490776  0.99286168  0.25087865  1
  S  S1  1  0.70990547  0.71503454  0.25024846  1
  S  S2  1  0.00767956  0.29402015  0.25068469  1
  S  S3  1  0.27753587  0.28529865  0.75186619  1
  S  S4  1  0.00872189  0.72489500  0.75183227  1
  S  S5  1  0.71347600  0.99034977  0.75218254  1
  S  S6  1  0.37243523  0.04118238  0.58257609  1
  S  S7  1  0.66853491  0.62589430  0.58251941  1
  S  S8  1  0.96116968  0.62888182  0.08184331  1
  S  S9  1  0.66712769  0.03871269  0.08166165  1
  S  S10  1  0.34508107  0.38909545  0.41820262  1
  S  S11  1  0.04658747  0.65816008  0.41775646  1
  O  O0  1  0.20705195  0.01637779  0.30202545  1
  O  O1  1  0.81031548  0.79297004  0.30169976  1
  O  O2  1  0.98338125  0.19203713  0.30169088  1
  O  O3  1  0.18766001  0.17697109  0.80235113  1
  O  O4  1  0.99151523  0.81578579  0.80259987  1
  O  O5  1  0.82370710  0.01039828  0.80244824  1
  O  O6  1  0.79724419  0.96667821  0.69881173  1
  O  O7  1  0.16918872  0.20150488  0.69866339  1
  O  O8  1  0.03248529  0.83103463  0.69880099  1
  O  O9  1  0.79368716  0.82689445  0.19810404  1
  O  O10  1  0.03550710  0.20767977  0.19821255  1
  O  O11  1  0.17208132  0.96658733  0.19842999  1
  O  O12  1  0.89151078  0.37420266  0.63616168  1
  O  O13  1  0.47570816  0.10725889  0.63404242  1
  O  O14  1  0.62960431  0.52301366  0.63400324  1
  O  O15  1  0.89749746  0.52581197  0.13349276  1
  O  O16  1  0.63171647  0.10478284  0.13367568  1
  O  O17  1  0.47979685  0.37288549  0.13590173  1
  O  O18  1  0.46421958  0.30226501  0.02959474  1
  O  O19  1  0.84660343  0.54473520  0.03129786  1
  O  O20  1  0.69972076  0.15364882  0.03125557  1
  O  O21  1  0.45425474  0.15525568  0.53174682  1
  O  O22  1  0.69809499  0.54358593  0.53156904  1
  O  O23  1  0.83662194  0.30126759  0.52979783  1
  O  O24  1  0.53591553  0.69888352  0.96874048  1
  O  O25  1  0.16150972  0.46556128  0.96867907  1
  O  O26  1  0.30297167  0.83736777  0.96913015  1
  O  O27  1  0.51357990  0.83961312  0.47043564  1
  O  O28  1  0.32276298  0.47665815  0.46938185  1
  O  O29  1  0.15290333  0.67537618  0.46921211  1
  O  O30  1  0.12549457  0.62846621  0.36564358  1
  O  O31  1  0.49618224  0.86286557  0.36351739  1
  O  O32  1  0.36962855  0.49551499  0.36595555  1
  O  O33  1  0.12910687  0.49672339  0.86270164  1
  O  O34  1  0.36451099  0.86648244  0.86271499  1
  O  O35  1  0.50216314  0.63409829  0.86255201  1
  O  O36  1  0.03042724  0.80899591  0.41398020  1
  O  O37  1  0.78633006  0.97211409  0.41464290  1
  O  O38  1  0.19618595  0.22020065  0.41410057  1
  O  O39  1  0.02488710  0.20366414  0.90493949  1
  O  O40  1  0.17745266  0.97405629  0.90541918  1
  O  O41  1  0.79698258  0.82349673  0.90506438  1
  O  O42  1  0.97701417  0.17010808  0.59233632  1
  O  O43  1  0.19747429  0.02163572  0.59069853  1
  O  O44  1  0.82457637  0.80016366  0.59114910  1
  O  O45  1  0.97690995  0.80190677  0.09091541  1
  O  O46  1  0.82309607  0.01944932  0.09042917  1
  O  O47  1  0.19166707  0.16925452  0.09189058  1
  O  O48  1  0.69465788  0.13999626  0.74685169  1
  O  O49  1  0.44585107  0.30314792  0.74585409  1
  O  O50  1  0.85716385  0.55697481  0.74741570  1
  O  O51  1  0.68104472  0.54369607  0.24202822  1
  O  O52  1  0.86543063  0.32273789  0.24057417  1
  O  O53  1  0.45725209  0.13308361  0.24182370  1
  O  O54  1  0.63911566  0.50721749  0.92696732  1
  O  O55  1  0.86586695  0.36109233  0.92857180  1
  O  O56  1  0.49524151  0.13050496  0.92688014  1
  O  O57  1  0.61871270  0.12855114  0.42745219  1
  O  O58  1  0.50472998  0.38020824  0.42813350  1
  O  O59  1  0.87415401  0.50047652  0.42646488  1
  O  O60  1  0.34349349  0.48394946  0.06703731  1
  O  O61  1  0.13630584  0.65849660  0.06908295  1
  O  O62  1  0.51943366  0.86563781  0.06909500  1
  O  O63  1  0.34350778  0.86636107  0.56996549  1
  O  O64  1  0.52240422  0.65639010  0.57039706  1
  O  O65  1  0.13938545  0.48195850  0.56705284  1
  O  O66  1  0.29118675  0.82701881  0.25685302  1
  O  O67  1  0.53459207  0.70388959  0.25695349  1
  O  O68  1  0.17100657  0.46548324  0.25793978  1
  O  O69  1  0.28728121  0.45459162  0.75868322  1
  O  O70  1  0.16777976  0.71274554  0.75891989  1
  O  O71  1  0.54423564  0.83068130  0.75886504  1
loop_
_geom_bond_atom_site_label_1
_geom_bond_atom_site_label_2
_geom_bond_distance
_geom_bond_site_symmetry_2
Ca0 O37 2.175953 1_545
Ca0 O1 2.230748 1_545
Ca0 O2 2.232855 1_555
Ca0 O0 2.262839 1_655
Ca0 O38 2.264014 1_655
Ca0 O36 2.272794 1_645
Ca1 O12 2.193417 1_555
Ca1 O50 2.275761 1_555
Ca1 O48 2.283309 1_555
Ca1 O14 2.306910 1_555
Ca1 O49 2.310280 1_555
Ca1 O13 2.316874 1_555
Ca2 O17 2.170924 1_555
Ca2 O51 2.239138 1_555
Ca2 O53 2.256245 1_555
Ca2 O52 2.260398 1_555
Ca2 O16 2.268809 1_555
Ca2 O15 2.275731 1_555
Hf0 O40 1.993346 1_545
Hf0 O39 1.994452 1_555
Hf0 O41 1.994721 1_445
Hf0 O4 2.120441 1_445
Hf0 O5 2.130636 1_455
Hf0 O3 2.135771 1_555
Hf1 O42 1.983306 1_555
Hf1 O7 2.089633 1_655
Hf1 O6 2.092528 1_545
Hf1 O44 2.105571 1_545
Hf1 O43 2.109610 1_655
Hf1 O8 2.157364 1_645
Hf2 O47 1.988219 1_555
Hf2 O10 2.095648 1_555
Hf2 O11 2.102203 1_545
Hf2 O46 2.116017 1_455
Hf2 O45 2.124332 1_445
Hf2 O9 2.173245 1_445
Hf3 O18 2.027551 1_556
Hf3 O56 2.028926 1_555
Hf3 O54 2.034524 1_555
Hf3 O55 2.076130 1_555
Hf3 O19 2.202026 1_556
Hf3 O20 2.206530 1_556
Hf4 O57 1.964702 1_555
Hf4 O23 2.001491 1_555
Hf4 O59 2.082817 1_555
Hf4 O58 2.130096 1_555
Hf4 O21 2.173697 1_555
Hf4 O22 2.233890 1_555
Hf5 O60 1.991973 1_555
Hf5 O25 2.025493 1_554
Hf5 O24 2.037324 1_554
Hf5 O26 2.076029 1_554
Hf5 O61 2.103102 1_555
Hf5 O62 2.107899 1_555
Hf6 O27 1.977027 1_555
Hf6 O65 2.007011 1_555
Hf6 O28 2.047713 1_555
Hf6 O29 2.061089 1_555
Hf6 O64 2.068899 1_555
Hf6 O63 2.083646 1_555
Hf7 O31 2.013506 1_555
Hf7 O67 2.032002 1_555
Hf7 O66 2.047663 1_555
Hf7 O68 2.087521 1_555
Hf7 O32 2.181427 1_555
Hf7 O30 2.183906 1_555
Hf8 O34 2.007572 1_555
Hf8 O33 2.008666 1_555
Hf8 O35 2.015735 1_555
Hf8 O70 2.155141 1_555
Hf8 O69 2.166685 1_555
Hf8 O71 2.178406 1_555
O0 S0 1.442598 1_545
O1 S1 1.444689 1_555
O2 S2 1.444073 1_655
O3 S3 1.477521 1_555
O4 S4 1.481877 1_655
O5 S5 1.477796 1_545
O6 S5 1.515032 1_555
O7 S3 1.514555 1_555
O8 S4 1.504240 1_555
O9 S1 1.510496 1_555
O10 S2 1.526820 1_555
O11 S0 1.520830 1_555
O12 P0 1.490396 1_555
O13 S6 1.441440 1_555
O14 S7 1.441553 1_555
O15 S8 1.445269 1_555
O16 S9 1.445720 1_555
O17 P1 1.490330 1_555
O18 P1 1.567130 1_555
O19 S8 1.489029 1_555
O20 S9 1.488594 1_555
O21 S6 1.492090 1_555
O22 S7 1.484090 1_555
O23 P0 1.573787 1_555
O24 P2 1.529564 1_555
O25 P3 1.531010 1_555
O26 P4 1.523855 1_555
O27 P5 1.546793 1_555
O28 S10 1.489371 1_555
O29 S11 1.484159 1_555
O30 S11 1.488420 1_555
O31 P5 1.565661 1_555
O32 S10 1.489649 1_555
O33 P3 1.558394 1_555
O34 P4 1.556619 1_555
O35 P2 1.553584 1_555
O36 S11 1.436121 1_555
O37 P5 1.485652 1_555
O38 S10 1.438935 1_555
O39 P3 1.549059 1_555
O40 P4 1.549331 1_555
O41 P2 1.546253 1_555
O42 P0 1.576108 1_555
O43 S6 1.500316 1_555
O44 S7 1.503457 1_555
O45 S8 1.503959 1_555
O46 S9 1.505762 1_555
O47 P1 1.579065 1_555
O48 S5 1.441944 1_545
O49 S3 1.442179 1_555
O50 S4 1.444095 1_655
O51 S1 1.440648 1_555
O52 S2 1.440762 1_655
O53 S0 1.440543 1_545
O54 P2 1.538541 1_555
O55 P3 1.530058 1_655
O56 P4 1.540892 1_545
O57 P5 1.575542 1_545
O58 S10 1.490332 1_555
O59 S11 1.500420 1_655
O60 P1 1.547539 1_555
O61 S8 1.485215 1_455
O62 S9 1.482797 1_565
O63 S6 1.487517 1_565
O64 S7 1.492675 1_555
O65 P0 1.544133 1_455
O66 S0 1.525721 1_555
O67 S1 1.531874 1_555
O68 S2 1.513989 1_555
O69 S3 1.487897 1_555
O70 S4 1.492296 1_555
O71 S5 1.486953 1_555
