# generated using pymatgen
data_MgAlCu(WO4)2
_symmetry_space_group_name_H-M   'P 1'
_cell_length_a   5.18437304
_cell_length_b   5.77649335
_cell_length_c   5.75734366
_cell_angle_alpha   108.54541459
_cell_angle_beta   118.11761554
_cell_angle_gamma   89.54491175
_symmetry_Int_Tables_number   1
_chemical_formula_structural   MgAlCu(WO4)2
_chemical_formula_sum   'Mg1 Al1 Cu1 W2 O8'
_cell_volume   142.08025529
_cell_formula_units_Z   1
loop_
 _symmetry_equiv_pos_site_id
 _symmetry_equiv_pos_as_xyz
  1  'x, y, z'
loop_
 _atom_site_type_symbol
 _atom_site_label
 _atom_site_symmetry_multiplicity
 _atom_site_fract_x
 _atom_site_fract_y
 _atom_site_fract_z
 _atom_site_occupancy
  Mg  Mg0  1  0.06830860  0.94668101  0.01279049  1
  Al  Al0  1  0.60325765  0.67754281  0.07247009  1
  Cu  Cu0  1  0.25664673  0.50918309  0.31862968  1
  W  W0  1  0.85119623  0.34396454  0.57306481  1
  W  W1  1  0.36594679  0.03449505  0.60746284  1
  O  O0  1  0.18635491  0.62389826  0.85994831  1
  O  O1  1  0.63260745  0.50673598  0.31757112  1
  O  O2  1  0.10861415  0.13209596  0.78794275  1
  O  O3  1  0.54043838  0.00199107  0.33999170  1
  O  O4  1  0.61939381  0.88177166  0.85735004  1
  O  O5  1  0.02223463  0.77532748  0.28335158  1
  O  O6  1  0.09278539  0.23607820  0.37021406  1
  O  O7  1  0.64821327  0.37778189  0.81613753  1
loop_
_geom_bond_atom_site_label_1
_geom_bond_atom_site_label_2
_geom_bond_distance
_geom_bond_site_symmetry_2
Mg0 O2 2.001773 1_564
Mg0 O0 2.017725 1_554
Mg0 O4 2.048228 1_454
Mg0 O6 2.148081 1_565
Mg0 O5 2.190557 1_555
Mg0 O3 2.219332 1_565
Al0 O0 1.881874 1_554
Al0 O5 1.899681 1_655
Al0 O1 1.915423 1_555
Al0 O7 1.980621 1_554
Al0 O4 1.990313 1_554
Al0 O3 2.148893 1_565
Cu0 O1 1.951925 1_555
Cu0 O5 1.953968 1_555
Cu0 O6 1.963620 1_555
O0 W0 2.000662 1_455
O1 W0 1.903599 1_555
O2 W1 2.024707 1_555
O2 W0 2.047027 1_455
O3 W1 2.086002 1_555
O3 W0 2.150611 1_555
O4 W1 1.892551 1_565
O5 W1 2.007426 1_565
O6 W0 2.055340 1_455
O6 W1 2.095113 1_555
O7 W0 2.077258 1_555
O7 W1 2.095378 1_555
