# generated using pymatgen
data_MgMn6O7F5
_symmetry_space_group_name_H-M   'P 1'
_cell_length_a   8.22889678
_cell_length_b   5.73658819
_cell_length_c   5.86728243
_cell_angle_alpha   68.20565362
_cell_angle_beta   67.65205956
_cell_angle_gamma   67.50309524
_symmetry_Int_Tables_number   1
_chemical_formula_structural   MgMn6O7F5
_chemical_formula_sum   'Mg1 Mn6 O7 F5'
_cell_volume   228.26130111
_cell_formula_units_Z   1
loop_
 _symmetry_equiv_pos_site_id
 _symmetry_equiv_pos_as_xyz
  1  'x, y, z'
loop_
 _atom_site_type_symbol
 _atom_site_label
 _atom_site_symmetry_multiplicity
 _atom_site_fract_x
 _atom_site_fract_y
 _atom_site_fract_z
 _atom_site_occupancy
  Mg  Mg0  1  0.34879798  0.63432599  0.15776434  1
  Mn  Mn0  1  0.83454218  0.70561775  0.69689104  1
  Mn  Mn1  1  0.66870091  0.35132614  0.36312205  1
  Mn  Mn2  1  0.30441758  0.65984215  0.66344812  1
  Mn  Mn3  1  0.11383379  0.28078443  0.29196005  1
  Mn  Mn4  1  0.50994472  0.02813048  0.01493138  1
  Mn  Mn5  1  0.96270477  0.00852853  0.99150175  1
  O  O0  1  0.68557861  0.06229509  0.67599893  1
  O  O1  1  0.34586577  0.38946687  0.98527586  1
  O  O2  1  0.92745085  0.22961544  0.19365733  1
  O  O3  1  0.01303069  0.77109730  0.79305822  1
  O  O4  1  0.40727198  0.40762983  0.48427531  1
  O  O5  1  0.31104006  0.92733806  0.32646259  1
  O  O6  1  0.62057614  0.65030115  0.05421208  1
  F  F0  1  0.26735271  0.91501817  0.85944394  1
  F  F1  1  0.68943497  0.61559644  0.54893897  1
  F  F2  1  0.69256309  0.07619140  0.14811089  1
  F  F3  1  0.98936449  0.32439014  0.68084717  1
  F  F4  1  0.05752770  0.68869563  0.28438698  1
loop_
_geom_bond_atom_site_label_1
_geom_bond_atom_site_label_2
_geom_bond_distance
_geom_bond_site_symmetry_2
Mg0 O4 1.991216 1_555
Mg0 O1 2.024341 1_554
Mg0 O6 2.112196 1_555
Mg0 O5 2.122148 1_555
Mn0 O0 1.926870 1_565
Mn0 O3 1.956154 1_655
Mn0 O6 2.173146 1_556
Mn1 O4 1.927026 1_555
Mn1 O2 1.943602 1_555
Mn1 O0 1.973797 1_555
Mn1 O6 2.025142 1_555
Mn2 O4 1.852163 1_555
Mn2 O5 1.999028 1_555
Mn2 O1 1.999428 1_555
Mn2 O3 2.130183 1_555
Mn3 O2 1.978406 1_455
Mn3 O5 2.052449 1_545
Mn3 O1 2.176571 1_554
Mn4 O0 1.955386 1_554
Mn4 O6 1.964268 1_545
Mn4 O1 1.979649 1_554
Mn4 O5 2.004665 1_545
Mn5 O2 1.916598 1_556
Mn5 O3 1.939477 1_645
F0 Mg0 2.019661 1_556
F0 Mn2 2.049354 1_555
F0 Mn5 2.230498 1_465
F1 Mn0 2.009744 1_555
F1 Mn1 2.254490 1_555
F2 Mn5 1.996940 1_554
F2 Mn4 2.077224 1_555
F2 Mn1 2.274669 1_555
F3 Mn5 2.049707 1_555
F3 Mn0 2.084271 1_555
F3 Mn3 2.183664 1_655
F4 Mn5 2.123934 1_464
F4 Mg0 2.154037 1_555
F4 Mn3 2.191136 1_555
F4 Mn0 2.427970 1_455
