# generated using pymatgen
data_Na9Ta8Zn4Si3(P5O24)3
_symmetry_space_group_name_H-M   'P 1'
_cell_length_a   8.85632860
_cell_length_b   8.86038107
_cell_length_c   22.46729142
_cell_angle_alpha   90.01567169
_cell_angle_beta   90.11324273
_cell_angle_gamma   120.10439362
_symmetry_Int_Tables_number   1
_chemical_formula_structural   Na9Ta8Zn4Si3(P5O24)3
_chemical_formula_sum   'Na9 Ta8 Zn4 Si3 P15 O72'
_cell_volume   1525.20544471
_cell_formula_units_Z   1
loop_
 _symmetry_equiv_pos_site_id
 _symmetry_equiv_pos_as_xyz
  1  'x, y, z'
loop_
 _atom_site_type_symbol
 _atom_site_label
 _atom_site_symmetry_multiplicity
 _atom_site_fract_x
 _atom_site_fract_y
 _atom_site_fract_z
 _atom_site_occupancy
  Na  Na0  1  0.98474191  0.62760662  0.24219196  1
  Na  Na1  1  0.37375685  0.01761299  0.74239006  1
  Na  Na2  1  0.31982725  0.03037294  0.40843331  1
  Na  Na3  1  0.99058087  0.00287955  0.49270045  1
  Na  Na4  1  0.00035409  0.99857365  0.99082379  1
  Na  Na5  1  0.68171181  0.34844078  0.82238095  1
  Na  Na6  1  0.66323913  0.33000533  0.32151408  1
  Na  Na7  1  0.34280267  0.66829721  0.16470299  1
  Na  Na8  1  0.33274794  0.65895171  0.66447528  1
  Ta  Ta0  1  0.00087633  0.00147446  0.64669922  1
  Ta  Ta1  1  0.00043346  0.00171284  0.14612036  1
  Ta  Ta2  1  0.66839065  0.33691063  0.97937697  1
  Ta  Ta3  1  0.66455890  0.33501555  0.48057292  1
  Ta  Ta4  1  0.33113965  0.66705771  0.02085152  1
  Ta  Ta5  1  0.33244746  0.66346876  0.52141692  1
  Ta  Ta6  1  0.33763990  0.66254364  0.31034272  1
  Ta  Ta7  1  0.33275133  0.66387034  0.81081784  1
  Zn  Zn0  1  0.99861637  0.00750866  0.35336773  1
  Zn  Zn1  1  0.99807993  0.99711347  0.85356849  1
  Zn  Zn2  1  0.67064563  0.33411666  0.68232110  1
  Zn  Zn3  1  0.66497442  0.32940486  0.18154281  1
  Si  Si0  1  0.37555553  0.04255808  0.58733576  1
  Si  Si1  1  0.95608111  0.62417990  0.08751904  1
  Si  Si2  1  0.33188577  0.37254234  0.41670413  1
  P  P0  1  0.29606571  0.00588350  0.25318193  1
  P  P1  1  0.71377979  0.71395364  0.25228195  1
  P  P2  1  0.99604063  0.28738376  0.25250228  1
  P  P3  1  0.28903618  0.28867910  0.75307009  1
  P  P4  1  0.99346151  0.70686127  0.75291396  1
  P  P5  1  0.71503199  0.00333939  0.75387175  1
  P  P6  1  0.95446476  0.33198120  0.58509325  1
  P  P7  1  0.66768453  0.62286063  0.58553525  1
  P  P8  1  0.66820442  0.04618545  0.08397969  1
  P  P9  1  0.37901593  0.33386482  0.08408870  1
  P  P10  1  0.62208816  0.66485204  0.91711417  1
  P  P11  1  0.04208162  0.37590350  0.91671395  1
  P  P12  1  0.33484581  0.95760319  0.91596888  1
  P  P13  1  0.62294035  0.95493318  0.41734854  1
  P  P14  1  0.04102429  0.65805881  0.41565052  1
  O  O0  1  0.21751283  0.01988334  0.31145682  1
  O  O1  1  0.82600326  0.79744001  0.30639480  1
  O  O2  1  0.98142239  0.18822169  0.30822974  1
  O  O3  1  0.20634538  0.17689018  0.80701608  1
  O  O4  1  0.97783579  0.79017376  0.80879716  1
  O  O5  1  0.81676050  0.02041042  0.80910913  1
  O  O6  1  0.80072130  0.97539143  0.69617077  1
  O  O7  1  0.17034687  0.19891437  0.69565823  1
  O  O8  1  0.02810897  0.83167170  0.69661640  1
  O  O9  1  0.80350885  0.83074198  0.19487771  1
  O  O10  1  0.02245023  0.20039516  0.19513734  1
  O  O11  1  0.16750397  0.97747437  0.19851531  1
  O  O12  1  0.88860298  0.37357951  0.64026863  1
  O  O13  1  0.48130724  0.11102507  0.64738956  1
  O  O14  1  0.62935406  0.51432090  0.64016250  1
  O  O15  1  0.89175608  0.51987193  0.14782959  1
  O  O16  1  0.62346710  0.10962084  0.13921785  1
  O  O17  1  0.48740015  0.37370730  0.13914747  1
  O  O18  1  0.46458632  0.30193796  0.02764373  1
  O  O19  1  0.82793675  0.52207881  0.02911126  1
  O  O20  1  0.69216833  0.16165050  0.02786808  1
  O  O21  1  0.47445294  0.16773915  0.52777201  1
  O  O22  1  0.69720873  0.53522691  0.52876354  1
  O  O23  1  0.84066838  0.30826248  0.52858691  1
  O  O24  1  0.52103717  0.67417218  0.97164532  1
  O  O25  1  0.15448217  0.47892393  0.97152065  1
  O  O26  1  0.32566116  0.84236789  0.96984432  1
  O  O27  1  0.52130096  0.84550183  0.47236833  1
  O  O28  1  0.32132821  0.48040672  0.47345124  1
  O  O29  1  0.16074549  0.67887423  0.46958562  1
  O  O30  1  0.13154612  0.63879668  0.35834613  1
  O  O31  1  0.50077922  0.86893160  0.36162884  1
  O  O32  1  0.35931617  0.49927929  0.35831464  1
  O  O33  1  0.13384829  0.49387611  0.86105864  1
  O  O34  1  0.35861593  0.86794021  0.85907148  1
  O  O35  1  0.50415116  0.64083314  0.86127223  1
  O  O36  1  0.02433819  0.81948502  0.41433721  1
  O  O37  1  0.79778832  0.96861771  0.41459634  1
  O  O38  1  0.17061894  0.17918737  0.41585768  1
  O  O39  1  0.02635352  0.19921720  0.91524696  1
  O  O40  1  0.17327327  0.97258731  0.91533840  1
  O  O41  1  0.80091612  0.82324055  0.91521175  1
  O  O42  1  0.96852822  0.16338778  0.58982375  1
  O  O43  1  0.18053529  0.02561166  0.59132960  1
  O  O44  1  0.83226418  0.80857967  0.59008208  1
  O  O45  1  0.97618531  0.82026525  0.09122632  1
  O  O46  1  0.83767631  0.03359138  0.08923967  1
  O  O47  1  0.19263122  0.16970438  0.08984225  1
  O  O48  1  0.67540569  0.15089291  0.74753828  1
  O  O49  1  0.47231890  0.32044632  0.74446376  1
  O  O50  1  0.84571187  0.52371208  0.74292984  1
  O  O51  1  0.68105333  0.53011796  0.24413206  1
  O  O52  1  0.84716400  0.32485255  0.24665631  1
  O  O53  1  0.47731090  0.15718745  0.24320302  1
  O  O54  1  0.62803894  0.49078397  0.92278771  1
  O  O55  1  0.86171654  0.36791062  0.92325241  1
  O  O56  1  0.50636780  0.13665573  0.92319708  1
  O  O57  1  0.62996695  0.13518988  0.42374128  1
  O  O58  1  0.51535265  0.36427801  0.42299645  1
  O  O59  1  0.86490726  0.48720005  0.42317771  1
  O  O60  1  0.34970161  0.49128011  0.07120445  1
  O  O61  1  0.15391047  0.65712956  0.07251070  1
  O  O62  1  0.51565808  0.85612141  0.07092458  1
  O  O63  1  0.34235057  0.84559573  0.57302651  1
  O  O64  1  0.51076095  0.65281270  0.57297869  1
  O  O65  1  0.14398738  0.48667676  0.57321101  1
  O  O66  1  0.29520701  0.82427370  0.25394357  1
  O  O67  1  0.53175048  0.70920436  0.25611388  1
  O  O68  1  0.17279355  0.47727968  0.25490121  1
  O  O69  1  0.29548548  0.47129170  0.75715811  1
  O  O70  1  0.17604782  0.70510001  0.75593610  1
  O  O71  1  0.52470974  0.82610271  0.75721694  1
loop_
_geom_bond_atom_site_label_1
_geom_bond_atom_site_label_2
_geom_bond_distance
_geom_bond_site_symmetry_2
Na0 O15 2.299451 1_555
Na0 O52 2.326454 1_555
Na0 O51 2.377338 1_555
Na0 O66 2.420096 1_655
Na0 O68 2.617819 1_655
Na0 O11 2.857812 1_655
Na0 O30 2.892701 1_655
Na0 O1 2.906970 1_555
Na1 O13 2.316492 1_555
Na1 O48 2.319223 1_555
Na1 O49 2.369386 1_555
Na1 O70 2.442266 1_545
Na1 O71 2.655515 1_545
Na1 O8 2.840792 1_545
Na1 O3 2.899053 1_555
Na1 O34 2.911000 1_545
Na2 O38 2.293738 1_555
Na2 O36 2.335310 1_545
Na2 O0 2.341896 1_555
Na2 O57 2.441781 1_555
Na2 O58 2.591617 1_555
Na2 O31 2.832949 1_545
Na2 O21 2.976122 1_555
Na2 O29 3.029934 1_545
Na3 O38 2.340297 1_655
Na3 O37 2.356834 1_545
Na3 O36 2.513449 1_645
Na3 O42 2.664745 1_555
Na3 O44 2.703584 1_545
Na3 O43 2.725097 1_655
Na4 O40 2.374514 1_555
Na4 O41 2.377643 1_455
Na4 O39 2.385225 1_565
Na4 O45 2.700921 1_456
Na4 O46 2.742579 1_466
Na4 O47 2.746101 1_566
Na5 O50 2.335971 1_555
Na5 O48 2.407131 1_555
Na5 O49 2.467909 1_555
Na5 O55 2.723408 1_555
Na5 O54 2.740372 1_555
Na5 O56 2.855922 1_555
Na6 O52 2.359960 1_555
Na6 O53 2.368428 1_555
Na6 O51 2.431757 1_555
Na6 O58 2.723338 1_555
Na6 O59 2.798869 1_555
Na6 O57 2.799309 1_555
Na7 O67 2.554813 1_555
Na7 O66 2.587247 1_555
Na7 O68 2.587635 1_555
Na7 O61 2.630366 1_555
Na7 O60 2.640329 1_555
Na7 O62 2.647884 1_555
Na8 O69 2.581448 1_555
Na8 O65 2.598836 1_555
Na8 O64 2.610180 1_555
Na8 O63 2.612461 1_555
Na8 O71 2.623703 1_555
Na8 O70 2.625971 1_555
O0 P0 1.517782 1_555
O0 Zn0 2.109731 1_455
O1 P1 1.506754 1_555
O1 Zn0 2.013290 1_565
O2 P2 1.497823 1_555
O2 Zn0 1.964767 1_555
O3 P3 1.504290 1_555
O3 Zn1 2.023491 1_445
O4 P4 1.497701 1_555
O4 Zn1 2.018520 1_555
O5 P5 1.494495 1_555
O5 Zn1 1.986287 1_545
O6 P5 1.584324 1_565
O6 Ta0 2.006998 1_665
O7 P3 1.598976 1_555
O7 Ta0 1.970148 1_555
O8 P4 1.605880 1_455
O8 Ta0 1.985792 1_565
O9 P1 1.595473 1_555
O9 Ta1 1.973478 1_665
O10 P2 1.578401 1_455
O10 Ta1 2.000899 1_555
O11 P0 1.604692 1_565
O11 Ta1 1.983227 1_565
O12 P6 1.493675 1_555
O12 Zn2 2.017747 1_555
O13 Si0 1.578052 1_555
O13 Zn2 2.000977 1_555
O14 P7 1.490382 1_555
O14 Zn2 2.040949 1_555
O15 Si1 1.578079 1_555
O15 Zn3 2.015483 1_555
O16 P8 1.496015 1_555
O16 Zn3 2.027593 1_555
O17 P9 1.493776 1_555
O17 Zn3 2.036703 1_555
O18 P9 1.575198 1_555
O18 Ta2 1.994172 1_554
O19 Si1 1.670914 1_555
O19 Ta2 1.898444 1_554
O20 P8 1.570018 1_555
O20 Ta2 1.992673 1_554
O21 Si0 1.679032 1_555
O21 Ta3 1.913258 1_555
O22 P7 1.581972 1_555
O22 Ta3 1.971273 1_555
O23 P6 1.566504 1_555
O23 Ta3 2.004210 1_555
O24 P10 1.545053 1_555
O24 Ta4 1.988880 1_556
O25 P11 1.556728 1_555
O25 Ta4 1.957237 1_556
O26 P12 1.559494 1_555
O26 Ta4 1.950590 1_556
O27 P13 1.551764 1_555
O27 Ta5 1.978715 1_555
O28 Si2 1.623914 1_555
O28 Ta5 1.907963 1_555
O29 P14 1.557325 1_555
O29 Ta5 1.971901 1_555
O30 P14 1.571828 1_555
O30 Ta6 2.039995 1_555
O31 P13 1.576531 1_555
O31 Ta6 2.025113 1_555
O32 Si2 1.664143 1_555
O32 Ta6 1.889372 1_555
O33 P11 1.571374 1_555
O33 Ta7 1.998255 1_555
O34 P12 1.574126 1_555
O34 Ta7 2.019808 1_555
O35 P10 1.575437 1_555
O35 Ta7 1.983695 1_555
O36 P14 1.510132 1_555
O36 Zn0 2.254871 1_465
O37 P13 1.492798 1_555
O37 Zn0 2.137676 1_565
O38 Si2 1.587630 1_555
O38 Zn0 2.066737 1_455
O39 P11 1.500835 1_555
O39 Zn1 2.176493 1_445
O40 P12 1.501970 1_555
O40 Zn1 2.170364 1_455
O41 P10 1.500091 1_555
O41 Zn1 2.157009 1_555
O42 P6 1.563627 1_555
O42 Ta0 2.045705 1_655
O43 Si0 1.659565 1_555
O43 Ta0 1.947193 1_555
O44 P7 1.560774 1_555
O44 Ta0 2.049417 1_665
O45 Si1 1.657321 1_555
O45 Ta1 1.950232 1_665
O46 P8 1.564107 1_555
O46 Ta1 2.047441 1_655
O47 P9 1.565095 1_555
O47 Ta1 2.044403 1_555
O48 P5 1.520796 1_555
O48 Zn2 2.203177 1_555
O49 P3 1.514720 1_555
O49 Zn2 2.201239 1_555
O50 P4 1.504807 1_555
O50 Zn2 2.111346 1_555
O51 P1 1.515499 1_555
O51 Zn3 2.214541 1_555
O52 P2 1.518011 1_555
O52 Zn3 2.191174 1_555
O53 P0 1.505642 1_555
O53 Zn3 2.115661 1_555
O54 P10 1.574600 1_555
O54 Ta2 2.022597 1_555
O55 P11 1.570237 1_655
O55 Ta2 2.033206 1_555
O56 P12 1.559533 1_545
O56 Ta2 2.058640 1_555
O57 P13 1.573373 1_545
O57 Ta3 2.076555 1_555
O58 Si2 1.668507 1_555
O58 Ta3 1.955470 1_555
O59 P14 1.544573 1_655
O59 Ta3 2.058951 1_555
O60 P9 1.568349 1_555
O60 Ta4 1.997396 1_555
O61 Si1 1.660680 1_455
O61 Ta4 1.920213 1_555
O62 P8 1.569418 1_565
O62 Ta4 1.996970 1_555
O63 Si0 1.649217 1_565
O63 Ta5 1.952657 1_555
O64 P7 1.565231 1_555
O64 Ta5 1.996800 1_555
O65 P6 1.568870 1_455
O65 Ta5 1.994891 1_555
O66 P0 1.605427 1_565
O66 Ta6 2.083182 1_555
O67 P1 1.593921 1_555
O67 Ta6 1.976429 1_555
O68 P2 1.625354 1_455
O68 Ta6 1.991273 1_555
O69 P3 1.592755 1_555
O69 Ta7 1.976429 1_555
O70 P4 1.626213 1_455
O70 Ta7 2.020384 1_555
O71 P5 1.630368 1_565
O71 Ta7 1.991047 1_555
