# generated using pymatgen
data_Na2MgV4O10
_symmetry_space_group_name_H-M   'P 1'
_cell_length_a   3.81603500
_cell_length_b   6.03500328
_cell_length_c   11.43285300
_cell_angle_alpha   90.00000000
_cell_angle_beta   90.00000000
_cell_angle_gamma   108.43076971
_symmetry_Int_Tables_number   1
_chemical_formula_structural   Na2MgV4O10
_chemical_formula_sum   'Na2 Mg1 V4 O10'
_cell_volume   249.79071537
_cell_formula_units_Z   1
loop_
 _symmetry_equiv_pos_site_id
 _symmetry_equiv_pos_as_xyz
  1  'x, y, z'
loop_
 _atom_site_type_symbol
 _atom_site_label
 _atom_site_symmetry_multiplicity
 _atom_site_fract_x
 _atom_site_fract_y
 _atom_site_fract_z
 _atom_site_occupancy
  Na  Na0  1  0.11033000  0.22065900  0.75000000  1
  Na  Na1  1  0.91222500  0.82444900  0.25000000  1
  Mg  Mg0  1  0.36341300  0.72682600  0.75000000  1
  V  V0  1  0.21103200  0.42206600  0.39852500  1
  V  V1  1  0.21103200  0.42206600  0.10147500  1
  V  V2  1  0.80063900  0.60127500  0.58578300  1
  V  V3  1  0.80063900  0.60127500  0.91421700  1
  O  O0  1  0.06758200  0.13516800  0.11181700  1
  O  O1  1  0.06758200  0.13516800  0.38818300  1
  O  O2  1  0.28613300  0.57226700  0.25000000  1
  O  O3  1  0.26311000  0.52621900  0.58142300  1
  O  O4  1  0.26311000  0.52621900  0.91857700  1
  O  O5  1  0.73693700  0.47387300  0.75000000  1
  O  O6  1  0.76126000  0.52252100  0.07381000  1
  O  O7  1  0.76126000  0.52252100  0.42619000  1
  O  O8  1  0.94185800  0.88371300  0.63636300  1
  O  O9  1  0.94185800  0.88371300  0.86363700  1
loop_
_geom_bond_atom_site_label_1
_geom_bond_atom_site_label_2
_geom_bond_distance
_geom_bond_site_symmetry_2
Na0 O8 2.325853 1_445
Na0 O9 2.325853 1_445
Na0 O5 2.396319 1_555
Na0 O5 2.396319 1_455
Na0 O3 2.602918 1_555
Na0 O4 2.602918 1_555
Na1 O0 2.379224 1_665
Na1 O1 2.379224 1_665
Na1 O2 2.392746 1_655
Na1 O2 2.392752 1_555
Na1 O7 2.654417 1_555
Na1 O6 2.654417 1_555
Mg0 O3 2.243602 1_555
Mg0 O4 2.243602 1_555
Mg0 O5 2.395413 1_455
Mg0 O5 2.395417 1_555
Mg0 O9 2.476947 1_455
Mg0 O8 2.476947 1_455
Mg0 O8 2.476956 1_555
Mg0 O9 2.476956 1_555
O0 V1 1.646869 1_555
O1 V0 1.646869 1_555
O2 V0 1.903409 1_555
O2 V1 1.903409 1_555
O3 V2 1.956443 1_455
O3 V2 1.956450 1_555
O3 V0 2.174413 1_555
O4 V3 1.956443 1_455
O4 V3 1.956450 1_555
O4 V1 2.174413 1_556
O5 V3 2.014190 1_555
O5 V2 2.014190 1_555
O6 V3 1.879492 1_554
O6 V1 2.017761 1_655
O6 V1 2.017765 1_555
O7 V2 1.879492 1_555
O7 V0 2.017761 1_655
O7 V0 2.017765 1_555
O8 V2 1.717370 1_555
O9 V3 1.717370 1_555
