# generated using pymatgen
data_MgVS2
_symmetry_space_group_name_H-M   'P 1'
_cell_length_a   6.83322791
_cell_length_b   6.82313455
_cell_length_c   6.82313467
_cell_angle_alpha   31.64669293
_cell_angle_beta   31.63409019
_cell_angle_gamma   31.63408035
_symmetry_Int_Tables_number   1
_chemical_formula_structural   MgVS2
_chemical_formula_sum   'Mg1 V1 S2'
_cell_volume   77.72919140
_cell_formula_units_Z   1
loop_
 _symmetry_equiv_pos_site_id
 _symmetry_equiv_pos_as_xyz
  1  'x, y, z'
loop_
 _atom_site_type_symbol
 _atom_site_label
 _atom_site_symmetry_multiplicity
 _atom_site_fract_x
 _atom_site_fract_y
 _atom_site_fract_z
 _atom_site_occupancy
  Mg  Mg0  1  0.86090200  0.85429500  0.85429500  1
  V  V0  1  0.00988200  0.00942500  0.00942500  1
  S  S0  1  0.73231000  0.73382500  0.73382500  1
  S  S1  1  0.25690600  0.25245500  0.25245500  1
loop_
_geom_bond_atom_site_label_1
_geom_bond_atom_site_label_2
_geom_bond_distance
_geom_bond_site_symmetry_2
Mg0 S0 2.394498 1_555
Mg0 S1 2.483513 1_656
Mg0 S1 2.483514 1_665
Mg0 S1 2.484977 1_566
S0 V0 2.418180 1_566
S0 V0 2.418390 1_656
S0 V0 2.418390 1_665
S1 V0 2.756386 1_655
S1 V0 2.759316 1_565
S1 V0 2.759316 1_556
