# generated using pymatgen
data_Sr2MgZnMoO6
_symmetry_space_group_name_H-M   'P 1'
_cell_length_a   6.06845815
_cell_length_b   5.68643729
_cell_length_c   5.67609091
_cell_angle_alpha   100.67377248
_cell_angle_beta   120.42031734
_cell_angle_gamma   106.35385507
_symmetry_Int_Tables_number   1
_chemical_formula_structural   Sr2MgZnMoO6
_chemical_formula_sum   'Sr2 Mg1 Zn1 Mo1 O6'
_cell_volume   148.81243010
_cell_formula_units_Z   1
loop_
 _symmetry_equiv_pos_site_id
 _symmetry_equiv_pos_as_xyz
  1  'x, y, z'
loop_
 _atom_site_type_symbol
 _atom_site_label
 _atom_site_symmetry_multiplicity
 _atom_site_fract_x
 _atom_site_fract_y
 _atom_site_fract_z
 _atom_site_occupancy
  Sr  Sr0  1  0.78987787  0.39824472  0.61022871  1
  Sr  Sr1  1  0.23872475  0.67590149  0.43138000  1
  Mg  Mg0  1  0.58753452  0.82194947  0.16076105  1
  Zn  Zn0  1  0.44203235  0.22999284  0.88297446  1
  Mo  Mo0  1  0.01790022  0.03708171  0.02202515  1
  O  O0  1  0.28459960  0.40064853  0.06041745  1
  O  O1  1  0.77648352  0.68815103  0.00262895  1
  O  O2  1  0.80622733  0.21192341  0.16505866  1
  O  O3  1  0.22822429  0.85023435  0.88677389  1
  O  O4  1  0.31115402  0.14872394  0.46989719  1
  O  O5  1  0.73152754  0.93000550  0.58166450  1
loop_
_geom_bond_atom_site_label_1
_geom_bond_atom_site_label_2
_geom_bond_distance
_geom_bond_site_symmetry_2
Mg0 O5 1.971953 1_555
Mg0 O1 1.994945 1_555
Mg0 O3 2.013704 1_554
Mg0 O2 2.229196 1_565
Mg0 O0 2.323229 1_555
Mo0 O5 2.019891 1_444
Mo0 O1 2.052838 1_445
Mo0 O4 2.053570 1_555
Mo0 O0 2.129018 1_555
Mo0 O2 2.184928 1_455
Mo0 O3 2.191142 1_544
O0 Zn0 2.000837 1_554
O0 Sr1 2.564985 1_555
O0 Sr0 2.781749 1_454
O0 Sr0 3.080642 1_555
O1 Zn0 2.517738 1_554
O1 Sr0 2.565888 1_554
O1 Sr1 2.656250 1_655
O2 Zn0 2.015944 1_554
O2 Sr1 2.596133 1_655
O2 Sr0 2.615072 1_555
O3 Zn0 2.194310 1_565
O3 Sr0 2.563760 1_455
O3 Sr1 2.630863 1_555
O4 Zn0 1.961614 1_555
O4 Sr0 2.450328 1_555
O4 Sr1 2.547431 1_545
O5 Sr1 2.507100 1_555
O5 Sr0 2.547977 1_565
O5 Sr0 3.165695 1_555
