# generated using pymatgen
data_MgNbP(SO6)2
_symmetry_space_group_name_H-M   'P 1'
_cell_length_a   8.74274716
_cell_length_b   8.73725593
_cell_length_c   22.51936438
_cell_angle_alpha   90.15177520
_cell_angle_beta   90.00000000
_cell_angle_gamma   120.02079229
_symmetry_Int_Tables_number   1
_chemical_formula_structural   MgNbP(SO6)2
_chemical_formula_sum   'Mg6 Nb6 P6 S12 O72'
_cell_volume   1489.41825701
_cell_formula_units_Z   6
loop_
 _symmetry_equiv_pos_site_id
 _symmetry_equiv_pos_as_xyz
  1  'x, y, z'
loop_
 _atom_site_type_symbol
 _atom_site_label
 _atom_site_symmetry_multiplicity
 _atom_site_fract_x
 _atom_site_fract_y
 _atom_site_fract_z
 _atom_site_occupancy
  Mg  Mg0  1  0.99556288  0.00376418  0.35503113  1
  Mg  Mg1  1  0.00820131  0.00376418  0.85503113  1
  Mg  Mg2  1  0.66765558  0.33575170  0.68818004  1
  Mg  Mg3  1  0.66809713  0.33575170  0.18818004  1
  Mg  Mg4  1  0.33051740  0.66668982  0.02166764  1
  Mg  Mg5  1  0.33617142  0.66668982  0.52166764  1
  Nb  Nb0  1  0.00640792  0.01366498  0.64281584  1
  Nb  Nb1  1  0.00725705  0.01366498  0.14281584  1
  Nb  Nb2  1  0.65439601  0.32779437  0.97624544  1
  Nb  Nb3  1  0.67339935  0.32779437  0.47624544  1
  Nb  Nb4  1  0.33718275  0.66927595  0.30952053  1
  Nb  Nb5  1  0.33209220  0.66927595  0.80952053  1
  P  P0  1  0.99096673  0.28619000  0.25249938  1
  P  P1  1  0.29522326  0.28619000  0.75249938  1
  P  P2  1  0.96001330  0.34575334  0.58567122  1
  P  P3  1  0.38574104  0.34575334  0.08567122  1
  P  P4  1  0.32224279  0.94587928  0.91874495  1
  P  P5  1  0.62363549  0.94587928  0.41874495  1
  S  S0  1  0.29007797  0.00591786  0.25126537  1
  S  S1  1  0.71724918  0.71008574  0.25067667  1
  S  S2  1  0.99283656  0.71008574  0.75067667  1
  S  S3  1  0.71583988  0.00591786  0.75126537  1
  S  S4  1  0.38223864  0.04231918  0.58425870  1
  S  S5  1  0.66269895  0.61938558  0.58444995  1
  S  S6  1  0.95668763  0.61938558  0.08444995  1
  S  S7  1  0.66008154  0.04231918  0.08425870  1
  S  S8  1  0.62460894  0.67410405  0.91741613  1
  S  S9  1  0.04627163  0.37589147  0.91801216  1
  S  S10  1  0.32961884  0.37589147  0.41801216  1
  S  S11  1  0.04949411  0.67410405  0.41741613  1
  O  O0  1  0.20610137  0.02565916  0.30380964  1
  O  O1  1  0.82070767  0.79141107  0.30353784  1
  O  O2  1  0.97460350  0.17489083  0.30469365  1
  O  O3  1  0.20028734  0.17489083  0.80469365  1
  O  O4  1  0.97070339  0.79141107  0.80353784  1
  O  O5  1  0.81955780  0.02565916  0.80380964  1
  O  O6  1  0.79263304  0.96607941  0.69675799  1
  O  O7  1  0.16668098  0.19809796  0.69492510  1
  O  O8  1  0.03246072  0.82526383  0.69686969  1
  O  O9  1  0.79280312  0.82526383  0.19686969  1
  O  O10  1  0.03141698  0.19809796  0.19492510  1
  O  O11  1  0.17344637  0.96607941  0.19675799  1
  O  O12  1  0.86645139  0.35901780  0.63892483  1
  O  O13  1  0.48632231  0.12568457  0.63666733  1
  O  O14  1  0.63887307  0.51315897  0.63662067  1
  O  O15  1  0.87428690  0.51315897  0.13662067  1
  O  O16  1  0.63936326  0.12568457  0.13666733  1
  O  O17  1  0.49256741  0.35901780  0.13892483  1
  O  O18  1  0.46897006  0.30222495  0.02838913  1
  O  O19  1  0.84063740  0.53896999  0.03009203  1
  O  O20  1  0.70123682  0.15927766  0.03002072  1
  O  O21  1  0.45804184  0.15927766  0.53002072  1
  O  O22  1  0.69833359  0.53896999  0.53009203  1
  O  O23  1  0.83325590  0.30222495  0.52838913  1
  O  O24  1  0.54198707  0.69434470  0.96993148  1
  O  O25  1  0.15419067  0.45841653  0.96977653  1
  O  O26  1  0.30934569  0.84085993  0.97236685  1
  O  O27  1  0.53151324  0.84085993  0.47236685  1
  O  O28  1  0.30422487  0.45841653  0.46977653  1
  O  O29  1  0.15235662  0.69434470  0.46993148  1
  O  O30  1  0.12529681  0.63286335  0.36307755  1
  O  O31  1  0.49880914  0.86353082  0.36180709  1
  O  O32  1  0.36520880  0.49306209  0.36349235  1
  O  O33  1  0.12785229  0.49306209  0.86349235  1
  O  O34  1  0.36472068  0.86353082  0.86180709  1
  O  O35  1  0.50756555  0.63286335  0.86307755  1
  O  O36  1  0.02312920  0.82184488  0.40631153  1
  O  O37  1  0.80507913  0.98024169  0.40673669  1
  O  O38  1  0.18256137  0.20082719  0.40707256  1
  O  O39  1  0.01826583  0.20082719  0.90707256  1
  O  O40  1  0.17516256  0.98024169  0.90673669  1
  O  O41  1  0.79871568  0.82184488  0.90631153  1
  O  O42  1  0.96841520  0.16609051  0.59282592  1
  O  O43  1  0.19982946  0.02651812  0.59147547  1
  O  O44  1  0.82923254  0.79945285  0.59276616  1
  O  O45  1  0.97022031  0.79945285  0.09276616  1
  O  O46  1  0.82668866  0.02651812  0.09147547  1
  O  O47  1  0.19767531  0.16609051  0.09282592  1
  O  O48  1  0.68797786  0.15249869  0.74095674  1
  O  O49  1  0.47332512  0.31489971  0.73814722  1
  O  O50  1  0.84740534  0.53407395  0.74097782  1
  O  O51  1  0.68666960  0.53407395  0.24097782  1
  O  O52  1  0.84157560  0.31489971  0.23814722  1
  O  O53  1  0.46452183  0.15249869  0.24095674  1
  O  O54  1  0.64056907  0.50747497  0.92475867  1
  O  O55  1  0.86780430  0.36404583  0.92545975  1
  O  O56  1  0.50119109  0.13628174  0.92667485  1
  O  O57  1  0.63509165  0.13628174  0.42667485  1
  O  O58  1  0.49624253  0.36404583  0.42545975  1
  O  O59  1  0.86690690  0.50747497  0.42475867  1
  O  O60  1  0.35174123  0.49191701  0.07176642  1
  O  O61  1  0.13104248  0.64563492  0.07420567  1
  O  O62  1  0.51334314  0.86752423  0.07401159  1
  O  O63  1  0.35418009  0.86752423  0.57401159  1
  O  O64  1  0.51459145  0.64563492  0.57420567  1
  O  O65  1  0.14017478  0.49191701  0.57176642  1
  O  O66  1  0.30274143  0.83766110  0.25821779  1
  O  O67  1  0.53425427  0.69488518  0.25851338  1
  O  O68  1  0.16745029  0.47284629  0.26090610  1
  O  O69  1  0.30539500  0.47284629  0.76090610  1
  O  O70  1  0.16062992  0.69488518  0.75851338  1
  O  O71  1  0.53491867  0.83766110  0.75821779  1
loop_
_geom_bond_atom_site_label_1
_geom_bond_atom_site_label_2
_geom_bond_distance
_geom_bond_site_symmetry_2
Mg0 O37 1.957088 1_545
Mg0 O2 1.958888 1_555
Mg0 O38 2.045350 1_655
Mg0 O1 2.067498 1_545
Mg0 O36 2.076324 1_645
Mg0 O0 2.098581 1_655
Mg1 O40 1.957088 1_545
Mg1 O3 1.958888 1_555
Mg1 O39 2.045350 1_555
Mg1 O4 2.067498 1_445
Mg1 O41 2.076324 1_445
Mg1 O5 2.098581 1_455
Mg2 O49 1.969068 1_555
Mg2 O12 1.984949 1_555
Mg2 O50 2.037188 1_555
Mg2 O14 2.052787 1_555
Mg2 O48 2.074233 1_555
Mg2 O13 2.074818 1_555
Mg3 O52 1.969068 1_555
Mg3 O17 1.984949 1_555
Mg3 O51 2.037188 1_555
Mg3 O15 2.052787 1_555
Mg3 O53 2.074233 1_555
Mg3 O16 2.074818 1_555
Mg4 O26 1.968106 1_554
Mg4 O60 1.982861 1_555
Mg4 O61 2.038417 1_555
Mg4 O62 2.050843 1_555
Mg4 O25 2.057944 1_554
Mg4 O24 2.094851 1_554
Mg5 O27 1.968106 1_555
Mg5 O65 1.982861 1_555
Mg5 O64 2.038417 1_555
Mg5 O63 2.050843 1_555
Mg5 O28 2.057944 1_555
Mg5 O29 2.094851 1_555
Nb0 O42 1.897854 1_455
Nb0 O7 1.915142 1_555
Nb0 O43 2.004885 1_555
Nb0 O44 2.064113 1_445
Nb0 O6 2.089659 1_445
Nb0 O8 2.151526 1_545
Nb1 O47 1.897854 1_555
Nb1 O10 1.915142 1_555
Nb1 O46 2.004885 1_455
Nb1 O45 2.064113 1_445
Nb1 O11 2.089659 1_545
Nb1 O9 2.151526 1_445
Nb2 O56 1.894082 1_555
Nb2 O18 1.922451 1_556
Nb2 O54 2.005770 1_555
Nb2 O55 2.073641 1_555
Nb2 O20 2.101157 1_556
Nb2 O19 2.123193 1_556
Nb3 O57 1.894082 1_555
Nb3 O23 1.922451 1_555
Nb3 O59 2.005770 1_555
Nb3 O58 2.073641 1_555
Nb3 O21 2.101157 1_555
Nb3 O22 2.123193 1_555
Nb4 O68 1.946210 1_555
Nb4 O31 1.963009 1_555
Nb4 O67 1.988368 1_555
Nb4 O66 2.010519 1_555
Nb4 O32 2.072464 1_555
Nb4 O30 2.097560 1_555
Nb5 O69 1.946210 1_555
Nb5 O34 1.963009 1_555
Nb5 O70 1.988368 1_555
Nb5 O71 2.010519 1_555
Nb5 O33 2.072464 1_555
Nb5 O35 2.097560 1_555
O0 S0 1.447248 1_555
O1 S1 1.446545 1_555
O2 P0 1.488118 1_555
O3 P1 1.488118 1_555
O4 S2 1.446545 1_555
O5 S3 1.447248 1_555
O6 S3 1.519927 1_565
O7 P1 1.632655 1_555
O8 S2 1.502853 1_455
O9 S1 1.502853 1_555
O10 P0 1.632655 1_455
O11 S0 1.519927 1_565
O12 P2 1.488231 1_555
O13 S4 1.443507 1_555
O14 S5 1.448245 1_555
O15 S6 1.448245 1_555
O16 S7 1.443507 1_555
O17 P3 1.488231 1_555
O18 P3 1.616298 1_555
O19 S6 1.517773 1_555
O20 S7 1.517978 1_555
O21 S4 1.517978 1_555
O22 S5 1.517773 1_555
O23 P2 1.616298 1_555
O24 S8 1.441646 1_555
O25 S9 1.443530 1_555
O26 P4 1.488335 1_555
O27 P5 1.488335 1_555
O28 S10 1.443530 1_555
O29 S11 1.441646 1_555
O30 S11 1.517572 1_555
O31 P5 1.600665 1_555
O32 S10 1.529761 1_555
O33 S9 1.529761 1_555
O34 P4 1.600665 1_555
O35 S8 1.517572 1_555
O36 S11 1.442705 1_555
O37 P5 1.484429 1_555
O38 S10 1.443435 1_555
O39 S9 1.443438 1_555
O40 P4 1.484421 1_555
O41 S8 1.442710 1_555
O42 P2 1.616237 1_555
O43 S4 1.539004 1_555
O44 S5 1.528559 1_555
O45 S6 1.528563 1_555
O46 S7 1.538996 1_555
O47 P3 1.616242 1_555
O48 S3 1.437775 1_555
O49 P1 1.483757 1_555
O50 S2 1.439097 1_555
O51 S1 1.439100 1_555
O52 P0 1.483749 1_555
O53 S0 1.437781 1_555
O54 S8 1.539789 1_555
O55 S9 1.520481 1_655
O56 P4 1.625175 1_545
O57 P5 1.625167 1_545
O58 S10 1.520498 1_555
O59 S11 1.539779 1_655
O60 P3 1.482998 1_555
O61 S6 1.442183 1_455
O62 S7 1.438445 1_565
O63 S4 1.438439 1_565
O64 S5 1.442200 1_555
O65 P2 1.482987 1_455
O66 S0 1.536897 1_565
O67 S1 1.547870 1_555
O68 P0 1.598967 1_455
O69 P1 1.598971 1_555
O70 S2 1.547862 1_455
O71 S3 1.536902 1_565
