# generated using pymatgen
data_Na10Y7Ta(PO4)12
_symmetry_space_group_name_H-M   'P 1'
_cell_length_a   18.51955719
_cell_length_b   9.27012625
_cell_length_c   23.44627284
_cell_angle_alpha   89.98748633
_cell_angle_beta   90.07191150
_cell_angle_gamma   120.13466820
_symmetry_Int_Tables_number   1
_chemical_formula_structural   Na10Y7Ta(PO4)12
_chemical_formula_sum   'Na30 Y21 Ta3 P36 O144'
_cell_volume   3481.20309235
_cell_formula_units_Z   3
loop_
 _symmetry_equiv_pos_site_id
 _symmetry_equiv_pos_as_xyz
  1  'x, y, z'
loop_
 _atom_site_type_symbol
 _atom_site_label
 _atom_site_symmetry_multiplicity
 _atom_site_fract_x
 _atom_site_fract_y
 _atom_site_fract_z
 _atom_site_occupancy
  Na  Na0  1  0.31712373  0.99979634  0.25307827  1
  Na  Na1  1  0.68412123  0.36578030  0.25288684  1
  Na  Na2  1  0.31292722  0.62966305  0.75592585  1
  Na  Na3  1  0.81290481  0.62924101  0.75526178  1
  Na  Na4  1  0.15336740  0.33447960  0.58169746  1
  Na  Na5  1  0.65311501  0.33518334  0.58204194  1
  Na  Na6  1  0.01285131  0.69618663  0.58291501  1
  Na  Na7  1  0.51424655  0.69487263  0.58174023  1
  Na  Na8  1  0.33191360  0.96796668  0.58175898  1
  Na  Na9  1  0.83420719  0.97238558  0.58169563  1
  Na  Na10  1  0.15296129  0.97151960  0.08125540  1
  Na  Na11  1  0.65376792  0.97394833  0.08242854  1
  Na  Na12  1  0.33256391  0.69394357  0.08235635  1
  Na  Na13  1  0.83271530  0.69375971  0.08221332  1
  Na  Na14  1  0.01355551  0.33296565  0.08095144  1
  Na  Na15  1  0.51424240  0.33296573  0.08296151  1
  Na  Na16  1  0.66811035  0.03177277  0.41350532  1
  Na  Na17  1  0.34611492  0.66451438  0.41232493  1
  Na  Na18  1  0.00019711  0.99874508  0.49434511  1
  Na  Na19  1  0.49963011  0.01464150  0.49330596  1
  Na  Na20  1  0.99997079  0.00029940  0.99690275  1
  Na  Na21  1  0.50017293  0.99972374  0.99705621  1
  Na  Na22  1  0.33327326  0.31973546  0.83753354  1
  Na  Na23  1  0.83335999  0.31996628  0.83767488  1
  Na  Na24  1  0.33358902  0.33423669  0.33249143  1
  Na  Na25  1  0.84652056  0.34695142  0.33360333  1
  Na  Na26  1  0.16160806  0.65090609  0.17171619  1
  Na  Na27  1  0.66539252  0.68221101  0.17172534  1
  Na  Na28  1  0.15914563  0.66649068  0.67187345  1
  Na  Na29  1  0.65907152  0.66534202  0.67200136  1
  Y  Y0  1  0.49962952  0.00487420  0.34910670  1
  Y  Y1  1  0.00222280  0.00445235  0.65352482  1
  Y  Y2  1  0.50206808  0.00326064  0.65231778  1
  Y  Y3  1  0.99966279  0.99824004  0.15298964  1
  Y  Y4  1  0.50047453  0.99717214  0.15251738  1
  Y  Y5  1  0.33369701  0.32516027  0.69011222  1
  Y  Y6  1  0.83355219  0.32521546  0.69067646  1
  Y  Y7  1  0.33099280  0.34063645  0.18591647  1
  Y  Y8  1  0.83994416  0.33358469  0.18809805  1
  Y  Y9  1  0.33334467  0.33440461  0.97830997  1
  Y  Y10  1  0.83341939  0.33470671  0.97846212  1
  Y  Y11  1  0.33235417  0.32318147  0.48029084  1
  Y  Y12  1  0.83808031  0.34359690  0.47973305  1
  Y  Y13  1  0.16651582  0.66743451  0.00739290  1
  Y  Y14  1  0.66642783  0.66636393  0.00813645  1
  Y  Y15  1  0.16000430  0.66025723  0.51005758  1
  Y  Y16  1  0.67074674  0.66783797  0.51117744  1
  Y  Y17  1  0.16244463  0.65993988  0.31636950  1
  Y  Y18  1  0.66421013  0.66859130  0.31681273  1
  Y  Y19  1  0.16272833  0.66733416  0.81790946  1
  Y  Y20  1  0.66266294  0.66717645  0.81797194  1
  Ta  Ta0  1  0.00033687  0.99957947  0.34888732  1
  Ta  Ta1  1  0.00153894  0.00311424  0.85120606  1
  Ta  Ta2  1  0.50156072  0.00300914  0.85116404  1
  P  P0  1  0.14772864  0.00085005  0.25162426  1
  P  P1  1  0.65280208  0.00313155  0.25003421  1
  P  P2  1  0.34664941  0.69894723  0.25086645  1
  P  P3  1  0.85308730  0.70295675  0.25203230  1
  P  P4  1  0.99916936  0.28946439  0.25124625  1
  P  P5  1  0.49984438  0.30209260  0.24670502  1
  P  P6  1  0.14826958  0.29601631  0.75205702  1
  P  P7  1  0.64788381  0.29522698  0.75193298  1
  P  P8  1  0.99920836  0.70864862  0.75129477  1
  P  P9  1  0.49922245  0.70892458  0.75110386  1
  P  P10  1  0.35460022  0.99864210  0.75202805  1
  P  P11  1  0.85429152  0.99836576  0.75220384  1
  P  P12  1  0.48335738  0.33618954  0.58414940  1
  P  P13  1  0.98213287  0.33460561  0.58442507  1
  P  P14  1  0.18433125  0.03232468  0.58411744  1
  P  P15  1  0.68606597  0.03613518  0.58124995  1
  P  P16  1  0.33137669  0.62839855  0.58370033  1
  P  P17  1  0.83286508  0.63023533  0.58740213  1
  P  P18  1  0.48297287  0.63004573  0.08207766  1
  P  P19  1  0.98400016  0.63125157  0.08224672  1
  P  P20  1  0.33132716  0.03307590  0.08469107  1
  P  P21  1  0.83240023  0.03436989  0.08219878  1
  P  P22  1  0.18343658  0.33558993  0.08120147  1
  P  P23  1  0.68635704  0.33754128  0.08526392  1
  P  P24  1  0.32250799  0.67589155  0.91245765  1
  P  P25  1  0.82239047  0.67585470  0.91248814  1
  P  P26  1  0.01504153  0.35416975  0.91547372  1
  P  P27  1  0.51517369  0.35393479  0.91557837  1
  P  P28  1  0.16233562  0.96997336  0.91524044  1
  P  P29  1  0.66227559  0.96961648  0.91533216  1
  P  P30  1  0.31762384  0.96387399  0.41607502  1
  P  P31  1  0.82276312  0.97004152  0.41590276  1
  P  P32  1  0.16197718  0.35625373  0.41616353  1
  P  P33  1  0.66674581  0.36018155  0.41614005  1
  P  P34  1  0.01533944  0.67963687  0.41528042  1
  P  P35  1  0.51551023  0.67017964  0.41897574  1
  O  O0  1  0.09103160  0.00601960  0.30182272  1
  O  O1  1  0.60719105  0.01842178  0.30337692  1
  O  O2  1  0.39767225  0.78631689  0.30524715  1
  O  O3  1  0.91275965  0.81695835  0.30226761  1
  O  O4  1  0.48934804  0.18686037  0.29753088  1
  O  O5  1  0.99739393  0.17057408  0.30115469  1
  O  O6  1  0.09253575  0.17760824  0.80201022  1
  O  O7  1  0.59234047  0.17741166  0.80206275  1
  O  O8  1  0.49588852  0.82171983  0.80085157  1
  O  O9  1  0.99591080  0.82183737  0.80093964  1
  O  O10  1  0.41455948  0.00849719  0.80208595  1
  O  O11  1  0.91455769  0.00852149  0.80207288  1
  O  O12  1  0.39212086  0.98117195  0.69513057  1
  O  O13  1  0.89154489  0.98116131  0.69519053  1
  O  O14  1  0.10384451  0.22259054  0.69468639  1
  O  O15  1  0.60330764  0.22102753  0.69464630  1
  O  O16  1  0.00656626  0.79702155  0.69383122  1
  O  O17  1  0.50678467  0.79755138  0.69364502  1
  O  O18  1  0.39136348  0.80249184  0.19643867  1
  O  O19  1  0.89011798  0.79383328  0.19515963  1
  O  O20  1  0.00495517  0.21445277  0.19379869  1
  O  O21  1  0.51017263  0.22333987  0.19078612  1
  O  O22  1  0.10314442  0.98825797  0.19473267  1
  O  O23  1  0.60247598  0.98654219  0.19473336  1
  O  O24  1  0.44180614  0.36146837  0.63749155  1
  O  O25  1  0.94027924  0.35907374  0.63759051  1
  O  O26  1  0.23951498  0.11548510  0.63719973  1
  O  O27  1  0.74248796  0.12589002  0.63322291  1
  O  O28  1  0.31997261  0.52176288  0.63784615  1
  O  O29  1  0.82108562  0.52805191  0.64257357  1
  O  O30  1  0.44181602  0.52230936  0.13560737  1
  O  O31  1  0.94459985  0.52352479  0.13612719  1
  O  O32  1  0.31738071  0.10583964  0.14074778  1
  O  O33  1  0.81936800  0.11589294  0.13582153  1
  O  O34  1  0.23723913  0.36365755  0.13496502  1
  O  O35  1  0.73741896  0.36403551  0.14097464  1
  O  O36  1  0.22568842  0.30778261  0.02929538  1
  O  O37  1  0.73083244  0.31042282  0.03438741  1
  O  O38  1  0.42730574  0.54745384  0.02964117  1
  O  O39  1  0.92751374  0.54762382  0.03027130  1
  O  O40  1  0.34491518  0.15113239  0.03444465  1
  O  O41  1  0.84695524  0.14640492  0.02999818  1
  O  O42  1  0.22543358  0.14221153  0.53137629  1
  O  O43  1  0.72489853  0.13699634  0.52594276  1
  O  O44  1  0.34382033  0.54519469  0.53023423  1
  O  O45  1  0.84535587  0.54129102  0.53597715  1
  O  O46  1  0.42780884  0.30750707  0.53157926  1
  O  O47  1  0.92826139  0.30821041  0.53110999  1
  O  O48  1  0.28646652  0.70783229  0.96792760  1
  O  O49  1  0.78625724  0.70743831  0.96797609  1
  O  O50  1  0.06400215  0.41982078  0.97249392  1
  O  O51  1  0.56425822  0.41964080  0.97256183  1
  O  O52  1  0.14534968  0.87165119  0.97218852  1
  O  O53  1  0.64539393  0.87047403  0.97208838  1
  O  O54  1  0.27253049  0.85853544  0.47055628  1
  O  O55  1  0.79242356  0.87450335  0.47360153  1
  O  O56  1  0.14323410  0.41735675  0.47321879  1
  O  O57  1  0.66165240  0.44651887  0.47191164  1
  O  O58  1  0.06182456  0.70951760  0.47339845  1
  O  O59  1  0.56562855  0.68822699  0.47486782  1
  O  O60  1  0.06374522  0.65747056  0.36702127  1
  O  O61  1  0.56206944  0.65293715  0.36779840  1
  O  O62  1  0.26711468  0.87550642  0.36202730  1
  O  O63  1  0.75949149  0.87285491  0.36871513  1
  O  O64  1  0.17736196  0.48085787  0.36835519  1
  O  O65  1  0.67192861  0.46187767  0.36271242  1
  O  O66  1  0.06263272  0.47101541  0.86652705  1
  O  O67  1  0.56244031  0.47100528  0.86659452  1
  O  O68  1  0.17358061  0.87566380  0.86627660  1
  O  O69  1  0.67389714  0.87637124  0.86614061  1
  O  O70  1  0.26785592  0.65416248  0.86047513  1
  O  O71  1  0.76778703  0.65414628  0.86049009  1
  O  O72  1  0.00711541  0.83976816  0.40373540  1
  O  O73  1  0.51091156  0.83319853  0.41522152  1
  O  O74  1  0.40274746  0.96825723  0.41585844  1
  O  O75  1  0.91123089  0.99078018  0.40226234  1
  O  O76  1  0.08420081  0.17892898  0.40261876  1
  O  O77  1  0.58849878  0.18230143  0.41572314  1
  O  O78  1  0.00805443  0.17789221  0.90357796  1
  O  O79  1  0.50824975  0.17783748  0.90361360  1
  O  O80  1  0.08162806  0.98533821  0.90312646  1
  O  O81  1  0.58148328  0.98477956  0.90319124  1
  O  O82  1  0.41187428  0.83844414  0.90273395  1
  O  O83  1  0.91182938  0.83839444  0.90273463  1
  O  O84  1  0.49357405  0.17905330  0.58828374  1
  O  O85  1  0.99316822  0.17866246  0.58855085  1
  O  O86  1  0.09577068  0.01299206  0.58854502  1
  O  O87  1  0.59762491  0.01684068  0.58695693  1
  O  O88  1  0.41001087  0.80684976  0.58791961  1
  O  O89  1  0.91136198  0.80879210  0.58923006  1
  O  O90  1  0.49360829  0.80827024  0.08694143  1
  O  O91  1  0.99423725  0.80882250  0.08756938  1
  O  O92  1  0.40997481  0.01186043  0.08761266  1
  O  O93  1  0.91036806  0.01152050  0.08737542  1
  O  O94  1  0.09450655  0.17824513  0.08664102  1
  O  O95  1  0.59700603  0.17978173  0.08795941  1
  O  O96  1  0.34842443  0.15750357  0.75373074  1
  O  O97  1  0.84802533  0.15707641  0.75397141  1
  O  O98  1  0.23503434  0.30919059  0.75399124  1
  O  O99  1  0.73451662  0.30783667  0.75403960  1
  O  O100  1  0.41411433  0.54314048  0.75321817  1
  O  O101  1  0.91433624  0.54265638  0.75365995  1
  O  O102  1  0.33570459  0.52334588  0.24864934  1
  O  O103  1  0.84789287  0.53156115  0.25429267  1
  O  O104  1  0.41871776  0.31130058  0.24541239  1
  O  O105  1  0.91807354  0.29581099  0.25544222  1
  O  O106  1  0.23492740  0.15908255  0.25464539  1
  O  O107  1  0.73681091  0.17152885  0.24807133  1
  O  O108  1  0.33594227  0.52615093  0.91782013  1
  O  O109  1  0.83580121  0.52607559  0.91787497  1
  O  O110  1  0.42609557  0.32445998  0.91884043  1
  O  O111  1  0.92618275  0.32565513  0.91860612  1
  O  O112  1  0.23746774  0.14709040  0.91860181  1
  O  O113  1  0.73693693  0.14741987  0.91900124  1
  O  O114  1  0.32934311  0.13996665  0.41863691  1
  O  O115  1  0.83025929  0.14327615  0.41965856  1
  O  O116  1  0.24192422  0.34422190  0.42058005  1
  O  O117  1  0.74376672  0.33521994  0.41730571  1
  O  O118  1  0.42483575  0.52109695  0.42029726  1
  O  O119  1  0.92690679  0.52770628  0.41777186  1
  O  O120  1  0.17482326  0.49441789  0.07503057  1
  O  O121  1  0.67764785  0.49585078  0.07700875  1
  O  O122  1  0.07218790  0.64957528  0.07566082  1
  O  O123  1  0.57137395  0.64857010  0.07615911  1
  O  O124  1  0.25240647  0.85664997  0.07618732  1
  O  O125  1  0.75267951  0.85784375  0.07587069  1
  O  O126  1  0.17424858  0.85496620  0.57862011  1
  O  O127  1  0.67678075  0.85912805  0.57824723  1
  O  O128  1  0.25169209  0.64527753  0.57778436  1
  O  O129  1  0.75350353  0.64738252  0.58090996  1
  O  O130  1  0.07018612  0.49439776  0.57959680  1
  O  O131  1  0.57193496  0.49424953  0.57864827  1
  O  O132  1  0.15877557  0.84757420  0.25675440  1
  O  O133  1  0.66471732  0.85061787  0.25284961  1
  O  O134  1  0.26193664  0.69636436  0.25163036  1
  O  O135  1  0.76441671  0.67601673  0.25840067  1
  O  O136  1  0.07696806  0.46197130  0.25662613  1
  O  O137  1  0.58117030  0.47295150  0.25196425  1
  O  O138  1  0.16111451  0.47333529  0.75694838  1
  O  O139  1  0.66094364  0.47274394  0.75683177  1
  O  O140  1  0.07436810  0.68389134  0.75640171  1
  O  O141  1  0.57427147  0.68383102  0.75636401  1
  O  O142  1  0.26949326  0.83661546  0.75735049  1
  O  O143  1  0.76926448  0.83636804  0.75749922  1
loop_
_geom_bond_atom_site_label_1
_geom_bond_atom_site_label_2
_geom_bond_distance
_geom_bond_site_symmetry_2
Na0 O134 2.463995 1_555
Na0 O132 2.538513 1_555
Na0 O104 2.540942 1_565
Na0 O106 2.599226 1_565
Na0 O62 2.764725 1_555
Na0 O32 2.810182 1_565
Na0 O4 2.950493 1_565
Na1 O107 2.443811 1_555
Na1 O135 2.490911 1_555
Na1 O137 2.554295 1_555
Na1 O103 2.623266 1_555
Na1 O65 2.771215 1_555
Na1 O35 2.807500 1_555
Na2 O100 2.380858 1_555
Na2 O142 2.424508 1_555
Na2 O138 2.431965 1_555
Na2 O98 2.570153 1_555
Na2 O70 2.636827 1_555
Na2 O28 2.969079 1_555
Na3 O101 2.385029 1_555
Na3 O143 2.429193 1_555
Na3 O139 2.434523 1_555
Na3 O99 2.577302 1_555
Na3 O71 2.652870 1_555
Na3 O29 2.833450 1_555
Na4 O128 2.521460 1_555
Na4 O85 2.571479 1_455
Na4 O86 2.617958 1_555
Na4 O130 2.620300 1_555
Na4 O56 2.690200 1_555
Na4 O14 2.825744 1_555
Na4 O42 2.956921 1_555
Na4 O28 2.979858 1_555
Na5 O129 2.535881 1_555
Na5 O84 2.559938 1_555
Na5 O131 2.581955 1_555
Na5 O87 2.594867 1_555
Na5 O57 2.755668 1_555
Na5 O15 2.822394 1_555
Na6 O86 2.544006 1_565
Na6 O89 2.571960 1_455
Na6 O130 2.574349 1_555
Na6 O126 2.587288 1_555
Na6 O58 2.706361 1_555
Na6 O16 2.785920 1_555
Na6 O45 2.900847 1_455
Na6 O25 3.000200 1_455
Na7 O131 2.569202 1_555
Na7 O87 2.584538 1_565
Na7 O127 2.604667 1_555
Na7 O88 2.614903 1_555
Na7 O59 2.693145 1_555
Na7 O17 2.818376 1_555
Na7 O24 2.983334 1_555
Na7 O44 2.989867 1_555
Na8 O88 2.551834 1_555
Na8 O126 2.560636 1_555
Na8 O128 2.588763 1_555
Na8 O84 2.632966 1_565
Na8 O54 2.812522 1_555
Na8 O12 2.860001 1_555
Na8 O46 2.972612 1_565
Na8 O26 2.973864 1_565
Na9 O127 2.556328 1_555
Na9 O89 2.558857 1_555
Na9 O85 2.587580 1_565
Na9 O129 2.605749 1_555
Na9 O55 2.671406 1_555
Na9 O13 2.849832 1_555
Na9 O47 2.948095 1_565
Na9 O27 2.966917 1_565
Na10 O91 2.546929 1_455
Na10 O124 2.551379 1_555
Na10 O122 2.584377 1_555
Na10 O94 2.635113 1_565
Na10 O52 2.699146 1_554
Na10 O22 2.846790 1_555
Na10 O36 2.966832 1_565
Na10 O32 2.991849 1_565
Na11 O125 2.553024 1_555
Na11 O90 2.567960 1_555
Na11 O95 2.603290 1_565
Na11 O123 2.612731 1_555
Na11 O53 2.736380 1_554
Na11 O23 2.822602 1_555
Na11 O37 2.927035 1_565
Na11 O33 2.939950 1_565
Na12 O92 2.552154 1_565
Na12 O120 2.560888 1_555
Na12 O124 2.597523 1_555
Na12 O90 2.618283 1_555
Na12 O48 2.836891 1_554
Na12 O18 2.871686 1_555
Na12 O34 2.930734 1_555
Na12 O38 2.974697 1_555
Na13 O121 2.517344 1_555
Na13 O93 2.550711 1_565
Na13 O125 2.606895 1_555
Na13 O91 2.626201 1_555
Na13 O19 2.829723 1_555
Na13 O49 2.834426 1_554
Na13 O39 2.965583 1_555
Na13 O35 2.990562 1_555
Na14 O94 2.545758 1_555
Na14 O122 2.570794 1_555
Na14 O120 2.586874 1_555
Na14 O93 2.614750 1_455
Na14 O50 2.690234 1_554
Na14 O20 2.838478 1_555
Na14 O41 2.927737 1_455
Na14 O31 2.948749 1_455
Na15 O95 2.562113 1_555
Na15 O123 2.568400 1_555
Na15 O92 2.613490 1_555
Na15 O121 2.621119 1_555
Na15 O21 2.711476 1_555
Na15 O51 2.731581 1_554
Na15 O40 2.941677 1_555
Na15 O30 2.961853 1_555
Na16 O117 2.434426 1_555
Na16 O77 2.487897 1_555
Na16 O73 2.546563 1_545
Na16 O115 2.643707 1_555
Na16 O1 2.794283 1_555
Na16 O43 2.823370 1_555
Na16 O63 2.940331 1_545
Na17 O118 2.423476 1_555
Na17 O74 2.463722 1_555
Na17 O116 2.612423 1_555
Na17 O73 2.640454 1_555
Na17 O2 2.722475 1_555
Na17 O64 2.894601 1_555
Na17 O44 2.969797 1_555
Na18 O72 2.625506 1_555
Na18 O76 2.689461 1_565
Na18 O75 2.692648 1_455
Na18 O86 2.789973 1_565
Na18 O89 2.802740 1_455
Na18 O85 2.810284 1_465
Na19 O77 2.423032 1_555
Na19 O74 2.432897 1_545
Na19 O73 2.565095 1_545
Na19 O84 2.732806 1_555
Na19 O87 2.840466 1_555
Na19 O88 2.860675 1_545
Na20 O78 2.696737 1_655
Na20 O94 2.702908 1_656
Na20 O83 2.706371 1_545
Na20 O80 2.712845 1_645
Na20 O93 2.728804 1_556
Na20 O91 2.736902 1_546
Na21 O79 2.701823 1_565
Na21 O82 2.708812 1_555
Na21 O81 2.710734 1_555
Na21 O90 2.718179 1_556
Na21 O92 2.740206 1_566
Na21 O95 2.744290 1_566
Na22 O112 2.545245 1_555
Na22 O110 2.550948 1_555
Na22 O96 2.574402 1_555
Na22 O98 2.639858 1_555
Na22 O108 2.667171 1_555
Na22 O100 2.707575 1_555
Na23 O111 2.541523 1_555
Na23 O113 2.553907 1_555
Na23 O97 2.572906 1_555
Na23 O99 2.644464 1_555
Na23 O109 2.665176 1_555
Na23 O101 2.699634 1_555
Na24 O106 2.514037 1_555
Na24 O102 2.620841 1_555
Na24 O104 2.654053 1_555
Na24 O118 2.673616 1_555
Na24 O114 2.680602 1_555
Na24 O116 2.706052 1_555
Na25 O105 2.444655 1_555
Na25 O103 2.518398 1_555
Na25 O119 2.531371 1_555
Na25 O115 2.674986 1_555
Na25 O117 2.699259 1_555
Na25 O107 2.732757 1_555
Na26 O134 2.519136 1_555
Na26 O136 2.595716 1_555
Na26 O132 2.720260 1_555
Na26 O120 2.768131 1_555
Na26 O122 2.790132 1_555
Na26 O124 2.875647 1_555
Na27 O133 2.464985 1_555
Na27 O137 2.589007 1_555
Na27 O135 2.755476 1_555
Na27 O123 2.755882 1_555
Na27 O125 2.771249 1_555
Na27 O121 2.892131 1_555
Na28 O140 2.584784 1_555
Na28 O138 2.692599 1_555
Na28 O130 2.700702 1_555
Na28 O126 2.724084 1_555
Na28 O142 2.726721 1_555
Na28 O128 2.861973 1_555
Na29 O141 2.585802 1_555
Na29 O139 2.684262 1_555
Na29 O131 2.707993 1_555
Na29 O143 2.727476 1_555
Na29 O127 2.752313 1_555
Na29 O129 2.819481 1_555
O0 P0 1.594900 1_555
O0 Ta0 1.986539 1_545
O1 P1 1.555882 1_555
O1 Y0 2.210773 1_555
O2 P2 1.550336 1_555
O2 Y0 2.209653 1_565
O3 P3 1.596881 1_555
O3 Ta0 1.982610 1_655
O4 P5 1.546125 1_555
O4 Y0 2.160027 1_555
O5 P4 1.596310 1_555
O5 Ta0 1.963151 1_645
O6 P6 1.583308 1_555
O6 Ta1 2.013454 1_555
O7 P7 1.583301 1_555
O7 Ta2 2.010113 1_555
O8 P9 1.588448 1_555
O8 Ta2 2.012515 1_565
O9 P8 1.588906 1_555
O9 Ta1 2.012089 1_665
O10 P10 1.585496 1_545
O10 Ta2 2.000091 1_555
O11 P11 1.585228 1_545
O11 Ta1 2.000209 1_655
O12 P10 1.550524 1_555
O12 Y2 2.186768 1_565
O13 P11 1.549583 1_555
O13 Y1 2.182392 1_665
O14 P6 1.544312 1_555
O14 Y1 2.176591 1_555
O15 P7 1.544726 1_555
O15 Y2 2.184347 1_555
O16 P8 1.546877 1_455
O16 Y1 2.179785 1_565
O17 P9 1.547258 1_555
O17 Y2 2.179271 1_565
O18 P2 1.561925 1_555
O18 Y4 2.177946 1_555
O19 P3 1.542668 1_555
O19 Y3 2.197329 1_555
O20 P4 1.544288 1_455
O20 Y3 2.178477 1_445
O21 P5 1.558771 1_555
O21 Y4 2.203498 1_545
O22 P0 1.541162 1_565
O22 Y3 2.193737 1_455
O23 P1 1.557759 1_565
O23 Y4 2.177154 1_555
O24 P12 1.547531 1_555
O24 Y5 2.230108 1_555
O25 P13 1.544397 1_555
O25 Y6 2.222053 1_555
O26 P14 1.547221 1_555
O26 Y5 2.225077 1_555
O27 P15 1.547045 1_555
O27 Y6 2.222507 1_555
O28 P16 1.556909 1_555
O28 Y5 2.313287 1_555
O29 P17 1.552700 1_555
O29 Y6 2.301134 1_555
O30 P18 1.546333 1_555
O30 Y7 2.230389 1_555
O31 P19 1.547819 1_555
O31 Y8 2.218121 1_555
O32 P20 1.557339 1_555
O32 Y7 2.317776 1_555
O33 P21 1.547378 1_555
O33 Y8 2.224355 1_555
O34 P22 1.544730 1_555
O34 Y7 2.203190 1_555
O35 P23 1.557108 1_555
O35 Y8 2.332020 1_555
O36 P22 1.537819 1_555
O36 Y9 2.230867 1_554
O37 P23 1.541119 1_555
O37 Y10 2.226255 1_554
O38 P18 1.537934 1_555
O38 Y9 2.218594 1_554
O39 P19 1.537309 1_555
O39 Y10 2.224909 1_554
O40 P20 1.540323 1_555
O40 Y9 2.242425 1_554
O41 P21 1.538974 1_555
O41 Y10 2.237773 1_554
O42 P14 1.539315 1_555
O42 Y11 2.199907 1_555
O43 P15 1.549073 1_555
O43 Y12 2.282424 1_555
O44 P16 1.548907 1_555
O44 Y11 2.283343 1_555
O45 P17 1.542649 1_555
O45 Y12 2.206454 1_555
O46 P12 1.539658 1_555
O46 Y11 2.201070 1_555
O47 P13 1.539390 1_555
O47 Y12 2.211970 1_555
O48 P24 1.557383 1_555
O48 Y13 2.258525 1_556
O49 P25 1.557289 1_555
O49 Y14 2.261210 1_556
O50 P26 1.556635 1_555
O50 Y13 2.272469 1_556
O51 P27 1.556832 1_555
O51 Y14 2.271260 1_556
O52 P28 1.557293 1_555
O52 Y13 2.272101 1_556
O53 P29 1.557320 1_555
O53 Y14 2.277008 1_556
O54 P30 1.570350 1_555
O54 Y15 2.176499 1_555
O55 P31 1.559468 1_555
O55 Y16 2.279020 1_555
O56 P32 1.558774 1_555
O56 Y15 2.282701 1_555
O57 P33 1.560754 1_555
O57 Y16 2.176859 1_555
O58 P34 1.559633 1_555
O58 Y15 2.254530 1_555
O59 P35 1.564584 1_555
O59 Y16 2.217093 1_555
O60 P34 1.521099 1_555
O60 Y17 2.171506 1_555
O61 P35 1.532939 1_555
O61 Y18 2.181337 1_555
O62 P30 1.542717 1_555
O62 Y17 2.236779 1_555
O63 P31 1.531658 1_555
O63 Y18 2.195643 1_555
O64 P32 1.530259 1_555
O64 Y17 2.185567 1_555
O65 P33 1.541460 1_555
O65 Y18 2.263712 1_555
O66 P26 1.520045 1_555
O66 Y19 2.159812 1_555
O67 P27 1.520259 1_555
O67 Y20 2.160339 1_555
O68 P28 1.519703 1_555
O68 Y19 2.160272 1_555
O69 P29 1.520392 1_555
O69 Y20 2.162122 1_555
O70 P24 1.530607 1_555
O70 Y19 2.243919 1_555
O71 P25 1.530400 1_555
O71 Y20 2.242724 1_555
O72 P34 1.589576 1_555
O72 Ta0 2.012403 1_555
O73 P35 1.558170 1_555
O73 Y0 2.304629 1_565
O74 P30 1.556464 1_555
O74 Y0 2.275786 1_565
O75 P31 1.583847 1_555
O75 Ta0 2.041059 1_655
O76 P32 1.580957 1_555
O76 Ta0 2.041273 1_545
O77 P33 1.555577 1_555
O77 Y0 2.264997 1_555
O78 P26 1.597706 1_555
O78 Ta1 1.987877 1_555
O79 P27 1.596855 1_555
O79 Ta2 1.988249 1_555
O80 P28 1.596141 1_555
O80 Ta1 1.987407 1_565
O81 P29 1.596747 1_555
O81 Ta2 1.988438 1_565
O82 P24 1.599532 1_555
O82 Ta2 2.002021 1_565
O83 P25 1.600338 1_555
O83 Ta1 2.002123 1_665
O84 P12 1.563240 1_555
O84 Y2 2.278205 1_555
O85 P13 1.561234 1_555
O85 Y1 2.286288 1_655
O86 P14 1.561449 1_555
O86 Y1 2.279852 1_555
O87 P15 1.561720 1_555
O87 Y2 2.297624 1_555
O88 P16 1.564594 1_555
O88 Y2 2.319366 1_565
O89 P17 1.561667 1_555
O89 Y1 2.307411 1_665
O90 P18 1.566758 1_555
O90 Y4 2.285547 1_555
O91 P19 1.564564 1_555
O91 Y3 2.295591 1_555
O92 P20 1.565945 1_555
O92 Y4 2.316464 1_545
O93 P21 1.565622 1_555
O93 Y3 2.305326 1_545
O94 P22 1.563539 1_555
O94 Y3 2.313535 1_445
O95 P23 1.565671 1_555
O95 Y4 2.306462 1_545
O96 P10 1.533811 1_545
O96 Y5 2.266812 1_555
O97 P11 1.533389 1_545
O97 Y6 2.262988 1_555
O98 P6 1.549743 1_555
O98 Y5 2.310604 1_555
O99 P7 1.549743 1_555
O99 Y6 2.303694 1_555
O100 P9 1.554550 1_555
O100 Y5 2.337641 1_555
O101 P8 1.553427 1_555
O101 Y6 2.334498 1_555
O102 P2 1.537006 1_555
O102 Y7 2.211819 1_555
O103 P3 1.543711 1_555
O103 Y8 2.351178 1_555
O104 P5 1.547304 1_555
O104 Y7 2.257661 1_555
O105 P4 1.535517 1_555
O105 Y8 2.283001 1_555
O106 P0 1.544611 1_555
O106 Y7 2.365173 1_555
O107 P1 1.555997 1_555
O107 Y8 2.237622 1_555
O108 P24 1.533355 1_555
O108 Y9 2.255337 1_555
O109 P25 1.533485 1_555
O109 Y10 2.255548 1_555
O110 P27 1.532872 1_555
O110 Y9 2.251279 1_555
O111 P26 1.531953 1_655
O111 Y10 2.253601 1_555
O112 P28 1.531012 1_545
O112 Y9 2.242058 1_555
O113 P29 1.532141 1_545
O113 Y10 2.242895 1_555
O114 P30 1.536140 1_545
O114 Y11 2.209787 1_555
O115 P31 1.543421 1_545
O115 Y12 2.276823 1_555
O116 P32 1.542956 1_555
O116 Y11 2.263780 1_555
O117 P33 1.555697 1_555
O117 Y12 2.248695 1_555
O118 P35 1.549429 1_555
O118 Y11 2.264495 1_555
O119 P34 1.534089 1_655
O119 Y12 2.217071 1_555
O120 P22 1.565208 1_555
O120 Y13 2.314537 1_555
O121 P23 1.566729 1_555
O121 Y14 2.340326 1_555
O122 P19 1.562724 1_455
O122 Y13 2.314656 1_555
O123 P18 1.564379 1_555
O123 Y14 2.320577 1_555
O124 P20 1.565273 1_565
O124 Y13 2.324202 1_555
O125 P21 1.566316 1_565
O125 Y14 2.317837 1_555
O126 P14 1.564110 1_565
O126 Y15 2.331055 1_555
O127 P15 1.563240 1_565
O127 Y16 2.330602 1_555
O128 P16 1.566144 1_555
O128 Y15 2.377812 1_555
O129 P17 1.562875 1_555
O129 Y16 2.311575 1_555
O130 P13 1.562453 1_455
O130 Y15 2.286263 1_555
O131 P12 1.562560 1_555
O131 Y16 2.343112 1_555
O132 P0 1.538499 1_565
O132 Y17 2.258581 1_555
O133 P1 1.537892 1_565
O133 Y18 2.253784 1_555
O134 P2 1.557086 1_555
O134 Y17 2.279277 1_555
O135 P3 1.539518 1_555
O135 Y18 2.280876 1_555
O136 P4 1.528174 1_455
O136 Y17 2.216881 1_555
O137 P5 1.548123 1_555
O137 Y18 2.271757 1_555
O138 P6 1.542439 1_555
O138 Y19 2.285845 1_555
O139 P7 1.542753 1_555
O139 Y20 2.290862 1_555
O140 P8 1.524725 1_455
O140 Y19 2.242150 1_555
O141 P9 1.524880 1_555
O141 Y20 2.244493 1_555
O142 P10 1.542475 1_555
O142 Y19 2.297556 1_555
O143 P11 1.541511 1_555
O143 Y20 2.294528 1_555
