# generated using pymatgen
data_MgTe4Mo3WS4
_symmetry_space_group_name_H-M   'P 1'
_cell_length_a   3.37095420
_cell_length_b   3.37142638
_cell_length_c   42.16209695
_cell_angle_alpha   90.00304332
_cell_angle_beta   90.09050417
_cell_angle_gamma   120.00464028
_symmetry_Int_Tables_number   1
_chemical_formula_structural   MgTe4Mo3WS4
_chemical_formula_sum   'Mg1 Te4 Mo3 W1 S4'
_cell_volume   414.95242828
_cell_formula_units_Z   1
loop_
 _symmetry_equiv_pos_site_id
 _symmetry_equiv_pos_as_xyz
  1  'x, y, z'
loop_
 _atom_site_type_symbol
 _atom_site_label
 _atom_site_symmetry_multiplicity
 _atom_site_fract_x
 _atom_site_fract_y
 _atom_site_fract_z
 _atom_site_occupancy
  Mg  Mg0  1  0.66951000  0.33472300  0.37096300  1
  Te  Te0  1  0.33475800  0.66741000  0.70240100  1
  Te  Te1  1  0.66493200  0.33245600  0.04915100  1
  Te  Te2  1  0.66833700  0.33420600  0.13858600  1
  Te  Te3  1  0.33137500  0.66567300  0.61298500  1
  Mo  Mo0  1  0.33333600  0.66668100  0.09384500  1
  Mo  Mo1  1  0.66963600  0.33487300  0.27618400  1
  Mo  Mo2  1  0.66641500  0.33321400  0.65768900  1
  W  W0  1  0.33383400  0.66684700  0.47348900  1
  S  S0  1  0.33595200  0.66805300  0.31232000  1
  S  S1  1  0.66614900  0.33299200  0.43769400  1
  S  S2  1  0.66807000  0.33399300  0.50907000  1
  S  S3  1  0.33626700  0.66816500  0.24069100  1
loop_
_geom_bond_atom_site_label_1
_geom_bond_atom_site_label_2
_geom_bond_distance
_geom_bond_site_symmetry_2
Mg0 S1 2.813554 1_555
Mg0 S0 3.145229 1_545
Mg0 S0 3.145764 1_555
Mg0 S0 3.148973 1_655
Mo0 Te1 2.708554 1_555
Mo0 Te1 2.708582 1_565
Mo0 Te2 2.709334 1_455
Mo0 Te1 2.710071 1_455
Mo0 Te2 2.710994 1_565
Mo0 Te2 2.711016 1_555
Mo1 S3 2.454114 1_545
Mo1 S3 2.454114 1_555
Mo1 S3 2.457074 1_655
Mo1 S0 2.468544 1_655
Mo1 S0 2.473302 1_555
Mo1 S0 2.473311 1_545
Mo2 Te3 2.708164 1_655
Mo2 Te0 2.709150 1_555
Mo2 Te0 2.709172 1_545
Mo2 Te3 2.709943 1_545
Mo2 Te3 2.709980 1_555
Mo2 Te0 2.710470 1_655
S1 W0 2.462859 1_555
S1 W0 2.462875 1_655
S1 W0 2.462911 1_545
S2 W0 2.457335 1_655
S2 W0 2.457366 1_555
S2 W0 2.457386 1_545
