# generated using pymatgen
data_NaSn4P5SO24
_symmetry_space_group_name_H-M   'P 1'
_cell_length_a   8.73197748
_cell_length_b   8.74328410
_cell_length_c   22.81318908
_cell_angle_alpha   90.18830032
_cell_angle_beta   89.64388614
_cell_angle_gamma   120.07128545
_symmetry_Int_Tables_number   1
_chemical_formula_structural   NaSn4P5SO24
_chemical_formula_sum   'Na3 Sn12 P15 S3 O72'
_cell_volume   1507.24211616
_cell_formula_units_Z   3
loop_
 _symmetry_equiv_pos_site_id
 _symmetry_equiv_pos_as_xyz
  1  'x, y, z'
loop_
 _atom_site_type_symbol
 _atom_site_label
 _atom_site_symmetry_multiplicity
 _atom_site_fract_x
 _atom_site_fract_y
 _atom_site_fract_z
 _atom_site_occupancy
  Na  Na0  1  0.67003361  0.33726598  0.83412817  1
  Na  Na1  1  0.66662872  0.33340436  0.33145530  1
  Na  Na2  1  0.33347035  0.66682365  0.16708895  1
  Sn  Sn0  1  0.00073811  0.00052727  0.35358784  1
  Sn  Sn1  1  0.99395093  0.00008222  0.85388703  1
  Sn  Sn2  1  0.00581526  0.99973293  0.64889610  1
  Sn  Sn3  1  0.99962677  0.00048067  0.14555245  1
  Sn  Sn4  1  0.66232763  0.32765554  0.68767352  1
  Sn  Sn5  1  0.66684432  0.33285335  0.18593851  1
  Sn  Sn6  1  0.67282882  0.33995061  0.98348260  1
  Sn  Sn7  1  0.65985735  0.32838623  0.47798768  1
  Sn  Sn8  1  0.33494863  0.66097564  0.02094690  1
  Sn  Sn9  1  0.33369633  0.67298363  0.51684231  1
  Sn  Sn10  1  0.33271055  0.66628572  0.31322407  1
  Sn  Sn11  1  0.33215497  0.66070665  0.81174801  1
  P  P0  1  0.28982488  -0.00000197  0.24984859  1
  P  P1  1  0.71061803  0.70988579  0.25004878  1
  P  P2  1  0.99934148  0.28952135  0.25005607  1
  P  P3  1  0.28830966  0.28885786  0.75066344  1
  P  P4  1  0.00103933  0.70930455  0.75061081  1
  P  P5  1  0.70914798  0.99819040  0.74959823  1
  P  P6  1  0.37501833  0.04087945  0.58331543  1
  P  P7  1  0.95931282  0.62654935  0.08401635  1
  P  P8  1  0.66694094  0.04281382  0.08309216  1
  P  P9  1  0.37631719  0.33115026  0.08376599  1
  P  P10  1  0.62335879  0.66515377  0.91624208  1
  P  P11  1  0.04219152  0.37623305  0.91642012  1
  P  P12  1  0.62563812  0.95591795  0.41592018  1
  P  P13  1  0.33057881  0.37683097  0.41681389  1
  P  P14  1  0.04172361  0.66786028  0.41656577  1
  S  S0  1  0.95911759  0.33331111  0.58321776  1
  S  S1  1  0.66624679  0.62552672  0.58339703  1
  S  S2  1  0.33320216  0.95817797  0.91636199  1
  O  O0  1  0.21295591  0.03495191  0.30586926  1
  O  O1  1  0.82205529  0.78742387  0.30571104  1
  O  O2  1  0.96482772  0.17780941  0.30576590  1
  O  O3  1  0.21102928  0.17177053  0.80542024  1
  O  O4  1  0.96266859  0.78806885  0.80543494  1
  O  O5  1  0.82495723  0.03850325  0.80424305  1
  O  O6  1  0.78874063  0.96596194  0.69323402  1
  O  O7  1  0.17803442  0.21305218  0.69452139  1
  O  O8  1  0.03316944  0.81898708  0.69436031  1
  O  O9  1  0.78848782  0.82285314  0.19459534  1
  O  O10  1  0.03499212  0.21190436  0.19453728  1
  O  O11  1  0.17692178  0.96532842  0.19467713  1
  O  O12  1  0.88185262  0.36876710  0.63633402  1
  O  O13  1  0.49251781  0.12314141  0.63796767  1
  O  O14  1  0.63435425  0.51474857  0.63641666  1
  O  O15  1  0.88113617  0.50862026  0.13847460  1
  O  O16  1  0.62765751  0.11985443  0.13822609  1
  O  O17  1  0.49294597  0.37089252  0.13834338  1
  O  O18  1  0.45397172  0.29815965  0.02723315  1
  O  O19  1  0.84895372  0.55074605  0.02807637  1
  O  O20  1  0.69916321  0.15406702  0.02707111  1
  O  O21  1  0.45775285  0.16021573  0.52904518  1
  O  O22  1  0.70251871  0.54807825  0.53075487  1
  O  O23  1  0.84755993  0.30119129  0.53074087  1
  O  O24  1  0.54404063  0.70200276  0.97122313  1
  O  O25  1  0.15556305  0.45814491  0.97136365  1
  O  O26  1  0.30157341  0.84947986  0.96942487  1
  O  O27  1  0.54945236  0.84654085  0.47263660  1
  O  O28  1  0.29982917  0.45597073  0.47380492  1
  O  O29  1  0.15121832  0.69964446  0.47287213  1
  O  O30  1  0.11918038  0.62697891  0.36212907  1
  O  O31  1  0.50699681  0.87848093  0.36201121  1
  O  O32  1  0.37118277  0.49390982  0.36232718  1
  O  O33  1  0.12027214  0.49309053  0.86126663  1
  O  O34  1  0.36790015  0.88212953  0.86303011  1
  O  O35  1  0.50888819  0.63103945  0.86104783  1
  O  O36  1  0.02274135  0.83032367  0.40934585  1
  O  O37  1  0.80798687  0.97592108  0.40920704  1
  O  O38  1  0.16872317  0.19417808  0.40985529  1
  O  O39  1  0.02696867  0.19478568  0.90878960  1
  O  O40  1  0.17462499  0.97479954  0.90936902  1
  O  O41  1  0.80742014  0.82911929  0.90898572  1
  O  O42  1  0.97320806  0.17304078  0.59062675  1
  O  O43  1  0.19177720  0.02435123  0.59092832  1
  O  O44  1  0.82514775  0.80191571  0.59050007  1
  O  O45  1  0.97699559  0.80804337  0.09120219  1
  O  O46  1  0.83034296  0.02418388  0.09058647  1
  O  O47  1  0.19350894  0.16799548  0.09070456  1
  O  O48  1  0.69335521  0.16709643  0.74359322  1
  O  O49  1  0.47500462  0.30880634  0.74423003  1
  O  O50  1  0.83245254  0.52345752  0.74271677  1
  O  O51  1  0.69075543  0.52415967  0.24435985  1
  O  O52  1  0.83326613  0.30913794  0.24446803  1
  O  O53  1  0.47574448  0.16645147  0.24444370  1
  O  O54  1  0.63993346  0.49675024  0.92216152  1
  O  O55  1  0.85456048  0.35488276  0.92207975  1
  O  O56  1  0.49361824  0.13586820  0.92208959  1
  O  O57  1  0.64313277  0.14147386  0.42271933  1
  O  O58  1  0.50028826  0.36145385  0.42291007  1
  O  O59  1  0.85633900  0.49835383  0.42453076  1
  O  O60  1  0.35909550  0.49906801  0.07831166  1
  O  O61  1  0.14465862  0.64417758  0.07668591  1
  O  O62  1  0.49763517  0.85793886  0.07648630  1
  O  O63  1  0.35747991  0.85783550  0.57578331  1
  O  O64  1  0.50649210  0.64014623  0.57640888  1
  O  O65  1  0.13553968  0.49150996  0.57638180  1
  O  O66  1  0.30897188  0.83358779  0.25580783  1
  O  O67  1  0.52466707  0.69083449  0.25581201  1
  O  O68  1  0.16630058  0.47527833  0.25574351  1
  O  O69  1  0.30816260  0.47109103  0.75675154  1
  O  O70  1  0.16493344  0.69189229  0.75832134  1
  O  O71  1  0.52595169  0.83663597  0.75785008  1
loop_
_geom_bond_atom_site_label_1
_geom_bond_atom_site_label_2
_geom_bond_distance
_geom_bond_site_symmetry_2
Na0 O54 2.527678 1_555
Na0 O55 2.536783 1_555
Na0 O50 2.584988 1_555
Na0 O56 2.601319 1_555
Na0 O49 2.604519 1_555
Na0 O48 2.607527 1_555
Na1 O52 2.524094 1_555
Na1 O53 2.536345 1_555
Na1 O51 2.537392 1_555
Na1 O58 2.615101 1_555
Na1 O57 2.620223 1_555
Na1 O59 2.638574 1_555
Na2 O66 2.560457 1_555
Na2 O68 2.561573 1_555
Na2 O60 2.570396 1_555
Na2 O67 2.572189 1_555
Na2 O62 2.589334 1_555
Na2 O61 2.592927 1_555
O0 P0 1.539346 1_555
O0 Sn0 2.031676 1_555
O1 P1 1.538681 1_555
O1 Sn0 2.047776 1_665
O2 P2 1.538982 1_555
O2 Sn0 2.047824 1_655
O3 P3 1.539301 1_555
O3 Sn1 2.049932 1_455
O4 P4 1.539856 1_655
O4 Sn1 2.053151 1_565
O5 P5 1.535089 1_545
O5 Sn1 2.023136 1_555
O6 P5 1.548742 1_555
O6 Sn2 2.029883 1_655
O7 P3 1.541773 1_555
O7 Sn2 2.004833 1_545
O8 P4 1.542429 1_555
O8 Sn2 2.005573 1_555
O9 P1 1.537134 1_555
O9 Sn3 2.044292 1_565
O10 P2 1.537134 1_455
O10 Sn3 2.044480 1_455
O11 P0 1.536690 1_565
O11 Sn3 2.061020 1_465
O12 S0 1.488825 1_555
O12 Sn4 2.111815 1_555
O13 P6 1.547564 1_555
O13 Sn4 2.008066 1_555
O14 S1 1.487238 1_555
O14 Sn4 2.125893 1_555
O15 P7 1.537892 1_555
O15 Sn5 2.034566 1_555
O16 P8 1.540785 1_555
O16 Sn5 2.030455 1_555
O17 P9 1.538310 1_555
O17 Sn5 2.030843 1_555
O18 P9 1.545638 1_555
O18 Sn6 2.015124 1_554
O19 P7 1.538236 1_555
O19 Sn6 1.990860 1_554
O20 P8 1.545349 1_555
O20 Sn6 2.017690 1_554
O21 P6 1.544468 1_555
O21 Sn7 2.004587 1_555
O22 S1 1.485247 1_555
O22 Sn7 2.133249 1_555
O23 S0 1.482940 1_555
O23 Sn7 2.146671 1_555
O24 P10 1.538481 1_555
O24 Sn8 2.017307 1_556
O25 P11 1.537219 1_555
O25 Sn8 2.025602 1_556
O26 S2 1.478259 1_555
O26 Sn8 2.163605 1_556
O27 P12 1.546319 1_555
O27 Sn9 1.997622 1_555
O28 P13 1.554734 1_555
O28 Sn9 2.020053 1_555
O29 P14 1.545323 1_555
O29 Sn9 1.998270 1_555
O30 P14 1.535050 1_555
O30 Sn10 2.043001 1_555
O31 P12 1.533487 1_555
O31 Sn10 2.043234 1_555
O32 P13 1.535522 1_555
O32 Sn10 2.040175 1_555
O33 P11 1.546471 1_555
O33 Sn11 2.028451 1_555
O34 S2 1.485323 1_555
O34 Sn11 2.144329 1_555
O35 P10 1.545298 1_555
O35 Sn11 2.034309 1_555
O36 P14 1.519918 1_555
O36 Sn0 2.042429 1_565
O37 P12 1.519019 1_555
O37 Sn0 2.025206 1_665
O38 P13 1.520607 1_555
O38 Sn0 2.046042 1_555
O39 P11 1.533598 1_555
O39 Sn1 2.012085 1_455
O40 S2 1.472586 1_555
O40 Sn1 2.125094 1_465
O41 P10 1.534582 1_555
O41 Sn1 2.003565 1_565
O42 S0 1.477131 1_555
O42 Sn2 2.143483 1_645
O43 P6 1.541498 1_555
O43 Sn2 2.014159 1_545
O44 S1 1.478713 1_555
O44 Sn2 2.128733 1_655
O45 P7 1.523771 1_555
O45 Sn3 2.015801 1_565
O46 P8 1.525684 1_555
O46 Sn3 2.032761 1_555
O47 P9 1.524605 1_555
O47 Sn3 2.019340 1_455
O48 P5 1.557035 1_545
O48 Sn4 2.017114 1_555
O49 P3 1.556218 1_555
O49 Sn4 2.018017 1_555
O50 P4 1.563340 1_655
O50 Sn4 2.043236 1_555
O51 P1 1.549348 1_555
O51 Sn5 2.063117 1_555
O52 P2 1.549307 1_555
O52 Sn5 2.065320 1_555
O53 P0 1.549110 1_555
O53 Sn5 2.057841 1_555
O54 P10 1.556359 1_555
O54 Sn6 2.081163 1_555
O55 P11 1.557841 1_655
O55 Sn6 2.064799 1_555
O56 S2 1.487578 1_545
O56 Sn6 2.192450 1_555
O57 P12 1.558763 1_545
O57 Sn7 2.007818 1_555
O58 P13 1.560703 1_555
O58 Sn7 2.007902 1_555
O59 P14 1.563250 1_655
O59 Sn7 2.017420 1_555
O60 P9 1.554432 1_555
O60 Sn8 2.018848 1_555
O61 P7 1.554952 1_455
O61 Sn8 2.032200 1_555
O62 P8 1.558028 1_565
O62 Sn8 2.036033 1_555
O63 P6 1.538562 1_565
O63 Sn9 2.028823 1_555
O64 S1 1.472854 1_555
O64 Sn9 2.160523 1_555
O65 S0 1.474354 1_455
O65 Sn9 2.142435 1_555
O66 P0 1.552013 1_565
O66 Sn10 2.053825 1_555
O67 P1 1.551754 1_555
O67 Sn10 2.045739 1_555
O68 P2 1.551813 1_455
O68 Sn10 2.048751 1_555
O69 P3 1.519881 1_555
O69 Sn11 2.002014 1_555
O70 P4 1.524425 1_555
O70 Sn11 2.028623 1_555
O71 P5 1.524190 1_555
O71 Sn11 2.029667 1_555
