# generated using pymatgen
data_Tl6SI4
_symmetry_space_group_name_H-M   'P 1'
_cell_length_a   9.33454223
_cell_length_b   9.33454223
_cell_length_c   9.83987304
_cell_angle_alpha   90.00000000
_cell_angle_beta   90.00000000
_cell_angle_gamma   90.00000000
_symmetry_Int_Tables_number   1
_chemical_formula_structural   Tl6SI4
_chemical_formula_sum   'Tl12 S2 I8'
_cell_volume   857.38433536
_cell_formula_units_Z   2
loop_
 _symmetry_equiv_pos_site_id
 _symmetry_equiv_pos_as_xyz
  1  'x, y, z'
loop_
 _atom_site_type_symbol
 _atom_site_label
 _atom_site_symmetry_multiplicity
 _atom_site_fract_x
 _atom_site_fract_y
 _atom_site_fract_z
 _atom_site_occupancy
  Tl  Tl0  1  0.69465250  0.89847592  0.50000000  1
  Tl  Tl1  1  0.30534750  0.10152408  0.50000000  1
  Tl  Tl2  1  0.60152408  0.80534750  -0.00000000  1
  Tl  Tl3  1  0.10152408  0.69465250  0.50000000  1
  Tl  Tl4  1  0.89847592  0.30534750  0.50000000  1
  Tl  Tl5  1  0.19465250  0.60152408  -0.00000000  1
  Tl  Tl6  1  0.80534750  0.39847592  -0.00000000  1
  Tl  Tl7  1  0.39847592  0.19465250  -0.00000000  1
  Tl  Tl8  1  -0.00000000  0.00000000  0.79425670  1
  Tl  Tl9  1  0.50000000  0.50000000  0.70574330  1
  Tl  Tl10  1  -0.00000000  0.00000000  0.20574330  1
  Tl  Tl11  1  0.50000000  0.50000000  0.29425670  1
  S  S0  1  -0.00000000  0.00000000  0.50000000  1
  S  S1  1  0.50000000  0.50000000  -0.00000000  1
  I  I0  1  0.16610753  0.33389247  0.75000000  1
  I  I1  1  0.66610753  0.16610753  0.75000000  1
  I  I2  1  0.33389247  0.83389247  0.75000000  1
  I  I3  1  0.83389247  0.66610753  0.75000000  1
  I  I4  1  0.83389247  0.66610753  0.25000000  1
  I  I5  1  0.33389247  0.83389247  0.25000000  1
  I  I6  1  0.66610753  0.16610753  0.25000000  1
  I  I7  1  0.16610753  0.33389247  0.25000000  1
loop_
_geom_bond_atom_site_label_1
_geom_bond_atom_site_label_2
_geom_bond_distance
_geom_bond_site_symmetry_2
S0 Tl8 2.895449 1_555
S0 Tl10 2.895449 1_555
S0 Tl3 3.003696 1_545
S0 Tl1 3.003696 1_555
S0 Tl4 3.003696 1_455
S0 Tl0 3.003696 1_445
S1 Tl11 2.895449 1_555
S1 Tl9 2.895449 1_554
S1 Tl6 3.003696 1_555
S1 Tl2 3.003696 1_555
S1 Tl5 3.003696 1_555
S1 Tl7 3.003696 1_555
I0 Tl8 3.508253 1_555
I0 Tl9 3.508253 1_555
I0 Tl5 3.516182 1_556
I0 Tl4 3.516182 1_455
I0 Tl1 3.527827 1_555
I0 Tl7 3.527827 1_556
I1 Tl8 3.508253 1_655
I1 Tl9 3.508253 1_555
I1 Tl7 3.516182 1_556
I1 Tl0 3.516182 1_545
I1 Tl6 3.527827 1_556
I1 Tl4 3.527827 1_555
I2 Tl8 3.508253 1_565
I2 Tl9 3.508253 1_555
I2 Tl1 3.516182 1_565
I2 Tl2 3.516182 1_556
I2 Tl3 3.527827 1_555
I2 Tl5 3.527827 1_556
I3 Tl8 3.508253 1_665
I3 Tl9 3.508253 1_555
I3 Tl3 3.516182 1_655
I3 Tl6 3.516182 1_556
I3 Tl0 3.527827 1_555
I3 Tl2 3.527827 1_556
I4 Tl11 3.508253 1_555
I4 Tl10 3.508253 1_665
I4 Tl3 3.516182 1_655
I4 Tl6 3.516182 1_555
I4 Tl0 3.527827 1_555
I4 Tl2 3.527827 1_555
I5 Tl11 3.508253 1_555
I5 Tl10 3.508253 1_565
I5 Tl1 3.516182 1_565
I5 Tl2 3.516182 1_555
I5 Tl3 3.527827 1_555
I5 Tl5 3.527827 1_555
I6 Tl11 3.508253 1_555
I6 Tl10 3.508253 1_655
I6 Tl7 3.516182 1_555
I6 Tl0 3.516182 1_545
I6 Tl6 3.527827 1_555
I6 Tl4 3.527827 1_555
I7 Tl10 3.508253 1_555
I7 Tl11 3.508253 1_555
I7 Tl5 3.516182 1_555
I7 Tl4 3.516182 1_455
I7 Tl1 3.527827 1_555
I7 Tl7 3.527827 1_555
