# generated using pymatgen
data_ErNiB4
_symmetry_space_group_name_H-M   'P 1'
_cell_length_a   6.76589031
_cell_length_b   6.76589031
_cell_length_c   6.76589031
_cell_angle_alpha   113.02852780
_cell_angle_beta   113.02852780
_cell_angle_gamma   102.56935257
_symmetry_Int_Tables_number   1
_chemical_formula_structural   ErNiB4
_chemical_formula_sum   'Er4 Ni4 B16'
_cell_volume   235.87428497
_cell_formula_units_Z   4
loop_
 _symmetry_equiv_pos_site_id
 _symmetry_equiv_pos_as_xyz
  1  'x, y, z'
loop_
 _atom_site_type_symbol
 _atom_site_label
 _atom_site_symmetry_multiplicity
 _atom_site_fract_x
 _atom_site_fract_y
 _atom_site_fract_z
 _atom_site_occupancy
  Er  Er0  1  0.25000000  0.75000000  0.50000000  1
  Er  Er1  1  0.75000000  0.25000000  0.50000000  1
  Er  Er2  1  0.79562739  0.79562739  0.00000000  1
  Er  Er3  1  0.20437261  0.20437261  0.00000000  1
  Ni  Ni0  1  0.50000000  0.72792847  0.22792847  1
  Ni  Ni1  1  0.72792847  0.50000000  0.22792847  1
  Ni  Ni2  1  0.27207153  0.50000000  0.77207153  1
  Ni  Ni3  1  0.50000000  0.27207153  0.77207153  1
  B  B0  1  0.11433271  0.11433271  0.53431272  1
  B  B1  1  0.58001999  0.58001999  0.46568728  1
  B  B2  1  0.88566729  0.88566729  0.46568728  1
  B  B3  1  0.58001999  0.11433271  -0.00000000  1
  B  B4  1  0.11433271  0.58001999  0.00000000  1
  B  B5  1  0.88566729  0.41998001  -0.00000000  1
  B  B6  1  0.41998001  0.88566729  0.00000000  1
  B  B7  1  0.41998001  0.41998001  0.53431272  1
  B  B8  1  0.11156881  0.27607346  0.38764227  1
  B  B9  1  0.27607346  0.88843119  0.16450464  1
  B  B10  1  0.72392654  0.11156881  0.83549536  1
  B  B11  1  0.11156881  0.72392654  0.83549536  1
  B  B12  1  0.88843119  0.27607346  0.16450464  1
  B  B13  1  0.88843119  0.72392654  0.61235773  1
  B  B14  1  0.72392654  0.88843119  0.61235773  1
  B  B15  1  0.27607346  0.11156881  0.38764227  1
loop_
_geom_bond_atom_site_label_1
_geom_bond_atom_site_label_2
_geom_bond_distance
_geom_bond_site_symmetry_2
Er0 Ni1 2.933068 1_455
Er0 Ni2 2.933068 1_555
Er0 Ni0 2.933068 1_555
Er0 Ni3 2.933068 1_565
Er1 Ni0 2.933068 1_545
Er1 Ni3 2.933068 1_555
Er1 Ni2 2.933068 1_655
Er1 Ni1 2.933068 1_555
Er2 Ni1 3.025874 1_555
Er2 Ni0 3.025874 1_555
Er2 Ni2 3.025874 1_554
Er2 Ni3 3.025874 1_554
Er3 Ni2 3.025874 1_554
Er3 Ni3 3.025874 1_554
Er3 Ni0 3.025874 1_555
Er3 Ni1 3.025874 1_555
B0 B2 1.684322 1_445
B0 B15 1.739734 1_555
B0 B8 1.739734 1_555
B0 Ni2 2.167084 1_555
B0 Ni3 2.167084 1_555
B0 Er3 2.739471 1_556
B0 Er0 2.770678 1_545
B0 Er1 2.770678 1_455
B0 Er2 2.854271 1_445
B1 B7 1.684322 1_555
B1 B13 1.739734 1_555
B1 B14 1.739734 1_555
B1 Ni1 2.167084 1_555
B1 Ni0 2.167084 1_555
B1 Er3 2.739471 1_555
B1 Er1 2.770678 1_555
B1 Er0 2.770678 1_555
B1 Er2 2.854271 1_556
B2 Ni0 2.167084 1_555
B2 Ni1 2.167084 1_555
B2 Er2 2.739471 1_555
B2 Er1 2.770678 1_565
B2 Er0 2.770678 1_655
B2 Er3 2.854271 1_666
B3 B6 1.684322 1_545
B3 Ni1 2.167084 1_555
B3 Ni3 2.167084 1_554
B3 Er3 2.739471 1_555
B3 Er0 2.770678 1_544
B3 Er1 2.770678 1_555
B3 Er2 2.854271 1_545
B4 B5 1.684322 1_455
B4 B9 1.739734 1_555
B4 Ni0 2.167084 1_555
B4 Ni2 2.167084 1_554
B4 Er3 2.739471 1_555
B4 Er1 2.770678 1_454
B4 Er0 2.770678 1_555
B4 Er2 2.854271 1_455
B5 Ni1 2.167084 1_555
B5 Ni3 2.167084 1_554
B5 Er2 2.739471 1_555
B5 Er1 2.770678 1_554
B5 Er0 2.770678 1_655
B5 Er3 2.854271 1_655
B6 B9 1.739734 1_555
B6 Ni0 2.167084 1_555
B6 Ni2 2.167084 1_554
B6 Er2 2.739471 1_555
B6 Er1 2.770678 1_565
B6 Er0 2.770678 1_554
B6 Er3 2.854271 1_565
B7 B8 1.739734 1_555
B7 Ni2 2.167084 1_555
B7 Ni3 2.167084 1_555
B7 Er2 2.739471 1_556
B7 Er1 2.770678 1_555
B7 Er0 2.770678 1_555
B7 Er3 2.854271 1_555
B8 Ni2 2.056904 1_555
B8 Er2 2.816727 1_445
B8 Er3 2.816727 1_555
B8 Er1 2.822350 1_455
B8 Er0 2.822350 1_555
B9 Ni0 2.056904 1_555
B9 Er3 2.816727 1_565
B9 Er2 2.816727 1_455
B9 Er1 2.822350 1_565
B9 Er0 2.822351 1_555
B10 B14 1.665919 1_545
B10 B12 1.736898 1_556
B10 B3 1.739734 1_556
B10 B5 1.739734 1_556
B10 Ni3 2.056904 1_555
B10 Er2 2.816727 1_546
B10 Er3 2.816727 1_656
B10 Er0 2.822350 1_545
B10 Er1 2.822351 1_555
B11 B13 1.665919 1_455
B11 B9 1.736898 1_556
B11 B4 1.739734 1_556
B11 B6 1.739734 1_556
B11 Ni2 2.056904 1_555
B11 Er2 2.816727 1_456
B11 Er3 2.816727 1_566
B11 Er1 2.822350 1_455
B11 Er0 2.822351 1_555
B12 B8 1.665919 1_655
B12 B5 1.739734 1_555
B12 B3 1.739734 1_555
B12 Ni1 2.056904 1_555
B12 Er3 2.816727 1_655
B12 Er2 2.816727 1_545
B12 Er0 2.822350 1_655
B12 Er1 2.822351 1_555
B13 B14 1.736898 1_555
B13 B2 1.739734 1_555
B13 Ni1 2.056904 1_555
B13 Er2 2.816727 1_556
B13 Er3 2.816727 1_666
B13 Er1 2.822350 1_555
B13 Er0 2.822350 1_655
B14 B2 1.739734 1_555
B14 Ni0 2.056904 1_555
B14 Er2 2.816727 1_556
B14 Er3 2.816727 1_666
B14 Er0 2.822350 1_555
B14 Er1 2.822350 1_565
B15 B9 1.665919 1_545
B15 B8 1.736898 1_555
B15 B7 1.739734 1_555
B15 Ni3 2.056904 1_555
B15 Er2 2.816727 1_445
B15 Er3 2.816727 1_555
B15 Er0 2.822350 1_545
B15 Er1 2.822350 1_555
