# generated using pymatgen
data_Na4InGaSi(PO6)2
_symmetry_space_group_name_H-M   'P 1'
_cell_length_a   9.07898569
_cell_length_b   9.07287628
_cell_length_c   22.14186610
_cell_angle_alpha   89.99993662
_cell_angle_beta   89.83473693
_cell_angle_gamma   120.03794855
_symmetry_Int_Tables_number   1
_chemical_formula_structural   Na4InGaSi(PO6)2
_chemical_formula_sum   'Na24 In6 Ga6 Si6 P12 O72'
_cell_volume   1578.91431282
_cell_formula_units_Z   6
loop_
 _symmetry_equiv_pos_site_id
 _symmetry_equiv_pos_as_xyz
  1  'x, y, z'
loop_
 _atom_site_type_symbol
 _atom_site_label
 _atom_site_symmetry_multiplicity
 _atom_site_fract_x
 _atom_site_fract_y
 _atom_site_fract_z
 _atom_site_occupancy
  Na  Na0  1  0.63386781  0.00053971  0.25317584  1
  Na  Na1  1  0.36507332  0.36840202  0.25021387  1
  Na  Na2  1  0.00128972  0.62474586  0.25034493  1
  Na  Na3  1  0.63556931  0.63602946  0.74615606  1
  Na  Na4  1  0.99409839  0.36127028  0.74960841  1
  Na  Na5  1  0.37638515  0.00399536  0.74837189  1
  Na  Na6  1  0.29760530  0.32948194  0.58263913  1
  Na  Na7  1  0.04058946  0.70854195  0.58174425  1
  Na  Na8  1  0.66498765  0.96425283  0.58717644  1
  Na  Na9  1  0.29581110  0.96446522  0.08244597  1
  Na  Na10  1  0.67393606  0.69920251  0.08369607  1
  Na  Na11  1  0.03122806  0.33598056  0.08891118  1
  Na  Na12  1  0.97297588  0.67323105  0.92065862  1
  Na  Na13  1  0.69422336  0.03345593  0.91220960  1
  Na  Na14  1  0.33328049  0.29635056  0.91658510  1
  Na  Na15  1  0.96469242  0.30037077  0.41282658  1
  Na  Na16  1  0.32905043  0.03021093  0.41947897  1
  Na  Na17  1  0.70226192  0.66745576  0.41627666  1
  Na  Na18  1  0.00332042  0.99657935  0.49938962  1
  Na  Na19  1  0.00358047  0.99569313  0.00160741  1
  Na  Na20  1  0.66314762  0.32439604  0.83174911  1
  Na  Na21  1  0.67337115  0.33478344  0.33588532  1
  Na  Na22  1  0.32542096  0.66273459  0.16864072  1
  Na  Na23  1  0.33789651  0.67472953  0.66544288  1
  In  In0  1  0.99878556  0.99980768  0.84569970  1
  In  In1  1  0.67218065  0.33362333  0.18586359  1
  In  In2  1  0.66965059  0.33679409  0.98690072  1
  In  In3  1  0.32886174  0.67035371  0.01623680  1
  In  In4  1  0.32895686  0.67267712  0.51518145  1
  In  In5  1  0.33933101  0.67616589  0.81408629  1
  Ga  Ga0  1  0.99861047  0.99561900  0.34921114  1
  Ga  Ga1  1  0.00459658  0.00019656  0.64859374  1
  Ga  Ga2  1  0.00128444  0.99966870  0.15283858  1
  Ga  Ga3  1  0.66573226  0.32516610  0.68162311  1
  Ga  Ga4  1  0.66687553  0.33556852  0.48424096  1
  Ga  Ga5  1  0.31895090  0.65484469  0.31769562  1
  Si  Si0  1  0.00552661  0.28872761  0.25234304  1
  Si  Si1  1  0.70992216  0.00674059  0.74522613  1
  Si  Si2  1  0.37366481  0.04647236  0.58377658  1
  Si  Si3  1  0.96887453  0.64250181  0.08666598  1
  Si  Si4  1  0.33408943  0.97260529  0.91593572  1
  Si  Si5  1  0.02916833  0.66701471  0.41567339  1
  P  P0  1  0.28757784  0.99534439  0.25155192  1
  P  P1  1  0.70504628  0.71233215  0.25196438  1
  P  P2  1  0.30006083  0.29599906  0.74630056  1
  P  P3  1  0.99270879  0.69855126  0.74558257  1
  P  P4  1  0.95382029  0.32932894  0.58347340  1
  P  P5  1  0.67058803  0.62177113  0.58422067  1
  P  P6  1  0.67230899  0.03160570  0.08555898  1
  P  P7  1  0.36208928  0.32851141  0.08570202  1
  P  P8  1  0.63141493  0.66495692  0.91629228  1
  P  P9  1  0.03561844  0.36730273  0.91589857  1
  P  P10  1  0.62891783  0.96030158  0.41424509  1
  P  P11  1  0.33370012  0.37054763  0.41544291  1
  O  O0  1  0.20525357  0.02456597  0.30797278  1
  O  O1  1  0.81992070  0.79248105  0.30759767  1
  O  O2  1  0.97496382  0.16845321  0.31125667  1
  O  O3  1  0.23096693  0.19049030  0.80508656  1
  O  O4  1  0.96072324  0.76846487  0.80497091  1
  O  O5  1  0.81734866  0.04400451  0.80806839  1
  O  O6  1  0.80714603  0.97329821  0.68865288  1
  O  O7  1  0.18166595  0.20637121  0.69179343  1
  O  O8  1  0.02862404  0.82112482  0.69169811  1
  O  O9  1  0.78707358  0.82012209  0.19424370  1
  O  O10  1  0.03571523  0.20310776  0.19153167  1
  O  O11  1  0.17857477  0.96512463  0.19413269  1
  O  O12  1  0.87494408  0.36385633  0.63987359  1
  O  O13  1  0.49217740  0.13150384  0.64316012  1
  O  O14  1  0.64450636  0.51090671  0.64060194  1
  O  O15  1  0.88726387  0.51893498  0.14517752  1
  O  O16  1  0.62987797  0.10788583  0.14092305  1
  O  O17  1  0.47513189  0.35985994  0.14186347  1
  O  O18  1  0.43928249  0.29554609  0.02817753  1
  O  O19  1  0.85202111  0.56728471  0.02558059  1
  O  O20  1  0.70347544  0.14091817  0.02793297  1
  O  O21  1  0.46053853  0.16579363  0.52317531  1
  O  O22  1  0.69918022  0.54186936  0.52631617  1
  O  O23  1  0.84426352  0.30246835  0.52620551  1
  O  O24  1  0.54921792  0.68961882  0.97389901  1
  O  O25  1  0.14515397  0.44503965  0.97307520  1
  O  O26  1  0.29593977  0.85668248  0.97657869  1
  O  O27  1  0.56071339  0.85158483  0.47282220  1
  O  O28  1  0.29898482  0.44470061  0.47353218  1
  O  O29  1  0.14678428  0.71647633  0.47632043  1
  O  O30  1  0.11801943  0.62521771  0.35793991  1
  O  O31  1  0.50846488  0.87018473  0.35972690  1
  O  O32  1  0.36755237  0.49099000  0.36037717  1
  O  O33  1  0.11838258  0.47544592  0.85839732  1
  O  O34  1  0.37135013  0.89340433  0.85522435  1
  O  O35  1  0.52081680  0.63315618  0.85927458  1
  O  O36  1  0.00909162  0.83738315  0.40670699  1
  O  O37  1  0.81015528  0.98333177  0.40819833  1
  O  O38  1  0.17374175  0.19071433  0.40934961  1
  O  O39  1  0.01390598  0.18749319  0.91289932  1
  O  O40  1  0.16167500  0.98797100  0.91215293  1
  O  O41  1  0.80759463  0.82879995  0.91264685  1
  O  O42  1  0.96992625  0.16626395  0.58796681  1
  O  O43  1  0.18113202  0.02621945  0.58940834  1
  O  O44  1  0.83178983  0.80302445  0.58799338  1
  O  O45  1  0.98500437  0.83146642  0.09349735  1
  O  O46  1  0.83667166  0.02138214  0.09216988  1
  O  O47  1  0.18344957  0.16792195  0.09087029  1
  O  O48  1  0.69016661  0.17794474  0.74104860  1
  O  O49  1  0.48217184  0.32256675  0.74044325  1
  O  O50  1  0.83009386  0.52131988  0.73877482  1
  O  O51  1  0.67952870  0.52916679  0.24884522  1
  O  O52  1  0.83322740  0.30717819  0.25134116  1
  O  O53  1  0.46656050  0.15944101  0.24755737  1
  O  O54  1  0.65233616  0.50625670  0.91942189  1
  O  O55  1  0.85961432  0.35555599  0.92007069  1
  O  O56  1  0.50618807  0.16069113  0.92048810  1
  O  O57  1  0.64261476  0.13862469  0.41988825  1
  O  O58  1  0.49697524  0.35510631  0.41992024  1
  O  O59  1  0.84066554  0.49181405  0.42327075  1
  O  O60  1  0.34762868  0.49142671  0.08066790  1
  O  O61  1  0.15688532  0.65811172  0.08342018  1
  O  O62  1  0.51695056  0.84955600  0.08067478  1
  O  O63  1  0.35614616  0.85632824  0.58203927  1
  O  O64  1  0.50723628  0.63759241  0.58047937  1
  O  O65  1  0.13650199  0.48789078  0.57996016  1
  O  O66  1  0.31073458  0.83614943  0.25660947  1
  O  O67  1  0.52706524  0.69902303  0.25763586  1
  O  O68  1  0.17883228  0.48056987  0.25600728  1
  O  O69  1  0.31027867  0.47232230  0.75013501  1
  O  O70  1  0.15161625  0.67630241  0.74884823  1
  O  O71  1  0.52124622  0.83215151  0.74617032  1
loop_
_geom_bond_atom_site_label_1
_geom_bond_atom_site_label_2
_geom_bond_distance
_geom_bond_site_symmetry_2
Na0 O67 2.403624 1_545
Na0 O52 2.444584 1_555
Na0 O66 2.540694 1_545
Na0 O53 2.568026 1_555
Na0 O31 2.626300 1_545
Na0 O16 2.676442 1_555
Na1 O68 2.373335 1_555
Na1 O51 2.471762 1_555
Na1 O53 2.489045 1_555
Na1 O67 2.602454 1_555
Na1 O17 2.612228 1_555
Na1 O32 2.676306 1_555
Na1 O10 2.900293 1_555
Na1 O0 2.988366 1_555
Na2 O66 2.489687 1_555
Na2 O52 2.495741 1_455
Na2 O15 2.536663 1_455
Na2 O68 2.537157 1_555
Na2 O51 2.598323 1_455
Na2 O30 2.609368 1_555
Na3 O50 2.463211 1_555
Na3 O49 2.465689 1_555
Na3 O71 2.468311 1_555
Na3 O69 2.557896 1_555
Na3 O14 2.617018 1_555
Na3 O35 2.705024 1_555
Na3 O4 2.885373 1_555
Na3 O6 2.937286 1_555
Na4 O48 2.413459 1_555
Na4 O70 2.474397 1_655
Na4 O69 2.521946 1_655
Na4 O50 2.559296 1_555
Na4 O33 2.644626 1_655
Na4 O12 2.667400 1_555
Na4 O5 2.810688 1_555
Na4 O7 2.982818 1_655
Na5 O48 2.475672 1_555
Na5 O71 2.493085 1_545
Na5 O49 2.554852 1_555
Na5 O34 2.561221 1_545
Na5 O13 2.576582 1_555
Na5 O70 2.632421 1_545
Na5 O3 2.899993 1_555
Na5 O8 3.012392 1_545
Na6 O43 2.407784 1_555
Na6 O64 2.472266 1_555
Na6 O65 2.512680 1_555
Na6 O42 2.577755 1_455
Na6 O28 2.629810 1_555
Na6 O7 2.646725 1_555
Na6 O21 2.883670 1_555
Na7 O44 2.443974 1_455
Na7 O63 2.481940 1_555
Na7 O43 2.506715 1_565
Na7 O29 2.510208 1_555
Na7 O65 2.551993 1_555
Na7 O8 2.663068 1_555
Na8 O42 2.438145 1_565
Na8 O63 2.467197 1_555
Na8 O64 2.570733 1_555
Na8 O6 2.575203 1_555
Na8 O44 2.579046 1_555
Na8 O27 2.719793 1_555
Na8 O13 2.945012 1_565
Na8 O23 2.979094 1_565
Na9 O61 2.409778 1_555
Na9 O45 2.462855 1_455
Na9 O47 2.523311 1_565
Na9 O26 2.540123 1_554
Na9 O62 2.685986 1_555
Na9 O11 2.690658 1_555
Na9 O18 2.870093 1_565
Na9 O16 2.939424 1_565
Na10 O62 2.417392 1_555
Na10 O45 2.464495 1_555
Na10 O46 2.537808 1_565
Na10 O60 2.597079 1_555
Na10 O24 2.667829 1_554
Na10 O9 2.671403 1_555
Na10 O19 2.761853 1_555
Na10 O17 2.969648 1_555
Na11 O60 2.493025 1_555
Na11 O46 2.494811 1_455
Na11 O47 2.519289 1_555
Na11 O61 2.553294 1_555
Na11 O10 2.582172 1_555
Na11 O25 2.754506 1_554
Na11 O15 2.859815 1_455
Na11 O20 2.925836 1_455
Na12 O40 2.495049 1_655
Na12 O54 2.521009 1_555
Na12 O55 2.529216 1_555
Na12 O41 2.530104 1_555
Na12 O19 2.540768 1_556
Na12 O4 2.723658 1_555
Na12 O26 2.834792 1_655
Na13 O56 2.500367 1_555
Na13 O39 2.513291 1_655
Na13 O41 2.533927 1_545
Na13 O55 2.536455 1_555
Na13 O5 2.540445 1_555
Na13 O20 2.728087 1_556
Na13 O34 2.844608 1_545
Na14 O40 2.429394 1_545
Na14 O56 2.433498 1_555
Na14 O54 2.549482 1_555
Na14 O39 2.554225 1_555
Na14 O3 2.645805 1_555
Na14 O18 2.655592 1_556
Na14 O25 2.931915 1_555
Na14 O35 2.936967 1_555
Na15 O37 2.492677 1_545
Na15 O59 2.508986 1_555
Na15 O57 2.535716 1_555
Na15 O38 2.547074 1_655
Na15 O2 2.570895 1_555
Na15 O23 2.739167 1_555
Na15 O30 2.825604 1_655
Na15 O28 2.962691 1_655
Na16 O38 2.493322 1_555
Na16 O57 2.503765 1_555
Na16 O36 2.548718 1_545
Na16 O58 2.552344 1_555
Na16 O21 2.599174 1_555
Na16 O0 2.705551 1_555
Na16 O29 2.774351 1_545
Na16 O31 2.977750 1_545
Na17 O36 2.424631 1_655
Na17 O59 2.479570 1_555
Na17 O58 2.494499 1_555
Na17 O37 2.528513 1_555
Na17 O1 2.643940 1_555
Na17 O22 2.683878 1_555
Na17 O27 2.854821 1_555
Na17 O32 2.912142 1_555
Na18 O43 2.497028 1_565
Na18 O36 2.524972 1_555
Na18 O44 2.569518 1_455
Na18 O38 2.593230 1_565
Na18 O42 2.602402 1_465
Na18 O37 2.641289 1_455
Na19 O40 2.464247 1_554
Na19 O45 2.476824 1_455
Na19 O47 2.545346 1_565
Na19 O41 2.581020 1_454
Na19 O46 2.589909 1_465
Na19 O39 2.594331 1_564
Na20 O56 2.441768 1_555
Na20 O48 2.486438 1_555
Na20 O55 2.569287 1_555
Na20 O54 2.581006 1_555
Na20 O49 2.603658 1_555
Na20 O50 2.645429 1_555
Na21 O59 2.435373 1_555
Na21 O52 2.453894 1_555
Na21 O57 2.490860 1_555
Na21 O58 2.517816 1_555
Na21 O51 2.593906 1_555
Na21 O53 2.629067 1_555
Na22 O61 2.419921 1_555
Na22 O68 2.455193 1_555
Na22 O66 2.548668 1_555
Na22 O60 2.561656 1_555
Na22 O62 2.592314 1_555
Na22 O67 2.600052 1_555
Na23 O71 2.375468 1_555
Na23 O63 2.424331 1_555
Na23 O70 2.505417 1_555
Na23 O69 2.547177 1_555
Na23 O64 2.553090 1_555
Na23 O65 2.591566 1_555
In0 O5 2.058580 1_565
In0 O40 2.129592 1_655
In0 O3 2.140850 1_665
In0 O4 2.147997 1_555
In0 O39 2.213506 1_665
In0 O41 2.215067 1_555
In1 O15 2.038252 1_555
In1 O16 2.132379 1_555
In1 O17 2.154704 1_555
In1 O52 2.158884 1_555
In1 O53 2.209112 1_555
In1 O51 2.231321 1_555
In2 O19 2.095197 1_556
In2 O18 2.134271 1_556
In2 O56 2.134564 1_555
In2 O20 2.150817 1_556
In2 O54 2.205524 1_555
In2 O55 2.210087 1_555
In3 O26 2.055654 1_554
In3 O25 2.114195 1_554
In3 O61 2.115667 1_555
In3 O24 2.133278 1_554
In3 O62 2.197658 1_555
In3 O60 2.231137 1_555
In4 O29 2.073653 1_555
In4 O27 2.123926 1_555
In4 O63 2.149206 1_555
In4 O28 2.154237 1_555
In4 O65 2.230219 1_555
In4 O64 2.311037 1_555
In5 O34 2.055933 1_555
In5 O35 2.126390 1_555
In5 O33 2.152758 1_555
In5 O71 2.153519 1_555
In5 O70 2.237717 1_555
In5 O69 2.238050 1_555
Ga0 O2 1.883974 1_565
Ga0 O36 1.956609 1_655
Ga0 O1 1.973045 1_555
Ga0 O0 1.979730 1_665
Ga0 O37 2.107581 1_555
Ga0 O38 2.151502 1_665
Ga1 O6 1.900719 1_445
Ga1 O43 1.987705 1_555
Ga1 O8 1.988504 1_545
Ga1 O7 1.999178 1_555
Ga1 O42 2.156042 1_455
Ga1 O44 2.159728 1_445
Ga2 O10 1.913769 1_565
Ga2 O45 1.962770 1_455
Ga2 O11 2.009635 1_555
Ga2 O9 2.023469 1_455
Ga2 O46 2.093619 1_465
Ga2 O47 2.099422 1_565
Ga3 O13 1.879198 1_555
Ga3 O48 1.965453 1_555
Ga3 O12 1.976852 1_555
Ga3 O14 2.007027 1_555
Ga3 O50 2.085073 1_555
Ga3 O49 2.102918 1_555
Ga4 O21 1.930546 1_555
Ga4 O22 1.977206 1_555
Ga4 O23 2.010004 1_555
Ga4 O59 2.017434 1_555
Ga4 O58 2.173823 1_555
Ga4 O57 2.208944 1_555
Ga5 O30 1.921948 1_555
Ga5 O32 1.989230 1_555
Ga5 O68 1.995085 1_555
Ga5 O31 2.070623 1_555
Ga5 O66 2.159697 1_555
Ga5 O67 2.174051 1_555
O0 P0 1.543563 1_545
O1 P1 1.543389 1_555
O2 Si0 1.632227 1_655
O3 P2 1.548618 1_555
O4 P3 1.548562 1_555
O5 Si1 1.636882 1_555
O6 Si1 1.643797 1_565
O7 P2 1.551019 1_555
O8 P3 1.549608 1_455
O9 P1 1.552347 1_555
O10 Si0 1.643958 1_555
O11 P0 1.551304 1_555
O12 P4 1.545931 1_555
O13 Si2 1.630608 1_555
O14 P5 1.544710 1_555
O15 Si3 1.627012 1_555
O16 P6 1.547357 1_555
O17 P7 1.547797 1_555
O18 P7 1.551658 1_555
O19 Si3 1.644406 1_555
O20 P6 1.551996 1_555
O21 Si2 1.653368 1_555
O22 P5 1.556670 1_555
O23 P4 1.556025 1_555
O24 P8 1.547776 1_555
O25 P9 1.547330 1_555
O26 Si4 1.631482 1_555
O27 P10 1.556430 1_555
O28 P11 1.554429 1_555
O29 Si5 1.635051 1_555
O30 Si5 1.651959 1_555
O31 P10 1.560149 1_555
O32 P11 1.561016 1_555
O33 P9 1.550705 1_555
O34 Si4 1.636639 1_555
O35 P8 1.550039 1_555
O36 Si5 1.656565 1_555
O37 P10 1.556797 1_555
O38 P11 1.555087 1_555
O39 P9 1.543638 1_555
O40 Si4 1.641950 1_555
O41 P8 1.547114 1_555
O42 P4 1.561018 1_555
O43 Si2 1.667933 1_555
O44 P5 1.563474 1_555
O45 Si3 1.653011 1_555
O46 P6 1.548116 1_555
O47 P7 1.549053 1_555
O48 Si1 1.653036 1_555
O49 P2 1.551891 1_555
O50 P3 1.553261 1_555
O51 P1 1.560382 1_555
O52 Si0 1.654666 1_655
O53 P0 1.562714 1_545
O54 P8 1.545310 1_555
O55 P9 1.549823 1_655
O56 Si4 1.641673 1_545
O57 P10 1.564402 1_545
O58 P11 1.560655 1_555
O59 Si5 1.660958 1_655
O60 P7 1.552042 1_555
O61 Si3 1.641998 1_455
O62 P6 1.548492 1_565
O63 Si2 1.651746 1_565
O64 P5 1.562305 1_555
O65 P4 1.561083 1_455
O66 P0 1.564305 1_555
O67 P1 1.563626 1_555
O68 Si0 1.664565 1_555
O69 P2 1.557727 1_555
O70 P3 1.555499 1_455
O71 Si1 1.651412 1_565
