# generated using pymatgen
data_Mg2Nb10Si9(SO8)9
_symmetry_space_group_name_H-M   'P 1'
_cell_length_a   8.87204530
_cell_length_b   8.88967389
_cell_length_c   22.89077456
_cell_angle_alpha   90.21766627
_cell_angle_beta   89.90114733
_cell_angle_gamma   119.80382689
_symmetry_Int_Tables_number   1
_chemical_formula_structural   Mg2Nb10Si9(SO8)9
_chemical_formula_sum   'Mg2 Nb10 Si9 S9 O72'
_cell_volume   1566.58033059
_cell_formula_units_Z   1
loop_
 _symmetry_equiv_pos_site_id
 _symmetry_equiv_pos_as_xyz
  1  'x, y, z'
loop_
 _atom_site_type_symbol
 _atom_site_label
 _atom_site_symmetry_multiplicity
 _atom_site_fract_x
 _atom_site_fract_y
 _atom_site_fract_z
 _atom_site_occupancy
  Mg  Mg0  1  0.68048574  0.34172260  0.69041022  1
  Mg  Mg1  1  0.66233630  0.33598813  0.18690824  1
  Nb  Nb0  1  0.99988797  0.00020790  0.36091549  1
  Nb  Nb1  1  0.99757239  0.98730726  0.85927625  1
  Nb  Nb2  1  0.00235150  0.00013660  0.64564555  1
  Nb  Nb3  1  0.00491495  0.00441238  0.14010828  1
  Nb  Nb4  1  0.65170028  0.32980438  0.97142476  1
  Nb  Nb5  1  0.67793349  0.32972109  0.47529062  1
  Nb  Nb6  1  0.33298538  0.65525530  0.01767254  1
  Nb  Nb7  1  0.32555776  0.65888500  0.52273346  1
  Nb  Nb8  1  0.33483832  0.66580997  0.31474425  1
  Nb  Nb9  1  0.32321894  0.66617558  0.81113349  1
  Si  Si0  1  0.99204249  0.70425337  0.74893446  1
  Si  Si1  1  0.95076252  0.33086402  0.58718654  1
  Si  Si2  1  0.39174518  0.34306299  0.08591387  1
  Si  Si3  1  0.61621259  0.66820074  0.91379861  1
  Si  Si4  1  0.04299709  0.37627068  0.91503016  1
  Si  Si5  1  0.33078309  0.94570903  0.91722006  1
  Si  Si6  1  0.61408264  0.94844807  0.41837169  1
  Si  Si7  1  0.33951138  0.38302522  0.41769799  1
  Si  Si8  1  0.04888448  0.66537851  0.41738780  1
  S  S0  1  0.28812742  0.00112139  0.24945263  1
  S  S1  1  0.71456541  0.71215192  0.24962838  1
  S  S2  1  0.99694902  0.28615080  0.24920978  1
  S  S3  1  0.28958488  0.28621451  0.74999329  1
  S  S4  1  0.71228529  0.00087179  0.75034875  1
  S  S5  1  0.38197869  0.04803185  0.58464494  1
  S  S6  1  0.66601806  0.61935339  0.58446322  1
  S  S7  1  0.95381080  0.61673868  0.08508220  1
  S  S8  1  0.66289011  0.04630788  0.08498018  1
  O  O0  1  0.20068504  0.02482064  0.30140144  1
  O  O1  1  0.82333317  0.80077038  0.30211805  1
  O  O2  1  0.97449124  0.17730347  0.30116781  1
  O  O3  1  0.20356673  0.17920652  0.80159925  1
  O  O4  1  0.98239939  0.81876444  0.80519825  1
  O  O5  1  0.82320622  0.02814001  0.80208567  1
  O  O6  1  0.79995136  0.97246231  0.69725855  1
  O  O7  1  0.17251231  0.20398129  0.69643197  1
  O  O8  1  0.03062812  0.84259408  0.69353843  1
  O  O9  1  0.79656902  0.82550415  0.19770018  1
  O  O10  1  0.02706048  0.19973913  0.19675586  1
  O  O11  1  0.17197167  0.97093261  0.19714254  1
  O  O12  1  0.86493958  0.36581184  0.64059341  1
  O  O13  1  0.48424294  0.12426899  0.63651844  1
  O  O14  1  0.63167855  0.51351952  0.63580660  1
  O  O15  1  0.87902696  0.51585775  0.13740753  1
  O  O16  1  0.64276989  0.12523047  0.13756456  1
  O  O17  1  0.49600978  0.36427009  0.14295947  1
  O  O18  1  0.47244570  0.30296222  0.02697162  1
  O  O19  1  0.84715304  0.54775074  0.03248319  1
  O  O20  1  0.70324044  0.15355949  0.03233494  1
  O  O21  1  0.45702874  0.15420857  0.53093607  1
  O  O22  1  0.69617123  0.54299687  0.53085827  1
  O  O23  1  0.83322650  0.30518121  0.52616131  1
  O  O24  1  0.53039984  0.69780897  0.97363448  1
  O  O25  1  0.16728319  0.46962985  0.97288287  1
  O  O26  1  0.30231243  0.83159058  0.97556311  1
  O  O27  1  0.53007733  0.82869120  0.47403658  1
  O  O28  1  0.29938433  0.47127221  0.47288437  1
  O  O29  1  0.17217924  0.70302609  0.47330952  1
  O  O30  1  0.13961653  0.63623283  0.35856752  1
  O  O31  1  0.49665895  0.85886174  0.35861730  1
  O  O32  1  0.36321542  0.50241567  0.35888623  1
  O  O33  1  0.13663360  0.50461541  0.85955706  1
  O  O34  1  0.36693460  0.86120750  0.85962254  1
  O  O35  1  0.49512146  0.63278688  0.85799264  1
  O  O36  1  0.02686262  0.83441251  0.40287305  1
  O  O37  1  0.80731833  0.97538331  0.40265249  1
  O  O38  1  0.16699046  0.19429207  0.40223419  1
  O  O39  1  0.02531653  0.19064915  0.90271573  1
  O  O40  1  0.16892035  0.97884335  0.90679790  1
  O  O41  1  0.80745889  0.83708055  0.90720177  1
  O  O42  1  0.98023988  0.16178395  0.59476451  1
  O  O43  1  0.20239091  0.02619623  0.59109607  1
  O  O44  1  0.82227297  0.79782306  0.59192456  1
  O  O45  1  0.97267763  0.79916696  0.09511150  1
  O  O46  1  0.82400153  0.02247202  0.09481180  1
  O  O47  1  0.18678356  0.16436042  0.09638566  1
  O  O48  1  0.68918727  0.14871773  0.74134234  1
  O  O49  1  0.45670403  0.30080807  0.73931199  1
  O  O50  1  0.82570160  0.52471697  0.74330086  1
  O  O51  1  0.69784700  0.54271587  0.24300245  1
  O  O52  1  0.84612637  0.30548410  0.24024660  1
  O  O53  1  0.45888937  0.15030661  0.24192350  1
  O  O54  1  0.64406041  0.50282903  0.92767531  1
  O  O55  1  0.85808852  0.36007864  0.93255471  1
  O  O56  1  0.50302711  0.13739866  0.92657764  1
  O  O57  1  0.63655264  0.13992480  0.42592793  1
  O  O58  1  0.50249876  0.35751656  0.42980945  1
  O  O59  1  0.85646477  0.50166755  0.42681991  1
  O  O60  1  0.34978724  0.49951533  0.07273221  1
  O  O61  1  0.13209172  0.64973634  0.07638107  1
  O  O62  1  0.51513667  0.87071567  0.07634649  1
  O  O63  1  0.35832980  0.87176272  0.57441426  1
  O  O64  1  0.51470728  0.64658790  0.57381845  1
  O  O65  1  0.14575906  0.49843023  0.57095839  1
  O  O66  1  0.29915841  0.84016214  0.25683599  1
  O  O67  1  0.54010219  0.69804871  0.25777867  1
  O  O68  1  0.15712154  0.45785287  0.25672343  1
  O  O69  1  0.30192321  0.45825547  0.75662478  1
  O  O70  1  0.17519160  0.69993844  0.75947976  1
  O  O71  1  0.54317059  0.83880928  0.75668926  1
loop_
_geom_bond_atom_site_label_1
_geom_bond_atom_site_label_2
_geom_bond_distance
_geom_bond_site_symmetry_2
Mg0 O12 1.916083 1_555
Mg0 O50 1.918083 1_555
Mg0 O48 2.110972 1_555
Mg0 O49 2.145868 1_555
Mg0 O14 2.180817 1_555
Mg0 O13 2.221177 1_555
Mg1 O17 1.904915 1_555
Mg1 O16 2.116006 1_555
Mg1 O15 2.118282 1_555
Mg1 O51 2.129139 1_555
Mg1 O53 2.148210 1_555
Mg1 O52 2.161489 1_555
Nb0 O37 1.871250 1_545
Nb0 O36 1.874616 1_645
Nb0 O38 1.875911 1_655
Nb0 O1 2.153349 1_545
Nb0 O0 2.164229 1_655
Nb0 O2 2.183993 1_555
Nb1 O4 1.892445 1_555
Nb1 O41 1.896715 1_555
Nb1 O40 1.902642 1_655
Nb1 O39 1.965147 1_665
Nb1 O5 2.192616 1_565
Nb1 O3 2.214259 1_665
Nb2 O8 1.894228 1_545
Nb2 O42 1.937448 1_455
Nb2 O7 2.045717 1_555
Nb2 O6 2.058316 1_445
Nb2 O43 2.085302 1_555
Nb2 O44 2.105462 1_445
Nb3 O47 1.830727 1_555
Nb3 O45 1.984881 1_445
Nb3 O46 1.985018 1_455
Nb3 O10 2.092784 1_555
Nb3 O11 2.106636 1_545
Nb3 O9 2.183889 1_445
Nb4 O56 1.862229 1_555
Nb4 O54 1.867871 1_555
Nb4 O55 1.929589 1_555
Nb4 O18 1.954738 1_556
Nb4 O20 2.310589 1_556
Nb4 O19 2.315665 1_556
Nb5 O23 1.899490 1_555
Nb5 O57 1.905124 1_555
Nb5 O59 1.917407 1_555
Nb5 O58 1.989316 1_555
Nb5 O21 2.205611 1_555
Nb5 O22 2.217250 1_555
Nb6 O25 1.875167 1_554
Nb6 O24 1.888153 1_554
Nb6 O60 1.935604 1_555
Nb6 O26 1.974053 1_554
Nb6 O61 2.211440 1_555
Nb6 O62 2.234984 1_555
Nb7 O65 1.881979 1_555
Nb7 O28 1.933669 1_555
Nb7 O29 1.955798 1_555
Nb7 O27 2.024029 1_555
Nb7 O64 2.094196 1_555
Nb7 O63 2.121910 1_555
Nb8 O31 1.886171 1_555
Nb8 O32 1.889379 1_555
Nb8 O30 1.902270 1_555
Nb8 O67 2.138875 1_555
Nb8 O68 2.181425 1_555
Nb8 O66 2.182752 1_555
Nb9 O70 1.900737 1_555
Nb9 O33 1.916791 1_555
Nb9 O34 1.925304 1_555
Nb9 O35 2.005674 1_555
Nb9 O69 2.155245 1_555
Nb9 O71 2.178431 1_555
O0 S0 1.489194 1_555
O1 S1 1.495529 1_555
O2 S2 1.485542 1_555
O3 S3 1.471923 1_555
O4 Si0 1.666898 1_555
O5 S4 1.481375 1_555
O6 S4 1.528164 1_565
O7 S3 1.535988 1_555
O8 Si0 1.682090 1_455
O9 S1 1.494994 1_555
O10 S2 1.516261 1_455
O11 S0 1.514839 1_565
O12 Si1 1.549163 1_555
O13 S5 1.441814 1_555
O14 S6 1.442746 1_555
O15 S7 1.446736 1_555
O16 S8 1.445797 1_555
O17 Si2 1.557351 1_555
O18 Si2 1.645256 1_555
O19 S7 1.463787 1_555
O20 S8 1.468802 1_555
O21 S5 1.492320 1_555
O22 S6 1.486956 1_555
O23 Si1 1.690217 1_555
O24 Si3 1.648581 1_555
O25 Si4 1.656926 1_555
O26 Si5 1.622028 1_555
O27 Si6 1.590835 1_555
O28 Si7 1.614475 1_555
O29 Si8 1.607751 1_555
O30 Si8 1.651958 1_555
O31 Si6 1.662047 1_555
O32 Si7 1.664649 1_555
O33 Si4 1.633860 1_555
O34 Si5 1.623575 1_555
O35 Si3 1.597065 1_555
O36 Si8 1.643900 1_555
O37 Si6 1.648156 1_555
O38 Si7 1.651540 1_555
O39 Si4 1.601955 1_555
O40 Si5 1.621150 1_555
O41 Si3 1.619959 1_555
O42 Si1 1.658490 1_555
O43 S5 1.513304 1_555
O44 S6 1.510132 1_555
O45 S7 1.561469 1_555
O46 S8 1.562450 1_555
O47 Si2 1.737120 1_555
O48 S4 1.442855 1_555
O49 S3 1.443176 1_555
O50 Si0 1.549046 1_555
O51 S1 1.445680 1_555
O52 S2 1.446370 1_555
O53 S0 1.444758 1_555
O54 Si3 1.639517 1_555
O55 Si4 1.623690 1_655
O56 Si5 1.641556 1_545
O57 Si6 1.620984 1_545
O58 Si7 1.595968 1_555
O59 Si8 1.615667 1_655
O60 Si2 1.637745 1_555
O61 S7 1.471624 1_455
O62 S8 1.469189 1_565
O63 S5 1.491589 1_565
O64 S6 1.498260 1_555
O65 Si1 1.670367 1_455
O66 S0 1.492195 1_565
O67 S1 1.500875 1_555
O68 S2 1.490458 1_455
O69 S3 1.485236 1_555
O70 Si0 1.662362 1_455
O71 S4 1.483203 1_565
