# generated using pymatgen
data_Ba2HoMgRuO6
_symmetry_space_group_name_H-M   'P 1'
_cell_length_a   6.56946720
_cell_length_b   6.56946710
_cell_length_c   6.56575499
_cell_angle_alpha   53.80943582
_cell_angle_beta   53.80943814
_cell_angle_gamma   53.81227620
_symmetry_Int_Tables_number   1
_chemical_formula_structural   Ba2HoMgRuO6
_chemical_formula_sum   'Ba2 Ho1 Mg1 Ru1 O6'
_cell_volume   171.38059947
_cell_formula_units_Z   1
loop_
 _symmetry_equiv_pos_site_id
 _symmetry_equiv_pos_as_xyz
  1  'x, y, z'
loop_
 _atom_site_type_symbol
 _atom_site_label
 _atom_site_symmetry_multiplicity
 _atom_site_fract_x
 _atom_site_fract_y
 _atom_site_fract_z
 _atom_site_occupancy
  Ba  Ba0  1  0.75468300  0.75468300  0.75653700  1
  Ba  Ba1  1  0.29908300  0.29908300  0.30072200  1
  Ho  Ho0  1  0.50764000  0.50764000  0.50847100  1
  Mg  Mg0  1  0.12728400  0.12728400  0.13014000  1
  Ru  Ru0  1  0.97982100  0.97982100  0.98042800  1
  O  O0  1  0.22329500  0.75424600  0.75334200  1
  O  O1  1  0.23878000  0.74751200  0.24046400  1
  O  O2  1  0.75424600  0.22329500  0.75334200  1
  O  O3  1  0.23911800  0.23911800  0.74969100  1
  O  O4  1  0.74751200  0.23878000  0.24046400  1
  O  O5  1  0.75353800  0.75353800  0.22181500  1
loop_
_geom_bond_atom_site_label_1
_geom_bond_atom_site_label_2
_geom_bond_distance
_geom_bond_site_symmetry_2
Ba0 O4 2.979768 1_556
Ba0 O1 2.979768 1_556
Ba0 O4 2.980484 1_565
Ba0 O1 2.980484 1_655
Ba0 O3 2.980632 1_655
Ba0 O3 2.980632 1_565
Ba0 O5 3.046035 1_556
Ba0 O2 3.064502 1_565
Ba0 O0 3.064502 1_655
Ba1 O1 2.534277 1_555
Ba1 O4 2.534277 1_555
Ba1 O3 2.537816 1_555
Ba1 Mg0 2.879543 1_555
Ba1 O0 3.112266 1_545
Ba1 O2 3.112266 1_455
Ba1 O5 3.123673 1_455
Ba1 O5 3.123673 1_545
Ba1 O0 3.125639 1_554
Ba1 O2 3.125639 1_554
Ho0 O2 2.157445 1_555
Ho0 O0 2.157445 1_555
Ho0 O5 2.159160 1_555
Ho0 O3 2.409971 1_555
Ho0 O1 2.410055 1_555
Ho0 O4 2.410055 1_555
Mg0 O1 1.902666 1_545
Mg0 O4 1.902667 1_455
Mg0 O3 1.903169 1_554
O0 Ru0 1.992846 1_455
O1 Ru0 2.329242 1_454
O2 Ru0 1.992845 1_545
O3 Ru0 2.330208 1_445
O4 Ru0 2.329242 1_544
O5 Ru0 1.994102 1_554
