# generated using pymatgen
data_MgTiCo5O12
_symmetry_space_group_name_H-M   'P 1'
_cell_length_a   4.94797112
_cell_length_b   4.98246463
_cell_length_c   9.97176688
_cell_angle_alpha   86.78921742
_cell_angle_beta   82.73991666
_cell_angle_gamma   60.31273646
_symmetry_Int_Tables_number   1
_chemical_formula_structural   MgTiCo5O12
_chemical_formula_sum   'Mg1 Ti1 Co5 O12'
_cell_volume   211.84859282
_cell_formula_units_Z   1
loop_
 _symmetry_equiv_pos_site_id
 _symmetry_equiv_pos_as_xyz
  1  'x, y, z'
loop_
 _atom_site_type_symbol
 _atom_site_label
 _atom_site_symmetry_multiplicity
 _atom_site_fract_x
 _atom_site_fract_y
 _atom_site_fract_z
 _atom_site_occupancy
  Mg  Mg0  1  0.91053837  0.33853866  0.24680229  1
  Ti  Ti0  1  0.99266152  0.00225172  0.97359789  1
  Co  Co0  1  0.17838358  0.67099351  0.49670117  1
  Co  Co1  1  0.64987129  0.67335587  0.00436091  1
  Co  Co2  1  0.31825056  0.33929451  0.00391324  1
  Co  Co3  1  0.83958811  0.33922464  0.51480949  1
  Co  Co4  1  0.50957358  0.00472592  0.50053936  1
  O  O0  1  0.96212098  0.65884831  0.10547591  1
  O  O1  1  0.35934856  0.65147129  0.90333923  1
  O  O2  1  0.17546957  0.34835920  0.39862157  1
  O  O3  1  0.55484655  0.64081938  0.39837436  1
  O  O4  1  0.47375567  0.35903973  0.59708188  1
  O  O5  1  0.14882754  0.99626557  0.59754375  1
  O  O6  1  0.83763489  0.66430620  0.59751828  1
  O  O7  1  0.63386798  0.33789829  0.10279937  1
  O  O8  1  0.27753368  0.02467752  0.10401158  1
  O  O9  1  0.01352723  0.35486657  0.90257213  1
  O  O10  1  0.65694204  0.00864634  0.90289404  1
  O  O11  1  0.87809031  0.01974977  0.39904356  1
loop_
_geom_bond_atom_site_label_1
_geom_bond_atom_site_label_2
_geom_bond_distance
_geom_bond_site_symmetry_2
Mg0 O7 2.106592 1_555
Mg0 O8 2.133884 1_655
Mg0 O2 2.141521 1_655
Mg0 O3 2.146471 1_555
Mg0 O0 2.158428 1_555
Mg0 O11 2.184995 1_555
Co0 O6 1.864919 1_455
Co0 O4 1.870597 1_555
Co0 O5 1.889372 1_555
Co0 O3 1.931638 1_555
Co0 O2 1.934808 1_555
Co0 O11 1.947881 1_465
Co1 O1 1.904373 1_554
Co1 O10 1.917130 1_564
Co1 O9 1.917445 1_654
Co1 O0 1.919340 1_555
Co1 O7 1.921219 1_555
Co1 O8 1.995851 1_565
Co2 O1 1.885066 1_554
Co2 O9 1.887067 1_554
Co2 O10 1.887261 1_554
Co2 O8 1.892326 1_555
Co2 O0 1.901655 1_455
Co2 O7 1.946499 1_555
Co3 O4 1.848266 1_555
Co3 O6 1.853614 1_555
Co3 O5 1.874319 1_645
Co3 O2 1.920622 1_655
Co3 O3 1.926666 1_555
Co3 O11 1.937145 1_555
Co4 O5 1.938327 1_545
Co4 O4 1.977886 1_555
Co4 O6 1.983130 1_545
Co4 O11 2.003756 1_555
Co4 O3 2.030395 1_545
Co4 O2 2.030584 1_555
O0 Ti0 2.152567 1_564
O1 Ti0 1.874097 1_465
O7 Ti0 2.081053 1_554
O8 Ti0 2.079915 1_454
O9 Ti0 1.902826 1_455
O10 Ti0 1.870434 1_555
