# generated using pymatgen
data_BaNiN
_symmetry_space_group_name_H-M   'P 1'
_cell_length_a   5.43910182
_cell_length_b   9.71499235
_cell_length_c   13.69321851
_cell_angle_alpha   90.00000000
_cell_angle_beta   90.00000000
_cell_angle_gamma   90.00000000
_symmetry_Int_Tables_number   1
_chemical_formula_structural   BaNiN
_chemical_formula_sum   'Ba12 Ni12 N12'
_cell_volume   723.56106666
_cell_formula_units_Z   12
loop_
 _symmetry_equiv_pos_site_id
 _symmetry_equiv_pos_as_xyz
  1  'x, y, z'
loop_
 _atom_site_type_symbol
 _atom_site_label
 _atom_site_symmetry_multiplicity
 _atom_site_fract_x
 _atom_site_fract_y
 _atom_site_fract_z
 _atom_site_occupancy
  Ba  Ba0  1  0.47843007  0.50630165  0.75000000  1
  Ba  Ba1  1  0.97843007  0.99369835  0.25000000  1
  Ba  Ba2  1  0.02156993  0.00630165  0.75000000  1
  Ba  Ba3  1  0.52156993  0.49369835  0.25000000  1
  Ba  Ba4  1  0.97217074  0.32646393  0.41231170  1
  Ba  Ba5  1  0.47217074  0.17353607  0.58768830  1
  Ba  Ba6  1  0.52782926  0.82646393  0.08768830  1
  Ba  Ba7  1  0.02782926  0.67353607  0.91231170  1
  Ba  Ba8  1  0.02782926  0.67353607  0.58768830  1
  Ba  Ba9  1  0.52782926  0.82646393  0.41231170  1
  Ba  Ba10  1  0.47217074  0.17353607  0.91231170  1
  Ba  Ba11  1  0.97217074  0.32646393  0.08768830  1
  Ni  Ni0  1  0.43610210  0.14274578  0.16245289  1
  Ni  Ni1  1  0.93610210  0.35725422  0.83754711  1
  Ni  Ni2  1  0.06389790  0.64274578  0.33754711  1
  Ni  Ni3  1  0.56389790  0.85725422  0.66245289  1
  Ni  Ni4  1  0.56389790  0.85725422  0.83754711  1
  Ni  Ni5  1  0.06389790  0.64274578  0.16245289  1
  Ni  Ni6  1  0.93610210  0.35725422  0.66245289  1
  Ni  Ni7  1  0.43610210  0.14274578  0.33754711  1
  Ni  Ni8  1  -0.00000000  0.00000000  -0.00000000  1
  Ni  Ni9  1  0.50000000  0.50000000  -0.00000000  1
  Ni  Ni10  1  0.50000000  0.50000000  0.50000000  1
  Ni  Ni11  1  -0.00000000  0.00000000  0.50000000  1
  N  N0  1  0.35229193  0.78344757  0.75000000  1
  N  N1  1  0.85229193  0.71655243  0.25000000  1
  N  N2  1  0.14770807  0.28344757  0.75000000  1
  N  N3  1  0.64770807  0.21655243  0.25000000  1
  N  N4  1  0.22374842  0.07101086  0.42339924  1
  N  N5  1  0.72374842  0.42898914  0.57660076  1
  N  N6  1  0.27625158  0.57101086  0.07660076  1
  N  N7  1  0.77625158  0.92898914  0.92339924  1
  N  N8  1  0.77625158  0.92898914  0.57660076  1
  N  N9  1  0.27625158  0.57101086  0.42339924  1
  N  N10  1  0.72374842  0.42898914  0.92339924  1
  N  N11  1  0.22374842  0.07101086  0.07660076  1
loop_
_geom_bond_atom_site_label_1
_geom_bond_atom_site_label_2
_geom_bond_distance
_geom_bond_site_symmetry_2
Ba0 N0 2.778507 1_555
Ba0 N2 2.814805 1_555
Ba0 N10 2.825291 1_555
Ba0 N5 2.825291 1_555
Ba1 N1 2.778507 1_555
Ba1 N3 2.814805 1_565
Ba1 N11 2.825291 1_665
Ba1 N4 2.825291 1_665
Ba2 N2 2.778507 1_555
Ba2 N0 2.814805 1_545
Ba2 N8 2.825291 1_445
Ba2 N7 2.825291 1_445
Ba3 N3 2.778507 1_555
Ba3 N1 2.814805 1_555
Ba3 N6 2.825291 1_555
Ba3 N9 2.825291 1_555
Ba4 N5 2.806904 1_555
Ba4 N4 2.838029 1_655
Ba4 N9 2.898761 1_655
Ba4 N3 3.032236 1_555
Ba5 N4 2.806904 1_555
Ba5 N5 2.838029 1_555
Ba5 N8 2.898761 1_545
Ba5 N2 3.032236 1_555
Ba6 N7 2.806904 1_554
Ba6 N6 2.838029 1_555
Ba6 N11 2.898761 1_565
Ba6 N1 3.032236 1_555
Ba7 N6 2.806904 1_556
Ba7 N7 2.838029 1_455
Ba7 N10 2.898761 1_455
Ba7 N0 3.032236 1_555
Ba8 N9 2.806904 1_555
Ba8 N8 2.838029 1_455
Ba8 N5 2.898761 1_455
Ba8 N0 3.032236 1_555
Ba9 N8 2.806904 1_555
Ba9 N9 2.838029 1_555
Ba9 N4 2.898761 1_565
Ba9 N1 3.032236 1_555
Ba10 N11 2.806904 1_556
Ba10 N10 2.838029 1_555
Ba10 N7 2.898761 1_545
Ba10 N2 3.032236 1_555
Ba11 N10 2.806904 1_554
Ba11 N11 2.838029 1_655
Ba11 N6 2.898761 1_655
Ba11 N3 3.032236 1_555
N0 Ni3 1.809955 1_555
N0 Ni4 1.809955 1_555
N1 Ni2 1.809955 1_655
N1 Ni5 1.809955 1_655
N2 Ni6 1.809955 1_455
N2 Ni1 1.809955 1_455
N3 Ni7 1.809955 1_555
N3 Ni0 1.809955 1_555
N4 Ni11 1.748485 1_555
N4 Ni7 1.789343 1_555
N5 Ni10 1.748485 1_555
N5 Ni6 1.789343 1_555
N6 Ni9 1.748485 1_555
N6 Ni5 1.789343 1_555
N7 Ni8 1.748485 1_666
N7 Ni4 1.789343 1_555
N8 Ni11 1.748485 1_665
N8 Ni3 1.789343 1_555
N9 Ni10 1.748485 1_555
N9 Ni2 1.789343 1_555
N10 Ni9 1.748485 1_556
N10 Ni1 1.789343 1_555
N11 Ni8 1.748485 1_555
N11 Ni0 1.789343 1_555
