# generated using pymatgen
data_CaP2(HO)4
_symmetry_space_group_name_H-M   'P 1'
_cell_length_a   8.06559268
_cell_length_b   8.06559268
_cell_length_c   6.57882737
_cell_angle_alpha   78.94631260
_cell_angle_beta   78.94631260
_cell_angle_gamma   41.29726553
_symmetry_Int_Tables_number   1
_chemical_formula_structural   CaP2(HO)4
_chemical_formula_sum   'Ca2 P4 H8 O8'
_cell_volume   276.45836557
_cell_formula_units_Z   2
loop_
 _symmetry_equiv_pos_site_id
 _symmetry_equiv_pos_as_xyz
  1  'x, y, z'
loop_
 _atom_site_type_symbol
 _atom_site_label
 _atom_site_symmetry_multiplicity
 _atom_site_fract_x
 _atom_site_fract_y
 _atom_site_fract_z
 _atom_site_occupancy
  Ca  Ca0  1  0.16656287  0.83343713  0.75000000  1
  Ca  Ca1  1  0.83343713  0.16656287  0.25000000  1
  P  P0  1  0.54060230  0.17529996  0.71994885  1
  P  P1  1  0.82470004  0.45939770  0.78005115  1
  P  P2  1  0.45939770  0.82470004  0.28005115  1
  P  P3  1  0.17529996  0.54060230  0.21994885  1
  H  H0  1  0.46561424  0.09436794  0.63425513  1
  H  H1  1  0.90563206  0.53438576  0.86574487  1
  H  H2  1  0.53438576  0.90563206  0.36574487  1
  H  H3  1  0.09436794  0.46561424  0.13425513  1
  H  H4  1  0.59705386  0.05762593  0.92214198  1
  H  H5  1  0.94237407  0.40294614  0.57785802  1
  H  H6  1  0.40294614  0.94237407  0.07785802  1
  H  H7  1  0.05762593  0.59705386  0.42214198  1
  O  O0  1  0.93657432  0.21395130  0.89537892  1
  O  O1  1  0.78604870  0.06342568  0.60462108  1
  O  O2  1  0.45552619  0.32348194  0.23046314  1
  O  O3  1  0.67651806  0.54447381  0.26953686  1
  O  O4  1  0.54447381  0.67651806  0.76953686  1
  O  O5  1  0.32348194  0.45552619  0.73046314  1
  O  O6  1  0.21395130  0.93657432  0.39537892  1
  O  O7  1  0.06342568  0.78604870  0.10462108  1
loop_
_geom_bond_atom_site_label_1
_geom_bond_atom_site_label_2
_geom_bond_distance
_geom_bond_site_symmetry_2
Ca0 O5 2.280421 1_555
Ca0 O4 2.280421 1_555
Ca0 O0 2.380293 1_465
Ca0 O1 2.380293 1_465
Ca0 O6 2.381714 1_555
Ca0 O7 2.381714 1_556
Ca1 O2 2.280421 1_555
Ca1 O3 2.280421 1_555
Ca1 O6 2.380293 1_645
Ca1 O7 2.380293 1_645
Ca1 O0 2.381714 1_554
Ca1 O1 2.381714 1_555
H0 P0 1.405291 1_555
H1 P1 1.405291 1_555
H2 P2 1.405291 1_555
H3 P3 1.405291 1_555
H4 P0 1.405820 1_555
H5 P1 1.405820 1_555
H6 P2 1.405820 1_555
H7 P3 1.405820 1_555
O0 P1 1.520332 1_555
O1 P0 1.520332 1_555
O2 P3 1.498707 1_555
O3 P2 1.498707 1_555
O4 P1 1.498707 1_555
O5 P0 1.498707 1_555
O6 P2 1.520332 1_555
O7 P3 1.520332 1_555
