# generated using pymatgen
data_Na4Ta3InSi5SO24
_symmetry_space_group_name_H-M   'P 1'
_cell_length_a   9.00047493
_cell_length_b   8.98710937
_cell_length_c   22.88351117
_cell_angle_alpha   90.01466872
_cell_angle_beta   90.28568356
_cell_angle_gamma   119.86331606
_symmetry_Int_Tables_number   1
_chemical_formula_structural   Na4Ta3InSi5SO24
_chemical_formula_sum   'Na12 Ta9 In3 Si15 S3 O72'
_cell_volume   1605.19462981
_cell_formula_units_Z   3
loop_
 _symmetry_equiv_pos_site_id
 _symmetry_equiv_pos_as_xyz
  1  'x, y, z'
loop_
 _atom_site_type_symbol
 _atom_site_label
 _atom_site_symmetry_multiplicity
 _atom_site_fract_x
 _atom_site_fract_y
 _atom_site_fract_z
 _atom_site_occupancy
  Na  Na0  1  0.63412735  0.62654372  0.74725046  1
  Na  Na1  1  0.99335318  0.36350329  0.75007029  1
  Na  Na2  1  0.37430699  0.00789388  0.74751211  1
  Na  Na3  1  0.66201263  0.68944513  0.08335800  1
  Na  Na4  1  0.02710407  0.34027040  0.08372107  1
  Na  Na5  1  0.32632013  0.02924064  0.41748666  1
  Na  Na6  1  0.99283668  0.99684107  0.49620210  1
  Na  Na7  1  0.00546233  0.99757076  0.99577515  1
  Na  Na8  1  0.66606595  0.33282640  0.83384708  1
  Na  Na9  1  0.68301400  0.33671346  0.33091977  1
  Na  Na10  1  0.33030107  0.67052607  0.16714392  1
  Na  Na11  1  0.34000921  0.67152958  0.66313166  1
  Ta  Ta0  1  0.99900163  0.00080641  0.85610220  1
  Ta  Ta1  1  0.00188330  0.99098187  0.64555015  1
  Ta  Ta2  1  0.00736574  0.01260032  0.14396255  1
  Ta  Ta3  1  0.66697936  0.33433271  0.97767307  1
  Ta  Ta4  1  0.66035748  0.34041983  0.47737917  1
  Ta  Ta5  1  0.33270496  0.66986143  0.01775142  1
  Ta  Ta6  1  0.34468123  0.67822078  0.51839014  1
  Ta  Ta7  1  0.32266303  0.65502901  0.31653045  1
  Ta  Ta8  1  0.33437029  0.66677448  0.81525948  1
  In  In0  1  0.99131133  0.00529273  0.35657441  1
  In  In1  1  0.65703570  0.33007937  0.68368471  1
  In  In2  1  0.67492722  0.33291258  0.18187965  1
  Si  Si0  1  0.99733800  0.29581852  0.25126841  1
  Si  Si1  1  0.28362124  0.28633706  0.75079004  1
  Si  Si2  1  0.00136012  0.71161405  0.75168336  1
  Si  Si3  1  0.71365083  0.99899884  0.74985441  1
  Si  Si4  1  0.37457471  0.04141719  0.58314615  1
  Si  Si5  1  0.66525841  0.62635711  0.58407695  1
  Si  Si6  1  0.96024121  0.62653964  0.08261058  1
  Si  Si7  1  0.65906789  0.04124065  0.08279951  1
  Si  Si8  1  0.38251338  0.33442069  0.08315544  1
  Si  Si9  1  0.62449970  0.66669081  0.91714619  1
  Si  Si10  1  0.04240825  0.37699731  0.91676909  1
  Si  Si11  1  0.33405892  0.95878055  0.91623241  1
  Si  Si12  1  0.62424808  0.95749827  0.41546695  1
  Si  Si13  1  0.33098861  0.37957224  0.41871511  1
  Si  Si14  1  0.04062428  0.66193435  0.41812637  1
  S  S0  1  0.29000769  0.99846226  0.25077081  1
  S  S1  1  0.70783265  0.71005331  0.24992661  1
  S  S2  1  0.96037959  0.33413643  0.58242974  1
  O  O0  1  0.21324175  0.01898657  0.30390385  1
  O  O1  1  0.81305872  0.78583555  0.30187402  1
  O  O2  1  0.97380352  0.17792898  0.30565159  1
  O  O3  1  0.18753402  0.16227824  0.80658913  1
  O  O4  1  0.97090286  0.80783050  0.80653837  1
  O  O5  1  0.83575859  0.02655063  0.80667564  1
  O  O6  1  0.80493456  0.96392108  0.69332322  1
  O  O7  1  0.15762738  0.19673690  0.69358642  1
  O  O8  1  0.03773522  0.83786763  0.69388893  1
  O  O9  1  0.79287402  0.81738388  0.19581572  1
  O  O10  1  0.02699858  0.19608875  0.19168747  1
  O  O11  1  0.17667892  0.97279627  0.19758369  1
  O  O12  1  0.89364959  0.36555010  0.63744054  1
  O  O13  1  0.48143022  0.10414022  0.64350537  1
  O  O14  1  0.63206434  0.52363519  0.64455554  1
  O  O15  1  0.89449842  0.50989547  0.13947746  1
  O  O16  1  0.62090527  0.10691596  0.14179549  1
  O  O17  1  0.49603495  0.38373756  0.14133219  1
  O  O18  1  0.47109069  0.30154055  0.02611228  1
  O  O19  1  0.83040029  0.53552906  0.02637036  1
  O  O20  1  0.70716753  0.17093103  0.02681460  1
  O  O21  1  0.47265954  0.16457156  0.52586532  1
  O  O22  1  0.69547382  0.52719400  0.52789868  1
  O  O23  1  0.84739259  0.30727667  0.53148311  1
  O  O24  1  0.53172926  0.69343357  0.97422746  1
  O  O25  1  0.16279793  0.46765771  0.97423095  1
  O  O26  1  0.30607634  0.83365201  0.97203496  1
  O  O27  1  0.52277328  0.83708769  0.47232306  1
  O  O28  1  0.30899576  0.47775575  0.47404064  1
  O  O29  1  0.16766530  0.69196570  0.47312845  1
  O  O30  1  0.13612501  0.63172213  0.35988429  1
  O  O31  1  0.49159470  0.86332605  0.35926430  1
  O  O32  1  0.36583388  0.50312372  0.36035933  1
  O  O33  1  0.13631825  0.49794879  0.85871689  1
  O  O34  1  0.36138502  0.86495960  0.85818265  1
  O  O35  1  0.50294191  0.63860947  0.85885916  1
  O  O36  1  0.03608033  0.83643651  0.41013307  1
  O  O37  1  0.80566490  0.96911459  0.41663203  1
  O  O38  1  0.18004650  0.18540822  0.41458774  1
  O  O39  1  0.02537547  0.18886980  0.90896069  1
  O  O40  1  0.16288690  0.97476430  0.90892309  1
  O  O41  1  0.81173589  0.83686576  0.90900960  1
  O  O42  1  0.97491920  0.17620808  0.58799529  1
  O  O43  1  0.18418115  0.02751335  0.59006305  1
  O  O44  1  0.83748022  0.81983119  0.58982510  1
  O  O45  1  0.97250189  0.81496210  0.09288517  1
  O  O46  1  0.83597882  0.01872723  0.09228032  1
  O  O47  1  0.18486814  0.16382663  0.09117775  1
  O  O48  1  0.69582117  0.16922439  0.74703199  1
  O  O49  1  0.47307933  0.30835501  0.74985387  1
  O  O50  1  0.83668877  0.52232235  0.74630270  1
  O  O51  1  0.68224002  0.53604787  0.24397610  1
  O  O52  1  0.83260836  0.32093728  0.24690303  1
  O  O53  1  0.45960123  0.15175679  0.24409368  1
  O  O54  1  0.64055645  0.49477568  0.92430598  1
  O  O55  1  0.85472876  0.35999813  0.92462228  1
  O  O56  1  0.50538737  0.14528303  0.92477413  1
  O  O57  1  0.62923531  0.14179957  0.42604587  1
  O  O58  1  0.50807626  0.36460599  0.42434342  1
  O  O59  1  0.85544929  0.48769498  0.42637958  1
  O  O60  1  0.34761516  0.49662553  0.07283514  1
  O  O61  1  0.14974847  0.64635320  0.07177375  1
  O  O62  1  0.50519091  0.84305646  0.07270511  1
  O  O63  1  0.34334128  0.84636809  0.57326904  1
  O  O64  1  0.49568357  0.64652931  0.57348165  1
  O  O65  1  0.13316029  0.48637749  0.57458384  1
  O  O66  1  0.30491699  0.83910493  0.25372021  1
  O  O67  1  0.53678293  0.70165889  0.25443089  1
  O  O68  1  0.18087421  0.48756775  0.25576940  1
  O  O69  1  0.30015403  0.47778658  0.75761651  1
  O  O70  1  0.17741280  0.69890657  0.75729622  1
  O  O71  1  0.52287415  0.82481962  0.75760078  1
loop_
_geom_bond_atom_site_label_1
_geom_bond_atom_site_label_2
_geom_bond_distance
_geom_bond_site_symmetry_2
Na0 O50 2.429532 1_555
Na0 O71 2.452162 1_555
Na0 O49 2.480926 1_555
Na0 O14 2.521832 1_555
Na0 O69 2.623813 1_555
Na0 O35 2.843630 1_555
Na0 O6 2.908335 1_555
Na0 O4 2.953427 1_555
Na1 O48 2.359324 1_555
Na1 O69 2.424982 1_655
Na1 O50 2.456842 1_555
Na1 O70 2.623333 1_655
Na1 O12 2.727972 1_555
Na1 O33 2.777619 1_655
Na1 O7 2.885810 1_655
Na1 O5 2.933046 1_555
Na2 O49 2.386110 1_555
Na2 O70 2.450584 1_545
Na2 O48 2.509637 1_555
Na2 O13 2.556518 1_555
Na2 O71 2.595469 1_545
Na2 O34 2.816588 1_545
Na2 O8 2.893018 1_545
Na2 O3 2.987147 1_555
Na3 O62 2.427913 1_555
Na3 O45 2.446219 1_555
Na3 O60 2.485540 1_555
Na3 O46 2.575429 1_565
Na3 O17 2.733920 1_555
Na3 O24 2.761424 1_554
Na3 O9 2.819827 1_555
Na3 O19 2.831523 1_555
Na4 O61 2.416527 1_555
Na4 O60 2.515729 1_555
Na4 O46 2.530088 1_455
Na4 O47 2.607670 1_555
Na4 O15 2.683733 1_455
Na4 O25 2.778388 1_554
Na4 O10 2.789908 1_555
Na4 O20 2.810910 1_455
Na5 O36 2.311398 1_545
Na5 O38 2.355152 1_555
Na5 O57 2.396421 1_555
Na5 O58 2.621414 1_555
Na5 O0 2.771304 1_555
Na5 O21 2.781264 1_555
Na5 O31 2.904982 1_545
Na5 O29 2.925357 1_545
Na6 O37 2.401393 1_555
Na6 O38 2.527530 1_665
Na6 O36 2.583359 1_655
Na6 O44 2.625311 1_555
Na6 O43 2.673071 1_665
Na6 O42 2.701363 1_565
Na7 O40 2.513318 1_555
Na7 O41 2.554315 1_455
Na7 O39 2.575453 1_565
Na7 O47 2.677031 1_566
Na7 O45 2.691310 1_456
Na7 O46 2.749953 1_466
Na8 O49 2.519090 1_555
Na8 O48 2.564409 1_555
Na8 O50 2.588407 1_555
Na8 O54 2.606151 1_555
Na8 O55 2.609528 1_555
Na8 O56 2.620321 1_555
Na9 O52 2.396897 1_555
Na9 O59 2.624726 1_555
Na9 O51 2.679895 1_555
Na9 O57 2.685033 1_555
Na9 O53 2.717344 1_555
Na9 O58 2.745680 1_555
Na10 O68 2.540097 1_555
Na10 O66 2.572985 1_555
Na10 O67 2.639445 1_555
Na10 O61 2.657765 1_555
Na10 O62 2.675315 1_555
Na10 O60 2.714491 1_555
Na11 O64 2.562089 1_555
Na11 O63 2.579509 1_555
Na11 O71 2.642923 1_555
Na11 O65 2.686317 1_555
Na11 O69 2.687553 1_555
Na11 O70 2.689831 1_555
In0 O2 2.008099 1_555
In0 O37 2.066041 1_545
In0 O38 2.122802 1_655
In0 O36 2.138306 1_645
In0 O1 2.204146 1_545
In0 O0 2.288463 1_655
In1 O13 2.062775 1_555
In1 O14 2.065502 1_555
In1 O49 2.185274 1_555
In1 O48 2.193544 1_555
In1 O50 2.201441 1_555
In1 O12 2.259069 1_555
In2 O16 2.052831 1_555
In2 O15 2.065553 1_555
In2 O52 2.090668 1_555
In2 O17 2.092792 1_555
In2 O51 2.287885 1_555
In2 O53 2.306498 1_555
O0 S0 1.457714 1_545
O1 S1 1.455994 1_555
O2 Si0 1.579846 1_555
O3 Si1 1.634908 1_555
O3 Ta0 1.958773 1_455
O4 Si2 1.624044 1_655
O4 Ta0 1.979262 1_565
O5 Si3 1.635375 1_545
O5 Ta0 1.952856 1_555
O6 Si3 1.648094 1_555
O6 Ta1 1.996655 1_655
O7 Si1 1.650212 1_555
O7 Ta1 1.998713 1_545
O8 Si2 1.666998 1_555
O8 Ta1 1.913285 1_555
O9 S1 1.524583 1_555
O9 Ta2 2.205421 1_665
O10 Si0 1.724759 1_455
O10 Ta2 1.910551 1_555
O11 S0 1.525829 1_555
O11 Ta2 2.116677 1_565
O12 S2 1.483685 1_555
O13 Si4 1.611514 1_555
O14 Si5 1.608405 1_555
O15 Si6 1.591576 1_555
O16 Si7 1.579576 1_555
O17 Si8 1.596211 1_555
O18 Si8 1.634511 1_555
O18 Ta3 1.981473 1_554
O19 Si6 1.650321 1_555
O19 Ta3 2.002195 1_554
O20 Si7 1.640427 1_555
O20 Ta3 2.019330 1_554
O21 Si4 1.661852 1_555
O21 Ta4 1.985800 1_555
O22 Si5 1.662856 1_555
O22 Ta4 1.928981 1_555
O23 S2 1.481613 1_555
O23 Ta4 2.221303 1_555
O24 Si9 1.634542 1_555
O24 Ta5 1.971204 1_556
O25 Si10 1.634944 1_555
O25 Ta5 1.961916 1_556
O26 Si11 1.637236 1_555
O26 Ta5 1.915280 1_556
O27 Si12 1.651145 1_555
O27 Ta6 1.859467 1_555
O28 Si13 1.611372 1_555
O28 Ta6 1.948961 1_555
O29 Si14 1.625606 1_555
O29 Ta6 1.950899 1_555
O30 Si14 1.683010 1_555
O30 Ta7 1.874412 1_555
O31 Si12 1.665444 1_555
O31 Ta7 1.980443 1_555
O32 Si13 1.665135 1_555
O32 Ta7 1.883009 1_555
O33 Si10 1.660635 1_555
O33 Ta8 1.947709 1_555
O34 Si11 1.656878 1_555
O34 Ta8 1.939511 1_555
O35 Si9 1.658329 1_555
O35 Ta8 1.931052 1_555
O36 Si14 1.599546 1_555
O37 Si12 1.583532 1_555
O38 Si13 1.592895 1_555
O39 Si10 1.629547 1_555
O39 Ta0 1.993136 1_455
O40 Si11 1.624803 1_555
O40 Ta0 2.004425 1_465
O41 Si9 1.627949 1_555
O41 Ta0 2.006402 1_565
O42 S2 1.494225 1_555
O42 Ta1 2.228194 1_645
O43 Si4 1.663333 1_555
O43 Ta1 1.974000 1_545
O44 Si5 1.660462 1_555
O44 Ta1 1.973604 1_655
O45 Si6 1.657834 1_555
O45 Ta2 2.014877 1_665
O46 Si7 1.714871 1_555
O46 Ta2 1.961549 1_655
O47 Si8 1.684070 1_555
O47 Ta2 1.927762 1_555
O48 Si3 1.617020 1_545
O49 Si1 1.616076 1_555
O50 Si2 1.610282 1_655
O51 S1 1.468993 1_555
O52 Si0 1.609667 1_555
O53 S0 1.469529 1_545
O54 Si9 1.630052 1_555
O54 Ta3 1.991628 1_555
O55 Si10 1.629445 1_655
O55 Ta3 2.003733 1_555
O56 Si11 1.627370 1_545
O56 Ta3 1.996955 1_555
O57 Si12 1.652184 1_545
O57 Ta4 2.035278 1_555
O58 Si13 1.669301 1_555
O58 Ta4 1.918063 1_555
O59 Si14 1.633935 1_655
O59 Ta4 1.975818 1_555
O60 Si8 1.653753 1_555
O60 Ta5 2.058685 1_555
O61 Si6 1.644457 1_455
O61 Ta5 1.989587 1_555
O62 Si7 1.638246 1_565
O62 Ta5 1.996837 1_555
O63 Si4 1.646600 1_565
O63 Ta6 1.969305 1_555
O64 Si5 1.641032 1_555
O64 Ta6 1.971337 1_555
O65 S2 1.485458 1_455
O65 Ta6 2.237704 1_555
O66 S0 1.504991 1_555
O66 Ta7 2.256149 1_555
O67 S1 1.507444 1_555
O67 Ta7 2.265475 1_555
O68 Si0 1.694809 1_455
O68 Ta7 1.973688 1_555
O69 Si1 1.658793 1_555
O69 Ta8 2.047791 1_555
O70 Si2 1.648804 1_555
O70 Ta8 2.055774 1_555
O71 Si3 1.660299 1_555
O71 Ta8 2.064050 1_555
