# generated using pymatgen
data_Na18Nb4Zn20Si3(S11O48)3
_symmetry_space_group_name_H-M   'P 1'
_cell_length_a   17.63577240
_cell_length_b   8.81015756
_cell_length_c   22.65056139
_cell_angle_alpha   89.89060506
_cell_angle_beta   90.23370684
_cell_angle_gamma   119.96228993
_symmetry_Int_Tables_number   1
_chemical_formula_structural   Na18Nb4Zn20Si3(S11O48)3
_chemical_formula_sum   'Na18 Nb4 Zn20 Si3 S33 O144'
_cell_volume   3048.94119438
_cell_formula_units_Z   1
loop_
 _symmetry_equiv_pos_site_id
 _symmetry_equiv_pos_as_xyz
  1  'x, y, z'
loop_
 _atom_site_type_symbol
 _atom_site_label
 _atom_site_symmetry_multiplicity
 _atom_site_fract_x
 _atom_site_fract_y
 _atom_site_fract_z
 _atom_site_occupancy
  Na  Na0  1  0.31726733  0.99759672  0.25240448  1
  Na  Na1  1  0.81747947  0.99875341  0.24937220  1
  Na  Na2  1  0.18176192  0.36714602  0.25563136  1
  Na  Na3  1  0.68369148  0.36889655  0.25373612  1
  Na  Na4  1  0.68218897  0.99908227  0.75094062  1
  Na  Na5  1  0.98262455  0.67290907  0.92175557  1
  Na  Na6  1  0.00455148  0.01161455  0.49687527  1
  Na  Na7  1  0.50486310  0.01274958  0.49690018  1
  Na  Na8  1  0.99716746  0.99933101  0.00092493  1
  Na  Na9  1  0.50746734  0.00709269  0.00020151  1
  Na  Na10  1  0.33593424  0.33776630  0.82681171  1
  Na  Na11  1  0.82871419  0.32812812  0.83457081  1
  Na  Na12  1  0.33700689  0.34526843  0.33282911  1
  Na  Na13  1  0.83706756  0.34531467  0.33167232  1
  Na  Na14  1  0.15767360  0.66336055  0.16482417  1
  Na  Na15  1  0.66501646  0.66685477  0.16275926  1
  Na  Na16  1  0.16632226  0.66377594  0.65881032  1
  Na  Na17  1  0.66544243  0.65482224  0.66494801  1
  Nb  Nb0  1  0.33296341  0.32897447  0.97955936  1
  Nb  Nb1  1  0.32972957  0.33447311  0.47878208  1
  Nb  Nb2  1  0.82989147  0.33521769  0.47850998  1
  Nb  Nb3  1  0.16760279  0.67539997  0.81270171  1
  Zn  Zn0  1  0.00469519  0.00841559  0.35360905  1
  Zn  Zn1  1  0.50554870  0.00842772  0.35408312  1
  Zn  Zn2  1  0.99968178  0.00367616  0.85041215  1
  Zn  Zn3  1  0.50638046  0.00163734  0.84861783  1
  Zn  Zn4  1  0.99858866  0.00511896  0.64739738  1
  Zn  Zn5  1  0.50050970  0.00197344  0.64767725  1
  Zn  Zn6  1  0.99600879  0.98989484  0.14870280  1
  Zn  Zn7  1  0.50506881  0.00350233  0.14997092  1
  Zn  Zn8  1  0.33534473  0.33726847  0.68124518  1
  Zn  Zn9  1  0.83511286  0.33506196  0.68111964  1
  Zn  Zn10  1  0.33764766  0.34321077  0.18260155  1
  Zn  Zn11  1  0.83609093  0.33898047  0.17664369  1
  Zn  Zn12  1  0.82511710  0.32232647  0.98739843  1
  Zn  Zn13  1  0.16038710  0.66866338  0.01860114  1
  Zn  Zn14  1  0.67320110  0.67563566  0.01661538  1
  Zn  Zn15  1  0.16466721  0.65555653  0.51425543  1
  Zn  Zn16  1  0.66430372  0.65451559  0.51462019  1
  Zn  Zn17  1  0.16334125  0.65564424  0.32509834  1
  Zn  Zn18  1  0.66479457  0.65769530  0.32484715  1
  Zn  Zn19  1  0.66812020  0.66421151  0.81840332  1
  Si  Si0  1  0.16265090  0.95875569  0.91894696  1
  Si  Si1  1  0.15878380  0.37127053  0.41508835  1
  Si  Si2  1  0.65859700  0.37156841  0.41514498  1
  S  S0  1  0.14631227  0.99675828  0.24890813  1
  S  S1  1  0.64646165  0.99555130  0.24964524  1
  S  S2  1  0.35606521  0.71085077  0.24897885  1
  S  S3  1  0.85500285  0.70794714  0.25034935  1
  S  S4  1  0.99907056  0.29355296  0.24833954  1
  S  S5  1  0.49888548  0.29383938  0.24885776  1
  S  S6  1  0.14738007  0.29025167  0.75023480  1
  S  S7  1  0.64686232  0.29603001  0.74935286  1
  S  S8  1  0.99692120  0.70494873  0.75011458  1
  S  S9  1  0.49863668  0.70473911  0.75004345  1
  S  S10  1  0.35665705  0.00480402  0.75065496  1
  S  S11  1  0.85395201  0.99990630  0.74992214  1
  S  S12  1  0.47992830  0.33349199  0.58526008  1
  S  S13  1  0.98010121  0.33452356  0.58504931  1
  S  S14  1  0.18686506  0.03824722  0.58495444  1
  S  S15  1  0.68619145  0.03630542  0.58449515  1
  S  S16  1  0.33361367  0.62807090  0.58526405  1
  S  S17  1  0.83379538  0.62787676  0.58530565  1
  S  S18  1  0.48121224  0.62818269  0.08388953  1
  S  S19  1  0.98124603  0.62891541  0.08263783  1
  S  S20  1  0.33346703  0.03763431  0.08543790  1
  S  S21  1  0.83381138  0.03803524  0.08381361  1
  S  S22  1  0.18675991  0.33596803  0.08428776  1
  S  S23  1  0.68369525  0.33315276  0.08441747  1
  S  S24  1  0.31396401  0.67237134  0.91824970  1
  S  S25  1  0.81233631  0.66396837  0.91662342  1
  S  S26  1  0.02069679  0.37234176  0.91744069  1
  S  S27  1  0.52318629  0.37382180  0.91771123  1
  S  S28  1  0.66647737  0.96131299  0.91621827  1
  S  S29  1  0.31360146  0.95774651  0.41708448  1
  S  S30  1  0.81348280  0.95775603  0.41728209  1
  S  S31  1  0.02105342  0.67038926  0.41796910  1
  S  S32  1  0.52115760  0.67001007  0.41782617  1
  O  O0  1  0.10796949  0.02834997  0.30163890  1
  O  O1  1  0.60690445  0.02737677  0.30171695  1
  O  O2  1  0.40723413  0.78934858  0.30271615  1
  O  O3  1  0.90691270  0.78856591  0.30378929  1
  O  O4  1  0.48228208  0.18331455  0.30170352  1
  O  O5  1  0.98314123  0.18413551  0.30152204  1
  O  O6  1  0.10737644  0.18865776  0.80364672  1
  O  O7  1  0.60833003  0.18551223  0.80280927  1
  O  O8  1  0.48500296  0.78364577  0.80371330  1
  O  O9  1  0.98843973  0.78119298  0.80528175  1
  O  O10  1  0.40562818  0.02287395  0.80480916  1
  O  O11  1  0.90674103  0.02595314  0.80342898  1
  O  O12  1  0.39058083  0.96877911  0.69701103  1
  O  O13  1  0.89365435  0.97329915  0.69651929  1
  O  O14  1  0.09438709  0.22152751  0.69649373  1
  O  O15  1  0.59326028  0.21402004  0.69601222  1
  O  O16  1  0.01662174  0.81494418  0.69769714  1
  O  O17  1  0.51448120  0.81670949  0.69701700  1
  O  O18  1  0.39667239  0.81814437  0.19543929  1
  O  O19  1  0.89457193  0.81541278  0.19692177  1
  O  O20  1  0.01534258  0.21335420  0.19565468  1
  O  O21  1  0.51321331  0.21353073  0.19564213  1
  O  O22  1  0.09530978  0.97433963  0.19486260  1
  O  O23  1  0.59492544  0.96944104  0.19539309  1
  O  O24  1  0.43827751  0.35464522  0.63839250  1
  O  O25  1  0.93855901  0.35589825  0.63822150  1
  O  O26  1  0.24019621  0.11999766  0.63770024  1
  O  O27  1  0.73751358  0.11508802  0.63888470  1
  O  O28  1  0.32071297  0.52014652  0.63764329  1
  O  O29  1  0.82127408  0.51957206  0.63762455  1
  O  O30  1  0.44038849  0.52060173  0.13645560  1
  O  O31  1  0.93950257  0.52266627  0.13583282  1
  O  O32  1  0.32125352  0.12003129  0.13840875  1
  O  O33  1  0.82063195  0.11340101  0.13945461  1
  O  O34  1  0.23904211  0.36005620  0.13808637  1
  O  O35  1  0.73486046  0.35785488  0.13997824  1
  O  O36  1  0.23635883  0.31550567  0.03080991  1
  O  O37  1  0.72497202  0.30730344  0.03202187  1
  O  O38  1  0.42238160  0.53127384  0.03014431  1
  O  O39  1  0.93061297  0.54981730  0.02735621  1
  O  O40  1  0.34303821  0.15643417  0.03128932  1
  O  O41  1  0.84670797  0.14771923  0.03135968  1
  O  O42  1  0.23355029  0.15427247  0.53082559  1
  O  O43  1  0.73462822  0.15534892  0.53175349  1
  O  O44  1  0.34352430  0.53295615  0.53122718  1
  O  O45  1  0.84391168  0.53311209  0.53115869  1
  O  O46  1  0.42394453  0.31273993  0.53140533  1
  O  O47  1  0.92430540  0.31332417  0.53131820  1
  O  O48  1  0.27233321  0.68996056  0.97097472  1
  O  O49  1  0.77311243  0.68891269  0.97017316  1
  O  O50  1  0.07443692  0.45020214  0.96994452  1
  O  O51  1  0.57387146  0.45406562  0.97118633  1
  O  O52  1  0.14834365  0.83606909  0.97331682  1
  O  O53  1  0.65314157  0.85089443  0.96850784  1
  O  O54  1  0.27112332  0.85658662  0.46966159  1
  O  O55  1  0.77089918  0.85657902  0.46994846  1
  O  O56  1  0.15148033  0.45871296  0.47426478  1
  O  O57  1  0.65187886  0.45870307  0.47455885  1
  O  O58  1  0.07310772  0.69763665  0.47107253  1
  O  O59  1  0.57333791  0.69777860  0.47099344  1
  O  O60  1  0.05464303  0.63336620  0.36368215  1
  O  O61  1  0.55483739  0.63296212  0.36367088  1
  O  O62  1  0.26172986  0.89569555  0.36150577  1
  O  O63  1  0.76168793  0.89621050  0.36181359  1
  O  O64  1  0.18873897  0.48069988  0.35323929  1
  O  O65  1  0.68798565  0.47976527  0.35329909  1
  O  O66  1  0.06858883  0.49330475  0.86353045  1
  O  O67  1  0.55524147  0.47754799  0.86376837  1
  O  O68  1  0.18201286  0.86201192  0.85961897  1
  O  O69  1  0.67839405  0.88492889  0.86051655  1
  O  O70  1  0.25745128  0.63707818  0.86367291  1
  O  O71  1  0.75915082  0.63567259  0.86304485  1
  O  O72  1  0.00306327  0.81412112  0.41120500  1
  O  O73  1  0.50318204  0.81383616  0.41109919  1
  O  O74  1  0.40079866  0.97940876  0.41093020  1
  O  O75  1  0.90066647  0.97954982  0.41124245  1
  O  O76  1  0.08094950  0.17155925  0.41173340  1
  O  O77  1  0.58094255  0.17183556  0.41221218  1
  O  O78  1  0.00989199  0.19939896  0.90819454  1
  O  O79  1  0.50587018  0.19300059  0.91170225  1
  O  O80  1  0.07852968  0.97725397  0.90782314  1
  O  O81  1  0.58648232  0.97952821  0.91176431  1
  O  O82  1  0.40094730  0.82301080  0.90958067  1
  O  O83  1  0.90146082  0.82234058  0.91126267  1
  O  O84  1  0.48576393  0.17108182  0.58774510  1
  O  O85  1  0.98631593  0.17257729  0.58743132  1
  O  O86  1  0.10079787  0.02832064  0.58716060  1
  O  O87  1  0.60053509  0.02747005  0.58614042  1
  O  O88  1  0.41561935  0.79865724  0.58673376  1
  O  O89  1  0.91605024  0.79830518  0.58689375  1
  O  O90  1  0.48451518  0.79828008  0.08549206  1
  O  O91  1  0.99052756  0.80593800  0.08753080  1
  O  O92  1  0.41472809  0.03104182  0.08583738  1
  O  O93  1  0.91369549  0.02140437  0.08845741  1
  O  O94  1  0.10165174  0.17484742  0.08524492  1
  O  O95  1  0.59554622  0.17208391  0.08878721  1
  O  O96  1  0.33953165  0.15153714  0.74559369  1
  O  O97  1  0.84178550  0.15728617  0.74503033  1
  O  O98  1  0.23673351  0.31741995  0.74470822  1
  O  O99  1  0.73491147  0.30773186  0.74413961  1
  O  O100  1  0.42043856  0.52752617  0.74428809  1
  O  O101  1  0.92235157  0.52655076  0.74435702  1
  O  O102  1  0.34159210  0.52764223  0.24388979  1
  O  O103  1  0.84131403  0.52628901  0.24468122  1
  O  O104  1  0.41719090  0.30713912  0.24286088  1
  O  O105  1  0.91802188  0.30772089  0.24204866  1
  O  O106  1  0.23717750  0.16008880  0.24395685  1
  O  O107  1  0.73640579  0.15848334  0.24434370  1
  O  O108  1  0.32191855  0.50712589  0.92329391  1
  O  O109  1  0.82562975  0.50815578  0.92178686  1
  O  O110  1  0.43058335  0.35738566  0.92687221  1
  O  O111  1  0.93628326  0.37016592  0.91882450  1
  O  O112  1  0.25507046  0.15353819  0.92553651  1
  O  O113  1  0.74645459  0.13789255  0.92193019  1
  O  O114  1  0.32449836  0.14269529  0.42536086  1
  O  O115  1  0.82433857  0.14282638  0.42570532  1
  O  O116  1  0.25318865  0.35278678  0.42827812  1
  O  O117  1  0.75296044  0.35289408  0.42846659  1
  O  O118  1  0.43057093  0.50108390  0.42610396  1
  O  O119  1  0.93054587  0.50116434  0.42608512  1
  O  O120  1  0.18056328  0.49433400  0.07516673  1
  O  O121  1  0.67497604  0.49198291  0.07854427  1
  O  O122  1  0.06902122  0.64240017  0.08060231  1
  O  O123  1  0.56712860  0.64351251  0.07572165  1
  O  O124  1  0.25551587  0.86605973  0.07741144  1
  O  O125  1  0.75362549  0.86197050  0.07847122  1
  O  O126  1  0.17914175  0.86573050  0.57597766  1
  O  O127  1  0.67906080  0.86471131  0.57557428  1
  O  O128  1  0.25627365  0.64770840  0.57830566  1
  O  O129  1  0.75654900  0.64736733  0.57827689  1
  O  O130  1  0.06674607  0.49349559  0.57998591  1
  O  O131  1  0.56646035  0.49262479  0.57988720  1
  O  O132  1  0.16031718  0.84332013  0.25507261  1
  O  O133  1  0.65981373  0.84162452  0.25599451  1
  O  O134  1  0.26659951  0.69413594  0.25158183  1
  O  O135  1  0.76574685  0.69290730  0.25301204  1
  O  O136  1  0.07850825  0.47087025  0.25374652  1
  O  O137  1  0.57785514  0.47037947  0.25392477  1
  O  O138  1  0.15714932  0.47423809  0.75917330  1
  O  O139  1  0.65650992  0.47190814  0.75589975  1
  O  O140  1  0.08062270  0.68375118  0.75734158  1
  O  O141  1  0.58052002  0.69259166  0.75590993  1
  O  O142  1  0.26405274  0.83389298  0.75790928  1
  O  O143  1  0.76329974  0.84338519  0.75482902  1
loop_
_geom_bond_atom_site_label_1
_geom_bond_atom_site_label_2
_geom_bond_distance
_geom_bond_site_symmetry_2
Na0 O134 2.358051 1_555
Na0 O132 2.399107 1_555
Na0 O104 2.406217 1_565
Na0 O106 2.469315 1_565
Na0 O62 2.646718 1_555
Na0 O4 2.759963 1_565
Na0 O32 2.783997 1_565
Na0 O18 2.891273 1_555
Na1 O135 2.375708 1_555
Na1 O105 2.400148 1_565
Na1 O133 2.414158 1_555
Na1 O107 2.458755 1_565
Na1 O33 2.675320 1_565
Na1 O63 2.719292 1_555
Na1 O5 2.794884 1_565
Na1 O19 2.843069 1_555
Na2 O64 2.405666 1_555
Na2 O136 2.411255 1_555
Na2 O102 2.457417 1_555
Na2 O106 2.477392 1_555
Na2 O134 2.498188 1_555
Na2 O0 2.794290 1_555
Na2 O34 2.863331 1_555
Na2 O20 2.880558 1_555
Na3 O103 2.417743 1_555
Na3 O137 2.439308 1_555
Na3 O65 2.445134 1_555
Na3 O107 2.463844 1_555
Na3 O135 2.473233 1_555
Na3 O35 2.751488 1_555
Na3 O1 2.828021 1_555
Na3 O21 2.916884 1_555
Na4 O141 2.383960 1_555
Na4 O99 2.399308 1_565
Na4 O143 2.427756 1_555
Na4 O97 2.442632 1_565
Na4 O69 2.664701 1_555
Na4 O27 2.729994 1_565
Na4 O7 2.816294 1_565
Na4 O17 2.837678 1_555
Na5 O111 2.368388 1_555
Na5 O80 2.370866 1_655
Na5 O83 2.391001 1_555
Na5 O109 2.399683 1_555
Na5 O39 2.598666 1_556
Na5 O52 2.784604 1_655
Na5 O9 2.788474 1_555
Na6 O76 2.373720 1_555
Na6 O75 2.579665 1_445
Na6 O72 2.600083 1_545
Na6 O85 2.606469 1_455
Na6 O86 2.609239 1_555
Na6 O89 2.684527 1_445
Na7 O77 2.361479 1_555
Na7 O74 2.584737 1_545
Na7 O87 2.589220 1_555
Na7 O84 2.603709 1_555
Na7 O73 2.609519 1_545
Na7 O88 2.687259 1_545
Na8 O93 2.539104 1_565
Na8 O91 2.560215 1_555
Na8 O94 2.563335 1_665
Na8 O83 2.600022 1_554
Na8 O80 2.617025 1_654
Na8 O78 2.676471 1_664
Na9 O95 2.506446 1_555
Na9 O81 2.525086 1_544
Na9 O90 2.555267 1_545
Na9 O79 2.595144 1_554
Na9 O92 2.618024 1_555
Na9 O82 2.703797 1_544
Na10 O100 2.456016 1_555
Na10 O96 2.489307 1_555
Na10 O98 2.492539 1_555
Na10 O112 2.714540 1_555
Na10 O108 2.729199 1_555
Na10 O110 2.763199 1_555
Na11 O113 2.532013 1_555
Na11 O109 2.553463 1_555
Na11 O99 2.577088 1_555
Na11 O111 2.578634 1_555
Na11 O97 2.606531 1_555
Na11 O101 2.662482 1_555
Na12 O102 2.550620 1_555
Na12 O104 2.601137 1_555
Na12 O118 2.605934 1_555
Na12 O106 2.632122 1_555
Na12 O116 2.643484 1_555
Na12 O114 2.687534 1_555
Na13 O103 2.510013 1_555
Na13 O105 2.601450 1_555
Na13 O107 2.615063 1_555
Na13 O119 2.626348 1_555
Na13 O117 2.671602 1_555
Na13 O115 2.712699 1_555
Na14 O122 2.409633 1_555
Na14 O136 2.554775 1_555
Na14 O132 2.575330 1_555
Na14 O124 2.650126 1_555
Na14 O134 2.660144 1_555
Na14 O120 2.668956 1_555
Na15 O121 2.515417 1_555
Na15 O125 2.523985 1_555
Na15 O123 2.555052 1_555
Na15 O135 2.636747 1_555
Na15 O137 2.641524 1_555
Na15 O133 2.644653 1_555
Na16 O130 2.423913 1_555
Na16 O128 2.471950 1_555
Na16 O126 2.515137 1_555
Na16 O140 2.755142 1_555
Na16 O142 2.767019 1_555
Na16 O138 2.775079 1_555
Na17 O131 2.508532 1_555
Na17 O129 2.563494 1_555
Na17 O139 2.569474 1_555
Na17 O143 2.646392 1_555
Na17 O127 2.668554 1_555
Na17 O141 2.669143 1_555
Nb0 O112 1.909456 1_555
Nb0 O40 1.994113 1_556
Nb0 O110 2.008965 1_555
Nb0 O36 2.019385 1_556
Nb0 O38 2.040055 1_556
Nb0 O108 2.102694 1_555
Nb1 O116 1.833303 1_555
Nb1 O42 2.026452 1_555
Nb1 O44 2.027017 1_555
Nb1 O118 2.035735 1_555
Nb1 O114 2.044158 1_555
Nb1 O46 2.125773 1_555
Nb2 O117 1.829662 1_555
Nb2 O45 2.024329 1_555
Nb2 O119 2.029003 1_555
Nb2 O43 2.034232 1_555
Nb2 O115 2.038171 1_555
Nb2 O47 2.131678 1_555
Nb3 O68 1.866561 1_555
Nb3 O142 2.005375 1_555
Nb3 O140 2.006863 1_555
Nb3 O66 2.039499 1_555
Nb3 O138 2.079659 1_555
Nb3 O70 2.115576 1_555
O0 S0 1.468712 1_545
O0 Zn0 2.104981 1_555
O1 S1 1.469612 1_545
O1 Zn1 2.085267 1_555
O2 S2 1.464589 1_555
O2 Zn1 2.175940 1_565
O3 S3 1.467139 1_555
O3 Zn0 2.157532 1_665
O4 S5 1.476583 1_555
O4 Zn1 2.137879 1_555
O5 S4 1.478887 1_555
O5 Zn0 2.123738 1_655
O6 S6 1.461021 1_555
O6 Zn2 2.074449 1_455
O7 S7 1.489033 1_555
O7 Zn3 2.008240 1_555
O8 S9 1.480361 1_555
O8 Zn3 2.036228 1_565
O9 S8 1.462906 1_555
O9 Zn2 2.131695 1_565
O10 S10 1.459657 1_555
O10 Zn3 2.119857 1_555
O11 S11 1.471966 1_545
O11 Zn2 2.040568 1_555
O12 S10 1.460176 1_565
O12 Zn5 2.131381 1_565
O13 S11 1.476578 1_555
O13 Zn4 2.058803 1_565
O14 S6 1.466314 1_555
O14 Zn4 2.121652 1_455
O15 S7 1.478910 1_555
O15 Zn5 2.074883 1_555
O16 S8 1.460182 1_455
O16 Zn4 2.174483 1_465
O17 S9 1.488853 1_555
O17 Zn5 2.089563 1_565
O18 S2 1.484444 1_555
O18 Zn7 2.067192 1_565
O19 S3 1.480015 1_555
O19 Zn6 2.004704 1_555
O20 S4 1.488016 1_455
O20 Zn6 2.111309 1_445
O21 S5 1.483803 1_555
O21 Zn7 2.062842 1_555
O22 S0 1.470073 1_555
O22 Zn6 2.098347 1_455
O23 S1 1.473826 1_555
O23 Zn7 2.029858 1_565
O24 S12 1.472227 1_555
O24 Zn8 1.999275 1_555
O25 S13 1.472620 1_555
O25 Zn9 1.996337 1_555
O26 S14 1.465671 1_555
O26 Zn8 2.058644 1_555
O27 S15 1.478292 1_555
O27 Zn9 2.072529 1_555
O28 S16 1.464666 1_555
O28 Zn8 2.011217 1_555
O29 S17 1.466604 1_555
O29 Zn9 2.015147 1_555
O30 S18 1.468130 1_555
O30 Zn10 1.999681 1_555
O31 S19 1.478027 1_555
O31 Zn11 1.964555 1_555
O32 S20 1.474637 1_555
O32 Zn10 2.094998 1_555
O33 S21 1.497663 1_555
O33 Zn11 2.048639 1_555
O34 S22 1.475286 1_555
O34 Zn10 2.075010 1_555
O35 S23 1.496992 1_555
O35 Zn11 2.046581 1_555
O36 S22 1.559446 1_555
O37 S23 1.471024 1_555
O37 Zn12 1.984672 1_554
O38 S18 1.547973 1_555
O39 S19 1.491155 1_555
O39 Zn12 2.136847 1_554
O40 S20 1.564791 1_555
O41 S21 1.474932 1_555
O41 Zn12 2.019667 1_554
O42 S14 1.545562 1_555
O43 S15 1.538004 1_555
O44 S16 1.543632 1_555
O45 S17 1.545171 1_555
O46 S12 1.518866 1_555
O47 S13 1.513887 1_555
O48 S24 1.452856 1_555
O48 Zn13 2.177893 1_556
O49 S25 1.468917 1_555
O49 Zn14 2.008416 1_556
O50 S26 1.458632 1_555
O50 Zn13 2.072927 1_556
O51 S27 1.459154 1_555
O51 Zn14 2.124938 1_556
O52 Si0 1.572778 1_555
O52 Zn13 1.891505 1_556
O53 S28 1.474374 1_555
O53 Zn14 2.057345 1_556
O54 S29 1.452611 1_555
O54 Zn15 2.090246 1_555
O55 S30 1.454720 1_555
O55 Zn16 2.095905 1_555
O56 Si1 1.584664 1_555
O56 Zn15 1.866423 1_555
O57 Si2 1.584460 1_555
O57 Zn16 1.863944 1_555
O58 S31 1.455725 1_555
O58 Zn15 2.070063 1_555
O59 S32 1.457451 1_555
O59 Zn16 2.071662 1_555
O60 S31 1.473014 1_555
O60 Zn17 2.028372 1_555
O61 S32 1.471435 1_555
O61 Zn18 2.042625 1_555
O62 S29 1.488024 1_555
O62 Zn17 2.119689 1_555
O63 S30 1.485066 1_555
O63 Zn18 2.108344 1_555
O64 Si1 1.631952 1_555
O64 Zn17 1.914671 1_555
O65 Si2 1.626953 1_555
O65 Zn18 1.916855 1_555
O66 S26 1.563501 1_555
O67 S27 1.460454 1_555
O67 Zn19 2.112683 1_555
O68 Si0 1.716891 1_555
O69 S28 1.495170 1_555
O69 Zn19 2.092313 1_555
O70 S24 1.516588 1_555
O71 S25 1.474119 1_555
O71 Zn19 2.012939 1_555
O72 S31 1.458703 1_555
O72 Zn0 2.139034 1_565
O73 S32 1.459260 1_555
O73 Zn1 2.128190 1_565
O74 S29 1.459161 1_555
O74 Zn1 2.163887 1_565
O75 S30 1.458210 1_555
O75 Zn0 2.164927 1_665
O76 Si1 1.604061 1_555
O76 Zn0 1.915662 1_555
O77 Si2 1.602803 1_555
O77 Zn1 1.911812 1_555
O78 S26 1.453472 1_555
O78 Zn2 2.101267 1_455
O79 S27 1.471117 1_555
O79 Zn3 2.215555 1_555
O80 Si0 1.590358 1_555
O80 Zn2 1.996556 1_465
O81 S28 1.500378 1_555
O81 Zn3 2.082454 1_565
O82 S24 1.456370 1_555
O82 Zn3 2.220472 1_565
O83 S25 1.497459 1_555
O83 Zn2 2.167812 1_565
O84 S12 1.485885 1_555
O84 Zn5 2.122862 1_555
O85 S13 1.485415 1_555
O85 Zn4 2.092187 1_555
O86 S14 1.477179 1_555
O86 Zn4 2.191681 1_455
O87 S15 1.473907 1_555
O87 Zn5 2.174421 1_555
O88 S16 1.476526 1_555
O88 Zn5 2.160871 1_565
O89 S17 1.477926 1_555
O89 Zn4 2.158915 1_565
O90 S18 1.470872 1_555
O90 Zn7 2.210101 1_565
O91 S19 1.488938 1_555
O91 Zn6 2.099239 1_555
O92 S20 1.462966 1_555
O92 Zn7 2.252412 1_555
O93 S21 1.490711 1_555
O93 Zn6 2.105091 1_545
O94 S22 1.462968 1_555
O94 Zn6 2.274376 1_445
O95 S23 1.495797 1_555
O95 Zn7 2.077386 1_555
O96 S10 1.471285 1_555
O96 Zn8 2.217679 1_555
O97 S11 1.509039 1_545
O97 Zn9 2.176366 1_555
O98 S6 1.476788 1_555
O98 Zn8 2.199317 1_555
O99 S7 1.509089 1_555
O99 Zn9 2.193754 1_555
O100 S9 1.484952 1_555
O100 Zn8 2.140060 1_555
O101 S8 1.466817 1_555
O101 Zn9 2.159511 1_555
O102 S2 1.507546 1_555
O102 Zn10 2.113552 1_555
O103 S3 1.500256 1_555
O103 Zn11 2.227864 1_555
O104 S5 1.508277 1_555
O104 Zn10 2.088027 1_555
O105 S4 1.501807 1_555
O105 Zn11 2.176421 1_555
O106 S0 1.532549 1_545
O106 Zn10 2.197701 1_555
O107 S1 1.522372 1_545
O107 Zn11 2.278399 1_555
O108 S24 1.534742 1_555
O109 S25 1.507865 1_555
O109 Zn12 2.205697 1_555
O110 S27 1.580366 1_555
O111 S26 1.479677 1_655
O111 Zn12 2.372918 1_555
O112 Si0 1.681928 1_545
O113 S28 1.494609 1_545
O113 Zn12 2.122402 1_555
O114 S29 1.554092 1_545
O115 S30 1.555850 1_545
O116 Si1 1.776018 1_555
O117 Si2 1.776734 1_555
O118 S32 1.558459 1_555
O119 S31 1.558417 1_655
O120 S22 1.467073 1_555
O120 Zn13 2.159103 1_555
O121 S23 1.487779 1_555
O121 Zn14 2.151310 1_555
O122 S19 1.493104 1_455
O122 Zn13 2.065647 1_555
O123 S18 1.464953 1_555
O123 Zn14 2.205001 1_555
O124 S20 1.459865 1_565
O124 Zn13 2.165593 1_555
O125 S21 1.492914 1_565
O125 Zn14 2.082425 1_555
O126 S14 1.471108 1_565
O126 Zn15 2.232306 1_555
O127 S15 1.467365 1_565
O127 Zn16 2.220071 1_555
O128 S16 1.465942 1_555
O128 Zn15 2.193536 1_555
O129 S17 1.463721 1_555
O129 Zn16 2.193698 1_555
O130 S13 1.474042 1_455
O130 Zn15 2.188019 1_555
O131 S12 1.474117 1_555
O131 Zn16 2.179841 1_555
O132 S0 1.496796 1_555
O132 Zn17 2.308661 1_555
O133 S1 1.494368 1_555
O133 Zn18 2.279730 1_555
O134 S2 1.511042 1_555
O134 Zn17 2.368498 1_555
O135 S3 1.513734 1_555
O135 Zn18 2.320227 1_555
O136 S4 1.493778 1_455
O136 Zn17 2.248980 1_555
O137 S5 1.485797 1_555
O137 Zn18 2.262194 1_555
O138 S6 1.555689 1_555
O139 S7 1.479617 1_555
O139 Zn19 2.139375 1_555
O140 S8 1.585540 1_455
O141 S9 1.505728 1_555
O141 Zn19 2.195344 1_555
O142 S10 1.583160 1_565
O143 S11 1.506194 1_555
O143 Zn19 2.178839 1_555
