# generated using pymatgen
data_NaGe
_symmetry_space_group_name_H-M   'P 1'
_cell_length_a   6.67806269
_cell_length_b   11.34028505
_cell_length_c   11.68349405
_cell_angle_alpha   115.75061047
_cell_angle_beta   90.00000000
_cell_angle_gamma   90.00000000
_symmetry_Int_Tables_number   1
_chemical_formula_structural   NaGe
_chemical_formula_sum   'Na16 Ge16'
_cell_volume   796.93754329
_cell_formula_units_Z   16
loop_
 _symmetry_equiv_pos_site_id
 _symmetry_equiv_pos_as_xyz
  1  'x, y, z'
loop_
 _atom_site_type_symbol
 _atom_site_label
 _atom_site_symmetry_multiplicity
 _atom_site_fract_x
 _atom_site_fract_y
 _atom_site_fract_z
 _atom_site_occupancy
  Na  Na0  1  0.13899192  0.45139751  0.85762979  1
  Na  Na1  1  0.63899192  0.04860249  0.14237021  1
  Na  Na2  1  0.86100808  0.54860249  0.14237021  1
  Na  Na3  1  0.36100808  0.95139751  0.85762979  1
  Na  Na4  1  0.18543996  0.60173957  0.60672737  1
  Na  Na5  1  0.68543996  0.89826043  0.39327263  1
  Na  Na6  1  0.81456004  0.39826043  0.39327263  1
  Na  Na7  1  0.31456004  0.10173957  0.60672737  1
  Na  Na8  1  0.83865882  0.23438111  0.60140077  1
  Na  Na9  1  0.33865882  0.26561889  0.39859923  1
  Na  Na10  1  0.16134118  0.76561889  0.39859923  1
  Na  Na11  1  0.66134118  0.73438111  0.60140077  1
  Na  Na12  1  0.92826559  0.77001226  0.90544243  1
  Na  Na13  1  0.42826559  0.72998774  0.09455757  1
  Na  Na14  1  0.07173441  0.22998774  0.09455757  1
  Na  Na15  1  0.57173441  0.27001226  0.90544243  1
  Ge  Ge0  1  0.68691279  0.51111188  0.87889322  1
  Ge  Ge1  1  0.18691279  0.98888812  0.12110678  1
  Ge  Ge2  1  0.31308721  0.48888812  0.12110678  1
  Ge  Ge3  1  0.81308721  0.01111188  0.87889322  1
  Ge  Ge4  1  0.79103438  0.52379792  0.67595864  1
  Ge  Ge5  1  0.29103438  0.97620208  0.32404136  1
  Ge  Ge6  1  0.20896562  0.47620208  0.32404136  1
  Ge  Ge7  1  0.70896562  0.02379792  0.67595864  1
  Ge  Ge8  1  0.47002141  0.40359545  0.67869321  1
  Ge  Ge9  1  0.97002141  0.09640455  0.32130679  1
  Ge  Ge10  1  0.52997859  0.59640455  0.32130679  1
  Ge  Ge11  1  0.02997859  0.90359545  0.67869321  1
  Ge  Ge12  1  0.48617213  0.65520833  0.80526582  1
  Ge  Ge13  1  0.98617213  0.84479167  0.19473418  1
  Ge  Ge14  1  0.51382787  0.34479167  0.19473418  1
  Ge  Ge15  1  0.01382787  0.15520833  0.80526582  1
loop_
_geom_bond_atom_site_label_1
_geom_bond_atom_site_label_2
_geom_bond_distance
_geom_bond_site_symmetry_2
Ge0 Ge4 2.534193 1_555
Ge0 Ge12 2.535502 1_555
Ge0 Ge8 2.564674 1_555
Ge0 Na15 2.983332 1_555
Ge0 Na0 3.080349 1_655
Ge0 Na2 3.141873 1_556
Ge0 Na13 3.171582 1_556
Ge0 Na12 3.243888 1_555
Ge1 Ge5 2.534193 1_555
Ge1 Ge13 2.535502 1_455
Ge1 Ge9 2.564674 1_465
Ge1 Na14 2.983332 1_565
Ge1 Na1 3.080349 1_565
Ge1 Na3 3.141873 1_554
Ge1 Na12 3.171582 1_454
Ge1 Na13 3.243888 1_555
Ge2 Ge6 2.534193 1_555
Ge2 Na13 2.983332 1_555
Ge2 Na2 3.080349 1_455
Ge2 Na0 3.141873 1_554
Ge2 Na15 3.171582 1_554
Ge2 Na14 3.243888 1_555
Ge3 Ge7 2.534193 1_555
Ge3 Na12 2.983332 1_545
Ge3 Na3 3.080349 1_545
Ge3 Na1 3.141873 1_556
Ge3 Na14 3.171582 1_656
Ge3 Na15 3.243888 1_555
Ge4 Ge8 2.548064 1_555
Ge4 Na6 2.978942 1_555
Ge4 Na4 2.998994 1_655
Ge4 Na11 3.003227 1_555
Ge4 Na8 3.024520 1_555
Ge4 Na12 3.052827 1_555
Ge4 Na0 3.477513 1_655
Ge5 Ge9 2.548064 1_465
Ge5 Na7 2.978942 1_565
Ge5 Na5 2.998994 1_555
Ge5 Na10 3.003227 1_555
Ge5 Na9 3.024520 1_565
Ge5 Na13 3.052827 1_555
Ge5 Na1 3.477513 1_565
Ge6 Na4 2.978942 1_555
Ge6 Na6 2.998994 1_455
Ge6 Na9 3.003227 1_555
Ge6 Na10 3.024520 1_555
Ge6 Na14 3.052827 1_555
Ge6 Na2 3.477513 1_455
Ge7 Na5 2.978942 1_545
Ge7 Na7 2.998994 1_555
Ge7 Na8 3.003227 1_555
Ge7 Na11 3.024520 1_545
Ge7 Na15 3.052827 1_555
Ge7 Na3 3.477513 1_545
Ge8 Na0 2.926887 1_555
Ge8 Na8 3.008733 1_555
Ge8 Na9 3.078595 1_555
Ge8 Na7 3.316883 1_555
Ge8 Na4 3.318040 1_555
Ge9 Na1 2.926887 1_555
Ge9 Na9 3.008733 1_655
Ge9 Na8 3.078595 1_555
Ge9 Na6 3.316883 1_555
Ge9 Na5 3.318040 1_545
Ge10 Ge6 2.548064 1_555
Ge10 Ge2 2.564674 1_555
Ge10 Ge14 2.583361 1_555
Ge10 Na2 2.926887 1_555
Ge10 Na10 3.008733 1_555
Ge10 Na11 3.078595 1_555
Ge10 Na5 3.316883 1_555
Ge10 Na6 3.318040 1_555
Ge11 Ge7 2.548064 1_465
Ge11 Ge3 2.564674 1_465
Ge11 Ge15 2.583361 1_565
Ge11 Na3 2.926887 1_555
Ge11 Na11 3.008733 1_455
Ge11 Na10 3.078595 1_555
Ge11 Na4 3.316883 1_555
Ge11 Na7 3.318040 1_565
Ge12 Ge8 2.583361 1_555
Ge12 Ge4 2.586848 1_555
Ge12 Na4 2.925660 1_555
Ge12 Na11 3.115438 1_555
Ge12 Na13 3.130838 1_556
Ge12 Na12 3.233737 1_555
Ge12 Na3 3.251060 1_555
Ge12 Na0 3.510033 1_555
Ge13 Ge9 2.583361 1_565
Ge13 Ge5 2.586848 1_655
Ge13 Na5 2.925660 1_555
Ge13 Na10 3.115438 1_655
Ge13 Na12 3.130838 1_554
Ge13 Na13 3.233737 1_655
Ge13 Na2 3.251060 1_555
Ge13 Na1 3.510033 1_565
Ge14 Ge2 2.535502 1_555
Ge14 Ge6 2.586848 1_555
Ge14 Na6 2.925660 1_555
Ge14 Na9 3.115438 1_555
Ge14 Na15 3.130838 1_554
Ge14 Na14 3.233737 1_555
Ge14 Na1 3.251060 1_555
Ge14 Na2 3.510033 1_555
Ge15 Ge3 2.535502 1_455
Ge15 Ge7 2.586848 1_455
Ge15 Na7 2.925660 1_555
Ge15 Na8 3.115438 1_455
Ge15 Na14 3.130838 1_556
Ge15 Na15 3.233737 1_455
Ge15 Na0 3.251060 1_555
Ge15 Na3 3.510033 1_545
