# generated using pymatgen
data_Na3YZr3Si3(SO8)3
_symmetry_space_group_name_H-M   'P 1'
_cell_length_a   9.11412847
_cell_length_b   9.18755783
_cell_length_c   23.51949088
_cell_angle_alpha   89.72273477
_cell_angle_beta   90.50200861
_cell_angle_gamma   120.32478660
_symmetry_Int_Tables_number   1
_chemical_formula_structural   Na3YZr3Si3(SO8)3
_chemical_formula_sum   'Na9 Y3 Zr9 Si9 S9 O72'
_cell_volume   1699.91181236
_cell_formula_units_Z   3
loop_
 _symmetry_equiv_pos_site_id
 _symmetry_equiv_pos_as_xyz
  1  'x, y, z'
loop_
 _atom_site_type_symbol
 _atom_site_label
 _atom_site_symmetry_multiplicity
 _atom_site_fract_x
 _atom_site_fract_y
 _atom_site_fract_z
 _atom_site_occupancy
  Na  Na0  1  0.35122788  0.35607458  0.23977470  1
  Na  Na1  1  0.63442891  0.62172135  0.75667218  1
  Na  Na2  1  0.96963764  0.28704875  0.41665444  1
  Na  Na3  1  0.99235710  0.01135523  0.49889105  1
  Na  Na4  1  0.99475449  0.98260493  0.00339628  1
  Na  Na5  1  0.66078674  0.34270688  0.83172025  1
  Na  Na6  1  0.67303742  0.31764853  0.32994601  1
  Na  Na7  1  0.29938722  0.64925455  0.16225022  1
  Na  Na8  1  0.28425679  0.63922212  0.66681322  1
  Y  Y0  1  0.99473053  0.00192685  0.35505527  1
  Y  Y1  1  0.67870654  0.33605595  0.68678540  1
  Y  Y2  1  0.68904471  0.34572393  0.18001667  1
  Zr  Zr0  1  0.00634955  0.99365911  0.85368634  1
  Zr  Zr1  1  0.01414783  0.01740607  0.64814776  1
  Zr  Zr2  1  0.01008377  0.01357227  0.14415940  1
  Zr  Zr3  1  0.66401966  0.35691454  0.98272846  1
  Zr  Zr4  1  0.66131464  0.31915968  0.48005084  1
  Zr  Zr5  1  0.33791525  0.65933011  0.02022417  1
  Zr  Zr6  1  0.33690986  0.65692279  0.51840338  1
  Zr  Zr7  1  0.33882708  0.66239522  0.31597617  1
  Zr  Zr8  1  0.32269088  0.65486758  0.81274755  1
  Si  Si0  1  0.00038624  0.29971104  0.25313372  1
  Si  Si1  1  0.29320767  0.29387086  0.75287515  1
  Si  Si2  1  0.00670587  0.71771740  0.74907979  1
  Si  Si3  1  0.96628330  0.33173173  0.58189483  1
  Si  Si4  1  0.97154213  0.64191276  0.08183969  1
  Si  Si5  1  0.37168278  0.33513024  0.08650505  1
  Si  Si6  1  0.62832252  0.67289718  0.91453194  1
  Si  Si7  1  0.62087918  0.95758636  0.41841852  1
  Si  Si8  1  0.34238295  0.37540398  0.41666163  1
  S  S0  1  0.29029158  0.99354637  0.24952001  1
  S  S1  1  0.70131112  0.70565966  0.24959733  1
  S  S2  1  0.71052530  0.99387650  0.75184432  1
  S  S3  1  0.36828269  0.03455258  0.58265837  1
  S  S4  1  0.67017352  0.63024165  0.58332907  1
  S  S5  1  0.66683233  0.03912578  0.08039321  1
  S  S6  1  0.03716785  0.37168914  0.91707553  1
  S  S7  1  0.33947375  0.95842873  0.91658350  1
  S  S8  1  0.04353256  0.66036049  0.41827340  1
  O  O0  1  0.20627555  0.00912748  0.30048899  1
  O  O1  1  0.80007006  0.78040165  0.30177817  1
  O  O2  1  0.99343286  0.20387104  0.31234076  1
  O  O3  1  0.18919556  0.18299913  0.80792656  1
  O  O4  1  0.97937799  0.80938754  0.80530543  1
  O  O5  1  0.81336530  0.01463428  0.80327237  1
  O  O6  1  0.79088962  0.97200536  0.70018850  1
  O  O7  1  0.17828207  0.20651761  0.69490373  1
  O  O8  1  0.02103111  0.83007008  0.69273551  1
  O  O9  1  0.78791305  0.80432296  0.19859292  1
  O  O10  1  0.02420017  0.19392700  0.19916765  1
  O  O11  1  0.18446297  0.97312435  0.19780604  1
  O  O12  1  0.87811932  0.35390809  0.63762846  1
  O  O13  1  0.46769019  0.11241453  0.63428373  1
  O  O14  1  0.64225911  0.53384333  0.63659365  1
  O  O15  1  0.90536531  0.52650135  0.13800529  1
  O  O16  1  0.63869499  0.10876431  0.13255502  1
  O  O17  1  0.46497473  0.35671426  0.14687205  1
  O  O18  1  0.47378311  0.31230478  0.03267047  1
  O  O19  1  0.84487167  0.53948206  0.02694504  1
  O  O20  1  0.69125888  0.14593389  0.03021804  1
  O  O21  1  0.45423701  0.14319709  0.53187632  1
  O  O22  1  0.68453718  0.53813088  0.53415884  1
  O  O23  1  0.85051248  0.31380206  0.52428982  1
  O  O24  1  0.52524874  0.68839387  0.96815551  1
  O  O25  1  0.14289750  0.45728552  0.96754636  1
  O  O26  1  0.31410396  0.85533783  0.96747473  1
  O  O27  1  0.51762861  0.85024043  0.47397108  1
  O  O28  1  0.31156348  0.47439912  0.46928090  1
  O  O29  1  0.14504435  0.68122097  0.46982162  1
  O  O30  1  0.12421028  0.63578100  0.36687430  1
  O  O31  1  0.50713101  0.86592631  0.36098050  1
  O  O32  1  0.36002681  0.48631059  0.35830447  1
  O  O33  1  0.11773436  0.47799751  0.86520393  1
  O  O34  1  0.35165357  0.87262855  0.86499216  1
  O  O35  1  0.51582098  0.65186164  0.85633822  1
  O  O36  1  0.02158967  0.80638533  0.41299386  1
  O  O37  1  0.81041619  0.98217444  0.41843128  1
  O  O38  1  0.17377668  0.18987229  0.41582200  1
  O  O39  1  0.02585752  0.20609154  0.91196373  1
  O  O40  1  0.18669265  0.98023713  0.91195284  1
  O  O41  1  0.81814003  0.84279101  0.91134175  1
  O  O42  1  0.98115940  0.15917056  0.58617948  1
  O  O43  1  0.19704737  0.01903097  0.58533902  1
  O  O44  1  0.82430315  0.79976701  0.58650777  1
  O  O45  1  0.97652026  0.82183252  0.09029017  1
  O  O46  1  0.81990112  0.02035488  0.08689087  1
  O  O47  1  0.17884568  0.16684226  0.08728571  1
  O  O48  1  0.68615071  0.13944107  0.74768779  1
  O  O49  1  0.48273930  0.32148594  0.74969234  1
  O  O50  1  0.83555454  0.53272221  0.74779131  1
  O  O51  1  0.66534911  0.52890925  0.24645929  1
  O  O52  1  0.83503689  0.32126806  0.24950665  1
  O  O53  1  0.45766403  0.15069711  0.24521044  1
  O  O54  1  0.64293637  0.49979795  0.92048894  1
  O  O55  1  0.86556809  0.35020144  0.92171510  1
  O  O56  1  0.49500132  0.12695782  0.92082502  1
  O  O57  1  0.64822905  0.15184916  0.42220163  1
  O  O58  1  0.51693323  0.37068078  0.42559236  1
  O  O59  1  0.87491037  0.50117554  0.42237219  1
  O  O60  1  0.34969916  0.49990422  0.07458710  1
  O  O61  1  0.16144830  0.67446357  0.06793160  1
  O  O62  1  0.51666901  0.86699685  0.07324045  1
  O  O63  1  0.34716949  0.86527988  0.57597836  1
  O  O64  1  0.51875429  0.65238040  0.57669527  1
  O  O65  1  0.15647689  0.50104108  0.57607373  1
  O  O66  1  0.30959157  0.84275084  0.25316841  1
  O  O67  1  0.53094461  0.69635225  0.25287691  1
  O  O68  1  0.18185802  0.48754436  0.25350481  1
  O  O69  1  0.31351862  0.48484823  0.75714696  1
  O  O70  1  0.17804626  0.70377987  0.75697694  1
  O  O71  1  0.54207228  0.83450722  0.75608292  1
loop_
_geom_bond_atom_site_label_1
_geom_bond_atom_site_label_2
_geom_bond_distance
_geom_bond_site_symmetry_2
Na0 O68 2.416920 1_555
Na0 O17 2.425393 1_555
Na0 O51 2.479211 1_555
Na0 O53 2.522246 1_555
Na0 O67 2.716846 1_555
Na0 O10 2.737765 1_555
Na1 O50 2.365243 1_555
Na1 O49 2.386773 1_555
Na1 O71 2.488365 1_555
Na1 O69 2.534246 1_555
Na1 O35 2.663270 1_555
Na1 O4 2.940678 1_555
Na1 O14 2.952418 1_555
Na2 O37 2.418431 1_545
Na2 O38 2.436670 1_655
Na2 O59 2.520610 1_555
Na2 O57 2.543985 1_555
Na2 O2 2.616306 1_555
Na2 O23 2.823388 1_555
Na2 O28 2.956828 1_655
Na2 O30 3.009263 1_655
Na3 O37 2.429749 1_545
Na3 O42 2.498017 1_555
Na3 O38 2.555040 1_655
Na3 O44 2.716867 1_545
Na3 O43 2.724217 1_655
Na3 O36 2.872572 1_645
Na4 O45 2.472857 1_555
Na4 O47 2.584496 1_665
Na4 O41 2.608940 1_554
Na4 O46 2.671301 1_565
Na4 O40 2.791241 1_654
Na4 O39 2.881143 1_664
Na5 O49 2.454107 1_555
Na5 O50 2.587505 1_555
Na5 O54 2.596275 1_555
Na5 O56 2.755906 1_555
Na5 O55 2.787607 1_555
Na5 O48 2.815474 1_555
Na6 O52 2.399818 1_555
Na6 O57 2.590058 1_555
Na6 O53 2.664268 1_555
Na6 O51 2.779552 1_555
Na6 O59 2.790423 1_555
Na6 O58 2.844086 1_555
Na7 O68 2.522614 1_555
Na7 O61 2.606787 1_555
Na7 O60 2.650172 1_555
Na7 O66 2.758253 1_555
Na7 O67 2.862239 1_555
Na7 O62 2.887556 1_555
Na8 O65 2.451997 1_555
Na8 O70 2.532539 1_555
Na8 O69 2.634306 1_555
Na8 O63 2.825330 1_555
Na8 O71 2.973466 1_555
Na8 O64 2.981745 1_555
O0 S0 1.473877 1_545
O0 Y0 2.298374 1_455
O1 S1 1.467161 1_555
O1 Y0 2.280253 1_565
O2 Si0 1.628434 1_655
O2 Y0 2.110860 1_555
O3 Si1 1.626770 1_555
O3 Zr0 2.011842 1_545
O4 Si2 1.657859 1_655
O4 Zr0 1.953199 1_655
O5 S2 1.476413 1_545
O5 Zr0 2.200054 1_645
O6 S2 1.489788 1_555
O6 Zr1 2.234758 1_665
O7 Si1 1.654374 1_555
O7 Zr1 1.957287 1_555
O8 Si2 1.640855 1_555
O8 Zr1 2.038743 1_565
O9 S1 1.472175 1_555
O9 Zr2 2.350703 1_665
O10 Si0 1.682996 1_555
O10 Zr2 2.058798 1_555
O11 S0 1.497928 1_555
O11 Zr2 2.193796 1_565
O12 Si3 1.609912 1_555
O12 Y1 2.097797 1_555
O13 S3 1.463399 1_555
O13 Y1 2.331942 1_555
O14 S4 1.478458 1_555
O14 Y1 2.321201 1_555
O15 Si4 1.608639 1_555
O15 Y2 2.081725 1_555
O16 S5 1.469354 1_555
O16 Y2 2.280796 1_555
O17 Si5 1.609171 1_555
O17 Y2 2.228912 1_555
O18 Si5 1.653286 1_555
O18 Zr3 1.966554 1_554
O19 Si4 1.665513 1_555
O19 Zr3 1.951122 1_554
O20 S5 1.475783 1_555
O20 Zr3 2.350890 1_554
O21 S3 1.500603 1_555
O21 Zr4 2.145115 1_555
O22 S4 1.481456 1_555
O22 Zr4 2.302553 1_555
O23 Si3 1.666632 1_555
O23 Zr4 2.027870 1_555
O24 Si6 1.628184 1_555
O24 Zr5 2.014761 1_556
O25 S6 1.476439 1_555
O25 Zr5 2.189058 1_556
O26 S7 1.468314 1_555
O26 Zr5 2.279822 1_556
O27 Si7 1.623957 1_555
O27 Zr6 2.004415 1_555
O28 Si8 1.647028 1_555
O28 Zr6 1.955301 1_555
O29 S8 1.471778 1_555
O29 Zr6 2.184043 1_555
O30 S8 1.496317 1_555
O30 Zr7 2.207751 1_555
O31 Si7 1.647359 1_555
O31 Zr7 2.016004 1_555
O32 Si8 1.665188 1_555
O32 Zr7 1.985538 1_555
O33 S6 1.503823 1_555
O33 Zr8 2.146605 1_555
O34 S7 1.485280 1_555
O34 Zr8 2.251027 1_555
O35 Si6 1.655254 1_555
O35 Zr8 2.041421 1_555
O36 S8 1.457473 1_555
O36 Y0 2.357751 1_465
O37 Si7 1.625144 1_555
O37 Y0 2.193193 1_565
O38 Si8 1.619298 1_555
O38 Y0 2.196551 1_455
O39 S6 1.477509 1_555
O39 Zr0 2.321805 1_545
O40 S7 1.506599 1_555
O40 Zr0 2.181380 1_555
O41 Si6 1.645997 1_555
O41 Zr0 2.079462 1_655
O42 Si3 1.660529 1_555
O42 Zr1 2.068915 1_655
O43 S3 1.495617 1_555
O43 Zr1 2.231373 1_555
O44 S4 1.481455 1_555
O44 Zr1 2.363103 1_665
O45 Si4 1.643573 1_555
O45 Zr2 2.067065 1_665
O46 S5 1.496105 1_555
O46 Zr2 2.211322 1_655
O47 Si5 1.654119 1_555
O47 Zr2 1.992160 1_555
O48 S2 1.464880 1_545
O48 Y1 2.327335 1_555
O49 Si1 1.616618 1_555
O49 Y1 2.280342 1_555
O50 Si2 1.626473 1_655
O50 Y1 2.178980 1_555
O51 S1 1.487685 1_555
O51 Y2 2.391577 1_555
O52 Si0 1.617585 1_655
O52 Y2 2.179991 1_555
O53 S0 1.482949 1_545
O53 Y2 2.494647 1_555
O54 Si6 1.666742 1_555
O54 Zr3 2.033289 1_555
O55 S6 1.479161 1_655
O55 Zr3 2.366186 1_555
O56 S7 1.483036 1_545
O56 Zr3 2.379162 1_555
O57 Si7 1.675546 1_545
O57 Zr4 2.015091 1_555
O58 Si8 1.625008 1_555
O58 Zr4 2.046904 1_555
O59 S8 1.497225 1_655
O59 Zr4 2.272338 1_555
O60 Si5 1.646731 1_555
O60 Zr5 1.982446 1_555
O61 Si4 1.636608 1_455
O61 Zr5 2.030776 1_555
O62 S5 1.488389 1_565
O62 Zr5 2.167457 1_555
O63 S3 1.476484 1_565
O63 Zr6 2.312802 1_555
O64 S4 1.499880 1_555
O64 Zr6 2.158163 1_555
O65 Si3 1.650003 1_455
O65 Zr6 2.058453 1_555
O66 S0 1.484060 1_555
O66 Zr7 2.326831 1_555
O67 S1 1.514010 1_555
O67 Zr7 2.203439 1_555
O68 Si0 1.682684 1_555
O68 Zr7 2.109850 1_555
O69 Si1 1.672252 1_555
O69 Zr8 2.010744 1_555
O70 Si2 1.638952 1_555
O70 Zr8 2.054912 1_555
O71 S2 1.497410 1_555
O71 Zr8 2.278388 1_555
