# generated using pymatgen
data_Ba2MgVMoO6
_symmetry_space_group_name_H-M   'P 1'
_cell_length_a   5.85008405
_cell_length_b   5.85008405
_cell_length_c   6.46812526
_cell_angle_alpha   63.11353131
_cell_angle_beta   63.11353131
_cell_angle_gamma   60.00000000
_symmetry_Int_Tables_number   1
_chemical_formula_structural   Ba2MgVMoO6
_chemical_formula_sum   'Ba2 Mg1 V1 Mo1 O6'
_cell_volume   163.49232646
_cell_formula_units_Z   1
loop_
 _symmetry_equiv_pos_site_id
 _symmetry_equiv_pos_as_xyz
  1  'x, y, z'
loop_
 _atom_site_type_symbol
 _atom_site_label
 _atom_site_symmetry_multiplicity
 _atom_site_fract_x
 _atom_site_fract_y
 _atom_site_fract_z
 _atom_site_occupancy
  Ba  Ba0  1  0.19895585  0.19895585  0.40313244  1
  Ba  Ba1  1  0.73784234  0.73784234  0.78647297  1
  Mg  Mg0  1  0.36561560  0.36561560  0.90315320  1
  V  V0  1  0.99318281  0.99318281  0.02045156  1
  Mo  Mo0  1  0.52262788  0.52262788  0.43211637  1
  O  O0  1  0.76446506  0.26450084  0.20656903  1
  O  O1  1  0.75127468  0.25603493  0.73665546  1
  O  O2  1  0.76446506  0.76446506  0.20656903  1
  O  O3  1  0.25603493  0.75127468  0.73665546  1
  O  O4  1  0.26450084  0.76446506  0.20656903  1
  O  O5  1  0.25603493  0.25603493  0.73665546  1
loop_
_geom_bond_atom_site_label_1
_geom_bond_atom_site_label_2
_geom_bond_distance
_geom_bond_site_symmetry_2
Ba0 O1 2.508256 1_455
Ba0 O3 2.508256 1_545
Ba0 O5 2.508256 1_555
Ba0 Mg0 2.758002 1_554
Ba0 O0 3.119544 1_455
Ba0 O4 3.119544 1_545
Ba0 O0 3.119544 1_555
Ba0 O4 3.119544 1_555
Ba0 O2 3.119544 1_545
Ba0 O2 3.119544 1_455
Ba1 O2 2.867342 1_556
Ba1 O0 2.867342 1_556
Ba1 O4 2.867342 1_556
Ba1 O1 2.937966 1_555
Ba1 O3 2.937966 1_555
Ba1 O5 2.937966 1_655
Ba1 O5 2.937966 1_565
Ba1 O3 2.937967 1_655
Ba1 O1 2.937967 1_565
Mg0 O5 1.908257 1_555
Mg0 O3 1.908257 1_555
Mg0 O1 1.908257 1_555
Mo0 O2 2.097501 1_555
Mo0 O4 2.097501 1_555
Mo0 O0 2.097501 1_555
Mo0 O1 2.370655 1_555
Mo0 O3 2.370655 1_555
Mo0 O5 2.370655 1_555
O0 V0 1.976464 1_545
O1 V0 2.314576 1_546
O2 V0 1.976464 1_555
O3 V0 2.314576 1_456
O4 V0 1.976464 1_455
O5 V0 2.314576 1_446
