# generated using pymatgen
data_ErSeF
_symmetry_space_group_name_H-M   'P 1'
_cell_length_a   4.03997589
_cell_length_b   9.87140492
_cell_length_c   18.70407708
_cell_angle_alpha   90.00000000
_cell_angle_beta   90.00000000
_cell_angle_gamma   90.00000000
_symmetry_Int_Tables_number   1
_chemical_formula_structural   ErSeF
_chemical_formula_sum   'Er12 Se12 F12'
_cell_volume   745.92304322
_cell_formula_units_Z   12
loop_
 _symmetry_equiv_pos_site_id
 _symmetry_equiv_pos_as_xyz
  1  'x, y, z'
loop_
 _atom_site_type_symbol
 _atom_site_label
 _atom_site_symmetry_multiplicity
 _atom_site_fract_x
 _atom_site_fract_y
 _atom_site_fract_z
 _atom_site_occupancy
  Er  Er0  1  0.25000000  0.75645088  0.23933316  1
  Er  Er1  1  0.75000000  0.24354912  0.76066684  1
  Er  Er2  1  0.25000000  0.25645088  0.26066684  1
  Er  Er3  1  0.75000000  0.74354912  0.73933316  1
  Er  Er4  1  0.25000000  0.57670188  0.58106665  1
  Er  Er5  1  0.75000000  0.42329812  0.41893335  1
  Er  Er6  1  0.25000000  0.07670188  0.91893335  1
  Er  Er7  1  0.75000000  0.92329812  0.08106665  1
  Er  Er8  1  0.25000000  0.59152102  0.91662296  1
  Er  Er9  1  0.75000000  0.40847898  0.08337704  1
  Er  Er10  1  0.25000000  0.09152102  0.58337704  1
  Er  Er11  1  0.75000000  0.90847898  0.41662296  1
  Se  Se0  1  0.75000000  0.66435282  0.34145852  1
  Se  Se1  1  0.25000000  0.33564718  0.65854148  1
  Se  Se2  1  0.75000000  0.16435282  0.15854148  1
  Se  Se3  1  0.25000000  0.83564718  0.84145852  1
  Se  Se4  1  0.75000000  0.66620551  0.01410434  1
  Se  Se5  1  0.25000000  0.33379449  0.98589566  1
  Se  Se6  1  0.75000000  0.16620551  0.48589566  1
  Se  Se7  1  0.25000000  0.83379449  0.51410434  1
  Se  Se8  1  0.75000000  0.00460237  0.67798277  1
  Se  Se9  1  0.25000000  0.99539763  0.32201723  1
  Se  Se10  1  0.75000000  0.50460237  0.82201723  1
  Se  Se11  1  0.25000000  0.49539763  0.17798277  1
  F  F0  1  0.25000000  0.70117968  0.69382370  1
  F  F1  1  0.75000000  0.29882032  0.30617630  1
  F  F2  1  0.25000000  0.20117968  0.80617630  1
  F  F3  1  0.75000000  0.79882032  0.19382370  1
  F  F4  1  0.25000000  0.36740552  0.36335479  1
  F  F5  1  0.75000000  0.63259448  0.63664521  1
  F  F6  1  0.25000000  0.86740552  0.13664521  1
  F  F7  1  0.75000000  0.13259448  0.86335479  1
  F  F8  1  0.25000000  0.47326357  0.47337964  1
  F  F9  1  0.75000000  0.52673643  0.52662036  1
  F  F10  1  0.25000000  0.97326357  0.02662036  1
  F  F11  1  0.75000000  0.02673643  0.97337964  1
loop_
_geom_bond_atom_site_label_1
_geom_bond_atom_site_label_2
_geom_bond_distance
_geom_bond_site_symmetry_2
Er0 F6 2.211031 1_555
Er0 F3 2.231556 1_455
Er0 F3 2.231556 1_555
Er0 Se9 2.820533 1_555
Er0 Se11 2.820904 1_555
Er0 Se0 2.924995 1_555
Er0 Se0 2.924995 1_455
Er1 F7 2.211031 1_555
Er1 F2 2.231556 1_655
Er1 F2 2.231556 1_555
Er1 Se8 2.820533 1_555
Er1 Se10 2.820904 1_555
Er1 Se1 2.924995 1_555
Er1 Se1 2.924995 1_655
Er2 F4 2.211031 1_555
Er2 F1 2.231556 1_455
Er2 F1 2.231556 1_555
Er2 Se11 2.820533 1_555
Er2 Se9 2.820904 1_545
Er2 Se2 2.924995 1_555
Er2 Se2 2.924995 1_455
Er3 F5 2.211031 1_555
Er3 F0 2.231556 1_555
Er3 F0 2.231556 1_655
Er3 Se10 2.820533 1_555
Er3 Se8 2.820904 1_565
Er3 Se3 2.924995 1_555
Er3 Se3 2.924995 1_655
Er4 F8 2.258219 1_555
Er4 F9 2.315318 1_455
Er4 F9 2.315318 1_555
Er4 F5 2.337824 1_455
Er4 F5 2.337824 1_555
Er4 F0 2.440866 1_555
Er4 Se1 2.786060 1_555
Er4 Se7 2.830095 1_555
Er5 F9 2.258219 1_555
Er5 F8 2.315318 1_555
Er5 F8 2.315318 1_655
Er5 F4 2.337824 1_655
Er5 F4 2.337824 1_555
Er5 F1 2.440866 1_555
Er5 Se0 2.786060 1_555
Er5 Se6 2.830095 1_555
Er6 F10 2.258219 1_546
Er6 F11 2.315318 1_455
Er6 F11 2.315318 1_555
Er6 F7 2.337824 1_555
Er6 F7 2.337824 1_455
Er6 F2 2.440866 1_555
Er6 Se3 2.786060 1_545
Er6 Se5 2.830095 1_555
Er7 F11 2.258219 1_564
Er7 F10 2.315318 1_555
Er7 F10 2.315318 1_655
Er7 F6 2.337824 1_555
Er7 F6 2.337824 1_655
Er7 F3 2.440866 1_555
Er7 Se2 2.786060 1_565
Er7 Se4 2.830095 1_555
Er8 Se3 2.789976 1_555
Er8 Se10 2.819168 1_455
Er8 Se10 2.819168 1_555
Er8 Se4 2.819272 1_556
Er8 Se4 2.819272 1_456
Er8 Se5 2.855057 1_555
Er9 Se2 2.789976 1_555
Er9 Se11 2.819168 1_655
Er9 Se11 2.819168 1_555
Er9 Se5 2.819272 1_554
Er9 Se5 2.819272 1_654
Er9 Se4 2.855057 1_555
Er10 Se1 2.789976 1_555
Er10 Se8 2.819168 1_555
Er10 Se8 2.819168 1_455
Er10 Se6 2.819272 1_555
Er10 Se6 2.819272 1_455
Er10 Se7 2.855057 1_545
Er11 Se0 2.789976 1_555
Er11 Se9 2.819168 1_555
Er11 Se9 2.819168 1_655
Er11 Se7 2.819272 1_655
Er11 Se7 2.819272 1_555
Er11 Se6 2.855057 1_565
