# generated using pymatgen
data_Ba5Ge3
_symmetry_space_group_name_H-M   'P 1'
_cell_length_a   8.61034167
_cell_length_b   8.61034484
_cell_length_c   16.66617508
_cell_angle_alpha   90.00000000
_cell_angle_beta   90.00000000
_cell_angle_gamma   90.00000000
_symmetry_Int_Tables_number   1
_chemical_formula_structural   Ba5Ge3
_chemical_formula_sum   'Ba20 Ge12'
_cell_volume   1235.59707089
_cell_formula_units_Z   4
loop_
 _symmetry_equiv_pos_site_id
 _symmetry_equiv_pos_as_xyz
  1  'x, y, z'
loop_
 _atom_site_type_symbol
 _atom_site_label
 _atom_site_symmetry_multiplicity
 _atom_site_fract_x
 _atom_site_fract_y
 _atom_site_fract_z
 _atom_site_occupancy
  Ba  Ba0  1  0.41749150  0.94744698  0.88960747  1
  Ba  Ba1  1  0.55255302  0.41749050  0.88960747  1
  Ba  Ba2  1  0.94744698  0.08250950  0.88960747  1
  Ba  Ba3  1  0.91749150  0.05255302  0.61039253  1
  Ba  Ba4  1  0.58250850  0.44744698  0.61039253  1
  Ba  Ba5  1  0.08250850  0.55255302  0.88960747  1
  Ba  Ba6  1  0.44744698  0.91749050  0.61039253  1
  Ba  Ba7  1  0.05255302  0.58250950  0.61039253  1
  Ba  Ba8  1  0.94744698  0.41749050  0.38960747  1
  Ba  Ba9  1  0.55255302  0.08250950  0.38960747  1
  Ba  Ba10  1  0.91749150  0.44744698  0.11039253  1
  Ba  Ba11  1  0.41749150  0.55255302  0.38960747  1
  Ba  Ba12  1  0.08250850  0.94744698  0.38960747  1
  Ba  Ba13  1  0.05255302  0.91749050  0.11039253  1
  Ba  Ba14  1  0.44744698  0.58250950  0.11039253  1
  Ba  Ba15  1  0.58250850  0.05255302  0.11039253  1
  Ba  Ba16  1  0.25000000  0.25000000  0.71662885  1
  Ba  Ba17  1  0.75000000  0.75000000  0.78337115  1
  Ba  Ba18  1  0.75000000  0.75000000  0.28337115  1
  Ba  Ba19  1  0.25000000  0.25000000  0.21662885  1
  Ge  Ge0  1  0.35723606  0.64276394  0.75000000  1
  Ge  Ge1  1  0.85723606  0.35723606  0.75000000  1
  Ge  Ge2  1  0.64276394  0.14276394  0.75000000  1
  Ge  Ge3  1  0.14276394  0.85723606  0.75000000  1
  Ge  Ge4  1  0.64276394  0.35723606  0.25000000  1
  Ge  Ge5  1  0.14276394  0.64276394  0.25000000  1
  Ge  Ge6  1  0.35723606  0.85723606  0.25000000  1
  Ge  Ge7  1  0.85723606  0.14276394  0.25000000  1
  Ge  Ge8  1  0.25000000  0.25000000  0.50773234  1
  Ge  Ge9  1  0.75000000  0.75000000  0.99226766  1
  Ge  Ge10  1  0.75000000  0.75000000  0.49226766  1
  Ge  Ge11  1  0.25000000  0.25000000  0.00773234  1
loop_
_geom_bond_atom_site_label_1
_geom_bond_atom_site_label_2
_geom_bond_distance
_geom_bond_site_symmetry_2
Ba0 Ge3 3.407720 1_555
Ba0 Ge2 3.464713 1_565
Ba0 Ge0 3.544739 1_555
Ba0 Ge11 3.569599 1_566
Ba0 Ge9 3.743593 1_555
Ba1 Ge2 3.407715 1_555
Ba1 Ge0 3.464718 1_555
Ba1 Ge1 3.544737 1_555
Ba1 Ge11 3.569595 1_556
Ba1 Ge9 3.743600 1_555
Ba2 Ge1 3.407715 1_555
Ba2 Ge3 3.464718 1_645
Ba2 Ge2 3.544737 1_555
Ba2 Ge11 3.569595 1_656
Ba2 Ge9 3.743600 1_545
Ba3 Ge2 3.407720 1_555
Ba3 Ge3 3.464713 1_645
Ba3 Ge1 3.544739 1_555
Ba3 Ge10 3.569599 1_545
Ba3 Ge8 3.743593 1_655
Ba4 Ge1 3.407720 1_555
Ba4 Ge0 3.464713 1_555
Ba4 Ge2 3.544739 1_555
Ba4 Ge10 3.569599 1_555
Ba4 Ge8 3.743593 1_555
Ba5 Ge0 3.407720 1_555
Ba5 Ge1 3.464713 1_455
Ba5 Ge3 3.544739 1_555
Ba5 Ge11 3.569599 1_556
Ba5 Ge9 3.743593 1_455
Ba6 Ge0 3.407715 1_555
Ba6 Ge2 3.464718 1_565
Ba6 Ge3 3.544737 1_555
Ba6 Ge10 3.569595 1_555
Ba6 Ge8 3.743600 1_565
Ba7 Ge3 3.407715 1_555
Ba7 Ge1 3.464718 1_455
Ba7 Ge0 3.544737 1_555
Ba7 Ge10 3.569595 1_455
Ba7 Ge8 3.743600 1_555
Ba8 Ge7 3.407715 1_555
Ba8 Ge5 3.464718 1_655
Ba8 Ge4 3.544737 1_555
Ba8 Ge8 3.569595 1_655
Ba8 Ge10 3.743600 1_555
Ba9 Ge4 3.407715 1_555
Ba9 Ge6 3.464718 1_545
Ba9 Ge7 3.544737 1_555
Ba9 Ge8 3.569595 1_555
Ba9 Ge10 3.743600 1_545
Ba10 Ge4 3.407720 1_555
Ba10 Ge5 3.464713 1_655
Ba10 Ge7 3.544739 1_555
Ba10 Ge9 3.569599 1_554
Ba10 Ge11 3.743593 1_655
Ba11 Ge5 3.407720 1_555
Ba11 Ge4 3.464713 1_555
Ba11 Ge6 3.544739 1_555
Ba11 Ge8 3.569599 1_555
Ba11 Ge10 3.743593 1_555
Ba12 Ge6 3.407720 1_555
Ba12 Ge7 3.464713 1_465
Ba12 Ge5 3.544739 1_555
Ba12 Ge8 3.569599 1_565
Ba12 Ge10 3.743593 1_455
Ba13 Ge5 3.407715 1_555
Ba13 Ge7 3.464718 1_465
Ba13 Ge6 3.544737 1_555
Ba13 Ge9 3.569595 1_454
Ba13 Ge11 3.743600 1_565
Ba14 Ge6 3.407715 1_555
Ba14 Ge4 3.464718 1_555
Ba14 Ge5 3.544737 1_555
Ba14 Ge9 3.569595 1_554
Ba14 Ge11 3.743600 1_555
Ba15 Ge7 3.407720 1_555
Ba15 Ge6 3.464713 1_545
Ba15 Ge4 3.544739 1_555
Ba15 Ge9 3.569599 1_544
Ba15 Ge11 3.743593 1_555
Ba16 Ge8 3.481506 1_555
Ba16 Ge2 3.549460 1_555
Ba16 Ge1 3.549460 1_455
Ba16 Ge3 3.549461 1_545
Ba16 Ge0 3.549461 1_555
Ba17 Ge9 3.481506 1_555
Ba17 Ge0 3.549460 1_555
Ba17 Ge3 3.549460 1_655
Ba17 Ge1 3.549461 1_555
Ba17 Ge2 3.549461 1_565
Ba18 Ge10 3.481506 1_555
Ba18 Ge6 3.549460 1_555
Ba18 Ge5 3.549460 1_655
Ba18 Ge4 3.549461 1_555
Ba18 Ge7 3.549461 1_565
Ba19 Ge11 3.481506 1_555
Ba19 Ge4 3.549460 1_555
Ba19 Ge7 3.549460 1_455
Ba19 Ge5 3.549461 1_555
Ba19 Ge6 3.549461 1_545
Ge0 Ge3 2.611598 1_555
Ge1 Ge2 2.611598 1_555
Ge4 Ge7 2.611598 1_555
Ge5 Ge6 2.611598 1_555
