# generated using pymatgen
data_MgCo4OF11
_symmetry_space_group_name_H-M   'P 1'
_cell_length_a   7.60075838
_cell_length_b   5.19083627
_cell_length_c   5.47102259
_cell_angle_alpha   90.07153726
_cell_angle_beta   85.23407708
_cell_angle_gamma   90.08761802
_symmetry_Int_Tables_number   1
_chemical_formula_structural   MgCo4OF11
_chemical_formula_sum   'Mg1 Co4 O1 F11'
_cell_volume   215.10860618
_cell_formula_units_Z   1
loop_
 _symmetry_equiv_pos_site_id
 _symmetry_equiv_pos_as_xyz
  1  'x, y, z'
loop_
 _atom_site_type_symbol
 _atom_site_label
 _atom_site_symmetry_multiplicity
 _atom_site_fract_x
 _atom_site_fract_y
 _atom_site_fract_z
 _atom_site_occupancy
  Mg  Mg0  1  0.70527500  0.99426300  0.38740500  1
  Co  Co0  1  0.01090000  0.48235800  0.50854100  1
  Co  Co1  1  0.01291100  0.00688900  0.97082100  1
  Co  Co2  1  0.48387200  0.49755700  0.50817000  1
  Co  Co3  1  0.48712400  0.00039100  0.99100500  1
  O  O0  1  0.05130700  0.20358700  0.70870900  1
  F  F0  1  0.05062100  0.31351900  0.20647300  1
  F  F1  1  0.26410500  0.86996900  0.99533100  1
  F  F2  1  0.43806500  0.30977700  0.82694400  1
  F  F3  1  0.24331900  0.62941500  0.49340400  1
  F  F4  1  0.46071400  0.16037500  0.32145200  1
  F  F5  1  0.57808600  0.83117700  0.67921400  1
  F  F6  1  0.74973200  0.34790400  0.50257500  1
  F  F7  1  0.57347000  0.71122100  0.20676900  1
  F  F8  1  0.73428600  0.10378600  0.02508000  1
  F  F9  1  0.93676200  0.70225100  0.77565500  1
  F  F10  1  0.93241500  0.82306000  0.29245200  1
loop_
_geom_bond_atom_site_label_1
_geom_bond_atom_site_label_2
_geom_bond_distance
_geom_bond_site_symmetry_2
Co0 O0 1.857093 1_555
Co0 F0 1.872082 1_555
Co0 F9 1.901844 1_455
Co0 F3 1.918859 1_555
Co0 F6 2.105983 1_455
Co0 F10 2.237602 1_455
Co1 O0 1.765583 1_555
Co1 F9 2.017765 1_445
Co1 F10 2.050551 1_446
Co1 F1 2.053130 1_545
Co1 F0 2.081496 1_556
Co1 F8 2.173578 1_456
Co2 F3 1.961251 1_555
Co2 F2 2.003807 1_555
Co2 F4 2.040194 1_555
Co2 F7 2.056363 1_555
Co2 F5 2.119203 1_555
Co2 F6 2.163848 1_555
Co3 F1 1.822680 1_545
Co3 F2 1.893381 1_555
Co3 F8 1.976583 1_556
Co3 F4 1.983643 1_556
Co3 F5 1.990345 1_545
Co3 F7 2.052672 1_546
F4 Mg0 2.108588 1_545
F5 Mg0 1.986057 1_555
F6 Mg0 1.977768 1_545
F7 Mg0 2.072515 1_555
F8 Mg0 2.056963 1_545
F10 Mg0 1.973505 1_555
