# generated using pymatgen
data_ZrScB24
_symmetry_space_group_name_H-M   'P 1'
_cell_length_a   5.23808871
_cell_length_b   5.23808878
_cell_length_c   9.07948813
_cell_angle_alpha   73.23437895
_cell_angle_beta   106.76561988
_cell_angle_gamma   120.00000676
_symmetry_Int_Tables_number   1
_chemical_formula_structural   ZrScB24
_chemical_formula_sum   'Zr1 Sc1 B24'
_cell_volume   203.42407694
_cell_formula_units_Z   1
loop_
 _symmetry_equiv_pos_site_id
 _symmetry_equiv_pos_as_xyz
  1  'x, y, z'
loop_
 _atom_site_type_symbol
 _atom_site_label
 _atom_site_symmetry_multiplicity
 _atom_site_fract_x
 _atom_site_fract_y
 _atom_site_fract_z
 _atom_site_occupancy
  Zr  Zr0  1  0.74997943  0.25002057  0.24993928  1
  Sc  Sc0  1  0.25004485  0.74995515  0.75013455  1
  B  B0  1  0.00020293  0.66119947  0.99975972  1
  B  B1  1  0.66075626  0.99979707  0.99975972  1
  B  B2  1  0.33880053  0.33924374  0.99975972  1
  B  B3  1  0.33880053  0.99979707  0.99975972  1
  B  B4  1  0.66075626  0.66119947  0.99975972  1
  B  B5  1  0.00020293  0.33924374  0.99975972  1
  B  B6  1  0.66931949  0.33068051  0.66922411  1
  B  B7  1  0.33058514  0.33068051  0.66922411  1
  B  B8  1  0.66931949  0.66941486  0.66922411  1
  B  B9  1  0.33044266  0.66955734  0.33066871  1
  B  B10  1  0.66978238  0.66955734  0.33066871  1
  B  B11  1  0.33044266  0.33021762  0.33066871  1
  B  B12  1  0.16956286  0.83043714  0.16933980  1
  B  B13  1  0.83021307  0.83043714  0.16933980  1
  B  B14  1  0.16956286  0.16978693  0.16933980  1
  B  B15  1  0.83067105  0.16932895  0.83075676  1
  B  B16  1  0.16941367  0.16932895  0.83075676  1
  B  B17  1  0.83067105  0.83058633  0.83075676  1
  B  B18  1  0.49979187  0.16074834  0.50023344  1
  B  B19  1  0.16118991  0.50020813  0.50023344  1
  B  B20  1  0.83925166  0.83881009  0.50023344  1
  B  B21  1  0.83925166  0.50020813  0.50023344  1
  B  B22  1  0.16118991  0.16074834  0.50023344  1
  B  B23  1  0.49979187  0.83881009  0.50023344  1
loop_
_geom_bond_atom_site_label_1
_geom_bond_atom_site_label_2
_geom_bond_distance
_geom_bond_site_symmetry_2
B0 B5 1.686433 1_555
B0 B3 1.773604 1_555
B0 B17 1.773901 1_455
B0 B12 1.776662 1_556
B0 B4 1.778052 1_455
B0 Sc0 2.749650 1_555
B0 Zr0 2.754750 1_456
B1 B3 1.686433 1_555
B1 B4 1.773604 1_555
B1 B15 1.773898 1_565
B1 B13 1.776659 1_556
B1 B5 1.778052 1_665
B1 Sc0 2.749650 1_555
B1 Zr0 2.754752 1_566
B2 B4 1.686433 1_555
B2 B5 1.773604 1_555
B2 B3 1.778052 1_545
B2 Sc0 2.749650 1_555
B2 Zr0 2.754748 1_556
B3 Sc0 2.749650 1_555
B3 Zr0 2.754750 1_566
B4 Sc0 2.749650 1_555
B4 Zr0 2.754748 1_556
B5 Sc0 2.749650 1_555
B5 Zr0 2.754752 1_456
B6 B7 1.774321 1_555
B6 B8 1.774321 1_555
B6 Sc0 2.752643 1_545
B6 Sc0 2.752643 1_655
B7 B8 1.774320 1_555
B7 Sc0 2.752644 1_545
B7 Sc0 2.752644 1_555
B8 Sc0 2.752644 1_655
B8 Sc0 2.752644 1_555
B9 Zr0 2.751930 1_565
B9 Zr0 2.751930 1_455
B10 B13 1.688720 1_555
B10 B20 1.776580 1_555
B10 B21 1.776583 1_555
B10 B11 1.777491 1_555
B10 B9 1.777492 1_555
B10 Zr0 2.751930 1_565
B10 Zr0 2.751930 1_555
B11 B14 1.688720 1_555
B11 B22 1.776580 1_555
B11 B18 1.776583 1_555
B11 B9 1.777492 1_555
B11 Zr0 2.751930 1_455
B11 Zr0 2.751930 1_555
B12 B9 1.688720 1_555
B12 B3 1.776662 1_554
B12 B13 1.777544 1_455
B12 B14 1.777544 1_565
B12 Zr0 2.751646 1_455
B12 Zr0 2.751646 1_565
B13 B4 1.776662 1_554
B13 B14 1.777544 1_665
B13 Zr0 2.751646 1_555
B13 Zr0 2.751646 1_565
B14 B5 1.776659 1_554
B14 B2 1.776662 1_554
B14 Zr0 2.751646 1_555
B14 Zr0 2.751646 1_455
B15 B6 1.692256 1_555
B15 B5 1.773898 1_655
B15 B16 1.774364 1_655
B15 B17 1.774364 1_545
B15 Sc0 2.752019 1_655
B15 Sc0 2.752019 1_545
B16 B7 1.692258 1_555
B16 B2 1.773898 1_555
B16 B3 1.773901 1_545
B16 B17 1.774364 1_445
B16 Sc0 2.752017 1_555
B16 Sc0 2.752022 1_545
B17 B8 1.692258 1_555
B17 B4 1.773898 1_555
B17 Sc0 2.752017 1_555
B17 Sc0 2.752022 1_655
B18 B23 1.686341 1_545
B18 B22 1.773627 1_555
B18 B6 1.773847 1_555
B18 B21 1.778120 1_555
B18 Sc0 2.751465 1_545
B18 Zr0 2.755505 1_555
B19 B21 1.686341 1_455
B19 B23 1.773627 1_555
B19 B7 1.773847 1_555
B19 B9 1.776580 1_555
B19 B22 1.778121 1_555
B19 Sc0 2.751465 1_555
B19 Zr0 2.755506 1_455
B20 B22 1.686341 1_665
B20 B21 1.773627 1_555
B20 B8 1.773847 1_555
B20 B23 1.778120 1_555
B20 Sc0 2.751465 1_655
B20 Zr0 2.755508 1_565
B21 B6 1.773847 1_555
B21 Sc0 2.751465 1_655
B21 Zr0 2.755505 1_555
B22 B7 1.773847 1_555
B22 Sc0 2.751465 1_545
B22 Zr0 2.755508 1_455
B23 B8 1.773847 1_555
B23 B9 1.776580 1_555
B23 Sc0 2.751465 1_555
B23 Zr0 2.755506 1_565
