# generated using pymatgen
data_Na15Ca7Nb5Si9(SO8)9
_symmetry_space_group_name_H-M   'P 1'
_cell_length_a   9.26400060
_cell_length_b   9.24024952
_cell_length_c   22.99320169
_cell_angle_alpha   89.31600927
_cell_angle_beta   90.26173384
_cell_angle_gamma   119.61197341
_symmetry_Int_Tables_number   1
_chemical_formula_structural   Na15Ca7Nb5Si9(SO8)9
_chemical_formula_sum   'Na15 Ca7 Nb5 Si9 S9 O72'
_cell_volume   1711.06201713
_cell_formula_units_Z   1
loop_
 _symmetry_equiv_pos_site_id
 _symmetry_equiv_pos_as_xyz
  1  'x, y, z'
loop_
 _atom_site_type_symbol
 _atom_site_label
 _atom_site_symmetry_multiplicity
 _atom_site_fract_x
 _atom_site_fract_y
 _atom_site_fract_z
 _atom_site_occupancy
  Na  Na0  1  0.63593221  0.99651204  0.23514613  1
  Na  Na1  1  0.98417437  0.64994646  0.24981789  1
  Na  Na2  1  0.65855480  0.64068714  0.75926483  1
  Na  Na3  1  0.33125416  0.99296630  0.74180790  1
  Na  Na4  1  0.98932024  0.69384830  0.91384434  1
  Na  Na5  1  0.69254160  0.98647845  0.92246306  1
  Na  Na6  1  0.30942436  0.31503435  0.92317951  1
  Na  Na7  1  0.30054773  0.00040475  0.40972908  1
  Na  Na8  1  0.69524818  0.68375441  0.40391660  1
  Na  Na9  1  0.02492084  0.02258083  0.49538043  1
  Na  Na10  1  0.00240755  0.00121206  0.99118847  1
  Na  Na11  1  0.70816449  0.36097816  0.82924634  1
  Na  Na12  1  0.62161153  0.32137966  0.31814802  1
  Na  Na13  1  0.36220412  0.67903305  0.15570124  1
  Na  Na14  1  0.28821428  0.64691078  0.66789038  1
  Ca  Ca0  1  0.00690382  0.00992156  0.35096598  1
  Ca  Ca1  1  0.99909522  0.00047891  0.84564477  1
  Ca  Ca2  1  0.01037728  0.99303067  0.64657154  1
  Ca  Ca3  1  0.68077878  0.33578813  0.68373721  1
  Ca  Ca4  1  0.65187362  0.32730109  0.18312716  1
  Ca  Ca5  1  0.33633944  0.67274552  0.02025937  1
  Ca  Ca6  1  0.32705774  0.66509597  0.52013694  1
  Nb  Nb0  1  0.98999389  0.98090154  0.14842066  1
  Nb  Nb1  1  0.66100058  0.31502433  0.97992065  1
  Nb  Nb2  1  0.67365564  0.34457959  0.47599921  1
  Nb  Nb3  1  0.31945230  0.64937925  0.31153185  1
  Nb  Nb4  1  0.32228166  0.66455248  0.82516315  1
  Si  Si0  1  0.29456872  0.99057053  0.25477662  1
  Si  Si1  1  0.69359967  0.70304865  0.25607786  1
  Si  Si2  1  0.01283413  0.69449949  0.75584051  1
  Si  Si3  1  0.68146208  0.03888776  0.09143897  1
  Si  Si4  1  0.62541336  0.65750367  0.91732501  1
  Si  Si5  1  0.02992512  0.36635679  0.92505540  1
  Si  Si6  1  0.33171850  0.96704366  0.91914548  1
  Si  Si7  1  0.33700085  0.37329695  0.42058379  1
  Si  Si8  1  0.03918045  0.66472014  0.41665495  1
  S  S0  1  0.01423827  0.30454960  0.24761905  1
  S  S1  1  0.30673549  0.32014222  0.75086370  1
  S  S2  1  0.67657342  0.98206439  0.75226713  1
  S  S3  1  0.95397555  0.31985924  0.58012952  1
  S  S4  1  0.37844776  0.04895579  0.58093109  1
  S  S5  1  0.67815089  0.63140283  0.57948258  1
  S  S6  1  0.95598459  0.63515685  0.08618009  1
  S  S7  1  0.35454875  0.30820264  0.08136136  1
  S  S8  1  0.61704387  0.96910279  0.41548289  1
  O  O0  1  0.21879963  0.00273560  0.31528734  1
  O  O1  1  0.78681216  0.79601775  0.31340769  1
  O  O2  1  0.98397791  0.21070850  0.30170532  1
  O  O3  1  0.23076411  0.23312340  0.80588741  1
  O  O4  1  0.99701430  0.77126045  0.81658147  1
  O  O5  1  0.76451391  0.00550095  0.80808981  1
  O  O6  1  0.77474210  0.97660768  0.70271093  1
  O  O7  1  0.20395411  0.23407636  0.69991863  1
  O  O8  1  0.06350227  0.82869886  0.70202956  1
  O  O9  1  0.81034278  0.83835840  0.19794077  1
  O  O10  1  0.03258585  0.21572038  0.19687203  1
  O  O11  1  0.15996682  0.97274926  0.19939470  1
  O  O12  1  0.87265936  0.31461823  0.63519376  1
  O  O13  1  0.45280731  0.13177714  0.63623744  1
  O  O14  1  0.67567294  0.54427294  0.63349284  1
  O  O15  1  0.87567745  0.55066344  0.14058572  1
  O  O16  1  0.68591889  0.12935153  0.15007126  1
  O  O17  1  0.45097103  0.32400693  0.13336394  1
  O  O18  1  0.44908712  0.30088811  0.02743189  1
  O  O19  1  0.85279983  0.55232122  0.03380958  1
  O  O20  1  0.69182900  0.17084745  0.03361440  1
  O  O21  1  0.49111867  0.15449883  0.52997722  1
  O  O22  1  0.67363260  0.51939151  0.52726143  1
  O  O23  1  0.84724242  0.32796147  0.52994790  1
  O  O24  1  0.54166402  0.71033790  0.96631497  1
  O  O25  1  0.15231934  0.43254625  0.97820584  1
  O  O26  1  0.26889934  0.83611348  0.97081251  1
  O  O27  1  0.54839934  0.87199815  0.46840299  1
  O  O28  1  0.34817454  0.47675640  0.47544645  1
  O  O29  1  0.17348556  0.72329459  0.46658719  1
  O  O30  1  0.13225463  0.62976172  0.35715523  1
  O  O31  1  0.50786681  0.88325964  0.36306923  1
  O  O32  1  0.35878770  0.49780631  0.36034132  1
  O  O33  1  0.13748388  0.50581129  0.86846453  1
  O  O34  1  0.36857589  0.87021342  0.86076601  1
  O  O35  1  0.50440814  0.62543513  0.85537967  1
  O  O36  1  0.97654982  0.79769103  0.40969658  1
  O  O37  1  0.78803637  0.00575652  0.40729927  1
  O  O38  1  0.19362250  0.18350026  0.41756457  1
  O  O39  1  0.97158108  0.17809405  0.90806773  1
  O  O40  1  0.20761522  0.03744047  0.90674456  1
  O  O41  1  0.81507446  0.80390858  0.90886911  1
  O  O42  1  0.96351613  0.16654054  0.57204527  1
  O  O43  1  0.21588145  0.04008742  0.57172270  1
  O  O44  1  0.83512609  0.78941331  0.57203775  1
  O  O45  1  0.96594830  0.80881417  0.08786550  1
  O  O46  1  0.86610435  0.03642957  0.09312438  1
  O  O47  1  0.19430132  0.14402791  0.08301841  1
  O  O48  1  0.62777783  0.11340467  0.74634017  1
  O  O49  1  0.47549048  0.33313651  0.74667110  1
  O  O50  1  0.84516035  0.51505241  0.74821873  1
  O  O51  1  0.68759657  0.52846109  0.24782886  1
  O  O52  1  0.88510073  0.35259025  0.24047288  1
  O  O53  1  0.48560954  0.13109429  0.24731029  1
  O  O54  1  0.61853509  0.47285368  0.92866669  1
  O  O55  1  0.85731785  0.38539602  0.93130902  1
  O  O56  1  0.52561187  0.13590466  0.92779448  1
  O  O57  1  0.61513262  0.13448897  0.41924435  1
  O  O58  1  0.52473407  0.36859645  0.42188887  1
  O  O59  1  0.85757727  0.48020518  0.42761380  1
  O  O60  1  0.32328959  0.44776214  0.07738740  1
  O  O61  1  0.12513238  0.66383596  0.08308550  1
  O  O62  1  0.53090897  0.85410806  0.08459381  1
  O  O63  1  0.36554397  0.88372981  0.58132648  1
  O  O64  1  0.53232468  0.65238254  0.57699192  1
  O  O65  1  0.11813393  0.47152905  0.57921627  1
  O  O66  1  0.28827405  0.80237744  0.25539520  1
  O  O67  1  0.51129545  0.70073582  0.25559603  1
  O  O68  1  0.18005429  0.46873804  0.25111890  1
  O  O69  1  0.33461184  0.49505818  0.75197152  1
  O  O70  1  0.18800975  0.67375790  0.76053280  1
  O  O71  1  0.51664106  0.81575163  0.75352640  1
loop_
_geom_bond_atom_site_label_1
_geom_bond_atom_site_label_2
_geom_bond_distance
_geom_bond_site_symmetry_2
Na0 O16 2.221900 1_565
Na0 O53 2.299414 1_565
Na0 O67 2.424771 1_555
Na0 O66 2.844612 1_555
Na1 O51 2.400640 1_555
Na1 O52 2.440944 1_555
Na1 O66 2.452849 1_655
Na1 O15 2.698276 1_555
Na1 O11 2.833284 1_655
Na1 O30 2.866839 1_655
Na2 O49 2.507655 1_555
Na2 O50 2.528826 1_555
Na2 O71 2.541179 1_555
Na2 O35 2.601085 1_555
Na2 O69 2.618184 1_555
Na3 O8 2.363217 1_555
Na3 O48 2.402988 1_565
Na3 O70 2.598665 1_555
Na3 O13 2.707169 1_565
Na3 O49 2.744880 1_565
Na4 O41 2.295844 1_555
Na4 O4 2.330459 1_555
Na4 O55 2.512549 1_555
Na4 O26 2.607193 1_655
Na4 O40 2.800308 1_665
Na5 O39 2.323247 1_565
Na5 O24 2.430621 1_555
Na5 O41 2.478002 1_555
Na5 O56 2.535513 1_565
Na5 O5 2.698241 1_565
Na6 O40 2.289289 1_555
Na6 O54 2.493382 1_555
Na6 O25 2.551375 1_555
Na6 O18 2.751088 1_556
Na6 O39 2.757572 1_455
Na6 O3 2.804101 1_555
Na6 O35 2.952719 1_555
Na7 O0 2.299882 1_555
Na7 O38 2.353952 1_555
Na7 O57 2.551172 1_555
Na7 O29 2.570359 1_545
Na7 O36 2.638480 1_445
Na7 O31 2.848249 1_545
Na8 O36 2.281671 1_555
Na8 O1 2.285069 1_555
Na8 O58 2.564712 1_555
Na8 O37 2.659924 1_565
Na8 O32 2.896813 1_555
Na9 O38 2.349538 1_555
Na9 O43 2.435694 1_555
Na9 O42 2.452224 1_455
Na9 O44 2.652199 1_445
Na9 O36 2.751355 1_445
Na9 O37 2.927706 1_455
Na10 O39 2.605257 1_455
Na10 O41 2.616076 1_445
Na10 O40 2.623980 1_555
Na10 O47 2.659671 1_556
Na10 O45 2.745016 1_446
Na10 O46 2.765000 1_456
Na11 O50 2.298112 1_555
Na11 O55 2.672509 1_555
Na11 O49 2.782721 1_555
Na11 O48 2.798095 1_555
Na11 O54 2.811741 1_555
Na11 O56 2.960823 1_555
Na12 O53 2.278656 1_555
Na12 O51 2.329927 1_555
Na12 O58 2.667770 1_555
Na12 O57 2.862215 1_555
Na12 O52 2.926281 1_555
Na13 O62 2.279131 1_555
Na13 O67 2.632854 1_555
Na13 O60 2.695145 1_555
Na13 O61 2.701530 1_555
Na13 O66 2.805488 1_555
Na13 O68 2.851038 1_555
Na14 O70 2.391455 1_555
Na14 O69 2.532764 1_555
Na14 O65 2.606166 1_555
Na14 O71 2.749880 1_555
Na14 O63 2.761007 1_555
Ca0 O0 2.162317 1_555
Ca0 O1 2.202657 1_445
Ca0 O2 2.259931 1_455
Ca0 O36 2.267974 1_445
Ca0 O38 2.280832 1_555
Ca0 O37 2.395003 1_455
Ca1 O4 2.219536 1_545
Ca1 O40 2.270809 1_655
Ca1 O41 2.284348 1_545
Ca1 O39 2.300354 1_555
Ca1 O3 2.339774 1_655
Ca1 O5 2.356266 1_555
Ca2 O8 2.204665 1_555
Ca2 O7 2.404018 1_565
Ca2 O43 2.443230 1_565
Ca2 O44 2.479039 1_455
Ca2 O6 2.479539 1_455
Ca2 O42 2.512133 1_465
Ca3 O50 2.192306 1_555
Ca3 O12 2.193370 1_555
Ca3 O14 2.254892 1_555
Ca3 O13 2.302255 1_555
Ca3 O48 2.339733 1_555
Ca3 O49 2.385291 1_555
Ca4 O16 2.151343 1_555
Ca4 O17 2.167826 1_555
Ca4 O53 2.243772 1_555
Ca4 O51 2.287227 1_555
Ca4 O15 2.292746 1_555
Ca4 O52 2.438000 1_555
Ca5 O24 2.153029 1_554
Ca5 O26 2.201434 1_554
Ca5 O25 2.250402 1_554
Ca5 O62 2.301140 1_555
Ca5 O60 2.397866 1_555
Ca5 O61 2.405356 1_555
Ca6 O28 2.122222 1_555
Ca6 O29 2.133911 1_555
Ca6 O65 2.309843 1_555
Ca6 O27 2.317001 1_555
Ca6 O64 2.352279 1_555
Ca6 O63 2.353593 1_555
Nb0 O9 1.901669 1_555
Nb0 O46 1.936523 1_565
Nb0 O11 1.989246 1_655
Nb0 O45 2.053477 1_555
Nb0 O47 2.295276 1_665
Nb0 O10 2.304862 1_665
Nb1 O20 1.927209 1_556
Nb1 O56 1.931617 1_555
Nb1 O55 1.952508 1_555
Nb1 O54 2.047487 1_555
Nb1 O18 2.197104 1_556
Nb1 O19 2.386381 1_556
Nb2 O59 1.893469 1_555
Nb2 O58 1.944434 1_555
Nb2 O22 2.011046 1_555
Nb2 O23 2.090353 1_555
Nb2 O21 2.125278 1_555
Nb2 O57 2.186186 1_555
Nb3 O32 1.953721 1_555
Nb3 O30 1.960148 1_555
Nb3 O66 2.026011 1_555
Nb3 O67 2.052015 1_555
Nb3 O68 2.071745 1_555
Nb3 O31 2.331469 1_555
Nb4 O33 1.890170 1_555
Nb4 O34 1.921963 1_555
Nb4 O70 1.961514 1_555
Nb4 O35 2.011480 1_555
Nb4 O71 2.322321 1_555
Nb4 O69 2.353636 1_555
O0 Si0 1.591157 1_545
O1 Si1 1.582666 1_555
O2 S0 1.454054 1_655
O3 S1 1.472114 1_555
O4 Si2 1.613504 1_655
O5 S2 1.476757 1_545
O6 S2 1.477880 1_555
O7 S1 1.474772 1_555
O8 Si2 1.637787 1_555
O9 Si1 1.776742 1_555
O10 S0 1.492203 1_555
O11 Si0 1.729493 1_555
O12 S3 1.464254 1_555
O13 S4 1.473634 1_555
O14 S5 1.465974 1_555
O15 S6 1.462569 1_555
O16 Si3 1.584370 1_555
O17 S7 1.454112 1_555
O18 S7 1.542611 1_555
O19 S6 1.496014 1_555
O20 Si3 1.763663 1_555
O21 S4 1.546327 1_555
O22 S5 1.581505 1_555
O23 S3 1.541198 1_555
O24 Si4 1.582588 1_555
O25 Si5 1.572605 1_555
O26 Si6 1.577937 1_555
O27 S8 1.451625 1_555
O28 Si7 1.563886 1_555
O29 Si8 1.579686 1_555
O30 Si8 1.736677 1_555
O31 S8 1.524271 1_555
O32 Si7 1.737267 1_555
O33 Si5 1.746250 1_555
O34 Si6 1.747503 1_555
O35 Si4 1.743658 1_555
O36 Si8 1.603397 1_655
O37 S8 1.459592 1_545
O38 Si7 1.595236 1_555
O39 Si5 1.598747 1_655
O40 Si6 1.599334 1_545
O41 Si4 1.613347 1_555
O42 S3 1.476344 1_555
O43 S4 1.481609 1_555
O44 S5 1.474394 1_555
O45 S6 1.562037 1_555
O46 Si3 1.722117 1_555
O47 S7 1.510023 1_555
O48 S2 1.494466 1_545
O49 S1 1.511078 1_555
O50 Si2 1.628512 1_655
O51 Si1 1.600042 1_555
O52 S0 1.475310 1_655
O53 Si0 1.604409 1_545
O54 Si4 1.692723 1_555
O55 Si5 1.699779 1_655
O56 Si6 1.713177 1_545
O57 S8 1.540496 1_545
O58 Si7 1.761139 1_555
O59 Si8 1.720382 1_655
O60 S7 1.456427 1_555
O61 S6 1.456340 1_455
O62 Si3 1.592580 1_565
O63 S4 1.471255 1_565
O64 S5 1.457300 1_555
O65 S3 1.473299 1_455
O66 Si0 1.710777 1_555
O67 Si1 1.678397 1_555
O68 S0 1.538351 1_555
O69 S1 1.506019 1_555
O70 Si2 1.728357 1_555
O71 S2 1.518839 1_555
