# generated using pymatgen
data_Ba3MgTi2O7
_symmetry_space_group_name_H-M   'P 1'
_cell_length_a   4.09606013
_cell_length_b   12.93212544
_cell_length_c   5.84776282
_cell_angle_alpha   99.78852226
_cell_angle_beta   44.41530769
_cell_angle_gamma   106.07046676
_symmetry_Int_Tables_number   1
_chemical_formula_structural   Ba3MgTi2O7
_chemical_formula_sum   'Ba3 Mg1 Ti2 O7'
_cell_volume   208.13855501
_cell_formula_units_Z   1
loop_
 _symmetry_equiv_pos_site_id
 _symmetry_equiv_pos_as_xyz
  1  'x, y, z'
loop_
 _atom_site_type_symbol
 _atom_site_label
 _atom_site_symmetry_multiplicity
 _atom_site_fract_x
 _atom_site_fract_y
 _atom_site_fract_z
 _atom_site_occupancy
  Ba  Ba0  1  0.13124070  0.62965147  0.95065848  1
  Ba  Ba1  1  0.43459733  0.93234535  0.90949619  1
  Ba  Ba2  1  0.89984045  0.39918261  0.47671067  1
  Mg  Mg0  1  0.61427966  0.11185922  0.36377832  1
  Ti  Ti0  1  0.28235651  0.78012152  0.42680732  1
  Ti  Ti1  1  0.74856771  0.24830299  0.96826692  1
  O  O0  1  0.12393953  0.62304900  0.46260491  1
  O  O1  1  0.79440380  0.78272780  0.43126267  1
  O  O2  1  0.24240544  0.23292495  0.52249519  1
  O  O3  1  0.22656360  0.23403301  0.03087503  1
  O  O4  1  0.77372897  0.78275588  0.94187597  1
  O  O5  1  0.45219056  0.95114434  0.42816608  1
  O  O6  1  0.90795474  0.40592186  0.00868625  1
loop_
_geom_bond_atom_site_label_1
_geom_bond_atom_site_label_2
_geom_bond_distance
_geom_bond_site_symmetry_2
Ba0 O6 2.783567 1_456
Ba0 O1 2.793213 1_456
Ba0 O1 2.793512 1_555
Ba0 O4 2.793794 1_555
Ba0 O4 2.795460 1_455
Ba0 O0 2.862042 1_555
Ba0 O0 2.866579 1_655
Ba0 O0 2.870440 1_456
Ba0 O0 2.988022 1_556
Ba1 O1 2.754562 1_555
Ba1 O4 2.756613 1_455
Ba1 O4 2.774139 1_555
Ba1 O1 2.774530 1_456
Ba1 O5 2.814261 1_555
Ba1 O5 2.875157 1_655
Ba1 O5 2.882056 1_456
Ba1 O5 3.052140 1_556
Ba2 O6 2.729258 1_555
Ba2 O0 2.780750 1_655
Ba2 O3 2.802542 1_655
Ba2 O2 2.811829 1_555
Ba2 O6 2.870522 1_456
Ba2 O6 2.878578 1_655
Ba2 O3 2.998964 1_556
Ba2 O2 3.010985 1_655
Ba2 O6 3.120915 1_556
Mg0 O5 2.011780 1_545
Mg0 O2 2.106995 1_555
Mg0 O3 2.110264 1_655
O0 Ti0 1.952378 1_555
O1 Ti0 1.989763 1_655
O1 Ti0 2.106996 1_555
O2 Ti1 1.854759 1_455
O2 Ti1 2.287730 1_554
O3 Ti1 1.850955 1_554
O3 Ti1 2.290963 1_454
O4 Ti0 1.983667 1_556
O4 Ti0 2.110378 1_655
O5 Ti0 2.127363 1_555
O6 Ti1 1.989175 1_554
