# generated using pymatgen
data_Na3InSn3(PO4)6
_symmetry_space_group_name_H-M   'P 1'
_cell_length_a   8.83385325
_cell_length_b   8.83532708
_cell_length_c   22.86079715
_cell_angle_alpha   89.92351213
_cell_angle_beta   90.05654942
_cell_angle_gamma   120.20539103
_symmetry_Int_Tables_number   1
_chemical_formula_structural   Na3InSn3(PO4)6
_chemical_formula_sum   'Na9 In3 Sn9 P18 O72'
_cell_volume   1542.02648195
_cell_formula_units_Z   3
loop_
 _symmetry_equiv_pos_site_id
 _symmetry_equiv_pos_as_xyz
  1  'x, y, z'
loop_
 _atom_site_type_symbol
 _atom_site_label
 _atom_site_symmetry_multiplicity
 _atom_site_fract_x
 _atom_site_fract_y
 _atom_site_fract_z
 _atom_site_occupancy
  Na  Na0  1  0.36534659  0.36100075  0.24781092  1
  Na  Na1  1  0.63598517  0.63233411  0.74888235  1
  Na  Na2  1  0.96927601  0.29879328  0.41503607  1
  Na  Na3  1  0.00066301  0.99227180  0.49981916  1
  Na  Na4  1  0.99991626  0.99995693  0.00157422  1
  Na  Na5  1  0.66731024  0.32552431  0.83395754  1
  Na  Na6  1  0.66709662  0.33352968  0.32996208  1
  Na  Na7  1  0.33285930  0.67457561  0.16454704  1
  Na  Na8  1  0.32581046  0.66760807  0.66512360  1
  In  In0  1  0.99871097  0.99223036  0.35145707  1
  In  In1  1  0.66708964  0.32747314  0.68411505  1
  In  In2  1  0.67261195  0.33294385  0.18220858  1
  Sn  Sn0  1  0.00172901  0.00171266  0.85419152  1
  Sn  Sn1  1  0.00171392  0.00213288  0.64695948  1
  Sn  Sn2  1  0.99782141  0.99779271  0.14713786  1
  Sn  Sn3  1  0.66663832  0.33335348  0.98253636  1
  Sn  Sn4  1  0.66195336  0.33385201  0.48328991  1
  Sn  Sn5  1  0.33329045  0.66646589  0.01844141  1
  Sn  Sn6  1  0.33534486  0.66846323  0.51949187  1
  Sn  Sn7  1  0.33474879  0.67350941  0.31427436  1
  Sn  Sn8  1  0.32874011  0.66730331  0.81625723  1
  P  P0  1  0.29249539  0.99847188  0.24955841  1
  P  P1  1  0.70527467  0.70612342  0.24995919  1
  P  P2  1  0.99872492  0.29334797  0.25173425  1
  P  P3  1  0.28936782  0.29170646  0.75099326  1
  P  P4  1  0.00383439  0.71196279  0.75056346  1
  P  P5  1  0.70977316  0.00020622  0.75143335  1
  P  P6  1  0.96238380  0.33347765  0.58238376  1
  P  P7  1  0.37043522  0.03726237  0.58326147  1
  P  P8  1  0.66672818  0.62896345  0.58424314  1
  P  P9  1  0.96233304  0.62921293  0.08228332  1
  P  P10  1  0.66693477  0.03808697  0.08245680  1
  P  P11  1  0.37104281  0.33319705  0.08340094  1
  P  P12  1  0.62561373  0.66509953  0.91619029  1
  P  P13  1  0.03901223  0.37385842  0.91701055  1
  P  P14  1  0.33475760  0.96047128  0.91688037  1
  P  P15  1  0.62362575  0.95967326  0.41799782  1
  P  P16  1  0.33747916  0.37776882  0.41679833  1
  P  P17  1  0.04188698  0.66604385  0.41840247  1
  O  O0  1  0.21860476  0.03692616  0.30484073  1
  O  O1  1  0.81103013  0.78076652  0.30591874  1
  O  O2  1  0.97375131  0.19173862  0.30914240  1
  O  O3  1  0.20762829  0.17908014  0.80591862  1
  O  O4  1  0.96693570  0.79301994  0.80511522  1
  O  O5  1  0.82172512  0.02697205  0.80632820  1
  O  O6  1  0.78651961  0.95821769  0.69629467  1
  O  O7  1  0.17687272  0.21357760  0.69536249  1
  O  O8  1  0.03581444  0.82439265  0.69493397  1
  O  O9  1  0.78509432  0.82097214  0.19490072  1
  O  O10  1  0.04031176  0.21207554  0.19763119  1
  O  O11  1  0.17751842  0.96526536  0.19448042  1
  O  O12  1  0.88638248  0.36886067  0.63692600  1
  O  O13  1  0.47954609  0.11120656  0.63830157  1
  O  O14  1  0.63339233  0.52380877  0.64091478  1
  O  O15  1  0.89009329  0.52116957  0.13777544  1
  O  O16  1  0.63018515  0.10994291  0.13781520  1
  O  O17  1  0.47526161  0.36689958  0.14030579  1
  O  O18  1  0.45372093  0.30038230  0.02852201  1
  O  O19  1  0.84809547  0.54884296  0.02678458  1
  O  O20  1  0.70102194  0.15194925  0.02690698  1
  O  O21  1  0.44963172  0.15081209  0.52729756  1
  O  O22  1  0.70028970  0.54720818  0.52903918  1
  O  O23  1  0.85210963  0.30091181  0.52518148  1
  O  O24  1  0.54201230  0.69875477  0.96996733  1
  O  O25  1  0.15531363  0.45537492  0.97139998  1
  O  O26  1  0.29997566  0.84448478  0.97130483  1
  O  O27  1  0.54191529  0.84659541  0.47254299  1
  O  O28  1  0.30167940  0.46157599  0.47046638  1
  O  O29  1  0.15409694  0.69342644  0.47288556  1
  O  O30  1  0.11853702  0.62410264  0.36327920  1
  O  O31  1  0.51139344  0.88174065  0.36241466  1
  O  O32  1  0.36781825  0.48693407  0.35987382  1
  O  O33  1  0.11733509  0.48561564  0.86097366  1
  O  O34  1  0.36877615  0.88265489  0.86096348  1
  O  O35  1  0.51713417  0.63370677  0.85881351  1
  O  O36  1  0.02196942  0.82742841  0.41426191  1
  O  O37  1  0.80981067  0.98672657  0.41391289  1
  O  O38  1  0.16892956  0.19772327  0.41316219  1
  O  O39  1  0.02280419  0.19127737  0.91136843  1
  O  O40  1  0.16827998  0.97647742  0.91102891  1
  O  O41  1  0.80893041  0.83166782  0.91088146  1
  O  O42  1  0.97799304  0.16629327  0.58752929  1
  O  O43  1  0.18680864  0.02030978  0.58768298  1
  O  O44  1  0.83347748  0.81319753  0.58816667  1
  O  O45  1  0.97965656  0.81280920  0.08712304  1
  O  O46  1  0.83354443  0.02133838  0.08766787  1
  O  O47  1  0.18656756  0.16665188  0.08784306  1
  O  O48  1  0.68930089  0.16064081  0.74703960  1
  O  O49  1  0.47559373  0.31922694  0.74652790  1
  O  O50  1  0.83521437  0.53166495  0.74609307  1
  O  O51  1  0.67497654  0.51919848  0.24454946  1
  O  O52  1  0.84013135  0.31559201  0.24597254  1
  O  O53  1  0.47349189  0.16462008  0.24403100  1
  O  O54  1  0.64228567  0.49979386  0.92230568  1
  O  O55  1  0.85652006  0.35612287  0.92272029  1
  O  O56  1  0.49965792  0.14373122  0.92269096  1
  O  O57  1  0.64510805  0.14640399  0.42336640  1
  O  O58  1  0.50372436  0.36250524  0.42274871  1
  O  O59  1  0.86023843  0.49268052  0.42370607  1
  O  O60  1  0.35296479  0.49849435  0.07571839  1
  O  O61  1  0.14652657  0.64834510  0.07533226  1
  O  O62  1  0.50211726  0.85311768  0.07538650  1
  O  O63  1  0.35104103  0.85368948  0.57650967  1
  O  O64  1  0.50191613  0.64678257  0.57670209  1
  O  O65  1  0.14687740  0.49738610  0.57599199  1
  O  O66  1  0.30687991  0.83047360  0.25465147  1
  O  O67  1  0.51751268  0.68532086  0.25471228  1
  O  O68  1  0.17476834  0.47559970  0.25569819  1
  O  O69  1  0.31140131  0.47907041  0.75646022  1
  O  O70  1  0.16936456  0.69507822  0.75617822  1
  O  O71  1  0.52776354  0.82619927  0.75679713  1
loop_
_geom_bond_atom_site_label_1
_geom_bond_atom_site_label_2
_geom_bond_distance
_geom_bond_site_symmetry_2
Na0 O51 2.365158 1_555
Na0 O53 2.366244 1_555
Na0 O68 2.368183 1_555
Na0 O67 2.483512 1_555
Na0 O17 2.634201 1_555
Na0 O10 2.736371 1_555
Na0 O32 2.790091 1_555
Na0 O0 2.799520 1_555
Na1 O50 2.338400 1_555
Na1 O71 2.351477 1_555
Na1 O49 2.391592 1_555
Na1 O69 2.485714 1_555
Na1 O14 2.645028 1_555
Na1 O35 2.726959 1_555
Na1 O6 2.765001 1_555
Na1 O4 2.834872 1_555
Na2 O38 2.344125 1_655
Na2 O59 2.358648 1_555
Na2 O37 2.383118 1_545
Na2 O57 2.484033 1_555
Na2 O2 2.607774 1_555
Na2 O23 2.727047 1_555
Na2 O30 2.753244 1_655
Na2 O28 2.836339 1_655
Na3 O36 2.503276 1_555
Na3 O43 2.526839 1_565
Na3 O44 2.531763 1_455
Na3 O37 2.571443 1_455
Na3 O38 2.590437 1_565
Na3 O42 2.596823 1_465
Na4 O45 2.507038 1_555
Na4 O47 2.516977 1_665
Na4 O46 2.521008 1_565
Na4 O39 2.607384 1_664
Na4 O41 2.614014 1_554
Na4 O40 2.618667 1_654
Na5 O48 2.530113 1_555
Na5 O56 2.547909 1_555
Na5 O55 2.554317 1_555
Na5 O49 2.600963 1_555
Na5 O50 2.613387 1_555
Na5 O54 2.617352 1_555
Na6 O52 2.509711 1_555
Na6 O51 2.526929 1_555
Na6 O53 2.538560 1_555
Na6 O57 2.645550 1_555
Na6 O58 2.650855 1_555
Na6 O59 2.658541 1_555
Na7 O62 2.550060 1_555
Na7 O66 2.553337 1_555
Na7 O61 2.556087 1_555
Na7 O67 2.599354 1_555
Na7 O60 2.619685 1_555
Na7 O68 2.628446 1_555
Na8 O63 2.545545 1_555
Na8 O65 2.553846 1_555
Na8 O70 2.578062 1_555
Na8 O64 2.614433 1_555
Na8 O69 2.632264 1_555
Na8 O71 2.650165 1_555
In0 O1 2.051399 1_555
In0 O0 2.072699 1_665
In0 O2 2.116048 1_565
In0 O36 2.125717 1_655
In0 O37 2.179090 1_555
In0 O38 2.191567 1_665
In1 O13 2.075908 1_555
In1 O12 2.083393 1_555
In1 O48 2.136661 1_555
In1 O14 2.141851 1_555
In1 O50 2.185109 1_555
In1 O49 2.187060 1_555
In2 O15 2.067123 1_555
In2 O16 2.077020 1_555
In2 O52 2.135822 1_555
In2 O17 2.137560 1_555
In2 O53 2.161102 1_555
In2 O51 2.170531 1_555
O0 P0 1.537729 1_545
O1 P1 1.524541 1_555
O2 P2 1.541153 1_555
O3 P3 1.537430 1_555
O3 Sn0 2.028120 1_555
O4 P4 1.553212 1_655
O4 Sn0 2.046370 1_665
O5 P5 1.540088 1_555
O5 Sn0 2.031887 1_655
O6 P5 1.562745 1_565
O6 Sn1 2.072981 1_665
O7 P3 1.546306 1_555
O7 Sn1 2.049942 1_555
O8 P4 1.548818 1_555
O8 Sn1 2.056807 1_565
O9 P1 1.545813 1_555
O9 Sn2 2.051776 1_555
O10 P2 1.564947 1_455
O10 Sn2 2.085114 1_445
O11 P0 1.549750 1_555
O11 Sn2 2.056368 1_455
O12 P6 1.522196 1_555
O13 P7 1.518312 1_555
O14 P8 1.533173 1_555
O15 P9 1.520932 1_555
O16 P10 1.523278 1_555
O17 P11 1.533431 1_555
O18 P11 1.551549 1_555
O18 Sn3 2.044384 1_554
O19 P9 1.552799 1_555
O19 Sn3 2.036845 1_554
O20 P10 1.551755 1_555
O20 Sn3 2.043260 1_554
O21 P7 1.557202 1_555
O21 Sn4 2.023056 1_555
O22 P8 1.555951 1_555
O22 Sn4 2.030820 1_555
O23 P6 1.567884 1_555
O23 Sn4 2.076443 1_555
O24 P12 1.539143 1_555
O24 Sn5 2.045233 1_556
O25 P13 1.541295 1_555
O25 Sn5 2.039206 1_556
O26 P14 1.540488 1_555
O26 Sn5 2.045060 1_556
O27 P15 1.531953 1_555
O27 Sn6 2.017043 1_555
O28 P16 1.546734 1_555
O28 Sn6 2.035597 1_555
O29 P17 1.532809 1_555
O29 Sn6 2.024539 1_555
O30 P17 1.561798 1_555
O30 Sn7 2.063402 1_555
O31 P15 1.544227 1_555
O31 Sn7 2.035756 1_555
O32 P16 1.559753 1_555
O32 Sn7 2.090164 1_555
O33 P13 1.551043 1_555
O33 Sn8 2.022979 1_555
O34 P14 1.551797 1_555
O34 Sn8 2.029102 1_555
O35 P12 1.564226 1_555
O35 Sn8 2.073019 1_555
O36 P17 1.524832 1_555
O37 P15 1.541319 1_555
O38 P16 1.539885 1_555
O39 P13 1.551627 1_555
O39 Sn0 2.059123 1_555
O40 P14 1.552257 1_555
O40 Sn0 2.056266 1_565
O41 P12 1.550778 1_555
O41 Sn0 2.064454 1_665
O42 P6 1.555380 1_555
O42 Sn1 2.072063 1_655
O43 P7 1.555561 1_555
O43 Sn1 2.067663 1_555
O44 P8 1.554030 1_555
O44 Sn1 2.075464 1_665
O45 P9 1.554877 1_555
O45 Sn2 2.078699 1_555
O46 P10 1.555974 1_555
O46 Sn2 2.072849 1_545
O47 P11 1.555102 1_555
O47 Sn2 2.083130 1_445
O48 P5 1.519739 1_555
O49 P3 1.540665 1_555
O50 P4 1.542537 1_655
O51 P1 1.539555 1_555
O52 P2 1.515048 1_555
O53 P0 1.538048 1_545
O54 P12 1.546038 1_555
O54 Sn3 2.101679 1_555
O55 P13 1.544884 1_655
O55 Sn3 2.094816 1_555
O56 P14 1.545393 1_545
O56 Sn3 2.090448 1_555
O57 P15 1.567950 1_545
O57 Sn4 2.097456 1_555
O58 P16 1.546697 1_555
O58 Sn4 2.069944 1_555
O59 P17 1.569251 1_655
O59 Sn4 2.102177 1_555
O60 P11 1.556669 1_555
O60 Sn5 2.049665 1_555
O61 P9 1.557270 1_455
O61 Sn5 2.043771 1_555
O62 P10 1.556548 1_565
O62 Sn5 2.041013 1_555
O63 P7 1.550754 1_565
O63 Sn6 2.042921 1_555
O64 P8 1.550580 1_555
O64 Sn6 2.047335 1_555
O65 P6 1.549140 1_455
O65 Sn6 2.047388 1_555
O66 P0 1.556342 1_555
O66 Sn7 2.044402 1_555
O67 P1 1.578069 1_555
O67 Sn7 2.075094 1_555
O68 P2 1.581139 1_455
O68 Sn7 2.089025 1_555
O69 P3 1.571693 1_555
O69 Sn8 2.099383 1_555
O70 P4 1.547913 1_555
O70 Sn8 2.066811 1_555
O71 P5 1.573680 1_565
O71 Sn8 2.103751 1_555
