# generated using pymatgen
data_LuSeClO3
_symmetry_space_group_name_H-M   'P 1'
_cell_length_a   6.86236900
_cell_length_b   7.23855000
_cell_length_c   8.71198300
_cell_angle_alpha   90.00000000
_cell_angle_beta   90.00000000
_cell_angle_gamma   90.00000000
_symmetry_Int_Tables_number   1
_chemical_formula_structural   LuSeClO3
_chemical_formula_sum   'Lu4 Se4 Cl4 O12'
_cell_volume   432.75556855
_cell_formula_units_Z   4
loop_
 _symmetry_equiv_pos_site_id
 _symmetry_equiv_pos_as_xyz
  1  'x, y, z'
loop_
 _atom_site_type_symbol
 _atom_site_label
 _atom_site_symmetry_multiplicity
 _atom_site_fract_x
 _atom_site_fract_y
 _atom_site_fract_z
 _atom_site_occupancy
  Lu  Lu0  1  0.25000000  0.59989400  0.96077600  1
  Lu  Lu1  1  0.75000000  0.40010600  0.03922400  1
  Lu  Lu2  1  0.25000000  0.09989400  0.53922400  1
  Lu  Lu3  1  0.75000000  0.90010600  0.46077600  1
  Se  Se0  1  0.25000000  0.70864800  0.36557100  1
  Se  Se1  1  0.25000000  0.20864800  0.13442900  1
  Se  Se2  1  0.75000000  0.79135200  0.86557100  1
  Se  Se3  1  0.75000000  0.29135200  0.63442900  1
  Cl  Cl0  1  0.25000000  0.93547200  0.81555700  1
  Cl  Cl1  1  0.75000000  0.56452800  0.31555700  1
  Cl  Cl2  1  0.75000000  0.06452800  0.18444300  1
  Cl  Cl3  1  0.25000000  0.43547200  0.68444300  1
  O  O0  1  0.92950400  0.13869400  0.56774100  1
  O  O1  1  0.42950400  0.86130600  0.43225900  1
  O  O2  1  0.57049600  0.63869400  0.93225900  1
  O  O3  1  0.07049600  0.36130600  0.06774100  1
  O  O4  1  0.07049600  0.86130600  0.43225900  1
  O  O5  1  0.57049600  0.13869400  0.56774100  1
  O  O6  1  0.42950400  0.36130600  0.06774100  1
  O  O7  1  0.75000000  0.74920000  0.67374200  1
  O  O8  1  0.25000000  0.75080000  0.17374200  1
  O  O9  1  0.75000000  0.24920000  0.82625800  1
  O  O10  1  0.25000000  0.25080000  0.32625800  1
  O  O11  1  0.92950400  0.63869400  0.93225900  1
loop_
_geom_bond_atom_site_label_1
_geom_bond_atom_site_label_2
_geom_bond_distance
_geom_bond_site_symmetry_2
Lu0 O8 2.153034 1_556
Lu0 O11 2.231097 1_455
Lu0 O2 2.231097 1_555
Lu0 O6 2.316985 1_556
Lu0 O3 2.316985 1_556
Lu1 O9 2.153034 1_554
Lu1 O6 2.231097 1_555
Lu1 O3 2.231097 1_655
Lu1 O11 2.316985 1_554
Lu1 O2 2.316985 1_554
Lu2 O10 2.153034 1_555
Lu2 O5 2.231097 1_555
Lu2 O0 2.231097 1_455
Lu2 O1 2.316985 1_545
Lu2 O4 2.316985 1_545
Lu3 O7 2.153034 1_555
Lu3 O4 2.231097 1_655
Lu3 O1 2.231097 1_555
Lu3 O0 2.316985 1_565
Lu3 O5 2.316985 1_565
Cl0 Lu2 2.685542 1_565
Cl0 Lu0 2.738816 1_555
Cl1 Lu1 2.685542 1_555
Cl1 Lu3 2.738816 1_555
Cl2 Lu3 2.685542 1_545
Cl2 Lu1 2.738816 1_555
Cl3 Lu0 2.685542 1_555
Cl3 Lu2 2.738816 1_555
O0 Se3 1.753854 1_555
O1 Se0 1.753854 1_555
O2 Se2 1.753854 1_555
O3 Se1 1.753854 1_555
O4 Se0 1.753854 1_555
O5 Se3 1.753854 1_555
O6 Se1 1.753854 1_555
O7 Se2 1.698836 1_555
O8 Se0 1.698836 1_555
O9 Se3 1.698836 1_555
O10 Se1 1.698836 1_555
O11 Se2 1.753854 1_555
