# generated using pymatgen
data_Na14Ca4Nb4Si9(SO16)3
_symmetry_space_group_name_H-M   'P 1'
_cell_length_a   18.66157624
_cell_length_b   9.33727340
_cell_length_c   22.60706578
_cell_angle_alpha   89.89348689
_cell_angle_beta   90.23287215
_cell_angle_gamma   120.07110231
_symmetry_Int_Tables_number   1
_chemical_formula_structural   Na14Ca4Nb4Si9(SO16)3
_chemical_formula_sum   'Na42 Ca12 Nb12 Si27 S9 O144'
_cell_volume   3409.00804021
_cell_formula_units_Z   3
loop_
 _symmetry_equiv_pos_site_id
 _symmetry_equiv_pos_as_xyz
  1  'x, y, z'
loop_
 _atom_site_type_symbol
 _atom_site_label
 _atom_site_symmetry_multiplicity
 _atom_site_fract_x
 _atom_site_fract_y
 _atom_site_fract_z
 _atom_site_occupancy
  Na  Na0  1  0.82318199  0.01088076  0.25832708  1
  Na  Na1  1  0.16895278  0.33987087  0.25026936  1
  Na  Na2  1  0.65977093  0.34746379  0.25300778  1
  Na  Na3  1  0.01186314  0.66381621  0.24357248  1
  Na  Na4  1  0.51194340  0.65319707  0.25526301  1
  Na  Na5  1  0.32282987  0.63413257  0.76220184  1
  Na  Na6  1  0.01159718  0.36911346  0.75965373  1
  Na  Na7  1  0.50961432  0.36315575  0.74722137  1
  Na  Na8  1  0.16189347  0.97510997  0.75799757  1
  Na  Na9  1  0.66334258  0.98518062  0.75552525  1
  Na  Na10  1  0.14361387  0.30550329  0.59030442  1
  Na  Na11  1  0.64181874  0.30790354  0.59206876  1
  Na  Na12  1  0.34256896  0.99697607  0.58028558  1
  Na  Na13  1  0.83418337  0.97080282  0.59432516  1
  Na  Na14  1  0.14463692  0.98047771  0.09285571  1
  Na  Na15  1  0.63738962  0.97439181  0.09014040  1
  Na  Na16  1  0.34479514  0.69586312  0.09142654  1
  Na  Na17  1  0.84065243  0.69268836  0.07459799  1
  Na  Na18  1  0.47839913  0.66158799  0.92124806  1
  Na  Na19  1  0.97601165  0.64490783  0.92194268  1
  Na  Na20  1  0.35288055  0.05171707  0.91758798  1
  Na  Na21  1  0.84868480  0.03768603  0.91708730  1
  Na  Na22  1  0.16955153  0.29038766  0.92899594  1
  Na  Na23  1  0.66737844  0.27774106  0.91865546  1
  Na  Na24  1  0.47663536  0.30946402  0.42025707  1
  Na  Na25  1  0.98202917  0.30049840  0.40617394  1
  Na  Na26  1  0.17044053  0.06073733  0.41331308  1
  Na  Na27  1  0.66906856  0.04794800  0.42694150  1
  Na  Na28  1  0.35001282  0.65852238  0.41212065  1
  Na  Na29  1  0.85045421  0.65333086  0.41319549  1
  Na  Na30  1  0.01773555  0.98962104  0.49857669  1
  Na  Na31  1  0.51105408  0.00625585  0.50407327  1
  Na  Na32  1  0.01225491  0.01977678  0.00757577  1
  Na  Na33  1  0.51461354  0.02260627  0.00515948  1
  Na  Na34  1  0.33172630  0.33016090  0.84273944  1
  Na  Na35  1  0.83096172  0.33588922  0.84475043  1
  Na  Na36  1  0.33021158  0.32134004  0.33731024  1
  Na  Na37  1  0.83257910  0.33582267  0.33758748  1
  Na  Na38  1  0.17257298  0.67254319  0.16870066  1
  Na  Na39  1  0.64569190  0.63761410  0.16873036  1
  Na  Na40  1  0.14878138  0.65327727  0.67279137  1
  Na  Na41  1  0.66804794  0.66962416  0.67217918  1
  Ca  Ca0  1  0.00860321  0.01903724  0.34854823  1
  Ca  Ca1  1  0.50696552  0.99364440  0.85090609  1
  Ca  Ca2  1  0.99772209  0.99523596  0.65341772  1
  Ca  Ca3  1  0.50880867  0.99883241  0.65263646  1
  Ca  Ca4  1  0.00926501  0.01697452  0.15362970  1
  Ca  Ca5  1  0.49698043  0.99767780  0.15235338  1
  Ca  Ca6  1  0.33654359  0.33275813  0.98559388  1
  Ca  Ca7  1  0.83081689  0.33057278  0.98113959  1
  Ca  Ca8  1  0.33051532  0.33051084  0.48016917  1
  Ca  Ca9  1  0.83603445  0.34032411  0.48377091  1
  Ca  Ca10  1  0.66485053  0.66638828  0.31762148  1
  Ca  Ca11  1  0.16415882  0.66244161  0.81829844  1
  Nb  Nb0  1  0.50299599  0.01297190  0.34958128  1
  Nb  Nb1  1  0.00124219  0.99065334  0.85048673  1
  Nb  Nb2  1  0.33165485  0.32148518  0.68204635  1
  Nb  Nb3  1  0.83211069  0.32291869  0.69115395  1
  Nb  Nb4  1  0.33905207  0.35583848  0.18748258  1
  Nb  Nb5  1  0.83279494  0.34204211  0.18124012  1
  Nb  Nb6  1  0.15140276  0.64775268  0.01940614  1
  Nb  Nb7  1  0.65997903  0.64953846  0.01959188  1
  Nb  Nb8  1  0.16943380  0.68581298  0.51552151  1
  Nb  Nb9  1  0.65095174  0.65481961  0.51996338  1
  Nb  Nb10  1  0.16736790  0.66878036  0.31375021  1
  Nb  Nb11  1  0.66723043  0.66567379  0.81583186  1
  Si  Si0  1  0.15866831  0.00391815  0.24880922  1
  Si  Si1  1  0.65482746  0.01055379  0.24751267  1
  Si  Si2  1  0.34957175  0.70237548  0.24916750  1
  Si  Si3  1  0.99578330  0.30816015  0.25440637  1
  Si  Si4  1  0.49791272  0.30191405  0.24785151  1
  Si  Si5  1  0.15265284  0.29784756  0.74611649  1
  Si  Si6  1  0.65428640  0.31207093  0.74942853  1
  Si  Si7  1  0.99920371  0.69701201  0.74754481  1
  Si  Si8  1  0.49557165  0.68362574  0.75402278  1
  Si  Si9  1  0.84893788  0.99559996  0.74862131  1
  Si  Si10  1  0.48057335  0.32748159  0.57740544  1
  Si  Si11  1  0.18025885  0.02311233  0.57776742  1
  Si  Si12  1  0.68881878  0.02948459  0.57948107  1
  Si  Si13  1  0.48655656  0.63159204  0.07869746  1
  Si  Si14  1  0.98117485  0.63496538  0.07740452  1
  Si  Si15  1  0.18822118  0.34705245  0.07948852  1
  Si  Si16  1  0.68155516  0.33821629  0.07737522  1
  Si  Si17  1  0.81444312  0.67554267  0.91776402  1
  Si  Si18  1  0.01630809  0.35129120  0.91200402  1
  Si  Si19  1  0.51961327  0.36623513  0.91342155  1
  Si  Si20  1  0.16577171  0.96040808  0.91245385  1
  Si  Si21  1  0.66301070  0.94775474  0.91930555  1
  Si  Si22  1  0.31695870  0.95933794  0.41374330  1
  Si  Si23  1  0.16178134  0.37765452  0.42044654  1
  Si  Si24  1  0.66585630  0.37147661  0.41364942  1
  Si  Si25  1  0.02081407  0.67228506  0.41287518  1
  Si  Si26  1  0.51637328  0.68152413  0.41218709  1
  S  S0  1  0.84954828  0.69264443  0.24705432  1
  S  S1  1  0.34930378  0.00527841  0.74616843  1
  S  S2  1  0.98735576  0.34699791  0.58367400  1
  S  S3  1  0.32563800  0.62400296  0.58628253  1
  S  S4  1  0.82777826  0.62571700  0.58095280  1
  S  S5  1  0.32569036  0.02572817  0.08012017  1
  S  S6  1  0.82786102  0.03156758  0.08667100  1
  S  S7  1  0.31414849  0.67631463  0.91986924  1
  S  S8  1  0.81553785  0.95218026  0.42172192  1
  O  O0  1  0.12695934  0.06165724  0.30632439  1
  O  O1  1  0.59972826  0.03794765  0.30459322  1
  O  O2  1  0.41848988  0.81294391  0.30316718  1
  O  O3  1  0.89685783  0.76747685  0.30223809  1
  O  O4  1  0.48834378  0.18028425  0.30997776  1
  O  O5  1  0.96425323  0.19576509  0.31411063  1
  O  O6  1  0.09774878  0.15931997  0.80201077  1
  O  O7  1  0.62433309  0.18793501  0.80549548  1
  O  O8  1  0.46252774  0.73142310  0.81297554  1
  O  O9  1  0.98698889  0.79433336  0.80846826  1
  O  O10  1  0.39763840  0.02544834  0.80057244  1
  O  O11  1  0.91823272  0.02555591  0.80165874  1
  O  O12  1  0.39102536  0.99459914  0.69272809  1
  O  O13  1  0.87611347  0.96907852  0.68517055  1
  O  O14  1  0.09785889  0.23806719  0.68709105  1
  O  O15  1  0.59561460  0.24900365  0.69181141  1
  O  O16  1  0.02196946  0.82383710  0.69524132  1
  O  O17  1  0.52449325  0.81956380  0.70294033  1
  O  O18  1  0.37352260  0.78589566  0.18615487  1
  O  O19  1  0.89201038  0.79040204  0.19448340  1
  O  O20  1  0.02389794  0.22597030  0.20475869  1
  O  O21  1  0.52165092  0.21754167  0.19748393  1
  O  O22  1  0.09425191  0.93641801  0.19390189  1
  O  O23  1  0.59780169  0.96052813  0.19010747  1
  O  O24  1  0.42416307  0.34130215  0.63411236  1
  O  O25  1  0.94226365  0.35727897  0.63723294  1
  O  O26  1  0.24880075  0.13970855  0.63398460  1
  O  O27  1  0.75592245  0.14110599  0.63687891  1
  O  O28  1  0.32034820  0.51311762  0.63801419  1
  O  O29  1  0.82617743  0.51594187  0.62981280  1
  O  O30  1  0.43223113  0.50909861  0.13760748  1
  O  O31  1  0.92622077  0.50836051  0.13478409  1
  O  O32  1  0.32126038  0.12870602  0.12858618  1
  O  O33  1  0.82458947  0.13445382  0.13882578  1
  O  O34  1  0.25516264  0.37457006  0.13643268  1
  O  O35  1  0.75093258  0.35650019  0.13389151  1
  O  O36  1  0.22722745  0.33086555  0.01920476  1
  O  O37  1  0.72120308  0.32087161  0.01731703  1
  O  O38  1  0.44201678  0.55247741  0.01771932  1
  O  O39  1  0.93577687  0.55788582  0.01647634  1
  O  O40  1  0.33312026  0.10283934  0.02173001  1
  O  O41  1  0.83850444  0.12061113  0.03155990  1
  O  O42  1  0.22201273  0.11296365  0.51688911  1
  O  O43  1  0.73202970  0.12237977  0.51978908  1
  O  O44  1  0.33599152  0.55555205  0.53089773  1
  O  O45  1  0.83625078  0.56329355  0.52311448  1
  O  O46  1  0.43553267  0.31372348  0.51622706  1
  O  O47  1  0.94493994  0.34553721  0.52896169  1
  O  O48  1  0.26168100  0.67683320  0.97049812  1
  O  O49  1  0.77060385  0.69430921  0.97958789  1
  O  O50  1  0.07978343  0.46904151  0.97112198  1
  O  O51  1  0.58154447  0.48091519  0.97202058  1
  O  O52  1  0.15511667  0.82629836  0.96945357  1
  O  O53  1  0.66684303  0.83733584  0.97751634  1
  O  O54  1  0.26908311  0.85090116  0.47764142  1
  O  O55  1  0.76318781  0.84790537  0.47295257  1
  O  O56  1  0.16569833  0.49299093  0.48078934  1
  O  O57  1  0.65575356  0.48491477  0.47115877  1
  O  O58  1  0.08483976  0.68587734  0.47188793  1
  O  O59  1  0.57959569  0.69044830  0.47243775  1
  O  O60  1  0.07592385  0.67581900  0.35630905  1
  O  O61  1  0.55719205  0.65724754  0.35473776  1
  O  O62  1  0.25301607  0.83376077  0.36400197  1
  O  O63  1  0.77185486  0.88437932  0.36538667  1
  O  O64  1  0.15508847  0.48358133  0.36391002  1
  O  O65  1  0.68554068  0.47431840  0.35371449  1
  O  O66  1  0.05568310  0.45507874  0.85372202  1
  O  O67  1  0.57685300  0.47710577  0.85709870  1
  O  O68  1  0.18226931  0.89540802  0.85171679  1
  O  O69  1  0.65706632  0.83415449  0.86059043  1
  O  O70  1  0.27338127  0.66674233  0.86287232  1
  O  O71  1  0.75310186  0.67413054  0.86437729  1
  O  O72  1  0.01185302  0.83412275  0.41719954  1
  O  O73  1  0.52126203  0.86414764  0.41415893  1
  O  O74  1  0.40524590  0.96032233  0.41014424  1
  O  O75  1  0.89447019  0.95014270  0.42431653  1
  O  O76  1  0.07744585  0.20088920  0.42579011  1
  O  O77  1  0.57488652  0.19320105  0.41292369  1
  O  O78  1  0.02126273  0.17811750  0.91293573  1
  O  O79  1  0.51295103  0.18810224  0.91742660  1
  O  O80  1  0.07424709  0.95635108  0.91120113  1
  O  O81  1  0.57875031  0.95509351  0.92507957  1
  O  O82  1  0.39463529  0.83322841  0.92409950  1
  O  O83  1  0.90492139  0.84983972  0.90814101  1
  O  O84  1  0.49275933  0.16960947  0.58564058  1
  O  O85  1  0.99286373  0.19429933  0.58551686  1
  O  O86  1  0.09251742  0.01201813  0.58512245  1
  O  O87  1  0.60028127  0.01638166  0.58603040  1
  O  O88  1  0.39212291  0.79441468  0.59478020  1
  O  O89  1  0.89442447  0.79901663  0.58682825  1
  O  O90  1  0.49585863  0.81155582  0.08521790  1
  O  O91  1  0.99322370  0.81700648  0.08560076  1
  O  O92  1  0.39291057  0.98840138  0.08651118  1
  O  O93  1  0.89445982  0.99451255  0.09546033  1
  O  O94  1  0.09894575  0.18518155  0.08785454  1
  O  O95  1  0.59297075  0.18015820  0.08727110  1
  O  O96  1  0.34489742  0.16547194  0.74309029  1
  O  O97  1  0.84670864  0.17843253  0.74599554  1
  O  O98  1  0.24245291  0.29174945  0.74009255  1
  O  O99  1  0.74617138  0.32429449  0.73271539  1
  O  O100  1  0.41340276  0.49610126  0.73462621  1
  O  O101  1  0.91282671  0.51285906  0.73763883  1
  O  O102  1  0.34790719  0.51814346  0.24761318  1
  O  O103  1  0.84586656  0.52510993  0.24340164  1
  O  O104  1  0.41128081  0.31054283  0.24087386  1
  O  O105  1  0.91415445  0.33231646  0.23674258  1
  O  O106  1  0.24690631  0.17364501  0.23074083  1
  O  O107  1  0.74409961  0.19628576  0.24193931  1
  O  O108  1  0.32523972  0.52997571  0.92256985  1
  O  O109  1  0.82439194  0.51504867  0.91166021  1
  O  O110  1  0.43137456  0.35893811  0.91005070  1
  O  O111  1  0.92432636  0.31897787  0.92041811  1
  O  O112  1  0.24102019  0.14755184  0.92126049  1
  O  O113  1  0.74691480  0.12369678  0.91283059  1
  O  O114  1  0.32531588  0.13802848  0.40957124  1
  O  O115  1  0.83161805  0.12467810  0.42591871  1
  O  O116  1  0.24571158  0.37007289  0.41405584  1
  O  O117  1  0.74119802  0.33458467  0.42309563  1
  O  O118  1  0.42453665  0.52911443  0.42052741  1
  O  O119  1  0.93372457  0.49908338  0.41267696  1
  O  O120  1  0.18596176  0.52810358  0.07673040  1
  O  O121  1  0.68905215  0.52586596  0.08107973  1
  O  O122  1  0.07524169  0.64665846  0.07804890  1
  O  O123  1  0.58137480  0.64694934  0.07988651  1
  O  O124  1  0.24260500  0.86272799  0.08172739  1
  O  O125  1  0.74534867  0.87375741  0.08919384  1
  O  O126  1  0.18312194  0.84253494  0.58194988  1
  O  O127  1  0.68625716  0.84364907  0.57897665  1
  O  O128  1  0.24337468  0.61999005  0.58760713  1
  O  O129  1  0.74459594  0.61996299  0.58330444  1
  O  O130  1  0.07371729  0.49658823  0.58493393  1
  O  O131  1  0.57516762  0.50345413  0.57881052  1
  O  O132  1  0.17542136  0.84603286  0.26061755  1
  O  O133  1  0.68367861  0.87725242  0.25938677  1
  O  O134  1  0.25233718  0.64496385  0.26541467  1
  O  O135  1  0.76446411  0.66371420  0.24835269  1
  O  O136  1  0.07582297  0.50207516  0.25964705  1
  O  O137  1  0.57346196  0.49080251  0.25326781  1
  O  O138  1  0.18175303  0.48929608  0.75792528  1
  O  O139  1  0.67274510  0.50298095  0.75958089  1
  O  O140  1  0.07340767  0.65627270  0.75307925  1
  O  O141  1  0.57505795  0.64909531  0.75989713  1
  O  O142  1  0.26428278  0.86395971  0.74773168  1
  O  O143  1  0.75183263  0.85702733  0.76279719  1
loop_
_geom_bond_atom_site_label_1
_geom_bond_atom_site_label_2
_geom_bond_distance
_geom_bond_site_symmetry_2
Na0 O133 2.253882 1_545
Na0 O5 2.632074 1_555
Na0 O105 2.650144 1_555
Na0 O63 2.654226 1_545
Na0 O107 2.804595 1_555
Na0 O135 2.863652 1_545
Na0 O33 2.930724 1_555
Na1 O134 2.492153 1_555
Na1 O20 2.571686 1_555
Na1 O0 2.631360 1_555
Na1 O106 2.643989 1_555
Na1 O136 2.828658 1_555
Na1 O102 2.890934 1_555
Na1 O34 2.970590 1_555
Na1 O64 2.972182 1_555
Na2 O65 2.499564 1_555
Na2 O21 2.556706 1_555
Na2 O137 2.558514 1_555
Na2 O107 2.600475 1_555
Na2 O135 2.601303 1_555
Na2 O1 2.778614 1_555
Na3 O136 2.374527 1_555
Na3 O22 2.487003 1_555
Na3 O132 2.673597 1_555
Na3 O103 2.693098 1_455
Na3 O105 2.696835 1_455
Na3 O60 2.789144 1_555
Na3 O31 2.892457 1_455
Na4 O137 2.316129 1_555
Na4 O61 2.392610 1_555
Na4 O102 2.668121 1_555
Na4 O104 2.801236 1_555
Na4 O133 2.817024 1_555
Na4 O23 2.892643 1_555
Na4 O2 3.011226 1_555
Na4 O30 3.012191 1_555
Na5 O138 2.280309 1_555
Na5 O70 2.534766 1_555
Na5 O8 2.558389 1_555
Na5 O100 2.664824 1_555
Na5 O98 2.813240 1_555
Na5 O142 2.872289 1_555
Na5 O28 3.019832 1_555
Na6 O66 2.274631 1_555
Na6 O140 2.332885 1_555
Na6 O138 2.788131 1_555
Na7 O141 2.331156 1_555
Na7 O15 2.648873 1_555
Na7 O139 2.657365 1_555
Na7 O100 2.659663 1_555
Na7 O96 2.678953 1_555
Na7 O67 2.742875 1_555
Na8 O68 2.336355 1_555
Na8 O140 2.583648 1_555
Na8 O98 2.590620 1_565
Na8 O142 2.602640 1_555
Na8 O16 2.665976 1_555
Na8 O6 2.731450 1_565
Na9 O143 2.482583 1_555
Na9 O17 2.546539 1_555
Na9 O7 2.604999 1_565
Na9 O141 2.718609 1_555
Na9 O69 2.732808 1_555
Na9 O99 2.788686 1_565
Na10 O14 2.320438 1_555
Na10 O86 2.411249 1_555
Na10 O85 2.464696 1_455
Na10 O128 2.571789 1_555
Na10 O130 2.688822 1_555
Na10 O56 2.938254 1_555
Na11 O15 2.380424 1_555
Na11 O84 2.413306 1_555
Na11 O87 2.432055 1_555
Na11 O129 2.570681 1_555
Na11 O131 2.691053 1_555
Na12 O84 2.436998 1_565
Na12 O88 2.507564 1_555
Na12 O126 2.575915 1_555
Na12 O54 2.690174 1_555
Na12 O12 2.698362 1_555
Na13 O13 2.197693 1_555
Na13 O89 2.382238 1_555
Na13 O127 2.420696 1_555
Na13 O85 2.640793 1_565
Na13 O27 2.816306 1_565
Na13 O129 2.845994 1_555
Na13 O55 3.009910 1_555
Na14 O22 2.428569 1_555
Na14 O91 2.452702 1_455
Na14 O94 2.454561 1_565
Na14 O124 2.575602 1_555
Na14 O122 2.731250 1_555
Na14 O32 2.973710 1_565
Na15 O90 2.296487 1_555
Na15 O23 2.363603 1_555
Na15 O95 2.444963 1_565
Na15 O125 2.615331 1_555
Na15 O123 2.700381 1_555
Na16 O18 2.264062 1_555
Na16 O92 2.412778 1_555
Na16 O90 2.466711 1_555
Na16 O120 2.586656 1_555
Na16 O34 2.794056 1_555
Na17 O121 2.457206 1_555
Na17 O91 2.489811 1_555
Na17 O49 2.513842 1_554
Na17 O93 2.517580 1_555
Na17 O19 2.865006 1_555
Na18 O38 2.359229 1_556
Na18 O81 2.425162 1_555
Na18 O108 2.482125 1_555
Na18 O110 2.517073 1_555
Na18 O8 2.585729 1_555
Na18 O82 2.743709 1_555
Na19 O39 2.277389 1_556
Na19 O109 2.467315 1_555
Na19 O80 2.556324 1_655
Na19 O111 2.692884 1_555
Na19 O83 2.838539 1_555
Na19 O9 2.876464 1_555
Na20 O40 2.468688 1_556
Na20 O110 2.488539 1_555
Na20 O82 2.526226 1_545
Na20 O79 2.594752 1_555
Na20 O112 2.653093 1_555
Na20 O10 2.825158 1_555
Na21 O111 2.276207 1_555
Na21 O113 2.405808 1_555
Na21 O83 2.463012 1_545
Na21 O41 2.737090 1_556
Na21 O78 2.805395 1_655
Na21 O11 2.946650 1_555
Na22 O36 2.244470 1_556
Na22 O112 2.318080 1_555
Na22 O78 2.444335 1_555
Na22 O108 2.637349 1_555
Na22 O80 2.737302 1_545
Na23 O37 2.392855 1_556
Na23 O113 2.535954 1_555
Na23 O79 2.566829 1_555
Na23 O81 2.615251 1_545
Na23 O109 2.648838 1_555
Na23 O7 2.684982 1_555
Na24 O46 2.311172 1_555
Na24 O114 2.461875 1_555
Na24 O77 2.562346 1_555
Na24 O118 2.673953 1_555
Na24 O4 2.828048 1_555
Na24 O74 2.846534 1_545
Na25 O5 2.252768 1_555
Na25 O76 2.425708 1_655
Na25 O119 2.439179 1_555
Na25 O115 2.482461 1_555
Na26 O42 2.482439 1_555
Na26 O116 2.500008 1_555
Na26 O0 2.549422 1_555
Na26 O114 2.606299 1_555
Na26 O72 2.639963 1_545
Na26 O76 2.661780 1_555
Na27 O117 2.317827 1_555
Na27 O43 2.331613 1_555
Na27 O73 2.426618 1_545
Na27 O77 2.722452 1_555
Na27 O115 2.745554 1_555
Na28 O118 2.260827 1_555
Na28 O116 2.406479 1_555
Na28 O74 2.468711 1_555
Na28 O73 2.784164 1_555
Na28 O2 2.818656 1_555
Na28 O44 2.819074 1_555
Na29 O75 2.477541 1_555
Na29 O45 2.593505 1_555
Na29 O119 2.594677 1_555
Na29 O72 2.613944 1_655
Na29 O117 2.642927 1_555
Na29 O3 2.694588 1_555
Na30 O72 2.313699 1_555
Na30 O86 2.346531 1_565
Na30 O76 2.375014 1_565
Na30 O75 2.714204 1_455
Na30 O89 2.891913 1_455
Na30 O85 2.939601 1_465
Na31 O87 2.456068 1_555
Na31 O73 2.489039 1_545
Na31 O84 2.526024 1_555
Na31 O77 2.575833 1_555
Na31 O74 2.777135 1_545
Na31 O88 2.943790 1_545
Na32 O94 2.403928 1_555
Na32 O91 2.478107 1_445
Na32 O78 2.556137 1_554
Na32 O80 2.673557 1_544
Na32 O93 2.889536 1_445
Na32 O83 2.893884 1_444
Na33 O95 2.362320 1_555
Na33 O81 2.425977 1_544
Na33 O79 2.521669 1_554
Na33 O90 2.565596 1_545
Na33 O82 2.740265 1_544
Na33 O92 2.819119 1_545
Na34 O110 2.307306 1_555
Na34 O112 2.458540 1_555
Na34 O108 2.644478 1_555
Na34 O98 2.768019 1_555
Na34 O96 2.810024 1_555
Na34 O100 2.889145 1_555
Na35 O109 2.306081 1_555
Na35 O113 2.376641 1_555
Na35 O111 2.497473 1_555
Na35 O97 2.771771 1_555
Na35 O101 2.900573 1_555
Na35 O99 2.954187 1_555
Na36 O114 2.332554 1_555
Na36 O116 2.539318 1_555
Na36 O118 2.639297 1_555
Na36 O102 2.642201 1_555
Na36 O104 2.689326 1_555
Na36 O106 2.820705 1_555
Na37 O119 2.422460 1_555
Na37 O117 2.579151 1_555
Na37 O107 2.631552 1_555
Na37 O103 2.696322 1_555
Na37 O105 2.755812 1_555
Na37 O115 2.797331 1_555
Na38 O124 2.531716 1_555
Na38 O120 2.560600 1_555
Na38 O132 2.621118 1_555
Na38 O122 2.662540 1_555
Na38 O136 2.675565 1_555
Na38 O134 2.723610 1_555
Na39 O137 2.346910 1_555
Na39 O123 2.359425 1_555
Na39 O121 2.556710 1_555
Na39 O125 2.730665 1_555
Na39 O135 2.764079 1_555
Na39 O133 2.850479 1_555
Na40 O140 2.309576 1_555
Na40 O130 2.445834 1_555
Na40 O126 2.571638 1_555
Na40 O142 2.668231 1_555
Na40 O138 2.711222 1_555
Na40 O128 2.738799 1_555
Na41 O139 2.541026 1_555
Na41 O127 2.575882 1_555
Na41 O141 2.583375 1_555
Na41 O143 2.636070 1_555
Na41 O129 2.642563 1_555
Na41 O131 2.674781 1_555
Ca0 O0 2.254512 1_555
Ca0 O5 2.317925 1_455
Ca0 O76 2.321553 1_555
Ca0 O72 2.342593 1_545
Ca0 O3 2.458586 1_445
Ca0 O75 2.556717 1_445
Ca1 O7 2.274125 1_565
Ca1 O81 2.280065 1_555
Ca1 O79 2.318689 1_565
Ca1 O8 2.320572 1_555
Ca1 O10 2.476392 1_565
Ca1 O82 2.499640 1_555
Ca2 O16 2.092041 1_655
Ca2 O14 2.227393 1_665
Ca2 O13 2.276462 1_555
Ca2 O86 2.298113 1_665
Ca2 O89 2.405462 1_555
Ca2 O85 2.444690 1_565
Ca3 O17 2.159175 1_555
Ca3 O87 2.224359 1_565
Ca3 O15 2.251423 1_565
Ca3 O84 2.322139 1_565
Ca3 O12 2.362908 1_555
Ca3 O88 2.432388 1_555
Ca4 O20 2.165771 1_555
Ca4 O94 2.203667 1_555
Ca4 O22 2.256381 1_545
Ca4 O91 2.321189 1_445
Ca4 O19 2.342368 1_445
Ca4 O93 2.427180 1_445
Ca5 O21 2.127021 1_565
Ca5 O23 2.242470 1_555
Ca5 O95 2.286956 1_565
Ca5 O18 2.290268 1_555
Ca5 O90 2.301575 1_555
Ca5 O92 2.409007 1_555
Ca6 O38 2.134889 1_556
Ca6 O36 2.171576 1_556
Ca6 O40 2.266436 1_556
Ca6 O112 2.276502 1_555
Ca6 O110 2.386980 1_555
Ca6 O108 2.417156 1_555
Ca7 O37 2.165430 1_556
Ca7 O39 2.192487 1_556
Ca7 O111 2.269498 1_555
Ca7 O41 2.331418 1_556
Ca7 O113 2.351185 1_555
Ca7 O109 2.375699 1_555
Ca8 O42 2.191060 1_555
Ca8 O46 2.196412 1_555
Ca8 O118 2.254911 1_555
Ca8 O116 2.332270 1_555
Ca8 O44 2.352402 1_555
Ca8 O114 2.370961 1_555
Ca9 O43 2.149375 1_555
Ca9 O117 2.214064 1_555
Ca9 O47 2.249601 1_555
Ca9 O45 2.263620 1_555
Ca9 O119 2.326121 1_555
Ca9 O115 2.369449 1_555
Ca10 O61 2.142275 1_555
Ca10 O65 2.171894 1_555
Ca10 O137 2.213528 1_555
Ca10 O133 2.243672 1_555
Ca10 O63 2.283406 1_555
Ca10 O135 2.445173 1_555
Ca11 O66 2.137191 1_555
Ca11 O68 2.164272 1_555
Ca11 O140 2.219824 1_555
Ca11 O70 2.252329 1_555
Ca11 O138 2.264553 1_555
Ca11 O142 2.463019 1_555
Nb0 O4 1.933354 1_555
Nb0 O1 1.984841 1_555
Nb0 O2 2.029393 1_545
Nb0 O77 2.100768 1_555
Nb0 O74 2.136106 1_545
Nb0 O73 2.154454 1_545
Nb1 O9 1.961914 1_455
Nb1 O6 2.022858 1_565
Nb1 O11 2.053063 1_465
Nb1 O80 2.064728 1_555
Nb1 O83 2.074317 1_455
Nb1 O78 2.132174 1_565
Nb2 O26 1.953278 1_555
Nb2 O24 1.970570 1_555
Nb2 O100 1.974432 1_555
Nb2 O98 2.030610 1_555
Nb2 O96 2.106692 1_555
Nb2 O28 2.146422 1_555
Nb3 O99 1.867612 1_555
Nb3 O97 1.946991 1_555
Nb3 O101 1.958454 1_555
Nb3 O27 1.995916 1_555
Nb3 O25 2.274308 1_555
Nb3 O29 2.317992 1_555
Nb4 O30 1.964447 1_555
Nb4 O106 1.970596 1_555
Nb4 O102 1.981608 1_555
Nb4 O104 2.002198 1_555
Nb4 O34 2.017992 1_555
Nb4 O32 2.383713 1_555
Nb5 O35 1.921111 1_555
Nb5 O31 1.962100 1_555
Nb5 O105 2.002530 1_555
Nb5 O107 2.056436 1_555
Nb5 O33 2.099566 1_555
Nb5 O103 2.131786 1_555
Nb6 O50 1.876749 1_554
Nb6 O122 1.943826 1_555
Nb6 O52 1.984249 1_554
Nb6 O120 2.013301 1_555
Nb6 O48 2.233568 1_554
Nb6 O124 2.340565 1_555
Nb7 O51 1.860643 1_554
Nb7 O53 1.940543 1_554
Nb7 O123 1.997726 1_555
Nb7 O121 2.043495 1_555
Nb7 O49 2.098437 1_554
Nb7 O125 2.458948 1_555
Nb8 O58 1.858357 1_555
Nb8 O54 1.924314 1_555
Nb8 O56 1.934419 1_555
Nb8 O126 2.022959 1_555
Nb8 O130 2.371596 1_555
Nb8 O128 2.401117 1_555
Nb9 O59 1.862587 1_555
Nb9 O131 1.942341 1_555
Nb9 O57 1.972805 1_555
Nb9 O127 2.039634 1_555
Nb9 O55 2.234626 1_555
Nb9 O129 2.399638 1_555
Nb10 O62 1.934574 1_555
Nb10 O64 1.981518 1_555
Nb10 O132 1.987314 1_555
Nb10 O60 1.992009 1_555
Nb10 O134 2.031302 1_555
Nb10 O136 2.040254 1_555
Nb11 O71 1.907324 1_555
Nb11 O69 1.959886 1_555
Nb11 O67 1.961053 1_555
Nb11 O139 2.024929 1_555
Nb11 O141 2.073131 1_555
Nb11 O143 2.074363 1_555
O0 Si0 1.630959 1_555
O1 Si1 1.750279 1_555
O2 Si2 1.694559 1_555
O3 S0 1.483281 1_555
O4 Si4 1.757029 1_555
O5 Si3 1.628416 1_555
O6 Si5 1.730860 1_555
O7 Si6 1.616641 1_555
O8 Si8 1.624916 1_555
O9 Si7 1.729009 1_555
O10 S1 1.477622 1_555
O11 Si9 1.677584 1_545
O12 S1 1.470245 1_565
O13 Si9 1.584049 1_555
O14 Si5 1.599202 1_555
O15 Si6 1.608526 1_555
O16 Si7 1.573422 1_455
O17 Si8 1.596590 1_555
O18 Si2 1.577645 1_555
O19 S0 1.467083 1_555
O20 Si3 1.592316 1_455
O21 Si4 1.571819 1_555
O22 Si0 1.616978 1_565
O23 Si1 1.589890 1_565
O24 Si10 1.707639 1_555
O25 S2 1.507664 1_555
O26 Si11 1.741533 1_555
O27 Si12 1.738401 1_555
O28 S3 1.530840 1_555
O29 S4 1.495657 1_555
O30 Si13 1.718398 1_555
O31 Si14 1.709399 1_555
O32 S5 1.488689 1_555
O33 S6 1.542854 1_555
O34 Si15 1.717654 1_555
O35 Si16 1.761722 1_555
O36 Si15 1.590322 1_555
O37 Si16 1.595680 1_555
O38 Si13 1.586214 1_555
O39 Si14 1.586232 1_555
O40 S5 1.475813 1_555
O41 S6 1.454527 1_555
O42 Si11 1.598266 1_555
O43 Si12 1.589718 1_555
O44 S3 1.463646 1_555
O45 S4 1.473533 1_555
O46 Si10 1.587092 1_555
O47 S2 1.462156 1_555
O48 S7 1.510839 1_555
O49 Si17 1.675506 1_555
O50 Si18 1.756587 1_555
O51 Si19 1.729136 1_555
O52 Si20 1.736268 1_555
O53 Si21 1.693509 1_555
O54 Si22 1.734536 1_555
O55 S8 1.515099 1_555
O56 Si23 1.718094 1_555
O57 Si24 1.747855 1_555
O58 Si25 1.749070 1_555
O59 Si26 1.772870 1_555
O60 Si25 1.634199 1_555
O61 Si26 1.581326 1_555
O62 Si22 1.629447 1_555
O63 S8 1.471288 1_555
O64 Si23 1.656882 1_555
O65 Si24 1.593313 1_555
O66 Si18 1.582594 1_555
O67 Si19 1.652864 1_555
O68 Si20 1.594459 1_555
O69 Si21 1.668973 1_555
O70 S7 1.473570 1_555
O71 Si17 1.655572 1_555
O72 Si25 1.604662 1_555
O73 Si26 1.662042 1_555
O74 Si22 1.645336 1_555
O75 S8 1.483548 1_555
O76 Si23 1.616575 1_555
O77 Si24 1.679603 1_555
O78 Si18 1.665314 1_555
O79 Si19 1.606996 1_555
O80 Si20 1.689453 1_555
O81 Si21 1.613679 1_555
O82 S7 1.485192 1_555
O83 Si17 1.671743 1_555
O84 Si10 1.610562 1_555
O85 S2 1.480468 1_555
O86 Si11 1.597374 1_555
O87 Si12 1.601924 1_555
O88 S3 1.459071 1_555
O89 S4 1.471562 1_555
O90 Si13 1.607451 1_555
O91 Si14 1.609944 1_555
O92 S5 1.467121 1_565
O93 S6 1.460313 1_565
O94 Si15 1.604317 1_555
O95 Si16 1.586743 1_555
O96 S1 1.540053 1_555
O97 Si9 1.729282 1_545
O98 Si5 1.711035 1_555
O99 Si6 1.704413 1_555
O100 Si8 1.707680 1_555
O101 Si7 1.681058 1_555
O102 Si2 1.705297 1_555
O103 S0 1.533410 1_555
O104 Si4 1.665374 1_555
O105 Si3 1.694078 1_555
O106 Si0 1.666654 1_555
O107 Si1 1.704224 1_555
O108 S7 1.482109 1_555
O109 Si17 1.605940 1_555
O110 Si19 1.615099 1_555
O111 Si18 1.599091 1_655
O112 Si20 1.613988 1_545
O113 Si21 1.610932 1_545
O114 Si22 1.598691 1_545
O115 S8 1.486352 1_545
O116 Si23 1.609995 1_555
O117 Si24 1.619795 1_555
O118 Si26 1.598555 1_555
O119 Si25 1.619498 1_655
O120 Si15 1.713055 1_555
O121 Si16 1.688597 1_555
O122 Si14 1.703353 1_455
O123 Si13 1.702239 1_555
O124 S5 1.535300 1_565
O125 S6 1.507352 1_565
O126 Si11 1.715919 1_565
O127 Si12 1.711802 1_565
O128 S3 1.517152 1_555
O129 S4 1.527242 1_555
O130 S2 1.514268 1_455
O131 Si10 1.705865 1_555
O132 Si0 1.673939 1_565
O133 Si1 1.606335 1_565
O134 Si2 1.656727 1_555
O135 S0 1.471554 1_555
O136 Si3 1.677064 1_455
O137 Si4 1.618900 1_555
O138 Si5 1.609179 1_555
O139 Si6 1.653614 1_555
O140 Si7 1.613761 1_455
O141 Si8 1.673145 1_555
O142 S1 1.470366 1_565
O143 Si9 1.647462 1_555
