# generated using pymatgen
data_CeAlPd
_symmetry_space_group_name_H-M   'P 1'
_cell_length_a   7.19776475
_cell_length_b   7.17393088
_cell_length_c   4.20891694
_cell_angle_alpha   90.00000000
_cell_angle_beta   90.00000000
_cell_angle_gamma   119.89053040
_symmetry_Int_Tables_number   1
_chemical_formula_structural   CeAlPd
_chemical_formula_sum   'Ce3 Al3 Pd3'
_cell_volume   188.42296451
_cell_formula_units_Z   3
loop_
 _symmetry_equiv_pos_site_id
 _symmetry_equiv_pos_as_xyz
  1  'x, y, z'
loop_
 _atom_site_type_symbol
 _atom_site_label
 _atom_site_symmetry_multiplicity
 _atom_site_fract_x
 _atom_site_fract_y
 _atom_site_fract_z
 _atom_site_occupancy
  Ce  Ce0  1  0.00000000  0.57707551  0.50000000  1
  Ce  Ce1  1  0.42184484  0.42348686  0.50000000  1
  Ce  Ce2  1  0.57815516  0.00164302  0.50000000  1
  Al  Al0  1  -0.00000000  0.22698472  -0.00000000  1
  Al  Al1  1  0.77274623  0.77246000  0.00000000  1
  Al  Al2  1  0.22725377  0.99971377  -0.00000000  1
  Pd  Pd0  1  -0.00000000  -0.00211584  0.50000000  1
  Pd  Pd1  1  0.32880307  0.66477752  0.00000000  1
  Pd  Pd2  1  0.67119693  0.33597245  -0.00000000  1
loop_
_geom_bond_atom_site_label_1
_geom_bond_atom_site_label_2
_geom_bond_distance
_geom_bond_site_symmetry_2
Ce0 Pd1 2.990239 1_555
Ce0 Pd1 2.990239 1_556
Ce0 Pd2 2.990241 1_456
Ce0 Pd2 2.990241 1_455
Ce0 Pd0 3.018852 1_565
Ce1 Pd1 3.004830 1_556
Ce1 Pd1 3.004830 1_555
Ce1 Pd2 3.027739 1_555
Ce1 Pd2 3.027739 1_556
Ce1 Pd0 3.049864 1_555
Ce2 Pd2 3.004815 1_556
Ce2 Pd2 3.004815 1_555
Ce2 Pd1 3.027735 1_546
Ce2 Pd1 3.027735 1_545
Ce2 Pd0 3.049868 1_655
Al0 Pd0 2.670207 1_555
Al0 Pd0 2.670207 1_554
Al0 Al1 2.827004 1_445
Al0 Al2 2.827005 1_545
Al0 Pd2 2.838419 1_455
Al0 Pd1 2.838429 1_555
Al0 Ce2 3.371825 1_455
Al0 Ce2 3.371825 1_454
Al0 Ce1 3.371825 1_555
Al0 Ce1 3.371825 1_554
Al1 Pd0 2.661409 1_664
Al1 Pd0 2.661409 1_665
Al1 Al2 2.836269 1_655
Al1 Pd2 2.838713 1_555
Al1 Pd1 2.889125 1_555
Al1 Ce1 3.282271 1_555
Al1 Ce1 3.282271 1_554
Al1 Ce0 3.369595 1_655
Al1 Ce0 3.369595 1_654
Al1 Ce2 3.374742 1_565
Al1 Ce2 3.374742 1_564
Al2 Pd0 2.661409 1_565
Al2 Pd0 2.661409 1_564
Al2 Pd1 2.838699 1_555
Al2 Pd2 2.889121 1_565
Al2 Ce2 3.282268 1_564
Al2 Ce2 3.282268 1_565
Al2 Ce0 3.369595 1_554
Al2 Ce0 3.369595 1_555
Al2 Ce1 3.374737 1_565
Al2 Ce1 3.374737 1_564
