# generated using pymatgen
data_NbCrGe
_symmetry_space_group_name_H-M   'P 1'
_cell_length_a   6.76981632
_cell_length_b   6.76981632
_cell_length_c   3.37734000
_cell_angle_alpha   90.00000000
_cell_angle_beta   90.00000000
_cell_angle_gamma   120.00000309
_symmetry_Int_Tables_number   1
_chemical_formula_structural   NbCrGe
_chemical_formula_sum   'Nb3 Cr3 Ge3'
_cell_volume   134.04763999
_cell_formula_units_Z   3
loop_
 _symmetry_equiv_pos_site_id
 _symmetry_equiv_pos_as_xyz
  1  'x, y, z'
loop_
 _atom_site_type_symbol
 _atom_site_label
 _atom_site_symmetry_multiplicity
 _atom_site_fract_x
 _atom_site_fract_y
 _atom_site_fract_z
 _atom_site_occupancy
  Nb  Nb0  1  0.00000000  0.59579100  0.50000000  1
  Nb  Nb1  1  0.59579100  0.00000000  0.50000000  1
  Nb  Nb2  1  0.40420900  0.40420900  0.50000000  1
  Cr  Cr0  1  0.25627400  0.00000000  0.00000000  1
  Cr  Cr1  1  0.74372600  0.74372600  0.00000000  1
  Cr  Cr2  1  0.00000000  0.25627400  0.00000000  1
  Ge  Ge0  1  0.66666700  0.33333300  0.00000000  1
  Ge  Ge1  1  0.00000000  0.00000000  0.50000000  1
  Ge  Ge2  1  0.33333300  0.66666700  0.00000000  1
loop_
_geom_bond_atom_site_label_1
_geom_bond_atom_site_label_2
_geom_bond_distance
_geom_bond_site_symmetry_2
Cr0 Ge1 2.421070 1_554
Cr0 Ge1 2.421070 1_555
Cr0 Ge2 2.557659 1_545
Cr0 Ge0 2.557663 1_555
Cr0 Nb1 2.852115 1_555
Cr0 Nb1 2.852115 1_554
Cr0 Nb0 2.932931 1_544
Cr0 Nb0 2.932931 1_545
Cr0 Nb2 2.932931 1_555
Cr0 Nb2 2.932931 1_554
Cr1 Ge1 2.421070 1_664
Cr1 Ge1 2.421070 1_665
Cr1 Ge0 2.557665 1_555
Cr1 Ge2 2.557665 1_555
Cr1 Nb2 2.852115 1_555
Cr1 Nb2 2.852115 1_554
Cr1 Nb1 2.932931 1_565
Cr1 Nb1 2.932931 1_564
Cr1 Nb0 2.932931 1_655
Cr1 Nb0 2.932931 1_654
Cr2 Ge1 2.421070 1_554
Cr2 Ge1 2.421070 1_555
Cr2 Ge0 2.557659 1_455
Cr2 Ge2 2.557663 1_555
Cr2 Nb0 2.852115 1_554
Cr2 Nb0 2.852115 1_555
Cr2 Nb1 2.932931 1_455
Cr2 Nb1 2.932931 1_454
Cr2 Nb2 2.932931 1_555
Cr2 Nb2 2.932931 1_554
Ge0 Nb1 2.662955 1_555
Ge0 Nb1 2.662955 1_554
Ge0 Nb0 2.662957 1_655
Ge0 Nb0 2.662957 1_654
Ge0 Nb2 2.662961 1_555
Ge0 Nb2 2.662961 1_554
Ge1 Nb2 2.736421 1_555
Ge1 Nb0 2.736421 1_545
Ge1 Nb1 2.736421 1_455
Ge2 Nb0 2.662955 1_555
Ge2 Nb0 2.662955 1_554
Ge2 Nb1 2.662957 1_565
Ge2 Nb1 2.662957 1_564
Ge2 Nb2 2.662961 1_555
Ge2 Nb2 2.662961 1_554
