# generated using pymatgen
data_MgFe6O7F5
_symmetry_space_group_name_H-M   'P 1'
_cell_length_a   5.18421728
_cell_length_b   7.86871880
_cell_length_c   5.98456289
_cell_angle_alpha   102.05926098
_cell_angle_beta   97.17648758
_cell_angle_gamma   85.08647744
_symmetry_Int_Tables_number   1
_chemical_formula_structural   MgFe6O7F5
_chemical_formula_sum   'Mg1 Fe6 O7 F5'
_cell_volume   236.42485405
_cell_formula_units_Z   1
loop_
 _symmetry_equiv_pos_site_id
 _symmetry_equiv_pos_as_xyz
  1  'x, y, z'
loop_
 _atom_site_type_symbol
 _atom_site_label
 _atom_site_symmetry_multiplicity
 _atom_site_fract_x
 _atom_site_fract_y
 _atom_site_fract_z
 _atom_site_occupancy
  Mg  Mg0  1  0.00849865  0.34657218  0.83862117  1
  Fe  Fe0  1  0.55963603  0.66603540  0.09940421  1
  Fe  Fe1  1  0.56202560  0.04607169  0.46802087  1
  Fe  Fe2  1  0.50849369  0.29875816  0.91185687  1
  Fe  Fe3  1  0.91427622  0.69685701  0.62519278  1
  Fe  Fe4  1  0.01950910  0.32406135  0.35136023  1
  Fe  Fe5  1  0.94550491  0.98354842  0.01242282  1
  O  O0  1  0.76017556  0.77648765  0.91609017  1
  O  O1  1  0.77209353  0.12256505  0.26128820  1
  O  O2  1  0.77597048  0.12790208  0.77742690  1
  O  O3  1  0.67882523  0.79460293  0.41334767  1
  O  O4  1  0.77647323  0.44461783  0.09224421  1
  O  O5  1  0.29273934  0.51920971  0.93829645  1
  O  O6  1  0.29697654  0.21836325  0.60088796  1
  F  F0  1  0.78612000  0.45922674  0.61443414  1
  F  F1  1  0.27418502  0.91001445  0.20269099  1
  F  F2  1  0.23059565  0.20593209  0.06026955  1
  F  F3  1  0.17569500  0.56141557  0.44657970  1
  F  F4  1  0.16220723  0.87275444  0.75051811  1
loop_
_geom_bond_atom_site_label_1
_geom_bond_atom_site_label_2
_geom_bond_distance
_geom_bond_site_symmetry_2
Mg0 O4 2.038084 1_456
Mg0 O5 2.038938 1_555
Mg0 O2 2.128299 1_455
Mg0 O6 2.225300 1_555
Fe0 O5 1.911532 1_554
Fe0 O0 1.969239 1_554
Fe0 O4 1.986543 1_555
Fe0 O3 1.989477 1_555
Fe1 O1 1.959352 1_555
Fe1 O6 1.965130 1_555
Fe1 O3 1.990686 1_545
Fe1 O2 2.045593 1_555
Fe2 O4 1.947677 1_556
Fe2 O5 1.970370 1_555
Fe2 O2 1.971026 1_555
Fe2 O6 2.045242 1_555
Fe3 O3 1.883824 1_555
Fe3 O0 1.966595 1_555
Fe4 O1 2.065950 1_455
Fe4 O6 2.183620 1_555
Fe4 O4 2.194033 1_455
Fe5 O0 1.909813 1_554
Fe5 O1 1.925689 1_565
Fe5 O2 2.056245 1_564
F0 Mg0 1.962232 1_655
F0 Fe3 2.023290 1_555
F0 Fe4 2.151664 1_655
F1 Fe5 2.038737 1_455
F1 Fe1 2.205813 1_565
F1 Fe0 2.345990 1_555
F2 Fe2 2.041816 1_554
F2 Mg0 2.079286 1_554
F2 Fe4 2.172956 1_555
F2 Fe5 2.335891 1_445
F3 Fe3 1.937431 1_455
F3 Fe4 2.041473 1_555
F4 Fe3 1.939180 1_455
F4 Fe5 2.044516 1_456
