# generated using pymatgen
data_Cr2(PO4)3
_symmetry_space_group_name_H-M   'P 1'
_cell_length_a   8.79416025
_cell_length_b   8.79416025
_cell_length_c   8.79415958
_cell_angle_alpha   57.12694763
_cell_angle_beta   57.12694763
_cell_angle_gamma   57.12695031
_symmetry_Int_Tables_number   1
_chemical_formula_structural   Cr2(PO4)3
_chemical_formula_sum   'Cr4 P6 O24'
_cell_volume   449.07620055
_cell_formula_units_Z   2
loop_
 _symmetry_equiv_pos_site_id
 _symmetry_equiv_pos_as_xyz
  1  'x, y, z'
loop_
 _atom_site_type_symbol
 _atom_site_label
 _atom_site_symmetry_multiplicity
 _atom_site_fract_x
 _atom_site_fract_y
 _atom_site_fract_z
 _atom_site_occupancy
  Cr  Cr0  1  0.85862900  0.85862900  0.85862900  1
  Cr  Cr1  1  0.64430300  0.64430300  0.64430300  1
  Cr  Cr2  1  0.35569700  0.35569700  0.35569700  1
  Cr  Cr3  1  0.14137100  0.14137100  0.14137100  1
  P  P0  1  0.03060700  0.46583100  0.75191800  1
  P  P1  1  0.46583100  0.75191800  0.03060700  1
  P  P2  1  0.53416900  0.24808200  0.96939300  1
  P  P3  1  0.96939300  0.53416900  0.24808200  1
  P  P4  1  0.75191800  0.03060700  0.46583100  1
  P  P5  1  0.24808200  0.96939300  0.53416900  1
  O  O0  1  0.26827900  0.90364200  0.09630400  1
  O  O1  1  0.76555000  0.83841300  0.48670800  1
  O  O2  1  0.48670800  0.76555000  0.83841300  1
  O  O3  1  0.83841300  0.48670800  0.76555000  1
  O  O4  1  0.23445000  0.16158700  0.51329200  1
  O  O5  1  0.51329200  0.23445000  0.16158700  1
  O  O6  1  0.16158700  0.51329200  0.23445000  1
  O  O7  1  0.54987100  0.18763500  0.47430900  1
  O  O8  1  0.90364200  0.09630400  0.26827900  1
  O  O9  1  0.79721200  0.00410100  0.62658800  1
  O  O10  1  0.09630400  0.26827900  0.90364200  1
  O  O11  1  0.18763500  0.47430900  0.54987100  1
  O  O12  1  0.47430900  0.54987100  0.18763500  1
  O  O13  1  0.37341200  0.20278800  0.99589900  1
  O  O14  1  0.09635800  0.90369600  0.73172100  1
  O  O15  1  0.99589900  0.37341200  0.20278800  1
  O  O16  1  0.00410100  0.62658800  0.79721200  1
  O  O17  1  0.45012900  0.81236500  0.52569100  1
  O  O18  1  0.62658800  0.79721200  0.00410100  1
  O  O19  1  0.52569100  0.45012900  0.81236500  1
  O  O20  1  0.81236500  0.52569100  0.45012900  1
  O  O21  1  0.90369600  0.73172100  0.09635800  1
  O  O22  1  0.20278800  0.99589900  0.37341200  1
  O  O23  1  0.73172100  0.09635800  0.90369600  1
loop_
_geom_bond_atom_site_label_1
_geom_bond_atom_site_label_2
_geom_bond_distance
_geom_bond_site_symmetry_2
Cr0 O21 1.913057 1_556
Cr0 O14 1.913057 1_655
Cr0 O23 1.913057 1_565
Cr0 O9 1.924803 1_565
Cr0 O18 1.924803 1_556
Cr0 O16 1.924803 1_655
Cr1 O20 1.925781 1_555
Cr1 O19 1.925781 1_555
Cr1 O17 1.925781 1_555
Cr1 O2 1.942967 1_555
Cr1 O1 1.942967 1_555
Cr1 O3 1.942967 1_555
Cr2 O11 1.925781 1_555
Cr2 O12 1.925781 1_555
Cr2 O7 1.925781 1_555
Cr2 O5 1.942967 1_555
Cr2 O4 1.942967 1_555
Cr2 O6 1.942967 1_555
Cr3 O10 1.913057 1_554
Cr3 O8 1.913057 1_455
Cr3 O0 1.913057 1_545
Cr3 O22 1.924803 1_545
Cr3 O13 1.924803 1_554
Cr3 O15 1.924803 1_455
O0 P1 1.537264 1_555
O1 P4 1.540090 1_565
O2 P1 1.540090 1_556
O3 P0 1.540090 1_655
O4 P5 1.540090 1_545
O5 P2 1.540090 1_554
O6 P3 1.540090 1_455
O7 P4 1.540780 1_555
O8 P4 1.537264 1_555
O9 P4 1.537655 1_555
O10 P0 1.537264 1_555
O11 P0 1.540780 1_555
O12 P1 1.540780 1_555
O13 P2 1.537655 1_555
O14 P5 1.537264 1_555
O15 P3 1.537655 1_555
O16 P0 1.537655 1_555
O17 P5 1.540780 1_555
O18 P1 1.537655 1_555
O19 P2 1.540780 1_555
O20 P3 1.540780 1_555
O21 P3 1.537264 1_555
O22 P5 1.537655 1_555
O23 P2 1.537264 1_555
