# generated using pymatgen
data_Sn4(PO4)3
_symmetry_space_group_name_H-M   'P 1'
_cell_length_a   10.20566557
_cell_length_b   10.20566557
_cell_length_c   10.20566551
_cell_angle_alpha   57.53197782
_cell_angle_beta   57.53197782
_cell_angle_gamma   57.53197483
_symmetry_Int_Tables_number   1
_chemical_formula_structural   Sn4(PO4)3
_chemical_formula_sum   'Sn8 P6 O24'
_cell_volume   708.98010352
_cell_formula_units_Z   2
loop_
 _symmetry_equiv_pos_site_id
 _symmetry_equiv_pos_as_xyz
  1  'x, y, z'
loop_
 _atom_site_type_symbol
 _atom_site_label
 _atom_site_symmetry_multiplicity
 _atom_site_fract_x
 _atom_site_fract_y
 _atom_site_fract_z
 _atom_site_occupancy
  Sn  Sn0  1  0.25183300  0.36874100  0.90209600  1
  Sn  Sn1  1  0.86874100  0.75183300  0.40209600  1
  Sn  Sn2  1  0.40209600  0.86874100  0.75183300  1
  Sn  Sn3  1  0.81736700  0.81736700  0.81736700  1
  Sn  Sn4  1  0.31736700  0.31736700  0.31736700  1
  Sn  Sn5  1  0.36874100  0.90209600  0.25183300  1
  Sn  Sn6  1  0.75183300  0.40209600  0.86874100  1
  Sn  Sn7  1  0.90209600  0.25183300  0.36874100  1
  P  P0  1  0.26770800  0.70572200  0.17308900  1
  P  P1  1  0.20572200  0.76770800  0.67308900  1
  P  P2  1  0.70572200  0.17308900  0.26770800  1
  P  P3  1  0.17308900  0.26770800  0.70572200  1
  P  P4  1  0.67308900  0.20572200  0.76770800  1
  P  P5  1  0.76770800  0.67308900  0.20572200  1
  O  O0  1  0.09575100  0.71204700  0.20969900  1
  O  O1  1  0.39347600  0.52916500  0.17588900  1
  O  O2  1  0.02916500  0.89347600  0.67588900  1
  O  O3  1  0.71204700  0.20969900  0.09575100  1
  O  O4  1  0.21204700  0.59575100  0.70969900  1
  O  O5  1  0.17588900  0.39347600  0.52916500  1
  O  O6  1  0.52916500  0.17588900  0.39347600  1
  O  O7  1  0.83518600  0.00102800  0.32684000  1
  O  O8  1  0.70969900  0.21204700  0.59575100  1
  O  O9  1  0.00102800  0.32684000  0.83518600  1
  O  O10  1  0.30386200  0.25028600  0.75468600  1
  O  O11  1  0.50102800  0.33518600  0.82684000  1
  O  O12  1  0.20969900  0.09575100  0.71204700  1
  O  O13  1  0.67588900  0.02916500  0.89347600  1
  O  O14  1  0.32684000  0.83518600  0.00102800  1
  O  O15  1  0.89347600  0.67588900  0.02916500  1
  O  O16  1  0.75028600  0.80386200  0.25468600  1
  O  O17  1  0.59575100  0.70969900  0.21204700  1
  O  O18  1  0.25028600  0.75468600  0.30386200  1
  O  O19  1  0.33518600  0.82684000  0.50102800  1
  O  O20  1  0.82684000  0.50102800  0.33518600  1
  O  O21  1  0.75468600  0.30386200  0.25028600  1
  O  O22  1  0.25468600  0.75028600  0.80386200  1
  O  O23  1  0.80386200  0.25468600  0.75028600  1
loop_
_geom_bond_atom_site_label_1
_geom_bond_atom_site_label_2
_geom_bond_distance
_geom_bond_site_symmetry_2
O0 P0 1.556869 1_555
O0 Sn1 2.085590 1_455
O1 P0 1.547911 1_555
O1 Sn4 2.146621 1_555
O2 P1 1.547911 1_555
O2 Sn3 2.146621 1_455
O3 P2 1.556869 1_555
O3 Sn6 2.085590 1_554
O4 P1 1.556869 1_555
O4 Sn0 2.085590 1_555
O5 P3 1.547911 1_555
O5 Sn4 2.146621 1_555
O6 P2 1.547911 1_555
O6 Sn4 2.146621 1_555
O7 P2 1.555875 1_555
O7 Sn1 2.103615 1_545
O8 P4 1.556869 1_555
O8 Sn7 2.085590 1_555
O9 P3 1.555875 1_555
O9 Sn6 2.103614 1_455
O10 P3 1.558341 1_555
O10 Sn0 2.100592 1_555
O11 P4 1.555875 1_555
O11 Sn0 2.103615 1_555
O12 P3 1.556869 1_555
O12 Sn2 2.085590 1_545
O13 P4 1.547911 1_555
O13 Sn3 2.146621 1_545
O14 P0 1.555875 1_555
O14 Sn2 2.103615 1_554
O15 P5 1.547911 1_555
O15 Sn3 2.146621 1_554
O16 P5 1.558341 1_555
O16 Sn1 2.100592 1_555
O17 P5 1.556869 1_555
O17 Sn5 2.085590 1_555
O18 P0 1.558341 1_555
O18 Sn5 2.100592 1_555
O19 P1 1.555875 1_555
O19 Sn5 2.103615 1_555
O20 P5 1.555875 1_555
O20 Sn7 2.103614 1_555
O21 P2 1.558341 1_555
O21 Sn7 2.100592 1_555
O22 P1 1.558341 1_555
O22 Sn2 2.100592 1_555
O23 P4 1.558341 1_555
O23 Sn6 2.100592 1_555
