# generated using pymatgen
data_NaNp2F9
_symmetry_space_group_name_H-M   'P 1'
_cell_length_a   6.87456814
_cell_length_b   8.60235158
_cell_length_c   11.01309474
_cell_angle_alpha   90.00000000
_cell_angle_beta   90.00000000
_cell_angle_gamma   90.00082288
_symmetry_Int_Tables_number   1
_chemical_formula_structural   NaNp2F9
_chemical_formula_sum   'Na4 Np8 F36'
_cell_volume   651.28636264
_cell_formula_units_Z   4
loop_
 _symmetry_equiv_pos_site_id
 _symmetry_equiv_pos_as_xyz
  1  'x, y, z'
loop_
 _atom_site_type_symbol
 _atom_site_label
 _atom_site_symmetry_multiplicity
 _atom_site_fract_x
 _atom_site_fract_y
 _atom_site_fract_z
 _atom_site_occupancy
  Na  Na0  1  0.32896903  0.03777623  0.75000000  1
  Na  Na1  1  0.82913826  0.46222537  0.25000000  1
  Na  Na2  1  0.67103097  0.96222377  0.25000000  1
  Na  Na3  1  0.17086174  0.53777463  0.75000000  1
  Np  Np0  1  0.66711909  0.67008503  0.95248623  1
  Np  Np1  1  0.83286422  0.17011559  0.95246995  1
  Np  Np2  1  0.33288091  0.32991497  0.45248623  1
  Np  Np3  1  0.16713578  0.82988441  0.45246995  1
  Np  Np4  1  0.16713578  0.82988441  0.04753005  1
  Np  Np5  1  0.83286422  0.17011559  0.54753005  1
  Np  Np6  1  0.33288091  0.32991497  0.04751377  1
  Np  Np7  1  0.66711909  0.67008503  0.54751377  1
  F  F0  1  0.58056225  0.49964093  0.10537250  1
  F  F1  1  0.48678329  0.80240925  0.10327310  1
  F  F2  1  0.13464571  0.29531110  0.61314797  1
  F  F3  1  0.51321671  0.19759075  0.89672690  1
  F  F4  1  0.79338504  0.42846511  0.91801562  1
  F  F5  1  0.08056194  0.00029300  0.60535434  1
  F  F6  1  0.41943775  0.50035907  0.60537250  1
  F  F7  1  0.86535429  0.70468890  0.38685203  1
  F  F8  1  0.98680762  0.69756766  0.60326737  1
  F  F9  1  0.20661496  0.57153489  0.08198438  1
  F  F10  1  0.63454393  0.20467727  0.38685556  1
  F  F11  1  0.01319238  0.30243234  0.39673263  1
  F  F12  1  0.70660599  0.92848532  0.58198169  1
  F  F13  1  0.16485757  0.83108090  0.25000000  1
  F  F14  1  0.58056225  0.49964093  0.39462750  1
  F  F15  1  0.33516193  0.33106512  0.25000000  1
  F  F16  1  0.86535429  0.70468890  0.11314797  1
  F  F17  1  0.01319238  0.30243234  0.10326737  1
  F  F18  1  0.66483807  0.66893488  0.75000000  1
  F  F19  1  0.36545607  0.79532273  0.61314444  1
  F  F20  1  0.91943806  -0.00029300  0.10535434  1
  F  F21  1  0.48678329  0.80240925  0.39672690  1
  F  F22  1  0.29339401  0.07151468  0.41801831  1
  F  F23  1  0.29339401  0.07151468  0.08198169  1
  F  F24  1  0.70660599  0.92848532  0.91801831  1
  F  F25  1  0.98680762  0.69756766  0.89673263  1
  F  F26  1  0.20661496  0.57153489  0.41801562  1
  F  F27  1  0.36545607  0.79532273  0.88685556  1
  F  F28  1  0.83514243  0.16891910  0.75000000  1
  F  F29  1  0.63454393  0.20467727  0.11314444  1
  F  F30  1  0.41943775  0.50035907  0.89462750  1
  F  F31  1  0.08056194  0.00029300  0.89464566  1
  F  F32  1  0.79338504  0.42846511  0.58198438  1
  F  F33  1  0.51321671  0.19759075  0.60327310  1
  F  F34  1  0.13464571  0.29531110  0.88685203  1
  F  F35  1  0.91943806  -0.00029300  0.39464566  1
loop_
_geom_bond_atom_site_label_1
_geom_bond_atom_site_label_2
_geom_bond_distance
_geom_bond_site_symmetry_2
F0 Np0 2.310599 1_554
F0 Np6 2.331711 1_555
F0 Na1 2.358132 1_555
F1 Np4 2.293794 1_555
F1 Np0 2.364401 1_554
F1 Na2 2.470930 1_555
F2 Np2 2.253106 1_555
F2 Np5 2.446647 1_455
F2 Na3 2.585323 1_555
F3 Np1 2.293794 1_555
F3 Np6 2.364401 1_556
F3 Na0 2.470930 1_555
F4 Np1 2.270854 1_555
F4 Np0 2.284249 1_555
F5 Np3 2.310431 1_545
F5 Np5 2.332241 1_455
F5 Na0 2.357499 1_555
F6 Np2 2.310599 1_555
F6 Np7 2.331711 1_555
F6 Na3 2.358132 1_555
F7 Np7 2.253106 1_555
F7 Np3 2.446647 1_655
F7 Na1 2.585323 1_555
F8 Np7 2.294095 1_555
F8 Np3 2.364407 1_655
F8 Na3 2.470207 1_655
F9 Np4 2.270854 1_555
F9 Np6 2.284249 1_555
F10 Np5 2.253528 1_555
F10 Np2 2.446184 1_555
F10 Na2 2.585462 1_545
F11 Np2 2.294095 1_555
F11 Np5 2.364407 1_455
F11 Na1 2.470207 1_455
F12 Np7 2.271305 1_555
F12 Np5 2.284253 1_565
F13 Np3 2.229899 1_555
F13 Np4 2.229899 1_555
F14 Np7 2.310599 1_555
F14 Np2 2.331711 1_555
F14 Na1 2.358132 1_555
F15 Np6 2.230077 1_555
F15 Np2 2.230077 1_555
F16 Np0 2.253106 1_554
F16 Np4 2.446647 1_655
F16 Na1 2.585323 1_555
F17 Np6 2.294095 1_555
F17 Np1 2.364407 1_454
F17 Na1 2.470207 1_455
F18 Np7 2.230077 1_555
F18 Np0 2.230077 1_555
F19 Np3 2.253528 1_555
F19 Np7 2.446184 1_555
F19 Na0 2.585462 1_565
F20 Np1 2.310431 1_554
F20 Np4 2.332241 1_645
F20 Na2 2.357499 1_545
F21 Np3 2.293794 1_555
F21 Np7 2.364401 1_555
F21 Na2 2.470930 1_555
F22 Np2 2.271305 1_555
F22 Np3 2.284253 1_545
F23 Np6 2.271305 1_555
F23 Np4 2.284253 1_545
F24 Np0 2.271305 1_555
F24 Np1 2.284253 1_565
F25 Np0 2.294095 1_555
F25 Np4 2.364407 1_656
F25 Na3 2.470207 1_655
F26 Np3 2.270854 1_555
F26 Np2 2.284249 1_555
F27 Np4 2.253528 1_556
F27 Np0 2.446184 1_555
F27 Na0 2.585462 1_565
F28 Np1 2.229899 1_555
F28 Np5 2.229899 1_555
F29 Np1 2.253528 1_554
F29 Np6 2.446184 1_555
F29 Na2 2.585462 1_545
F30 Np6 2.310599 1_556
F30 Np0 2.331711 1_555
F30 Na3 2.358132 1_555
F31 Np4 2.310431 1_546
F31 Np1 2.332241 1_455
F31 Na0 2.357499 1_555
F32 Np5 2.270854 1_555
F32 Np7 2.284249 1_555
F33 Np5 2.293794 1_555
F33 Np2 2.364401 1_555
F33 Na0 2.470930 1_555
F34 Np6 2.253106 1_556
F34 Np1 2.446647 1_455
F34 Na3 2.585323 1_555
F35 Np5 2.310431 1_555
F35 Np3 2.332241 1_645
F35 Na2 2.357499 1_545
