# generated using pymatgen
data_Mg3P4H48(NO15)2
_symmetry_space_group_name_H-M   'P 1'
_cell_length_a   17.70827324
_cell_length_b   17.70827324
_cell_length_c   6.18963173
_cell_angle_alpha   88.81701221
_cell_angle_beta   88.81701221
_cell_angle_gamma   22.96805340
_symmetry_Int_Tables_number   1
_chemical_formula_structural   Mg3P4H48(NO15)2
_chemical_formula_sum   'Mg3 P4 H48 N2 O30'
_cell_volume   757.23022114
_cell_formula_units_Z   1
loop_
 _symmetry_equiv_pos_site_id
 _symmetry_equiv_pos_as_xyz
  1  'x, y, z'
loop_
 _atom_site_type_symbol
 _atom_site_label
 _atom_site_symmetry_multiplicity
 _atom_site_fract_x
 _atom_site_fract_y
 _atom_site_fract_z
 _atom_site_occupancy
  Mg  Mg0  1  0.50000000  0.50000000  0.00000000  1
  Mg  Mg1  1  0.16685100  0.16685100  0.24759400  1
  Mg  Mg2  1  0.83314900  0.83314900  0.75240600  1
  P  P0  1  0.70449000  0.70449000  0.62500800  1
  P  P1  1  0.29551000  0.29551000  0.37499200  1
  P  P2  1  0.04827900  0.04827900  0.65126500  1
  P  P3  1  0.95172100  0.95172100  0.34873500  1
  H  H0  1  0.58776800  0.58776800  0.94670700  1
  H  H1  1  0.41223200  0.41223200  0.05329300  1
  H  H2  1  0.49646000  0.25971100  0.91730700  1
  H  H3  1  0.74028900  0.50354000  0.08269300  1
  H  H4  1  0.50354000  0.74028900  0.08269300  1
  H  H5  1  0.25971100  0.49646000  0.91730700  1
  H  H6  1  0.63390700  0.63390700  0.84553700  1
  H  H7  1  0.36609300  0.36609300  0.15446300  1
  H  H8  1  0.33931200  0.57019100  0.35105700  1
  H  H9  1  0.42980900  0.66068800  0.64894300  1
  H  H10  1  0.66068800  0.42980900  0.64894300  1
  H  H11  1  0.57019100  0.33931200  0.35105700  1
  H  H12  1  0.78888900  0.29388000  0.27947500  1
  H  H13  1  0.70612000  0.21111000  0.72052500  1
  H  H14  1  0.21111000  0.70612000  0.72052500  1
  H  H15  1  0.29388000  0.78888900  0.27947500  1
  H  H16  1  0.22731400  0.86356300  0.03670500  1
  H  H17  1  0.13643700  0.77268600  0.96329500  1
  H  H18  1  0.77268600  0.13643700  0.96329500  1
  H  H19  1  0.86356300  0.22731400  0.03670500  1
  H  H20  1  0.09953500  0.69359600  0.58574700  1
  H  H21  1  0.90046500  0.30640400  0.41425300  1
  H  H22  1  0.96638600  0.56781600  0.79758900  1
  H  H23  1  0.69359600  0.09953500  0.58574700  1
  H  H24  1  0.18021400  0.53558600  0.56036100  1
  H  H25  1  0.46441400  0.81978600  0.43963900  1
  H  H26  1  0.81978600  0.46441400  0.43963900  1
  H  H27  1  0.53558600  0.18021400  0.56036100  1
  H  H28  1  0.11282800  0.11282800  0.91446600  1
  H  H29  1  0.88717200  0.88717200  0.08553400  1
  H  H30  1  0.15524900  0.15524900  0.80347600  1
  H  H31  1  0.84475100  0.84475100  0.19652400  1
  H  H32  1  0.53545000  0.04890800  0.99786100  1
  H  H33  1  0.95109200  0.46455000  0.00213900  1
  H  H34  1  0.46455000  0.95109200  0.00213900  1
  H  H35  1  0.04890800  0.53545000  0.99786100  1
  H  H36  1  0.56781600  0.96638600  0.79758900  1
  H  H37  1  0.03361400  0.43218400  0.20241100  1
  H  H38  1  0.43218400  0.03361400  0.20241100  1
  H  H39  1  0.99204400  0.99204400  0.31929800  1
  H  H40  1  0.00795600  0.00795600  0.68070200  1
  H  H41  1  0.27907300  0.27907300  0.58458600  1
  H  H42  1  0.72092700  0.72092700  0.41541400  1
  H  H43  1  0.91304200  0.68110000  0.37511400  1
  H  H44  1  0.31890000  0.08695800  0.62488600  1
  H  H45  1  0.08695800  0.31890000  0.62488600  1
  H  H46  1  0.68110000  0.91304200  0.37511400  1
  H  H47  1  0.30640400  0.90046500  0.41425300  1
  N  N0  1  0.61653100  0.61653100  0.98763500  1
  N  N1  1  0.38346900  0.38346900  0.01236500  1
  O  O0  1  0.53844400  0.53844400  0.73573500  1
  O  O1  1  0.46155600  0.46155600  0.26426500  1
  O  O2  1  0.32365400  0.74725400  0.12835400  1
  O  O3  1  0.25274600  0.67634600  0.87164600  1
  O  O4  1  0.67634600  0.25274600  0.87164600  1
  O  O5  1  0.74725400  0.32365400  0.12835400  1
  O  O6  1  0.09642700  0.64472500  0.65514800  1
  O  O7  1  0.35527500  0.90357300  0.34485200  1
  O  O8  1  0.90357300  0.35527500  0.34485200  1
  O  O9  1  0.64472500  0.09642700  0.65514800  1
  O  O10  1  0.14108800  0.14108800  0.94402500  1
  O  O11  1  0.85891200  0.85891200  0.05597500  1
  O  O12  1  0.58283000  0.00571600  0.84534100  1
  O  O13  1  0.99428400  0.41717000  0.15465900  1
  O  O14  1  0.41717000  0.99428400  0.15465900  1
  O  O15  1  0.00571600  0.58283000  0.84534100  1
  O  O16  1  0.18926600  0.18926600  0.56979000  1
  O  O17  1  0.81073400  0.81073400  0.43021000  1
  O  O18  1  0.09898900  0.46402300  0.26248400  1
  O  O19  1  0.53597700  0.90101100  0.73751600  1
  O  O20  1  0.90101100  0.53597700  0.73751600  1
  O  O21  1  0.46402300  0.09898900  0.26248400  1
  O  O22  1  0.66011500  0.66011500  0.59784900  1
  O  O23  1  0.33988500  0.33988500  0.40215100  1
  O  O24  1  0.06469100  0.06469100  0.88142900  1
  O  O25  1  0.93530900  0.93530900  0.11857100  1
  O  O26  1  0.12312700  0.75899800  0.47545100  1
  O  O27  1  0.24100200  0.87687300  0.52454900  1
  O  O28  1  0.87687300  0.24100200  0.52454900  1
  O  O29  1  0.75899800  0.12312700  0.47545100  1
loop_
_geom_bond_atom_site_label_1
_geom_bond_atom_site_label_2
_geom_bond_distance
_geom_bond_site_symmetry_2
Mg0 O0 2.088997 1_554
Mg0 O1 2.088997 1_555
Mg0 O5 2.101654 1_555
Mg0 O2 2.101654 1_555
Mg0 O3 2.101654 1_554
Mg0 O4 2.101654 1_554
Mg1 O13 2.083666 1_455
Mg1 O14 2.083666 1_545
Mg1 O10 2.097832 1_554
Mg1 O7 2.133775 1_545
Mg1 O8 2.133775 1_455
Mg1 O16 2.155861 1_555
Mg2 O15 2.083666 1_655
Mg2 O12 2.083666 1_565
Mg2 O11 2.097832 1_556
Mg2 O9 2.133775 1_565
Mg2 O6 2.133775 1_655
Mg2 O17 2.155861 1_555
H0 N0 1.035094 1_555
H1 N1 1.035094 1_555
H2 N1 1.040400 1_556
H3 N0 1.040400 1_554
H4 N0 1.040400 1_554
H5 N1 1.040400 1_556
H6 N0 1.055904 1_555
H7 N1 1.055904 1_555
H8 O1 1.000804 1_555
H8 O26 1.685793 1_555
H9 O0 1.000804 1_555
H9 O27 1.685793 1_555
H10 O0 1.000804 1_555
H10 O28 1.685793 1_555
H11 O1 1.000804 1_555
H11 O29 1.685793 1_555
H12 O5 0.994387 1_555
H12 O28 1.719816 1_555
H13 O4 0.994392 1_555
H13 O29 1.719808 1_555
H14 O3 0.994392 1_555
H14 O26 1.719808 1_555
H15 O2 0.994387 1_555
H15 O27 1.719816 1_555
H16 O2 0.997840 1_555
H16 O24 1.728535 1_564
H17 O3 0.997840 1_555
H17 O25 1.728535 1_456
H18 O4 0.997840 1_555
H18 O25 1.728535 1_546
H19 O5 0.997840 1_555
H19 O24 1.728535 1_654
H20 O6 1.003939 1_555
H20 O26 1.681809 1_555
H21 O8 1.003939 1_555
H21 O28 1.681809 1_555
H22 O15 0.997918 1_655
H22 O20 1.739176 1_555
H23 O9 1.003939 1_555
H23 O29 1.681809 1_555
H24 O6 1.005633 1_555
H25 O7 1.005633 1_555
H26 O8 1.005633 1_555
H27 O9 1.005633 1_555
H28 O10 1.001535 1_555
H28 O24 1.687454 1_555
H29 O11 1.001535 1_555
H29 O25 1.687454 1_555
H30 O10 0.990130 1_555
H31 O11 0.990130 1_555
H32 O12 0.997785 1_555
H32 O21 1.725675 1_556
H33 O13 0.997785 1_555
H33 O20 1.725675 1_554
H34 O14 0.997785 1_555
H34 O19 1.725675 1_554
H35 O15 0.997785 1_555
H35 O18 1.725675 1_556
H36 O12 0.997918 1_565
H36 O19 1.739176 1_555
H37 O13 0.997918 1_455
H37 O18 1.739176 1_555
H38 O14 0.997918 1_545
H38 O21 1.739176 1_555
H39 P3 1.407510 1_555
H40 P2 1.407510 1_555
H41 P1 1.406159 1_555
H42 P0 1.406159 1_555
H43 O17 1.008308 1_555
H43 O18 1.677110 1_655
H44 O16 1.008308 1_555
H44 O19 1.677110 1_545
H45 O16 1.008308 1_555
H45 O20 1.677110 1_455
H46 O17 1.008308 1_555
H46 O21 1.677110 1_565
H47 O7 1.003939 1_555
H47 O27 1.681809 1_555
O18 P1 1.546528 1_555
O19 P0 1.546528 1_555
O20 P0 1.546528 1_555
O21 P1 1.546528 1_555
O22 P0 1.552810 1_555
O23 P1 1.552810 1_555
O24 P2 1.545390 1_555
O25 P3 1.545390 1_555
O26 P3 1.545278 1_455
O27 P2 1.545278 1_565
O28 P2 1.545278 1_655
O29 P3 1.545278 1_545
