# generated using pymatgen
data_NaZrTaSi2SO12
_symmetry_space_group_name_H-M   'P 1'
_cell_length_a   8.95345967
_cell_length_b   8.94092546
_cell_length_c   23.13745965
_cell_angle_alpha   90.22214638
_cell_angle_beta   90.00000000
_cell_angle_gamma   120.04638509
_symmetry_Int_Tables_number   1
_chemical_formula_structural   NaZrTaSi2SO12
_chemical_formula_sum   'Na6 Zr6 Ta6 Si12 S6 O72'
_cell_volume   1603.29014652
_cell_formula_units_Z   6
loop_
 _symmetry_equiv_pos_site_id
 _symmetry_equiv_pos_as_xyz
  1  'x, y, z'
loop_
 _atom_site_type_symbol
 _atom_site_label
 _atom_site_symmetry_multiplicity
 _atom_site_fract_x
 _atom_site_fract_y
 _atom_site_fract_z
 _atom_site_occupancy
  Na  Na0  1  0.01993772  0.01165161  0.49797955  1
  Na  Na1  1  0.99171388  0.01165161  0.99797955  1
  Na  Na2  1  0.68660472  0.34498461  0.83131255  1
  Na  Na3  1  0.65838088  0.34498461  0.33131255  1
  Na  Na4  1  0.35327072  0.67831861  0.16464655  1
  Na  Na5  1  0.32504688  0.67831861  0.66464655  1
  Zr  Zr0  1  0.01194578  0.99175661  0.35521601  1
  Zr  Zr1  1  0.97981082  0.99175661  0.85521601  1
  Zr  Zr2  1  0.67861278  0.32508961  0.68854901  1
  Zr  Zr3  1  0.64647782  0.32508961  0.18854901  1
  Zr  Zr4  1  0.34527878  0.65842361  0.02188301  1
  Zr  Zr5  1  0.31314382  0.65842361  0.52188301  1
  Ta  Ta0  1  0.99702901  0.99262090  0.64514294  1
  Ta  Ta1  1  0.99559189  0.99262090  0.14514294  1
  Ta  Ta2  1  0.66369601  0.32595390  0.97847594  1
  Ta  Ta3  1  0.66225889  0.32595390  0.47847594  1
  Ta  Ta4  1  0.33036201  0.65928790  0.31180994  1
  Ta  Ta5  1  0.32892489  0.65928790  0.81180994  1
  Si  Si0  1  0.28628788  0.99057326  0.24943150  1
  Si  Si1  1  0.71001749  0.71294624  0.25071869  1
  Si  Si2  1  0.00292875  0.71294624  0.75071869  1
  Si  Si3  1  0.70428538  0.99057326  0.74943150  1
  Si  Si4  1  0.95295488  0.32390626  0.58276450  1
  Si  Si5  1  0.37668449  0.04627924  0.58405169  1
  Si  Si6  1  0.66959575  0.04627924  0.08405169  1
  Si  Si7  1  0.37095238  0.32390626  0.08276450  1
  Si  Si8  1  0.61962088  0.65724026  0.91609850  1
  Si  Si9  1  0.04335049  0.37961324  0.91738569  1
  Si  Si10  1  0.33626175  0.37961324  0.41738569  1
  Si  Si11  1  0.03761838  0.65724026  0.41609850  1
  S  S0  1  0.00387634  0.28868215  0.24973634  1
  S  S1  1  0.28480581  0.28868215  0.74973634  1
  S  S2  1  0.67054334  0.62201515  0.58306934  1
  S  S3  1  0.95147281  0.62201515  0.08306934  1
  S  S4  1  0.33720934  0.95534915  0.91640334  1
  S  S5  1  0.61813881  0.95534915  0.41640334  1
  O  O0  1  0.20432494  0.02740295  0.30607132  1
  O  O1  1  0.82092154  0.81138183  0.30701309  1
  O  O2  1  0.97897895  0.18852328  0.30188239  1
  O  O3  1  0.20954433  0.18852328  0.80188239  1
  O  O4  1  0.99046029  0.81138183  0.80701309  1
  O  O5  1  0.82307801  0.02740295  0.80607132  1
  O  O6  1  0.80814984  0.97204111  0.69292145  1
  O  O7  1  0.17644070  0.20619862  0.69694308  1
  O  O8  1  0.02962481  0.83544546  0.69291234  1
  O  O9  1  0.80582065  0.83544546  0.19291234  1
  O  O10  1  0.02975792  0.20619862  0.19694308  1
  O  O11  1  0.16389127  0.97204111  0.19292145  1
  O  O12  1  0.87099194  0.36073595  0.63940432  1
  O  O13  1  0.48758854  0.14471483  0.64034609  1
  O  O14  1  0.64564595  0.52185628  0.63521539  1
  O  O15  1  0.87621133  0.52185628  0.13521539  1
  O  O16  1  0.65712729  0.14471483  0.14034609  1
  O  O17  1  0.48974501  0.36073595  0.13940432  1
  O  O18  1  0.47481684  0.30537411  0.02625445  1
  O  O19  1  0.84310770  0.53953162  0.03027608  1
  O  O20  1  0.69629181  0.16877846  0.02624534  1
  O  O21  1  0.47248765  0.16877846  0.52624534  1
  O  O22  1  0.69642492  0.53953162  0.53027608  1
  O  O23  1  0.83055827  0.30537411  0.52625445  1
  O  O24  1  0.53765794  0.69406995  0.97273832  1
  O  O25  1  0.15425454  0.47804883  0.97368009  1
  O  O26  1  0.31231195  0.85519028  0.96854939  1
  O  O27  1  0.54287733  0.85519028  0.46854939  1
  O  O28  1  0.32379329  0.47804883  0.47368009  1
  O  O29  1  0.15641101  0.69406995  0.47273832  1
  O  O30  1  0.14148284  0.63870811  0.35958845  1
  O  O31  1  0.50977370  0.87286562  0.36361008  1
  O  O32  1  0.36295781  0.50211246  0.35957934  1
  O  O33  1  0.13915365  0.50211246  0.85957934  1
  O  O34  1  0.36309092  0.87286562  0.86361008  1
  O  O35  1  0.49722427  0.63870811  0.85958845  1
  O  O36  1  0.00779785  0.82199387  0.41240521  1
  O  O37  1  0.79384052  0.98620251  0.40901786  1
  O  O38  1  0.16232753  0.19353737  0.41123492  1
  O  O39  1  0.03120984  0.19353737  0.91123492  1
  O  O40  1  0.19236199  0.98620251  0.90901786  1
  O  O41  1  0.81419602  0.82199387  0.91240521  1
  O  O42  1  0.96563689  0.14785768  0.59149941  1
  O  O43  1  0.18235367  0.02480719  0.59186354  1
  O  O44  1  0.83430328  0.79637737  0.58801036  1
  O  O45  1  0.96207409  0.79637737  0.08801036  1
  O  O46  1  0.84245352  0.02480719  0.09186354  1
  O  O47  1  0.18222079  0.14785768  0.09149941  1
  O  O48  1  0.67446485  0.15532687  0.74573821  1
  O  O49  1  0.46050752  0.31953551  0.74235086  1
  O  O50  1  0.82899453  0.52687037  0.74456792  1
  O  O51  1  0.69787684  0.52687037  0.24456792  1
  O  O52  1  0.85902899  0.31953551  0.24235086  1
  O  O53  1  0.48086302  0.15532687  0.24573821  1
  O  O54  1  0.63230389  0.48119068  0.92483241  1
  O  O55  1  0.84902067  0.35814019  0.92519654  1
  O  O56  1  0.50097028  0.12971037  0.92134336  1
  O  O57  1  0.62874109  0.12971037  0.42134336  1
  O  O58  1  0.50912052  0.35814019  0.42519654  1
  O  O59  1  0.84888779  0.48119068  0.42483241  1
  O  O60  1  0.34113085  0.48866087  0.07907221  1
  O  O61  1  0.12717352  0.65286951  0.07568486  1
  O  O62  1  0.49566053  0.86020437  0.07790192  1
  O  O63  1  0.36454284  0.86020437  0.57790192  1
  O  O64  1  0.52569499  0.65286951  0.57568486  1
  O  O65  1  0.14752902  0.48866087  0.57907221  1
  O  O66  1  0.29896989  0.81452468  0.25816641  1
  O  O67  1  0.51568667  0.69147419  0.25853054  1
  O  O68  1  0.16763628  0.46304437  0.25467736  1
  O  O69  1  0.29540709  0.46304437  0.75467736  1
  O  O70  1  0.17578652  0.69147419  0.75853054  1
  O  O71  1  0.51555379  0.81452468  0.75816641  1
loop_
_geom_bond_atom_site_label_1
_geom_bond_atom_site_label_2
_geom_bond_distance
_geom_bond_site_symmetry_2
Na0 O38 2.499469 1_555
Na0 O36 2.568453 1_545
Na0 O43 2.583377 1_555
Na0 O42 2.640830 1_455
Na0 O44 2.762955 1_445
Na0 O37 2.814547 1_445
Na1 O39 2.499469 1_655
Na1 O41 2.568453 1_545
Na1 O46 2.583377 1_556
Na1 O47 2.640830 1_656
Na1 O45 2.762955 1_546
Na1 O40 2.814547 1_645
Na2 O50 2.499469 1_555
Na2 O48 2.568453 1_555
Na2 O55 2.583377 1_555
Na2 O54 2.640830 1_555
Na2 O56 2.762955 1_555
Na2 O49 2.814547 1_555
Na3 O51 2.499469 1_555
Na3 O53 2.568453 1_555
Na3 O58 2.583377 1_555
Na3 O59 2.640830 1_555
Na3 O57 2.762955 1_555
Na3 O52 2.814547 1_555
Na4 O62 2.499469 1_555
Na4 O60 2.568453 1_555
Na4 O67 2.583377 1_555
Na4 O66 2.640830 1_555
Na4 O68 2.762955 1_555
Na4 O61 2.814547 1_555
Na5 O63 2.499469 1_555
Na5 O65 2.568453 1_555
Na5 O70 2.583377 1_555
Na5 O71 2.640830 1_555
Na5 O69 2.762955 1_555
Na5 O64 2.814547 1_555
O0 Si0 1.613391 1_545
O0 Zr0 1.953068 1_545
O1 Si1 1.604082 1_555
O1 Zr0 1.998466 1_655
O2 S0 1.454585 1_655
O2 Zr0 2.289495 1_645
O3 S1 1.454585 1_555
O3 Zr1 2.289495 1_445
O4 Si2 1.604082 1_655
O4 Zr1 1.998466 1_555
O5 Si3 1.613391 1_545
O5 Zr1 1.953068 1_545
O6 Si3 1.659648 1_555
O6 Ta0 1.950844 1_555
O7 S1 1.501263 1_555
O7 Ta0 2.138651 1_445
O8 Si2 1.671767 1_555
O8 Ta0 1.924676 1_455
O9 Si1 1.671767 1_555
O9 Ta1 1.924676 1_555
O10 S0 1.501263 1_555
O10 Ta1 2.138651 1_445
O11 Si0 1.659648 1_555
O11 Ta1 1.950844 1_455
O12 Si4 1.613391 1_555
O12 Zr2 1.953068 1_555
O13 Si5 1.604082 1_555
O13 Zr2 1.998466 1_555
O14 S2 1.454585 1_555
O14 Zr2 2.289495 1_555
O15 S3 1.454585 1_555
O15 Zr3 2.289495 1_555
O16 Si6 1.604082 1_555
O16 Zr3 1.998466 1_555
O17 Si7 1.613391 1_555
O17 Zr3 1.953068 1_555
O18 Si7 1.659648 1_555
O18 Ta2 1.950844 1_554
O19 S3 1.501263 1_555
O19 Ta2 2.138651 1_554
O20 Si6 1.671767 1_555
O20 Ta2 1.924676 1_554
O21 Si5 1.671767 1_555
O21 Ta3 1.924676 1_555
O22 S2 1.501263 1_555
O22 Ta3 2.138651 1_555
O23 Si4 1.659648 1_555
O23 Ta3 1.950844 1_555
O24 Si8 1.613391 1_555
O24 Zr4 1.953068 1_556
O25 Si9 1.604082 1_555
O25 Zr4 1.998466 1_556
O26 S4 1.454585 1_555
O26 Zr4 2.289495 1_556
O27 S5 1.454585 1_555
O27 Zr5 2.289495 1_555
O28 Si10 1.604082 1_555
O28 Zr5 1.998466 1_555
O29 Si11 1.613391 1_555
O29 Zr5 1.953068 1_555
O30 Si11 1.659648 1_555
O30 Ta4 1.950844 1_555
O31 S5 1.501263 1_555
O31 Ta4 2.138651 1_555
O32 Si10 1.671767 1_555
O32 Ta4 1.924676 1_555
O33 Si9 1.671767 1_555
O33 Ta5 1.924676 1_555
O34 S4 1.501263 1_555
O34 Ta5 2.138651 1_555
O35 Si8 1.659648 1_555
O35 Ta5 1.950844 1_555
O36 Si11 1.625821 1_555
O36 Zr0 2.003802 1_555
O37 S5 1.464874 1_555
O37 Zr0 2.295402 1_655
O38 Si10 1.617711 1_555
O38 Zr0 2.072922 1_545
O39 Si9 1.617715 1_555
O39 Zr1 2.072922 1_445
O40 S4 1.464865 1_555
O40 Zr1 2.295403 1_455
O41 Si8 1.625826 1_555
O41 Zr1 2.003802 1_555
O42 Si4 1.647051 1_555
O42 Ta0 1.987452 1_545
O43 Si5 1.662126 1_555
O43 Ta0 1.969855 1_445
O44 S2 1.517517 1_555
O44 Ta0 2.090652 1_555
O45 S3 1.517521 1_555
O45 Ta1 2.090652 1_555
O46 Si6 1.662117 1_555
O46 Ta1 1.969855 1_545
O47 Si7 1.647056 1_555
O47 Ta1 1.987452 1_445
O48 Si3 1.625821 1_545
O48 Zr2 2.003802 1_555
O49 S1 1.464874 1_555
O49 Zr2 2.295402 1_555
O50 Si2 1.617711 1_655
O50 Zr2 2.072922 1_555
O51 Si1 1.617715 1_555
O51 Zr3 2.072922 1_555
O52 S0 1.464865 1_655
O52 Zr3 2.295403 1_555
O53 Si0 1.625826 1_545
O53 Zr3 2.003802 1_555
O54 Si8 1.647062 1_555
O54 Ta2 1.987452 1_555
O55 Si9 1.662111 1_655
O55 Ta2 1.969855 1_555
O56 S4 1.517515 1_545
O56 Ta2 2.090652 1_555
O57 S5 1.517507 1_545
O57 Ta3 2.090652 1_555
O58 Si10 1.662128 1_555
O58 Ta3 1.969855 1_555
O59 Si11 1.647052 1_655
O59 Ta3 1.987452 1_555
O60 Si7 1.625834 1_555
O60 Zr4 2.003802 1_555
O61 S3 1.464860 1_455
O61 Zr4 2.295402 1_555
O62 Si6 1.617708 1_565
O62 Zr4 2.072922 1_555
O63 Si5 1.617700 1_565
O63 Zr5 2.072922 1_555
O64 S2 1.464877 1_555
O64 Zr5 2.295403 1_555
O65 Si4 1.625823 1_455
O65 Zr5 2.003802 1_555
O66 Si0 1.647051 1_555
O66 Ta4 1.987452 1_555
O67 Si1 1.662126 1_555
O67 Ta4 1.969855 1_555
O68 S0 1.517517 1_555
O68 Ta4 2.090652 1_555
O69 S1 1.517521 1_555
O69 Ta5 2.090652 1_555
O70 Si2 1.662117 1_555
O70 Ta5 1.969855 1_555
O71 Si3 1.647056 1_555
O71 Ta5 1.987452 1_555
