# generated using pymatgen
data_Sr2MgNiRuO6
_symmetry_space_group_name_H-M   'P 1'
_cell_length_a   5.83659014
_cell_length_b   5.83659014
_cell_length_c   6.17777392
_cell_angle_alpha   61.81069902
_cell_angle_beta   61.81069902
_cell_angle_gamma   60.00000000
_symmetry_Int_Tables_number   1
_chemical_formula_structural   Sr2MgNiRuO6
_chemical_formula_sum   'Sr2 Mg1 Ni1 Ru1 O6'
_cell_volume   152.75464647
_cell_formula_units_Z   1
loop_
 _symmetry_equiv_pos_site_id
 _symmetry_equiv_pos_as_xyz
  1  'x, y, z'
loop_
 _atom_site_type_symbol
 _atom_site_label
 _atom_site_symmetry_multiplicity
 _atom_site_fract_x
 _atom_site_fract_y
 _atom_site_fract_z
 _atom_site_occupancy
  Sr  Sr0  1  0.30039319  0.30039319  0.09882043  1
  Sr  Sr1  1  0.72697911  0.72697911  0.81906267  1
  Mg  Mg0  1  0.07290424  0.07290424  0.78128629  1
  Ni  Ni0  1  0.91250279  0.91250279  0.26249164  1
  Ru  Ru0  1  0.51387213  0.51387213  0.45838362  1
  O  O0  1  0.75578685  0.28777443  0.20065188  1
  O  O1  1  0.74089326  0.28202958  0.69504757  1
  O  O2  1  0.75578685  0.75578685  0.20065188  1
  O  O3  1  0.28202958  0.74089326  0.69504757  1
  O  O4  1  0.28777443  0.75578685  0.20065188  1
  O  O5  1  0.28202958  0.28202958  0.69504757  1
loop_
_geom_bond_atom_site_label_1
_geom_bond_atom_site_label_2
_geom_bond_distance
_geom_bond_site_symmetry_2
Mg0 O3 1.877372 1_545
Mg0 O1 1.877372 1_455
Mg0 O5 1.877377 1_555
Ni0 O4 1.821040 1_655
Ni0 O0 1.821040 1_565
Ni0 O2 1.821040 1_555
Ni0 Sr1 2.881814 1_555
O0 Ru0 2.065927 1_555
O0 Sr1 2.528036 1_554
O0 Sr0 2.967502 1_655
O0 Sr0 2.967503 1_555
O1 Ru0 1.972947 1_555
O1 Sr0 2.600338 1_556
O1 Sr1 2.991319 1_545
O1 Sr1 2.991319 1_555
O2 Ru0 2.065927 1_555
O2 Sr1 2.528036 1_554
O2 Sr0 2.967503 1_565
O2 Sr0 2.967503 1_655
O3 Ru0 1.972947 1_555
O3 Sr0 2.600338 1_556
O3 Sr1 2.991319 1_455
O3 Sr1 2.991319 1_555
O4 Ru0 2.065927 1_555
O4 Sr1 2.528036 1_554
O4 Sr0 2.967502 1_565
O4 Sr0 2.967503 1_555
O5 Ru0 1.972947 1_555
O5 Sr0 2.600338 1_556
O5 Sr1 2.991319 1_545
O5 Sr1 2.991319 1_455
