# generated using pymatgen
data_Na2HfIn(PO4)3
_symmetry_space_group_name_H-M   'P 1'
_cell_length_a   9.00594135
_cell_length_b   9.00594105
_cell_length_c   22.99280744
_cell_angle_alpha   90.00765762
_cell_angle_beta   89.99234238
_cell_angle_gamma   120.35316826
_symmetry_Int_Tables_number   1
_chemical_formula_structural   Na2HfIn(PO4)3
_chemical_formula_sum   'Na12 Hf6 In6 P18 O72'
_cell_volume   1609.25277747
_cell_formula_units_Z   6
loop_
 _symmetry_equiv_pos_site_id
 _symmetry_equiv_pos_as_xyz
  1  'x, y, z'
loop_
 _atom_site_type_symbol
 _atom_site_label
 _atom_site_symmetry_multiplicity
 _atom_site_fract_x
 _atom_site_fract_y
 _atom_site_fract_z
 _atom_site_occupancy
  Na  Na0  1  0.36435577  0.35827013  0.24839132  1
  Na  Na1  1  0.64172987  0.63564423  0.74839132  1
  Na  Na2  1  0.03102277  0.69160313  0.58172432  1
  Na  Na3  1  0.30839687  0.96897723  0.08172432  1
  Na  Na4  1  0.69768877  0.02493713  0.91505832  1
  Na  Na5  1  0.97506287  0.30231123  0.41505832  1
  Na  Na6  1  0.99942679  0.99815061  0.49610009  1
  Na  Na7  1  0.00184939  0.00057321  0.99610009  1
  Na  Na8  1  0.66609379  0.33148361  0.82943309  1
  Na  Na9  1  0.66851639  0.33390621  0.32943309  1
  Na  Na10  1  0.33275979  0.66481761  0.16276709  1
  Na  Na11  1  0.33518239  0.66724021  0.66276709  1
  Hf  Hf0  1  0.00251788  0.00889331  0.64754472  1
  Hf  Hf1  1  0.99110669  0.99748212  0.14754472  1
  Hf  Hf2  1  0.66918488  0.34222631  0.98087772  1
  Hf  Hf3  1  0.65777369  0.33081512  0.48087772  1
  Hf  Hf4  1  0.33585088  0.67556031  0.31421172  1
  Hf  Hf5  1  0.32443969  0.66414912  0.81421172  1
  In  In0  1  0.99747851  0.99012917  0.35014494  1
  In  In1  1  0.00987083  0.00252149  0.85014494  1
  In  In2  1  0.66414551  0.32346217  0.68347794  1
  In  In3  1  0.67653783  0.33585449  0.18347794  1
  In  In4  1  0.33081151  0.65679617  0.01681194  1
  In  In5  1  0.34320383  0.66918849  0.51681194  1
  P  P0  1  0.29242659  0.99968559  0.24838339  1
  P  P1  1  0.70317330  0.70353192  0.25052620  1
  P  P2  1  0.99904614  0.29298452  0.25258260  1
  P  P3  1  0.29646808  0.29682670  0.75052620  1
  P  P4  1  0.00031441  0.70757341  0.74838339  1
  P  P5  1  0.70701548  0.00095386  0.75258260  1
  P  P6  1  0.95909359  0.33301859  0.58171639  1
  P  P7  1  0.36984030  0.03686492  0.58385920  1
  P  P8  1  0.66571314  0.62631752  0.58591560  1
  P  P9  1  0.96313508  0.63015970  0.08385920  1
  P  P10  1  0.66698141  0.04090641  0.08171639  1
  P  P11  1  0.37368248  0.33428686  0.08591560  1
  P  P12  1  0.62575959  0.66635259  0.91505039  1
  P  P13  1  0.03650630  0.37019892  0.91719320  1
  P  P14  1  0.33237914  0.95965152  0.91924960  1
  P  P15  1  0.62980108  0.96349370  0.41719320  1
  P  P16  1  0.33364741  0.37424041  0.41505039  1
  P  P17  1  0.04034848  0.66762086  0.41924960  1
  O  O0  1  0.21382311  0.03542027  0.30174961  1
  O  O1  1  0.80730316  0.77941543  0.30564192  1
  O  O2  1  0.97712132  0.19490486  0.30921252  1
  O  O3  1  0.22058457  0.19269684  0.80564192  1
  O  O4  1  0.96457973  0.78617689  0.80174961  1
  O  O5  1  0.80509514  0.02287868  0.80921252  1
  O  O6  1  0.80183947  0.97399218  0.69989450  1
  O  O7  1  0.18248830  0.20514849  0.69652832  1
  O  O8  1  0.02465386  0.81862318  0.69300745  1
  O  O9  1  0.79485151  0.81751170  0.19652832  1
  O  O10  1  0.02600782  0.19816053  0.19989450  1
  O  O11  1  0.18137682  0.97534614  0.19300745  1
  O  O12  1  0.88049011  0.36875327  0.63508261  1
  O  O13  1  0.47397016  0.11274843  0.63897492  1
  O  O14  1  0.64378832  0.52823786  0.64254552  1
  O  O15  1  0.88725157  0.52602984  0.13897492  1
  O  O16  1  0.63124673  0.11950989  0.13508261  1
  O  O17  1  0.47176214  0.35621168  0.14254552  1
  O  O18  1  0.46850647  0.30732518  0.03322750  1
  O  O19  1  0.84915530  0.53848149  0.02986132  1
  O  O20  1  0.69132086  0.15195618  0.02634045  1
  O  O21  1  0.46151851  0.15084470  0.52986132  1
  O  O22  1  0.69267482  0.53149353  0.53322750  1
  O  O23  1  0.84804382  0.30867914  0.52634045  1
  O  O24  1  0.54715611  0.70208727  0.96841661  1
  O  O25  1  0.14063616  0.44608243  0.97230892  1
  O  O26  1  0.31045432  0.86157186  0.97587952  1
  O  O27  1  0.55391757  0.85936384  0.47230892  1
  O  O28  1  0.29791273  0.45284389  0.46841661  1
  O  O29  1  0.13842814  0.68954568  0.47587952  1
  O  O30  1  0.13517247  0.64065918  0.36656150  1
  O  O31  1  0.51582130  0.87181549  0.36319532  1
  O  O32  1  0.35798686  0.48529018  0.35967445  1
  O  O33  1  0.12818451  0.48417870  0.86319532  1
  O  O34  1  0.35934082  0.86482753  0.86656150  1
  O  O35  1  0.51470982  0.64201314  0.85967445  1
  O  O36  1  0.01509374  0.82171926  0.41216387  1
  O  O37  1  0.81517119  0.99761212  0.41107256  1
  O  O38  1  0.17185260  0.19396049  0.40965624  1
  O  O39  1  0.00238788  0.18482881  0.91107256  1
  O  O40  1  0.17828074  0.98490626  0.91216387  1
  O  O41  1  0.80603951  0.82814740  0.90965624  1
  O  O42  1  0.97347112  0.16903962  0.58929558  1
  O  O43  1  0.18812691  0.02076303  0.58871860  1
  O  O44  1  0.83823415  0.80535973  0.58938557  1
  O  O45  1  0.97923697  0.81187309  0.08871860  1
  O  O46  1  0.83096038  0.02652888  0.08929558  1
  O  O47  1  0.19464027  0.16176585  0.08938557  1
  O  O48  1  0.68176074  0.15505226  0.74549687  1
  O  O49  1  0.48183819  0.33094512  0.74440556  1
  O  O50  1  0.83851960  0.52729349  0.74298924  1
  O  O51  1  0.66905488  0.51816181  0.24440556  1
  O  O52  1  0.84494774  0.31823926  0.24549687  1
  O  O53  1  0.47270651  0.16148040  0.24298924  1
  O  O54  1  0.64013812  0.50237262  0.92262858  1
  O  O55  1  0.85479391  0.35409603  0.92205160  1
  O  O56  1  0.50490115  0.13869273  0.92271857  1
  O  O57  1  0.64590397  0.14520609  0.42205160  1
  O  O58  1  0.49762738  0.35986188  0.42262858  1
  O  O59  1  0.86130727  0.49509885  0.42271857  1
  O  O60  1  0.34842674  0.48838626  0.07883087  1
  O  O61  1  0.14850419  0.66427912  0.07773956  1
  O  O62  1  0.50518560  0.86062749  0.07632324  1
  O  O63  1  0.33572088  0.85149581  0.57773956  1
  O  O64  1  0.51161374  0.65157326  0.57883087  1
  O  O65  1  0.13937251  0.49481440  0.57632324  1
  O  O66  1  0.30680412  0.83570662  0.25596258  1
  O  O67  1  0.52145991  0.68743003  0.25538560  1
  O  O68  1  0.17156715  0.47202673  0.25605257  1
  O  O69  1  0.31256997  0.47854009  0.75538560  1
  O  O70  1  0.16429338  0.69319588  0.75596258  1
  O  O71  1  0.52797327  0.82843285  0.75605257  1
loop_
_geom_bond_atom_site_label_1
_geom_bond_atom_site_label_2
_geom_bond_distance
_geom_bond_site_symmetry_2
Na0 O51 2.370325 1_555
Na0 O53 2.419981 1_555
Na0 O68 2.427493 1_555
Na0 O67 2.564441 1_555
Na0 O17 2.622278 1_555
Na0 O0 2.795310 1_555
Na0 O32 2.815026 1_555
Na0 O10 2.857887 1_555
Na1 O49 2.370325 1_555
Na1 O50 2.419981 1_555
Na1 O71 2.427493 1_555
Na1 O69 2.564441 1_555
Na1 O14 2.622278 1_555
Na1 O4 2.795310 1_555
Na1 O35 2.815026 1_555
Na1 O6 2.857887 1_555
Na2 O63 2.370317 1_555
Na2 O65 2.419964 1_555
Na2 O44 2.427493 1_455
Na2 O43 2.564441 1_565
Na2 O29 2.622252 1_555
Na2 O12 2.795310 1_455
Na2 O8 2.815026 1_555
Na2 O22 2.857887 1_455
Na3 O61 2.370317 1_555
Na3 O62 2.419964 1_555
Na3 O47 2.427493 1_565
Na3 O45 2.564441 1_455
Na3 O26 2.622252 1_554
Na3 O16 2.795310 1_565
Na3 O11 2.815026 1_555
Na3 O18 2.857887 1_565
Na4 O39 2.370325 1_655
Na4 O41 2.419981 1_545
Na4 O56 2.427476 1_555
Na4 O55 2.564431 1_555
Na4 O5 2.622278 1_555
Na4 O24 2.795310 1_545
Na4 O20 2.815000 1_556
Na4 O34 2.857887 1_545
Na5 O37 2.370325 1_545
Na5 O38 2.419981 1_655
Na5 O59 2.427476 1_555
Na5 O57 2.564431 1_555
Na5 O2 2.622278 1_555
Na5 O28 2.795310 1_655
Na5 O23 2.815000 1_555
Na5 O30 2.857887 1_655
Na6 O36 2.548514 1_655
Na6 O37 2.562900 1_555
Na6 O38 2.589241 1_665
Na6 O43 2.667511 1_665
Na6 O44 2.678689 1_555
Na6 O42 2.716153 1_565
Na7 O40 2.548514 1_545
Na7 O39 2.562900 1_555
Na7 O41 2.589241 1_445
Na7 O45 2.667511 1_446
Na7 O47 2.678689 1_556
Na7 O46 2.716153 1_456
Na8 O48 2.548514 1_555
Na8 O49 2.562900 1_555
Na8 O50 2.589241 1_555
Na8 O55 2.667511 1_555
Na8 O56 2.678689 1_555
Na8 O54 2.716153 1_555
Na9 O52 2.548514 1_555
Na9 O51 2.562900 1_555
Na9 O53 2.589241 1_555
Na9 O57 2.667511 1_555
Na9 O59 2.678689 1_555
Na9 O58 2.716153 1_555
Na10 O60 2.548514 1_555
Na10 O61 2.562900 1_555
Na10 O62 2.589241 1_555
Na10 O67 2.667511 1_555
Na10 O68 2.678689 1_555
Na10 O66 2.716153 1_555
Na11 O64 2.548514 1_555
Na11 O63 2.562900 1_555
Na11 O65 2.589241 1_555
Na11 O69 2.667511 1_555
Na11 O71 2.678689 1_555
Na11 O70 2.716153 1_555
Hf0 O7 2.030795 1_555
Hf0 O6 2.058966 1_445
Hf0 O42 2.079481 1_455
Hf0 O8 2.101072 1_545
Hf0 O43 2.110433 1_555
Hf0 O44 2.143859 1_445
Hf1 O9 2.030795 1_555
Hf1 O10 2.058966 1_665
Hf1 O46 2.079481 1_565
Hf1 O11 2.101072 1_655
Hf1 O45 2.110433 1_555
Hf1 O47 2.143859 1_665
Hf2 O19 2.030795 1_556
Hf2 O18 2.058966 1_556
Hf2 O54 2.079481 1_555
Hf2 O20 2.101072 1_556
Hf2 O55 2.110433 1_555
Hf2 O56 2.143859 1_555
Hf3 O21 2.030795 1_555
Hf3 O22 2.058966 1_555
Hf3 O58 2.079481 1_555
Hf3 O23 2.101072 1_555
Hf3 O57 2.110433 1_555
Hf3 O59 2.143859 1_555
Hf4 O31 2.030795 1_555
Hf4 O30 2.058966 1_555
Hf4 O66 2.079481 1_555
Hf4 O32 2.101072 1_555
Hf4 O67 2.110433 1_555
Hf4 O68 2.143859 1_555
Hf5 O33 2.030795 1_555
Hf5 O34 2.058966 1_555
Hf5 O70 2.079481 1_555
Hf5 O35 2.101072 1_555
Hf5 O69 2.110433 1_555
Hf5 O71 2.143859 1_555
In0 O1 2.072855 1_555
In0 O0 2.096934 1_665
In0 O36 2.145408 1_655
In0 O2 2.159320 1_565
In0 O37 2.184927 1_555
In0 O38 2.189673 1_665
In1 O3 2.072855 1_555
In1 O4 2.096934 1_445
In1 O40 2.145408 1_545
In1 O5 2.159320 1_455
In1 O39 2.184927 1_555
In1 O41 2.189673 1_445
In2 O13 2.072855 1_555
In2 O12 2.096934 1_555
In2 O48 2.145408 1_555
In2 O14 2.159320 1_555
In2 O49 2.184927 1_555
In2 O50 2.189673 1_555
In3 O15 2.072855 1_555
In3 O16 2.096934 1_555
In3 O52 2.145408 1_555
In3 O17 2.159320 1_555
In3 O51 2.184927 1_555
In3 O53 2.189673 1_555
In4 O25 2.072855 1_554
In4 O24 2.096934 1_554
In4 O60 2.145408 1_555
In4 O26 2.159320 1_554
In4 O61 2.184927 1_555
In4 O62 2.189673 1_555
In5 O27 2.072855 1_555
In5 O28 2.096934 1_555
In5 O64 2.145408 1_555
In5 O29 2.159320 1_555
In5 O63 2.184927 1_555
In5 O65 2.189673 1_555
O0 P0 1.529780 1_545
O1 P1 1.518162 1_555
O2 P2 1.529245 1_555
O3 P3 1.518162 1_555
O4 P4 1.529780 1_655
O5 P5 1.529245 1_555
O6 P5 1.570050 1_565
O7 P3 1.555756 1_555
O8 P4 1.564651 1_555
O9 P1 1.555756 1_555
O10 P2 1.570050 1_455
O11 P0 1.564651 1_555
O12 P6 1.529780 1_555
O13 P7 1.518162 1_555
O14 P8 1.529245 1_555
O15 P9 1.518162 1_555
O16 P10 1.529780 1_555
O17 P11 1.529245 1_555
O18 P11 1.570050 1_555
O19 P9 1.555756 1_555
O20 P10 1.564651 1_555
O21 P7 1.555756 1_555
O22 P8 1.570050 1_555
O23 P6 1.564651 1_555
O24 P12 1.529780 1_555
O25 P13 1.518162 1_555
O26 P14 1.529245 1_555
O27 P15 1.518162 1_555
O28 P16 1.529780 1_555
O29 P17 1.529245 1_555
O30 P17 1.570050 1_555
O31 P15 1.555756 1_555
O32 P16 1.564651 1_555
O33 P13 1.555756 1_555
O34 P14 1.570050 1_555
O35 P12 1.564651 1_555
O36 P17 1.524252 1_555
O37 P15 1.543613 1_555
O38 P16 1.543903 1_555
O39 P13 1.543613 1_555
O40 P14 1.524252 1_555
O41 P12 1.543903 1_555
O42 P6 1.556072 1_555
O43 P7 1.572183 1_555
O44 P8 1.577463 1_555
O45 P9 1.572183 1_555
O46 P10 1.556072 1_555
O47 P11 1.577463 1_555
O48 P5 1.524252 1_555
O49 P3 1.543613 1_555
O50 P4 1.543903 1_655
O51 P1 1.543613 1_555
O52 P2 1.524252 1_555
O53 P0 1.543903 1_545
O54 P12 1.556083 1_555
O55 P13 1.572168 1_655
O56 P14 1.577462 1_545
O57 P15 1.572168 1_545
O58 P16 1.556083 1_555
O59 P17 1.577462 1_655
O60 P11 1.524264 1_555
O61 P9 1.543599 1_455
O62 P10 1.543900 1_565
O63 P7 1.543599 1_565
O64 P8 1.524264 1_555
O65 P6 1.543900 1_455
O66 P0 1.556072 1_555
O67 P1 1.572183 1_555
O68 P2 1.577463 1_455
O69 P3 1.572183 1_555
O70 P4 1.556072 1_555
O71 P5 1.577463 1_565
