# generated using pymatgen
data_MgCoCu2SnS4
_symmetry_space_group_name_H-M   'P 1'
_cell_length_a   5.52359196
_cell_length_b   6.29955394
_cell_length_c   6.59981041
_cell_angle_alpha   118.63917220
_cell_angle_beta   114.96827412
_cell_angle_gamma   89.66209035
_symmetry_Int_Tables_number   1
_chemical_formula_structural   MgCoCu2SnS4
_chemical_formula_sum   'Mg1 Co1 Cu2 Sn1 S4'
_cell_volume   177.05980475
_cell_formula_units_Z   1
loop_
 _symmetry_equiv_pos_site_id
 _symmetry_equiv_pos_as_xyz
  1  'x, y, z'
loop_
 _atom_site_type_symbol
 _atom_site_label
 _atom_site_symmetry_multiplicity
 _atom_site_fract_x
 _atom_site_fract_y
 _atom_site_fract_z
 _atom_site_occupancy
  Mg  Mg0  1  0.49905100  0.00038900  0.99855100  1
  Co  Co0  1  0.00017300  0.99930200  0.00057300  1
  Cu  Cu0  1  0.77417600  0.27453800  0.54849400  1
  Cu  Cu1  1  0.22611700  0.72502100  0.45034600  1
  Sn  Sn0  1  0.50159700  0.50241200  0.00333700  1
  S  S0  1  0.63954700  0.06230600  0.71733800  1
  S  S1  1  0.92175500  0.93780600  0.28193800  1
  S  S2  1  0.07873000  0.65477100  0.71726200  1
  S  S3  1  0.35885400  0.34345400  0.28216000  1
loop_
_geom_bond_atom_site_label_1
_geom_bond_atom_site_label_2
_geom_bond_distance
_geom_bond_site_symmetry_2
Mg0 S3 2.469838 1_556
Mg0 S0 2.472325 1_555
Mg0 S1 2.472704 1_546
Mg0 S2 2.474541 1_545
Mg0 Sn0 3.147559 1_556
Mg0 Sn0 3.152183 1_546
Co0 S1 2.270813 1_455
Co0 S3 2.271393 1_565
Co0 S0 2.275520 1_464
Co0 S2 2.275689 1_554
Cu0 S2 2.390853 1_655
Cu0 S0 2.392000 1_555
Cu0 S3 2.419999 1_555
Cu0 S1 2.423256 1_545
Cu0 Mg0 2.798429 1_554
Cu1 S3 2.378258 1_555
Cu1 S1 2.383814 1_455
Cu1 S0 2.430138 1_565
Cu1 S2 2.433949 1_555
Cu1 Mg0 2.789614 1_565
S0 Sn0 2.828943 1_556
S1 Sn0 2.815666 1_555
S2 Sn0 2.815882 1_556
S3 Sn0 2.830412 1_555
