# generated using pymatgen
data_SrSnPt
_symmetry_space_group_name_H-M   'P 1'
_cell_length_a   4.74622811
_cell_length_b   7.70338824
_cell_length_c   8.02039507
_cell_angle_alpha   90.00000000
_cell_angle_beta   90.00000000
_cell_angle_gamma   90.00000000
_symmetry_Int_Tables_number   1
_chemical_formula_structural   SrSnPt
_chemical_formula_sum   'Sr4 Sn4 Pt4'
_cell_volume   293.24198778
_cell_formula_units_Z   4
loop_
 _symmetry_equiv_pos_site_id
 _symmetry_equiv_pos_as_xyz
  1  'x, y, z'
loop_
 _atom_site_type_symbol
 _atom_site_label
 _atom_site_symmetry_multiplicity
 _atom_site_fract_x
 _atom_site_fract_y
 _atom_site_fract_z
 _atom_site_occupancy
  Sr  Sr0  1  0.75000000  0.97998375  0.31790792  1
  Sr  Sr1  1  0.25000000  0.02001625  0.68209208  1
  Sr  Sr2  1  0.75000000  0.47998375  0.18209208  1
  Sr  Sr3  1  0.25000000  0.52001625  0.81790792  1
  Sn  Sn0  1  0.75000000  0.33831732  0.57497963  1
  Sn  Sn1  1  0.25000000  0.16168268  0.07497963  1
  Sn  Sn2  1  0.25000000  0.66168268  0.42502037  1
  Sn  Sn3  1  0.75000000  0.83831732  0.92502037  1
  Pt  Pt0  1  0.25000000  0.79946890  0.10666443  1
  Pt  Pt1  1  0.25000000  0.29946890  0.39333557  1
  Pt  Pt2  1  0.75000000  0.70053110  0.60666443  1
  Pt  Pt3  1  0.75000000  0.20053110  0.89333557  1
loop_
_geom_bond_atom_site_label_1
_geom_bond_atom_site_label_2
_geom_bond_distance
_geom_bond_site_symmetry_2
Sn0 Sr2 3.334738 1_555
Sn0 Sr3 3.374465 1_555
Sn0 Sr3 3.374465 1_655
Sn0 Sr0 3.445403 1_545
Sn0 Sr1 3.518804 1_655
Sn0 Sr1 3.518804 1_555
Sn1 Sr1 3.334738 1_554
Sn1 Sr0 3.374465 1_445
Sn1 Sr0 3.374465 1_545
Sn1 Sr3 3.445403 1_554
Sn1 Sr2 3.518804 1_455
Sn1 Sr2 3.518804 1_555
Sn2 Sr3 3.334738 1_555
Sn2 Sr2 3.374465 1_455
Sn2 Sr2 3.374465 1_555
Sn2 Sr1 3.445403 1_565
Sn2 Sr0 3.518804 1_455
Sn2 Sr0 3.518804 1_555
Sn3 Sr0 3.334738 1_556
Sn3 Sr1 3.374465 1_665
Sn3 Sr1 3.374465 1_565
Sn3 Sr2 3.445403 1_556
Sn3 Sr3 3.518804 1_655
Sn3 Sr3 3.518804 1_555
Pt0 Sn2 2.765169 1_555
Pt0 Sn3 2.800654 1_554
Pt0 Sn3 2.800654 1_454
Pt0 Sn1 2.801822 1_565
Pt0 Sr3 3.161936 1_554
Pt0 Sr0 3.230461 1_555
Pt0 Sr0 3.230461 1_455
Pt0 Sr2 3.471995 1_555
Pt0 Sr2 3.471995 1_455
Pt1 Sn1 2.765169 1_555
Pt1 Sn0 2.800654 1_555
Pt1 Sn0 2.800654 1_455
Pt1 Sn2 2.801822 1_555
Pt1 Sr1 3.161936 1_555
Pt1 Sr2 3.230461 1_455
Pt1 Sr2 3.230461 1_555
Pt1 Sr0 3.471995 1_445
Pt1 Sr0 3.471995 1_545
Pt2 Sn3 2.765169 1_555
Pt2 Sn2 2.800654 1_555
Pt2 Sn2 2.800654 1_655
Pt2 Sn0 2.801822 1_555
Pt2 Sr0 3.161936 1_555
Pt2 Sr3 3.230461 1_555
Pt2 Sr3 3.230461 1_655
Pt2 Sr1 3.471995 1_565
Pt2 Sr1 3.471995 1_665
Pt3 Sn0 2.765169 1_555
Pt3 Sn1 2.800654 1_556
Pt3 Sn1 2.800654 1_656
Pt3 Sn3 2.801822 1_545
Pt3 Sr2 3.161936 1_556
Pt3 Sr1 3.230461 1_655
Pt3 Sr1 3.230461 1_555
Pt3 Sr3 3.471995 1_555
Pt3 Sr3 3.471995 1_655
