# generated using pymatgen
data_Na10Mg4Nb4Si7S5O48
_symmetry_space_group_name_H-M   'P 1'
_cell_length_a   17.96855439
_cell_length_b   9.03508873
_cell_length_c   22.55468605
_cell_angle_alpha   89.91690638
_cell_angle_beta   89.96309828
_cell_angle_gamma   120.08405938
_symmetry_Int_Tables_number   1
_chemical_formula_structural   Na10Mg4Nb4Si7S5O48
_chemical_formula_sum   'Na30 Mg12 Nb12 Si21 S15 O144'
_cell_volume   3168.42542001
_cell_formula_units_Z   3
loop_
 _symmetry_equiv_pos_site_id
 _symmetry_equiv_pos_as_xyz
  1  'x, y, z'
loop_
 _atom_site_type_symbol
 _atom_site_label
 _atom_site_symmetry_multiplicity
 _atom_site_fract_x
 _atom_site_fract_y
 _atom_site_fract_z
 _atom_site_occupancy
  Na  Na0  1  0.32108589  0.02054816  0.25186610  1
  Na  Na1  1  0.82024917  0.02291481  0.24614923  1
  Na  Na2  1  0.17781573  0.34440515  0.25267557  1
  Na  Na3  1  0.67872418  0.34706861  0.25269854  1
  Na  Na4  1  0.82218913  0.62348497  0.75136355  1
  Na  Na5  1  0.49718791  0.36906967  0.74151246  1
  Na  Na6  1  0.17777970  0.00783463  0.75278387  1
  Na  Na7  1  0.67647210  0.00900614  0.75251977  1
  Na  Na8  1  0.65477552  0.94899000  0.07766874  1
  Na  Na9  1  0.83063648  0.70207317  0.07355556  1
  Na  Na10  1  0.01031131  0.34081336  0.08550163  1
  Na  Na11  1  0.49044500  0.69658288  0.91220794  1
  Na  Na12  1  0.98870201  0.69391121  0.91359739  1
  Na  Na13  1  0.16248445  0.29164770  0.90813996  1
  Na  Na14  1  0.49112530  0.28533988  0.41480136  1
  Na  Na15  1  0.99089232  0.28471176  0.41466774  1
  Na  Na16  1  0.16292652  0.03366264  0.40990269  1
  Na  Na17  1  0.66289715  0.03388046  0.40990813  1
  Na  Na18  1  0.99261131  0.00350906  0.49555959  1
  Na  Na19  1  0.49268046  0.00334096  0.49527057  1
  Na  Na20  1  0.99550812  0.98206454  0.99135199  1
  Na  Na21  1  0.49450117  0.99275220  0.98977284  1
  Na  Na22  1  0.33130062  0.34753239  0.82287310  1
  Na  Na23  1  0.83216096  0.33888408  0.82756339  1
  Na  Na24  1  0.33665205  0.33643150  0.32569504  1
  Na  Na25  1  0.83668551  0.33668881  0.32521571  1
  Na  Na26  1  0.15684085  0.67690916  0.16117117  1
  Na  Na27  1  0.65298043  0.66516436  0.15942542  1
  Na  Na28  1  0.15518114  0.63749497  0.66002497  1
  Na  Na29  1  0.65743924  0.64975197  0.65740964  1
  Mg  Mg0  1  0.00260639  0.01252610  0.35197872  1
  Mg  Mg1  1  0.50194465  0.01315530  0.35234556  1
  Mg  Mg2  1  0.00170138  0.99065819  0.85177468  1
  Mg  Mg3  1  0.50433096  0.99373292  0.85266330  1
  Mg  Mg4  1  0.33814627  0.35434491  0.68540117  1
  Mg  Mg5  1  0.84105580  0.34669412  0.68561178  1
  Mg  Mg6  1  0.33919486  0.33251275  0.18564716  1
  Mg  Mg7  1  0.84007820  0.32875408  0.18495173  1
  Mg  Mg8  1  0.17010390  0.68686387  0.01901059  1
  Mg  Mg9  1  0.66840027  0.67797500  0.01853006  1
  Mg  Mg10  1  0.16787714  0.65368795  0.52024850  1
  Mg  Mg11  1  0.66755645  0.65313631  0.52001053  1
  Nb  Nb0  1  0.00841898  0.01661184  0.64697517  1
  Nb  Nb1  1  0.50603449  0.01188928  0.64649985  1
  Nb  Nb2  1  0.00721602  0.00329289  0.14537474  1
  Nb  Nb3  1  0.50373054  0.99813878  0.14788805  1
  Nb  Nb4  1  0.33666198  0.34424546  0.97690822  1
  Nb  Nb5  1  0.83524106  0.33505098  0.97852027  1
  Nb  Nb6  1  0.33401199  0.32497978  0.48025643  1
  Nb  Nb7  1  0.83402287  0.32406891  0.48027581  1
  Nb  Nb8  1  0.16629333  0.66588155  0.31445107  1
  Nb  Nb9  1  0.66729048  0.66701485  0.31372924  1
  Nb  Nb10  1  0.17028558  0.66850440  0.81194197  1
  Nb  Nb11  1  0.67008890  0.67423742  0.81496245  1
  Si  Si0  1  0.14806825  0.00046483  0.25349938  1
  Si  Si1  1  0.64780913  0.00175704  0.25419100  1
  Si  Si2  1  0.99889418  0.29546169  0.25222878  1
  Si  Si3  1  0.49809652  0.29457349  0.25217363  1
  Si  Si4  1  0.14974463  0.29582909  0.75441114  1
  Si  Si5  1  0.64840783  0.29455509  0.75300918  1
  Si  Si6  1  0.99837927  0.70294840  0.75171082  1
  Si  Si7  1  0.49602517  0.70264081  0.75303028  1
  Si  Si8  1  0.48327160  0.34124525  0.58805864  1
  Si  Si9  1  0.98422524  0.34219717  0.58684161  1
  Si  Si10  1  0.48005232  0.62203700  0.08648726  1
  Si  Si11  1  0.98297949  0.62423104  0.08470287  1
  Si  Si12  1  0.83173974  0.03616816  0.08685879  1
  Si  Si13  1  0.31268846  0.68096110  0.92116223  1
  Si  Si14  1  0.81455260  0.67317157  0.92116160  1
  Si  Si15  1  0.16626618  0.95783477  0.91885556  1
  Si  Si16  1  0.66629238  0.96512038  0.92080137  1
  Si  Si17  1  0.31297812  0.94640698  0.42089892  1
  Si  Si18  1  0.81300742  0.94620552  0.42085714  1
  Si  Si19  1  0.16723728  0.37366153  0.41985064  1
  Si  Si20  1  0.66727714  0.37387888  0.41982592  1
  S  S0  1  0.35613433  0.70997913  0.25130245  1
  S  S1  1  0.85667252  0.71069270  0.25049109  1
  S  S2  1  0.35635226  0.99741696  0.75066533  1
  S  S3  1  0.85710597  0.00333544  0.75068839  1
  S  S4  1  0.18850135  0.03989196  0.58466529  1
  S  S5  1  0.68807518  0.03983797  0.58496577  1
  S  S6  1  0.33383233  0.62466300  0.58412305  1
  S  S7  1  0.83374202  0.62527208  0.58490461  1
  S  S8  1  0.33327711  0.04206803  0.08519687  1
  S  S9  1  0.19039652  0.33688515  0.08433716  1
  S  S10  1  0.68702709  0.33260414  0.08471252  1
  S  S11  1  0.02189151  0.37595849  0.91757831  1
  S  S12  1  0.52307040  0.37441255  0.91779513  1
  S  S13  1  0.02103862  0.66716576  0.41834036  1
  S  S14  1  0.52129368  0.66713878  0.41819373  1
  O  O0  1  0.10469192  0.02402174  0.31144571  1
  O  O1  1  0.60059423  0.01910350  0.31086558  1
  O  O2  1  0.40688654  0.78788443  0.30372081  1
  O  O3  1  0.90770514  0.78960850  0.30282922  1
  O  O4  1  0.48362300  0.17952054  0.30961472  1
  O  O5  1  0.98521659  0.17900964  0.30897918  1
  O  O6  1  0.10415850  0.18410611  0.81176966  1
  O  O7  1  0.59795210  0.17310670  0.80618821  1
  O  O8  1  0.48644683  0.78687525  0.81182459  1
  O  O9  1  0.98331554  0.78785671  0.80929076  1
  O  O10  1  0.40770698  0.02437335  0.80300383  1
  O  O11  1  0.90691452  0.02599055  0.80366212  1
  O  O12  1  0.39666776  0.97132968  0.69612736  1
  O  O13  1  0.89646551  0.97118851  0.69689197  1
  O  O14  1  0.08368963  0.19859493  0.69392282  1
  O  O15  1  0.58226127  0.20014596  0.69198970  1
  O  O16  1  0.01511201  0.84077409  0.69384113  1
  O  O17  1  0.51391121  0.83814643  0.69456148  1
  O  O18  1  0.39661898  0.82096365  0.19699886  1
  O  O19  1  0.89551670  0.81917526  0.19553258  1
  O  O20  1  0.01707058  0.19906744  0.19232412  1
  O  O21  1  0.51400932  0.18945658  0.19421674  1
  O  O22  1  0.08351888  0.97048279  0.19417210  1
  O  O23  1  0.58415744  0.97044742  0.19274020  1
  O  O24  1  0.43200226  0.34292717  0.64517562  1
  O  O25  1  0.92831704  0.34348925  0.64001050  1
  O  O26  1  0.23814342  0.12484773  0.63740690  1
  O  O27  1  0.73677207  0.12381393  0.63805431  1
  O  O28  1  0.32191231  0.52188540  0.63684797  1
  O  O29  1  0.82162491  0.52521761  0.63910085  1
  O  O30  1  0.42744451  0.51175964  0.14096813  1
  O  O31  1  0.93067970  0.50802221  0.13915570  1
  O  O32  1  0.32123119  0.11745157  0.13940735  1
  O  O33  1  0.81225157  0.11648559  0.14360098  1
  O  O34  1  0.23792201  0.35086922  0.13783142  1
  O  O35  1  0.73635256  0.35646058  0.13902393  1
  O  O36  1  0.23041907  0.30943056  0.02976083  1
  O  O37  1  0.72850903  0.30055768  0.03203974  1
  O  O38  1  0.41924865  0.52607010  0.02477418  1
  O  O39  1  0.92006322  0.53794955  0.02342043  1
  O  O40  1  0.34509063  0.15293240  0.03217674  1
  O  O41  1  0.84931447  0.17341244  0.02957683  1
  O  O42  1  0.22945882  0.15193827  0.52943283  1
  O  O43  1  0.72915085  0.15118870  0.52983607  1
  O  O44  1  0.34464199  0.53571326  0.53033237  1
  O  O45  1  0.84387527  0.53305269  0.53196966  1
  O  O46  1  0.41892032  0.31407725  0.52706097  1
  O  O47  1  0.92000565  0.31300203  0.52478246  1
  O  O48  1  0.26034919  0.67206189  0.97801100  1
  O  O49  1  0.76645071  0.67620440  0.97957296  1
  O  O50  1  0.07086190  0.44685274  0.97206856  1
  O  O51  1  0.57364966  0.45571857  0.97010033  1
  O  O52  1  0.14247054  0.82724522  0.97172317  1
  O  O53  1  0.64878586  0.84239691  0.97606646  1
  O  O54  1  0.25865115  0.84505382  0.47618251  1
  O  O55  1  0.75871477  0.84492515  0.47619788  1
  O  O56  1  0.14339020  0.46238928  0.47030467  1
  O  O57  1  0.64296091  0.46149306  0.47048259  1
  O  O58  1  0.07345296  0.69619017  0.47024799  1
  O  O59  1  0.57336119  0.69586656  0.47036778  1
  O  O60  1  0.06113218  0.63187778  0.36367290  1
  O  O61  1  0.56113964  0.63187040  0.36367930  1
  O  O62  1  0.25027985  0.86754482  0.35867403  1
  O  O63  1  0.74992008  0.86650716  0.35878199  1
  O  O64  1  0.18150233  0.49805452  0.35746479  1
  O  O65  1  0.68109397  0.49834919  0.35756332  1
  O  O66  1  0.06384520  0.49154597  0.86481152  1
  O  O67  1  0.56077418  0.48729674  0.86262522  1
  O  O68  1  0.18195945  0.86582624  0.85744537  1
  O  O69  1  0.68017752  0.86334578  0.85961118  1
  O  O70  1  0.24797569  0.63219230  0.86085090  1
  O  O71  1  0.75165191  0.64081698  0.85952241  1
  O  O72  1  0.00888535  0.81295632  0.40733243  1
  O  O73  1  0.50872740  0.81257590  0.40758695  1
  O  O74  1  0.40949100  0.98652018  0.41282401  1
  O  O75  1  0.90955889  0.98632963  0.41268914  1
  O  O76  1  0.08955742  0.17827918  0.41289223  1
  O  O77  1  0.58954216  0.17835244  0.41280949  1
  O  O78  1  0.00918983  0.20506018  0.90800795  1
  O  O79  1  0.50758778  0.20328469  0.90852100  1
  O  O80  1  0.08939540  0.00116335  0.91254005  1
  O  O81  1  0.58487730  0.98955876  0.91330778  1
  O  O82  1  0.40843009  0.83336311  0.91275186  1
  O  O83  1  0.90940755  0.83412320  0.91250344  1
  O  O84  1  0.48519088  0.15242818  0.58995786  1
  O  O85  1  0.98643872  0.15360116  0.59003578  1
  O  O86  1  0.10112843  0.03028083  0.58636443  1
  O  O87  1  0.60048213  0.02914950  0.58654230  1
  O  O88  1  0.41520483  0.79643790  0.58760107  1
  O  O89  1  0.91488708  0.79676065  0.58775003  1
  O  O90  1  0.48781750  0.82109087  0.09026866  1
  O  O91  1  0.98670843  0.81561932  0.09016290  1
  O  O92  1  0.41430363  0.03027212  0.08929920  1
  O  O93  1  0.92446303  0.03179477  0.09055396  1
  O  O94  1  0.10133987  0.17406044  0.08589319  1
  O  O95  1  0.60023080  0.16676915  0.08777752  1
  O  O96  1  0.34043286  0.14202484  0.74292722  1
  O  O97  1  0.83716862  0.14087276  0.74284778  1
  O  O98  1  0.23811125  0.29785050  0.74101793  1
  O  O99  1  0.74026291  0.30966275  0.74085466  1
  O  O100  1  0.42191129  0.50598407  0.74696960  1
  O  O101  1  0.91482648  0.51786142  0.74477368  1
  O  O102  1  0.33774356  0.53393840  0.24313480  1
  O  O103  1  0.83804183  0.53434920  0.24265193  1
  O  O104  1  0.41445604  0.31234697  0.24517846  1
  O  O105  1  0.91654111  0.31825212  0.24686783  1
  O  O106  1  0.24009703  0.17097503  0.24167343  1
  O  O107  1  0.73888750  0.17518616  0.24459913  1
  O  O108  1  0.31993965  0.49268219  0.92507631  1
  O  O109  1  0.82422499  0.49451851  0.92352688  1
  O  O110  1  0.43531290  0.36691494  0.92164305  1
  O  O111  1  0.93590783  0.36953430  0.91994958  1
  O  O112  1  0.25668025  0.15053196  0.92668314  1
  O  O113  1  0.75784614  0.15244892  0.92445642  1
  O  O114  1  0.32040225  0.14786817  0.42569050  1
  O  O115  1  0.81978552  0.14705483  0.42548066  1
  O  O116  1  0.25729022  0.36186526  0.42558462  1
  O  O117  1  0.75722494  0.36200878  0.42553473  1
  O  O118  1  0.43483245  0.50316565  0.42186072  1
  O  O119  1  0.93476027  0.50379541  0.42174563  1
  O  O120  1  0.17453077  0.48030661  0.07788549  1
  O  O121  1  0.67383869  0.47740591  0.07601149  1
  O  O122  1  0.07432024  0.63245061  0.07833152  1
  O  O123  1  0.57598963  0.65671938  0.07878524  1
  O  O124  1  0.25923927  0.86926884  0.07863815  1
  O  O125  1  0.75419552  0.84174275  0.08056170  1
  O  O126  1  0.17681705  0.87082543  0.57666308  1
  O  O127  1  0.67665380  0.87048242  0.57706297  1
  O  O128  1  0.26000181  0.64981465  0.57738069  1
  O  O129  1  0.75964953  0.64956358  0.57777329  1
  O  O130  1  0.07735531  0.50502794  0.57894216  1
  O  O131  1  0.57626024  0.50491021  0.57975545  1
  O  O132  1  0.16027521  0.82899043  0.25539301  1
  O  O133  1  0.65898778  0.82922183  0.25559325  1
  O  O134  1  0.26940954  0.70375240  0.25354985  1
  O  O135  1  0.76928286  0.70283553  0.25390598  1
  O  O136  1  0.09232666  0.48335499  0.25564133  1
  O  O137  1  0.59131772  0.48160341  0.25532678  1
  O  O138  1  0.15570986  0.48547596  0.75690549  1
  O  O139  1  0.65542464  0.48633914  0.75533062  1
  O  O140  1  0.09153696  0.70180986  0.75563588  1
  O  O141  1  0.59064150  0.69739954  0.75606300  1
  O  O142  1  0.26829929  0.83694712  0.75345789  1
  O  O143  1  0.76906888  0.83568545  0.75369515  1
loop_
_geom_bond_atom_site_label_1
_geom_bond_atom_site_label_2
_geom_bond_distance
_geom_bond_site_symmetry_2
Na0 O104 2.313515 1_555
Na0 O106 2.449537 1_555
Na0 O132 2.517295 1_545
Na0 O134 2.528122 1_545
Na0 O32 2.681699 1_555
Na0 O62 2.748859 1_545
Na0 O4 2.844995 1_555
Na1 O105 2.342178 1_555
Na1 O107 2.459202 1_555
Na1 O33 2.490311 1_555
Na1 O133 2.533487 1_545
Na1 O135 2.564334 1_545
Na1 O63 2.871008 1_545
Na1 O5 2.933244 1_555
Na1 O19 3.003507 1_545
Na2 O106 2.351200 1_555
Na2 O136 2.423572 1_555
Na2 O102 2.510258 1_555
Na2 O64 2.726754 1_555
Na2 O34 2.795013 1_555
Na2 O134 2.809539 1_555
Na2 O0 2.834830 1_555
Na2 O20 2.850900 1_555
Na3 O107 2.301615 1_555
Na3 O137 2.421102 1_555
Na3 O103 2.500281 1_555
Na3 O65 2.723112 1_555
Na3 O35 2.749704 1_555
Na3 O135 2.781614 1_555
Na3 O1 2.878958 1_555
Na3 O21 2.883152 1_555
Na4 O101 2.301352 1_555
Na4 O99 2.465888 1_555
Na4 O143 2.534670 1_555
Na4 O139 2.607565 1_555
Na4 O29 2.682759 1_555
Na4 O71 2.788937 1_555
Na4 O9 2.827487 1_555
Na4 O13 2.990510 1_555
Na5 O100 2.247813 1_555
Na5 O24 2.424126 1_555
Na5 O139 2.507170 1_555
Na5 O96 2.519866 1_555
Na5 O141 2.595581 1_555
Na5 O15 2.873246 1_555
Na5 O67 2.949127 1_555
Na6 O98 2.293794 1_555
Na6 O140 2.398815 1_545
Na6 O96 2.550908 1_555
Na6 O68 2.704144 1_545
Na6 O142 2.747232 1_545
Na6 O26 2.811558 1_555
Na6 O6 2.858756 1_555
Na6 O16 2.859517 1_545
Na7 O99 2.374481 1_555
Na7 O141 2.440795 1_545
Na7 O97 2.520738 1_555
Na7 O69 2.765770 1_545
Na7 O7 2.784663 1_555
Na7 O27 2.788757 1_555
Na7 O143 2.798812 1_545
Na7 O17 2.848546 1_545
Na8 O123 2.286902 1_555
Na8 O125 2.422796 1_555
Na8 O53 2.468476 1_554
Na8 O95 2.611247 1_565
Na8 O90 2.634104 1_555
Na8 O33 2.868316 1_565
Na8 O23 2.937287 1_555
Na8 O37 2.945151 1_565
Na9 O125 2.289547 1_555
Na9 O49 2.369063 1_554
Na9 O91 2.485056 1_555
Na9 O121 2.515413 1_555
Na9 O93 2.614013 1_565
Na9 O39 2.907054 1_555
Na9 O19 2.970413 1_555
Na10 O122 2.291784 1_555
Na10 O93 2.422575 1_455
Na10 O120 2.568148 1_555
Na10 O94 2.723218 1_555
Na10 O50 2.755283 1_554
Na10 O20 2.758121 1_555
Na10 O41 2.805547 1_455
Na10 O31 2.822133 1_455
Na11 O81 2.320344 1_555
Na11 O82 2.350538 1_555
Na11 O8 2.418784 1_555
Na11 O110 2.634061 1_555
Na11 O108 2.683916 1_555
Na11 O53 2.856220 1_555
Na11 O38 2.909402 1_556
Na11 O67 2.970380 1_555
Na12 O83 2.333465 1_555
Na12 O80 2.438214 1_665
Na12 O9 2.518223 1_555
Na12 O109 2.586567 1_555
Na12 O111 2.592524 1_555
Na12 O52 2.734304 1_655
Na12 O39 2.808204 1_556
Na13 O80 2.272966 1_555
Na13 O6 2.398994 1_555
Na13 O78 2.457409 1_555
Na13 O108 2.510205 1_555
Na13 O112 2.613073 1_555
Na13 O70 2.866050 1_555
Na13 O36 2.974822 1_556
Na13 O50 3.012167 1_555
Na14 O74 2.339439 1_545
Na14 O77 2.403636 1_555
Na14 O4 2.537436 1_555
Na14 O118 2.630261 1_555
Na14 O114 2.681743 1_555
Na14 O57 2.685274 1_555
Na14 O46 2.914967 1_555
Na14 O61 2.958669 1_555
Na15 O75 2.335860 1_545
Na15 O76 2.403869 1_655
Na15 O5 2.552278 1_555
Na15 O119 2.638794 1_555
Na15 O115 2.687691 1_555
Na15 O56 2.694538 1_655
Na15 O47 2.860100 1_555
Na15 O60 2.961982 1_655
Na16 O76 2.275282 1_555
Na16 O0 2.438454 1_555
Na16 O72 2.471459 1_545
Na16 O114 2.504680 1_555
Na16 O116 2.599309 1_555
Na16 O62 2.901018 1_545
Na16 O42 2.927647 1_555
Na16 O58 2.967296 1_545
Na17 O77 2.273874 1_555
Na17 O1 2.472959 1_555
Na17 O73 2.474306 1_545
Na17 O115 2.495683 1_555
Na17 O117 2.598539 1_555
Na17 O63 2.904313 1_545
Na17 O43 2.933390 1_555
Na17 O59 2.972200 1_545
Na18 O75 2.348820 1_545
Na18 O76 2.496803 1_655
Na18 O85 2.559456 1_555
Na18 O89 2.670768 1_545
Na18 O72 2.742879 1_645
Na18 O86 2.754804 1_655
Na19 O74 2.343524 1_545
Na19 O77 2.493377 1_555
Na19 O84 2.565783 1_555
Na19 O88 2.673071 1_545
Na19 O73 2.733580 1_545
Na19 O87 2.756456 1_555
Na20 O83 2.297857 1_555
Na20 O80 2.395619 1_665
Na20 O91 2.646672 1_556
Na20 O78 2.673067 1_665
Na20 O93 2.722515 1_566
Na20 O94 2.807335 1_666
Na21 O82 2.293778 1_555
Na21 O81 2.378211 1_555
Na21 O79 2.563776 1_565
Na21 O90 2.713000 1_556
Na21 O92 2.778191 1_566
Na21 O95 2.826365 1_566
Na22 O100 2.298644 1_555
Na22 O98 2.380489 1_555
Na22 O96 2.653433 1_555
Na22 O108 2.711435 1_555
Na22 O112 2.835371 1_555
Na22 O110 2.857406 1_555
Na23 O101 2.426454 1_555
Na23 O99 2.487914 1_555
Na23 O109 2.625233 1_555
Na23 O97 2.651562 1_555
Na23 O113 2.669642 1_555
Na23 O111 2.717161 1_555
Na24 O104 2.366991 1_555
Na24 O106 2.499685 1_555
Na24 O102 2.570509 1_555
Na24 O118 2.726940 1_555
Na24 O116 2.736445 1_555
Na24 O114 2.750231 1_555
Na25 O105 2.333786 1_555
Na25 O107 2.442238 1_555
Na25 O103 2.569904 1_555
Na25 O119 2.733561 1_555
Na25 O117 2.745064 1_555
Na25 O115 2.758298 1_555
Na26 O122 2.293382 1_555
Na26 O132 2.516294 1_555
Na26 O124 2.579049 1_555
Na26 O136 2.625974 1_555
Na26 O120 2.712936 1_555
Na26 O134 2.829572 1_555
Na27 O123 2.263970 1_555
Na27 O125 2.468920 1_555
Na27 O133 2.600523 1_555
Na27 O137 2.607903 1_555
Na27 O121 2.683958 1_555
Na27 O135 2.884246 1_555
Na28 O130 2.250382 1_555
Na28 O138 2.581805 1_555
Na28 O128 2.611345 1_555
Na28 O140 2.638661 1_555
Na28 O126 2.701211 1_555
Na28 O142 2.857291 1_555
Na29 O131 2.236990 1_555
Na29 O129 2.568682 1_555
Na29 O127 2.584370 1_555
Na29 O139 2.644973 1_555
Na29 O141 2.663525 1_555
Na29 O143 2.863514 1_555
Mg0 O5 1.941184 1_455
Mg0 O0 2.004468 1_555
Mg0 O76 2.057757 1_555
Mg0 O75 2.079842 1_445
Mg0 O3 2.181500 1_445
Mg0 O72 2.240609 1_545
Mg1 O4 1.946523 1_555
Mg1 O1 1.980521 1_555
Mg1 O77 2.053884 1_555
Mg1 O74 2.067297 1_545
Mg1 O2 2.187793 1_545
Mg1 O73 2.250908 1_545
Mg2 O9 1.945087 1_455
Mg2 O6 2.006412 1_565
Mg2 O80 2.055130 1_565
Mg2 O83 2.065592 1_455
Mg2 O11 2.174117 1_465
Mg2 O78 2.263911 1_565
Mg3 O7 1.953148 1_565
Mg3 O8 1.961639 1_555
Mg3 O81 2.006028 1_555
Mg3 O82 2.096135 1_555
Mg3 O10 2.197498 1_565
Mg3 O79 2.251942 1_565
Mg4 O24 1.962305 1_555
Mg4 O100 2.002930 1_555
Mg4 O28 2.003507 1_555
Mg4 O98 2.034815 1_555
Mg4 O26 2.230202 1_555
Mg4 O96 2.331739 1_555
Mg5 O25 1.886986 1_555
Mg5 O101 1.970388 1_555
Mg5 O99 2.081562 1_555
Mg5 O29 2.093856 1_555
Mg5 O27 2.223245 1_555
Mg5 O97 2.234339 1_555
Mg6 O30 1.889820 1_555
Mg6 O104 1.978263 1_555
Mg6 O106 2.069775 1_555
Mg6 O32 2.084473 1_555
Mg6 O34 2.192394 1_555
Mg6 O102 2.246843 1_555
Mg7 O31 1.920965 1_555
Mg7 O33 1.960220 1_555
Mg7 O105 1.994912 1_555
Mg7 O107 2.122099 1_555
Mg7 O35 2.253656 1_555
Mg7 O103 2.284878 1_555
Mg8 O52 1.902879 1_554
Mg8 O48 1.928308 1_554
Mg8 O122 2.034908 1_555
Mg8 O124 2.110195 1_555
Mg8 O50 2.266203 1_554
Mg8 O120 2.322579 1_555
Mg9 O53 1.941553 1_554
Mg9 O49 1.975509 1_554
Mg9 O125 2.060433 1_555
Mg9 O123 2.077910 1_555
Mg9 O51 2.169210 1_554
Mg9 O121 2.268304 1_555
Mg10 O56 1.921915 1_555
Mg10 O54 1.950212 1_555
Mg10 O130 2.001007 1_555
Mg10 O128 2.112482 1_555
Mg10 O58 2.225388 1_555
Mg10 O126 2.277120 1_555
Mg11 O57 1.918439 1_555
Mg11 O55 1.951815 1_555
Mg11 O131 2.022343 1_555
Mg11 O129 2.119643 1_555
Mg11 O59 2.218954 1_555
Mg11 O127 2.285746 1_555
Nb0 O14 1.852413 1_555
Nb0 O85 1.955335 1_455
Nb0 O16 1.960269 1_545
Nb0 O86 2.109381 1_555
Nb0 O13 2.156560 1_445
Nb0 O89 2.284366 1_445
Nb1 O15 1.868979 1_555
Nb1 O84 1.962567 1_555
Nb1 O17 1.969096 1_545
Nb1 O87 2.112891 1_555
Nb1 O12 2.126748 1_545
Nb1 O88 2.245654 1_545
Nb2 O22 1.894062 1_545
Nb2 O91 1.985457 1_445
Nb2 O20 1.993275 1_555
Nb2 O93 2.047320 1_455
Nb2 O94 2.101375 1_555
Nb2 O19 2.172510 1_445
Nb3 O23 1.880982 1_555
Nb3 O21 1.949198 1_565
Nb3 O90 1.969137 1_555
Nb3 O18 2.096918 1_555
Nb3 O95 2.123326 1_565
Nb3 O92 2.209501 1_565
Nb4 O38 1.905162 1_556
Nb4 O108 1.911945 1_555
Nb4 O112 1.974352 1_555
Nb4 O110 2.090519 1_555
Nb4 O36 2.135028 1_556
Nb4 O40 2.195705 1_556
Nb5 O113 1.962305 1_555
Nb5 O41 1.971957 1_556
Nb5 O39 1.978745 1_556
Nb5 O109 1.983592 1_555
Nb5 O111 2.131865 1_555
Nb5 O37 2.151513 1_556
Nb6 O46 1.898491 1_555
Nb6 O114 1.936220 1_555
Nb6 O116 1.998422 1_555
Nb6 O42 2.061946 1_555
Nb6 O44 2.139918 1_555
Nb6 O118 2.162249 1_555
Nb7 O47 1.887126 1_555
Nb7 O115 1.935639 1_555
Nb7 O117 2.005335 1_555
Nb7 O43 2.069206 1_555
Nb7 O45 2.151170 1_555
Nb7 O119 2.167949 1_555
Nb8 O64 1.930460 1_555
Nb8 O62 1.960282 1_555
Nb8 O136 2.014139 1_555
Nb8 O132 2.027825 1_555
Nb8 O60 2.076478 1_555
Nb8 O134 2.190135 1_555
Nb9 O65 1.932913 1_555
Nb9 O63 1.951943 1_555
Nb9 O133 2.025668 1_555
Nb9 O137 2.030042 1_555
Nb9 O61 2.096941 1_555
Nb9 O135 2.164459 1_555
Nb10 O70 1.932195 1_555
Nb10 O68 1.976471 1_555
Nb10 O138 1.978968 1_555
Nb10 O140 2.033144 1_555
Nb10 O142 2.112329 1_555
Nb10 O66 2.135896 1_555
Nb11 O69 1.913385 1_555
Nb11 O71 1.921939 1_555
Nb11 O141 2.036579 1_555
Nb11 O139 2.078248 1_555
Nb11 O67 2.128995 1_555
Nb11 O143 2.142562 1_555
O0 Si0 1.589570 1_555
O1 Si1 1.584550 1_555
O2 S0 1.444004 1_555
O3 S1 1.446066 1_555
O4 Si3 1.597292 1_555
O5 Si2 1.594442 1_555
O6 Si4 1.590431 1_555
O7 Si5 1.569105 1_555
O8 Si7 1.581550 1_555
O9 Si6 1.599693 1_555
O10 S2 1.442662 1_545
O11 S3 1.445299 1_555
O12 S2 1.504763 1_555
O13 S3 1.504208 1_565
O14 Si4 1.732642 1_555
O15 Si5 1.738823 1_555
O16 Si6 1.721669 1_455
O17 Si7 1.715109 1_555
O18 S0 1.516186 1_555
O19 S1 1.514564 1_555
O20 Si2 1.725909 1_455
O21 Si3 1.722760 1_555
O22 Si0 1.702130 1_565
O23 Si1 1.728571 1_565
O24 Si8 1.587788 1_555
O25 Si9 1.567699 1_555
O26 S4 1.455168 1_555
O27 S5 1.453779 1_555
O28 S6 1.455828 1_555
O29 S7 1.469000 1_555
O30 Si10 1.564278 1_555
O31 Si11 1.580982 1_555
O32 S8 1.468200 1_555
O33 Si12 1.594991 1_555
O34 S9 1.447264 1_555
O35 S10 1.463970 1_555
O36 S9 1.507492 1_555
O37 S10 1.505663 1_555
O38 Si10 1.714251 1_555
O39 Si11 1.708176 1_555
O40 S8 1.503827 1_555
O41 Si12 1.705523 1_555
O42 S4 1.538374 1_555
O43 S5 1.534208 1_555
O44 S6 1.521369 1_555
O45 S7 1.519067 1_555
O46 Si8 1.734514 1_555
O47 Si9 1.748818 1_555
O48 Si13 1.567585 1_555
O49 Si14 1.582990 1_555
O50 S11 1.460700 1_555
O51 S12 1.446357 1_555
O52 Si15 1.576799 1_555
O53 Si16 1.589956 1_555
O54 Si17 1.563711 1_555
O55 Si18 1.564355 1_555
O56 Si19 1.570879 1_555
O57 Si20 1.572158 1_555
O58 S13 1.442622 1_555
O59 S14 1.444407 1_555
O60 S13 1.539884 1_555
O61 S14 1.534502 1_555
O62 Si17 1.716622 1_555
O63 Si18 1.717672 1_555
O64 Si19 1.736348 1_555
O65 Si20 1.735949 1_555
O66 S11 1.510408 1_555
O67 S12 1.533003 1_555
O68 Si15 1.710818 1_555
O69 Si16 1.745221 1_555
O70 Si13 1.699054 1_555
O71 Si14 1.722688 1_555
O72 S13 1.460114 1_555
O73 S14 1.459976 1_555
O74 Si17 1.594129 1_555
O75 Si18 1.595012 1_555
O76 Si19 1.618636 1_555
O77 Si20 1.619936 1_555
O78 S11 1.459657 1_555
O79 S12 1.442749 1_555
O80 Si15 1.619757 1_545
O81 Si16 1.594201 1_555
O82 Si13 1.586046 1_555
O83 Si14 1.603668 1_555
O84 Si8 1.723996 1_555
O85 Si9 1.725665 1_555
O86 S4 1.528736 1_555
O87 S5 1.528186 1_555
O88 S6 1.509377 1_555
O89 S7 1.505415 1_555
O90 Si10 1.734969 1_555
O91 Si11 1.701262 1_555
O92 S8 1.515044 1_555
O93 Si12 1.688366 1_555
O94 S9 1.538126 1_555
O95 S10 1.529368 1_555
O96 S2 1.481024 1_545
O97 S3 1.466143 1_555
O98 Si4 1.607188 1_555
O99 Si5 1.609779 1_555
O100 Si7 1.605595 1_555
O101 Si6 1.599693 1_555
O102 S0 1.465249 1_555
O103 S1 1.465616 1_555
O104 Si3 1.597364 1_555
O105 Si2 1.597612 1_555
O106 Si0 1.619638 1_555
O107 Si1 1.614954 1_555
O108 Si13 1.772104 1_555
O109 Si14 1.708664 1_555
O110 S12 1.546406 1_555
O111 S11 1.517644 1_655
O112 Si15 1.693312 1_545
O113 Si16 1.669406 1_545
O114 Si17 1.760633 1_545
O115 Si18 1.760057 1_545
O116 Si19 1.679145 1_555
O117 Si20 1.677585 1_555
O118 S14 1.518986 1_555
O119 S13 1.514416 1_655
O120 S9 1.466791 1_555
O121 S10 1.454803 1_555
O122 Si11 1.611637 1_455
O123 Si10 1.599358 1_555
O124 S8 1.465561 1_565
O125 Si12 1.610763 1_565
O126 S4 1.445453 1_565
O127 S5 1.449566 1_565
O128 S6 1.461885 1_555
O129 S7 1.462739 1_555
O130 Si9 1.589701 1_455
O131 Si8 1.592254 1_555
O132 Si0 1.670548 1_565
O133 Si1 1.668894 1_565
O134 S0 1.531695 1_555
O135 S1 1.537784 1_555
O136 Si2 1.688090 1_455
O137 Si3 1.682005 1_555
O138 Si4 1.663374 1_555
O139 Si5 1.674046 1_555
O140 Si6 1.681477 1_455
O141 Si7 1.725740 1_555
O142 S2 1.519606 1_555
O143 S3 1.548787 1_565
