# generated using pymatgen
data_MgSbRhO4
_symmetry_space_group_name_H-M   'P 1'
_cell_length_a   3.15495403
_cell_length_b   5.55334855
_cell_length_c   5.55270709
_cell_angle_alpha   72.18085631
_cell_angle_beta   90.00000000
_cell_angle_gamma   90.00000000
_symmetry_Int_Tables_number   1
_chemical_formula_structural   MgSbRhO4
_chemical_formula_sum   'Mg1 Sb1 Rh1 O4'
_cell_volume   92.61942706
_cell_formula_units_Z   1
loop_
 _symmetry_equiv_pos_site_id
 _symmetry_equiv_pos_as_xyz
  1  'x, y, z'
loop_
 _atom_site_type_symbol
 _atom_site_label
 _atom_site_symmetry_multiplicity
 _atom_site_fract_x
 _atom_site_fract_y
 _atom_site_fract_z
 _atom_site_occupancy
  Mg  Mg0  1  0.50000000  0.21580089  0.21080923  1
  Sb  Sb0  1  0.00000000  0.90598266  0.90729260  1
  Rh  Rh0  1  0.50000000  0.52091980  0.51920939  1
  O  O0  1  0.00000000  0.34906007  0.34236817  1
  O  O1  1  0.50000000  0.84169925  0.21419109  1
  O  O2  1  0.50000000  0.21338452  0.83800223  1
  O  O3  1  0.00000000  0.66148581  0.66257129  1
loop_
_geom_bond_atom_site_label_1
_geom_bond_atom_site_label_2
_geom_bond_distance
_geom_bond_site_symmetry_2
Mg0 O0 1.974991 1_555
Mg0 O0 1.974991 1_655
Mg0 O1 2.071847 1_545
Mg0 O2 2.074234 1_554
O0 Rh0 2.221959 1_555
O0 Rh0 2.221959 1_455
O1 Rh0 2.048261 1_555
O1 Sb0 2.268824 1_654
O1 Sb0 2.268824 1_554
O2 Rh0 2.049382 1_555
O2 Sb0 2.269076 1_645
O2 Sb0 2.269076 1_545
O3 Rh0 2.027756 1_455
O3 Rh0 2.027756 1_555
O3 Sb0 2.195287 1_555
