# generated using pymatgen
data_MgFe2Cu6SnS8
_symmetry_space_group_name_H-M   'P 1'
_cell_length_a   5.67274114
_cell_length_b   7.60598617
_cell_length_c   7.61013702
_cell_angle_alpha   90.00494099
_cell_angle_beta   90.00706169
_cell_angle_gamma   89.97589481
_symmetry_Int_Tables_number   1
_chemical_formula_structural   MgFe2Cu6SnS8
_chemical_formula_sum   'Mg1 Fe2 Cu6 Sn1 S8'
_cell_volume   328.35295618
_cell_formula_units_Z   1
loop_
 _symmetry_equiv_pos_site_id
 _symmetry_equiv_pos_as_xyz
  1  'x, y, z'
loop_
 _atom_site_type_symbol
 _atom_site_label
 _atom_site_symmetry_multiplicity
 _atom_site_fract_x
 _atom_site_fract_y
 _atom_site_fract_z
 _atom_site_occupancy
  Mg  Mg0  1  0.50005300  0.99994300  0.99997800  1
  Fe  Fe0  1  0.49971100  0.50000800  0.50001200  1
  Fe  Fe1  1  0.99998100  0.50002900  0.49996700  1
  Cu  Cu0  1  0.49986700  0.74235700  0.74232300  1
  Cu  Cu1  1  0.02465300  0.00027900  0.50013400  1
  Cu  Cu2  1  0.49995700  0.74217300  0.25740200  1
  Cu  Cu3  1  0.50008700  0.25765200  0.25767800  1
  Cu  Cu4  1  0.50024600  0.25764500  0.74235600  1
  Cu  Cu5  1  0.97552900  0.49993600  0.00009900  1
  Sn  Sn0  1  0.99995800  0.00010600  0.00017600  1
  S  S0  1  0.72625200  0.99993700  0.72189600  1
  S  S1  1  0.72617200  0.99993100  0.27822500  1
  S  S2  1  0.27380300  0.27824800  0.99994900  1
  S  S3  1  0.75680200  0.49992400  0.25803200  1
  S  S4  1  0.24323200  0.74200600  0.49992700  1
  S  S5  1  0.24319500  0.25806000  0.50000100  1
  S  S6  1  0.27366400  0.72174500  0.99993700  1
  S  S7  1  0.75683500  0.50001900  0.74191100  1
loop_
_geom_bond_atom_site_label_1
_geom_bond_atom_site_label_2
_geom_bond_distance
_geom_bond_site_symmetry_2
Mg0 S0 2.475009 1_555
Mg0 S2 2.475026 1_565
Mg0 S1 2.475577 1_556
Mg0 S6 2.475662 1_555
Mg0 Sn0 2.835833 1_566
Mg0 Sn0 2.836910 1_466
Fe0 S4 2.345746 1_555
Fe0 S5 2.346539 1_555
Fe0 S7 2.348553 1_555
Fe0 S3 2.349202 1_555
Fe1 S5 2.299680 1_655
Fe1 S3 2.300486 1_555
Fe1 S7 2.300701 1_555
Fe1 S4 2.300783 1_655
Cu0 S0 2.348166 1_555
Cu0 S6 2.348504 1_555
Cu0 S7 2.349497 1_555
Cu0 S4 2.349801 1_555
Cu0 Mg0 2.771729 1_555
Cu1 S5 2.320182 1_555
Cu1 S4 2.322576 1_545
Cu1 S0 2.390450 1_445
Cu1 S1 2.391266 1_445
Cu2 S6 2.347457 1_554
Cu2 S3 2.348536 1_555
Cu2 S1 2.348926 1_555
Cu2 S4 2.351169 1_555
Cu2 Mg0 2.771715 1_554
Cu3 S1 2.347269 1_545
Cu3 S2 2.349142 1_554
Cu3 S3 2.349173 1_555
Cu3 S5 2.350550 1_555
Cu3 Mg0 2.772633 1_544
Cu4 S0 2.346896 1_545
Cu4 S2 2.349016 1_555
Cu4 S7 2.349341 1_555
Cu4 S5 2.351019 1_555
Cu4 Mg0 2.772415 1_545
Cu5 S3 2.322313 1_555
Cu5 S7 2.323595 1_554
Cu5 S2 2.388240 1_654
Cu5 S6 2.389337 1_654
S0 Sn0 2.625798 1_566
S1 Sn0 2.624958 1_565
S2 Sn0 2.625168 1_456
S6 Sn0 2.624991 1_466
