# generated using pymatgen
data_Na14Sc4Si9Sn4(SO16)3
_symmetry_space_group_name_H-M   'P 1'
_cell_length_a   18.31174400
_cell_length_b   9.15269358
_cell_length_c   22.61019053
_cell_angle_alpha   89.99060517
_cell_angle_beta   89.66591973
_cell_angle_gamma   119.98013962
_symmetry_Int_Tables_number   1
_chemical_formula_structural   Na14Sc4Si9Sn4(SO16)3
_chemical_formula_sum   'Na42 Sc12 Si27 Sn12 S9 O144'
_cell_volume   3282.39044634
_cell_formula_units_Z   3
loop_
 _symmetry_equiv_pos_site_id
 _symmetry_equiv_pos_as_xyz
  1  'x, y, z'
loop_
 _atom_site_type_symbol
 _atom_site_label
 _atom_site_symmetry_multiplicity
 _atom_site_fract_x
 _atom_site_fract_y
 _atom_site_fract_z
 _atom_site_occupancy
  Na  Na0  1  0.81854230  0.00679338  0.25431741  1
  Na  Na1  1  0.17737785  0.35886871  0.25320938  1
  Na  Na2  1  0.69156427  0.37103495  0.25409440  1
  Na  Na3  1  0.99784351  0.63077828  0.24620554  1
  Na  Na4  1  0.50272713  0.64802723  0.24980519  1
  Na  Na5  1  0.31813778  0.62897409  0.75091995  1
  Na  Na6  1  0.00065609  0.35627611  0.74327233  1
  Na  Na7  1  0.49963470  0.36685669  0.74282325  1
  Na  Na8  1  0.18993067  0.01146618  0.74987517  1
  Na  Na9  1  0.68041356  -0.00174992  0.74783681  1
  Na  Na10  1  0.14622502  0.32343051  0.58200285  1
  Na  Na11  1  0.65335436  0.33500242  0.58321349  1
  Na  Na12  1  0.33520679  0.98425783  0.58615192  1
  Na  Na13  1  0.83282726  0.96794844  0.58301847  1
  Na  Na14  1  0.14516523  0.96590368  0.08094615  1
  Na  Na15  1  0.64972323  0.97210765  0.08111269  1
  Na  Na16  1  0.33255577  0.68761861  0.08240686  1
  Na  Na17  1  0.83513587  0.68696764  0.08652608  1
  Na  Na18  1  0.48112837  0.67892097  0.91548675  1
  Na  Na19  1  0.98116620  0.67757643  0.92238233  1
  Na  Na20  1  0.34562304  0.02306243  0.90827073  1
  Na  Na21  1  0.84495550  0.02327295  0.91085973  1
  Na  Na22  1  0.17068740  0.29409873  0.91033552  1
  Na  Na23  1  0.66923412  0.29152161  0.91033231  1
  Na  Na24  1  0.48368958  0.29016009  0.42606774  1
  Na  Na25  1  0.97858988  0.28171932  0.42037072  1
  Na  Na26  1  0.16852634  0.04722475  0.41368532  1
  Na  Na27  1  0.67445045  0.05062288  0.41636060  1
  Na  Na28  1  0.34570990  0.66681225  0.41399339  1
  Na  Na29  1  0.84555203  0.66651361  0.41930571  1
  Na  Na30  1  0.99737165  0.99747169  0.50174612  1
  Na  Na31  1  0.50541137  0.01293757  0.50255172  1
  Na  Na32  1  0.00246444  0.99449961  0.00058817  1
  Na  Na33  1  0.50360939  0.99636576  0.99721134  1
  Na  Na34  1  0.32950835  0.33394364  0.82681474  1
  Na  Na35  1  0.82325693  0.32979661  0.82999412  1
  Na  Na36  1  0.32328897  0.31609624  0.33506975  1
  Na  Na37  1  0.82891043  0.32353646  0.33245903  1
  Na  Na38  1  0.15921748  0.65384426  0.16897247  1
  Na  Na39  1  0.66529623  0.66221012  0.16884088  1
  Na  Na40  1  0.16261791  0.66656021  0.66665268  1
  Na  Na41  1  0.66626433  0.66572853  0.66505820  1
  Sc  Sc0  1  0.00028941  0.00985743  0.34957247  1
  Sc  Sc1  1  0.50131079  0.00122394  0.35170257  1
  Sc  Sc2  1  0.99967104  -0.00000252  0.84940052  1
  Sc  Sc3  1  0.50101474  0.99209134  0.84839632  1
  Sc  Sc4  1  0.33585569  0.32378692  0.68574860  1
  Sc  Sc5  1  0.83590424  0.34746764  0.18668293  1
  Sc  Sc6  1  0.32718193  0.33904058  0.98181254  1
  Sc  Sc7  1  0.82618958  0.34074802  0.98384142  1
  Sc  Sc8  1  0.32753818  0.31321350  0.48390185  1
  Sc  Sc9  1  0.82836079  0.32847974  0.48561543  1
  Sc  Sc10  1  0.67741633  0.68011753  0.31574711  1
  Sc  Sc11  1  0.17610874  0.67381755  0.81358027  1
  Si  Si0  1  0.15106154  0.00119857  0.25042185  1
  Si  Si1  1  0.64800956  0.99673998  0.25052602  1
  Si  Si2  1  0.35529805  0.71013481  0.24931135  1
  Si  Si3  1  0.85458446  0.71092401  0.24992951  1
  Si  Si4  1  0.00010337  0.29581596  0.25095059  1
  Si  Si5  1  0.14571237  0.29426432  0.74964065  1
  Si  Si6  1  0.65094999  0.29995368  0.75176701  1
  Si  Si7  1  0.49988284  0.70413579  0.75149962  1
  Si  Si8  1  0.35473076  -0.00126550  0.75031745  1
  Si  Si9  1  0.85551592  0.00712529  0.74960002  1
  Si  Si10  1  0.48143946  0.33279679  0.58303261  1
  Si  Si11  1  0.98144751  0.34071783  0.58299000  1
  Si  Si12  1  0.18367428  0.03211675  0.58474019  1
  Si  Si13  1  0.68107216  0.02939576  0.58274306  1
  Si  Si14  1  0.83692191  0.62778715  0.58233045  1
  Si  Si15  1  0.48112040  0.62324826  0.08306892  1
  Si  Si16  1  0.98205897  0.62983139  0.08303570  1
  Si  Si17  1  0.18121761  0.33319293  0.08281653  1
  Si  Si18  1  0.68139189  0.33304126  0.08508140  1
  Si  Si19  1  0.31463872  0.67045366  0.91839690  1
  Si  Si20  1  0.81187359  0.66698518  0.91746845  1
  Si  Si21  1  0.16661052  0.96051538  0.91631387  1
  Si  Si22  1  0.66773422  0.96003562  0.91779498  1
  Si  Si23  1  0.31199743  0.95737508  0.41699024  1
  Si  Si24  1  0.81579900  0.96443928  0.41762635  1
  Si  Si25  1  0.16784000  0.37551271  0.41712848  1
  Si  Si26  1  0.66620137  0.37168842  0.41520722  1
  Sn  Sn0  1  0.99788748  0.00303974  0.64518654  1
  Sn  Sn1  1  0.50641069  0.00990569  0.65198764  1
  Sn  Sn2  1  0.00571078  0.00325064  0.15236226  1
  Sn  Sn3  1  0.50258080  0.99152594  0.14921256  1
  Sn  Sn4  1  0.82880449  0.32384724  0.68063945  1
  Sn  Sn5  1  0.33078049  0.34381282  0.18374976  1
  Sn  Sn6  1  0.16271649  0.66234737  0.01816821  1
  Sn  Sn7  1  0.66474840  0.66355119  0.01924702  1
  Sn  Sn8  1  0.16432778  0.66617722  0.51918525  1
  Sn  Sn9  1  0.66999324  0.66153987  0.52206632  1
  Sn  Sn10  1  0.17465761  0.67387913  0.31084572  1
  Sn  Sn11  1  0.67552506  0.67749817  0.80991575  1
  S  S0  1  0.49692074  0.28961302  0.24915011  1
  S  S1  1  0.99831215  0.70424384  0.75069115  1
  S  S2  1  0.33475148  0.62796794  0.58271410  1
  S  S3  1  0.33575438  0.04490839  0.08346924  1
  S  S4  1  0.83485901  0.04148195  0.08275670  1
  S  S5  1  0.01945695  0.37267699  0.91599698  1
  S  S6  1  0.52023411  0.37386096  0.91678603  1
  S  S7  1  0.02121720  0.66672005  0.41502710  1
  S  S8  1  0.52083749  0.66603829  0.41630800  1
  O  O0  1  0.11128004  0.04351963  0.30777539  1
  O  O1  1  0.60278329  0.03233170  0.30676932  1
  O  O2  1  0.41377886  0.79474654  0.30665163  1
  O  O3  1  0.91476076  0.79863275  0.30660186  1
  O  O4  1  0.48527841  0.18963756  0.30323451  1
  O  O5  1  0.98383394  0.18246734  0.31013538  1
  O  O6  1  0.10372689  0.17561664  0.80874416  1
  O  O7  1  0.60866680  0.18067933  0.81002341  1
  O  O8  1  0.48303839  0.78228066  0.81174192  1
  O  O9  1  0.98727787  0.78180997  0.80537825  1
  O  O10  1  0.41217796  0.02816244  0.80878727  1
  O  O11  1  0.91160818  0.03584914  0.80899820  1
  O  O12  1  0.39585782  0.95998184  0.69092551  1
  O  O13  1  0.89698547  0.97543258  0.69055585  1
  O  O14  1  0.08536612  0.20514246  0.69148756  1
  O  O15  1  0.59256163  0.22413493  0.69197228  1
  O  O16  1  0.01335271  0.81338524  0.69834936  1
  O  O17  1  0.52268695  0.83569159  0.69574657  1
  O  O18  1  0.39466198  0.82228260  0.18798781  1
  O  O19  1  0.89488194  0.82995990  0.18935781  1
  O  O20  1  0.02437876  0.21315139  0.19444499  1
  O  O21  1  0.51075142  0.20927185  0.19594134  1
  O  O22  1  0.09483533  0.96410566  0.18951398  1
  O  O23  1  0.58887931  0.95912596  0.19029451  1
  O  O24  1  0.43823046  0.35594092  0.64230000  1
  O  O25  1  0.94114559  0.36808058  0.64462805  1
  O  O26  1  0.24357035  0.11666079  0.64191974  1
  O  O27  1  0.74043027  0.10647412  0.64244807  1
  O  O28  1  0.32298771  0.52517195  0.63578061  1
  O  O29  1  0.81605995  0.50164774  0.63939681  1
  O  O30  1  0.44023470  0.51002450  0.14399893  1
  O  O31  1  0.93957602  0.52043972  0.14208259  1
  O  O32  1  0.32262444  0.12606321  0.13649219  1
  O  O33  1  0.82308366  0.12051660  0.13555103  1
  O  O34  1  0.24279696  0.37473628  0.14130700  1
  O  O35  1  0.74062977  0.36474350  0.14207091  1
  O  O36  1  0.22454558  0.29655530  0.02574124  1
  O  O37  1  0.72074330  0.29291534  0.02578499  1
  O  O38  1  0.42216154  0.53429386  0.02623439  1
  O  O39  1  0.92512676  0.54354645  0.02391684  1
  O  O40  1  0.34603972  0.14157704  0.02916317  1
  O  O41  1  0.84320887  0.13812891  0.02819922  1
  O  O42  1  0.22376973  0.14900354  0.52510577  1
  O  O43  1  0.72333598  0.15238778  0.52551972  1
  O  O44  1  0.34329355  0.54814720  0.52828263  1
  O  O45  1  0.84908207  0.54908078  0.52144763  1
  O  O46  1  0.42303700  0.30176720  0.52430589  1
  O  O47  1  0.92396903  0.31099393  0.52528497  1
  O  O48  1  0.26956774  0.70012565  0.97814528  1
  O  O49  1  0.77183560  0.70413798  0.97803480  1
  O  O50  1  0.07344560  0.44810619  0.96958721  1
  O  O51  1  0.57422950  0.45172182  0.97009631  1
  O  O52  1  0.14804419  0.84073478  0.97663938  1
  O  O53  1  0.64796110  0.83842350  0.97743822  1
  O  O54  1  0.27100237  0.83807045  0.47678404  1
  O  O55  1  0.76917247  0.84116420  0.47543675  1
  O  O56  1  0.14903071  0.46066322  0.47588821  1
  O  O57  1  0.64543777  0.45453561  0.47373258  1
  O  O58  1  0.07533122  0.69739969  0.46820836  1
  O  O59  1  0.57480003  0.69420142  0.46836994  1
  O  O60  1  0.06035615  0.63957536  0.36128159  1
  O  O61  1  0.55744824  0.63888279  0.36171210  1
  O  O62  1  0.24637744  0.87304962  0.36179368  1
  O  O63  1  0.75613992  0.88117534  0.35911043  1
  O  O64  1  0.18417829  0.49501170  0.35801782  1
  O  O65  1  0.67591458  0.48426553  0.35634336  1
  O  O66  1  0.05799913  0.47766567  0.86332309  1
  O  O67  1  0.55748973  0.48006448  0.86347884  1
  O  O68  1  0.17837251  0.86690365  0.85888416  1
  O  O69  1  0.68335288  0.86968527  0.86009415  1
  O  O70  1  0.25345951  0.63142950  0.86134788  1
  O  O71  1  0.74520490  0.62008615  0.86325014  1
  O  O72  1  0.01378892  0.82008174  0.41068888  1
  O  O73  1  0.51217482  0.82002910  0.41218193  1
  O  O74  1  0.40446262  0.97160575  0.41068049  1
  O  O75  1  0.90741080  0.97210723  0.41452301  1
  O  O76  1  0.08537610  0.18653386  0.41415815  1
  O  O77  1  0.58145125  0.18137340  0.41277526  1
  O  O78  1  0.01146526  0.20284871  0.91208864  1
  O  O79  1  0.51268037  0.20561793  0.91256870  1
  O  O80  1  0.08282556  0.98300193  0.91392653  1
  O  O81  1  0.58507178  0.98391756  0.91503433  1
  O  O82  1  0.40654825  0.84301206  0.91627872  1
  O  O83  1  0.90475821  0.83676774  0.91134204  1
  O  O84  1  0.48674295  0.15445467  0.58730143  1
  O  O85  1  0.99057611  0.16889698  0.58600338  1
  O  O86  1  0.09121297  0.01880309  0.59034131  1
  O  O87  1  0.58926488  0.02152995  0.58834941  1
  O  O88  1  0.40836642  0.80150239  0.58589916  1
  O  O89  1  0.91732671  0.82020327  0.58881932  1
  O  O90  1  0.48548210  0.81101987  0.08634428  1
  O  O91  1  0.98877084  0.82014977  0.08669713  1
  O  O92  1  0.41030500  0.02165414  0.08877968  1
  O  O93  1  0.90858883  0.01497213  0.08554339  1
  O  O94  1  0.08951784  0.15975410  0.08809160  1
  O  O95  1  0.58595560  0.16117256  0.09008816  1
  O  O96  1  0.34432962  0.16596374  0.74683869  1
  O  O97  1  0.84989300  0.18364982  0.74552599  1
  O  O98  1  0.24024231  0.32002833  0.74334252  1
  O  O99  1  0.74309013  0.30906642  0.74515014  1
  O  O100  1  0.41583011  0.52024204  0.74406427  1
  O  O101  1  0.92314886  0.53368995  0.74626815  1
  O  O102  1  0.35102551  0.52268729  0.24590729  1
  O  O103  1  0.84428333  0.52291024  0.24574030  1
  O  O104  1  0.42061806  0.30779529  0.24373394  1
  O  O105  1  0.91623307  0.31156654  0.24310007  1
  O  O106  1  0.24567979  0.17473401  0.24210239  1
  O  O107  1  0.74153081  0.16063355  0.24325683  1
  O  O108  1  0.32550246  0.50239715  0.92232310  1
  O  O109  1  0.82351839  0.49982580  0.92136268  1
  O  O110  1  0.43533334  0.35444897  0.92446419  1
  O  O111  1  0.93462851  0.35326395  0.92393179  1
  O  O112  1  0.25459650  0.14318008  0.92199977  1
  O  O113  1  0.75549739  0.14301868  0.92261395  1
  O  O114  1  0.32383665  0.14780560  0.42042185  1
  O  O115  1  0.82703568  0.15340251  0.42143688  1
  O  O116  1  0.25572499  0.36825680  0.42163112  1
  O  O117  1  0.75268192  0.36070842  0.41888891  1
  O  O118  1  0.43502501  0.51599683  0.42315440  1
  O  O119  1  0.93761468  0.51452375  0.42077868  1
  O  O120  1  0.17907129  0.51126374  0.07761251  1
  O  O121  1  0.67857052  0.51116047  0.07839698  1
  O  O122  1  0.08084823  0.66461904  0.07917753  1
  O  O123  1  0.57936191  0.66110456  0.08045810  1
  O  O124  1  0.25778303  0.87331449  0.08146141  1
  O  O125  1  0.75545349  0.86862396  0.08042947  1
  O  O126  1  0.18090747  0.84828458  0.57813727  1
  O  O127  1  0.67603770  0.84637412  0.57674583  1
  O  O128  1  0.25537191  0.64152758  0.58030069  1
  O  O129  1  0.75053421  0.64487647  0.58121082  1
  O  O130  1  0.08010627  0.50259376  0.58036076  1
  O  O131  1  0.57774299  0.49411920  0.57837780  1
  O  O132  1  0.15279401  0.82386355  0.25500429  1
  O  O133  1  0.65023035  0.82017392  0.25457219  1
  O  O134  1  0.25838068  0.67369638  0.25061014  1
  O  O135  1  0.75960626  0.68905542  0.25206975  1
  O  O136  1  0.08486280  0.48627996  0.25614212  1
  O  O137  1  0.57252522  0.46023684  0.25297113  1
  O  O138  1  0.14899384  0.47712204  0.75427350  1
  O  O139  1  0.65216950  0.48071046  0.75660251  1
  O  O140  1  0.07488039  0.68652326  0.75544567  1
  O  O141  1  0.58465166  0.68371579  0.75695779  1
  O  O142  1  0.25975329  0.82978905  0.75243557  1
  O  O143  1  0.75869335  0.84720950  0.75164637  1
loop_
_geom_bond_atom_site_label_1
_geom_bond_atom_site_label_2
_geom_bond_distance
_geom_bond_site_symmetry_2
Na0 O107 2.454041 1_555
Na0 O105 2.460307 1_555
Na0 O135 2.547295 1_545
Na0 O63 2.626060 1_545
Na0 O133 2.674943 1_545
Na0 O33 2.865538 1_555
Na0 O5 2.919056 1_555
Na0 O19 2.994818 1_545
Na1 O136 2.491478 1_555
Na1 O134 2.496824 1_555
Na1 O106 2.563360 1_555
Na1 O64 2.652019 1_555
Na1 O102 2.759604 1_555
Na1 O34 2.765572 1_555
Na1 O20 2.775460 1_555
Na1 O0 2.794254 1_555
Na2 O103 2.428449 1_555
Na2 O107 2.522733 1_555
Na2 O135 2.530165 1_555
Na2 O65 2.605914 1_555
Na2 O137 2.682918 1_555
Na2 O35 2.692811 1_555
Na2 O1 2.934475 1_555
Na3 O103 2.471386 1_555
Na3 O132 2.491778 1_655
Na3 O105 2.532191 1_555
Na3 O136 2.539495 1_655
Na3 O31 2.579527 1_555
Na3 O60 2.833617 1_655
Na3 O22 2.943131 1_655
Na3 O3 2.975247 1_555
Na4 O133 2.353721 1_555
Na4 O102 2.420465 1_555
Na4 O137 2.605665 1_555
Na4 O30 2.686336 1_555
Na4 O104 2.701849 1_555
Na4 O61 2.743446 1_555
Na4 O23 2.809199 1_555
Na4 O2 2.875836 1_555
Na5 O100 2.447595 1_555
Na5 O98 2.455972 1_555
Na5 O142 2.546741 1_555
Na5 O138 2.688090 1_555
Na5 O70 2.762131 1_555
Na5 O28 2.787516 1_555
Na5 O12 2.951455 1_555
Na5 O8 2.965250 1_555
Na6 O138 2.380967 1_555
Na6 O97 2.399926 1_455
Na6 O25 2.513896 1_455
Na6 O101 2.637793 1_455
Na6 O140 2.637863 1_555
Na6 O14 2.795418 1_555
Na6 O66 2.927987 1_555
Na6 O11 2.942691 1_455
Na7 O139 2.467009 1_555
Na7 O96 2.499572 1_555
Na7 O24 2.521458 1_555
Na7 O141 2.535812 1_555
Na7 O100 2.545457 1_555
Na7 O15 2.850112 1_555
Na7 O67 2.928446 1_555
Na8 O96 2.449510 1_555
Na8 O98 2.498901 1_555
Na8 O142 2.555139 1_545
Na8 O26 2.622191 1_555
Na8 O140 2.652250 1_545
Na8 O68 2.753775 1_545
Na9 O143 2.440310 1_545
Na9 O99 2.479905 1_555
Na9 O141 2.521034 1_545
Na9 O27 2.597641 1_555
Na9 O97 2.692334 1_555
Na9 O17 2.772790 1_545
Na9 O69 2.809577 1_545
Na9 O7 2.943235 1_555
Na10 O86 2.452504 1_555
Na10 O85 2.469901 1_455
Na10 O130 2.478115 1_555
Na10 O128 2.579965 1_555
Na10 O56 2.696273 1_555
Na10 O14 2.702440 1_555
Na10 O42 2.909470 1_555
Na11 O131 2.463103 1_555
Na11 O129 2.483483 1_555
Na11 O87 2.501158 1_555
Na11 O84 2.646803 1_555
Na11 O15 2.674738 1_555
Na11 O57 2.739944 1_555
Na11 O43 2.873900 1_555
Na11 O29 2.884473 1_555
Na12 O84 2.410010 1_565
Na12 O126 2.461064 1_555
Na12 O88 2.613843 1_555
Na12 O12 2.678044 1_555
Na12 O128 2.722890 1_555
Na12 O54 2.783927 1_555
Na12 O26 2.807553 1_565
Na12 O46 2.879003 1_565
Na13 O127 2.512650 1_555
Na13 O89 2.516649 1_555
Na13 O85 2.534611 1_565
Na13 O129 2.561973 1_555
Na13 O13 2.692546 1_555
Na13 O55 2.702633 1_555
Na13 O27 2.897196 1_565
Na13 O47 3.013951 1_565
Na14 O122 2.397431 1_555
Na14 O94 2.453058 1_565
Na14 O91 2.485081 1_455
Na14 O124 2.591895 1_555
Na14 O22 2.614165 1_555
Na14 O52 2.633834 1_554
Na14 O36 2.900154 1_565
Na15 O123 2.469377 1_555
Na15 O95 2.532972 1_565
Na15 O125 2.545229 1_555
Na15 O90 2.607162 1_555
Na15 O53 2.637296 1_554
Na15 O23 2.680501 1_555
Na15 O37 2.835724 1_565
Na16 O90 2.442850 1_555
Na16 O120 2.446665 1_555
Na16 O92 2.654685 1_565
Na16 O48 2.657870 1_554
Na16 O124 2.662705 1_555
Na16 O18 2.672644 1_555
Na16 O34 2.818704 1_555
Na16 O38 2.924435 1_555
Na17 O91 2.444079 1_555
Na17 O121 2.497666 1_555
Na17 O93 2.605082 1_565
Na17 O19 2.629699 1_555
Na17 O125 2.709104 1_555
Na17 O49 2.756925 1_554
Na17 O35 2.853537 1_555
Na17 O39 2.928808 1_555
Na18 O81 2.470881 1_555
Na18 O108 2.479673 1_555
Na18 O82 2.484081 1_555
Na18 O8 2.522635 1_555
Na18 O110 2.659508 1_555
Na18 O38 2.779790 1_556
Na19 O80 2.472137 1_655
Na19 O83 2.486817 1_555
Na19 O109 2.507598 1_555
Na19 O39 2.557682 1_556
Na19 O111 2.647643 1_555
Na19 O9 2.794687 1_555
Na19 O52 2.925194 1_655
Na20 O82 2.415131 1_545
Na20 O112 2.430835 1_555
Na20 O10 2.541293 1_555
Na20 O79 2.656054 1_555
Na20 O110 2.657073 1_555
Na20 O68 2.887074 1_545
Na20 O40 2.939578 1_556
Na20 O48 3.005137 1_545
Na21 O113 2.396800 1_555
Na21 O83 2.445739 1_545
Na21 O11 2.575650 1_555
Na21 O111 2.637305 1_555
Na21 O78 2.644172 1_655
Na21 O69 2.816620 1_545
Na21 O41 2.859795 1_556
Na21 O49 2.949197 1_545
Na22 O80 2.474409 1_545
Na22 O108 2.520441 1_555
Na22 O112 2.542484 1_555
Na22 O6 2.580784 1_555
Na22 O78 2.600970 1_555
Na22 O36 2.791007 1_556
Na22 O70 2.891218 1_555
Na23 O81 2.444298 1_545
Na23 O109 2.510808 1_555
Na23 O7 2.511719 1_555
Na23 O113 2.563302 1_555
Na23 O79 2.566082 1_555
Na23 O37 2.778625 1_556
Na23 O71 2.812960 1_555
Na24 O77 2.462057 1_555
Na24 O46 2.503542 1_555
Na24 O114 2.544627 1_555
Na24 O74 2.550593 1_545
Na24 O118 2.629168 1_555
Na24 O57 2.789632 1_555
Na24 O4 2.930408 1_555
Na25 O115 2.413210 1_555
Na25 O75 2.461191 1_545
Na25 O76 2.510355 1_655
Na25 O119 2.588646 1_555
Na25 O47 2.634308 1_555
Na25 O5 2.670553 1_555
Na26 O76 2.425767 1_555
Na26 O114 2.519434 1_555
Na26 O72 2.543724 1_545
Na26 O116 2.555413 1_555
Na26 O0 2.613069 1_555
Na26 O42 2.706729 1_555
Na26 O62 2.864027 1_545
Na27 O117 2.459285 1_555
Na27 O115 2.466176 1_555
Na27 O77 2.525308 1_555
Na27 O43 2.636984 1_555
Na27 O73 2.651219 1_545
Na27 O1 2.776448 1_555
Na27 O63 2.935158 1_545
Na28 O116 2.389259 1_555
Na28 O74 2.438215 1_555
Na28 O118 2.623612 1_555
Na28 O73 2.643205 1_555
Na28 O2 2.705609 1_555
Na28 O44 2.794437 1_555
Na28 O64 2.866988 1_555
Na28 O54 2.909498 1_555
Na29 O75 2.439288 1_555
Na29 O117 2.443232 1_555
Na29 O45 2.561903 1_555
Na29 O119 2.668847 1_555
Na29 O72 2.677634 1_655
Na29 O3 2.826968 1_555
Na29 O55 2.887311 1_555
Na30 O89 2.499082 1_555
Na30 O85 2.509960 1_565
Na30 O75 2.512520 1_555
Na30 O76 2.586115 1_665
Na30 O86 2.590098 1_665
Na30 O72 2.728896 1_655
Na31 O84 2.429427 1_555
Na31 O87 2.457901 1_555
Na31 O77 2.501305 1_555
Na31 O88 2.641428 1_545
Na31 O74 2.687240 1_545
Na31 O73 2.743093 1_545
Na32 O91 2.448126 1_455
Na32 O80 2.477325 1_554
Na32 O94 2.524147 1_565
Na32 O83 2.611276 1_454
Na32 O93 2.638819 1_465
Na32 O78 2.710793 1_564
Na33 O81 2.414149 1_555
Na33 O82 2.454222 1_555
Na33 O90 2.545152 1_556
Na33 O95 2.593016 1_566
Na33 O79 2.652432 1_565
Na33 O92 2.759232 1_566
Na34 O98 2.465395 1_555
Na34 O96 2.473769 1_555
Na34 O100 2.485463 1_555
Na34 O112 2.670710 1_555
Na34 O108 2.675461 1_555
Na34 O110 2.889932 1_555
Na35 O99 2.371840 1_555
Na35 O97 2.513302 1_555
Na35 O109 2.585220 1_555
Na35 O113 2.587690 1_555
Na35 O101 2.638020 1_555
Na35 O111 2.886063 1_555
Na36 O114 2.472162 1_555
Na36 O116 2.480222 1_555
Na36 O106 2.512020 1_555
Na36 O102 2.631448 1_555
Na36 O104 2.745801 1_555
Na36 O118 2.794262 1_555
Na37 O117 2.515182 1_555
Na37 O115 2.533398 1_555
Na37 O107 2.550580 1_555
Na37 O103 2.594730 1_555
Na37 O105 2.605472 1_555
Na37 O119 2.752401 1_555
Na38 O136 2.443625 1_555
Na38 O122 2.523205 1_555
Na38 O132 2.529907 1_555
Na38 O134 2.539079 1_555
Na38 O120 2.562898 1_555
Na38 O124 2.746160 1_555
Na39 O135 2.489590 1_555
Na39 O133 2.513393 1_555
Na39 O121 2.546221 1_555
Na39 O123 2.547649 1_555
Na39 O137 2.596971 1_555
Na39 O125 2.670946 1_555
Na40 O130 2.472046 1_555
Na40 O126 2.513644 1_555
Na40 O142 2.557958 1_555
Na40 O138 2.560117 1_555
Na40 O140 2.626992 1_555
Na40 O128 2.664535 1_555
Na41 O129 2.504413 1_555
Na41 O131 2.535591 1_555
Na41 O127 2.540042 1_555
Na41 O143 2.585854 1_555
Na41 O139 2.602747 1_555
Na41 O141 2.605353 1_555
O0 Si0 1.622801 1_555
O0 Sc0 2.114355 1_555
O1 Si1 1.632977 1_545
O1 Sc1 2.003761 1_555
O2 Si2 1.617119 1_555
O2 Sc1 2.042188 1_565
O3 Si3 1.622759 1_555
O3 Sc0 2.031440 1_665
O4 S0 1.476405 1_555
O4 Sc1 2.184057 1_555
O5 Si4 1.625355 1_655
O5 Sc0 1.964750 1_655
O6 Si5 1.646002 1_555
O6 Sc2 1.994385 1_455
O7 Si6 1.633750 1_555
O7 Sc3 2.048690 1_545
O8 Si7 1.636428 1_555
O8 Sc3 1.963374 1_555
O9 S1 1.488111 1_555
O9 Sc2 2.140235 1_565
O10 Si8 1.630966 1_555
O10 Sc3 2.027564 1_545
O11 Si9 1.635278 1_555
O11 Sc2 2.022006 1_555
O12 Si8 1.658789 1_565
O12 Sn1 2.033900 1_565
O13 Si9 1.628335 1_565
O13 Sn0 2.010302 1_565
O14 Si5 1.652810 1_555
O14 Sn0 2.035317 1_455
O15 Si6 1.651728 1_555
O15 Sn1 2.019036 1_555
O16 S1 1.481606 1_455
O16 Sn0 2.243391 1_465
O17 Si7 1.644429 1_555
O17 Sn1 2.021915 1_565
O18 Si2 1.656535 1_555
O18 Sn3 1.998361 1_555
O19 Si3 1.670752 1_555
O19 Sn2 2.024076 1_665
O20 Si4 1.652919 1_555
O20 Sn2 2.015218 1_555
O21 S0 1.495018 1_555
O21 Sn3 2.194334 1_545
O22 Si0 1.655052 1_565
O22 Sn2 2.024290 1_565
O23 Si1 1.670437 1_555
O23 Sn3 1.983277 1_555
O24 Si10 1.619223 1_555
O24 Sc4 1.998272 1_555
O25 Si11 1.649986 1_555
O25 Sn4 2.051046 1_555
O26 Si12 1.625376 1_555
O26 Sc4 2.061588 1_555
O27 Si13 1.659086 1_555
O27 Sn4 2.030258 1_555
O28 S2 1.471499 1_555
O28 Sc4 2.272855 1_555
O29 Si14 1.642148 1_555
O29 Sn4 1.988442 1_555
O30 Si15 1.656638 1_555
O30 Sn5 2.017567 1_555
O31 Si16 1.612160 1_555
O31 Sc5 2.025029 1_555
O32 S3 1.490709 1_555
O32 Sn5 2.200254 1_555
O33 S4 1.465550 1_555
O33 Sc5 2.285407 1_555
O34 Si17 1.659555 1_555
O34 Sn5 2.017531 1_555
O35 Si18 1.619592 1_555
O35 Sc5 2.093417 1_555
O36 Si17 1.631378 1_555
O36 Sc6 1.979336 1_554
O37 Si18 1.644689 1_555
O37 Sc7 1.988242 1_554
O38 Si15 1.617981 1_555
O38 Sc6 2.035214 1_554
O39 Si16 1.640444 1_555
O39 Sc7 2.051230 1_554
O40 S3 1.468461 1_555
O40 Sc6 2.271402 1_554
O41 S4 1.479794 1_555
O41 Sc7 2.263377 1_554
O42 Si12 1.644570 1_555
O42 Sc8 1.965255 1_555
O43 Si13 1.630132 1_555
O43 Sc9 1.997959 1_555
O44 S2 1.478209 1_555
O44 Sc8 2.257861 1_555
O45 Si14 1.618808 1_555
O45 Sc9 2.028681 1_555
O46 Si10 1.643360 1_555
O46 Sc8 2.026168 1_555
O47 Si11 1.616815 1_555
O47 Sc9 2.047813 1_555
O48 Si19 1.670640 1_555
O48 Sn6 2.017416 1_556
O49 Si20 1.663151 1_555
O49 Sn7 2.025384 1_556
O50 S5 1.501437 1_555
O50 Sn6 2.131190 1_556
O51 S6 1.499447 1_555
O51 Sn7 2.133521 1_556
O52 Si21 1.673174 1_555
O52 Sn6 2.015068 1_556
O53 Si22 1.667229 1_555
O53 Sn7 2.011090 1_556
O54 Si23 1.658954 1_555
O54 Sn8 2.028880 1_555
O55 Si24 1.653572 1_555
O55 Sn9 2.026301 1_555
O56 Si25 1.659639 1_555
O56 Sn8 2.013013 1_555
O57 Si26 1.659273 1_555
O57 Sn9 2.034981 1_555
O58 S7 1.497516 1_555
O58 Sn8 2.133832 1_555
O59 S8 1.479061 1_555
O59 Sn9 2.268767 1_555
O60 S7 1.489963 1_555
O60 Sn10 2.257252 1_555
O61 S8 1.480540 1_555
O61 Sc10 2.278863 1_555
O62 Si23 1.639521 1_555
O62 Sn10 2.000142 1_555
O63 Si24 1.646166 1_555
O63 Sc10 1.947224 1_555
O64 Si25 1.655246 1_555
O64 Sn10 2.033461 1_555
O65 Si26 1.636555 1_555
O65 Sc10 2.001623 1_555
O66 S5 1.466947 1_555
O66 Sc11 2.292636 1_555
O67 S6 1.479962 1_555
O67 Sn11 2.338632 1_555
O68 Si21 1.627305 1_555
O68 Sc11 2.025350 1_555
O69 Si22 1.643188 1_555
O69 Sn11 2.037764 1_555
O70 Si19 1.632040 1_555
O70 Sc11 1.972348 1_555
O71 Si20 1.634428 1_555
O71 Sn11 2.011519 1_555
O72 S7 1.479645 1_555
O72 Sc0 2.328082 1_565
O73 S8 1.497976 1_555
O73 Sc1 2.234281 1_565
O74 Si23 1.637380 1_555
O74 Sc1 2.118656 1_565
O75 Si24 1.644706 1_555
O75 Sc0 2.133550 1_665
O76 Si25 1.633224 1_555
O76 Sc0 2.164321 1_555
O77 Si26 1.656819 1_555
O77 Sc1 2.094090 1_555
O78 S5 1.489363 1_555
O78 Sc2 2.259740 1_455
O79 S6 1.478776 1_555
O79 Sc3 2.357469 1_545
O80 Si21 1.647948 1_555
O80 Sc2 2.175753 1_465
O81 Si22 1.635454 1_555
O81 Sc3 2.187935 1_555
O82 Si19 1.634562 1_555
O82 Sc3 2.195294 1_555
O83 Si20 1.637880 1_555
O83 Sc2 2.142440 1_565
O84 Si10 1.685726 1_555
O84 Sn1 2.121528 1_555
O85 Si11 1.663896 1_555
O85 Sn0 2.077869 1_555
O86 Si12 1.639777 1_555
O86 Sn0 2.051317 1_455
O87 Si13 1.650477 1_555
O87 Sn1 2.048598 1_555
O88 S2 1.485412 1_555
O88 Sn1 2.388359 1_565
O89 Si14 1.643798 1_555
O89 Sn0 2.038718 1_565
O90 Si15 1.681794 1_555
O90 Sn3 2.082563 1_555
O91 Si16 1.685962 1_555
O91 Sn2 2.143766 1_665
O92 S3 1.488504 1_555
O92 Sn3 2.300163 1_545
O93 S4 1.487968 1_555
O93 Sn2 2.383048 1_655
O94 Si17 1.639340 1_555
O94 Sn2 2.072455 1_555
O95 Si18 1.670825 1_555
O95 Sn3 2.033541 1_545
O96 Si8 1.636055 1_555
O96 Sc4 2.060197 1_555
O97 Si9 1.672069 1_555
O97 Sn4 2.109331 1_555
O98 Si5 1.631393 1_555
O98 Sc4 2.162314 1_555
O99 Si6 1.653043 1_555
O99 Sn4 2.090554 1_555
O100 Si7 1.626111 1_555
O100 Sc4 2.123194 1_555
O101 S1 1.481755 1_555
O101 Sn4 2.364331 1_555
O102 Si2 1.679722 1_555
O102 Sn5 2.047728 1_555
O103 Si3 1.637581 1_555
O103 Sc5 2.035172 1_555
O104 S0 1.493094 1_555
O104 Sn5 2.285225 1_555
O105 Si4 1.623406 1_655
O105 Sc5 2.098490 1_555
O106 Si0 1.675088 1_555
O106 Sn5 2.032047 1_555
O107 Si1 1.624579 1_545
O107 Sc5 2.137056 1_555
O108 Si19 1.649058 1_555
O108 Sc6 2.022724 1_555
O109 Si20 1.649308 1_555
O109 Sc7 2.046755 1_555
O110 S6 1.483079 1_555
O110 Sc6 2.305259 1_555
O111 S5 1.482423 1_655
O111 Sc7 2.352074 1_555
O112 Si21 1.648636 1_545
O112 Sc6 2.109423 1_555
O113 Si22 1.646729 1_545
O113 Sc7 2.132559 1_555
O114 Si23 1.647272 1_545
O114 Sc8 2.062992 1_555
O115 Si24 1.638782 1_545
O115 Sc9 2.153216 1_555
O116 Si25 1.647250 1_555
O116 Sc8 2.156129 1_555
O117 Si26 1.638730 1_555
O117 Sc9 2.171736 1_555
O118 S8 1.489811 1_555
O118 Sc8 2.349916 1_555
O119 S7 1.472206 1_655
O119 Sc9 2.368855 1_555
O120 Si17 1.654006 1_555
O120 Sn6 2.055802 1_555
O121 Si18 1.663574 1_555
O121 Sn7 2.038200 1_555
O122 Si16 1.674512 1_455
O122 Sn6 2.039059 1_555
O123 Si15 1.653980 1_555
O123 Sn7 2.073758 1_555
O124 S3 1.505649 1_565
O124 Sn6 2.340402 1_555
O125 S4 1.523795 1_565
O125 Sn7 2.259957 1_555
O126 Si12 1.664583 1_565
O126 Sn8 2.036342 1_555
O127 Si13 1.636724 1_565
O127 Sn9 2.053734 1_555
O128 S2 1.520685 1_555
O128 Sn8 2.267710 1_555
O129 Si14 1.665921 1_555
O129 Sn9 2.057778 1_555
O130 Si11 1.669184 1_455
O130 Sn8 2.049430 1_555
O131 Si10 1.642137 1_555
O131 Sn9 2.051845 1_555
O132 Si0 1.642442 1_565
O132 Sn10 2.047799 1_555
O133 Si1 1.639308 1_555
O133 Sc10 2.109378 1_555
O134 Si2 1.633891 1_555
O134 Sn10 2.045369 1_555
O135 Si3 1.648753 1_555
O135 Sc10 2.048508 1_555
O136 Si4 1.661276 1_555
O136 Sn10 2.093930 1_555
O137 S0 1.484472 1_555
O137 Sc10 2.433843 1_555
O138 Si5 1.647811 1_555
O138 Sc11 2.097835 1_555
O139 Si6 1.647026 1_555
O139 Sn11 2.029021 1_555
O140 S1 1.494244 1_455
O140 Sc11 2.328335 1_555
O141 Si7 1.658872 1_555
O141 Sn11 2.079399 1_555
O142 Si8 1.652108 1_565
O142 Sc11 2.021054 1_555
O143 Si9 1.641176 1_565
O143 Sn11 2.019818 1_555
