# generated using pymatgen
data_Na3MnP3(H12O11)2
_symmetry_space_group_name_H-M   'P 1'
_cell_length_a   14.81834400
_cell_length_b   9.32158000
_cell_length_c   21.25422246
_cell_angle_alpha   90.00000000
_cell_angle_beta   134.16150728
_cell_angle_gamma   90.00000000
_symmetry_Int_Tables_number   1
_chemical_formula_structural   Na3MnP3(H12O11)2
_chemical_formula_sum   'Na12 Mn4 P12 H96 O88'
_cell_volume   2106.11933448
_cell_formula_units_Z   4
loop_
 _symmetry_equiv_pos_site_id
 _symmetry_equiv_pos_as_xyz
  1  'x, y, z'
loop_
 _atom_site_type_symbol
 _atom_site_label
 _atom_site_symmetry_multiplicity
 _atom_site_fract_x
 _atom_site_fract_y
 _atom_site_fract_z
 _atom_site_occupancy
  Na  Na0  1  0.43168200  0.46264000  0.29038900  1
  Na  Na1  1  0.56831800  0.96264000  0.20961100  1
  Na  Na2  1  0.56831800  0.53736000  0.70961100  1
  Na  Na3  1  0.43168200  0.03736000  0.79038900  1
  Na  Na4  1  0.68449200  0.19707700  0.79743000  1
  Na  Na5  1  0.31550800  0.69707700  0.70257000  1
  Na  Na6  1  0.31550800  0.80292300  0.20257000  1
  Na  Na7  1  0.68449200  0.30292300  0.29743000  1
  Na  Na8  1  0.19140200  0.26093700  0.43686500  1
  Na  Na9  1  0.80859800  0.76093700  0.06313500  1
  Na  Na10  1  0.80859800  0.73906300  0.56313500  1
  Na  Na11  1  0.19140200  0.23906300  0.93686500  1
  Mn  Mn0  1  0.93090900  0.04158300  0.18269800  1
  Mn  Mn1  1  0.06909100  0.54158300  0.31730200  1
  Mn  Mn2  1  0.06909100  0.95841700  0.81730200  1
  Mn  Mn3  1  0.93090900  0.45841700  0.68269800  1
  P  P0  1  0.69658400  0.27867100  0.08886100  1
  P  P1  1  0.30341600  0.77867100  0.41113900  1
  P  P2  1  0.30341600  0.72132900  0.91113900  1
  P  P3  1  0.69658400  0.22132900  0.58886100  1
  P  P4  1  0.00377600  0.26930600  0.09709000  1
  P  P5  1  0.99622400  0.76930600  0.40291000  1
  P  P6  1  0.99622400  0.73069400  0.90291000  1
  P  P7  1  0.00377600  0.23069400  0.59709000  1
  P  P8  1  0.74211400  0.15432200  0.98260400  1
  P  P9  1  0.25788600  0.65432200  0.51739600  1
  P  P10  1  0.25788600  0.84567800  0.01739600  1
  P  P11  1  0.74211400  0.34567800  0.48260400  1
  H  H0  1  0.15382700  0.54300300  0.17346200  1
  H  H1  1  0.84617300  0.04300300  0.32653800  1
  H  H2  1  0.84617300  0.45699700  0.82653800  1
  H  H3  1  0.15382700  0.95699700  0.67346200  1
  H  H4  1  0.42521600  0.29204700  0.69112200  1
  H  H5  1  0.57478400  0.79204700  0.80887800  1
  H  H6  1  0.57478400  0.70795300  0.30887800  1
  H  H7  1  0.42521600  0.20795300  0.19112200  1
  H  H8  1  0.74691300  0.77941300  0.82574300  1
  H  H9  1  0.25308700  0.27941300  0.67425700  1
  H  H10  1  0.25308700  0.22058700  0.17425700  1
  H  H11  1  0.74691300  0.72058700  0.32574300  1
  H  H12  1  0.45831500  0.30233200  0.02826000  1
  H  H13  1  0.54168500  0.80233200  0.47174000  1
  H  H14  1  0.54168500  0.69766800  0.97174000  1
  H  H15  1  0.45831500  0.19766800  0.52826000  1
  H  H16  1  0.94138600  0.11933800  0.84635100  1
  H  H17  1  0.05861400  0.61933800  0.65364900  1
  H  H18  1  0.05861400  0.88066200  0.15364900  1
  H  H19  1  0.94138600  0.38066200  0.34635100  1
  H  H20  1  0.43535800  0.23796700  0.62602200  1
  H  H21  1  0.56464200  0.73796700  0.87397800  1
  H  H22  1  0.56464200  0.76203300  0.37397800  1
  H  H23  1  0.43535800  0.26203300  0.12602200  1
  H  H24  1  0.70701900  0.52597100  0.89762600  1
  H  H25  1  0.29298100  0.02597100  0.60237400  1
  H  H26  1  0.29298100  0.47402900  0.10237400  1
  H  H27  1  0.70701900  0.97402900  0.39762600  1
  H  H28  1  0.90617200  0.55506900  0.02370400  1
  H  H29  1  0.09382800  0.05506900  0.47629600  1
  H  H30  1  0.09382800  0.44493100  0.97629600  1
  H  H31  1  0.90617200  0.94493100  0.52370400  1
  H  H32  1  0.12960800  0.30064900  0.27006400  1
  H  H33  1  0.87039200  0.80064900  0.22993600  1
  H  H34  1  0.87039200  0.69935100  0.72993600  1
  H  H35  1  0.12960800  0.19935100  0.77006400  1
  H  H36  1  0.36657900  0.43616700  0.98154500  1
  H  H37  1  0.63342100  0.93616700  0.51845500  1
  H  H38  1  0.63342100  0.56383300  0.01845500  1
  H  H39  1  0.36657900  0.06383300  0.48154500  1
  H  H40  1  0.63569800  0.85835200  0.73803900  1
  H  H41  1  0.36430200  0.35835200  0.76196100  1
  H  H42  1  0.36430200  0.14164800  0.26196100  1
  H  H43  1  0.63569800  0.64164800  0.23803900  1
  H  H44  1  0.12686300  0.18401700  0.53826200  1
  H  H45  1  0.87313700  0.68401700  0.96173800  1
  H  H46  1  0.87313700  0.81598300  0.46173800  1
  H  H47  1  0.12686300  0.31598300  0.03826200  1
  H  H48  1  0.91640900  0.19721500  0.76734800  1
  H  H49  1  0.08359100  0.69721500  0.73265200  1
  H  H50  1  0.08359100  0.80278500  0.23265200  1
  H  H51  1  0.91640900  0.30278500  0.26734800  1
  H  H52  1  0.84392300  0.50182800  0.14885800  1
  H  H53  1  0.15607700  0.00182800  0.35114200  1
  H  H54  1  0.15607700  0.49817200  0.85114200  1
  H  H55  1  0.84392300  0.99817200  0.64885800  1
  H  H56  1  0.26078700  0.38623900  0.34472000  1
  H  H57  1  0.73921300  0.88623900  0.15528000  1
  H  H58  1  0.73921300  0.61376100  0.65528000  1
  H  H59  1  0.26078700  0.11376100  0.84472000  1
  H  H60  1  0.95215400  0.49670000  0.14729100  1
  H  H61  1  0.04784600  0.99670000  0.35270900  1
  H  H62  1  0.04784600  0.50330000  0.85270900  1
  H  H63  1  0.95215400  0.00330000  0.64729100  1
  H  H64  1  0.65837800  0.02026900  0.66358700  1
  H  H65  1  0.34162200  0.52026900  0.83641300  1
  H  H66  1  0.34162200  0.97973100  0.33641300  1
  H  H67  1  0.65837800  0.47973100  0.16358700  1
  H  H68  1  0.94900800  0.12722500  0.95336600  1
  H  H69  1  0.05099200  0.62722500  0.54663400  1
  H  H70  1  0.05099200  0.87277500  0.04663400  1
  H  H71  1  0.94900800  0.37277500  0.45336600  1
  H  H72  1  0.62416600  0.11361300  0.36489300  1
  H  H73  1  0.37583400  0.61361300  0.13510700  1
  H  H74  1  0.37583400  0.88638700  0.63510700  1
  H  H75  1  0.62416600  0.38638700  0.86489300  1
  H  H76  1  0.21959700  0.62753500  0.25902600  1
  H  H77  1  0.78040300  0.12753500  0.24097400  1
  H  H78  1  0.78040300  0.37246500  0.74097400  1
  H  H79  1  0.21959700  0.87246500  0.75902600  1
  H  H80  1  0.10056700  0.02280000  0.09589000  1
  H  H81  1  0.89943300  0.52280000  0.40411000  1
  H  H82  1  0.89943300  0.97720000  0.90411000  1
  H  H83  1  0.10056700  0.47720000  0.59589000  1
  H  H84  1  0.46854800  0.37800300  0.44551100  1
  H  H85  1  0.53145200  0.87800300  0.05448900  1
  H  H86  1  0.53145200  0.62199700  0.55448900  1
  H  H87  1  0.46854800  0.12199700  0.94551100  1
  H  H88  1  0.41445000  0.53510800  0.41280100  1
  H  H89  1  0.58555000  0.03510800  0.08719900  1
  H  H90  1  0.58555000  0.46489200  0.58719900  1
  H  H91  1  0.41445000  0.96489200  0.91280100  1
  H  H92  1  0.53038100  0.04207000  0.63505000  1
  H  H93  1  0.46961900  0.54207000  0.86495000  1
  H  H94  1  0.46961900  0.95793000  0.36495000  1
  H  H95  1  0.53038100  0.45793000  0.13505000  1
  O  O0  1  0.81174500  0.19772400  0.17156700  1
  O  O1  1  0.18825500  0.69772400  0.32843300  1
  O  O2  1  0.18825500  0.80227600  0.82843300  1
  O  O3  1  0.81174500  0.30227600  0.67156700  1
  O  O4  1  0.78523300  0.01975400  0.03698200  1
  O  O5  1  0.21476700  0.51975400  0.46301800  1
  O  O6  1  0.21476700  0.98024600  0.96301800  1
  O  O7  1  0.78523300  0.48024600  0.53698200  1
  O  O8  1  0.84181500  0.63027300  0.98370000  1
  O  O9  1  0.15818500  0.13027300  0.51630000  1
  O  O10  1  0.15818500  0.36972700  0.01630000  1
  O  O11  1  0.84181500  0.86972700  0.48370000  1
  O  O12  1  0.01043700  0.43296100  0.10468600  1
  O  O13  1  0.98956300  0.93296100  0.39531400  1
  O  O14  1  0.98956300  0.56703900  0.89531400  1
  O  O15  1  0.01043700  0.06703900  0.60468600  1
  O  O16  1  0.17693100  0.36180100  0.32326300  1
  O  O17  1  0.82306900  0.86180100  0.17673700  1
  O  O18  1  0.82306900  0.63819900  0.67673700  1
  O  O19  1  0.17693100  0.13819900  0.82326300  1
  O  O20  1  0.70298200  0.43985700  0.10588400  1
  O  O21  1  0.29701800  0.93985700  0.39411600  1
  O  O22  1  0.29701800  0.56014300  0.89411600  1
  O  O23  1  0.70298200  0.06014300  0.60588400  1
  O  O24  1  0.22759100  0.60476700  0.21786000  1
  O  O25  1  0.77240900  0.10476700  0.28214000  1
  O  O26  1  0.77240900  0.39523300  0.78214000  1
  O  O27  1  0.22759100  0.89523300  0.71786000  1
  O  O28  1  0.92424400  0.54742600  0.17289300  1
  O  O29  1  0.07575600  0.04742600  0.32710700  1
  O  O30  1  0.07575600  0.45257400  0.82710700  1
  O  O31  1  0.92424400  0.95257400  0.67289300  1
  O  O32  1  0.89201700  0.08336600  0.89474800  1
  O  O33  1  0.10798300  0.58336600  0.60525200  1
  O  O34  1  0.10798300  0.91663400  0.10525200  1
  O  O35  1  0.89201700  0.41663400  0.39474800  1
  O  O36  1  0.02770800  0.19671700  0.17232100  1
  O  O37  1  0.97229200  0.69671700  0.32767900  1
  O  O38  1  0.97229200  0.80328300  0.82767900  1
  O  O39  1  0.02770800  0.30328300  0.67232100  1
  O  O40  1  0.39496700  0.35629700  0.02300000  1
  O  O41  1  0.60503300  0.85629700  0.47700000  1
  O  O42  1  0.60503300  0.64370300  0.97700000  1
  O  O43  1  0.39496700  0.14370300  0.52300000  1
  O  O44  1  0.97865300  0.14015700  0.82190700  1
  O  O45  1  0.02134700  0.64015700  0.67809300  1
  O  O46  1  0.02134700  0.85984300  0.17809300  1
  O  O47  1  0.97865300  0.35984300  0.32190700  1
  O  O48  1  0.57268800  0.20701400  0.04737200  1
  O  O49  1  0.42731200  0.70701400  0.45262800  1
  O  O50  1  0.42731200  0.79298600  0.95262800  1
  O  O51  1  0.57268800  0.29298600  0.54737200  1
  O  O52  1  0.70497900  0.27482600  0.01610600  1
  O  O53  1  0.29502100  0.77482600  0.48389400  1
  O  O54  1  0.29502100  0.72517400  0.98389400  1
  O  O55  1  0.70497900  0.22517400  0.51610600  1
  O  O56  1  0.63946900  0.14832800  0.88450800  1
  O  O57  1  0.36053100  0.64832800  0.61549200  1
  O  O58  1  0.36053100  0.85167200  0.11549200  1
  O  O59  1  0.63946900  0.35167200  0.38450800  1
  O  O60  1  0.08226000  0.20636600  0.08079400  1
  O  O61  1  0.91774000  0.70636600  0.41920600  1
  O  O62  1  0.91774000  0.79363400  0.91920600  1
  O  O63  1  0.08226000  0.29363400  0.58079400  1
  O  O64  1  0.85916200  0.23134100  0.00478700  1
  O  O65  1  0.14083800  0.73134100  0.49521300  1
  O  O66  1  0.14083800  0.76865900  0.99521300  1
  O  O67  1  0.85916200  0.26865900  0.50478700  1
  O  O68  1  0.40629900  0.43628100  0.39147800  1
  O  O69  1  0.59370100  0.93628100  0.10852200  1
  O  O70  1  0.59370100  0.56371900  0.60852200  1
  O  O71  1  0.40629900  0.06371900  0.89147800  1
  O  O72  1  0.61883400  0.01677300  0.68678000  1
  O  O73  1  0.38116600  0.51677300  0.81322000  1
  O  O74  1  0.38116600  0.98322700  0.31322000  1
  O  O75  1  0.61883400  0.48322700  0.18678000  1
  O  O76  1  0.62999800  0.47681200  0.84474400  1
  O  O77  1  0.37000200  0.97681200  0.65525600  1
  O  O78  1  0.37000200  0.52318800  0.15525600  1
  O  O79  1  0.62999800  0.02318800  0.34474400  1
  O  O80  1  0.47785000  0.29803200  0.67788500  1
  O  O81  1  0.52215000  0.79803200  0.82211500  1
  O  O82  1  0.52215000  0.70196800  0.32211500  1
  O  O83  1  0.47785000  0.20196800  0.17788500  1
  O  O84  1  0.65464000  0.77526200  0.77529900  1
  O  O85  1  0.34536000  0.27526200  0.72470100  1
  O  O86  1  0.34536000  0.22473800  0.22470100  1
  O  O87  1  0.65464000  0.72473800  0.27529900  1
loop_
_geom_bond_atom_site_label_1
_geom_bond_atom_site_label_2
_geom_bond_distance
_geom_bond_site_symmetry_2
Na0 O78 2.396956 1_555
Na0 O68 2.438082 1_555
Na0 O82 2.443212 1_555
Na0 O59 2.443347 1_555
Na0 O86 2.452532 1_555
Na0 O24 2.604214 1_555
Na1 O79 2.396956 1_565
Na1 O69 2.438082 1_555
Na1 O83 2.443212 1_565
Na1 O58 2.443347 1_555
Na1 O87 2.452532 1_555
Na1 O25 2.604214 1_565
Na2 O76 2.396956 1_555
Na2 O70 2.438082 1_555
Na2 O80 2.443212 1_555
Na2 O57 2.443347 1_555
Na2 O84 2.452532 1_555
Na2 O26 2.604214 1_555
Na3 O77 2.396956 1_545
Na3 O71 2.438082 1_555
Na3 O81 2.443212 1_545
Na3 O56 2.443347 1_555
Na3 O85 2.452532 1_555
Na3 O27 2.604214 1_545
Na4 O56 2.407793 1_555
Na4 O26 2.409285 1_555
Na4 O80 2.424268 1_555
Na4 O32 2.448619 1_555
Na4 O72 2.472665 1_555
Na5 O57 2.407793 1_555
Na5 O27 2.409285 1_555
Na5 O81 2.424268 1_555
Na5 O33 2.448619 1_555
Na5 O73 2.472665 1_555
Na6 O58 2.407793 1_555
Na6 O24 2.409285 1_555
Na6 O82 2.424268 1_555
Na6 O34 2.448619 1_555
Na6 O74 2.472665 1_555
Na7 O59 2.407793 1_555
Na7 O25 2.409285 1_555
Na7 O83 2.424268 1_555
Na7 O35 2.448619 1_555
Na7 O75 2.472665 1_555
Na8 O9 2.394615 1_555
Na8 O43 2.439330 1_555
Na8 O5 2.445660 1_555
Na8 O47 2.454760 1_455
Na8 O16 2.457329 1_555
Na8 O29 2.601848 1_555
Na9 O8 2.394615 1_554
Na9 O42 2.439330 1_554
Na9 O4 2.445660 1_565
Na9 O46 2.454760 1_655
Na9 O17 2.457329 1_555
Na9 O28 2.601848 1_555
Na10 O11 2.394615 1_555
Na10 O41 2.439330 1_555
Na10 O7 2.445660 1_555
Na10 O45 2.454760 1_655
Na10 O18 2.457329 1_555
Na10 O31 2.601848 1_555
Na11 O10 2.394615 1_556
Na11 O40 2.439330 1_556
Na11 O6 2.445660 1_545
Na11 O44 2.454760 1_455
Na11 O19 2.457329 1_555
Na11 O30 2.601848 1_555
Mn0 O36 2.153636 1_655
Mn0 O0 2.170346 1_555
Mn0 O29 2.202540 1_655
Mn0 O46 2.204158 1_645
Mn0 O4 2.231078 1_555
Mn0 O17 2.257447 1_545
Mn1 O37 2.153636 1_455
Mn1 O1 2.170346 1_555
Mn1 O28 2.202540 1_455
Mn1 O47 2.204158 1_455
Mn1 O5 2.231078 1_555
Mn1 O16 2.257447 1_555
Mn2 O38 2.153636 1_455
Mn2 O2 2.170346 1_555
Mn2 O31 2.202540 1_455
Mn2 O44 2.204158 1_465
Mn2 O6 2.231078 1_555
Mn2 O19 2.257447 1_565
Mn3 O39 2.153636 1_655
Mn3 O3 2.170346 1_555
Mn3 O30 2.202540 1_655
Mn3 O45 2.204158 1_655
Mn3 O7 2.231078 1_555
Mn3 O18 2.257447 1_555
H0 O24 0.989706 1_555
H1 O25 0.989706 1_555
H2 O26 0.989706 1_555
H3 O27 0.989706 1_555
H4 O80 0.998166 1_555
H5 O81 0.998166 1_555
H6 O82 0.998166 1_555
H7 O83 0.998166 1_555
H8 O84 0.988911 1_555
H9 O85 0.988911 1_555
H10 O86 0.988911 1_555
H11 O87 0.988911 1_555
H12 O40 1.000250 1_555
H13 O41 1.000250 1_555
H14 O42 1.000250 1_555
H15 O43 1.000250 1_555
H16 O44 1.006137 1_555
H17 O45 1.006137 1_555
H18 O46 1.006137 1_555
H19 O47 1.006137 1_555
H20 O80 0.978742 1_555
H21 O81 0.978742 1_555
H22 O82 0.978742 1_555
H23 O83 0.978742 1_555
H24 O76 0.994223 1_555
H25 O77 0.994223 1_545
H26 O78 0.994223 1_555
H27 O79 0.994223 1_565
H28 O8 0.997003 1_554
H29 O9 0.997003 1_555
H30 O10 0.997003 1_556
H31 O11 0.997003 1_555
H32 O16 0.995174 1_555
H33 O17 0.995174 1_555
H34 O18 0.995174 1_555
H35 O19 0.995174 1_555
H36 O40 0.995562 1_556
H37 O41 0.995562 1_555
H38 O42 0.995562 1_554
H39 O43 0.995562 1_555
H40 O84 0.998055 1_555
H41 O85 0.998055 1_555
H42 O86 0.998055 1_555
H43 O87 0.998055 1_555
H44 O9 0.993062 1_555
H45 O8 0.993062 1_555
H46 O11 0.993062 1_555
H47 O10 0.993062 1_555
H48 O44 0.993989 1_555
H49 O45 0.993989 1_555
H50 O46 0.993989 1_555
H51 O47 0.993989 1_555
H52 O28 1.005517 1_555
H53 O29 1.005517 1_555
H54 O30 1.005517 1_555
H55 O31 1.005517 1_555
H56 O16 1.007143 1_555
H57 O17 1.007143 1_555
H58 O18 1.007143 1_555
H59 O19 1.007143 1_555
H60 O28 1.002152 1_555
H61 O29 1.002152 1_565
H62 O30 1.002152 1_555
H63 O31 1.002152 1_545
H64 O72 0.994944 1_555
H65 O73 0.994944 1_555
H66 O74 0.994944 1_555
H67 O75 0.994944 1_555
H68 O32 0.983117 1_555
H69 O33 0.983117 1_555
H70 O34 0.983117 1_555
H71 O35 0.983117 1_555
H72 O79 0.976178 1_555
H73 O78 0.976178 1_555
H74 O77 0.976178 1_555
H75 O76 0.976178 1_555
H76 O24 0.984393 1_555
H77 O25 0.984393 1_555
H78 O26 0.984393 1_555
H79 O27 0.984393 1_555
H80 O34 1.000290 1_545
H81 O35 1.000290 1_555
H82 O32 1.000290 1_565
H83 O33 1.000290 1_555
H84 O68 0.994396 1_555
H85 O69 0.994396 1_555
H86 O70 0.994396 1_555
H87 O71 0.994396 1_555
H88 O68 0.996174 1_555
H89 O69 0.996174 1_545
H90 O70 0.996174 1_555
H91 O71 0.996174 1_565
H92 O72 0.987148 1_555
H93 O73 0.987148 1_555
H94 O74 0.987148 1_555
H95 O75 0.987148 1_555
O0 P0 1.546527 1_555
O1 P1 1.546527 1_555
O2 P2 1.546527 1_555
O3 P3 1.546527 1_555
O4 P8 1.512799 1_554
O5 P9 1.512799 1_555
O6 P10 1.512799 1_556
O7 P11 1.512799 1_555
O12 P4 1.529975 1_555
O13 P5 1.529975 1_555
O14 P6 1.529975 1_555
O15 P7 1.529975 1_555
O20 P0 1.532850 1_555
O21 P1 1.532850 1_555
O22 P2 1.532850 1_555
O23 P3 1.532850 1_555
O36 P4 1.533046 1_555
O37 P5 1.533046 1_555
O38 P6 1.533046 1_555
O39 P7 1.533046 1_555
O48 P0 1.529254 1_555
O49 P1 1.529254 1_555
O50 P2 1.529254 1_555
O51 P3 1.529254 1_555
O52 P8 1.617892 1_554
O52 P0 1.635848 1_555
O53 P9 1.617892 1_555
O53 P1 1.635848 1_555
O54 P10 1.617892 1_556
O54 P2 1.635848 1_555
O55 P11 1.617892 1_555
O55 P3 1.635848 1_555
O56 P8 1.498311 1_555
O57 P9 1.498311 1_555
O58 P10 1.498311 1_555
O59 P11 1.498311 1_555
O60 P4 1.542086 1_555
O61 P5 1.542086 1_555
O62 P6 1.542086 1_555
O63 P7 1.542086 1_555
O64 P8 1.614505 1_554
O64 P4 1.645715 1_655
O65 P9 1.614505 1_555
O65 P5 1.645715 1_455
O66 P10 1.614505 1_556
O66 P6 1.645715 1_455
O67 P11 1.614505 1_555
O67 P7 1.645715 1_655
