# generated using pymatgen
data_MgNiBi
_symmetry_space_group_name_H-M   'P 1'
_cell_length_a   4.38815929
_cell_length_b   4.38816044
_cell_length_c   4.38815979
_cell_angle_alpha   59.99999728
_cell_angle_beta   59.99998865
_cell_angle_gamma   60.00000981
_symmetry_Int_Tables_number   1
_chemical_formula_structural   MgNiBi
_chemical_formula_sum   'Mg1 Ni1 Bi1'
_cell_volume   59.74922879
_cell_formula_units_Z   1
loop_
 _symmetry_equiv_pos_site_id
 _symmetry_equiv_pos_as_xyz
  1  'x, y, z'
loop_
 _atom_site_type_symbol
 _atom_site_label
 _atom_site_symmetry_multiplicity
 _atom_site_fract_x
 _atom_site_fract_y
 _atom_site_fract_z
 _atom_site_occupancy
  Mg  Mg0  1  0.25000000  0.25000000  0.25000000  1
  Ni  Ni0  1  -0.00000000  -0.00000000  0.00000000  1
  Bi  Bi0  1  0.75000000  0.75000000  0.75000000  1
loop_
_geom_bond_atom_site_label_1
_geom_bond_atom_site_label_2
_geom_bond_distance
_geom_bond_site_symmetry_2
Mg0 Ni0 2.687188 1_556
Mg0 Ni0 2.687188 1_655
Mg0 Ni0 2.687188 1_555
Mg0 Ni0 2.687189 1_565
Bi0 Ni0 2.687188 1_665
Bi0 Ni0 2.687188 1_566
Bi0 Ni0 2.687188 1_666
Bi0 Ni0 2.687189 1_656
Bi0 Mg0 3.102897 1_665
Bi0 Mg0 3.102897 1_556
Bi0 Mg0 3.102898 1_656
Bi0 Mg0 3.102898 1_566
Bi0 Mg0 3.102898 1_565
Bi0 Mg0 3.102898 1_655
