# generated using pymatgen
data_CrH36C12S6(ClO2)3
_symmetry_space_group_name_H-M   'P 1'
_cell_length_a   9.58761728
_cell_length_b   9.58761728
_cell_length_c   9.58761639
_cell_angle_alpha   68.16299303
_cell_angle_beta   68.16299303
_cell_angle_gamma   68.16299425
_symmetry_Int_Tables_number   1
_chemical_formula_structural   CrH36C12S6(ClO2)3
_chemical_formula_sum   'Cr1 H36 C12 S6 Cl3 O6'
_cell_volume   730.93593491
_cell_formula_units_Z   1
loop_
 _symmetry_equiv_pos_site_id
 _symmetry_equiv_pos_as_xyz
  1  'x, y, z'
loop_
 _atom_site_type_symbol
 _atom_site_label
 _atom_site_symmetry_multiplicity
 _atom_site_fract_x
 _atom_site_fract_y
 _atom_site_fract_z
 _atom_site_occupancy
  Cr  Cr0  1  0.50000000  0.50000000  0.50000000  1
  H  H0  1  0.19901100  0.40254200  0.92549600  1
  H  H1  1  0.92549600  0.19901100  0.40254200  1
  H  H2  1  0.40254200  0.92549600  0.19901100  1
  H  H3  1  0.80098900  0.59745800  0.07450400  1
  H  H4  1  0.07450400  0.80098900  0.59745800  1
  H  H5  1  0.59745800  0.07450400  0.80098900  1
  H  H6  1  0.07321600  0.28879400  0.95519000  1
  H  H7  1  0.95519000  0.07321600  0.28879400  1
  H  H8  1  0.28879400  0.95519000  0.07321600  1
  H  H9  1  0.92678400  0.71120600  0.04481000  1
  H  H10  1  0.04481000  0.92678400  0.71120600  1
  H  H11  1  0.71120600  0.04481000  0.92678400  1
  H  H12  1  0.02760500  0.49450900  0.84940000  1
  H  H13  1  0.84940000  0.02760500  0.49450900  1
  H  H14  1  0.49450900  0.84940000  0.02760500  1
  H  H15  1  0.35913400  0.00957300  0.56671200  1
  H  H16  1  0.97239500  0.50549100  0.15060000  1
  H  H17  1  0.50549100  0.15060000  0.97239500  1
  H  H18  1  0.99042700  0.43328800  0.64086600  1
  H  H19  1  0.64086600  0.99042700  0.43328800  1
  H  H20  1  0.43328800  0.64086600  0.99042700  1
  H  H21  1  0.00957300  0.56671200  0.35913400  1
  H  H22  1  0.69818000  0.47530800  0.86549500  1
  H  H23  1  0.47530800  0.86549500  0.69818000  1
  H  H24  1  0.86549500  0.69818000  0.47530800  1
  H  H25  1  0.30182000  0.52469200  0.13450500  1
  H  H26  1  0.52469200  0.13450500  0.30182000  1
  H  H27  1  0.13450500  0.30182000  0.52469200  1
  H  H28  1  0.77570300  0.27058500  0.95807400  1
  H  H29  1  0.27058500  0.95807400  0.77570300  1
  H  H30  1  0.95807400  0.77570300  0.27058500  1
  H  H31  1  0.22429700  0.72941500  0.04192600  1
  H  H32  1  0.72941500  0.04192600  0.22429700  1
  H  H33  1  0.04192600  0.22429700  0.72941500  1
  H  H34  1  0.56671200  0.35913400  0.00957300  1
  H  H35  1  0.15060000  0.97239500  0.50549100  1
  C  C0  1  0.08365200  0.32360800  0.64102800  1
  C  C1  1  0.64102800  0.08365200  0.32360800  1
  C  C2  1  0.32360800  0.64102800  0.08365200  1
  C  C3  1  0.91634800  0.67639200  0.35897200  1
  C  C4  1  0.61246500  0.12411900  0.87906000  1
  C  C5  1  0.12411900  0.87906000  0.61246500  1
  C  C6  1  0.87906000  0.61246500  0.12411900  1
  C  C7  1  0.38753500  0.87588100  0.12094000  1
  C  C8  1  0.87588100  0.12094000  0.38753500  1
  C  C9  1  0.12094000  0.38753500  0.87588100  1
  C  C10  1  0.35897200  0.91634800  0.67639200  1
  C  C11  1  0.67639200  0.35897200  0.91634800  1
  S  S0  1  0.23576200  0.33369300  0.69879200  1
  S  S1  1  0.69879200  0.23576200  0.33369300  1
  S  S2  1  0.33369300  0.69879200  0.23576200  1
  S  S3  1  0.76423800  0.66630700  0.30120800  1
  S  S4  1  0.30120800  0.76423800  0.66630700  1
  S  S5  1  0.66630700  0.30120800  0.76423800  1
  Cl  Cl0  1  0.25342400  0.25342400  0.25342400  1
  Cl  Cl1  1  0.74657600  0.74657600  0.74657600  1
  Cl  Cl2  1  0.00000000  0.00000000  0.00000000  1
  O  O0  1  0.27934100  0.48528700  0.58189300  1
  O  O1  1  0.58189300  0.27934100  0.48528700  1
  O  O2  1  0.48528700  0.58189300  0.27934100  1
  O  O3  1  0.72065900  0.51471300  0.41810700  1
  O  O4  1  0.41810700  0.72065900  0.51471300  1
  O  O5  1  0.51471300  0.41810700  0.72065900  1
loop_
_geom_bond_atom_site_label_1
_geom_bond_atom_site_label_2
_geom_bond_distance
_geom_bond_site_symmetry_2
Cr0 O2 2.003995 1_555
Cr0 O5 2.003995 1_555
Cr0 O0 2.003995 1_555
Cr0 O3 2.003995 1_555
Cr0 O1 2.003995 1_555
Cr0 O4 2.003995 1_555
C0 H18 1.097854 1_455
C0 H33 1.102575 1_555
C0 H27 1.103829 1_555
C0 S0 1.785641 1_555
C1 H19 1.097854 1_545
C1 H32 1.102575 1_555
C1 H26 1.103829 1_555
C1 S1 1.785641 1_555
C2 H20 1.097854 1_554
C2 H31 1.102575 1_555
C2 H25 1.103829 1_555
C2 S2 1.785641 1_555
C3 H21 1.097854 1_655
C3 H30 1.102575 1_555
C3 H24 1.103829 1_555
C3 S3 1.785641 1_555
C4 H5 1.096896 1_555
C4 H17 1.099849 1_555
C4 H11 1.100757 1_555
C4 S5 1.788822 1_555
C5 H4 1.096896 1_555
C5 H35 1.099849 1_555
C5 H10 1.100757 1_555
C5 S4 1.788822 1_555
C6 H3 1.096896 1_555
C6 H16 1.099849 1_555
C6 H9 1.100757 1_555
C6 S3 1.788822 1_555
C7 H2 1.096896 1_555
C7 H14 1.099849 1_555
C7 H8 1.100757 1_555
C7 S2 1.788822 1_555
C8 H1 1.096896 1_555
C8 H13 1.099849 1_555
C8 H7 1.100757 1_555
C8 S1 1.788822 1_555
C9 H0 1.096896 1_555
C9 H12 1.099849 1_555
C9 H6 1.100757 1_555
C9 S0 1.788822 1_555
C10 H15 1.097854 1_565
C10 H29 1.102575 1_555
C10 H23 1.103829 1_555
C10 S4 1.785641 1_555
C11 H34 1.097854 1_556
C11 H28 1.102575 1_555
C11 H22 1.103829 1_555
C11 S5 1.785641 1_555
O0 S0 1.560358 1_555
O1 S1 1.560358 1_555
O2 S2 1.560358 1_555
O3 S3 1.560358 1_555
O4 S4 1.560358 1_555
O5 S5 1.560358 1_555
