# generated using pymatgen
data_Tb4Mo4O11
_symmetry_space_group_name_H-M   'P 1'
_cell_length_a   5.74842700
_cell_length_b   10.85824100
_cell_length_c   16.09709900
_cell_angle_alpha   90.00000000
_cell_angle_beta   90.00000000
_cell_angle_gamma   90.00000000
_symmetry_Int_Tables_number   1
_chemical_formula_structural   Tb4Mo4O11
_chemical_formula_sum   'Tb16 Mo16 O44'
_cell_volume   1004.74559831
_cell_formula_units_Z   4
loop_
 _symmetry_equiv_pos_site_id
 _symmetry_equiv_pos_as_xyz
  1  'x, y, z'
loop_
 _atom_site_type_symbol
 _atom_site_label
 _atom_site_symmetry_multiplicity
 _atom_site_fract_x
 _atom_site_fract_y
 _atom_site_fract_z
 _atom_site_occupancy
  Tb  Tb0  1  0.00000000  0.61692500  0.57725500  1
  Tb  Tb1  1  0.00000000  0.38307500  0.42274500  1
  Tb  Tb2  1  0.00000000  0.11692500  0.92274500  1
  Tb  Tb3  1  0.00000000  0.88307500  0.07725500  1
  Tb  Tb4  1  0.00000000  0.40187500  0.73711600  1
  Tb  Tb5  1  0.00000000  0.59812500  0.26288400  1
  Tb  Tb6  1  0.00000000  0.90187500  0.76288400  1
  Tb  Tb7  1  0.00000000  0.09812500  0.23711600  1
  Tb  Tb8  1  0.50000000  0.42212300  0.59857300  1
  Tb  Tb9  1  0.50000000  0.57787700  0.40142700  1
  Tb  Tb10  1  0.50000000  0.92212300  0.90142700  1
  Tb  Tb11  1  0.50000000  0.07787700  0.09857300  1
  Tb  Tb12  1  0.50000000  0.18437900  0.77691300  1
  Tb  Tb13  1  0.50000000  0.81562100  0.22308700  1
  Tb  Tb14  1  0.50000000  0.68437900  0.72308700  1
  Tb  Tb15  1  0.50000000  0.31562100  0.27691300  1
  Mo  Mo0  1  0.00000000  0.91730900  0.55998600  1
  Mo  Mo1  1  0.00000000  0.08269100  0.44001400  1
  Mo  Mo2  1  0.00000000  0.41730900  0.94001400  1
  Mo  Mo3  1  0.00000000  0.58269100  0.05998600  1
  Mo  Mo4  1  0.50000000  0.90429800  0.57089700  1
  Mo  Mo5  1  0.50000000  0.09570200  0.42910300  1
  Mo  Mo6  1  0.50000000  0.40429800  0.92910300  1
  Mo  Mo7  1  0.50000000  0.59570200  0.07089700  1
  Mo  Mo8  1  0.27553000  0.86532200  0.41462300  1
  Mo  Mo9  1  0.27553000  0.13467800  0.58537700  1
  Mo  Mo10  1  0.72447000  0.36532200  0.08537700  1
  Mo  Mo11  1  0.72447000  0.63467800  0.91462300  1
  Mo  Mo12  1  0.72447000  0.13467800  0.58537700  1
  Mo  Mo13  1  0.72447000  0.86532200  0.41462300  1
  Mo  Mo14  1  0.27553000  0.63467800  0.91462300  1
  Mo  Mo15  1  0.27553000  0.36532200  0.08537700  1
  O  O0  1  0.24529300  0.00000000  0.00000000  1
  O  O1  1  0.75470700  0.50000000  0.50000000  1
  O  O2  1  0.75470700  0.00000000  0.00000000  1
  O  O3  1  0.24529300  0.50000000  0.50000000  1
  O  O4  1  0.00000000  0.22933100  0.52344700  1
  O  O5  1  0.00000000  0.77066900  0.47655300  1
  O  O6  1  0.00000000  0.72933100  0.97655300  1
  O  O7  1  0.00000000  0.27066900  0.02344700  1
  O  O8  1  0.00000000  0.04802300  0.65305700  1
  O  O9  1  0.00000000  0.95197700  0.34694300  1
  O  O10  1  0.00000000  0.54802300  0.84694300  1
  O  O11  1  0.00000000  0.45197700  0.15305700  1
  O  O12  1  0.50000000  0.24556000  0.51351400  1
  O  O13  1  0.50000000  0.75444000  0.48648600  1
  O  O14  1  0.50000000  0.74556000  0.98648600  1
  O  O15  1  0.50000000  0.25444000  0.01351400  1
  O  O16  1  0.50000000  0.04060600  0.66593700  1
  O  O17  1  0.50000000  0.95939400  0.33406300  1
  O  O18  1  0.76299100  0.31138600  0.86120100  1
  O  O19  1  0.50000000  0.54060600  0.83406300  1
  O  O20  1  0.24715200  0.96073100  0.17272200  1
  O  O21  1  0.24715200  0.03926900  0.82727800  1
  O  O22  1  0.75284800  0.46073100  0.32727800  1
  O  O23  1  0.75284800  0.53926900  0.67272200  1
  O  O24  1  0.75284800  0.03926900  0.82727800  1
  O  O25  1  0.75284800  0.96073100  0.17272200  1
  O  O26  1  0.24715200  0.53926900  0.67272200  1
  O  O27  1  0.24715200  0.46073100  0.32727800  1
  O  O28  1  0.23700900  0.68861400  0.13879900  1
  O  O29  1  0.23700900  0.31138600  0.86120100  1
  O  O30  1  0.76299100  0.18861400  0.36120100  1
  O  O31  1  0.76299100  0.81138600  0.63879900  1
  O  O32  1  0.26347600  0.22585200  0.17385800  1
  O  O33  1  0.26347600  0.77414800  0.82614200  1
  O  O34  1  0.73652400  0.72585200  0.32614200  1
  O  O35  1  0.73652400  0.27414800  0.67385800  1
  O  O36  1  0.73652400  0.77414800  0.82614200  1
  O  O37  1  0.73652400  0.22585200  0.17385800  1
  O  O38  1  0.26347600  0.27414800  0.67385800  1
  O  O39  1  0.26347600  0.72585200  0.32614200  1
  O  O40  1  0.23700900  0.18861400  0.36120100  1
  O  O41  1  0.23700900  0.81138600  0.63879900  1
  O  O42  1  0.76299100  0.68861400  0.13879900  1
  O  O43  1  0.50000000  0.45939400  0.16593700  1
loop_
_geom_bond_atom_site_label_1
_geom_bond_atom_site_label_2
_geom_bond_distance
_geom_bond_site_symmetry_2
Mo0 O8 2.063735 1_565
Mo0 O5 2.083026 1_555
Mo0 O31 2.188271 1_455
Mo0 O41 2.188271 1_555
Mo1 O9 2.063735 1_545
Mo1 O4 2.083026 1_555
Mo1 O30 2.188271 1_455
Mo1 O40 2.188271 1_555
Mo2 O10 2.063735 1_555
Mo2 O7 2.083026 1_556
Mo2 O29 2.188271 1_555
Mo2 O18 2.188271 1_455
Mo3 O11 2.063735 1_555
Mo3 O6 2.083026 1_554
Mo3 O28 2.188271 1_555
Mo3 O42 2.188271 1_455
Mo4 O13 2.119911 1_555
Mo4 O31 2.120848 1_555
Mo4 O41 2.120848 1_555
Mo4 O16 2.128636 1_565
Mo5 O12 2.119911 1_555
Mo5 O40 2.120848 1_555
Mo5 O30 2.120848 1_555
Mo5 O17 2.128636 1_545
Mo6 O15 2.119911 1_556
Mo6 O29 2.120848 1_555
Mo6 O18 2.120848 1_555
Mo6 O19 2.128636 1_555
Mo7 O14 2.119911 1_554
Mo7 O28 2.120848 1_555
Mo7 O42 2.120848 1_555
Mo7 O43 2.128636 1_555
Mo8 O39 2.080096 1_555
Mo8 O17 2.095237 1_555
Mo8 O13 2.110150 1_555
Mo8 O5 2.135117 1_555
Mo8 O9 2.140295 1_555
Mo9 O38 2.080096 1_555
Mo9 O16 2.095237 1_555
Mo9 O12 2.110150 1_555
Mo9 O4 2.135117 1_555
Mo9 O8 2.140295 1_555
Mo10 O37 2.080096 1_555
Mo10 O43 2.095237 1_555
Mo10 O15 2.110150 1_555
Mo10 O7 2.135117 1_655
Mo10 O11 2.140295 1_655
Mo11 O36 2.080096 1_555
Mo11 O19 2.095237 1_555
Mo11 O14 2.110150 1_555
Mo11 O6 2.135117 1_655
Mo11 O10 2.140295 1_655
Mo12 O35 2.080096 1_555
Mo12 O16 2.095237 1_555
Mo12 O12 2.110150 1_555
Mo12 O4 2.135117 1_655
Mo12 O8 2.140295 1_655
Mo13 O34 2.080096 1_555
Mo13 O17 2.095237 1_555
Mo13 O13 2.110150 1_555
Mo13 O5 2.135117 1_655
Mo13 O9 2.140295 1_655
Mo14 O33 2.080096 1_555
Mo14 O19 2.095237 1_555
Mo14 O14 2.110150 1_555
Mo14 O6 2.135117 1_555
Mo14 O10 2.140295 1_555
Mo15 O32 2.080096 1_555
Mo15 O43 2.095237 1_555
Mo15 O15 2.110150 1_555
Mo15 O7 2.135117 1_555
Mo15 O11 2.140295 1_555
O0 Tb3 2.268616 1_545
O0 Tb2 2.268616 1_554
O0 Tb11 2.318743 1_555
O0 Tb10 2.318743 1_544
O1 Tb0 2.268616 1_655
O1 Tb1 2.268616 1_655
O1 Tb9 2.318743 1_555
O1 Tb8 2.318743 1_555
O2 Tb3 2.268616 1_645
O2 Tb2 2.268616 1_654
O2 Tb11 2.318743 1_555
O2 Tb10 2.318743 1_544
O3 Tb0 2.268616 1_555
O3 Tb1 2.268616 1_555
O3 Tb9 2.318743 1_555
O3 Tb8 2.318743 1_555
O4 Tb1 2.326915 1_555
O5 Tb0 2.326915 1_555
O6 Tb3 2.326915 1_556
O7 Tb2 2.326915 1_554
O8 Tb6 2.375656 1_545
O9 Tb7 2.375656 1_565
O10 Tb4 2.375656 1_555
O11 Tb5 2.375656 1_555
O12 Tb8 2.355893 1_555
O13 Tb9 2.355893 1_555
O14 Tb10 2.355893 1_555
O15 Tb11 2.355893 1_555
O16 Tb12 2.372403 1_555
O17 Tb13 2.372403 1_555
O18 Tb12 2.455243 1_555
O18 Tb4 2.609839 1_655
O18 Tb2 2.701131 1_655
O19 Tb14 2.372403 1_555
O20 Tb3 2.256338 1_555
O20 Tb11 2.270512 1_565
O20 Tb13 2.291838 1_555
O20 Tb7 2.306204 1_565
O21 Tb2 2.256338 1_555
O21 Tb10 2.270512 1_545
O21 Tb12 2.291838 1_555
O21 Tb6 2.306204 1_545
O22 Tb1 2.256338 1_655
O22 Tb9 2.270512 1_555
O22 Tb15 2.291838 1_555
O22 Tb5 2.306204 1_655
O23 Tb0 2.256338 1_655
O23 Tb8 2.270512 1_555
O23 Tb14 2.291838 1_555
O23 Tb4 2.306204 1_655
O24 Tb2 2.256338 1_655
O24 Tb10 2.270512 1_545
O24 Tb12 2.291838 1_555
O24 Tb6 2.306204 1_645
O25 Tb3 2.256338 1_655
O25 Tb11 2.270512 1_565
O25 Tb13 2.291838 1_555
O25 Tb7 2.306204 1_665
O26 Tb0 2.256338 1_555
O26 Tb8 2.270512 1_555
O26 Tb14 2.291838 1_555
O26 Tb4 2.306204 1_555
O27 Tb1 2.256338 1_555
O27 Tb9 2.270512 1_555
O27 Tb15 2.291838 1_555
O27 Tb5 2.306204 1_555
O28 Tb13 2.455243 1_555
O28 Tb5 2.609839 1_555
O28 Tb3 2.701131 1_555
O29 Tb12 2.455243 1_555
O29 Tb4 2.609839 1_555
O29 Tb2 2.701131 1_555
O30 Tb15 2.455243 1_555
O30 Tb7 2.609839 1_655
O30 Tb1 2.701131 1_655
O31 Tb14 2.455243 1_555
O31 Tb6 2.609839 1_655
O31 Tb0 2.701131 1_655
O32 Tb7 2.292219 1_555
O32 Tb15 2.355978 1_555
O32 Tb11 2.428764 1_555
O33 Tb6 2.292219 1_555
O33 Tb14 2.355978 1_555
O33 Tb10 2.428764 1_555
O34 Tb5 2.292219 1_655
O34 Tb13 2.355978 1_555
O34 Tb9 2.428764 1_555
O35 Tb4 2.292219 1_655
O35 Tb12 2.355978 1_555
O35 Tb8 2.428764 1_555
O36 Tb6 2.292219 1_655
O36 Tb14 2.355978 1_555
O36 Tb10 2.428764 1_555
O37 Tb7 2.292219 1_655
O37 Tb15 2.355978 1_555
O37 Tb11 2.428764 1_555
O38 Tb4 2.292219 1_555
O38 Tb12 2.355978 1_555
O38 Tb8 2.428764 1_555
O39 Tb5 2.292219 1_555
O39 Tb13 2.355978 1_555
O39 Tb9 2.428764 1_555
O40 Tb15 2.455243 1_555
O40 Tb7 2.609839 1_555
O40 Tb1 2.701131 1_555
O41 Tb14 2.455243 1_555
O41 Tb6 2.609839 1_555
O41 Tb0 2.701131 1_555
O42 Tb13 2.455243 1_555
O42 Tb5 2.609839 1_655
O42 Tb3 2.701131 1_655
O43 Tb15 2.372403 1_555
