# generated using pymatgen
data_NaCaGa(SO4)3
_symmetry_space_group_name_H-M   'P 1'
_cell_length_a   8.86878761
_cell_length_b   8.86878731
_cell_length_c   22.86010913
_cell_angle_alpha   90.00000000
_cell_angle_beta   90.00000000
_cell_angle_gamma   120.00000107
_symmetry_Int_Tables_number   1
_chemical_formula_structural   NaCaGa(SO4)3
_chemical_formula_sum   'Na6 Ca6 Ga6 S18 O72'
_cell_volume   1557.17499333
_cell_formula_units_Z   6
loop_
 _symmetry_equiv_pos_site_id
 _symmetry_equiv_pos_as_xyz
  1  'x, y, z'
loop_
 _atom_site_type_symbol
 _atom_site_label
 _atom_site_symmetry_multiplicity
 _atom_site_fract_x
 _atom_site_fract_y
 _atom_site_fract_z
 _atom_site_occupancy
  Na  Na0  1  -0.00000000  0.00000000  0.50189959  1
  Na  Na1  1  -0.00000000  0.00000000  0.00189959  1
  Na  Na2  1  0.66666700  0.33333300  0.83523259  1
  Na  Na3  1  0.66666700  0.33333300  0.33523259  1
  Na  Na4  1  0.33333300  0.66666700  0.16856659  1
  Na  Na5  1  0.33333300  0.66666700  0.66856659  1
  Ca  Ca0  1  -0.00000000  0.00000000  0.35434682  1
  Ca  Ca1  1  -0.00000000  0.00000000  0.85434682  1
  Ca  Ca2  1  0.66666700  0.33333300  0.68767982  1
  Ca  Ca3  1  0.66666700  0.33333300  0.18767982  1
  Ca  Ca4  1  0.33333300  0.66666700  0.02101382  1
  Ca  Ca5  1  0.33333300  0.66666700  0.52101382  1
  Ga  Ga0  1  -0.00000000  0.00000000  0.65093193  1
  Ga  Ga1  1  -0.00000000  0.00000000  0.15093193  1
  Ga  Ga2  1  0.66666700  0.33333300  0.98426493  1
  Ga  Ga3  1  0.66666700  0.33333300  0.48426493  1
  Ga  Ga4  1  0.33333300  0.66666700  0.31759893  1
  Ga  Ga5  1  0.33333300  0.66666700  0.81759893  1
  S  S0  1  0.28503991  0.97830077  0.25013909  1
  S  S1  1  0.69326086  0.71496009  0.25013909  1
  S  S2  1  0.02169923  0.30673914  0.25013909  1
  S  S3  1  0.28503991  0.30673914  0.75013909  1
  S  S4  1  0.02169923  0.71496009  0.75013909  1
  S  S5  1  0.69326086  0.97830077  0.75013909  1
  S  S6  1  0.95170691  0.31163377  0.58347209  1
  S  S7  1  0.35992786  0.04829309  0.58347209  1
  S  S8  1  0.68836623  0.64007214  0.58347209  1
  S  S9  1  0.95170691  0.64007214  0.08347209  1
  S  S10  1  0.68836623  0.04829309  0.08347209  1
  S  S11  1  0.35992786  0.31163377  0.08347209  1
  S  S12  1  0.61837291  0.64496777  0.91680609  1
  S  S13  1  0.02659386  0.38162709  0.91680609  1
  S  S14  1  0.35503223  0.97340614  0.91680609  1
  S  S15  1  0.61837291  0.97340614  0.41680609  1
  S  S16  1  0.35503223  0.38162709  0.41680609  1
  S  S17  1  0.02659386  0.64496777  0.41680609  1
  O  O0  1  0.20612257  0.00097736  0.30212807  1
  O  O1  1  0.79485479  0.79387743  0.30212807  1
  O  O2  1  0.99902264  0.20514521  0.30212807  1
  O  O3  1  0.20612257  0.20514521  0.80212807  1
  O  O4  1  0.99902264  0.79387743  0.80212807  1
  O  O5  1  0.79485479  0.00097736  0.80212807  1
  O  O6  1  0.77878940  0.95718694  0.69566612  1
  O  O7  1  0.17839754  0.22121060  0.69566612  1
  O  O8  1  0.04281306  0.82160246  0.69566612  1
  O  O9  1  0.77878940  0.82160246  0.19566612  1
  O  O10  1  0.04281306  0.22121060  0.19566612  1
  O  O11  1  0.17839754  0.95718694  0.19566612  1
  O  O12  1  0.87278957  0.33431036  0.63546107  1
  O  O13  1  0.46152179  0.12721043  0.63546107  1
  O  O14  1  0.66568964  0.53847821  0.63546107  1
  O  O15  1  0.87278957  0.53847821  0.13546107  1
  O  O16  1  0.66568964  0.12721043  0.13546107  1
  O  O17  1  0.46152179  0.33431036  0.13546107  1
  O  O18  1  0.44545640  0.29051994  0.02899912  1
  O  O19  1  0.84506454  0.55454360  0.02899912  1
  O  O20  1  0.70948006  0.15493546  0.02899912  1
  O  O21  1  0.44545640  0.15493546  0.52899912  1
  O  O22  1  0.70948006  0.55454360  0.52899912  1
  O  O23  1  0.84506454  0.29051994  0.52899912  1
  O  O24  1  0.53945557  0.66764436  0.96879507  1
  O  O25  1  0.12818779  0.46054443  0.96879507  1
  O  O26  1  0.33235564  0.87181221  0.96879507  1
  O  O27  1  0.53945557  0.87181221  0.46879507  1
  O  O28  1  0.33235564  0.46054443  0.46879507  1
  O  O29  1  0.12818779  0.66764436  0.46879507  1
  O  O30  1  0.11212240  0.62385394  0.36233312  1
  O  O31  1  0.51173054  0.88787760  0.36233312  1
  O  O32  1  0.37614606  0.48826946  0.36233312  1
  O  O33  1  0.11212240  0.48826946  0.86233312  1
  O  O34  1  0.37614606  0.88787760  0.86233312  1
  O  O35  1  0.51173054  0.62385394  0.86233312  1
  O  O36  1  0.99694753  0.79342533  0.41183894  1
  O  O37  1  0.79647780  0.00305247  0.41183894  1
  O  O38  1  0.20657467  0.20352220  0.41183894  1
  O  O39  1  0.99694753  0.20352220  0.91183894  1
  O  O40  1  0.20657467  0.00305247  0.91183894  1
  O  O41  1  0.79647780  0.79342533  0.91183894  1
  O  O42  1  0.96102589  0.14591623  0.58783500  1
  O  O43  1  0.18489034  0.03897411  0.58783500  1
  O  O44  1  0.85408377  0.81510966  0.58783500  1
  O  O45  1  0.96102589  0.81510966  0.08783500  1
  O  O46  1  0.85408377  0.03897411  0.08783500  1
  O  O47  1  0.18489034  0.14591623  0.08783500  1
  O  O48  1  0.66361453  0.12675833  0.74517194  1
  O  O49  1  0.46314480  0.33638547  0.74517194  1
  O  O50  1  0.87324167  0.53685520  0.74517194  1
  O  O51  1  0.66361453  0.53685520  0.24517194  1
  O  O52  1  0.87324167  0.33638547  0.24517194  1
  O  O53  1  0.46314480  0.12675833  0.24517194  1
  O  O54  1  0.62769289  0.47924923  0.92116800  1
  O  O55  1  0.85155734  0.37230711  0.92116800  1
  O  O56  1  0.52075077  0.14844266  0.92116800  1
  O  O57  1  0.62769289  0.14844266  0.42116800  1
  O  O58  1  0.52075077  0.37230711  0.42116800  1
  O  O59  1  0.85155734  0.47924923  0.42116800  1
  O  O60  1  0.33028053  0.46009233  0.07850594  1
  O  O61  1  0.12981080  0.66971947  0.07850594  1
  O  O62  1  0.53990767  0.87018920  0.07850594  1
  O  O63  1  0.33028053  0.87018920  0.57850594  1
  O  O64  1  0.53990767  0.66971947  0.57850594  1
  O  O65  1  0.12981080  0.46009233  0.57850594  1
  O  O66  1  0.29435889  0.81258323  0.25450200  1
  O  O67  1  0.51822334  0.70564111  0.25450200  1
  O  O68  1  0.18741677  0.48177666  0.25450200  1
  O  O69  1  0.29435889  0.48177666  0.75450200  1
  O  O70  1  0.18741677  0.70564111  0.75450200  1
  O  O71  1  0.51822334  0.81258323  0.75450200  1
loop_
_geom_bond_atom_site_label_1
_geom_bond_atom_site_label_2
_geom_bond_distance
_geom_bond_site_symmetry_2
Na0 O44 2.469962 1_445
Na0 O42 2.469962 1_455
Na0 O43 2.469962 1_555
Na0 O36 2.747043 1_445
Na0 O38 2.747043 1_555
Na0 O37 2.747043 1_455
Na1 O45 2.469962 1_445
Na1 O47 2.469962 1_555
Na1 O46 2.469962 1_455
Na1 O41 2.747043 1_444
Na1 O39 2.747043 1_454
Na1 O40 2.747043 1_554
Na2 O56 2.469962 1_555
Na2 O54 2.469962 1_555
Na2 O55 2.469962 1_555
Na2 O48 2.747043 1_555
Na2 O50 2.747043 1_555
Na2 O49 2.747043 1_555
Na3 O57 2.469962 1_555
Na3 O59 2.469962 1_555
Na3 O58 2.469962 1_555
Na3 O53 2.747043 1_555
Na3 O51 2.747043 1_555
Na3 O52 2.747043 1_555
Na4 O68 2.469962 1_555
Na4 O66 2.469962 1_555
Na4 O67 2.469962 1_555
Na4 O60 2.747043 1_555
Na4 O62 2.747043 1_555
Na4 O61 2.747043 1_555
Na5 O69 2.469962 1_555
Na5 O71 2.469962 1_555
Na5 O70 2.469962 1_555
Na5 O65 2.747043 1_555
Na5 O63 2.747043 1_555
Na5 O64 2.747043 1_555
Ca0 O2 2.179680 1_455
Ca0 O1 2.179680 1_445
Ca0 O0 2.179680 1_555
Ca0 O36 2.243864 1_445
Ca0 O38 2.243864 1_555
Ca0 O37 2.243864 1_455
Ca1 O4 2.179680 1_445
Ca1 O3 2.179680 1_555
Ca1 O5 2.179680 1_455
Ca1 O41 2.243864 1_445
Ca1 O39 2.243864 1_455
Ca1 O40 2.243864 1_555
Ca2 O14 2.179680 1_555
Ca2 O13 2.179680 1_555
Ca2 O12 2.179680 1_555
Ca2 O48 2.243864 1_555
Ca2 O50 2.243864 1_555
Ca2 O49 2.243864 1_555
Ca3 O16 2.179680 1_555
Ca3 O15 2.179680 1_555
Ca3 O17 2.179680 1_555
Ca3 O53 2.243864 1_555
Ca3 O51 2.243864 1_555
Ca3 O52 2.243864 1_555
Ca4 O26 2.179680 1_554
Ca4 O25 2.179680 1_554
Ca4 O24 2.179680 1_554
Ca4 O60 2.243864 1_555
Ca4 O62 2.243864 1_555
Ca4 O61 2.243864 1_555
Ca5 O28 2.179680 1_555
Ca5 O27 2.179680 1_555
Ca5 O29 2.179680 1_555
Ca5 O65 2.243864 1_555
Ca5 O63 2.243864 1_555
Ca5 O64 2.243864 1_555
Ga0 O7 2.072185 1_555
Ga0 O8 2.072185 1_545
Ga0 O6 2.072185 1_445
Ga0 O44 2.078944 1_445
Ga0 O42 2.078944 1_455
Ga0 O43 2.078944 1_555
Ga1 O10 2.072185 1_555
Ga1 O9 2.072185 1_445
Ga1 O11 2.072185 1_545
Ga1 O45 2.078944 1_445
Ga1 O47 2.078944 1_555
Ga1 O46 2.078944 1_455
Ga2 O19 2.072185 1_556
Ga2 O20 2.072185 1_556
Ga2 O18 2.072185 1_556
Ga2 O56 2.078944 1_555
Ga2 O54 2.078944 1_555
Ga2 O55 2.078944 1_555
Ga3 O22 2.072185 1_555
Ga3 O21 2.072185 1_555
Ga3 O23 2.072185 1_555
Ga3 O57 2.078944 1_555
Ga3 O59 2.078944 1_555
Ga3 O58 2.078944 1_555
Ga4 O31 2.072185 1_555
Ga4 O32 2.072185 1_555
Ga4 O30 2.072185 1_555
Ga4 O68 2.078944 1_555
Ga4 O66 2.078944 1_555
Ga4 O67 2.078944 1_555
Ga5 O34 2.072185 1_555
Ga5 O33 2.072185 1_555
Ga5 O35 2.072185 1_555
Ga5 O69 2.078944 1_555
Ga5 O71 2.078944 1_555
Ga5 O70 2.078944 1_555
O0 S0 1.443447 1_545
O1 S1 1.443447 1_555
O2 S2 1.443447 1_655
O3 S3 1.443447 1_555
O4 S4 1.443447 1_655
O5 S5 1.443447 1_545
O6 S5 1.517612 1_555
O7 S3 1.517612 1_555
O8 S4 1.517612 1_555
O9 S1 1.517612 1_555
O10 S2 1.517612 1_555
O11 S0 1.517612 1_555
O12 S6 1.443447 1_555
O13 S7 1.443447 1_555
O14 S8 1.443447 1_555
O15 S9 1.443447 1_555
O16 S10 1.443447 1_555
O17 S11 1.443447 1_555
O18 S11 1.517612 1_555
O19 S9 1.517612 1_555
O20 S10 1.517612 1_555
O21 S7 1.517612 1_555
O22 S8 1.517612 1_555
O23 S6 1.517612 1_555
O24 S12 1.443447 1_555
O25 S13 1.443447 1_555
O26 S14 1.443447 1_555
O27 S15 1.443447 1_555
O28 S16 1.443447 1_555
O29 S17 1.443447 1_555
O30 S17 1.517612 1_555
O31 S15 1.517612 1_555
O32 S16 1.517612 1_555
O33 S13 1.517612 1_555
O34 S14 1.517612 1_555
O35 S12 1.517612 1_555
O36 S17 1.470286 1_655
O37 S15 1.470295 1_545
O38 S16 1.470292 1_555
O39 S13 1.470295 1_655
O40 S14 1.470286 1_545
O41 S12 1.470292 1_555
O42 S6 1.516016 1_555
O43 S7 1.516025 1_555
O44 S8 1.516021 1_555
O45 S9 1.516025 1_555
O46 S10 1.516016 1_555
O47 S11 1.516021 1_555
O48 S5 1.470286 1_545
O49 S3 1.470295 1_555
O50 S4 1.470292 1_655
O51 S1 1.470295 1_555
O52 S2 1.470286 1_655
O53 S0 1.470292 1_545
O54 S12 1.516028 1_555
O55 S13 1.516011 1_655
O56 S14 1.516019 1_545
O57 S15 1.516011 1_545
O58 S16 1.516028 1_555
O59 S17 1.516019 1_655
O60 S11 1.470299 1_555
O61 S9 1.470281 1_455
O62 S10 1.470287 1_565
O63 S7 1.470281 1_565
O64 S8 1.470299 1_555
O65 S6 1.470287 1_455
O66 S0 1.516016 1_555
O67 S1 1.516025 1_555
O68 S2 1.516021 1_555
O69 S3 1.516025 1_555
O70 S4 1.516016 1_555
O71 S5 1.516021 1_555
