# generated using pymatgen
data_MgCr4O8
_symmetry_space_group_name_H-M   'P 1'
_cell_length_a   5.06351444
_cell_length_b   5.20398720
_cell_length_c   5.91905176
_cell_angle_alpha   93.87533235
_cell_angle_beta   75.42701260
_cell_angle_gamma   95.33168344
_symmetry_Int_Tables_number   1
_chemical_formula_structural   MgCr4O8
_chemical_formula_sum   'Mg1 Cr4 O8'
_cell_volume   150.14056372
_cell_formula_units_Z   1
loop_
 _symmetry_equiv_pos_site_id
 _symmetry_equiv_pos_as_xyz
  1  'x, y, z'
loop_
 _atom_site_type_symbol
 _atom_site_label
 _atom_site_symmetry_multiplicity
 _atom_site_fract_x
 _atom_site_fract_y
 _atom_site_fract_z
 _atom_site_occupancy
  Mg  Mg0  1  0.17460116  0.08058490  0.36600328  1
  Cr  Cr0  1  0.52539596  0.24394901  0.67485370  1
  Cr  Cr1  1  0.00375248  0.75112029  0.84823948  1
  Cr  Cr2  1  0.59776443  0.69917835  0.42303946  1
  Cr  Cr3  1  0.91387866  0.24954740  0.06820576  1
  O  O0  1  0.77299722  0.07375071  0.85253692  1
  O  O1  1  0.76380604  0.58006036  0.62757937  1
  O  O2  1  0.30888596  0.89491248  0.58444225  1
  O  O3  1  0.20114305  0.45083533  0.91024887  1
  O  O4  1  0.17548737  0.99273202  0.03947864  1
  O  O5  1  0.35816342  0.39665023  0.46077162  1
  O  O6  1  0.78001811  0.09560686  0.38179337  1
  O  O7  1  0.73660516  0.59107205  0.11994930  1
loop_
_geom_bond_atom_site_label_1
_geom_bond_atom_site_label_2
_geom_bond_distance
_geom_bond_site_symmetry_2
Mg0 O5 1.933255 1_555
Mg0 O2 1.949628 1_545
Mg0 O4 1.954740 1_545
Mg0 O6 1.985152 1_455
Cr0 O5 1.937874 1_555
Cr0 O1 2.024547 1_555
Cr0 O6 2.036096 1_555
Cr0 O0 2.111458 1_555
Cr0 O2 2.140393 1_545
Cr0 O3 2.184197 1_555
Cr1 O4 1.928256 1_556
Cr1 O7 1.996732 1_456
Cr1 O2 2.028355 1_555
Cr1 O3 2.031764 1_555
Cr1 O1 2.101164 1_455
Cr1 O0 2.128063 1_465
Cr2 O1 1.807597 1_555
Cr2 O7 1.825265 1_555
Cr2 O2 1.879356 1_555
Cr2 O5 1.885891 1_555
Cr2 O6 2.183607 1_565
Cr3 O0 1.776097 1_554
Cr3 O3 1.803336 1_654
Cr3 O4 1.937708 1_645
Cr3 O6 2.003353 1_555
Cr3 O7 2.035400 1_555
