# generated using pymatgen
data_ZrSnIr
_symmetry_space_group_name_H-M   'P 1'
_cell_length_a   7.25925493
_cell_length_b   7.25925420
_cell_length_c   3.74645012
_cell_angle_alpha   90.00000000
_cell_angle_beta   90.00000000
_cell_angle_gamma   119.99999898
_symmetry_Int_Tables_number   1
_chemical_formula_structural   ZrSnIr
_chemical_formula_sum   'Zr3 Sn3 Ir3'
_cell_volume   170.97579970
_cell_formula_units_Z   3
loop_
 _symmetry_equiv_pos_site_id
 _symmetry_equiv_pos_as_xyz
  1  'x, y, z'
loop_
 _atom_site_type_symbol
 _atom_site_label
 _atom_site_symmetry_multiplicity
 _atom_site_fract_x
 _atom_site_fract_y
 _atom_site_fract_z
 _atom_site_occupancy
  Zr  Zr0  1  0.00000000  0.60444456  0.50000000  1
  Zr  Zr1  1  0.39555544  0.39555544  0.50000000  1
  Zr  Zr2  1  0.60444456  -0.00000000  0.50000000  1
  Sn  Sn0  1  0.26632204  0.00000000  -0.00000000  1
  Sn  Sn1  1  0.73367796  0.73367796  -0.00000000  1
  Sn  Sn2  1  -0.00000000  0.26632204  0.00000000  1
  Ir  Ir0  1  0.66666700  0.33333300  0.00000000  1
  Ir  Ir1  1  0.33333300  0.66666700  0.00000000  1
  Ir  Ir2  1  0.00000000  -0.00000000  0.50000000  1
loop_
_geom_bond_atom_site_label_1
_geom_bond_atom_site_label_2
_geom_bond_distance
_geom_bond_site_symmetry_2
Sn0 Zr2 3.087657 1_554
Sn0 Zr2 3.087657 1_555
Sn0 Zr1 3.152844 1_555
Sn0 Zr1 3.152844 1_554
Sn0 Zr0 3.152844 1_544
Sn0 Zr0 3.152844 1_545
Sn1 Zr1 3.087657 1_555
Sn1 Zr1 3.087657 1_554
Sn1 Zr2 3.152844 1_564
Sn1 Zr2 3.152844 1_565
Sn1 Zr0 3.152844 1_655
Sn1 Zr0 3.152844 1_654
Sn2 Zr0 3.087657 1_554
Sn2 Zr0 3.087657 1_555
Sn2 Zr2 3.152844 1_455
Sn2 Zr2 3.152844 1_454
Sn2 Zr1 3.152844 1_555
Sn2 Zr1 3.152844 1_554
Ir0 Sn2 2.696091 1_655
Ir0 Sn0 2.696095 1_555
Ir0 Sn1 2.696098 1_555
Ir0 Zr2 2.911221 1_554
Ir0 Zr2 2.911221 1_555
Ir0 Zr0 2.911223 1_655
Ir0 Zr0 2.911223 1_654
Ir0 Zr1 2.911226 1_555
Ir0 Zr1 2.911226 1_554
Ir1 Sn0 2.696091 1_565
Ir1 Sn2 2.696095 1_555
Ir1 Sn1 2.696098 1_555
Ir1 Zr0 2.911221 1_555
Ir1 Zr0 2.911221 1_554
Ir1 Zr2 2.911223 1_565
Ir1 Zr2 2.911223 1_564
Ir1 Zr1 2.911226 1_555
Ir1 Zr1 2.911226 1_554
Ir2 Sn2 2.691954 1_555
Ir2 Sn2 2.691954 1_556
Ir2 Sn1 2.691955 1_445
Ir2 Sn1 2.691955 1_446
Ir2 Sn0 2.691955 1_556
Ir2 Sn0 2.691955 1_555
Ir2 Zr0 2.871437 1_545
Ir2 Zr1 2.871438 1_555
Ir2 Zr2 2.871438 1_455
