# generated using pymatgen
data_Sc2VB2Ir5
_symmetry_space_group_name_H-M   'P 1'
_cell_length_a   9.33016800
_cell_length_b   9.33016800
_cell_length_c   3.14290000
_cell_angle_alpha   90.00000000
_cell_angle_beta   90.00000000
_cell_angle_gamma   90.00000000
_symmetry_Int_Tables_number   1
_chemical_formula_structural   Sc2VB2Ir5
_chemical_formula_sum   'Sc4 V2 B4 Ir10'
_cell_volume   273.59584051
_cell_formula_units_Z   2
loop_
 _symmetry_equiv_pos_site_id
 _symmetry_equiv_pos_as_xyz
  1  'x, y, z'
loop_
 _atom_site_type_symbol
 _atom_site_label
 _atom_site_symmetry_multiplicity
 _atom_site_fract_x
 _atom_site_fract_y
 _atom_site_fract_z
 _atom_site_occupancy
  Sc  Sc0  1  0.82441700  0.32441700  0.00000000  1
  Sc  Sc1  1  0.17558300  0.67558300  0.00000000  1
  Sc  Sc2  1  0.32441700  0.17558300  0.00000000  1
  Sc  Sc3  1  0.67558300  0.82441700  0.00000000  1
  V  V0  1  0.50000000  0.50000000  0.00000000  1
  V  V1  1  0.00000000  0.00000000  0.00000000  1
  B  B0  1  0.62245400  0.12245400  0.00000000  1
  B  B1  1  0.37754600  0.87754600  0.00000000  1
  B  B2  1  0.12245400  0.37754600  0.00000000  1
  B  B3  1  0.87754600  0.62245400  0.00000000  1
  Ir  Ir0  1  0.71664100  0.57124600  0.50000000  1
  Ir  Ir1  1  0.28335900  0.42875400  0.50000000  1
  Ir  Ir2  1  0.21664100  0.92875400  0.50000000  1
  Ir  Ir3  1  0.78335900  0.07124600  0.50000000  1
  Ir  Ir4  1  0.42875400  0.71664100  0.50000000  1
  Ir  Ir5  1  0.57124600  0.28335900  0.50000000  1
  Ir  Ir6  1  0.07124600  0.21664100  0.50000000  1
  Ir  Ir7  1  0.92875400  0.78335900  0.50000000  1
  Ir  Ir8  1  0.50000000  0.00000000  0.50000000  1
  Ir  Ir9  1  0.00000000  0.50000000  0.50000000  1
loop_
_geom_bond_atom_site_label_1
_geom_bond_atom_site_label_2
_geom_bond_distance
_geom_bond_site_symmetry_2
B0 Ir5 2.225206 1_554
B0 Ir5 2.225206 1_555
B0 Ir3 2.225206 1_555
B0 Ir3 2.225206 1_554
B0 Ir8 2.253917 1_555
B0 Ir8 2.253917 1_554
B0 Sc0 2.664872 1_555
B0 Sc2 2.824572 1_555
B0 Sc3 2.824572 1_545
B1 Ir2 2.225206 1_555
B1 Ir2 2.225206 1_554
B1 Ir4 2.225206 1_555
B1 Ir4 2.225206 1_554
B1 Ir8 2.253917 1_565
B1 Ir8 2.253917 1_564
B1 Sc1 2.664872 1_555
B1 Sc2 2.824572 1_565
B1 Sc3 2.824572 1_555
B2 Ir6 2.225206 1_555
B2 Ir6 2.225206 1_554
B2 Ir1 2.225206 1_555
B2 Ir1 2.225206 1_554
B2 Ir9 2.253917 1_555
B2 Ir9 2.253917 1_554
B2 Sc2 2.664872 1_555
B2 Sc1 2.824572 1_555
B2 Sc0 2.824572 1_455
B3 Ir0 2.225206 1_555
B3 Ir7 2.225206 1_554
B3 Ir0 2.225206 1_554
B3 Ir7 2.225206 1_555
B3 Ir9 2.253917 1_655
B3 Ir9 2.253917 1_654
B3 Sc3 2.664872 1_555
B3 Sc0 2.824572 1_555
B3 Sc1 2.824572 1_655
Ir0 V0 2.645179 1_555
Ir0 V0 2.645179 1_556
Ir0 Sc3 2.862840 1_556
Ir0 Sc3 2.862840 1_555
Ir0 Sc0 2.963820 1_555
Ir0 Sc0 2.963820 1_556
Ir1 V0 2.645179 1_555
Ir1 V0 2.645179 1_556
Ir1 Sc2 2.862840 1_556
Ir1 Sc2 2.862840 1_555
Ir1 Sc1 2.963820 1_556
Ir1 Sc1 2.963820 1_555
Ir2 V1 2.645179 1_565
Ir2 V1 2.645179 1_566
Ir2 Sc1 2.862840 1_555
Ir2 Sc1 2.862840 1_556
Ir2 Sc2 2.963820 1_566
Ir2 Sc2 2.963820 1_565
Ir3 V1 2.645179 1_655
Ir3 V1 2.645179 1_656
Ir3 Sc0 2.862840 1_555
Ir3 Sc0 2.862840 1_556
Ir3 Sc3 2.963820 1_545
Ir3 Sc3 2.963820 1_546
Ir4 V0 2.645179 1_555
Ir4 V0 2.645179 1_556
Ir4 Sc1 2.862840 1_555
Ir4 Sc1 2.862840 1_556
Ir4 Sc3 2.963820 1_555
Ir4 Sc3 2.963820 1_556
Ir5 V0 2.645179 1_555
Ir5 V0 2.645179 1_556
Ir5 Sc0 2.862840 1_555
Ir5 Sc0 2.862840 1_556
Ir5 Sc2 2.963820 1_556
Ir5 Sc2 2.963820 1_555
Ir6 V1 2.645179 1_555
Ir6 V1 2.645179 1_556
Ir6 Sc2 2.862840 1_556
Ir6 Sc2 2.862840 1_555
Ir6 Sc0 2.963820 1_456
Ir6 Sc0 2.963820 1_455
Ir7 V1 2.645179 1_665
Ir7 V1 2.645179 1_666
Ir7 Sc3 2.862840 1_556
Ir7 Sc3 2.862840 1_555
Ir7 Sc1 2.963820 1_655
Ir7 Sc1 2.963820 1_656
Ir8 Sc2 2.799460 1_556
Ir8 Sc2 2.799460 1_555
Ir8 Sc3 2.799460 1_545
Ir8 Sc3 2.799460 1_546
Ir9 Sc1 2.799460 1_556
Ir9 Sc0 2.799460 1_455
Ir9 Sc0 2.799460 1_456
Ir9 Sc1 2.799460 1_555
