# generated using pymatgen
data_Sm(Ni2P)2
_symmetry_space_group_name_H-M   'P 1'
_cell_length_a   3.71252181
_cell_length_b   10.66555411
_cell_length_c   13.97937109
_cell_angle_alpha   90.00000000
_cell_angle_beta   90.00000000
_cell_angle_gamma   90.00000000
_symmetry_Int_Tables_number   1
_chemical_formula_structural   Sm(Ni2P)2
_chemical_formula_sum   'Sm6 Ni24 P12'
_cell_volume   553.52860706
_cell_formula_units_Z   6
loop_
 _symmetry_equiv_pos_site_id
 _symmetry_equiv_pos_as_xyz
  1  'x, y, z'
loop_
 _atom_site_type_symbol
 _atom_site_label
 _atom_site_symmetry_multiplicity
 _atom_site_fract_x
 _atom_site_fract_y
 _atom_site_fract_z
 _atom_site_occupancy
  Sm  Sm0  1  0.00000000  0.87964524  0.27731703  1
  Sm  Sm1  1  0.00000000  0.12035476  0.72268297  1
  Sm  Sm2  1  -0.00000000  -0.00000000  -0.00000000  1
  Sm  Sm3  1  0.50000000  0.62035476  0.77731703  1
  Sm  Sm4  1  0.50000000  0.37964524  0.22268297  1
  Sm  Sm5  1  0.50000000  0.50000000  0.50000000  1
  Ni  Ni0  1  0.50000000  0.24712946  0.41369631  1
  Ni  Ni1  1  0.00000000  0.59705064  0.94127553  1
  Ni  Ni2  1  -0.00000000  0.92631526  0.56323640  1
  Ni  Ni3  1  0.50000000  0.32065222  0.78467826  1
  Ni  Ni4  1  0.50000000  0.06895860  0.17914035  1
  Ni  Ni5  1  -0.00000000  0.07368474  0.43676360  1
  Ni  Ni6  1  0.50000000  0.93104140  0.82085965  1
  Ni  Ni7  1  0.00000000  0.40294936  0.05872447  1
  Ni  Ni8  1  -0.00000000  0.43104140  0.67914035  1
  Ni  Ni9  1  0.50000000  0.77533706  0.96208623  1
  Ni  Ni10  1  0.00000000  0.82065222  0.71532174  1
  Ni  Ni11  1  0.50000000  0.75287054  0.58630369  1
  Ni  Ni12  1  -0.00000000  0.27533706  0.53791377  1
  Ni  Ni13  1  0.50000000  0.57368474  0.06323640  1
  Ni  Ni14  1  0.00000000  0.56895860  0.32085965  1
  Ni  Ni15  1  -0.00000000  0.25287054  0.91369631  1
  Ni  Ni16  1  0.50000000  0.09705064  0.55872447  1
  Ni  Ni17  1  0.00000000  0.17934778  0.28467826  1
  Ni  Ni18  1  0.50000000  0.67934778  0.21532174  1
  Ni  Ni19  1  0.50000000  0.42631526  0.93676360  1
  Ni  Ni20  1  -0.00000000  0.74712946  0.08630369  1
  Ni  Ni21  1  0.50000000  0.22466294  0.03791377  1
  Ni  Ni22  1  -0.00000000  0.72466294  0.46208623  1
  Ni  Ni23  1  0.50000000  0.90294936  0.44127553  1
  P  P0  1  0.00000000  0.20786397  0.12847721  1
  P  P1  1  -0.00000000  0.64060401  0.61762724  1
  P  P2  1  0.00000000  0.35939599  0.38237276  1
  P  P3  1  0.50000000  0.14060401  0.88237276  1
  P  P4  1  -0.00000000  0.43261123  0.84263861  1
  P  P5  1  0.50000000  0.29213603  0.62847721  1
  P  P6  1  0.50000000  0.85939599  0.11762724  1
  P  P7  1  -0.00000000  0.79213603  0.87152279  1
  P  P8  1  0.50000000  0.70786397  0.37152279  1
  P  P9  1  0.50000000  0.06738877  0.34263861  1
  P  P10  1  0.00000000  0.56738877  0.15736139  1
  P  P11  1  0.50000000  0.93261123  0.65736139  1
loop_
_geom_bond_atom_site_label_1
_geom_bond_atom_site_label_2
_geom_bond_distance
_geom_bond_site_symmetry_2
Ni0 P9 2.159108 1_555
Ni0 P2 2.251927 1_655
Ni0 P2 2.251927 1_555
Ni0 Sm5 2.954557 1_555
Ni0 Sm4 3.021223 1_555
Ni1 P4 2.230978 1_555
Ni1 P7 2.297848 1_555
Ni1 Sm3 2.959884 1_555
Ni1 Sm3 2.959884 1_455
Ni2 P11 2.276305 1_455
Ni2 P11 2.276305 1_555
Ni2 Sm1 3.041589 1_565
Ni3 P5 2.204672 1_555
Ni3 P4 2.351190 1_655
Ni3 P4 2.351190 1_555
Ni3 P3 2.356430 1_555
Ni3 Sm1 2.959815 1_555
Ni3 Sm1 2.959815 1_655
Ni3 Sm3 3.198150 1_555
Ni4 P9 2.285664 1_555
Ni4 P6 2.394813 1_545
Ni4 P0 2.478338 1_655
Ni4 P0 2.478338 1_555
Ni4 Sm0 3.066955 1_545
Ni4 Sm0 3.066955 1_645
Ni4 Sm2 3.202812 1_555
Ni4 Sm2 3.202812 1_655
Ni4 Sm4 3.369089 1_555
Ni5 P9 2.276305 1_555
Ni5 P9 2.276305 1_455
Ni5 Sm0 3.041589 1_545
Ni6 P11 2.285664 1_555
Ni6 P3 2.394813 1_565
Ni6 P7 2.478338 1_655
Ni6 P7 2.478338 1_555
Ni6 Sm1 3.066955 1_565
Ni6 Sm1 3.066955 1_665
Ni6 Sm2 3.202812 1_666
Ni6 Sm2 3.202812 1_566
Ni6 Sm3 3.369089 1_555
Ni7 P10 2.230978 1_555
Ni7 P0 2.297848 1_555
Ni7 Sm4 2.959884 1_555
Ni7 Sm4 2.959884 1_455
Ni8 P4 2.285664 1_555
Ni8 P1 2.394813 1_555
Ni8 P5 2.478338 1_555
Ni8 P5 2.478338 1_455
Ni8 Sm3 3.066955 1_455
Ni8 Sm3 3.066955 1_555
Ni8 Sm5 3.202812 1_455
Ni8 Sm5 3.202812 1_555
Ni8 Sm1 3.369089 1_555
Ni9 P7 2.254022 1_655
Ni9 P7 2.254022 1_555
Ni9 P6 2.351944 1_556
Ni9 Sm3 3.066592 1_555
Ni9 Sm2 3.077040 1_666
Ni9 Sm2 3.077040 1_566
Ni10 P7 2.204672 1_555
Ni10 P11 2.351190 1_555
Ni10 P11 2.351190 1_455
Ni10 P1 2.356430 1_555
Ni10 Sm3 2.959815 1_455
Ni10 Sm3 2.959815 1_555
Ni10 Sm1 3.198150 1_565
Ni11 P11 2.159108 1_555
Ni11 P1 2.251927 1_655
Ni11 P1 2.251927 1_555
Ni11 Sm5 2.954557 1_555
Ni11 Sm3 3.021223 1_555
Ni12 P5 2.254022 1_455
Ni12 P5 2.254022 1_555
Ni12 P2 2.351944 1_555
Ni12 Sm1 3.066592 1_555
Ni12 Sm5 3.077040 1_555
Ni12 Sm5 3.077040 1_455
Ni13 P10 2.276305 1_655
Ni13 P10 2.276305 1_555
Ni13 Sm4 3.041589 1_555
Ni14 P10 2.285664 1_555
Ni14 P2 2.394813 1_555
Ni14 P8 2.478338 1_555
Ni14 P8 2.478338 1_455
Ni14 Sm4 3.066955 1_455
Ni14 Sm4 3.066955 1_555
Ni14 Sm5 3.202812 1_455
Ni14 Sm5 3.202812 1_555
Ni14 Sm0 3.369089 1_555
Ni15 P4 2.159108 1_555
Ni15 P3 2.251927 1_455
Ni15 P3 2.251927 1_555
Ni15 Sm2 2.954557 1_556
Ni15 Sm1 3.021223 1_555
Ni16 P11 2.230978 1_545
Ni16 P5 2.297848 1_555
Ni16 Sm1 2.959884 1_555
Ni16 Sm1 2.959884 1_655
Ni17 P0 2.204672 1_555
Ni17 P9 2.351190 1_555
Ni17 P9 2.351190 1_455
Ni17 P2 2.356430 1_555
Ni17 Sm4 2.959815 1_455
Ni17 Sm4 2.959815 1_555
Ni17 Sm0 3.198150 1_545
Ni18 P8 2.204672 1_555
Ni18 P10 2.351190 1_655
Ni18 P10 2.351190 1_555
Ni18 P6 2.356430 1_555
Ni18 Sm0 2.959815 1_555
Ni18 Sm0 2.959815 1_655
Ni18 Sm4 3.198150 1_555
Ni19 P4 2.276305 1_555
Ni19 P4 2.276305 1_655
Ni19 Sm3 3.041589 1_555
Ni20 P10 2.159108 1_555
Ni20 P6 2.251927 1_455
Ni20 P6 2.251927 1_555
Ni20 Sm2 2.954557 1_565
Ni20 Sm0 3.021223 1_555
Ni21 P0 2.254022 1_655
Ni21 P0 2.254022 1_555
Ni21 P3 2.351944 1_554
Ni21 Sm4 3.066592 1_555
Ni21 Sm2 3.077040 1_555
Ni21 Sm2 3.077040 1_655
Ni22 P8 2.254022 1_455
Ni22 P8 2.254022 1_555
Ni22 P1 2.351944 1_555
Ni22 Sm0 3.066592 1_555
Ni22 Sm5 3.077040 1_455
Ni22 Sm5 3.077040 1_555
Ni23 P9 2.230978 1_565
Ni23 P8 2.297848 1_555
Ni23 Sm0 2.959884 1_655
Ni23 Sm0 2.959884 1_555
P0 Sm2 2.853199 1_555
P0 Sm4 2.921776 1_455
P0 Sm4 2.921776 1_555
P1 Sm5 2.898011 1_455
P1 Sm5 2.898011 1_555
P1 Sm3 2.911321 1_555
P1 Sm3 2.911321 1_455
P2 Sm5 2.898011 1_455
P2 Sm5 2.898011 1_555
P2 Sm4 2.911321 1_555
P2 Sm4 2.911321 1_455
P3 Sm2 2.898011 1_656
P3 Sm2 2.898011 1_556
P3 Sm1 2.911321 1_555
P3 Sm1 2.911321 1_655
P4 Sm3 2.879083 1_555
P4 Sm3 2.879083 1_455
P5 Sm5 2.853199 1_555
P5 Sm1 2.921776 1_555
P5 Sm1 2.921776 1_655
P6 Sm2 2.898011 1_565
P6 Sm2 2.898011 1_665
P6 Sm0 2.911321 1_555
P6 Sm0 2.911321 1_655
P7 Sm2 2.853199 1_566
P7 Sm3 2.921776 1_555
P7 Sm3 2.921776 1_455
P8 Sm5 2.853199 1_555
P8 Sm0 2.921776 1_555
P8 Sm0 2.921776 1_655
P9 Sm0 2.879083 1_545
P9 Sm0 2.879083 1_645
P10 Sm4 2.879083 1_455
P10 Sm4 2.879083 1_555
P11 Sm1 2.879083 1_565
P11 Sm1 2.879083 1_665
