# generated using pymatgen
data_Na5MnO4
_symmetry_space_group_name_H-M   'P 1'
_cell_length_a   5.75727280
_cell_length_b   11.90148748
_cell_length_c   7.66451850
_cell_angle_alpha   90.00000000
_cell_angle_beta   90.00000000
_cell_angle_gamma   90.00000000
_symmetry_Int_Tables_number   1
_chemical_formula_structural   Na5MnO4
_chemical_formula_sum   'Na20 Mn4 O16'
_cell_volume   525.17365185
_cell_formula_units_Z   4
loop_
 _symmetry_equiv_pos_site_id
 _symmetry_equiv_pos_as_xyz
  1  'x, y, z'
loop_
 _atom_site_type_symbol
 _atom_site_label
 _atom_site_symmetry_multiplicity
 _atom_site_fract_x
 _atom_site_fract_y
 _atom_site_fract_z
 _atom_site_occupancy
  Na  Na0  1  0.24237038  0.34034556  0.50000000  1
  Na  Na1  1  0.24237038  0.84034556  0.50000000  1
  Na  Na2  1  0.74237038  0.15965444  0.00000000  1
  Na  Na3  1  0.74237038  0.65965444  0.00000000  1
  Na  Na4  1  0.74573502  0.30306539  0.30238011  1
  Na  Na5  1  0.74573502  0.80306539  0.30238011  1
  Na  Na6  1  0.24573502  0.19693461  0.80238011  1
  Na  Na7  1  0.24573502  0.69693461  0.80238011  1
  Na  Na8  1  0.74573502  0.30306539  0.69761989  1
  Na  Na9  1  0.74573502  0.80306539  0.69761989  1
  Na  Na10  1  0.24573502  0.19693461  0.19761989  1
  Na  Na11  1  0.24573502  0.69693461  0.19761989  1
  Na  Na12  1  0.43591141  0.46415086  0.82115856  1
  Na  Na13  1  0.43591141  0.96415086  0.82115856  1
  Na  Na14  1  0.43591141  0.46415086  0.17884144  1
  Na  Na15  1  0.43591141  0.96415086  0.17884144  1
  Na  Na16  1  0.93591141  0.03584914  0.32115856  1
  Na  Na17  1  0.93591141  0.53584914  0.32115856  1
  Na  Na18  1  0.93591141  0.03584914  0.67884144  1
  Na  Na19  1  0.93591141  0.53584914  0.67884144  1
  Mn  Mn0  1  0.49480527  0.58774182  0.50000000  1
  Mn  Mn1  1  0.99480527  0.91225818  0.00000000  1
  Mn  Mn2  1  0.49480527  0.08774182  0.50000000  1
  Mn  Mn3  1  0.99480527  0.41225818  0.00000000  1
  O  O0  1  0.61223498  0.43987041  0.50000000  1
  O  O1  1  0.61223498  0.93987041  0.50000000  1
  O  O2  1  0.11223498  0.06012959  0.00000000  1
  O  O3  1  0.11223498  0.56012959  0.00000000  1
  O  O4  1  0.19274583  0.14155562  0.50000000  1
  O  O5  1  0.19274583  0.64155562  0.50000000  1
  O  O6  1  0.69274583  0.35844438  0.00000000  1
  O  O7  1  0.69274583  0.85844438  0.00000000  1
  O  O8  1  0.59357484  0.12906965  0.27466320  1
  O  O9  1  0.59357484  0.62906965  0.27466320  1
  O  O10  1  0.09357484  0.37093035  0.22533680  1
  O  O11  1  0.09357484  0.87093035  0.22533680  1
  O  O12  1  0.09357484  0.37093035  0.77466320  1
  O  O13  1  0.09357484  0.87093035  0.77466320  1
  O  O14  1  0.59357484  0.12906965  0.72533680  1
  O  O15  1  0.59357484  0.62906965  0.72533680  1
loop_
_geom_bond_atom_site_label_1
_geom_bond_atom_site_label_2
_geom_bond_distance
_geom_bond_site_symmetry_2
Na0 O12 2.301752 1_555
Na0 O10 2.301752 1_555
Na0 O4 2.383084 1_555
Na0 O0 2.436682 1_555
Na1 O13 2.301752 1_555
Na1 O11 2.301752 1_555
Na1 O5 2.383084 1_555
Na1 O1 2.436682 1_555
Na2 O14 2.301752 1_554
Na2 O8 2.301752 1_555
Na2 O6 2.383084 1_555
Na2 O2 2.436682 1_655
Na3 O15 2.301752 1_554
Na3 O9 2.301752 1_555
Na3 O7 2.383084 1_555
Na3 O3 2.436682 1_655
Na4 O10 2.238638 1_655
Na4 O8 2.258495 1_555
Na4 O0 2.352853 1_555
Na4 O6 2.428731 1_555
Na5 O11 2.238638 1_655
Na5 O9 2.258495 1_555
Na5 O1 2.352853 1_555
Na5 O7 2.428731 1_555
Na6 O14 2.238638 1_555
Na6 O12 2.258495 1_555
Na6 O2 2.352853 1_556
Na6 O4 2.428731 1_555
Na7 O15 2.238638 1_555
Na7 O13 2.258495 1_555
Na7 O3 2.352853 1_556
Na7 O5 2.428731 1_555
Na8 O12 2.238638 1_655
Na8 O14 2.258495 1_555
Na8 O0 2.352853 1_555
Na8 O6 2.428731 1_556
Na9 O13 2.238638 1_655
Na9 O15 2.258495 1_555
Na9 O1 2.352853 1_555
Na9 O7 2.428731 1_556
Na10 O8 2.238638 1_555
Na10 O10 2.258495 1_555
Na10 O2 2.352853 1_555
Na10 O4 2.428731 1_555
Na11 O9 2.238638 1_555
Na11 O11 2.258495 1_555
Na11 O3 2.352853 1_555
Na11 O5 2.428731 1_555
Na12 O15 2.283818 1_555
Na12 O12 2.289639 1_555
Na12 O6 2.376571 1_556
Na12 O3 2.579989 1_556
Na12 O0 2.678270 1_555
Na13 O14 2.283818 1_565
Na13 O13 2.289639 1_555
Na13 O7 2.376571 1_556
Na13 O2 2.579989 1_566
Na13 O1 2.678270 1_555
Na14 O9 2.283818 1_555
Na14 O10 2.289639 1_555
Na14 O6 2.376571 1_555
Na14 O3 2.579989 1_555
Na14 O0 2.678270 1_555
Na15 O8 2.283818 1_565
Na15 O11 2.289639 1_555
Na15 O7 2.376571 1_555
Na15 O2 2.579989 1_565
Na15 O1 2.678270 1_555
Na16 O11 2.283818 1_645
Na16 O8 2.289639 1_555
Na16 O4 2.376571 1_655
Na16 O1 2.579989 1_545
Na16 O2 2.678270 1_655
Na17 O10 2.283818 1_655
Na17 O9 2.289639 1_555
Na17 O5 2.376571 1_655
Na17 O0 2.579989 1_555
Na17 O3 2.678270 1_655
Na18 O13 2.283818 1_645
Na18 O14 2.289639 1_555
Na18 O4 2.376571 1_655
Na18 O1 2.579989 1_545
Na18 O2 2.678270 1_656
Na19 O12 2.283818 1_655
Na19 O15 2.289639 1_555
Na19 O5 2.376571 1_655
Na19 O0 2.579989 1_555
Na19 O3 2.678270 1_656
Mn0 O5 1.853227 1_555
Mn0 O9 1.883654 1_555
Mn0 O15 1.883654 1_555
Mn0 O0 1.885282 1_555
Mn1 O7 1.853227 1_555
Mn1 O11 1.883654 1_655
Mn1 O13 1.883654 1_654
Mn1 O2 1.885282 1_665
Mn2 O4 1.853227 1_555
Mn2 O8 1.883654 1_555
Mn2 O14 1.883654 1_555
Mn2 O1 1.885282 1_545
Mn3 O6 1.853227 1_555
Mn3 O10 1.883654 1_655
Mn3 O12 1.883654 1_654
Mn3 O3 1.885282 1_655
