# generated using pymatgen
data_EuInPd
_symmetry_space_group_name_H-M   'P 1'
_cell_length_a   4.51565677
_cell_length_b   7.44337776
_cell_length_c   8.50195905
_cell_angle_alpha   90.00356032
_cell_angle_beta   89.99998026
_cell_angle_gamma   90.00001471
_symmetry_Int_Tables_number   1
_chemical_formula_structural   EuInPd
_chemical_formula_sum   'Eu4 In4 Pd4'
_cell_volume   285.76562978
_cell_formula_units_Z   4
loop_
 _symmetry_equiv_pos_site_id
 _symmetry_equiv_pos_as_xyz
  1  'x, y, z'
loop_
 _atom_site_type_symbol
 _atom_site_label
 _atom_site_symmetry_multiplicity
 _atom_site_fract_x
 _atom_site_fract_y
 _atom_site_fract_z
 _atom_site_occupancy
  Eu  Eu0  1  0.24999985  0.53532323  0.82106019  1
  Eu  Eu1  1  0.75000030  0.46467821  0.17894086  1
  Eu  Eu2  1  0.25000005  0.03531695  0.67898614  1
  Eu  Eu3  1  0.75000024  0.96468013  0.32100699  1
  In  In0  1  0.25000012  0.14374391  0.06281427  1
  In  In1  1  0.74999991  0.35626220  0.56283984  1
  In  In2  1  0.25000005  0.64374472  0.43716508  1
  In  In3  1  0.74999994  0.85625942  0.93718071  1
  Pd  Pd0  1  0.74999985  0.23047315  0.87575176  1
  Pd  Pd1  1  0.24999992  0.26948992  0.37572287  1
  Pd  Pd2  1  0.74999988  0.73050947  0.62424827  1
  Pd  Pd3  1  0.24999986  0.76951968  0.12428401  1
loop_
_geom_bond_atom_site_label_1
_geom_bond_atom_site_label_2
_geom_bond_distance
_geom_bond_site_symmetry_2
Eu0 Pd3 3.111960 1_556
Eu0 Pd2 3.163658 1_555
Eu0 Pd2 3.163660 1_455
Eu0 Pd0 3.234657 1_455
Eu0 Pd0 3.234658 1_555
Eu0 In2 3.362201 1_555
Eu0 In1 3.419579 1_555
Eu0 In1 3.419579 1_455
Eu0 In3 3.432020 1_455
Eu0 In3 3.432020 1_555
Eu0 In0 3.566604 1_556
Eu1 Pd0 3.111752 1_554
Eu1 Pd1 3.163531 1_655
Eu1 Pd1 3.163532 1_555
Eu1 Pd3 3.234569 1_655
Eu1 Pd3 3.234572 1_555
Eu1 In1 3.362223 1_555
Eu1 In2 3.419615 1_655
Eu1 In2 3.419616 1_555
Eu1 In0 3.432025 1_655
Eu1 In0 3.432026 1_555
Eu1 In3 3.566645 1_554
Eu2 Pd1 3.112320 1_555
Eu2 Pd0 3.163252 1_555
Eu2 Pd0 3.163253 1_455
Eu2 Pd2 3.234451 1_545
Eu2 Pd2 3.234452 1_445
Eu2 In0 3.361561 1_556
Eu2 In3 3.419534 1_445
Eu2 In3 3.419535 1_545
Eu2 In1 3.432215 1_555
Eu2 In1 3.432217 1_455
Eu2 In2 3.566680 1_545
Eu3 Pd2 3.112155 1_555
Eu3 Pd3 3.163074 1_655
Eu3 Pd3 3.163077 1_555
Eu3 Pd1 3.234435 1_665
Eu3 Pd1 3.234438 1_565
Eu3 In3 3.361534 1_554
Eu3 In0 3.419541 1_665
Eu3 In0 3.419543 1_565
Eu3 In2 3.432193 1_555
Eu3 In2 3.432194 1_655
Eu3 In1 3.566798 1_565
In0 Pd1 2.820129 1_555
In0 Pd3 2.834126 1_545
In0 Pd0 2.836198 1_554
In0 Pd0 2.836201 1_454
In1 Pd0 2.820372 1_555
In1 Pd2 2.834135 1_555
In1 Pd1 2.836487 1_655
In1 Pd1 2.836487 1_555
In2 Pd3 2.820090 1_555
In2 Pd1 2.834243 1_555
In2 Pd2 2.836313 1_555
In2 Pd2 2.836314 1_455
In3 Pd2 2.820330 1_555
In3 Pd0 2.833986 1_565
In3 Pd3 2.836411 1_556
In3 Pd3 2.836412 1_656
