# generated using pymatgen
data_Eu6MgWO12
_symmetry_space_group_name_H-M   'P 1'
_cell_length_a   6.74659908
_cell_length_b   6.88238643
_cell_length_c   6.75985141
_cell_angle_alpha   98.80590562
_cell_angle_beta   97.20106094
_cell_angle_gamma   98.09029382
_symmetry_Int_Tables_number   1
_chemical_formula_structural   Eu6MgWO12
_chemical_formula_sum   'Eu6 Mg1 W1 O12'
_cell_volume   303.61023314
_cell_formula_units_Z   1
loop_
 _symmetry_equiv_pos_site_id
 _symmetry_equiv_pos_as_xyz
  1  'x, y, z'
loop_
 _atom_site_type_symbol
 _atom_site_label
 _atom_site_symmetry_multiplicity
 _atom_site_fract_x
 _atom_site_fract_y
 _atom_site_fract_z
 _atom_site_occupancy
  Eu  Eu0  1  0.37894800  0.85461100  0.67020700  1
  Eu  Eu1  1  0.25768100  0.59382900  0.13544800  1
  Eu  Eu2  1  0.14317300  0.30771100  0.60458900  1
  Eu  Eu3  1  0.85301100  0.68140200  0.44458400  1
  Eu  Eu4  1  0.68668200  0.34473700  0.85885200  1
  Eu  Eu5  1  0.60660900  0.16520400  0.31690300  1
  Mg  Mg0  1  0.64418500  0.75665200  0.05566100  1
  W  W0  1  0.02009200  0.01335000  0.00812400  1
  O  O0  1  0.03421400  0.92992800  0.71624000  1
  O  O1  1  0.29203300  0.97901800  0.06495700  1
  O  O2  1  0.17138400  0.59307700  0.44326100  1
  O  O3  1  0.56890900  0.82830000  0.34160300  1
  O  O4  1  0.05606900  0.28634300  0.95479800  1
  O  O5  1  0.43062900  0.59191500  0.84175900  1
  O  O6  1  0.59957200  0.45088400  0.17674700  1
  O  O7  1  0.93117300  0.72669900  0.04909100  1
  O  O8  1  0.43336000  0.17159000  0.59884200  1
  O  O9  1  0.82117200  0.39681000  0.57886100  1
  O  O10  1  0.70768600  0.00642100  0.93702800  1
  O  O11  1  0.98341900  0.10152300  0.28244300  1
loop_
_geom_bond_atom_site_label_1
_geom_bond_atom_site_label_2
_geom_bond_distance
_geom_bond_site_symmetry_2
Eu0 O8 2.295203 1_565
Eu0 O5 2.335204 1_555
Eu0 O2 2.336859 1_555
Eu0 O0 2.499236 1_555
Eu0 O10 2.651731 1_565
Eu0 O3 2.695436 1_555
Eu0 O1 2.834015 1_556
Eu1 O2 2.230418 1_555
Eu1 O4 2.408728 1_554
Eu1 O5 2.424887 1_554
Eu1 O7 2.537218 1_455
Eu1 O3 2.564989 1_555
Eu1 O6 2.632031 1_555
Eu1 O1 2.747763 1_555
Eu2 O8 2.288280 1_555
Eu2 O9 2.332068 1_455
Eu2 O2 2.384413 1_555
Eu2 O11 2.439779 1_455
Eu2 O4 2.530299 1_555
Eu2 O5 2.711095 1_555
Eu2 O0 2.841166 1_545
Eu3 O9 2.276234 1_555
Eu3 O2 2.313848 1_655
Eu3 O3 2.367905 1_555
Eu3 O0 2.383126 1_655
Eu3 O6 2.509889 1_555
Eu3 O7 2.843427 1_555
Eu4 O9 2.254047 1_555
Eu4 O6 2.335327 1_556
Eu4 O8 2.337221 1_555
Eu4 O10 2.484297 1_555
Eu4 O5 2.594005 1_555
Eu4 O4 2.597933 1_655
Eu4 O7 2.915108 1_556
Eu5 O6 2.313226 1_555
Eu5 O3 2.330696 1_545
Eu5 O8 2.355364 1_555
Eu5 O9 2.369745 1_555
Eu5 O1 2.589788 1_545
Eu5 O11 2.672054 1_555
Eu5 O10 2.836004 1_554
Mg0 O7 1.981013 1_555
Mg0 O5 1.991997 1_554
Mg0 O10 2.020534 1_564
Mg0 O3 2.064470 1_555
Mg0 O6 2.366433 1_555
O0 W0 1.986829 1_566
O1 W0 1.882172 1_565
O4 W0 1.954444 1_556
O7 W0 2.050485 1_665
O10 W0 2.094349 1_656
O11 W0 1.918554 1_655
