# generated using pymatgen
data_Na7Mg2In2P5SO24
_symmetry_space_group_name_H-M   'P 1'
_cell_length_a   9.06594154
_cell_length_b   9.07576407
_cell_length_c   22.26824744
_cell_angle_alpha   90.19513914
_cell_angle_beta   89.87546889
_cell_angle_gamma   119.91787155
_symmetry_Int_Tables_number   1
_chemical_formula_structural   Na7Mg2In2P5SO24
_chemical_formula_sum   'Na21 Mg6 In6 P15 S3 O72'
_cell_volume   1588.06771628
_cell_formula_units_Z   3
loop_
 _symmetry_equiv_pos_site_id
 _symmetry_equiv_pos_as_xyz
  1  'x, y, z'
loop_
 _atom_site_type_symbol
 _atom_site_label
 _atom_site_symmetry_multiplicity
 _atom_site_fract_x
 _atom_site_fract_y
 _atom_site_fract_z
 _atom_site_occupancy
  Na  Na0  1  0.64321086  0.99590080  0.25259974  1
  Na  Na1  1  0.99738169  0.62723457  0.25570881  1
  Na  Na2  1  0.63300776  0.63891128  0.74828950  1
  Na  Na3  1  0.00710289  0.36831517  0.75318346  1
  Na  Na4  1  0.36337680  0.99411143  0.75329583  1
  Na  Na5  1  0.29941867  0.33202359  0.58663434  1
  Na  Na6  1  0.03626379  0.70244298  0.58189898  1
  Na  Na7  1  0.66845416  0.96362034  0.58322089  1
  Na  Na8  1  0.29860155  0.96381764  0.07858935  1
  Na  Na9  1  0.66664528  0.69943170  0.08724419  1
  Na  Na10  1  0.03595487  0.33388557  0.08342059  1
  Na  Na11  1  0.98514011  0.67023937  0.91600065  1
  Na  Na12  1  0.32754835  0.29724074  0.91930485  1
  Na  Na13  1  0.96289945  0.30616628  0.41357649  1
  Na  Na14  1  0.70338128  0.67473691  0.41829752  1
  Na  Na15  1  0.00697126  0.99176572  0.50335571  1
  Na  Na16  1  0.99603424  0.00907746  0.00261889  1
  Na  Na17  1  0.66868020  0.30951520  0.83419567  1
  Na  Na18  1  0.65680749  0.32810732  0.33303193  1
  Na  Na19  1  0.33520815  0.64157921  0.16832435  1
  Na  Na20  1  0.33399115  0.66800017  0.66656780  1
  Mg  Mg0  1  0.99950684  0.00022216  0.65202725  1
  Mg  Mg1  1  0.99624271  0.00357219  0.15133958  1
  Mg  Mg2  1  0.32835617  0.66841036  0.01544784  1
  Mg  Mg3  1  0.33357252  0.67812734  0.51483564  1
  Mg  Mg4  1  0.33351180  0.66304450  0.31697502  1
  Mg  Mg5  1  0.32863275  0.67102228  0.81660799  1
  In  In0  1  0.99589273  0.99567327  0.34839907  1
  In  In1  1  0.00082750  0.00597330  0.84792074  1
  In  In2  1  0.66838514  0.33348452  0.67936506  1
  In  In3  1  0.66763271  0.33567243  0.17972764  1
  In  In4  1  0.66827306  0.32147764  0.98439861  1
  In  In5  1  0.66607425  0.32574528  0.48463855  1
  P  P0  1  0.69662399  0.69677689  0.24879223  1
  P  P1  1  0.00245957  0.30276921  0.24932850  1
  P  P2  1  0.30294088  0.30372920  0.74936751  1
  P  P3  1  0.99918759  0.70148762  0.74951677  1
  P  P4  1  0.69975503  0.99788895  0.74765251  1
  P  P5  1  0.97647335  0.33350061  0.58278356  1
  P  P6  1  0.36142228  0.03017904  0.58451655  1
  P  P7  1  0.66480902  0.63695284  0.58163715  1
  P  P8  1  0.97143890  0.63922722  0.08241147  1
  P  P9  1  0.66558630  0.02520306  0.08599759  1
  P  P10  1  0.36407022  0.33388870  0.08079369  1
  P  P11  1  0.03997645  0.37307182  0.91636635  1
  P  P12  1  0.33220841  0.96433047  0.91585223  1
  P  P13  1  0.62779057  0.96233467  0.41521227  1
  P  P14  1  0.03695935  0.66757805  0.41638799  1
  S  S0  1  0.29742625  0.99962171  0.24860245  1
  S  S1  1  0.62706866  0.66729543  0.91688056  1
  S  S2  1  0.33312147  0.37514374  0.41752559  1
  O  O0  1  0.21993489  0.02462432  0.30378568  1
  O  O1  1  0.80665645  0.77056517  0.30747934  1
  O  O2  1  0.97728929  0.19792233  0.30828959  1
  O  O3  1  0.23048790  0.19565498  0.80783376  1
  O  O4  1  0.96603199  0.77589797  0.80832739  1
  O  O5  1  0.81516490  0.03489796  0.80363265  1
  O  O6  1  0.78346362  0.97470433  0.69109971  1
  O  O7  1  0.18930967  0.21391379  0.69487667  1
  O  O8  1  0.01886938  0.81293208  0.69511440  1
  O  O9  1  0.79121641  0.80919288  0.19441848  1
  O  O10  1  0.01706535  0.21148787  0.19368987  1
  O  O11  1  0.19645537  0.98534437  0.19460087  1
  O  O12  1  0.89645778  0.37161847  0.63882266  1
  O  O13  1  0.47291929  0.10375921  0.64215602  1
  O  O14  1  0.63011686  0.52281690  0.63830976  1
  O  O15  1  0.89397002  0.52319030  0.13864206  1
  O  O16  1  0.62520699  0.09970866  0.14316751  1
  O  O17  1  0.48743461  0.37211995  0.13424290  1
  O  O18  1  0.44109340  0.29898836  0.02305384  1
  O  O19  1  0.85138587  0.55731594  0.02692047  1
  O  O20  1  0.71044703  0.15170193  0.03311295  1
  O  O21  1  0.44662451  0.15672646  0.53181688  1
  O  O22  1  0.69724590  0.55245007  0.52571618  1
  O  O23  1  0.85963976  0.29666329  0.52675847  1
  O  O24  1  0.54256834  0.67810827  0.97206481  1
  O  O25  1  0.14423621  0.45861865  0.97323508  1
  O  O26  1  0.31880750  0.86419734  0.97308216  1
  O  O27  1  0.54435991  0.85859665  0.47212275  1
  O  O28  1  0.31538093  0.45314234  0.47346324  1
  O  O29  1  0.13070918  0.67520697  0.47453921  1
  O  O30  1  0.12272315  0.64742409  0.35960961  1
  O  O31  1  0.53247076  0.87441688  0.35731935  1
  O  O32  1  0.34965775  0.47936448  0.36447613  1
  O  O33  1  0.12618422  0.47472633  0.85897709  1
  O  O34  1  0.34466547  0.87863944  0.85808993  1
  O  O35  1  0.52959967  0.65552448  0.86213796  1
  O  O36  1  0.01152607  0.82666875  0.41433471  1
  O  O37  1  0.81426602  0.98576656  0.41497981  1
  O  O38  1  0.17718093  0.20287875  0.41319973  1
  O  O39  1  0.02157890  0.19210517  0.91453954  1
  O  O40  1  0.16281026  0.97638686  0.91526695  1
  O  O41  1  0.80410080  0.81622283  0.91554070  1
  O  O42  1  0.99167041  0.17262681  0.59004110  1
  O  O43  1  0.18275788  0.01003773  0.59066151  1
  O  O44  1  0.82667042  0.81292211  0.58794930  1
  O  O45  1  0.99008262  0.81700704  0.09030999  1
  O  O46  1  0.82487715  0.00648420  0.09220675  1
  O  O47  1  0.18774511  0.17287732  0.08909218  1
  O  O48  1  0.67782380  0.15863324  0.74505163  1
  O  O49  1  0.48453387  0.32428261  0.74483022  1
  O  O50  1  0.83886693  0.51933687  0.74564864  1
  O  O51  1  0.68134997  0.51774059  0.24499379  1
  O  O52  1  0.83226494  0.31238687  0.24758556  1
  O  O53  1  0.47461457  0.14723254  0.24608994  1
  O  O54  1  0.64166868  0.50827627  0.91777664  1
  O  O55  1  0.86225537  0.36504549  0.91883968  1
  O  O56  1  0.48529984  0.15191943  0.91746110  1
  O  O57  1  0.65453918  0.14728778  0.41718991  1
  O  O58  1  0.49068872  0.36050625  0.41896524  1
  O  O59  1  0.85074919  0.50442948  0.41731582  1
  O  O60  1  0.34499357  0.49327657  0.07549919  1
  O  O61  1  0.14831541  0.65612410  0.07512406  1
  O  O62  1  0.50669760  0.84908938  0.07640292  1
  O  O63  1  0.34613010  0.85430238  0.57605173  1
  O  O64  1  0.50489462  0.65471170  0.57530435  1
  O  O65  1  0.15374717  0.49287208  0.57594751  1
  O  O66  1  0.30839793  0.84123888  0.25291363  1
  O  O67  1  0.52352219  0.68964199  0.25476331  1
  O  O68  1  0.15404349  0.48567815  0.25426522  1
  O  O69  1  0.32184588  0.48269789  0.75561290  1
  O  O70  1  0.15995771  0.68320129  0.75420352  1
  O  O71  1  0.52210990  0.83717857  0.75505434  1
loop_
_geom_bond_atom_site_label_1
_geom_bond_atom_site_label_2
_geom_bond_distance
_geom_bond_site_symmetry_2
Na0 O67 2.428513 1_555
Na0 O52 2.508190 1_565
Na0 O53 2.517945 1_565
Na0 O31 2.562147 1_555
Na0 O66 2.633215 1_555
Na0 O16 2.650157 1_565
Na0 O2 2.921351 1_565
Na0 O9 2.931888 1_555
Na1 O68 2.342747 1_655
Na1 O52 2.483860 1_555
Na1 O66 2.502769 1_655
Na1 O51 2.532712 1_555
Na1 O30 2.545356 1_655
Na1 O15 2.770770 1_555
Na1 O1 2.869812 1_555
Na2 O69 2.450425 1_555
Na2 O71 2.464464 1_555
Na2 O49 2.477196 1_555
Na2 O50 2.585288 1_555
Na2 O14 2.657797 1_555
Na2 O35 2.730743 1_555
Na2 O6 2.939793 1_555
Na2 O4 2.951349 1_555
Na3 O70 2.477360 1_555
Na3 O69 2.503635 1_555
Na3 O50 2.514179 1_455
Na3 O33 2.569767 1_555
Na3 O48 2.626598 1_455
Na3 O12 2.744810 1_455
Na3 O5 2.865126 1_455
Na3 O7 2.943723 1_555
Na4 O48 2.478624 1_565
Na4 O71 2.479154 1_555
Na4 O70 2.484555 1_555
Na4 O34 2.531852 1_555
Na4 O49 2.634591 1_565
Na4 O13 2.668689 1_565
Na4 O3 2.906708 1_565
Na4 O8 3.002903 1_555
Na5 O42 2.420013 1_455
Na5 O65 2.420473 1_555
Na5 O43 2.566054 1_555
Na5 O64 2.582966 1_555
Na5 O7 2.625862 1_555
Na5 O28 2.727435 1_555
Na5 O21 2.810678 1_555
Na5 O14 2.852011 1_555
Na6 O43 2.427818 1_565
Na6 O63 2.438386 1_555
Na6 O44 2.555901 1_455
Na6 O29 2.589972 1_555
Na6 O65 2.605404 1_555
Na6 O8 2.743211 1_555
Na6 O12 2.907063 1_455
Na6 O22 2.948966 1_455
Na7 O44 2.428519 1_555
Na7 O64 2.437374 1_555
Na7 O63 2.580282 1_555
Na7 O42 2.581294 1_565
Na7 O6 2.602461 1_555
Na7 O27 2.687204 1_555
Na7 O23 2.917485 1_565
Na7 O13 2.951280 1_565
Na8 O61 2.421633 1_555
Na8 O45 2.438936 1_455
Na8 O26 2.553399 1_554
Na8 O47 2.561819 1_565
Na8 O62 2.569932 1_555
Na8 O11 2.781402 1_555
Na8 O18 2.924094 1_565
Na8 O16 2.952988 1_565
Na9 O46 2.418026 1_565
Na9 O62 2.444240 1_555
Na9 O45 2.573067 1_555
Na9 O60 2.574900 1_555
Na9 O9 2.614739 1_555
Na9 O24 2.770058 1_554
Na9 O17 2.785481 1_555
Na9 O19 2.899392 1_555
Na10 O60 2.435183 1_555
Na10 O47 2.460261 1_555
Na10 O61 2.579921 1_555
Na10 O46 2.619128 1_455
Na10 O10 2.668297 1_555
Na10 O25 2.676838 1_554
Na10 O20 2.798567 1_455
Na10 O15 2.881960 1_455
Na11 O55 2.416618 1_555
Na11 O40 2.418837 1_655
Na11 O41 2.572677 1_555
Na11 O4 2.623295 1_555
Na11 O54 2.700483 1_555
Na11 O19 2.717751 1_556
Na11 O26 2.924864 1_655
Na11 O33 2.938880 1_655
Na12 O56 2.380651 1_555
Na12 O39 2.444710 1_555
Na12 O54 2.517672 1_555
Na12 O40 2.525644 1_545
Na12 O18 2.528088 1_556
Na12 O3 2.640192 1_555
Na13 O57 2.424806 1_555
Na13 O59 2.470244 1_555
Na13 O37 2.522749 1_545
Na13 O38 2.543459 1_655
Na13 O2 2.567077 1_555
Na13 O23 2.673337 1_555
Na14 O36 2.422948 1_655
Na14 O37 2.480895 1_555
Na14 O59 2.496822 1_555
Na14 O58 2.523152 1_555
Na14 O22 2.629175 1_555
Na14 O1 2.629640 1_555
Na15 O43 2.468733 1_565
Na15 O44 2.493164 1_455
Na15 O36 2.493524 1_555
Na15 O42 2.577629 1_465
Na15 O37 2.616758 1_455
Na15 O38 2.673252 1_565
Na16 O39 2.509264 1_654
Na16 O46 2.517667 1_555
Na16 O47 2.521198 1_655
Na16 O40 2.566823 1_644
Na16 O45 2.604545 1_545
Na16 O41 2.608615 1_544
Na17 O56 2.424945 1_555
Na17 O48 2.432405 1_555
Na17 O55 2.451982 1_555
Na17 O50 2.641275 1_555
Na17 O49 2.646632 1_555
Na17 O54 2.682150 1_555
Na18 O57 2.488521 1_555
Na18 O59 2.522320 1_555
Na18 O52 2.526350 1_555
Na18 O58 2.538060 1_555
Na18 O53 2.541425 1_555
Na18 O51 2.548345 1_555
Na19 O68 2.459404 1_555
Na19 O67 2.464891 1_555
Na19 O60 2.488282 1_555
Na19 O62 2.691767 1_555
Na19 O66 2.702761 1_555
Na19 O61 2.726876 1_555
Na20 O70 2.553166 1_555
Na20 O71 2.555519 1_555
Na20 O69 2.570855 1_555
Na20 O65 2.582696 1_555
Na20 O64 2.591598 1_555
Na20 O63 2.602009 1_555
Mg0 O8 2.037207 1_645
Mg0 O6 2.046559 1_545
Mg0 O7 2.073242 1_655
Mg0 O43 2.116287 1_655
Mg0 O42 2.117702 1_555
Mg0 O44 2.171900 1_545
Mg1 O10 2.029550 1_655
Mg1 O46 2.048987 1_555
Mg1 O9 2.054318 1_545
Mg1 O11 2.135013 1_645
Mg1 O45 2.146482 1_545
Mg1 O47 2.153975 1_655
Mg2 O25 2.029653 1_554
Mg2 O26 2.054303 1_554
Mg2 O61 2.062183 1_555
Mg2 O62 2.120191 1_555
Mg2 O24 2.129424 1_554
Mg2 O60 2.142869 1_555
Mg3 O27 2.029712 1_555
Mg3 O29 2.036358 1_555
Mg3 O63 2.057185 1_555
Mg3 O65 2.146703 1_555
Mg3 O64 2.147330 1_555
Mg3 O28 2.167325 1_555
Mg4 O32 2.043380 1_555
Mg4 O31 2.069881 1_555
Mg4 O30 2.072716 1_555
Mg4 O67 2.126498 1_555
Mg4 O68 2.137879 1_555
Mg4 O66 2.255386 1_555
Mg5 O34 2.034811 1_555
Mg5 O33 2.043261 1_555
Mg5 O70 2.112025 1_555
Mg5 O71 2.143512 1_555
Mg5 O35 2.152178 1_555
Mg5 O69 2.156295 1_555
In0 O1 2.108402 1_555
In0 O2 2.125118 1_565
In0 O0 2.154583 1_665
In0 O37 2.181801 1_555
In0 O36 2.182129 1_655
In0 O38 2.286631 1_665
In1 O5 2.079536 1_455
In1 O3 2.126615 1_555
In1 O4 2.137443 1_445
In1 O39 2.181041 1_555
In1 O40 2.209838 1_545
In1 O41 2.314346 1_445
In2 O13 2.117282 1_555
In2 O12 2.119050 1_555
In2 O14 2.124998 1_555
In2 O49 2.182137 1_555
In2 O50 2.192032 1_555
In2 O48 2.194761 1_555
In3 O17 2.086315 1_555
In3 O15 2.112558 1_555
In3 O16 2.136543 1_555
In3 O51 2.153514 1_555
In3 O52 2.209600 1_555
In3 O53 2.278490 1_555
In4 O20 2.073163 1_556
In4 O18 2.144459 1_556
In4 O55 2.163218 1_555
In4 O19 2.163894 1_556
In4 O56 2.188698 1_555
In4 O54 2.357937 1_555
In5 O21 2.091071 1_555
In5 O23 2.121266 1_555
In5 O22 2.135010 1_555
In5 O57 2.169151 1_555
In5 O59 2.231090 1_555
In5 O58 2.297841 1_555
O0 S0 1.486084 1_545
O1 P0 1.576319 1_555
O2 P1 1.572266 1_655
O3 P2 1.565531 1_555
O4 P3 1.567245 1_555
O5 P4 1.553633 1_545
O6 P4 1.536049 1_555
O7 P2 1.535948 1_555
O8 P3 1.532917 1_455
O9 P0 1.540631 1_555
O10 P1 1.529915 1_555
O11 S0 1.478580 1_555
O12 P5 1.564162 1_555
O13 P6 1.562569 1_555
O14 P7 1.564219 1_555
O15 P8 1.561278 1_555
O16 P9 1.565568 1_555
O17 P10 1.550400 1_555
O18 P10 1.566870 1_555
O19 P8 1.567373 1_555
O20 P9 1.552964 1_555
O21 P6 1.553449 1_555
O22 P7 1.562756 1_555
O23 P5 1.561990 1_555
O24 S1 1.475353 1_555
O25 P11 1.538303 1_555
O26 P12 1.536832 1_555
O27 P13 1.535634 1_555
O28 S2 1.478270 1_555
O29 P14 1.532801 1_555
O30 P14 1.540331 1_555
O31 P13 1.534744 1_555
O32 S2 1.475829 1_555
O33 P11 1.542597 1_555
O34 P12 1.533700 1_555
O35 S1 1.479152 1_555
O36 P14 1.572453 1_555
O37 P13 1.595192 1_555
O38 S2 1.499015 1_555
O39 P11 1.566302 1_555
O40 P12 1.593237 1_555
O41 S1 1.496609 1_555
O42 P5 1.542472 1_555
O43 P6 1.542601 1_555
O44 P7 1.544445 1_555
O45 P8 1.545640 1_555
O46 P9 1.542473 1_555
O47 P10 1.547679 1_555
O48 P4 1.568815 1_545
O49 P2 1.564741 1_555
O50 P3 1.567047 1_555
O51 P0 1.562456 1_555
O52 P1 1.588876 1_655
O53 S0 1.493907 1_545
O54 S1 1.513792 1_555
O55 P11 1.576990 1_655
O56 P12 1.571264 1_545
O57 P13 1.572230 1_545
O58 S2 1.499601 1_555
O59 P14 1.596686 1_655
O60 P10 1.545049 1_555
O61 P8 1.541094 1_455
O62 P9 1.541985 1_565
O63 P6 1.542716 1_565
O64 P7 1.543322 1_555
O65 P5 1.542672 1_455
O66 S0 1.492972 1_555
O67 P0 1.543520 1_555
O68 P1 1.542773 1_555
O69 P2 1.551729 1_555
O70 P3 1.550777 1_455
O71 P4 1.551010 1_555
