# generated using pymatgen
data_La3TaP2(SO6)4
_symmetry_space_group_name_H-M   'P 1'
_cell_length_a   9.44987649
_cell_length_b   9.45445518
_cell_length_c   23.87343156
_cell_angle_alpha   90.01167009
_cell_angle_beta   89.97452832
_cell_angle_gamma   119.95441428
_symmetry_Int_Tables_number   1
_chemical_formula_structural   La3TaP2(SO6)4
_chemical_formula_sum   'La9 Ta3 P6 S12 O72'
_cell_volume   1848.02306816
_cell_formula_units_Z   3
loop_
 _symmetry_equiv_pos_site_id
 _symmetry_equiv_pos_as_xyz
  1  'x, y, z'
loop_
 _atom_site_type_symbol
 _atom_site_label
 _atom_site_symmetry_multiplicity
 _atom_site_fract_x
 _atom_site_fract_y
 _atom_site_fract_z
 _atom_site_occupancy
  La  La0  1  0.99856140  0.99955269  0.35894707  1
  La  La1  1  0.99430437  0.00165601  0.86481946  1
  La  La2  1  0.99080365  0.99426358  0.65514020  1
  La  La3  1  0.00186090  0.00770621  0.14155633  1
  La  La4  1  0.66529536  0.32742039  0.70045711  1
  La  La5  1  0.67422225  0.33707968  0.19676171  1
  La  La6  1  0.67272362  0.33496107  0.47278288  1
  La  La7  1  0.33198397  0.66655399  0.02542124  1
  La  La8  1  0.32814146  0.67037305  0.53124820  1
  Ta  Ta0  1  0.66694964  0.33332151  0.96955279  1
  Ta  Ta1  1  0.32056312  0.65707206  0.31237304  1
  Ta  Ta2  1  0.34103394  0.67206109  0.82385952  1
  P  P0  1  0.02725437  0.30393035  0.25032211  1
  P  P1  1  0.68720523  0.96864993  0.75632162  1
  P  P2  1  0.60034539  0.63488105  0.91811619  1
  P  P3  1  0.03734572  0.40257226  0.91758016  1
  P  P4  1  0.36218262  0.96523052  0.91794864  1
  P  P5  1  0.05020812  0.65407112  0.41338036  1
  S  S0  1  0.28528638  0.96965221  0.25109931  1
  S  S1  1  0.68322973  0.71706887  0.25150780  1
  S  S2  1  0.28451428  0.32085796  0.75717620  1
  S  S3  1  0.03648097  0.71445053  0.75748252  1
  S  S4  1  0.94441401  0.31557424  0.58555107  1
  S  S5  1  0.37190149  0.05981956  0.58484362  1
  S  S6  1  0.68058110  0.62436172  0.58464249  1
  S  S7  1  0.91978697  0.61325362  0.07554237  1
  S  S8  1  0.68901117  0.07963091  0.07579738  1
  S  S9  1  0.39084655  0.31108086  0.07629427  1
  S  S10  1  0.59574019  0.94414654  0.41051431  1
  S  S11  1  0.35041313  0.40213432  0.41167456  1
  O  O0  1  0.21479326  0.00119132  0.30083995  1
  O  O1  1  0.78907304  0.78513106  0.30073590  1
  O  O2  1  0.99545611  0.19564626  0.30130903  1
  O  O3  1  0.21318332  0.20535034  0.80391466  1
  O  O4  1  0.99565395  0.78859042  0.80416011  1
  O  O5  1  0.80818259  0.01030974  0.80437175  1
  O  O6  1  0.75159726  0.92893052  0.70290951  1
  O  O7  1  0.18624526  0.25467948  0.70582010  1
  O  O8  1  0.06978443  0.81224810  0.70582902  1
  O  O9  1  0.75920518  0.81943226  0.20141547  1
  O  O10  1  0.06031761  0.23016355  0.19775663  1
  O  O11  1  0.18260902  0.94099185  0.20105794  1
  O  O12  1  0.85832973  0.33093231  0.63477172  1
  O  O13  1  0.47312384  0.14855132  0.63391522  1
  O  O14  1  0.66673206  0.52531509  0.63436511  1
  O  O15  1  0.84364621  0.51785986  0.12661261  1
  O  O16  1  0.67022352  0.15468662  0.12706947  1
  O  O17  1  0.48463454  0.32813335  0.12738265  1
  O  O18  1  0.47785900  0.29394125  0.02556680  1
  O  O19  1  0.81557008  0.52498870  0.02503357  1
  O  O20  1  0.70650866  0.18508343  0.02546276  1
  O  O21  1  0.44959533  0.14894590  0.53224086  1
  O  O22  1  0.69398748  0.54479008  0.53258154  1
  O  O23  1  0.85361939  0.30312951  0.53321083  1
  O  O24  1  0.54033931  0.67242800  0.97179763  1
  O  O25  1  0.13064206  0.46213772  0.97223904  1
  O  O26  1  0.32507401  0.86952312  0.97203344  1
  O  O27  1  0.52428366  0.85265804  0.46217505  1
  O  O28  1  0.33484588  0.47872086  0.46252995  1
  O  O29  1  0.15097133  0.67514535  0.46560754  1
  O  O30  1  0.15376974  0.64113844  0.36027028  1
  O  O31  1  0.49362473  0.84695765  0.36045189  1
  O  O32  1  0.36022891  0.50651810  0.36063298  1
  O  O33  1  0.13474408  0.52960706  0.87020418  1
  O  O34  1  0.39456438  0.86644071  0.87067489  1
  O  O35  1  0.47123579  0.60405522  0.87046668  1
  O  O36  1  0.03027442  0.80189660  0.40230399  1
  O  O37  1  0.76179629  0.96975318  0.40364533  1
  O  O38  1  0.20720571  0.23901586  0.40451443  1
  O  O39  1  0.99644606  0.23170042  0.90142687  1
  O  O40  1  0.23497863  0.00675611  0.89928659  1
  O  O41  1  0.77037428  0.76195388  0.90046248  1
  O  O42  1  0.95878832  0.16751048  0.59058648  1
  O  O43  1  0.20843309  0.04243298  0.59046356  1
  O  O44  1  0.82924688  0.78730762  0.58928009  1
  O  O45  1  0.92787945  0.77315765  0.07980720  1
  O  O46  1  0.84081071  0.07050695  0.07914738  1
  O  O47  1  0.22951248  0.15943434  0.07962193  1
  O  O48  1  0.64279097  0.10197805  0.74574519  1
  O  O49  1  0.45591167  0.36432786  0.74761917  1
  O  O50  1  0.90645152  0.54434428  0.74807487  1
  O  O51  1  0.64553077  0.54765945  0.24154152  1
  O  O52  1  0.89226885  0.34542164  0.24014234  1
  O  O53  1  0.45331621  0.10291086  0.24164137  1
  O  O54  1  0.60439312  0.46814491  0.92746991  1
  O  O55  1  0.86310798  0.39428233  0.92722752  1
  O  O56  1  0.52953226  0.13665277  0.92763125  1
  O  O57  1  0.59874288  0.10096280  0.41005066  1
  O  O58  1  0.50138691  0.39419138  0.41063124  1
  O  O59  1  0.88707301  0.49501933  0.41303185  1
  O  O60  1  0.36977725  0.45384942  0.06979473  1
  O  O61  1  0.08385223  0.63494524  0.06918572  1
  O  O62  1  0.54671069  0.91612284  0.06900038  1
  O  O63  1  0.35655875  0.89539835  0.58262196  1
  O  O64  1  0.53422016  0.64332426  0.58044162  1
  O  O65  1  0.10993689  0.46158575  0.58236622  1
  O  O66  1  0.29557046  0.81497053  0.26130702  1
  O  O67  1  0.52213047  0.71034172  0.26263908  1
  O  O68  1  0.18858949  0.47678826  0.26402930  1
  O  O69  1  0.28410208  0.47728045  0.77281767  1
  O  O70  1  0.19279976  0.71293221  0.77253521  1
  O  O71  1  0.52205346  0.80739883  0.77577658  1
loop_
_geom_bond_atom_site_label_1
_geom_bond_atom_site_label_2
_geom_bond_distance
_geom_bond_site_symmetry_2
La0 O36 2.283347 1_655
La0 O2 2.320959 1_565
La0 O37 2.364858 1_555
La0 O38 2.395780 1_665
La0 O1 2.439993 1_555
La0 O0 2.462889 1_665
La1 O5 2.308397 1_555
La1 O39 2.334493 1_555
La1 O41 2.355430 1_545
La1 O40 2.396700 1_655
La1 O3 2.474215 1_655
La1 O4 2.485885 1_545
La2 O6 2.322816 1_555
La2 O42 2.376086 1_565
La2 O44 2.376810 1_555
La2 O43 2.425520 1_665
La2 O8 2.503406 1_655
La2 O7 2.529150 1_665
La3 O10 2.316912 1_555
La3 O47 2.405888 1_555
La3 O46 2.406935 1_455
La3 O45 2.455762 1_445
La3 O9 2.528012 1_445
La3 O11 2.532093 1_545
La4 O48 2.303318 1_555
La4 O13 2.369799 1_555
La4 O12 2.392629 1_555
La4 O14 2.442576 1_555
La4 O49 2.447825 1_555
La4 O50 2.454765 1_555
La5 O52 2.272460 1_555
La5 O15 2.356973 1_555
La5 O16 2.382666 1_555
La5 O51 2.391246 1_555
La5 O53 2.406442 1_555
La5 O17 2.410716 1_555
La6 O59 2.316252 1_555
La6 O23 2.368553 1_555
La6 O22 2.369594 1_555
La6 O21 2.418466 1_555
La6 O58 2.458577 1_555
La6 O57 2.465989 1_555
La7 O25 2.301361 1_554
La7 O24 2.325345 1_554
La7 O26 2.331815 1_554
La7 O61 2.444845 1_555
La7 O62 2.446808 1_555
La7 O60 2.452007 1_555
La8 O29 2.310541 1_555
La8 O63 2.351863 1_555
La8 O65 2.360451 1_555
La8 O64 2.395115 1_555
La8 O27 2.435854 1_555
La8 O28 2.468187 1_555
O0 S0 1.462975 1_545
O1 S1 1.467546 1_555
O2 P0 1.520863 1_655
O3 S2 1.468575 1_555
O4 S3 1.466741 1_655
O5 P1 1.526204 1_545
O6 P1 1.537710 1_555
O7 S2 1.475634 1_555
O8 S3 1.477887 1_555
O9 S1 1.479200 1_555
O10 P0 1.541345 1_555
O11 S0 1.476631 1_555
O12 S4 1.476706 1_555
O13 S5 1.480006 1_555
O14 S6 1.476838 1_555
O15 S7 1.472840 1_555
O16 S8 1.469220 1_555
O17 S9 1.468755 1_555
O18 S9 1.516929 1_555
O18 Ta0 2.110333 1_554
O19 S7 1.516648 1_555
O19 Ta0 2.114172 1_554
O20 S8 1.516910 1_555
O20 Ta0 2.099995 1_554
O21 S5 1.485915 1_555
O22 S6 1.490438 1_555
O23 S4 1.487091 1_555
O24 P2 1.513322 1_555
O25 P3 1.517264 1_555
O26 P4 1.513974 1_555
O27 S10 1.463437 1_555
O28 S11 1.458017 1_555
O29 P5 1.520688 1_555
O30 P5 1.642755 1_555
O30 Ta1 1.891007 1_555
O31 S10 1.522835 1_555
O31 Ta1 2.069755 1_555
O32 S11 1.541547 1_555
O32 Ta1 2.006951 1_555
O33 P3 1.569898 1_555
O33 Ta2 2.053065 1_555
O34 P4 1.588832 1_555
O34 Ta2 1.988382 1_555
O35 P2 1.585420 1_555
O35 Ta2 1.989173 1_555
O36 P5 1.523752 1_555
O37 S10 1.472526 1_555
O38 S11 1.467965 1_555
O39 P3 1.511386 1_655
O40 P4 1.506457 1_545
O41 P2 1.508163 1_555
O42 S4 1.477325 1_555
O43 S5 1.475649 1_555
O44 S6 1.482572 1_555
O45 S7 1.478601 1_555
O46 S8 1.481643 1_555
O47 S9 1.484376 1_555
O48 P1 1.535396 1_545
O49 S2 1.476247 1_555
O50 S3 1.474264 1_655
O51 S1 1.476141 1_555
O52 P0 1.529739 1_655
O53 S0 1.470249 1_545
O54 P2 1.611437 1_555
O54 Ta0 1.933174 1_555
O55 P3 1.625125 1_655
O55 Ta0 1.928981 1_555
O56 P4 1.619172 1_545
O56 Ta0 1.932469 1_555
O57 S10 1.468694 1_545
O58 S11 1.465825 1_555
O59 P5 1.524104 1_655
O60 S9 1.467708 1_555
O61 S7 1.466663 1_455
O62 S8 1.465787 1_565
O63 S5 1.488370 1_565
O64 S6 1.484215 1_555
O65 S4 1.483819 1_455
O66 S0 1.532850 1_555
O66 Ta1 2.030691 1_555
O67 S1 1.515000 1_555
O67 Ta1 2.081304 1_555
O68 P0 1.616907 1_555
O68 Ta1 1.915808 1_555
O69 S2 1.527120 1_555
O69 Ta2 2.043493 1_555
O70 S3 1.527447 1_555
O70 Ta2 2.038414 1_555
O71 P1 1.612217 1_555
O71 Ta2 1.922025 1_555
