# generated using pymatgen
data_Na4YTa3Si5SO24
_symmetry_space_group_name_H-M   'P 1'
_cell_length_a   9.07728290
_cell_length_b   9.04005175
_cell_length_c   22.92454703
_cell_angle_alpha   90.20637676
_cell_angle_beta   89.92249873
_cell_angle_gamma   119.98181191
_symmetry_Int_Tables_number   1
_chemical_formula_structural   Na4YTa3Si5SO24
_chemical_formula_sum   'Na12 Y3 Ta9 Si15 S3 O72'
_cell_volume   1629.42686789
_cell_formula_units_Z   3
loop_
 _symmetry_equiv_pos_site_id
 _symmetry_equiv_pos_as_xyz
  1  'x, y, z'
loop_
 _atom_site_type_symbol
 _atom_site_label
 _atom_site_symmetry_multiplicity
 _atom_site_fract_x
 _atom_site_fract_y
 _atom_site_fract_z
 _atom_site_occupancy
  Na  Na0  1  0.63331094  0.62337704  0.74632326  1
  Na  Na1  1  0.99059218  0.36487593  0.75155236  1
  Na  Na2  1  0.37973450  0.00853602  0.74711381  1
  Na  Na3  1  0.65824540  0.68139311  0.08362355  1
  Na  Na4  1  0.02272648  0.34645139  0.08327465  1
  Na  Na5  1  0.32334176  0.02687599  0.41921638  1
  Na  Na6  1  0.98747835  0.99383819  0.49725375  1
  Na  Na7  1  0.00967002  0.99539413  0.99349738  1
  Na  Na8  1  0.66667066  0.33277508  0.83461556  1
  Na  Na9  1  0.69871981  0.33954912  0.33064914  1
  Na  Na10  1  0.32962755  0.67525133  0.16749632  1
  Na  Na11  1  0.34624983  0.67629498  0.66125192  1
  Y  Y0  1  0.98880701  0.00375155  0.35927931  1
  Y  Y1  1  0.65803542  0.33030482  0.68289129  1
  Y  Y2  1  0.67237225  0.33131612  0.18144986  1
  Ta  Ta0  1  0.99905204  0.00029763  0.85791147  1
  Ta  Ta1  1  0.00227730  0.98975717  0.64629980  1
  Ta  Ta2  1  0.00657672  0.01491344  0.14323762  1
  Ta  Ta3  1  0.66744979  0.33450047  0.97758994  1
  Ta  Ta4  1  0.65953304  0.34105703  0.47884707  1
  Ta  Ta5  1  0.33294719  0.66939205  0.01521002  1
  Ta  Ta6  1  0.34104355  0.67469410  0.51915219  1
  Ta  Ta7  1  0.32324159  0.65407589  0.31677101  1
  Ta  Ta8  1  0.33559808  0.66729111  0.81484849  1
  Si  Si0  1  0.00620822  0.30514790  0.25150676  1
  Si  Si1  1  0.27820232  0.28531736  0.75185964  1
  Si  Si2  1  0.00735935  0.71617136  0.75324374  1
  Si  Si3  1  0.71528208  0.99425690  0.75175730  1
  Si  Si4  1  0.36639588  0.03551634  0.58370462  1
  Si  Si5  1  0.66646117  0.63392643  0.58513635  1
  Si  Si6  1  0.96447826  0.63073011  0.08105948  1
  Si  Si7  1  0.66026093  0.03595654  0.08132693  1
  Si  Si8  1  0.37723453  0.33678060  0.08101034  1
  Si  Si9  1  0.62421987  0.66393249  0.91622894  1
  Si  Si10  1  0.04102124  0.37754511  0.91594133  1
  Si  Si11  1  0.33598255  0.96047297  0.91540654  1
  Si  Si12  1  0.61647718  0.95936466  0.41700827  1
  Si  Si13  1  0.33874595  0.38256240  0.41969663  1
  Si  Si14  1  0.04039613  0.65299736  0.41971452  1
  S  S0  1  0.28451547  0.98966652  0.25060946  1
  S  S1  1  0.70105758  0.71277433  0.24865528  1
  S  S2  1  0.96435595  0.33194662  0.58150431  1
  O  O0  1  0.20675652  -0.00024136  0.30437698  1
  O  O1  1  0.80193387  0.79093880  0.30045116  1
  O  O2  1  0.99624281  0.19407109  0.30582840  1
  O  O3  1  0.18117697  0.16668452  0.80806834  1
  O  O4  1  0.98291963  0.81492535  0.80810984  1
  O  O5  1  0.83189053  0.01452711  0.80851128  1
  O  O6  1  0.80765847  0.96530712  0.69399387  1
  O  O7  1  0.15781737  0.19361969  0.69387539  1
  O  O8  1  0.03556366  0.83591832  0.69394809  1
  O  O9  1  0.79215695  0.81464912  0.19455258  1
  O  O10  1  0.02141560  0.19656665  0.19096721  1
  O  O11  1  0.17493757  0.97564614  0.19813631  1
  O  O12  1  0.90076456  0.36153166  0.63726885  1
  O  O13  1  0.46627879  0.09377991  0.64493485  1
  O  O14  1  0.63500338  0.53805797  0.64666878  1
  O  O15  1  0.90345931  0.50790191  0.13649962  1
  O  O16  1  0.61886104  0.09718902  0.14051731  1
  O  O17  1  0.49353921  0.39587959  0.13775730  1
  O  O18  1  0.47371541  0.30428169  0.02607115  1
  O  O19  1  0.82936167  0.53580064  0.02649400  1
  O  O20  1  0.70724921  0.17280012  0.02754365  1
  O  O21  1  0.47573933  0.16380825  0.52828301  1
  O  O22  1  0.69029781  0.52301542  0.53103651  1
  O  O23  1  0.85068556  0.31176265  0.53257208  1
  O  O24  1  0.52860044  0.68613699  0.97268359  1
  O  O25  1  0.15956502  0.47051218  0.97252891  1
  O  O26  1  0.31253980  0.83600258  0.97000351  1
  O  O27  1  0.51041528  0.84232669  0.47315401  1
  O  O28  1  0.31992263  0.48216149  0.47467327  1
  O  O29  1  0.16020131  0.67062850  0.47423342  1
  O  O30  1  0.13508725  0.62709561  0.35985750  1
  O  O31  1  0.49267806  0.86282613  0.35893100  1
  O  O32  1  0.36231135  0.50071997  0.36045455  1
  O  O33  1  0.13787690  0.49757412  0.85810803  1
  O  O34  1  0.36015806  0.86547646  0.85709845  1
  O  O35  1  0.50409986  0.64076768  0.85840848  1
  O  O36  1  0.03764219  0.82737103  0.41542608  1
  O  O37  1  0.79721973  0.97305223  0.42076164  1
  O  O38  1  0.19040635  0.18803163  0.41834308  1
  O  O39  1  0.02331413  0.18919280  0.90978074  1
  O  O40  1  0.16584603  0.97721783  0.90998564  1
  O  O41  1  0.81144278  0.83457861  0.91020065  1
  O  O42  1  0.97769984  0.17456893  0.58509934  1
  O  O43  1  0.18097289  0.02886943  0.58912130  1
  O  O44  1  0.84002779  0.82451624  0.58866363  1
  O  O45  1  0.97247784  0.81566670  0.09312347  1
  O  O46  1  0.83873447  0.01976131  0.09138258  1
  O  O47  1  0.18345399  0.16327914  0.09029623  1
  O  O48  1  0.69593922  0.16228337  0.74966044  1
  O  O49  1  0.46637788  0.30736478  0.75049506  1
  O  O50  1  0.84405941  0.52738457  0.74934082  1
  O  O51  1  0.66984849  0.53821676  0.24407203  1
  O  O52  1  0.84774947  0.33702816  0.24895675  1
  O  O53  1  0.45359991  0.14174743  0.24486417  1
  O  O54  1  0.64002357  0.49269645  0.92342964  1
  O  O55  1  0.85527988  0.36236106  0.92402845  1
  O  O56  1  0.50759110  0.14533457  0.92465808  1
  O  O57  1  0.62030242  0.14263997  0.42485691  1
  O  O58  1  0.51892397  0.37700135  0.42497416  1
  O  O59  1  0.85582998  0.47958434  0.42770165  1
  O  O60  1  0.33393828  0.48984074  0.06815375  1
  O  O61  1  0.15398609  0.65861440  0.06764958  1
  O  O62  1  0.51245252  0.83850138  0.06921984  1
  O  O63  1  0.32926877  0.84053064  0.57223674  1
  O  O64  1  0.50107006  0.65643086  0.57303818  1
  O  O65  1  0.13781894  0.48128898  0.57378710  1
  O  O66  1  0.29850670  0.83094592  0.25046050  1
  O  O67  1  0.53486833  0.71141869  0.25193557  1
  O  O68  1  0.19104465  0.49347312  0.25382865  1
  O  O69  1  0.29231294  0.47486199  0.75758411  1
  O  O70  1  0.18453678  0.70817273  0.75740315  1
  O  O71  1  0.52656233  0.81842540  0.75748541  1
loop_
_geom_bond_atom_site_label_1
_geom_bond_atom_site_label_2
_geom_bond_distance
_geom_bond_site_symmetry_2
Na0 O14 2.411073 1_555
Na0 O71 2.411879 1_555
Na0 O50 2.465246 1_555
Na0 O49 2.478204 1_555
Na0 O69 2.701323 1_555
Na0 O35 2.859362 1_555
Na0 O6 2.937816 1_555
Na1 O48 2.369342 1_555
Na1 O69 2.405651 1_655
Na1 O50 2.425636 1_555
Na1 O70 2.699192 1_655
Na1 O12 2.740476 1_555
Na1 O33 2.752862 1_655
Na2 O70 2.400621 1_545
Na2 O49 2.407793 1_555
Na2 O13 2.469986 1_555
Na2 O48 2.487247 1_555
Na2 O71 2.660752 1_545
Na2 O34 2.802481 1_545
Na2 O8 2.967310 1_545
Na3 O62 2.400145 1_555
Na3 O45 2.489225 1_555
Na3 O17 2.568749 1_555
Na3 O60 2.587281 1_555
Na3 O46 2.657183 1_565
Na3 O19 2.808110 1_555
Na3 O24 2.813217 1_554
Na3 O9 2.813958 1_555
Na4 O60 2.474178 1_555
Na4 O61 2.481350 1_555
Na4 O15 2.520694 1_455
Na4 O46 2.572796 1_455
Na4 O47 2.704362 1_555
Na4 O20 2.792799 1_455
Na4 O25 2.804610 1_554
Na4 O10 2.817617 1_555
Na5 O36 2.304495 1_545
Na5 O38 2.310026 1_555
Na5 O57 2.357688 1_555
Na5 O0 2.802579 1_555
Na6 O37 2.402988 1_555
Na6 O44 2.548251 1_555
Na6 O38 2.555250 1_665
Na6 O36 2.579354 1_655
Na6 O42 2.617911 1_565
Na6 O43 2.658920 1_665
Na7 O40 2.434160 1_555
Na7 O41 2.524359 1_455
Na7 O39 2.564095 1_565
Na7 O47 2.703425 1_566
Na7 O45 2.728795 1_456
Na7 O46 2.796449 1_466
Na8 O54 2.573110 1_555
Na8 O48 2.573958 1_555
Na8 O49 2.581862 1_555
Na8 O50 2.587358 1_555
Na8 O55 2.598470 1_555
Na8 O56 2.605552 1_555
Na9 O52 2.315476 1_555
Na9 O59 2.602008 1_555
Na9 O57 2.663955 1_555
Na9 O51 2.780445 1_555
Na9 O58 2.826920 1_555
Na9 O53 2.832958 1_555
Na10 O66 2.460641 1_555
Na10 O68 2.480008 1_555
Na10 O67 2.592535 1_555
Na10 O61 2.751645 1_555
Na10 O62 2.752065 1_555
Na10 O60 2.834643 1_555
Na11 O64 2.517678 1_555
Na11 O63 2.577533 1_555
Na11 O71 2.661624 1_555
Na11 O65 2.712750 1_555
Na11 O70 2.739686 1_555
Na11 O69 2.750912 1_555
O0 S0 1.444653 1_545
O0 Y0 2.358758 1_455
O1 S1 1.448415 1_555
O1 Y0 2.263453 1_565
O2 Si0 1.576442 1_655
O2 Y0 2.089264 1_555
O3 Si1 1.627599 1_555
O3 Ta0 1.955279 1_455
O4 Si2 1.617811 1_655
O4 Ta0 1.968376 1_565
O5 Si3 1.629381 1_545
O5 Ta0 1.949935 1_555
O6 Si3 1.654978 1_555
O6 Ta1 1.992855 1_655
O7 Si1 1.654956 1_555
O7 Ta1 1.992091 1_545
O8 Si2 1.678638 1_555
O8 Ta1 1.910585 1_555
O9 S1 1.521373 1_555
O9 Ta2 2.221956 1_665
O10 Si0 1.741767 1_555
O10 Ta2 1.917922 1_555
O11 S0 1.525973 1_555
O11 Ta2 2.143852 1_565
O12 S2 1.479465 1_555
O12 Y1 2.324310 1_555
O13 Si4 1.609534 1_555
O13 Y1 2.151684 1_555
O14 Si5 1.607113 1_555
O14 Y1 2.159779 1_555
O15 Si6 1.596429 1_555
O15 Y2 2.160916 1_555
O16 Si7 1.577962 1_555
O16 Y2 2.134371 1_555
O17 Si8 1.589755 1_555
O17 Y2 2.221404 1_555
O18 Si8 1.640442 1_555
O18 Ta3 1.979703 1_554
O19 Si6 1.658287 1_555
O19 Ta3 2.011263 1_554
O20 Si7 1.647625 1_555
O20 Ta3 2.029706 1_554
O21 Si4 1.673656 1_555
O21 Ta4 1.992840 1_555
O22 Si5 1.672536 1_555
O22 Ta4 1.934623 1_555
O23 S2 1.473008 1_555
O23 Ta4 2.250586 1_555
O24 Si9 1.624137 1_555
O24 Ta5 1.963467 1_556
O25 Si10 1.624540 1_555
O25 Ta5 1.957085 1_556
O26 Si11 1.627281 1_555
O26 Ta5 1.915065 1_556
O27 Si12 1.640544 1_555
O27 Ta6 1.857600 1_555
O28 Si13 1.604143 1_555
O28 Ta6 1.939086 1_555
O29 Si14 1.612181 1_555
O29 Ta6 1.923650 1_555
O30 Si14 1.694757 1_555
O30 Ta7 1.879620 1_555
O31 Si12 1.677073 1_555
O31 Ta7 1.987683 1_555
O32 Si13 1.677032 1_555
O32 Ta7 1.884923 1_555
O33 Si10 1.661882 1_555
O33 Ta8 1.952598 1_555
O34 Si11 1.658816 1_555
O34 Ta8 1.945906 1_555
O35 Si9 1.662353 1_555
O35 Ta8 1.940764 1_555
O36 Si14 1.592378 1_555
O36 Y0 2.262386 1_465
O37 Si12 1.584885 1_555
O37 Y0 2.145189 1_565
O38 Si13 1.593649 1_555
O38 Y0 2.213809 1_455
O39 Si10 1.633957 1_555
O39 Ta0 1.997147 1_455
O40 Si11 1.630265 1_555
O40 Ta0 2.020728 1_465
O41 Si9 1.633319 1_555
O41 Ta0 2.009711 1_565
O42 S2 1.489513 1_555
O42 Ta1 2.280281 1_645
O43 Si4 1.658429 1_555
O43 Ta1 1.974507 1_545
O44 Si5 1.656389 1_555
O44 Ta1 1.984568 1_655
O45 Si6 1.658972 1_555
O45 Ta2 2.022083 1_665
O46 Si7 1.713902 1_555
O46 Ta2 1.951480 1_655
O47 Si8 1.686255 1_555
O47 Ta2 1.924555 1_555
O48 Si3 1.614778 1_545
O48 Y1 2.304104 1_555
O49 Si1 1.618032 1_555
O49 Y1 2.259632 1_555
O50 Si2 1.608964 1_655
O50 Y1 2.307954 1_555
O51 S1 1.460651 1_555
O51 Y2 2.362877 1_555
O52 Si0 1.603140 1_655
O52 Y2 2.203600 1_555
O53 S0 1.467984 1_545
O53 Y2 2.366988 1_555
O54 Si9 1.633379 1_555
O54 Ta3 2.004545 1_555
O55 Si10 1.632156 1_655
O55 Ta3 2.011335 1_555
O56 Si11 1.631210 1_545
O56 Ta3 2.003033 1_555
O57 Si12 1.648938 1_545
O57 Ta4 2.054964 1_555
O58 Si13 1.665794 1_555
O58 Ta4 1.918741 1_555
O59 Si14 1.635300 1_655
O59 Ta4 1.972990 1_555
O60 Si8 1.643966 1_555
O60 Ta5 2.033868 1_555
O61 Si6 1.637966 1_455
O61 Ta5 1.982669 1_555
O62 Si7 1.633171 1_565
O62 Ta5 2.006821 1_555
O63 Si4 1.641011 1_565
O63 Ta6 1.971429 1_555
O64 Si5 1.636767 1_555
O64 Ta6 1.977204 1_555
O65 S2 1.486476 1_455
O65 Ta6 2.194218 1_555
O66 S0 1.502333 1_555
O66 Ta7 2.301085 1_555
O67 S1 1.504241 1_555
O67 Ta7 2.273910 1_555
O68 Si0 1.691457 1_555
O68 Ta7 1.969323 1_555
O69 Si1 1.657938 1_555
O69 Ta8 2.050766 1_555
O70 Si2 1.648517 1_555
O70 Ta8 2.065423 1_555
O71 Si3 1.660679 1_555
O71 Ta8 2.059249 1_555
