# generated using pymatgen
data_MgTe4Mo2W2(SeS)2
_symmetry_space_group_name_H-M   'P 1'
_cell_length_a   6.77726616
_cell_length_b   6.77705555
_cell_length_c   93.02209950
_cell_angle_alpha   89.98398755
_cell_angle_beta   90.02083508
_cell_angle_gamma   119.99065385
_symmetry_Int_Tables_number   1
_chemical_formula_structural   MgTe4Mo2W2(SeS)2
_chemical_formula_sum   'Mg8 Te32 Mo16 W16 Se16 S16'
_cell_volume   3700.43873398
_cell_formula_units_Z   8
loop_
 _symmetry_equiv_pos_site_id
 _symmetry_equiv_pos_as_xyz
  1  'x, y, z'
loop_
 _atom_site_type_symbol
 _atom_site_label
 _atom_site_symmetry_multiplicity
 _atom_site_fract_x
 _atom_site_fract_y
 _atom_site_fract_z
 _atom_site_occupancy
  Mg  Mg0_0  1  0.49947700  0.49976600  0.09531050  1
  Mg  Mg0_1  1  0.49947700  0.49976600  0.59531050  1
  Mg  Mg0_2  1  0.49947700  0.99976600  0.09531050  1
  Mg  Mg0_3  1  0.49947700  0.99976600  0.59531050  1
  Mg  Mg0_4  1  0.99947700  0.49976600  0.09531050  1
  Mg  Mg0_5  1  0.99947700  0.49976600  0.59531050  1
  Mg  Mg0_6  1  0.99947700  0.99976600  0.09531050  1
  Mg  Mg0_7  1  0.99947700  0.99976600  0.59531050  1
  Te  Te0_0  1  0.16666750  0.33321650  0.34897350  1
  Te  Te0_1  1  0.16666750  0.33321650  0.84897350  1
  Te  Te0_2  1  0.16666750  0.83321650  0.34897350  1
  Te  Te0_3  1  0.16666750  0.83321650  0.84897350  1
  Te  Te0_4  1  0.66666750  0.33321650  0.34897350  1
  Te  Te0_5  1  0.66666750  0.33321650  0.84897350  1
  Te  Te0_6  1  0.66666750  0.83321650  0.34897350  1
  Te  Te0_7  1  0.66666750  0.83321650  0.84897350  1
  Te  Te1_0  1  0.33340300  0.16667750  0.02359400  1
  Te  Te1_1  1  0.33340300  0.16667750  0.52359400  1
  Te  Te1_2  1  0.33340300  0.66667750  0.02359400  1
  Te  Te1_3  1  0.33340300  0.66667750  0.52359400  1
  Te  Te1_4  1  0.83340300  0.16667750  0.02359400  1
  Te  Te1_5  1  0.83340300  0.16667750  0.52359400  1
  Te  Te1_6  1  0.83340300  0.66667750  0.02359400  1
  Te  Te1_7  1  0.83340300  0.66667750  0.52359400  1
  Te  Te2_0  1  0.33337550  0.16639950  0.06414800  1
  Te  Te2_1  1  0.33337550  0.16639950  0.56414800  1
  Te  Te2_2  1  0.33337550  0.66639950  0.06414800  1
  Te  Te2_3  1  0.33337550  0.66639950  0.56414800  1
  Te  Te2_4  1  0.83337550  0.16639950  0.06414800  1
  Te  Te2_5  1  0.83337550  0.16639950  0.56414800  1
  Te  Te2_6  1  0.83337550  0.66639950  0.06414800  1
  Te  Te2_7  1  0.83337550  0.66639950  0.56414800  1
  Te  Te3_0  1  0.16680800  0.33351850  0.30838050  1
  Te  Te3_1  1  0.16680800  0.33351850  0.80838050  1
  Te  Te3_2  1  0.16680800  0.83351850  0.30838050  1
  Te  Te3_3  1  0.16680800  0.83351850  0.80838050  1
  Te  Te3_4  1  0.66680800  0.33351850  0.30838050  1
  Te  Te3_5  1  0.66680800  0.33351850  0.80838050  1
  Te  Te3_6  1  0.66680800  0.83351850  0.30838050  1
  Te  Te3_7  1  0.66680800  0.83351850  0.80838050  1
  Mo  Mo0_0  1  0.16667350  0.33323050  0.04375300  1
  Mo  Mo0_1  1  0.16667350  0.33323050  0.54375300  1
  Mo  Mo0_2  1  0.16667350  0.83323050  0.04375300  1
  Mo  Mo0_3  1  0.16667350  0.83323050  0.54375300  1
  Mo  Mo0_4  1  0.66667350  0.33323050  0.04375300  1
  Mo  Mo0_5  1  0.66667350  0.33323050  0.54375300  1
  Mo  Mo0_6  1  0.66667350  0.83323050  0.04375300  1
  Mo  Mo0_7  1  0.66667350  0.83323050  0.54375300  1
  Mo  Mo1_0  1  0.16673550  0.33335800  0.23490000  1
  Mo  Mo1_1  1  0.16673550  0.33335800  0.73490000  1
  Mo  Mo1_2  1  0.16673550  0.83335800  0.23490000  1
  Mo  Mo1_3  1  0.16673550  0.83335800  0.73490000  1
  Mo  Mo1_4  1  0.66673550  0.33335800  0.23490000  1
  Mo  Mo1_5  1  0.66673550  0.33335800  0.73490000  1
  Mo  Mo1_6  1  0.66673550  0.83335800  0.23490000  1
  Mo  Mo1_7  1  0.66673550  0.83335800  0.73490000  1
  W  W0_0  1  0.33334400  0.16680150  0.14559250  1
  W  W0_1  1  0.33334400  0.16680150  0.64559250  1
  W  W0_2  1  0.33334400  0.66680150  0.14559250  1
  W  W0_3  1  0.33334400  0.66680150  0.64559250  1
  W  W0_4  1  0.83334400  0.16680150  0.14559250  1
  W  W0_5  1  0.83334400  0.16680150  0.64559250  1
  W  W0_6  1  0.83334400  0.66680150  0.14559250  1
  W  W0_7  1  0.83334400  0.66680150  0.64559250  1
  W  W1_0  1  0.33341050  0.16669950  0.32867500  1
  W  W1_1  1  0.33341050  0.16669950  0.82867500  1
  W  W1_2  1  0.33341050  0.66669950  0.32867500  1
  W  W1_3  1  0.33341050  0.66669950  0.82867500  1
  W  W1_4  1  0.83341050  0.16669950  0.32867500  1
  W  W1_5  1  0.83341050  0.16669950  0.82867500  1
  W  W1_6  1  0.83341050  0.66669950  0.32867500  1
  W  W1_7  1  0.83341050  0.66669950  0.82867500  1
  Se  Se0_0  1  0.33343500  0.16684350  0.21713400  1
  Se  Se0_1  1  0.33343500  0.16684350  0.71713400  1
  Se  Se0_2  1  0.33343500  0.66684350  0.21713400  1
  Se  Se0_3  1  0.33343500  0.66684350  0.71713400  1
  Se  Se0_4  1  0.83343500  0.16684350  0.21713400  1
  Se  Se0_5  1  0.83343500  0.16684350  0.71713400  1
  Se  Se0_6  1  0.83343500  0.66684350  0.21713400  1
  Se  Se0_7  1  0.83343500  0.66684350  0.71713400  1
  Se  Se1_0  1  0.33334800  0.16656750  0.25266950  1
  Se  Se1_1  1  0.33334800  0.16656750  0.75266950  1
  Se  Se1_2  1  0.33334800  0.66656750  0.25266950  1
  Se  Se1_3  1  0.33334800  0.66656750  0.75266950  1
  Se  Se1_4  1  0.83334800  0.16656750  0.25266950  1
  Se  Se1_5  1  0.83334800  0.16656750  0.75266950  1
  Se  Se1_6  1  0.83334800  0.66656750  0.25266950  1
  Se  Se1_7  1  0.83334800  0.66656750  0.75266950  1
  S  S0_0  1  0.16689050  0.33355550  0.16174950  1
  S  S0_1  1  0.16689050  0.33355550  0.66174950  1
  S  S0_2  1  0.16689050  0.83355550  0.16174950  1
  S  S0_3  1  0.16689050  0.83355550  0.66174950  1
  S  S0_4  1  0.66689050  0.33355550  0.16174950  1
  S  S0_5  1  0.66689050  0.33355550  0.66174950  1
  S  S0_6  1  0.66689050  0.83355550  0.16174950  1
  S  S0_7  1  0.66689050  0.83355550  0.66174950  1
  S  S1_0  1  0.16643100  0.33336600  0.12932050  1
  S  S1_1  1  0.16643100  0.33336600  0.62932050  1
  S  S1_2  1  0.16643100  0.83336600  0.12932050  1
  S  S1_3  1  0.16643100  0.83336600  0.62932050  1
  S  S1_4  1  0.66643100  0.33336600  0.12932050  1
  S  S1_5  1  0.66643100  0.33336600  0.62932050  1
  S  S1_6  1  0.66643100  0.83336600  0.12932050  1
  S  S1_7  1  0.66643100  0.83336600  0.62932050  1
loop_
_geom_bond_atom_site_label_1
_geom_bond_atom_site_label_2
_geom_bond_distance
_geom_bond_site_symmetry_2
Mg0_0 Mg0_2 3.388528 1_555
Mg0_0 Mg0_2 3.388528 1_545
Mg0_0 Mg0_4 3.388633 1_555
Mg0_0 Mg0_4 3.388633 1_455
Mg0_0 Mg0_6 3.389059 1_445
Mg0_0 Mg0_6 3.389059 1_555
Mg0_0 Te2_2 3.494603 1_555
Mg0_0 Te2_0 3.497600 1_555
Mg0_0 Te2_6 3.499617 1_555
Mg0_1 Mg0_3 3.388528 1_545
Mg0_1 Mg0_3 3.388528 1_555
Mg0_1 Mg0_5 3.388633 1_555
Mg0_1 Mg0_5 3.388633 1_455
Mg0_1 Mg0_7 3.389059 1_445
Mg0_1 Mg0_7 3.389059 1_555
Mg0_1 Te2_3 3.494603 1_555
Mg0_1 Te2_1 3.497600 1_555
Mg0_1 Te2_7 3.499617 1_555
Mg0_2 Mg0_6 3.388633 1_455
Mg0_2 Mg0_6 3.388633 1_555
Mg0_2 Mg0_4 3.389059 1_565
Mg0_2 Mg0_4 3.389059 1_455
Mg0_2 Te2_0 3.494603 1_565
Mg0_2 Te2_2 3.497600 1_555
Mg0_2 Te2_4 3.499617 1_565
Mg0_3 Mg0_7 3.388633 1_555
Mg0_3 Mg0_7 3.388633 1_455
Mg0_3 Mg0_5 3.389059 1_565
Mg0_3 Mg0_5 3.389059 1_455
Mg0_3 Te2_1 3.494603 1_565
Mg0_3 Te2_3 3.497600 1_555
Mg0_3 Te2_5 3.499617 1_565
Mg0_4 Mg0_6 3.388528 1_555
Mg0_4 Mg0_6 3.388528 1_545
Mg0_4 Te2_6 3.494603 1_555
Mg0_4 Te2_4 3.497600 1_555
Mg0_4 Te2_2 3.499617 1_655
Mg0_5 Mg0_7 3.388528 1_555
Mg0_5 Mg0_7 3.388528 1_545
Mg0_5 Te2_7 3.494603 1_555
Mg0_5 Te2_5 3.497600 1_555
Mg0_5 Te2_3 3.499617 1_655
Mg0_6 Te2_4 3.494603 1_565
Mg0_6 Te2_6 3.497600 1_555
Mg0_6 Te2_0 3.499617 1_665
Mg0_7 Te2_5 3.494603 1_565
Mg0_7 Te2_7 3.497600 1_555
Mg0_7 Te2_1 3.499617 1_665
Te0_0 W1_4 2.718456 1_455
Te0_0 W1_0 2.719104 1_555
Te0_0 W1_2 2.719565 1_555
Te0_1 W1_5 2.718456 1_455
Te0_1 W1_1 2.719104 1_555
Te0_1 W1_3 2.719565 1_555
Te0_2 W1_6 2.718456 1_455
Te0_2 W1_2 2.719104 1_555
Te0_2 W1_0 2.719565 1_565
Te0_3 W1_7 2.718456 1_455
Te0_3 W1_3 2.719104 1_555
Te0_3 W1_1 2.719565 1_565
Te0_4 W1_0 2.718456 1_555
Te0_4 W1_4 2.719104 1_555
Te0_4 W1_6 2.719565 1_555
Te0_5 W1_1 2.718456 1_555
Te0_5 W1_5 2.719104 1_555
Te0_5 W1_7 2.719565 1_555
Te0_6 W1_2 2.718456 1_555
Te0_6 W1_6 2.719104 1_555
Te0_6 W1_4 2.719565 1_565
Te0_7 W1_3 2.718456 1_555
Te0_7 W1_7 2.719104 1_555
Te0_7 W1_5 2.719565 1_565
Te3_0 W1_2 2.718337 1_555
Te3_0 W1_0 2.718518 1_555
Te3_0 W1_4 2.719494 1_455
Te3_1 W1_3 2.718337 1_555
Te3_1 W1_1 2.718518 1_555
Te3_1 W1_5 2.719494 1_455
Te3_2 W1_0 2.718337 1_565
Te3_2 W1_2 2.718518 1_555
Te3_2 W1_6 2.719494 1_455
Te3_3 W1_1 2.718337 1_565
Te3_3 W1_3 2.718518 1_555
Te3_3 W1_7 2.719494 1_455
Te3_4 W1_6 2.718337 1_555
Te3_4 W1_4 2.718518 1_555
Te3_4 W1_0 2.719494 1_555
Te3_5 W1_7 2.718337 1_555
Te3_5 W1_5 2.718518 1_555
Te3_5 W1_1 2.719494 1_555
Te3_6 W1_4 2.718337 1_565
Te3_6 W1_6 2.718518 1_555
Te3_6 W1_2 2.719494 1_555
Te3_7 W1_5 2.718337 1_565
Te3_7 W1_7 2.718518 1_555
Te3_7 W1_3 2.719494 1_555
Mo0_0 Te1_4 2.709518 1_455
Mo0_0 Te1_0 2.710200 1_555
Mo0_0 Te1_2 2.710420 1_555
Mo0_0 Te2_2 2.724788 1_555
Mo0_0 Te2_0 2.725486 1_555
Mo0_0 Te2_4 2.725574 1_455
Mo0_1 Te1_5 2.709518 1_455
Mo0_1 Te1_1 2.710200 1_555
Mo0_1 Te1_3 2.710420 1_555
Mo0_1 Te2_3 2.724788 1_555
Mo0_1 Te2_1 2.725486 1_555
Mo0_1 Te2_5 2.725574 1_455
Mo0_2 Te1_6 2.709518 1_455
Mo0_2 Te1_2 2.710200 1_555
Mo0_2 Te1_0 2.710420 1_565
Mo0_2 Te2_0 2.724788 1_565
Mo0_2 Te2_2 2.725486 1_555
Mo0_2 Te2_6 2.725574 1_455
Mo0_3 Te1_7 2.709518 1_455
Mo0_3 Te1_3 2.710200 1_555
Mo0_3 Te1_1 2.710420 1_565
Mo0_3 Te2_1 2.724788 1_565
Mo0_3 Te2_3 2.725486 1_555
Mo0_3 Te2_7 2.725574 1_455
Mo0_4 Te1_0 2.709518 1_555
Mo0_4 Te1_4 2.710200 1_555
Mo0_4 Te1_6 2.710420 1_555
Mo0_4 Te2_6 2.724788 1_555
Mo0_4 Te2_4 2.725486 1_555
Mo0_4 Te2_0 2.725574 1_555
Mo0_5 Te1_1 2.709518 1_555
Mo0_5 Te1_5 2.710200 1_555
Mo0_5 Te1_7 2.710420 1_555
Mo0_5 Te2_7 2.724788 1_555
Mo0_5 Te2_5 2.725486 1_555
Mo0_5 Te2_1 2.725574 1_555
Mo0_6 Te1_2 2.709518 1_555
Mo0_6 Te1_6 2.710200 1_555
Mo0_6 Te1_4 2.710420 1_565
Mo0_6 Te2_4 2.724788 1_565
Mo0_6 Te2_6 2.725486 1_555
Mo0_6 Te2_2 2.725574 1_555
Mo0_7 Te1_3 2.709518 1_555
Mo0_7 Te1_7 2.710200 1_555
Mo0_7 Te1_5 2.710420 1_565
Mo0_7 Te2_5 2.724788 1_565
Mo0_7 Te2_7 2.725486 1_555
Mo0_7 Te2_3 2.725574 1_555
Mo1_0 Se0_4 2.560682 1_455
Mo1_0 Se0_0 2.560856 1_555
Mo1_0 Se1_2 2.560907 1_555
Mo1_0 Se1_0 2.560975 1_555
Mo1_0 Se0_2 2.561650 1_555
Mo1_0 Se1_4 2.561936 1_455
Mo1_1 Se0_5 2.560682 1_455
Mo1_1 Se0_1 2.560856 1_555
Mo1_1 Se1_3 2.560907 1_555
Mo1_1 Se1_1 2.560975 1_555
Mo1_1 Se0_3 2.561650 1_555
Mo1_1 Se1_5 2.561936 1_455
Mo1_2 Se0_6 2.560682 1_455
Mo1_2 Se0_2 2.560856 1_555
Mo1_2 Se1_0 2.560907 1_565
Mo1_2 Se1_2 2.560975 1_555
Mo1_2 Se0_0 2.561650 1_565
Mo1_2 Se1_6 2.561936 1_455
Mo1_3 Se0_7 2.560682 1_455
Mo1_3 Se0_3 2.560856 1_555
Mo1_3 Se1_1 2.560907 1_565
Mo1_3 Se1_3 2.560975 1_555
Mo1_3 Se0_1 2.561650 1_565
Mo1_3 Se1_7 2.561936 1_455
Mo1_4 Se0_0 2.560682 1_555
Mo1_4 Se0_4 2.560856 1_555
Mo1_4 Se1_6 2.560907 1_555
Mo1_4 Se1_4 2.560975 1_555
Mo1_4 Se0_6 2.561650 1_555
Mo1_4 Se1_0 2.561936 1_555
Mo1_5 Se0_1 2.560682 1_555
Mo1_5 Se0_5 2.560856 1_555
Mo1_5 Se1_7 2.560907 1_555
Mo1_5 Se1_5 2.560975 1_555
Mo1_5 Se0_7 2.561650 1_555
Mo1_5 Se1_1 2.561936 1_555
Mo1_6 Se0_2 2.560682 1_555
Mo1_6 Se0_6 2.560856 1_555
Mo1_6 Se1_4 2.560907 1_565
Mo1_6 Se1_6 2.560975 1_555
Mo1_6 Se0_4 2.561650 1_565
Mo1_6 Se1_2 2.561936 1_555
Mo1_7 Se0_3 2.560682 1_555
Mo1_7 Se0_7 2.560856 1_555
Mo1_7 Se1_5 2.560907 1_565
Mo1_7 Se1_7 2.560975 1_555
Mo1_7 Se0_5 2.561650 1_565
Mo1_7 Se1_3 2.561936 1_555
S0_0 W0_2 2.466639 1_555
S0_0 W0_0 2.466842 1_555
S0_0 W0_4 2.467912 1_455
S0_1 W0_3 2.466639 1_555
S0_1 W0_1 2.466842 1_555
S0_1 W0_5 2.467912 1_455
S0_2 W0_0 2.466639 1_565
S0_2 W0_2 2.466842 1_555
S0_2 W0_6 2.467912 1_455
S0_3 W0_1 2.466639 1_565
S0_3 W0_3 2.466842 1_555
S0_3 W0_7 2.467912 1_455
S0_4 W0_6 2.466639 1_555
S0_4 W0_4 2.466842 1_555
S0_4 W0_0 2.467912 1_555
S0_5 W0_7 2.466639 1_555
S0_5 W0_5 2.466842 1_555
S0_5 W0_1 2.467912 1_555
S0_6 W0_4 2.466639 1_565
S0_6 W0_6 2.466842 1_555
S0_6 W0_2 2.467912 1_555
S0_7 W0_5 2.466639 1_565
S0_7 W0_7 2.466842 1_555
S0_7 W0_3 2.467912 1_555
S1_0 W0_4 2.472925 1_455
S1_0 W0_0 2.473742 1_555
S1_0 W0_2 2.474321 1_555
S1_1 W0_5 2.472925 1_455
S1_1 W0_1 2.473742 1_555
S1_1 W0_3 2.474321 1_555
S1_2 W0_6 2.472925 1_455
S1_2 W0_2 2.473742 1_555
S1_2 W0_0 2.474321 1_565
S1_3 W0_7 2.472925 1_455
S1_3 W0_3 2.473742 1_555
S1_3 W0_1 2.474321 1_565
S1_4 W0_0 2.472925 1_555
S1_4 W0_4 2.473742 1_555
S1_4 W0_6 2.474321 1_555
S1_5 W0_1 2.472925 1_555
S1_5 W0_5 2.473742 1_555
S1_5 W0_7 2.474321 1_555
S1_6 W0_2 2.472925 1_555
S1_6 W0_6 2.473742 1_555
S1_6 W0_4 2.474321 1_565
S1_7 W0_3 2.472925 1_555
S1_7 W0_7 2.473742 1_555
S1_7 W0_5 2.474321 1_565
