# generated using pymatgen
data_MgTi(CuS)4
_symmetry_space_group_name_H-M   'P 1'
_cell_length_a   5.71842611
_cell_length_b   5.71842648
_cell_length_c   6.44421314
_cell_angle_alpha   112.10920516
_cell_angle_beta   112.10920578
_cell_angle_gamma   88.66474028
_symmetry_Int_Tables_number   1
_chemical_formula_structural   MgTi(CuS)4
_chemical_formula_sum   'Mg1 Ti1 Cu4 S4'
_cell_volume   179.14951695
_cell_formula_units_Z   1
loop_
 _symmetry_equiv_pos_site_id
 _symmetry_equiv_pos_as_xyz
  1  'x, y, z'
loop_
 _atom_site_type_symbol
 _atom_site_label
 _atom_site_symmetry_multiplicity
 _atom_site_fract_x
 _atom_site_fract_y
 _atom_site_fract_z
 _atom_site_occupancy
  Mg  Mg0  1  0.57754200  0.57754200  0.70944500  1
  Ti  Ti0  1  0.97782000  0.97782000  0.96207000  1
  Cu  Cu0  1  0.49998000  0.01811500  0.02021700  1
  Cu  Cu1  1  0.01811500  0.49998000  0.02021700  1
  Cu  Cu2  1  0.20733100  0.20733100  0.46768500  1
  Cu  Cu3  1  0.74734600  0.74734600  0.47307000  1
  S  S0  1  0.88861700  0.88861700  0.25477300  1
  S  S1  1  0.64580400  0.18429000  0.79044200  1
  S  S2  1  0.18429000  0.64580400  0.79044200  1
  S  S3  1  0.35315400  0.35315400  0.24164100  1
loop_
_geom_bond_atom_site_label_1
_geom_bond_atom_site_label_2
_geom_bond_distance
_geom_bond_site_symmetry_2
Mg0 S2 2.484173 1_555
Mg0 S1 2.484173 1_555
Mg0 S3 2.575672 1_555
Mg0 Ti0 2.786241 1_555
Mg0 S0 3.068316 1_556
Cu0 S3 2.276107 1_555
Cu0 S2 2.403786 1_544
Cu0 S1 2.411728 1_554
Cu0 S0 2.451399 1_545
Cu0 Mg0 2.715383 1_544
Cu0 Ti0 2.869521 1_444
Cu0 Ti0 2.887285 1_544
Cu1 S3 2.276107 1_555
Cu1 S1 2.403786 1_454
Cu1 S2 2.411728 1_554
Cu1 S0 2.451399 1_455
Cu1 Mg0 2.715383 1_454
Cu1 Ti0 2.869522 1_444
Cu1 Ti0 2.887286 1_454
Cu2 S0 2.217202 1_445
Cu2 S3 2.318129 1_555
Cu2 Mg0 2.575699 1_555
Cu2 S1 2.625940 1_555
Cu2 S2 2.625940 1_555
Cu2 Ti0 2.775568 1_444
Cu3 S0 2.241765 1_555
Cu3 Mg0 2.544942 1_555
Cu3 Ti0 2.689347 1_555
Cu3 S3 2.749965 1_555
Cu3 S2 2.782596 1_655
Cu3 S1 2.782596 1_565
S0 Ti0 2.353504 1_554
S1 Ti0 2.349427 1_545
S2 Ti0 2.349427 1_455
S3 Ti0 2.617707 1_444
