# generated using pymatgen
data_Na2Sc4Al4SiS11O48
_symmetry_space_group_name_H-M   'P 1'
_cell_length_a   17.16341698
_cell_length_b   8.59210734
_cell_length_c   22.41573916
_cell_angle_alpha   90.02320618
_cell_angle_beta   89.99099113
_cell_angle_gamma   120.03777697
_symmetry_Int_Tables_number   1
_chemical_formula_structural   Na2Sc4Al4SiS11O48
_chemical_formula_sum   'Na6 Sc12 Al12 Si3 S33 O144'
_cell_volume   2861.68390059
_cell_formula_units_Z   3
loop_
 _symmetry_equiv_pos_site_id
 _symmetry_equiv_pos_as_xyz
  1  'x, y, z'
loop_
 _atom_site_type_symbol
 _atom_site_label
 _atom_site_symmetry_multiplicity
 _atom_site_fract_x
 _atom_site_fract_y
 _atom_site_fract_z
 _atom_site_occupancy
  Na  Na0  1  0.00126185  0.98334953  0.49473302  1
  Na  Na1  1  0.50199835  0.01579418  0.99982701  1
  Na  Na2  1  0.33910137  0.33420697  0.83570520  1
  Na  Na3  1  0.84031587  0.34798311  0.83186621  1
  Na  Na4  1  0.33156250  0.33030912  0.33314532  1
  Na  Na5  1  0.84179707  0.34613664  0.33241552  1
  Sc  Sc0  1  0.99830490  0.98956061  0.85684692  1
  Sc  Sc1  1  0.49972995  0.00535656  0.85782435  1
  Sc  Sc2  1  0.00073510  0.99299729  0.64752512  1
  Sc  Sc3  1  0.50000369  -0.00002889  0.63968224  1
  Sc  Sc4  1  0.33709656  0.33843540  0.68449259  1
  Sc  Sc5  1  0.83506925  0.34103243  0.68489500  1
  Sc  Sc6  1  0.33708901  0.33379536  0.98271606  1
  Sc  Sc7  1  0.83804224  0.34286693  0.47424086  1
  Sc  Sc8  1  0.66269672  0.65494856  0.02642513  1
  Sc  Sc9  1  0.16138597  0.67253018  0.51538625  1
  Sc  Sc10  1  0.15917261  0.66380544  0.81039056  1
  Sc  Sc11  1  0.66554655  0.66136029  0.81539633  1
  Al  Al0  1  0.00204773  0.99698274  0.34941446  1
  Al  Al1  1  0.50025883  0.00105611  0.35273107  1
  Al  Al2  1  0.99874803  0.99975697  0.14673415  1
  Al  Al3  1  0.50002469  0.00002209  0.15314769  1
  Al  Al4  1  0.32645360  0.32884355  0.18337084  1
  Al  Al5  1  0.84077324  0.34016334  0.18530583  1
  Al  Al6  1  0.83598918  0.33615962  0.98636492  1
  Al  Al7  1  0.33490735  0.33444742  0.47880576  1
  Al  Al8  1  0.16369116  0.66229524  0.02326507  1
  Al  Al9  1  0.66497189  0.66682247  0.51547980  1
  Al  Al10  1  0.16629400  0.66741517  0.31331477  1
  Al  Al11  1  0.66307865  0.66170391  0.31110383  1
  Si  Si0  1  0.99635263  0.70191032  0.74952626  1
  Si  Si1  1  0.51828852  0.37396597  0.91912111  1
  Si  Si2  1  0.02300389  0.67656880  0.40784696  1
  S  S0  1  0.14498605  0.00262844  0.24707441  1
  S  S1  1  0.64393142  0.00026896  0.25259395  1
  S  S2  1  0.35567475  0.71241587  0.25252937  1
  S  S3  1  0.85514884  0.71147036  0.24798781  1
  S  S4  1  0.00083978  0.28430708  0.25045218  1
  S  S5  1  0.49937928  0.28732565  0.24974424  1
  S  S6  1  0.14965431  0.29128067  0.75144856  1
  S  S7  1  0.64397741  0.28950078  0.74859409  1
  S  S8  1  0.50137416  0.71126332  0.75043085  1
  S  S9  1  0.35488656  0.00019901  0.74885441  1
  S  S10  1  0.85353029  0.00163491  0.75138782  1
  S  S11  1  0.48159202  0.34499879  0.57475856  1
  S  S12  1  0.98160929  0.33155855  0.58056185  1
  S  S13  1  0.19200828  0.05210804  0.57723877  1
  S  S14  1  0.68847737  0.02868518  0.57798016  1
  S  S15  1  0.33297415  0.61788746  0.57679709  1
  S  S16  1  0.82489530  0.62807254  0.57765853  1
  S  S17  1  0.47495250  0.63098249  0.09242296  1
  S  S18  1  0.97791101  0.62682386  0.08547607  1
  S  S19  1  0.33357196  0.03524730  0.08874199  1
  S  S20  1  0.84068978  0.05900841  0.08804422  1
  S  S21  1  0.18302625  0.33155926  0.08722895  1
  S  S22  1  0.69091643  0.31938248  0.08928812  1
  S  S23  1  0.30532671  0.66334809  0.92280464  1
  S  S24  1  0.81284179  0.65347908  0.92308671  1
  S  S25  1  0.01860030  0.37965988  0.92508339  1
  S  S26  1  0.16486453  0.94750686  0.92361829  1
  S  S27  1  0.67647181  0.97196149  0.92207124  1
  S  S28  1  0.31723665  0.96439403  0.41149735  1
  S  S29  1  0.80573970  0.93942484  0.41142144  1
  S  S30  1  0.16972857  0.37571126  0.41145742  1
  S  S31  1  0.65824723  0.37741248  0.41128877  1
  S  S32  1  0.52291362  0.67013596  0.41352906  1
  O  O0  1  0.10620223  0.04359966  0.29982047  1
  O  O1  1  0.60273006  0.03772550  0.30546970  1
  O  O2  1  0.41587148  0.79275476  0.30529913  1
  O  O3  1  0.91429998  0.79359351  0.30038237  1
  O  O4  1  0.48162934  0.16834823  0.30202027  1
  O  O5  1  0.98039242  0.16612189  0.30398889  1
  O  O6  1  0.10663618  0.18506167  0.80544527  1
  O  O7  1  0.60110197  0.18314312  0.80289297  1
  O  O8  1  0.48760007  0.78958087  0.80527208  1
  O  O9  1  0.98425560  0.79826738  0.80856393  1
  O  O10  1  0.41019677  0.02795943  0.80260040  1
  O  O11  1  0.90904127  0.03593074  0.80570832  1
  O  O12  1  0.39864635  0.98790234  0.69372759  1
  O  O13  1  0.89858575  0.98930468  0.69714663  1
  O  O14  1  0.09794900  0.21079339  0.69658507  1
  O  O15  1  0.58999036  0.20330997  0.69440282  1
  O  O16  1  0.00740029  0.81173884  0.68814058  1
  O  O17  1  0.50336713  0.81147547  0.69649331  1
  O  O18  1  0.39714216  0.82854296  0.19957242  1
  O  O19  1  0.89549003  0.82381741  0.19394960  1
  O  O20  1  0.01149105  0.19505062  0.19733253  1
  O  O21  1  0.51761667  0.20733097  0.19608358  1
  O  O22  1  0.08704054  0.97019500  0.19405404  1
  O  O23  1  0.58626521  0.96820181  0.19922144  1
  O  O24  1  0.44492351  0.37878981  0.62986012  1
  O  O25  1  0.93816080  0.34877479  0.63474726  1
  O  O26  1  0.24136372  0.13957575  0.63242151  1
  O  O27  1  0.74237645  0.10336116  0.63224836  1
  O  O28  1  0.32119883  0.51454418  0.63220202  1
  O  O29  1  0.81180514  0.52333217  0.63240921  1
  O  O30  1  0.42702213  0.50786633  0.14349559  1
  O  O31  1  0.93883986  0.50966815  0.13940288  1
  O  O32  1  0.31684653  0.12517677  0.14047944  1
  O  O33  1  0.82639066  0.14344793  0.14230068  1
  O  O34  1  0.24447063  0.36961842  0.13999137  1
  O  O35  1  0.74727706  0.34213942  0.14260802  1
  O  O36  1  0.22040323  0.28918230  0.03502072  1
  O  O37  1  0.73054883  0.28873977  0.03467399  1
  O  O38  1  0.42225438  0.56163848  0.03706123  1
  O  O39  1  0.91684185  0.54402124  0.03386091  1
  O  O40  1  0.35597734  0.14884745  0.03505920  1
  O  O41  1  0.85698355  0.17574286  0.03511816  1
  O  O42  1  0.23891417  0.16175776  0.52330197  1
  O  O43  1  0.72974304  0.14588235  0.52578290  1
  O  O44  1  0.34624357  0.52655157  0.52412706  1
  O  O45  1  0.84164168  0.54288741  0.52551776  1
  O  O46  1  0.42125170  0.31275462  0.52279235  1
  O  O47  1  0.92680499  0.31230314  0.52682204  1
  O  O48  1  0.26094337  0.68494962  0.97679193  1
  O  O49  1  0.76805373  0.67535624  0.97574804  1
  O  O50  1  0.07660330  0.47177720  0.97766451  1
  O  O51  1  0.57360858  0.46750028  0.98028007  1
  O  O52  1  0.15825239  0.83997138  0.97756932  1
  O  O53  1  0.66404500  0.86159471  0.97500259  1
  O  O54  1  0.28122557  0.85638502  0.46549941  1
  O  O55  1  0.76573543  0.82826244  0.46559732  1
  O  O56  1  0.15437640  0.44923365  0.46608020  1
  O  O57  1  0.64465941  0.46055710  0.46495847  1
  O  O58  1  0.07703288  0.70671309  0.47066108  1
  O  O59  1  0.58012391  0.70267460  0.46630230  1
  O  O60  1  0.07502071  0.64346225  0.35322860  1
  O  O61  1  0.56140890  0.63082273  0.35965914  1
  O  O62  1  0.25880308  0.88278199  0.35846367  1
  O  O63  1  0.74954756  0.85069126  0.35782932  1
  O  O64  1  0.19170072  0.49744665  0.35912135  1
  O  O65  1  0.67424129  0.49198095  0.35752408  1
  O  O66  1  0.05409781  0.48655697  0.87014976  1
  O  O67  1  0.56503230  0.49001497  0.85967812  1
  O  O68  1  0.18013274  0.87202514  0.86894896  1
  O  O69  1  0.69336591  0.89998910  0.86700307  1
  O  O70  1  0.25757122  0.64904830  0.86749942  1
  O  O71  1  0.76021051  0.62117270  0.86778486  1
  O  O72  1  0.01201032  0.85350139  0.40006517  1
  O  O73  1  0.51441862  0.83176522  0.40342996  1
  O  O74  1  0.40704849  0.98426215  0.40050246  1
  O  O75  1  0.89755192  0.96668723  0.40409863  1
  O  O76  1  0.08731917  0.19968193  0.40026337  1
  O  O77  1  0.57657022  0.19932100  0.40232742  1
  O  O78  1  0.00930760  0.20252549  0.91924656  1
  O  O79  1  0.50791137  0.17534323  0.91688377  1
  O  O80  1  0.08368881  0.96098217  0.92024873  1
  O  O81  1  0.59476871  0.98781921  0.91615102  1
  O  O82  1  0.39776425  0.82020987  0.92123081  1
  O  O83  1  0.90139831  0.81444099  0.91850374  1
  O  O84  1  0.49009426  0.18401371  0.58190966  1
  O  O85  1  0.99002936  0.16925076  0.58246278  1
  O  O86  1  0.10193155  0.03437635  0.57797633  1
  O  O87  1  0.59792419  0.00646099  0.58623593  1
  O  O88  1  0.41468763  0.79508610  0.58179625  1
  O  O89  1  0.90341380  0.81186206  0.58218778  1
  O  O90  1  0.48316122  0.81069270  0.10233888  1
  O  O91  1  0.98644330  0.80488294  0.09651854  1
  O  O92  1  0.41482742  0.01739258  0.10063180  1
  O  O93  1  0.92169729  0.04184708  0.09656294  1
  O  O94  1  0.09425577  0.17380259  0.10025891  1
  O  O95  1  0.59894270  0.15651990  0.09680961  1
  O  O96  1  0.34528154  0.16310760  0.74494312  1
  O  O97  1  0.83715458  0.15433880  0.74619434  1
  O  O98  1  0.23979649  0.30442843  0.74702720  1
  O  O99  1  0.73116762  0.29678965  0.74414574  1
  O  O100  1  0.42171242  0.52552150  0.74681243  1
  O  O101  1  0.90659732  0.50451474  0.74600740  1
  O  O102  1  0.34475693  0.52919705  0.24349644  1
  O  O103  1  0.84630006  0.52808755  0.23944921  1
  O  O104  1  0.41794166  0.30588874  0.24078316  1
  O  O105  1  0.92005936  0.31017239  0.24274297  1
  O  O106  1  0.23672823  0.17057981  0.23840121  1
  O  O107  1  0.73558272  0.15989048  0.24429022  1
  O  O108  1  0.30978126  0.49642492  0.92800136  1
  O  O109  1  0.82233806  0.49022397  0.93165742  1
  O  O110  1  0.41909622  0.35559927  0.92193054  1
  O  O111  1  0.92837050  0.36335045  0.93459701  1
  O  O112  1  0.24461895  0.12943135  0.92933742  1
  O  O113  1  0.75653316  0.15542915  0.93089473  1
  O  O114  1  0.32829619  0.14909998  0.41977571  1
  O  O115  1  0.80990219  0.11486911  0.41653468  1
  O  O116  1  0.24953587  0.34768712  0.41964506  1
  O  O117  1  0.73717715  0.35373230  0.41689453  1
  O  O118  1  0.43110817  0.50857458  0.42226557  1
  O  O119  1  0.92283176  0.49557300  0.41340101  1
  O  O120  1  0.17428723  0.49274393  0.07744333  1
  O  O121  1  0.68343051  0.48091775  0.08480000  1
  O  O122  1  0.06731375  0.64671936  0.07483615  1
  O  O123  1  0.56446920  0.65220935  0.08837826  1
  O  O124  1  0.25367215  0.85662880  0.07932770  1
  O  O125  1  0.76111065  0.88263311  0.08078541  1
  O  O126  1  0.18767182  0.87815664  0.57450349  1
  O  O127  1  0.67826756  0.84957682  0.56662678  1
  O  O128  1  0.25356131  0.63460737  0.56916999  1
  O  O129  1  0.74233007  0.63691692  0.56704220  1
  O  O130  1  0.07094906  0.49221685  0.57630116  1
  O  O131  1  0.56969543  0.50411923  0.56376147  1
  O  O132  1  0.15903606  0.84886824  0.25574124  1
  O  O133  1  0.65082446  0.83646018  0.26225577  1
  O  O134  1  0.26633074  0.69550823  0.26220670  1
  O  O135  1  0.76459128  0.68822402  0.25811918  1
  O  O136  1  0.08328662  0.45941614  0.25818333  1
  O  O137  1  0.57951177  0.46792910  0.25930864  1
  O  O138  1  0.16363682  0.47233391  0.75707948  1
  O  O139  1  0.65636263  0.47023776  0.75288633  1
  O  O140  1  0.08435149  0.68219431  0.75532839  1
  O  O141  1  0.58456890  0.70474459  0.75312428  1
  O  O142  1  0.26781995  0.83920800  0.75449366  1
  O  O143  1  0.76762852  0.83400263  0.75703631  1
loop_
_geom_bond_atom_site_label_1
_geom_bond_atom_site_label_2
_geom_bond_distance
_geom_bond_site_symmetry_2
Na0 O86 2.429280 1_565
Na0 O72 2.446602 1_555
Na0 O89 2.521592 1_455
Na0 O85 2.600257 1_465
Na0 O75 2.657495 1_455
Na0 O76 2.715599 1_565
Na1 O79 2.282331 1_555
Na1 O82 2.473308 1_545
Na1 O81 2.548138 1_545
Na1 O95 2.634652 1_556
Na1 O92 2.713668 1_556
Na1 O90 2.814775 1_546
Na2 O110 2.324329 1_555
Na2 O100 2.520178 1_555
Na2 O96 2.542689 1_555
Na2 O98 2.546729 1_555
Na2 O108 2.678757 1_555
Na2 O112 2.697400 1_555
Na3 O101 2.297108 1_555
Na3 O97 2.523135 1_555
Na3 O99 2.597086 1_555
Na3 O109 2.639632 1_555
Na3 O113 2.711585 1_555
Na3 O111 2.721289 1_555
Na4 O116 2.444026 1_555
Na4 O114 2.472496 1_555
Na4 O102 2.573905 1_555
Na4 O118 2.575775 1_555
Na4 O106 2.608743 1_555
Na4 O104 2.615061 1_555
Na5 O119 2.256008 1_555
Na5 O105 2.520795 1_555
Na5 O103 2.583469 1_555
Na5 O115 2.591775 1_555
Na5 O107 2.619980 1_555
Na5 O117 2.632615 1_555
Al0 O72 1.746528 1_555
Al0 O5 1.956789 1_465
Al0 O0 1.968466 1_565
Al0 O3 1.973364 1_455
Al0 O76 1.980263 1_565
Al0 O75 2.078257 1_455
Al1 O74 1.869589 1_545
Al1 O77 1.902256 1_555
Al1 O1 1.939005 1_555
Al1 O73 1.954913 1_545
Al1 O2 1.958363 1_545
Al1 O4 1.980411 1_555
Al2 O94 1.885539 1_665
Al2 O93 1.903694 1_565
Al2 O91 1.938994 1_555
Al2 O20 1.944478 1_665
Al2 O19 1.965909 1_555
Al2 O22 1.967775 1_655
Al3 O90 1.885315 1_545
Al3 O21 1.910621 1_555
Al3 O23 1.933436 1_545
Al3 O92 1.940480 1_555
Al3 O18 1.941097 1_545
Al3 O95 2.000127 1_555
Al4 O30 1.867325 1_555
Al4 O34 1.882142 1_555
Al4 O106 1.909603 1_555
Al4 O32 1.929667 1_555
Al4 O102 2.082165 1_555
Al4 O104 2.114636 1_555
Al5 O33 1.851497 1_555
Al5 O35 1.875957 1_555
Al5 O31 1.886632 1_555
Al5 O105 1.981859 1_555
Al5 O103 1.983489 1_555
Al5 O107 2.146657 1_555
Al6 O111 1.882549 1_555
Al6 O109 1.903398 1_555
Al6 O113 1.922514 1_555
Al6 O41 1.929370 1_556
Al6 O39 1.940775 1_556
Al6 O37 1.968571 1_556
Al7 O42 1.861229 1_555
Al7 O44 1.863204 1_555
Al7 O46 1.865551 1_555
Al7 O116 2.021429 1_555
Al7 O118 2.024515 1_555
Al7 O114 2.029115 1_555
Al8 O50 1.873015 1_554
Al8 O52 1.879474 1_554
Al8 O48 1.893038 1_554
Al8 O122 1.966828 1_555
Al8 O120 1.974076 1_555
Al8 O124 2.041971 1_555
Al9 O127 1.863354 1_555
Al9 O129 1.872716 1_555
Al9 O131 1.873960 1_555
Al9 O55 1.940181 1_555
Al9 O59 1.969953 1_555
Al9 O57 1.981124 1_555
Al10 O60 1.724496 1_555
Al10 O134 1.975704 1_555
Al10 O64 2.004018 1_555
Al10 O62 2.006732 1_555
Al10 O136 2.049537 1_555
Al10 O132 2.075534 1_555
Al11 O63 1.876906 1_555
Al11 O65 1.878035 1_555
Al11 O137 1.945614 1_555
Al11 O133 1.953288 1_555
Al11 O61 1.958609 1_555
Al11 O135 2.024910 1_555
O0 S0 1.482896 1_555
O1 S1 1.495236 1_555
O2 S2 1.492938 1_555
O3 S3 1.480026 1_555
O4 S5 1.483253 1_555
O5 S4 1.496180 1_655
O6 S6 1.472779 1_555
O6 Sc0 2.116695 1_445
O7 S7 1.478327 1_555
O7 Sc1 2.053498 1_555
O8 S8 1.475940 1_555
O8 Sc1 2.116627 1_565
O9 Si0 1.628183 1_555
O9 Sc0 1.879584 1_555
O10 S9 1.477485 1_555
O10 Sc1 2.056959 1_555
O11 S10 1.481963 1_555
O11 Sc0 2.105236 1_545
O12 S9 1.476918 1_565
O12 Sc3 2.079323 1_565
O13 S10 1.472804 1_565
O13 Sc2 2.062952 1_655
O14 S6 1.470870 1_555
O14 Sc2 2.090024 1_545
O15 S7 1.481636 1_555
O15 Sc3 2.059069 1_555
O16 Si0 1.625321 1_455
O16 Sc2 1.856604 1_555
O17 S8 1.475023 1_555
O17 Sc3 2.084072 1_565
O18 S2 1.483571 1_555
O19 S3 1.486616 1_555
O20 S4 1.476114 1_555
O21 S5 1.493929 1_555
O22 S0 1.483887 1_565
O23 S1 1.487934 1_565
O24 S11 1.479311 1_555
O24 Sc4 2.098132 1_555
O25 S12 1.470803 1_555
O25 Sc5 2.068914 1_555
O26 S13 1.474682 1_555
O26 Sc4 2.042034 1_555
O27 S14 1.467222 1_555
O27 Sc5 2.199995 1_555
O28 S15 1.480828 1_555
O28 Sc4 2.037852 1_555
O29 S16 1.471382 1_555
O29 Sc5 2.150535 1_555
O30 S17 1.495279 1_555
O31 S18 1.499706 1_555
O32 S19 1.498553 1_555
O33 S20 1.497729 1_555
O34 S21 1.507557 1_555
O35 S22 1.487720 1_555
O36 S21 1.465249 1_555
O36 Sc6 2.182555 1_554
O37 S22 1.486442 1_555
O38 S17 1.474222 1_555
O38 Sc6 2.141691 1_554
O39 S18 1.482084 1_555
O40 S19 1.474326 1_555
O40 Sc6 2.127053 1_554
O41 S20 1.487192 1_555
O42 S13 1.496251 1_555
O43 S14 1.473533 1_555
O43 Sc7 2.122692 1_555
O44 S15 1.496574 1_555
O45 S16 1.481272 1_555
O45 Sc7 2.042220 1_555
O46 S11 1.489660 1_555
O47 S12 1.485817 1_555
O47 Sc7 2.044623 1_555
O48 S23 1.490073 1_555
O49 S24 1.471020 1_555
O49 Sc8 2.067157 1_556
O50 S25 1.489126 1_555
O51 Si1 1.631686 1_555
O51 Sc8 1.880313 1_556
O52 S26 1.491641 1_555
O53 S27 1.466577 1_555
O53 Sc8 2.107653 1_556
O54 S28 1.461156 1_555
O54 Sc9 2.173563 1_555
O55 S29 1.484105 1_555
O56 S30 1.460680 1_555
O56 Sc9 2.164308 1_555
O57 S31 1.475828 1_555
O58 Si2 1.633770 1_555
O58 Sc9 1.901013 1_555
O59 S32 1.472064 1_555
O60 Si2 1.621894 1_555
O61 S32 1.493863 1_555
O62 S28 1.485398 1_555
O63 S29 1.489311 1_555
O64 S30 1.489462 1_555
O65 S31 1.492361 1_555
O66 S25 1.473612 1_555
O66 Sc10 2.148803 1_555
O67 Si1 1.616536 1_555
O67 Sc11 1.893891 1_555
O68 S26 1.469839 1_555
O68 Sc10 2.099287 1_555
O69 S27 1.472753 1_555
O69 Sc11 2.188187 1_555
O70 S23 1.457109 1_555
O70 Sc10 2.173076 1_555
O71 S24 1.476072 1_555
O71 Sc11 2.168110 1_555
O72 Si2 1.632333 1_555
O73 S32 1.484612 1_555
O74 S28 1.484085 1_555
O75 S29 1.481689 1_555
O76 S30 1.486339 1_555
O77 S31 1.483005 1_555
O78 S25 1.454557 1_555
O78 Sc0 2.234371 1_445
O79 Si1 1.625518 1_555
O79 Sc1 1.923195 1_555
O80 S26 1.456640 1_555
O80 Sc0 2.142178 1_455
O81 S27 1.481212 1_555
O81 Sc1 2.154014 1_565
O82 S23 1.481262 1_555
O82 Sc1 2.197127 1_565
O83 S24 1.459123 1_555
O83 Sc0 2.106185 1_555
O84 S11 1.470544 1_555
O84 Sc3 2.116017 1_555
O85 S12 1.472866 1_555
O85 Sc2 2.175909 1_645
O86 S13 1.475758 1_555
O86 Sc2 2.225974 1_545
O87 S14 1.479552 1_555
O87 Sc3 2.041712 1_555
O88 S15 1.469602 1_555
O88 Sc3 2.084441 1_565
O89 S16 1.479696 1_555
O89 Sc2 2.180278 1_655
O90 S17 1.495127 1_555
O91 S18 1.482809 1_555
O92 S19 1.501292 1_555
O93 S20 1.482118 1_555
O94 S21 1.475328 1_555
O95 S22 1.505691 1_555
O96 S9 1.491718 1_555
O96 Sc4 2.082980 1_555
O97 S10 1.477614 1_555
O97 Sc5 2.126438 1_555
O98 S6 1.497075 1_555
O98 Sc4 2.085735 1_555
O99 S7 1.469508 1_555
O99 Sc5 2.099918 1_555
O100 S8 1.496107 1_555
O100 Sc4 2.075139 1_555
O101 Si0 1.624847 1_555
O101 Sc5 1.905085 1_555
O102 S2 1.502916 1_555
O103 S3 1.517414 1_555
O104 S5 1.497595 1_555
O105 S4 1.519911 1_655
O106 S0 1.524759 1_555
O107 S1 1.493432 1_555
O108 S23 1.478622 1_555
O108 Sc6 2.081748 1_555
O109 S24 1.503387 1_555
O110 Si1 1.630431 1_555
O110 Sc6 1.899575 1_555
O111 S25 1.498697 1_655
O112 S26 1.480305 1_545
O112 Sc6 2.059781 1_555
O113 S27 1.497838 1_545
O114 S28 1.512369 1_545
O115 S29 1.477379 1_545
O115 Sc7 2.189750 1_555
O116 S30 1.515993 1_555
O117 S31 1.472562 1_555
O117 Sc7 2.195618 1_555
O118 S32 1.502816 1_555
O119 Si2 1.647186 1_655
O119 Sc7 1.946393 1_555
O120 S21 1.482169 1_555
O121 S22 1.460008 1_555
O121 Sc8 2.146906 1_555
O122 S18 1.475796 1_455
O123 S17 1.456530 1_555
O123 Sc8 2.175087 1_555
O124 S19 1.474202 1_565
O125 S20 1.454722 1_565
O125 Sc8 2.203528 1_555
O126 S13 1.460039 1_565
O126 Sc9 2.069139 1_555
O127 S14 1.481034 1_565
O128 S15 1.450431 1_555
O128 Sc9 2.139978 1_555
O129 S16 1.475979 1_555
O130 S12 1.465207 1_455
O130 Sc9 2.065807 1_555
O131 S11 1.465254 1_555
O132 S0 1.469841 1_565
O133 S1 1.486207 1_565
O134 S2 1.482067 1_555
O135 S3 1.482017 1_555
O136 S4 1.471233 1_555
O137 S5 1.486166 1_555
O138 S6 1.455884 1_555
O138 Sc10 2.065185 1_555
O139 S7 1.461294 1_555
O139 Sc11 2.103315 1_555
O140 Si0 1.607182 1_455
O140 Sc10 1.844256 1_555
O141 S8 1.458011 1_555
O141 Sc11 2.130450 1_555
O142 S9 1.446763 1_565
O142 Sc10 2.122686 1_555
O143 S10 1.462330 1_565
O143 Sc11 2.092939 1_555
