# generated using pymatgen
data_Na5TaIn3SiP5O24
_symmetry_space_group_name_H-M   'P 1'
_cell_length_a   9.05277211
_cell_length_b   9.05040139
_cell_length_c   22.56777637
_cell_angle_alpha   90.02725802
_cell_angle_beta   90.11964323
_cell_angle_gamma   120.00677567
_symmetry_Int_Tables_number   1
_chemical_formula_structural   Na5TaIn3SiP5O24
_chemical_formula_sum   'Na15 Ta3 In9 Si3 P15 O72'
_cell_volume   1601.17041977
_cell_formula_units_Z   3
loop_
 _symmetry_equiv_pos_site_id
 _symmetry_equiv_pos_as_xyz
  1  'x, y, z'
loop_
 _atom_site_type_symbol
 _atom_site_label
 _atom_site_symmetry_multiplicity
 _atom_site_fract_x
 _atom_site_fract_y
 _atom_site_fract_z
 _atom_site_occupancy
  Na  Na0  1  0.63654389  0.99916960  0.25167931  1
  Na  Na1  1  0.36232678  0.36183731  0.25030954  1
  Na  Na2  1  0.00112234  0.63744049  0.25078590  1
  Na  Na3  1  0.30709844  0.34369705  0.58894328  1
  Na  Na4  1  0.03570427  0.70259268  0.58545084  1
  Na  Na5  1  0.66380510  0.95965995  0.58558704  1
  Na  Na6  1  0.29499261  0.95711157  0.07833238  1
  Na  Na7  1  0.97740101  0.67795320  0.91304077  1
  Na  Na8  1  0.69337702  0.01641577  0.91000495  1
  Na  Na9  1  0.99615020  0.99668814  0.49555815  1
  Na  Na10  1  0.01165918  0.02423797  0.99604887  1
  Na  Na11  1  0.65211175  0.33008542  0.82345718  1
  Na  Na12  1  0.66682201  0.33109520  0.33509001  1
  Na  Na13  1  0.33275536  0.65139792  0.16088805  1
  Na  Na14  1  0.34316079  0.66581100  0.66890965  1
  Ta  Ta0  1  0.66580618  0.33347950  0.97935460  1
  Ta  Ta1  1  0.66807282  0.33860389  0.47974264  1
  Ta  Ta2  1  0.32943632  0.66472794  0.81501149  1
  In  In0  1  0.99931290  0.99910199  0.35279677  1
  In  In1  1  0.00793082  0.00884506  0.84827185  1
  In  In2  1  0.99899593  0.99946724  0.65355916  1
  In  In3  1  0.99399827  0.00060804  0.14429474  1
  In  In4  1  0.66624219  0.33538689  0.68694851  1
  In  In5  1  0.66889123  0.33612157  0.18045725  1
  In  In6  1  0.32966532  0.65720014  0.01632304  1
  In  In7  1  0.33636220  0.66678712  0.51216327  1
  In  In8  1  0.33434325  0.66724226  0.32312680  1
  Si  Si0  1  0.66593496  0.62912152  0.58438711  1
  Si  Si1  1  0.03843885  0.36904275  0.91854598  1
  Si  Si2  1  0.33210396  0.96015599  0.91997389  1
  P  P0  1  0.29556336  0.99856589  0.24798143  1
  P  P1  1  0.70311036  0.70482521  0.25001478  1
  P  P2  1  0.00184768  0.29639165  0.24987304  1
  P  P3  1  0.30113123  0.30569314  0.74898886  1
  P  P4  1  0.00374169  0.69994644  0.75150511  1
  P  P5  1  0.69360035  0.99523698  0.75101781  1
  P  P6  1  0.95765160  0.33447390  0.58269270  1
  P  P7  1  0.37766165  0.04328156  0.58246376  1
  P  P8  1  0.96304762  0.63071160  0.08380999  1
  P  P9  1  0.66762981  0.03908302  0.08249971  1
  P  P10  1  0.37370633  0.33523029  0.08446311  1
  P  P11  1  0.62167071  0.66200682  0.91690092  1
  P  P12  1  0.63845325  0.97469673  0.41740307  1
  P  P13  1  0.33416617  0.36119379  0.41740885  1
  P  P14  1  0.02912914  0.66461383  0.41763857  1
  O  O0  1  0.21080078  0.03294952  0.30085743  1
  O  O1  1  0.81767219  0.78290157  0.30457952  1
  O  O2  1  0.96466034  0.18150879  0.30423517  1
  O  O3  1  0.21088071  0.19386314  0.80180859  1
  O  O4  1  0.98308631  0.78574813  0.80674232  1
  O  O5  1  0.79850617  0.01277187  0.80661960  1
  O  O6  1  0.76927717  0.96813306  0.69285909  1
  O  O7  1  0.20051526  0.23550690  0.68966618  1
  O  O8  1  0.03390571  0.80254194  0.69325275  1
  O  O9  1  0.77931226  0.81692773  0.19439205  1
  O  O10  1  0.03750814  0.22017129  0.19407814  1
  O  O11  1  0.19136888  0.96803219  0.18983586  1
  O  O12  1  0.88128120  0.36517661  0.63803291  1
  O  O13  1  0.48983418  0.11269211  0.63739568  1
  O  O14  1  0.62069224  0.50309544  0.63954023  1
  O  O15  1  0.88555887  0.53950947  0.14285068  1
  O  O16  1  0.64435503  0.11554201  0.14062816  1
  O  O17  1  0.46145900  0.34775861  0.14447150  1
  O  O18  1  0.48733512  0.32596928  0.03255236  1
  O  O19  1  0.84818942  0.52317698  0.02966122  1
  O  O20  1  0.67664793  0.15757731  0.02855511  1
  O  O21  1  0.47764212  0.15934980  0.52772539  1
  O  O22  1  0.68740564  0.52322590  0.52626405  1
  O  O23  1  0.83990173  0.31293653  0.52770203  1
  O  O24  1  0.55660153  0.70888104  0.97172196  1
  O  O25  1  0.14625815  0.44028844  0.97761347  1
  O  O26  1  0.30312469  0.85654851  0.98083647  1
  O  O27  1  0.55348649  0.86916831  0.47314442  1
  O  O28  1  0.31333774  0.44508941  0.47340050  1
  O  O29  1  0.13357260  0.68390352  0.47370712  1
  O  O30  1  0.10432171  0.63465298  0.36044858  1
  O  O31  1  0.53247685  0.89879819  0.36004979  1
  O  O32  1  0.36589659  0.46745074  0.36039111  1
  O  O33  1  0.13898123  0.50222751  0.86254114  1
  O  O34  1  0.37153678  0.85852612  0.86566822  1
  O  O35  1  0.50229676  0.63072447  0.86271496  1
  O  O36  1  0.00081808  0.81703869  0.41435507  1
  O  O37  1  0.81794582  0.99940058  0.41412478  1
  O  O38  1  0.18187150  0.18044169  0.41372217  1
  O  O39  1  0.98166056  0.17089986  0.91012167  1
  O  O40  1  0.16441494  0.97564428  0.91070107  1
  O  O41  1  0.80413205  0.80803834  0.90682577  1
  O  O42  1  0.96963623  0.16946756  0.58426691  1
  O  O43  1  0.20612705  0.04269575  0.58485306  1
  O  O44  1  0.84489329  0.81320170  0.58572040  1
  O  O45  1  0.97439684  0.80741412  0.08023651  1
  O  O46  1  0.83440915  0.03444687  0.07999417  1
  O  O47  1  0.20450494  0.16201074  0.08036873  1
  O  O48  1  0.66688787  0.14945300  0.74792172  1
  O  O49  1  0.48101747  0.33128001  0.74754937  1
  O  O50  1  0.85366330  0.51741515  0.74860971  1
  O  O51  1  0.68079048  0.52224590  0.24526618  1
  O  O52  1  0.84176370  0.31896338  0.24458376  1
  O  O53  1  0.47948713  0.15797025  0.24521706  1
  O  O54  1  0.63518256  0.49642886  0.92580733  1
  O  O55  1  0.85233750  0.37209960  0.92493071  1
  O  O56  1  0.51205687  0.14956445  0.92532150  1
  O  O57  1  0.65336526  0.15471590  0.42450069  1
  O  O58  1  0.50006879  0.34599719  0.42469509  1
  O  O59  1  0.84892944  0.49733530  0.42425251  1
  O  O60  1  0.35568800  0.49280506  0.08004548  1
  O  O61  1  0.14371519  0.65516867  0.08163987  1
  O  O62  1  0.50532347  0.86433178  0.07778700  1
  O  O63  1  0.34259166  0.85882878  0.57443309  1
  O  O64  1  0.50118132  0.65700265  0.57749974  1
  O  O65  1  0.13719611  0.49312047  0.57555477  1
  O  O66  1  0.31326353  0.83647342  0.25545197  1
  O  O67  1  0.52153342  0.68370447  0.25645648  1
  O  O68  1  0.16255547  0.47768469  0.25656675  1
  O  O69  1  0.31606263  0.48579605  0.75844984  1
  O  O70  1  0.17222515  0.68878488  0.75988839  1
  O  O71  1  0.51397282  0.82843449  0.75869820  1
loop_
_geom_bond_atom_site_label_1
_geom_bond_atom_site_label_2
_geom_bond_distance
_geom_bond_site_symmetry_2
Na0 O53 2.480227 1_565
Na0 O67 2.504936 1_555
Na0 O66 2.535997 1_555
Na0 O52 2.545082 1_565
Na0 O31 2.617222 1_555
Na0 O16 2.706280 1_565
Na0 O2 2.834382 1_565
Na0 O9 2.863455 1_555
Na1 O51 2.499481 1_555
Na1 O68 2.507445 1_555
Na1 O67 2.526201 1_555
Na1 O53 2.549529 1_555
Na1 O17 2.578702 1_555
Na1 O32 2.655733 1_555
Na1 O0 2.822905 1_555
Na1 O10 2.848304 1_555
Na2 O66 2.479544 1_555
Na2 O52 2.499690 1_455
Na2 O68 2.521124 1_555
Na2 O51 2.546813 1_455
Na2 O15 2.621699 1_455
Na2 O30 2.648068 1_555
Na2 O1 2.856331 1_455
Na2 O11 2.944480 1_555
Na3 O43 2.402919 1_555
Na3 O7 2.474471 1_555
Na3 O64 2.492701 1_555
Na3 O65 2.522841 1_555
Na3 O42 2.647774 1_455
Na3 O14 2.707937 1_555
Na3 O28 2.756010 1_555
Na4 O44 2.390719 1_455
Na4 O63 2.419417 1_555
Na4 O65 2.496151 1_555
Na4 O8 2.598094 1_555
Na4 O43 2.665564 1_565
Na4 O29 2.707747 1_555
Na4 O12 2.903159 1_455
Na5 O64 2.380904 1_555
Na5 O42 2.452324 1_565
Na5 O44 2.572516 1_555
Na5 O63 2.587358 1_555
Na5 O6 2.587509 1_555
Na5 O27 2.697552 1_555
Na5 O13 2.820196 1_565
Na6 O61 2.367740 1_555
Na6 O47 2.373073 1_565
Na6 O26 2.395981 1_554
Na6 O62 2.435161 1_555
Na6 O45 2.515615 1_455
Na6 O11 2.706348 1_555
Na7 O40 2.359264 1_655
Na7 O41 2.390079 1_555
Na7 O55 2.425603 1_555
Na7 O4 2.581038 1_555
Na7 O54 2.700607 1_555
Na7 O33 2.880947 1_655
Na7 O19 2.938480 1_556
Na7 O26 2.976579 1_655
Na8 O39 2.261875 1_555
Na8 O56 2.499278 1_555
Na8 O5 2.528072 1_555
Na8 O41 2.541356 1_545
Na8 O34 2.711847 1_545
Na8 O24 2.789945 1_545
Na8 O55 2.812542 1_555
Na8 O20 3.000819 1_556
Na9 O37 2.451087 1_555
Na9 O36 2.463710 1_655
Na9 O38 2.494512 1_665
Na9 O44 2.552136 1_555
Na9 O42 2.623951 1_565
Na9 O43 2.653152 1_665
Na10 O39 2.440664 1_455
Na10 O47 2.455648 1_556
Na10 O46 2.516561 1_456
Na10 O40 2.536581 1_545
Na10 O45 2.630293 1_446
Na10 O41 2.777817 1_445
Na11 O49 2.310722 1_555
Na11 O48 2.411092 1_555
Na11 O50 2.445055 1_555
Na11 O56 2.739594 1_555
Na11 O54 2.802522 1_555
Na11 O55 2.822553 1_555
Na12 O57 2.538529 1_555
Na12 O59 2.555934 1_555
Na12 O58 2.569511 1_555
Na12 O53 2.601859 1_555
Na12 O52 2.622844 1_555
Na12 O51 2.627487 1_555
Na13 O60 2.393527 1_555
Na13 O61 2.484774 1_555
Na13 O62 2.583792 1_555
Na13 O68 2.665028 1_555
Na13 O67 2.672437 1_555
Na13 O66 2.772175 1_555
Na14 O71 2.524095 1_555
Na14 O69 2.530469 1_555
Na14 O64 2.536655 1_555
Na14 O70 2.643495 1_555
Na14 O65 2.724637 1_555
Na14 O63 2.758642 1_555
In0 O1 2.118724 1_555
In0 O2 2.131444 1_565
In0 O0 2.134572 1_665
In0 O38 2.142609 1_665
In0 O37 2.150638 1_555
In0 O36 2.160967 1_655
In1 O3 2.052207 1_555
In1 O40 2.121291 1_545
In1 O39 2.122323 1_455
In1 O5 2.130535 1_455
In1 O4 2.132820 1_445
In1 O41 2.260904 1_445
In2 O6 2.147047 1_555
In2 O8 2.154634 1_655
In2 O7 2.156345 1_665
In2 O44 2.183640 1_555
In2 O42 2.300608 1_565
In2 O43 2.313493 1_665
In3 O10 2.139923 1_655
In3 O9 2.144388 1_545
In3 O46 2.172782 1_555
In3 O11 2.203452 1_645
In3 O45 2.205626 1_545
In3 O47 2.252970 1_655
In4 O14 2.060155 1_555
In4 O12 2.136647 1_555
In4 O49 2.151911 1_555
In4 O13 2.152706 1_555
In4 O50 2.172878 1_555
In4 O48 2.176519 1_555
In5 O15 2.086400 1_555
In5 O17 2.094857 1_555
In5 O16 2.096799 1_555
In5 O52 2.191222 1_555
In5 O51 2.191764 1_555
In5 O53 2.218809 1_555
In6 O25 2.026319 1_554
In6 O26 2.094830 1_554
In6 O24 2.121427 1_554
In6 O60 2.165276 1_555
In6 O62 2.230175 1_555
In6 O61 2.233008 1_555
In7 O27 2.097994 1_555
In7 O28 2.100910 1_555
In7 O29 2.103641 1_555
In7 O64 2.128697 1_555
In7 O63 2.213180 1_555
In7 O65 2.224032 1_555
In8 O30 2.127388 1_555
In8 O31 2.129742 1_555
In8 O32 2.139028 1_555
In8 O67 2.217203 1_555
In8 O68 2.222004 1_555
In8 O66 2.237889 1_555
O0 P0 1.533589 1_545
O1 P1 1.533657 1_555
O2 P2 1.533735 1_655
O3 P3 1.513583 1_555
O4 P4 1.528800 1_655
O5 P5 1.531577 1_545
O6 P5 1.556837 1_555
O7 P3 1.562331 1_555
O8 P4 1.553716 1_555
O9 P1 1.544591 1_555
O10 P2 1.545699 1_555
O11 P0 1.556203 1_555
O12 P6 1.519996 1_555
O13 P7 1.522696 1_555
O14 Si0 1.598172 1_555
O15 P8 1.540956 1_555
O16 P9 1.546046 1_555
O17 P10 1.543766 1_555
O18 P10 1.590210 1_555
O18 Ta0 1.988628 1_554
O19 P8 1.582107 1_555
O19 Ta0 2.029190 1_554
O20 P9 1.597788 1_555
O20 Ta0 1.983539 1_554
O21 P7 1.582289 1_555
O21 Ta1 1.997142 1_555
O22 Si0 1.692062 1_555
O22 Ta1 1.905223 1_555
O23 P6 1.581397 1_555
O23 Ta1 1.999929 1_555
O24 P11 1.519897 1_555
O25 Si1 1.584193 1_555
O26 Si2 1.609771 1_555
O27 P12 1.535147 1_555
O28 P13 1.533641 1_555
O29 P14 1.534679 1_555
O30 P14 1.546160 1_555
O31 P12 1.549964 1_555
O32 P13 1.545802 1_555
O33 Si1 1.669652 1_555
O33 Ta2 1.938863 1_555
O34 Si2 1.674696 1_555
O34 Ta2 1.963718 1_555
O35 P11 1.559328 1_555
O35 Ta2 2.043882 1_555
O36 P14 1.525734 1_555
O37 P12 1.527392 1_555
O38 P13 1.525571 1_555
O39 Si1 1.610436 1_655
O40 Si2 1.606069 1_555
O41 P11 1.531392 1_555
O42 P6 1.550899 1_555
O43 P7 1.551269 1_555
O44 Si0 1.643546 1_555
O45 P8 1.552549 1_555
O46 P9 1.532390 1_555
O47 P10 1.552396 1_555
O48 P5 1.532642 1_545
O49 P3 1.526315 1_555
O50 P4 1.527684 1_655
O51 P1 1.564794 1_555
O52 P2 1.565753 1_655
O53 P0 1.566984 1_545
O54 P11 1.576239 1_555
O54 Ta0 2.030104 1_555
O55 Si1 1.705134 1_655
O55 Ta0 1.975068 1_555
O56 Si2 1.677146 1_545
O56 Ta0 1.966863 1_555
O57 P12 1.574166 1_545
O57 Ta1 2.029143 1_555
O58 P13 1.583410 1_555
O58 Ta1 1.988695 1_555
O59 P14 1.583186 1_655
O59 Ta1 1.992571 1_555
O60 P10 1.517592 1_555
O61 P8 1.537739 1_455
O62 P9 1.531815 1_565
O63 P7 1.545902 1_565
O64 Si0 1.639462 1_555
O65 P6 1.548049 1_455
O66 P0 1.562508 1_555
O67 P1 1.564103 1_555
O68 P2 1.562955 1_555
O69 P3 1.581122 1_555
O69 Ta2 2.016878 1_555
O70 P4 1.589113 1_555
O70 Ta2 1.980716 1_555
O71 P5 1.580945 1_555
O71 Ta2 2.033737 1_555
