# generated using pymatgen
data_LuSBr
_symmetry_space_group_name_H-M   'P 1'
_cell_length_a   5.25243301
_cell_length_b   3.94105128
_cell_length_c   8.21311880
_cell_angle_alpha   90.00000000
_cell_angle_beta   90.00000000
_cell_angle_gamma   90.00000000
_symmetry_Int_Tables_number   1
_chemical_formula_structural   LuSBr
_chemical_formula_sum   'Lu2 S2 Br2'
_cell_volume   170.01244484
_cell_formula_units_Z   2
loop_
 _symmetry_equiv_pos_site_id
 _symmetry_equiv_pos_as_xyz
  1  'x, y, z'
loop_
 _atom_site_type_symbol
 _atom_site_label
 _atom_site_symmetry_multiplicity
 _atom_site_fract_x
 _atom_site_fract_y
 _atom_site_fract_z
 _atom_site_occupancy
  Lu  Lu0  1  0.75000000  0.75000000  0.63361121  1
  Lu  Lu1  1  0.25000000  0.25000000  0.36638879  1
  S  S0  1  0.75000000  0.25000000  0.41308605  1
  S  S1  1  0.25000000  0.75000000  0.58691395  1
  Br  Br0  1  0.25000000  0.75000000  0.13357813  1
  Br  Br1  1  0.75000000  0.25000000  0.86642187  1
loop_
_geom_bond_atom_site_label_1
_geom_bond_atom_site_label_2
_geom_bond_distance
_geom_bond_site_symmetry_2
Lu0 S1 2.654074 1_655
Lu0 S1 2.654074 1_555
Lu0 S0 2.676456 1_555
Lu0 S0 2.676456 1_565
Lu1 S0 2.654074 1_455
Lu1 S0 2.654074 1_555
Lu1 S1 2.676456 1_545
Lu1 S1 2.676456 1_555
Br0 Lu1 2.745743 1_555
Br0 Lu1 2.745743 1_565
Br1 Lu0 2.745743 1_555
Br1 Lu0 2.745743 1_545
