# generated using pymatgen
data_VSO5
_symmetry_space_group_name_H-M   'P 1'
_cell_length_a   6.29327017
_cell_length_b   7.21683283
_cell_length_c   7.18687536
_cell_angle_alpha   90.00000000
_cell_angle_beta   90.00000000
_cell_angle_gamma   90.00000000
_symmetry_Int_Tables_number   1
_chemical_formula_structural   VSO5
_chemical_formula_sum   'V4 S4 O20'
_cell_volume   326.40975909
_cell_formula_units_Z   4
loop_
 _symmetry_equiv_pos_site_id
 _symmetry_equiv_pos_as_xyz
  1  'x, y, z'
loop_
 _atom_site_type_symbol
 _atom_site_label
 _atom_site_symmetry_multiplicity
 _atom_site_fract_x
 _atom_site_fract_y
 _atom_site_fract_z
 _atom_site_occupancy
  V  V0  1  0.25000000  0.65956779  0.73391312  1
  V  V1  1  0.75000000  0.34043221  0.26608688  1
  V  V2  1  0.75000000  0.84043221  0.23391312  1
  V  V3  1  0.25000000  0.15956779  0.76608688  1
  S  S0  1  0.75000000  0.62502717  0.62940151  1
  S  S1  1  0.25000000  0.37497283  0.37059849  1
  S  S2  1  0.25000000  0.87497283  0.12940151  1
  S  S3  1  0.75000000  0.12502717  0.87059849  1
  O  O0  1  0.75000000  0.78901494  0.50839145  1
  O  O1  1  0.25000000  0.21098506  0.49160855  1
  O  O2  1  0.25000000  0.71098506  0.00839145  1
  O  O3  1  0.75000000  0.28901494  0.99160855  1
  O  O4  1  0.75000000  0.45251187  0.51925143  1
  O  O5  1  0.25000000  0.54748813  0.48074857  1
  O  O6  1  0.25000000  0.04748813  0.01925143  1
  O  O7  1  0.75000000  0.95251187  0.98074857  1
  O  O8  1  0.93562509  0.12712361  0.74749382  1
  O  O9  1  0.43562509  0.87287639  0.25250618  1
  O  O10  1  0.06437491  0.37287639  0.24749382  1
  O  O11  1  0.56437491  0.62712361  0.75250618  1
  O  O12  1  0.06437491  0.87287639  0.25250618  1
  O  O13  1  0.56437491  0.12712361  0.74749382  1
  O  O14  1  0.25000000  0.87963841  0.67897306  1
  O  O15  1  0.43562509  0.37287639  0.24749382  1
  O  O16  1  0.25000000  0.37963841  0.82102694  1
  O  O17  1  0.75000000  0.62036159  0.17897306  1
  O  O18  1  0.75000000  0.12036159  0.32102694  1
  O  O19  1  0.93562509  0.62712361  0.75250618  1
loop_
_geom_bond_atom_site_label_1
_geom_bond_atom_site_label_2
_geom_bond_distance
_geom_bond_site_symmetry_2
O0 S0 1.468658 1_555
O0 V2 2.007239 1_555
O1 S1 1.468658 1_555
O1 V3 2.007239 1_555
O2 S2 1.468658 1_555
O2 V0 2.007239 1_554
O3 S3 1.468658 1_555
O3 V1 2.007239 1_556
O4 S0 1.475380 1_555
O4 V1 1.991155 1_555
O5 S1 1.475380 1_555
O5 V0 1.991155 1_555
O6 S2 1.475380 1_545
O6 V3 1.991155 1_554
O7 S3 1.475380 1_565
O7 V2 1.991155 1_556
O8 S3 1.465488 1_555
O8 V3 1.996730 1_655
O9 S2 1.465488 1_555
O9 V2 1.996730 1_555
O10 S1 1.465488 1_555
O10 V1 1.996730 1_455
O11 S0 1.465488 1_555
O11 V0 1.996730 1_555
O12 S2 1.465488 1_555
O12 V2 1.996730 1_455
O13 S3 1.465488 1_555
O13 V3 1.996730 1_555
O14 V0 1.636559 1_555
O14 V3 2.114993 1_565
O15 S1 1.465488 1_555
O15 V1 1.996730 1_555
O16 V3 1.636559 1_555
O16 V0 2.114993 1_555
O17 V2 1.636559 1_555
O17 V1 2.114993 1_555
O18 V1 1.636559 1_555
O18 V2 2.114993 1_545
O19 S0 1.465488 1_555
O19 V0 1.996730 1_655
