# generated using pymatgen
data_Na30Nb8Zn16Si15(S7O48)3
_symmetry_space_group_name_H-M   'P 1'
_cell_length_a   18.10966302
_cell_length_b   9.07582413
_cell_length_c   22.34834033
_cell_angle_alpha   89.93593450
_cell_angle_beta   89.54477954
_cell_angle_gamma   119.98582450
_symmetry_Int_Tables_number   1
_chemical_formula_structural   Na30Nb8Zn16Si15(S7O48)3
_chemical_formula_sum   'Na30 Nb8 Zn16 Si15 S21 O144'
_cell_volume   3181.36253669
_cell_formula_units_Z   1
loop_
 _symmetry_equiv_pos_site_id
 _symmetry_equiv_pos_as_xyz
  1  'x, y, z'
loop_
 _atom_site_type_symbol
 _atom_site_label
 _atom_site_symmetry_multiplicity
 _atom_site_fract_x
 _atom_site_fract_y
 _atom_site_fract_z
 _atom_site_occupancy
  Na  Na0  1  0.32371466  0.02545774  0.24675131  1
  Na  Na1  1  0.82383829  0.02347232  0.24777235  1
  Na  Na2  1  0.18701685  0.34836242  0.24784317  1
  Na  Na3  1  0.68528983  0.34806984  0.24750638  1
  Na  Na4  1  0.98798537  0.62476349  0.24852419  1
  Na  Na5  1  0.48686911  0.61671811  0.24224335  1
  Na  Na6  1  0.32284419  0.62234935  0.74831234  1
  Na  Na7  1  0.82560902  0.62486071  0.74893743  1
  Na  Na8  1  0.98713087  0.35514141  0.74391394  1
  Na  Na9  1  0.48653506  0.35485192  0.74335025  1
  Na  Na10  1  0.18473584  0.02449912  0.74816410  1
  Na  Na11  1  0.68652827  0.02454950  0.74811752  1
  Na  Na12  1  0.01402544  0.68093760  0.58786325  1
  Na  Na13  1  0.51423861  0.68100838  0.58714507  1
  Na  Na14  1  0.51429153  0.34622360  0.08468737  1
  Na  Na15  1  0.47801370  0.66656637  0.91735815  1
  Na  Na16  1  0.47797054  0.28894705  0.41881310  1
  Na  Na17  1  0.97768270  0.28851404  0.42016490  1
  Na  Na18  1  0.99847506  0.00257884  0.49713090  1
  Na  Na19  1  0.49917381  0.00282420  0.49642245  1
  Na  Na20  1  0.00031248  0.00054272  0.98958628  1
  Na  Na21  1  0.49806702  0.99457982  0.99358269  1
  Na  Na22  1  0.32656256  0.31923014  0.82961842  1
  Na  Na23  1  0.83515305  0.33651123  0.83039187  1
  Na  Na24  1  0.32857903  0.33454029  0.32973079  1
  Na  Na25  1  0.82631500  0.33273159  0.33152238  1
  Na  Na26  1  0.16683845  0.66581048  0.15294785  1
  Na  Na27  1  0.66705592  0.68040441  0.15294769  1
  Na  Na28  1  0.16657840  0.65361502  0.65509857  1
  Na  Na29  1  0.66713138  0.65437594  0.65437025  1
  Nb  Nb0  1  0.99987179  0.01437401  0.65058080  1
  Nb  Nb1  1  0.49926977  0.01346863  0.65077845  1
  Nb  Nb2  1  0.00032184  0.00035732  0.15048707  1
  Nb  Nb3  1  0.49966883  0.98523539  0.14949068  1
  Nb  Nb4  1  0.16757278  0.66835191  0.31082474  1
  Nb  Nb5  1  0.66689216  0.66565017  0.31070809  1
  Nb  Nb6  1  0.16428524  0.66771689  0.81187336  1
  Nb  Nb7  1  0.66781891  0.66573531  0.81152298  1
  Zn  Zn0  1  0.99994034  0.99694906  0.33944699  1
  Zn  Zn1  1  0.50105148  0.99667790  0.33936155  1
  Zn  Zn2  1  0.00166066  0.00332437  0.84119861  1
  Zn  Zn3  1  0.50148577  0.00570963  0.83866251  1
  Zn  Zn4  1  0.33935749  0.33505091  0.68499455  1
  Zn  Zn5  1  0.83985136  0.33456050  0.68485153  1
  Zn  Zn6  1  0.33945288  0.34394570  0.18411884  1
  Zn  Zn7  1  0.83450503  0.33373362  0.18464506  1
  Zn  Zn8  1  0.33255704  0.34331332  0.99167836  1
  Zn  Zn9  1  0.83637920  0.33872512  0.98327227  1
  Zn  Zn10  1  0.33492823  0.32445646  0.49591871  1
  Zn  Zn11  1  0.83456351  0.32375288  0.49623882  1
  Zn  Zn12  1  0.16519798  0.66506935  0.01349432  1
  Zn  Zn13  1  0.66616398  0.67692679  0.01809344  1
  Zn  Zn14  1  0.16508758  0.65487899  0.51873220  1
  Zn  Zn15  1  0.66530557  0.65522987  0.51841062  1
  Si  Si0  1  0.14795147  0.00611331  0.25177906  1
  Si  Si1  1  0.64809546  0.00463258  0.25387216  1
  Si  Si2  1  0.35436925  0.70480232  0.25425645  1
  Si  Si3  1  0.85465501  0.70499168  0.25238345  1
  Si  Si4  1  0.99880906  0.29096338  0.25513654  1
  Si  Si5  1  0.49866988  0.28654919  0.25365152  1
  Si  Si6  1  0.14880776  0.29323289  0.75410335  1
  Si  Si7  1  0.64953327  0.29223612  0.75326948  1
  Si  Si8  1  0.99812847  0.71109515  0.75139945  1
  Si  Si9  1  0.49929801  0.71008187  0.75406329  1
  Si  Si10  1  0.35283039  0.00238392  0.75469912  1
  Si  Si11  1  0.85482592  0.00427993  0.75522515  1
  Si  Si12  1  0.48324441  0.33613820  0.58066072  1
  Si  Si13  1  0.98341054  0.33565408  0.58050874  1
  Si  Si14  1  0.48261309  0.62770545  0.08035599  1
  S  S0  1  0.18253687  0.03572420  0.58313679  1
  S  S1  1  0.68229677  0.03518668  0.58348190  1
  S  S2  1  0.33515676  0.63326094  0.58333148  1
  S  S3  1  0.83500357  0.63330178  0.58314694  1
  S  S4  1  0.98233607  0.63284352  0.08343551  1
  S  S5  1  0.33212355  0.03216426  0.08332239  1
  S  S6  1  0.83705973  0.04187499  0.08342138  1
  S  S7  1  0.18159104  0.33250754  0.08362375  1
  S  S8  1  0.68589601  0.33072342  0.08329684  1
  S  S9  1  0.31108986  0.66416345  0.91801139  1
  S  S10  1  0.81076288  0.66405855  0.92062495  1
  S  S11  1  0.01879265  0.37385818  0.91992600  1
  S  S12  1  0.51958692  0.36864090  0.91873447  1
  S  S13  1  0.16819231  0.96187542  0.91980505  1
  S  S14  1  0.66910886  0.96345304  0.91786281  1
  S  S15  1  0.30966595  0.95456897  0.41901609  1
  S  S16  1  0.80989273  0.95459548  0.41859774  1
  S  S17  1  0.16882471  0.37485567  0.41769519  1
  S  S18  1  0.66903906  0.37445903  0.41804018  1
  S  S19  1  0.01946452  0.67038539  0.41787817  1
  S  S20  1  0.51989508  0.67050377  0.41813289  1
  O  O0  1  0.11143764  0.05573758  0.30822943  1
  O  O1  1  0.61289556  0.05507956  0.31064728  1
  O  O2  1  0.41446706  0.78098531  0.31025934  1
  O  O3  1  0.91543244  0.77934831  0.30841112  1
  O  O4  1  0.48260170  0.18191991  0.31480302  1
  O  O5  1  0.97809668  0.18175778  0.31549574  1
  O  O6  1  0.11301658  0.17201026  0.81100256  1
  O  O7  1  0.61338608  0.17113717  0.81019291  1
  O  O8  1  0.48288777  0.78307188  0.81498222  1
  O  O9  1  0.97810412  0.78941756  0.80851742  1
  O  O10  1  0.41484424  0.04912451  0.81008450  1
  O  O11  1  0.91643255  0.05175738  0.81072294  1
  O  O12  1  0.39906660  0.96076197  0.69568100  1
  O  O13  1  0.90016333  0.96183853  0.69581856  1
  O  O14  1  0.07955361  0.20220441  0.69669167  1
  O  O15  1  0.57947981  0.20191929  0.69648781  1
  O  O16  1  0.02031534  0.83501812  0.69028951  1
  O  O17  1  0.51973721  0.83831098  0.69463214  1
  O  O18  1  0.40029846  0.83778606  0.19530842  1
  O  O19  1  0.90035455  0.84072516  0.19398338  1
  O  O20  1  0.01901882  0.19266029  0.19838976  1
  O  O21  1  0.51951281  0.20055898  0.19415758  1
  O  O22  1  0.07889669  0.95899887  0.19430011  1
  O  O23  1  0.57979393  0.95784055  0.19641103  1
  O  O24  1  0.43959926  0.36574978  0.63965392  1
  O  O25  1  0.93966510  0.36462985  0.63941401  1
  O  O26  1  0.22837472  0.11499264  0.63876725  1
  O  O27  1  0.72828483  0.11485083  0.63897927  1
  O  O28  1  0.32333468  0.53869984  0.63938909  1
  O  O29  1  0.82333256  0.53887973  0.63923415  1
  O  O30  1  0.44088461  0.51458858  0.14059112  1
  O  O31  1  0.94425022  0.53903074  0.13994205  1
  O  O32  1  0.32078576  0.10209274  0.13999202  1
  O  O33  1  0.82744586  0.11616949  0.13990305  1
  O  O34  1  0.22805986  0.34928306  0.13946509  1
  O  O35  1  0.73087973  0.34303158  0.13963216  1
  O  O36  1  0.22103581  0.30524965  0.03014195  1
  O  O37  1  0.72826090  0.30836907  0.03032111  1
  O  O38  1  0.42865557  0.55414814  0.01897794  1
  O  O39  1  0.92958837  0.55016245  0.03081677  1
  O  O40  1  0.34461885  0.14282633  0.03119631  1
  O  O41  1  0.84785162  0.14748275  0.03050791  1
  O  O42  1  0.22227966  0.14142081  0.52907361  1
  O  O43  1  0.72142695  0.14091086  0.52933205  1
  O  O44  1  0.34673846  0.54818585  0.53039178  1
  O  O45  1  0.84630043  0.54739193  0.53024695  1
  O  O46  1  0.43064670  0.30101135  0.51823113  1
  O  O47  1  0.93069048  0.30137327  0.51813596  1
  O  O48  1  0.26633825  0.67352799  0.97152897  1
  O  O49  1  0.76340897  0.67417264  0.97251998  1
  O  O50  1  0.06974770  0.46267212  0.97268866  1
  O  O51  1  0.56763598  0.45353124  0.97307826  1
  O  O52  1  0.16125393  0.85724995  0.97241163  1
  O  O53  1  0.66024461  0.85662794  0.96979081  1
  O  O54  1  0.26247058  0.85282660  0.47105335  1
  O  O55  1  0.76299334  0.85378277  0.47080452  1
  O  O56  1  0.15962875  0.46497073  0.46920594  1
  O  O57  1  0.66020580  0.46550282  0.46934711  1
  O  O58  1  0.06786883  0.68095362  0.47205903  1
  O  O59  1  0.56801804  0.68118406  0.47248828  1
  O  O60  1  0.07106640  0.65709897  0.36340309  1
  O  O61  1  0.57190311  0.65729502  0.36402455  1
  O  O62  1  0.25962136  0.85761314  0.36219568  1
  O  O63  1  0.76065870  0.85860414  0.36180923  1
  O  O64  1  0.17473285  0.48103276  0.36072908  1
  O  O65  1  0.67514376  0.47988217  0.36089389  1
  O  O66  1  0.06717314  0.48400371  0.86401394  1
  O  O67  1  0.57071755  0.48501566  0.86462728  1
  O  O68  1  0.17402534  0.86494663  0.86331347  1
  O  O69  1  0.67575747  0.87106408  0.86143050  1
  O  O70  1  0.26048788  0.65936953  0.86248902  1
  O  O71  1  0.75823395  0.65284506  0.86373889  1
  O  O72  1  0.01212116  0.82280359  0.41251589  1
  O  O73  1  0.51226747  0.82242560  0.41280306  1
  O  O74  1  0.39575466  0.97506973  0.41678264  1
  O  O75  1  0.89631613  0.97518682  0.41661728  1
  O  O76  1  0.08916973  0.20903226  0.41422290  1
  O  O77  1  0.58954796  0.20879643  0.41503773  1
  O  O78  1  0.01166264  0.20721365  0.91510625  1
  O  O79  1  0.51174577  0.20138181  0.91348027  1
  O  O80  1  0.09138392  0.97498765  0.91554251  1
  O  O81  1  0.59007408  0.97201169  0.91468034  1
  O  O82  1  0.39738428  0.81517614  0.91581795  1
  O  O83  1  0.89477920  0.81669828  0.91631824  1
  O  O84  1  0.49193746  0.15859204  0.59051814  1
  O  O85  1  0.99235046  0.15829932  0.58964151  1
  O  O86  1  0.09273617  0.01151417  0.58573419  1
  O  O87  1  0.59207806  0.00971834  0.58661897  1
  O  O88  1  0.41921673  0.80318953  0.58655649  1
  O  O89  1  0.91874962  0.80329593  0.58597340  1
  O  O90  1  0.49201086  0.82374710  0.09042008  1
  O  O91  1  0.98963292  0.80853411  0.08777901  1
  O  O92  1  0.41616149  0.02851428  0.08673357  1
  O  O93  1  0.91845558  0.02912156  0.08763644  1
  O  O94  1  0.09303416  0.17174521  0.08843155  1
  O  O95  1  0.59581116  0.17428448  0.08628331  1
  O  O96  1  0.33054198  0.14969774  0.74338234  1
  O  O97  1  0.83159477  0.15007584  0.74346130  1
  O  O98  1  0.24316092  0.33206329  0.73813220  1
  O  O99  1  0.74396635  0.33232034  0.73774597  1
  O  O100  1  0.42118560  0.51969360  0.74582558  1
  O  O101  1  0.92188658  0.51847499  0.74431415  1
  O  O102  1  0.33171638  0.51241388  0.24352537  1
  O  O103  1  0.83394050  0.51407389  0.23999807  1
  O  O104  1  0.42057087  0.32161757  0.24573562  1
  O  O105  1  0.92309732  0.32906692  0.24150788  1
  O  O106  1  0.24304511  0.15541139  0.23722760  1
  O  O107  1  0.74346027  0.15436999  0.24002716  1
  O  O108  1  0.31632592  0.50575246  0.91524703  1
  O  O109  1  0.81462140  0.50420842  0.91959155  1
  O  O110  1  0.43697454  0.36584552  0.91557375  1
  O  O111  1  0.93512973  0.36744768  0.91940386  1
  O  O112  1  0.24828862  0.12737160  0.91919187  1
  O  O113  1  0.74770361  0.13153444  0.91839036  1
  O  O114  1  0.31442627  0.12206578  0.41495058  1
  O  O115  1  0.81515305  0.12281748  0.41489027  1
  O  O116  1  0.24687557  0.36426605  0.41814566  1
  O  O117  1  0.74726169  0.36391538  0.41852095  1
  O  O118  1  0.43775946  0.50883982  0.41473793  1
  O  O119  1  0.93740023  0.50903752  0.41449275  1
  O  O120  1  0.16863374  0.48107161  0.07792055  1
  O  O121  1  0.67314649  0.47965504  0.07895536  1
  O  O122  1  0.07014697  0.65896908  0.07815713  1
  O  O123  1  0.57793521  0.64784565  0.07699695  1
  O  O124  1  0.25996859  0.85571978  0.07676286  1
  O  O125  1  0.76384232  0.86649348  0.07872220  1
  O  O126  1  0.17135089  0.86275815  0.57826957  1
  O  O127  1  0.67119561  0.86251207  0.57848263  1
  O  O128  1  0.26413262  0.66853689  0.57696276  1
  O  O129  1  0.76373893  0.66790348  0.57682167  1
  O  O130  1  0.07831976  0.50703584  0.57776754  1
  O  O131  1  0.57814952  0.50709018  0.57769892  1
  O  O132  1  0.14961707  0.82254353  0.25920136  1
  O  O133  1  0.65100643  0.82263423  0.25957685  1
  O  O134  1  0.26137288  0.70480567  0.25826234  1
  O  O135  1  0.76131883  0.70181488  0.25807504  1
  O  O136  1  0.09021104  0.47911036  0.25903216  1
  O  O137  1  0.58922915  0.47965941  0.25972851  1
  O  O138  1  0.15020711  0.47934602  0.76056361  1
  O  O139  1  0.65093147  0.47847322  0.75979584  1
  O  O140  1  0.08915712  0.70079578  0.75942114  1
  O  O141  1  0.59001871  0.69863732  0.76038938  1
  O  O142  1  0.26025385  0.81808017  0.75978378  1
  O  O143  1  0.76221703  0.81841475  0.75980984  1
loop_
_geom_bond_atom_site_label_1
_geom_bond_atom_site_label_2
_geom_bond_distance
_geom_bond_site_symmetry_2
Na0 O106 2.301580 1_555
Na0 O104 2.364005 1_555
Na0 O32 2.492836 1_555
Na0 O134 2.553333 1_545
Na0 O132 2.755084 1_545
Na0 O18 2.913194 1_545
Na0 O62 2.915539 1_545
Na0 O4 2.932398 1_555
Na1 O107 2.300484 1_555
Na1 O105 2.440274 1_555
Na1 O33 2.541959 1_555
Na1 O135 2.558861 1_545
Na1 O133 2.733430 1_545
Na1 O5 2.866891 1_555
Na1 O63 2.876967 1_545
Na1 O19 2.896777 1_545
Na2 O102 2.277866 1_555
Na2 O106 2.434268 1_555
Na2 O34 2.526676 1_555
Na2 O136 2.572397 1_555
Na2 O0 2.660281 1_555
Na2 O134 2.825803 1_555
Na2 O64 2.851234 1_555
Na2 O20 2.869496 1_555
Na3 O103 2.341613 1_555
Na3 O107 2.465201 1_555
Na3 O35 2.549920 1_555
Na3 O137 2.568486 1_555
Na3 O1 2.694153 1_555
Na3 O135 2.801309 1_555
Na3 O65 2.846977 1_555
Na3 O21 2.875715 1_555
Na4 O105 2.336505 1_555
Na4 O103 2.456726 1_555
Na4 O31 2.557348 1_555
Na4 O132 2.570415 1_655
Na4 O3 2.702744 1_555
Na4 O136 2.771685 1_655
Na4 O22 2.889454 1_655
Na4 O60 2.926237 1_655
Na5 O104 2.324777 1_555
Na5 O30 2.444739 1_555
Na5 O102 2.476223 1_555
Na5 O133 2.635421 1_555
Na5 O137 2.729754 1_555
Na5 O2 2.860022 1_555
Na5 O23 2.867724 1_555
Na6 O98 2.298160 1_555
Na6 O100 2.387454 1_555
Na6 O28 2.551973 1_555
Na6 O142 2.552504 1_555
Na6 O138 2.731938 1_555
Na6 O70 2.869573 1_555
Na6 O12 2.906986 1_555
Na6 O8 2.931830 1_555
Na7 O99 2.319773 1_555
Na7 O101 2.379712 1_555
Na7 O143 2.544630 1_555
Na7 O29 2.568100 1_555
Na7 O9 2.751407 1_555
Na7 O139 2.759877 1_555
Na7 O71 2.897782 1_555
Na7 O13 2.902519 1_555
Na8 O101 2.311762 1_555
Na8 O97 2.481579 1_555
Na8 O25 2.511144 1_555
Na8 O138 2.611824 1_655
Na8 O140 2.755746 1_655
Na8 O11 2.808318 1_555
Na8 O14 2.852930 1_655
Na9 O100 2.326111 1_555
Na9 O96 2.487895 1_555
Na9 O24 2.493516 1_555
Na9 O139 2.633791 1_555
Na9 O141 2.749824 1_555
Na9 O10 2.822776 1_555
Na9 O15 2.857797 1_555
Na10 O96 2.295861 1_555
Na10 O98 2.450365 1_555
Na10 O26 2.567556 1_555
Na10 O140 2.568823 1_545
Na10 O6 2.676700 1_555
Na10 O142 2.830733 1_545
Na10 O16 2.905880 1_545
Na10 O68 2.908588 1_545
Na11 O97 2.283450 1_555
Na11 O99 2.455307 1_555
Na11 O27 2.557197 1_555
Na11 O141 2.588866 1_545
Na11 O7 2.680567 1_555
Na11 O143 2.831078 1_545
Na11 O69 2.846755 1_545
Na11 O17 2.892740 1_545
Na12 O130 2.393988 1_555
Na12 O89 2.475552 1_455
Na12 O126 2.485249 1_555
Na12 O86 2.599890 1_565
Na12 O16 2.657138 1_555
Na12 O25 2.735996 1_455
Na12 O58 2.758344 1_555
Na12 O45 2.956147 1_455
Na13 O131 2.387184 1_555
Na13 O88 2.469561 1_555
Na13 O127 2.478050 1_555
Na13 O87 2.585236 1_565
Na13 O59 2.733708 1_555
Na13 O24 2.737193 1_555
Na13 O17 2.772694 1_555
Na13 O44 2.944940 1_555
Na14 O123 2.386152 1_555
Na14 O121 2.504084 1_555
Na14 O92 2.520116 1_555
Na14 O95 2.630457 1_555
Na14 O51 2.668147 1_554
Na14 O30 2.769734 1_555
Na14 O21 2.804165 1_555
Na14 O40 2.944803 1_555
Na15 O82 2.433453 1_555
Na15 O110 2.444612 1_555
Na15 O38 2.459375 1_556
Na15 O81 2.486202 1_555
Na15 O8 2.501714 1_555
Na15 O108 2.537086 1_555
Na16 O46 2.397306 1_555
Na16 O118 2.444330 1_555
Na16 O77 2.466960 1_555
Na16 O74 2.468948 1_545
Na16 O4 2.537132 1_555
Na16 O114 2.567831 1_555
Na17 O47 2.366845 1_555
Na17 O119 2.452407 1_555
Na17 O76 2.462942 1_655
Na17 O75 2.465379 1_545
Na17 O5 2.534294 1_555
Na17 O115 2.553478 1_555
Na18 O75 2.513234 1_545
Na18 O85 2.538436 1_555
Na18 O76 2.551330 1_655
Na18 O89 2.575682 1_545
Na18 O72 2.588751 1_645
Na18 O86 2.599459 1_655
Na19 O74 2.514221 1_545
Na19 O77 2.523518 1_555
Na19 O73 2.572348 1_545
Na19 O84 2.573976 1_555
Na19 O88 2.600028 1_545
Na19 O87 2.616632 1_555
Na20 O80 2.419082 1_545
Na20 O78 2.435839 1_555
Na20 O83 2.446647 1_445
Na20 O93 2.720366 1_456
Na20 O91 2.745467 1_446
Na20 O94 2.751788 1_556
Na21 O82 2.466813 1_555
Na21 O81 2.494563 1_555
Na21 O79 2.511866 1_565
Na21 O90 2.630254 1_556
Na21 O92 2.652872 1_566
Na21 O95 2.695438 1_566
Na22 O96 2.490405 1_555
Na22 O112 2.555103 1_555
Na22 O100 2.564824 1_555
Na22 O98 2.588325 1_555
Na22 O108 2.622492 1_555
Na22 O110 2.661661 1_555
Na23 O101 2.499421 1_555
Na23 O97 2.557704 1_555
Na23 O113 2.614172 1_555
Na23 O111 2.620008 1_555
Na23 O109 2.643725 1_555
Na23 O99 2.647084 1_555
Na24 O102 2.494106 1_555
Na24 O104 2.541441 1_555
Na24 O116 2.553447 1_555
Na24 O106 2.618650 1_555
Na24 O114 2.627078 1_555
Na24 O118 2.638357 1_555
Na25 O117 2.504369 1_555
Na25 O103 2.583091 1_555
Na25 O107 2.584800 1_555
Na25 O115 2.596698 1_555
Na25 O119 2.625630 1_555
Na25 O105 2.668759 1_555
Na26 O120 2.384028 1_555
Na26 O124 2.399212 1_555
Na26 O122 2.408699 1_555
Na26 O136 2.829483 1_555
Na26 O134 2.838284 1_555
Na26 O132 2.863324 1_555
Na27 O123 2.267411 1_555
Na27 O125 2.380089 1_555
Na27 O121 2.504167 1_555
Na27 O133 2.792901 1_555
Na27 O135 2.864403 1_555
Na27 O137 2.893222 1_555
Na28 O130 2.287974 1_555
Na28 O128 2.428993 1_555
Na28 O126 2.526834 1_555
Na28 O138 2.767058 1_555
Na28 O142 2.849408 1_555
Na28 O140 2.852222 1_555
Na29 O131 2.283735 1_555
Na29 O129 2.411668 1_555
Na29 O127 2.510365 1_555
Na29 O139 2.774590 1_555
Na29 O141 2.869783 1_555
Na29 O143 2.871247 1_555
Nb0 O14 1.902356 1_655
Nb0 O13 1.902438 1_545
Nb0 O85 1.938139 1_555
Nb0 O16 2.044191 1_645
Nb0 O86 2.221293 1_655
Nb0 O89 2.267084 1_545
Nb1 O15 1.903398 1_555
Nb1 O12 1.905541 1_545
Nb1 O84 1.933847 1_555
Nb1 O17 2.053367 1_545
Nb1 O87 2.213808 1_555
Nb1 O88 2.253333 1_545
Nb2 O19 1.915341 1_445
Nb2 O22 1.918247 1_545
Nb2 O20 1.930298 1_555
Nb2 O94 2.123561 1_555
Nb2 O93 2.158294 1_455
Nb2 O91 2.169166 1_445
Nb3 O18 1.907411 1_555
Nb3 O23 1.910782 1_555
Nb3 O90 1.927210 1_555
Nb3 O21 2.062216 1_565
Nb3 O95 2.222645 1_565
Nb3 O92 2.243790 1_565
Nb4 O134 1.944360 1_555
Nb4 O132 1.962734 1_555
Nb4 O136 1.969119 1_555
Nb4 O62 2.054265 1_555
Nb4 O60 2.057736 1_555
Nb4 O64 2.090293 1_555
Nb5 O137 1.944789 1_555
Nb5 O135 1.954912 1_555
Nb5 O133 1.956975 1_555
Nb5 O61 2.054629 1_555
Nb5 O63 2.077815 1_555
Nb5 O65 2.091198 1_555
Nb6 O140 1.936015 1_555
Nb6 O142 1.957439 1_555
Nb6 O138 1.968767 1_555
Nb6 O68 2.061333 1_555
Nb6 O66 2.064660 1_555
Nb6 O70 2.117452 1_555
Nb7 O143 1.943043 1_555
Nb7 O139 1.951631 1_555
Nb7 O141 1.955892 1_555
Nb7 O67 2.066496 1_555
Nb7 O71 2.068332 1_555
Nb7 O69 2.115848 1_555
O0 Si0 1.586621 1_555
O0 Zn0 1.936078 1_445
O1 Si1 1.583063 1_555
O1 Zn1 1.923719 1_545
O2 Si2 1.581264 1_555
O2 Zn1 1.914331 1_555
O3 Si3 1.586196 1_555
O3 Zn0 1.929326 1_555
O4 Si5 1.602708 1_555
O4 Zn1 1.949799 1_545
O5 Si4 1.600001 1_555
O5 Zn0 1.980122 1_545
O6 Si6 1.586976 1_555
O6 Zn2 1.938044 1_555
O7 Si7 1.587234 1_555
O7 Zn3 1.923991 1_555
O8 Si9 1.604068 1_555
O8 Zn3 1.949712 1_565
O9 Si8 1.586999 1_555
O9 Zn2 1.914333 1_665
O10 Si10 1.587555 1_555
O10 Zn3 1.912698 1_555
O11 Si11 1.584725 1_555
O11 Zn2 1.932236 1_655
O12 Si10 1.697994 1_565
O13 Si11 1.698546 1_565
O14 Si6 1.701162 1_555
O15 Si7 1.697089 1_555
O16 Si8 1.681573 1_455
O17 Si9 1.677388 1_555
O18 Si2 1.691042 1_555
O19 Si3 1.692941 1_555
O20 Si4 1.691096 1_455
O21 Si5 1.675757 1_555
O22 Si0 1.699728 1_565
O23 Si1 1.691384 1_565
O24 Si12 1.622251 1_555
O24 Zn4 1.965814 1_555
O25 Si13 1.619325 1_555
O25 Zn5 1.962177 1_555
O26 S0 1.474372 1_555
O26 Zn4 2.262942 1_555
O27 S1 1.473487 1_555
O27 Zn5 2.262678 1_555
O28 S2 1.470219 1_555
O28 Zn4 2.252930 1_555
O29 S3 1.470558 1_555
O29 Zn5 2.263316 1_555
O30 Si14 1.625556 1_555
O30 Zn6 1.960517 1_555
O31 S4 1.480587 1_555
O31 Zn7 2.163902 1_555
O32 S5 1.475405 1_555
O32 Zn6 2.274490 1_555
O33 S6 1.481235 1_555
O33 Zn7 2.160840 1_555
O34 S7 1.475741 1_555
O34 Zn6 2.279746 1_555
O35 S8 1.478800 1_555
O35 Zn7 2.174600 1_555
O36 S7 1.470979 1_555
O36 Zn8 2.052179 1_554
O37 S8 1.474157 1_555
O37 Zn9 2.107753 1_554
O38 Si14 1.628910 1_555
O38 Zn8 1.937321 1_554
O39 S4 1.470287 1_555
O39 Zn9 2.110920 1_554
O40 S5 1.477501 1_555
O40 Zn8 2.129633 1_554
O41 S6 1.470306 1_555
O41 Zn9 2.128373 1_554
O42 S0 1.480371 1_555
O42 Zn10 2.013977 1_555
O43 S1 1.480359 1_555
O43 Zn11 2.018225 1_555
O44 S2 1.483208 1_555
O44 Zn10 2.081909 1_555
O45 S3 1.484963 1_555
O45 Zn11 2.077816 1_555
O46 Si12 1.635265 1_555
O46 Zn10 1.918564 1_555
O47 Si13 1.636022 1_555
O47 Zn11 1.917801 1_555
O48 S9 1.465671 1_555
O48 Zn12 2.017988 1_556
O49 S10 1.466977 1_555
O49 Zn13 2.038354 1_556
O50 S11 1.472272 1_555
O50 Zn12 2.012158 1_556
O51 S12 1.474624 1_555
O51 Zn13 2.173367 1_556
O52 S13 1.474974 1_555
O52 Zn12 2.003067 1_556
O53 S14 1.466791 1_555
O53 Zn13 2.002346 1_556
O54 S15 1.458947 1_555
O54 Zn14 2.066885 1_555
O55 S16 1.457697 1_555
O55 Zn15 2.070782 1_555
O56 S17 1.468694 1_555
O56 Zn14 2.010284 1_555
O57 S18 1.467799 1_555
O57 Zn15 2.005674 1_555
O58 S19 1.475415 1_555
O58 Zn14 2.165363 1_555
O59 S20 1.475521 1_555
O59 Zn15 2.157748 1_555
O60 S19 1.569980 1_555
O61 S20 1.568049 1_555
O62 S15 1.559427 1_555
O63 S16 1.551987 1_555
O64 S17 1.566164 1_555
O65 S18 1.564618 1_555
O66 S11 1.559696 1_555
O67 S12 1.561059 1_555
O68 S13 1.572319 1_555
O69 S14 1.552097 1_555
O70 S9 1.536117 1_555
O71 S10 1.566606 1_555
O72 S19 1.459242 1_555
O72 Zn0 2.358330 1_455
O73 S20 1.457626 1_555
O73 Zn1 2.357282 1_555
O74 S15 1.475296 1_555
O74 Zn1 2.498280 1_555
O75 S16 1.480856 1_555
O75 Zn0 2.472307 1_555
O76 S17 1.477792 1_555
O76 Zn0 2.459646 1_445
O77 S18 1.475023 1_555
O77 Zn1 2.470080 1_545
O78 S11 1.456406 1_555
O78 Zn2 2.421102 1_555
O79 S12 1.457229 1_555
O79 Zn3 2.380295 1_555
O80 S13 1.457939 1_555
O80 Zn2 2.434421 1_565
O81 S14 1.473916 1_555
O81 Zn3 2.467000 1_565
O82 S9 1.476740 1_555
O82 Zn3 2.490112 1_565
O83 S10 1.460780 1_555
O83 Zn2 2.469558 1_665
O84 Si12 1.709730 1_555
O85 Si13 1.708534 1_555
O86 S0 1.528942 1_555
O87 S1 1.532448 1_555
O88 S2 1.535038 1_555
O89 S3 1.532092 1_555
O90 Si14 1.715829 1_555
O91 S4 1.536022 1_555
O92 S5 1.541206 1_555
O93 S6 1.538774 1_555
O94 S7 1.539585 1_555
O95 S8 1.537715 1_555
O96 Si10 1.598353 1_555
O96 Zn4 2.069158 1_555
O97 Si11 1.598264 1_555
O97 Zn5 2.069589 1_555
O98 Si6 1.599804 1_555
O98 Zn4 2.089423 1_555
O99 Si7 1.595535 1_555
O99 Zn5 2.084482 1_555
O100 Si9 1.606949 1_555
O100 Zn4 2.099344 1_555
O101 Si8 1.605921 1_555
O101 Zn5 2.077694 1_555
O102 Si2 1.600349 1_555
O102 Zn6 2.082250 1_555
O103 Si3 1.603967 1_555
O103 Zn7 2.056782 1_555
O104 Si5 1.608347 1_555
O104 Zn6 2.103422 1_555
O105 Si4 1.603955 1_555
O105 Zn7 2.071454 1_555
O106 Si0 1.601596 1_555
O106 Zn6 2.088343 1_555
O107 Si1 1.603050 1_555
O107 Zn7 2.044645 1_555
O108 S9 1.488689 1_555
O108 Zn8 2.369183 1_555
O109 S10 1.487123 1_555
O109 Zn9 2.243211 1_555
O110 S12 1.485813 1_555
O110 Zn8 2.464126 1_555
O111 S11 1.487024 1_655
O111 Zn9 2.189993 1_555
O112 S13 1.477196 1_545
O112 Zn8 2.418873 1_555
O113 S14 1.477518 1_545
O113 Zn9 2.289546 1_555
O114 S15 1.481614 1_545
O114 Zn10 2.474393 1_555
O115 S16 1.483620 1_545
O115 Zn11 2.476130 1_555
O116 S17 1.463989 1_555
O116 Zn10 2.512532 1_555
O117 S18 1.466876 1_555
O117 Zn11 2.503479 1_555
O118 S20 1.480398 1_555
O118 Zn10 2.526729 1_555
O119 S19 1.478324 1_655
O119 Zn11 2.538173 1_555
O120 S7 1.485153 1_555
O120 Zn12 2.228346 1_555
O121 S8 1.483837 1_555
O121 Zn13 2.301123 1_555
O122 S4 1.489635 1_455
O122 Zn12 2.217983 1_555
O123 Si14 1.643623 1_555
O123 Zn13 1.974784 1_555
O124 S5 1.485030 1_565
O124 Zn12 2.239289 1_555
O125 S6 1.481792 1_565
O125 Zn13 2.219511 1_555
O126 S0 1.483252 1_565
O126 Zn14 2.266474 1_555
O127 S1 1.481461 1_565
O127 Zn15 2.271603 1_555
O128 S2 1.480390 1_555
O128 Zn14 2.177467 1_555
O129 S3 1.480579 1_555
O129 Zn15 2.174230 1_555
O130 Si13 1.644119 1_455
O130 Zn14 1.966156 1_555
O131 Si12 1.642573 1_555
O131 Zn15 1.973855 1_555
O132 Si0 1.689329 1_565
O133 Si1 1.683479 1_565
O134 Si2 1.685815 1_555
O135 Si3 1.679864 1_555
O136 Si4 1.685424 1_455
O137 Si5 1.706092 1_555
O138 Si6 1.682992 1_555
O139 Si7 1.684252 1_555
O140 Si8 1.707954 1_455
O141 Si9 1.704171 1_555
O142 Si10 1.677803 1_565
O143 Si11 1.684572 1_565
