# generated using pymatgen
data_SrSe
_symmetry_space_group_name_H-M   'P 1'
_cell_length_a   4.44022002
_cell_length_b   4.44022119
_cell_length_c   4.44022279
_cell_angle_alpha   60.00001114
_cell_angle_beta   60.00000248
_cell_angle_gamma   60.00001934
_symmetry_Int_Tables_number   1
_chemical_formula_structural   SrSe
_chemical_formula_sum   'Sr1 Se1'
_cell_volume   61.90118559
_cell_formula_units_Z   1
loop_
 _symmetry_equiv_pos_site_id
 _symmetry_equiv_pos_as_xyz
  1  'x, y, z'
loop_
 _atom_site_type_symbol
 _atom_site_label
 _atom_site_symmetry_multiplicity
 _atom_site_fract_x
 _atom_site_fract_y
 _atom_site_fract_z
 _atom_site_occupancy
  Sr  Sr0  1  -0.00000000  0.00000000  0.00000000  1
  Se  Se0  1  0.50000000  0.50000000  0.50000000  1
loop_
_geom_bond_atom_site_label_1
_geom_bond_atom_site_label_2
_geom_bond_distance
_geom_bond_site_symmetry_2
Se0 Sr0 3.139710 1_556
Se0 Sr0 3.139710 1_665
Se0 Sr0 3.139711 1_656
Se0 Sr0 3.139711 1_565
Se0 Sr0 3.139711 1_566
Se0 Sr0 3.139711 1_655
