# generated using pymatgen
data_CsHgBr3
_symmetry_space_group_name_H-M   'P 1'
_cell_length_a   5.69500500
_cell_length_b   5.69500500
_cell_length_c   5.69500500
_cell_angle_alpha   90.00000000
_cell_angle_beta   90.00000000
_cell_angle_gamma   90.00000000
_symmetry_Int_Tables_number   1
_chemical_formula_structural   CsHgBr3
_chemical_formula_sum   'Cs1 Hg1 Br3'
_cell_volume   184.70656387
_cell_formula_units_Z   1
loop_
 _symmetry_equiv_pos_site_id
 _symmetry_equiv_pos_as_xyz
  1  'x, y, z'
loop_
 _atom_site_type_symbol
 _atom_site_label
 _atom_site_symmetry_multiplicity
 _atom_site_fract_x
 _atom_site_fract_y
 _atom_site_fract_z
 _atom_site_occupancy
  Cs  Cs0  1  0.00000000  0.00000000  0.00000000  1
  Hg  Hg0  1  0.50000000  0.50000000  0.50000000  1
  Br  Br0  1  0.50000000  0.00000000  0.50000000  1
  Br  Br1  1  0.50000000  0.50000000  0.00000000  1
  Br  Br2  1  0.00000000  0.50000000  0.50000000  1
loop_
_geom_bond_atom_site_label_1
_geom_bond_atom_site_label_2
_geom_bond_distance
_geom_bond_site_symmetry_2
Br0 Hg0 2.847503 1_545
Br0 Hg0 2.847503 1_555
Br0 Cs0 4.026977 1_555
Br0 Cs0 4.026977 1_655
Br0 Cs0 4.026977 1_556
Br0 Cs0 4.026977 1_656
Br1 Hg0 2.847503 1_554
Br1 Hg0 2.847503 1_555
Br1 Cs0 4.026977 1_555
Br1 Cs0 4.026977 1_655
Br1 Cs0 4.026977 1_665
Br1 Cs0 4.026977 1_565
Br2 Hg0 2.847503 1_455
Br2 Hg0 2.847503 1_555
Br2 Cs0 4.026977 1_555
Br2 Cs0 4.026977 1_556
Br2 Cs0 4.026977 1_565
Br2 Cs0 4.026977 1_566
