# generated using pymatgen
data_YTl3
_symmetry_space_group_name_H-M   'P 1'
_cell_length_a   4.73084003
_cell_length_b   4.73084003
_cell_length_c   4.73084003
_cell_angle_alpha   90.00000000
_cell_angle_beta   90.00000000
_cell_angle_gamma   90.00000000
_symmetry_Int_Tables_number   1
_chemical_formula_structural   YTl3
_chemical_formula_sum   'Y1 Tl3'
_cell_volume   105.88020874
_cell_formula_units_Z   1
loop_
 _symmetry_equiv_pos_site_id
 _symmetry_equiv_pos_as_xyz
  1  'x, y, z'
loop_
 _atom_site_type_symbol
 _atom_site_label
 _atom_site_symmetry_multiplicity
 _atom_site_fract_x
 _atom_site_fract_y
 _atom_site_fract_z
 _atom_site_occupancy
  Y  Y0  1  0.00000000  0.00000000  0.00000000  1
  Tl  Tl0  1  0.50000000  0.50000000  -0.00000000  1
  Tl  Tl1  1  0.50000000  -0.00000000  0.50000000  1
  Tl  Tl2  1  -0.00000000  0.50000000  0.50000000  1
loop_
_geom_bond_atom_site_label_1
_geom_bond_atom_site_label_2
_geom_bond_distance
_geom_bond_site_symmetry_2
Tl0 Y0 3.345209 1_555
Tl0 Y0 3.345209 1_565
Tl0 Tl1 3.345209 1_555
Tl0 Tl1 3.345209 1_565
Tl0 Tl1 3.345209 1_564
Tl0 Tl2 3.345209 1_555
Tl0 Y0 3.345209 1_665
Tl0 Tl2 3.345209 1_554
Tl0 Y0 3.345209 1_655
Tl0 Tl2 3.345209 1_655
Tl0 Tl2 3.345209 1_654
Tl0 Tl1 3.345209 1_554
Tl1 Y0 3.345209 1_555
Tl1 Y0 3.345209 1_656
Tl1 Tl2 3.345209 1_555
Tl1 Tl2 3.345209 1_545
Tl1 Y0 3.345209 1_655
Tl1 Tl2 3.345209 1_655
Tl1 Y0 3.345209 1_556
Tl1 Tl2 3.345209 1_645
Tl2 Y0 3.345209 1_555
Tl2 Y0 3.345209 1_565
Tl2 Y0 3.345209 1_566
Tl2 Y0 3.345209 1_556
