# generated using pymatgen
data_Na4CaTi3(PO4)6
_symmetry_space_group_name_H-M   'P 1'
_cell_length_a   8.85409826
_cell_length_b   8.85216106
_cell_length_c   22.33410653
_cell_angle_alpha   90.06529225
_cell_angle_beta   89.95381714
_cell_angle_gamma   119.80655395
_symmetry_Int_Tables_number   1
_chemical_formula_structural   Na4CaTi3(PO4)6
_chemical_formula_sum   'Na12 Ca3 Ti9 P18 O72'
_cell_volume   1518.92325349
_cell_formula_units_Z   3
loop_
 _symmetry_equiv_pos_site_id
 _symmetry_equiv_pos_as_xyz
  1  'x, y, z'
loop_
 _atom_site_type_symbol
 _atom_site_label
 _atom_site_symmetry_multiplicity
 _atom_site_fract_x
 _atom_site_fract_y
 _atom_site_fract_z
 _atom_site_occupancy
  Na  Na0  1  0.64663266  0.01106632  0.24617510  1
  Na  Na1  1  0.36692842  0.35505217  0.24640069  1
  Na  Na2  1  0.98889060  0.63389665  0.24594048  1
  Na  Na3  1  0.99062385  0.36740086  0.74604012  1
  Na  Na4  1  0.37736268  0.00490736  0.74591831  1
  Na  Na5  1  0.71077454  0.67499004  0.41629664  1
  Na  Na6  1  0.01324773  0.01349033  0.49960467  1
  Na  Na7  1  0.00028154  0.00047163  0.00023317  1
  Na  Na8  1  0.66551910  0.34602558  0.83611377  1
  Na  Na9  1  0.66570818  0.32101399  0.33469474  1
  Na  Na10  1  0.33371426  0.66654117  0.16040112  1
  Na  Na11  1  0.34762055  0.66477427  0.66252848  1
  Ca  Ca0  1  0.00840390  0.00927834  0.35870299  1
  Ca  Ca1  1  0.66491780  0.34196680  0.68329016  1
  Ca  Ca2  1  0.66699477  0.33429434  0.17066547  1
  Ti  Ti0  1  0.99969995  0.99895100  0.85687597  1
  Ti  Ti1  1  0.99475724  0.99503557  0.64353635  1
  Ti  Ti2  1  0.00186518  0.00142081  0.14481310  1
  Ti  Ti3  1  0.66734268  0.33208143  0.98413863  1
  Ti  Ti4  1  0.66664039  0.32679791  0.48551904  1
  Ti  Ti5  1  0.33272565  0.66652473  0.01571819  1
  Ti  Ti6  1  0.33109258  0.66681245  0.52044409  1
  Ti  Ti7  1  0.33104098  0.66692412  0.31687994  1
  Ti  Ti8  1  0.33902785  0.66559780  0.81673718  1
  P  P0  1  0.29154531  0.99378009  0.24909794  1
  P  P1  1  0.70280825  0.70941957  0.25166584  1
  P  P2  1  0.00581872  0.29716895  0.24937277  1
  P  P3  1  0.27587408  0.28500424  0.75277801  1
  P  P4  1  0.00789797  0.72121899  0.75303297  1
  P  P5  1  0.71253178  0.98633947  0.75246077  1
  P  P6  1  0.96798679  0.33302525  0.58457129  1
  P  P7  1  0.36558638  0.03267343  0.58454017  1
  P  P8  1  0.66639302  0.63474668  0.58094546  1
  P  P9  1  0.97210741  0.63824654  0.08127556  1
  P  P10  1  0.66534988  0.02662941  0.08144657  1
  P  P11  1  0.36183549  0.33434894  0.08132804  1
  P  P12  1  0.62351592  0.66397905  0.91741681  1
  P  P13  1  0.04164575  0.37814340  0.91600224  1
  P  P14  1  0.33715707  0.95886850  0.91615185  1
  P  P15  1  0.60917850  0.95884874  0.41962764  1
  P  P16  1  0.34519271  0.38618645  0.42041627  1
  P  P17  1  0.03825148  0.65023031  0.41994258  1
  O  O0  1  0.21727087  0.02718757  0.30440448  1
  O  O1  1  0.80170011  0.77848864  0.30971642  1
  O  O2  1  0.96973269  0.18834619  0.30444727  1
  O  O3  1  0.17772463  0.17381662  0.80835574  1
  O  O4  1  0.99537180  0.81890129  0.80864551  1
  O  O5  1  0.82517155  0.00482465  0.80773427  1
  O  O6  1  0.80179553  0.96986471  0.69465002  1
  O  O7  1  0.16446572  0.19853710  0.69584047  1
  O  O8  1  0.02842150  0.83144525  0.69582797  1
  O  O9  1  0.80383354  0.83250370  0.19724564  1
  O  O10  1  0.03090425  0.20097810  0.19359858  1
  O  O11  1  0.17153006  0.97042191  0.19328741  1
  O  O12  1  0.91005764  0.37111851  0.64380244  1
  O  O13  1  0.46205940  0.08908941  0.64368344  1
  O  O14  1  0.62356472  0.53068063  0.63779469  1
  O  O15  1  0.92298706  0.54766773  0.14184655  1
  O  O16  1  0.62431132  0.07732384  0.14189909  1
  O  O17  1  0.45189643  0.37545675  0.14203214  1
  O  O18  1  0.47352209  0.31018265  0.03126995  1
  O  O19  1  0.83685735  0.52640518  0.03120352  1
  O  O20  1  0.68990458  0.16235409  0.03116998  1
  O  O21  1  0.47327621  0.16541325  0.53271102  1
  O  O22  1  0.69532547  0.53892058  0.52618816  1
  O  O23  1  0.83542185  0.30875415  0.53267481  1
  O  O24  1  0.53281143  0.69195353  0.97077850  1
  O  O25  1  0.16213810  0.47068289  0.96894268  1
  O  O26  1  0.30943250  0.83881305  0.96917659  1
  O  O27  1  0.50571194  0.84330541  0.47172362  1
  O  O28  1  0.33953104  0.49388949  0.47269046  1
  O  O29  1  0.15312928  0.66372445  0.47236576  1
  O  O30  1  0.13056100  0.63842594  0.35996256  1
  O  O31  1  0.50360605  0.86999265  0.35952900  1
  O  O32  1  0.36317085  0.49547860  0.36069692  1
  O  O33  1  0.12977974  0.49230822  0.85852421  1
  O  O34  1  0.36286466  0.87000146  0.85867411  1
  O  O35  1  0.50367723  0.63832035  0.86114928  1
  O  O36  1  0.01085434  0.80661202  0.42060609  1
  O  O37  1  0.78484524  0.96773393  0.41958996  1
  O  O38  1  0.18602583  0.20887758  0.42232834  1
  O  O39  1  0.02191546  0.19418885  0.90958796  1
  O  O40  1  0.17243425  0.97806835  0.90968066  1
  O  O41  1  0.80543535  0.82788824  0.90966474  1
  O  O42  1  0.97741408  0.16191439  0.58743478  1
  O  O43  1  0.18490783  0.02290104  0.58816812  1
  O  O44  1  0.83761294  0.81565544  0.58762659  1
  O  O45  1  0.98034316  0.81783599  0.08543355  1
  O  O46  1  0.83633241  0.01778065  0.08560216  1
  O  O47  1  0.18232652  0.16328283  0.08537908  1
  O  O48  1  0.69325758  0.14948042  0.75137119  1
  O  O49  1  0.45295817  0.29619481  0.75259352  1
  O  O50  1  0.85301990  0.53720521  0.75304893  1
  O  O51  1  0.67076544  0.52390609  0.24306046  1
  O  O52  1  0.85431453  0.33271386  0.24152497  1
  O  O53  1  0.47799808  0.14532994  0.24166585  1
  O  O54  1  0.63983242  0.49913652  0.92404641  1
  O  O55  1  0.85981134  0.36096019  0.92421225  1
  O  O56  1  0.50104096  0.14040211  0.92416748  1
  O  O57  1  0.62395845  0.14029797  0.42467434  1
  O  O58  1  0.51754878  0.37901564  0.42298933  1
  O  O59  1  0.85765010  0.48083725  0.42332494  1
  O  O60  1  0.33587263  0.48971404  0.06602794  1
  O  O61  1  0.15319094  0.66359721  0.06589220  1
  O  O62  1  0.50948994  0.84662822  0.06609353  1
  O  O63  1  0.33484796  0.84920674  0.57021845  1
  O  O64  1  0.51527499  0.67103017  0.56934409  1
  O  O65  1  0.15096445  0.48615656  0.57052499  1
  O  O66  1  0.29633475  0.81811126  0.25400732  1
  O  O67  1  0.52131672  0.70256330  0.25489597  1
  O  O68  1  0.18079576  0.47714533  0.25479445  1
  O  O69  1  0.28921505  0.46790572  0.75843418  1
  O  O70  1  0.18034411  0.71041720  0.75702213  1
  O  O71  1  0.52767272  0.82151969  0.75764561  1
loop_
_geom_bond_atom_site_label_1
_geom_bond_atom_site_label_2
_geom_bond_distance
_geom_bond_site_symmetry_2
Na0 O53 2.327406 1_555
Na0 O67 2.390703 1_545
Na0 O16 2.434336 1_555
Na0 O52 2.508869 1_555
Na0 O66 2.702030 1_545
Na0 O9 2.794786 1_545
Na0 O2 2.806898 1_555
Na0 O31 2.828842 1_545
Na1 O51 2.340793 1_555
Na1 O68 2.385176 1_555
Na1 O17 2.427984 1_555
Na1 O53 2.497857 1_555
Na1 O67 2.680739 1_555
Na1 O0 2.835487 1_555
Na1 O10 2.840878 1_555
Na1 O32 2.845416 1_555
Na2 O52 2.319284 1_555
Na2 O66 2.385121 1_655
Na2 O15 2.425569 1_555
Na2 O51 2.481875 1_555
Na2 O68 2.682664 1_655
Na2 O30 2.831083 1_655
Na2 O11 2.843942 1_655
Na2 O1 2.918070 1_555
Na3 O69 2.349444 1_655
Na3 O50 2.363919 1_555
Na3 O48 2.370312 1_555
Na3 O12 2.397901 1_555
Na3 O70 2.651424 1_655
Na3 O33 2.774212 1_655
Na3 O7 2.853314 1_655
Na4 O70 2.319528 1_545
Na4 O49 2.324331 1_555
Na4 O13 2.403500 1_555
Na4 O48 2.432555 1_555
Na4 O71 2.573813 1_545
Na4 O34 2.763762 1_545
Na4 O8 2.905183 1_545
Na5 O36 2.312726 1_655
Na5 O58 2.314753 1_555
Na5 O37 2.336883 1_555
Na5 O1 2.534229 1_555
Na5 O59 2.625367 1_555
Na5 O22 2.708446 1_555
Na5 O32 2.946025 1_555
Na6 O38 2.383823 1_555
Na6 O42 2.466246 1_455
Na6 O43 2.471446 1_555
Na6 O36 2.534023 1_545
Na6 O37 2.576272 1_445
Na6 O44 2.577876 1_445
Na7 O47 2.445556 1_555
Na7 O46 2.445803 1_455
Na7 O45 2.447164 1_445
Na7 O40 2.597588 1_544
Na7 O39 2.599335 1_554
Na7 O41 2.603883 1_444
Na8 O54 2.458717 1_555
Na8 O50 2.504181 1_555
Na8 O49 2.528760 1_555
Na8 O55 2.574310 1_555
Na8 O56 2.582594 1_555
Na8 O48 2.661967 1_555
Na9 O57 2.480436 1_555
Na9 O59 2.533155 1_555
Na9 O58 2.556622 1_555
Na9 O53 2.631800 1_555
Na9 O52 2.636734 1_555
Na9 O51 2.710068 1_555
Na10 O66 2.591208 1_555
Na10 O67 2.606215 1_555
Na10 O68 2.614436 1_555
Na10 O60 2.629688 1_555
Na10 O62 2.633584 1_555
Na10 O61 2.640972 1_555
Na11 O64 2.539982 1_555
Na11 O71 2.603708 1_555
Na11 O69 2.646372 1_555
Na11 O65 2.648677 1_555
Na11 O63 2.668390 1_555
Na11 O70 2.720055 1_555
Ca0 O0 2.149690 1_555
Ca0 O2 2.154730 1_455
Ca0 O38 2.202247 1_555
Ca0 O1 2.236365 1_445
Ca0 O36 2.274835 1_545
Ca0 O37 2.275003 1_445
Ca1 O14 2.137690 1_555
Ca1 O12 2.235178 1_555
Ca1 O13 2.240630 1_555
Ca1 O49 2.307115 1_555
Ca1 O50 2.307512 1_555
Ca1 O48 2.389537 1_555
Ca2 O17 2.204823 1_555
Ca2 O15 2.205361 1_555
Ca2 O16 2.207367 1_555
Ca2 O52 2.298455 1_555
Ca2 O53 2.309081 1_555
Ca2 O51 2.317515 1_555
O0 P0 1.495631 1_545
O1 P1 1.513022 1_555
O2 P2 1.496377 1_655
O3 P3 1.554169 1_555
O3 Ti0 1.905361 1_445
O4 P4 1.547702 1_655
O4 Ti0 1.907228 1_555
O5 P5 1.544236 1_545
O5 Ti0 1.917800 1_545
O6 P5 1.557404 1_555
O6 Ti1 1.972513 1_555
O7 P3 1.557300 1_555
O7 Ti1 2.043192 1_445
O8 P4 1.563204 1_555
O8 Ti1 1.995847 1_455
O9 P1 1.580153 1_555
O9 Ti2 2.018857 1_665
O10 P2 1.584683 1_555
O10 Ti2 1.979492 1_555
O11 P0 1.583904 1_555
O11 Ti2 1.979189 1_565
O12 P6 1.515460 1_555
O13 P7 1.516598 1_555
O14 P8 1.503033 1_555
O15 P9 1.522160 1_555
O16 P10 1.521926 1_555
O17 P11 1.522676 1_555
O18 P11 1.575299 1_555
O18 Ti3 1.938420 1_554
O19 P9 1.576654 1_555
O19 Ti3 1.936070 1_554
O20 P10 1.579441 1_555
O20 Ti3 1.924302 1_554
O21 P7 1.586597 1_555
O21 Ti4 1.911007 1_555
O22 P8 1.579228 1_555
O22 Ti4 1.984394 1_555
O23 P6 1.586877 1_555
O23 Ti4 1.899521 1_555
O24 P12 1.523861 1_555
O24 Ti5 1.948782 1_556
O25 P13 1.529130 1_555
O25 Ti5 1.942527 1_556
O26 P14 1.528141 1_555
O26 Ti5 1.940537 1_556
O27 P15 1.519419 1_555
O27 Ti6 1.901348 1_555
O28 P16 1.522966 1_555
O28 Ti6 1.896339 1_555
O29 P17 1.516735 1_555
O29 Ti6 1.896431 1_555
O30 P17 1.598836 1_555
O30 Ti7 1.921715 1_555
O31 P15 1.600861 1_555
O31 Ti7 1.934198 1_555
O32 P16 1.609286 1_555
O32 Ti7 1.942928 1_555
O33 P13 1.579727 1_555
O33 Ti8 1.957478 1_555
O34 P14 1.579181 1_555
O34 Ti8 1.952587 1_555
O35 P12 1.587012 1_555
O35 Ti8 1.876234 1_555
O36 P17 1.519598 1_555
O37 P15 1.517809 1_555
O38 P16 1.500825 1_555
O39 P13 1.555447 1_555
O39 Ti0 2.017272 1_445
O40 P14 1.556837 1_555
O40 Ti0 2.012109 1_455
O41 P12 1.551258 1_555
O41 Ti0 2.013209 1_555
O42 P6 1.559262 1_555
O42 Ti1 2.001452 1_545
O43 P7 1.560597 1_555
O43 Ti1 2.002261 1_445
O44 P8 1.572058 1_555
O44 Ti1 1.954082 1_555
O45 P9 1.557462 1_555
O45 Ti2 2.030700 1_665
O46 P10 1.557166 1_555
O46 Ti2 2.032845 1_655
O47 P11 1.560389 1_555
O47 Ti2 2.023104 1_555
O48 P5 1.536353 1_545
O49 P3 1.521113 1_555
O50 P4 1.520917 1_655
O51 P1 1.533109 1_555
O52 P2 1.532737 1_655
O53 P0 1.533291 1_545
O54 P12 1.543437 1_555
O54 Ti3 2.100136 1_555
O55 P13 1.550782 1_655
O55 Ti3 2.079606 1_555
O56 P14 1.549693 1_545
O56 Ti3 2.086951 1_555
O57 P15 1.549326 1_545
O57 Ti4 2.022495 1_555
O58 P16 1.559691 1_555
O58 Ti4 2.125478 1_555
O59 P17 1.558045 1_655
O59 Ti4 2.087330 1_555
O60 P11 1.541626 1_555
O60 Ti5 1.939184 1_555
O61 P9 1.542941 1_455
O61 Ti5 1.933785 1_555
O62 P10 1.540908 1_565
O62 Ti5 1.943003 1_555
O63 P7 1.540630 1_565
O63 Ti6 1.945863 1_555
O64 P8 1.545498 1_555
O64 Ti6 1.948285 1_555
O65 P6 1.541924 1_455
O65 Ti6 1.953901 1_555
O66 P0 1.580491 1_555
O66 Ti7 2.066684 1_555
O67 P1 1.579247 1_555
O67 Ti7 2.079207 1_555
O68 P2 1.580873 1_555
O68 Ti7 2.071366 1_555
O69 P3 1.568674 1_555
O69 Ti8 2.044757 1_555
O70 P4 1.579161 1_555
O70 Ti8 2.113893 1_555
O71 P5 1.564325 1_555
O71 Ti8 2.036018 1_555
