# generated using pymatgen
data_LiSn2(PO3)5
_symmetry_space_group_name_H-M   'P 1'
_cell_length_a   9.85421100
_cell_length_b   5.54771400
_cell_length_c   13.49092600
_cell_angle_alpha   67.00291467
_cell_angle_beta   90.00000000
_cell_angle_gamma   90.00000000
_symmetry_Int_Tables_number   1
_chemical_formula_structural   LiSn2(PO3)5
_chemical_formula_sum   'Li2 Sn4 P10 O30'
_cell_volume   678.91146237
_cell_formula_units_Z   2
loop_
 _symmetry_equiv_pos_site_id
 _symmetry_equiv_pos_as_xyz
  1  'x, y, z'
loop_
 _atom_site_type_symbol
 _atom_site_label
 _atom_site_symmetry_multiplicity
 _atom_site_fract_x
 _atom_site_fract_y
 _atom_site_fract_z
 _atom_site_occupancy
  Li  Li0  1  0.98316500  0.08002200  0.47621300  1
  Li  Li1  1  0.01683500  0.08002200  0.97621300  1
  Sn  Sn0  1  0.31088200  0.02816800  0.08707100  1
  Sn  Sn1  1  0.30644600  0.96494900  0.41881800  1
  Sn  Sn2  1  0.68911800  0.02816800  0.58707100  1
  Sn  Sn3  1  0.69355400  0.96494900  0.91881800  1
  P  P0  1  0.80539000  0.33347900  0.08194100  1
  P  P1  1  0.53861200  0.45721900  0.14688900  1
  P  P2  1  0.99847500  0.01150600  0.25052300  1
  P  P3  1  0.54036500  0.53616000  0.35298600  1
  P  P4  1  0.81023200  0.66384900  0.41571900  1
  P  P5  1  0.19461000  0.33347900  0.58194100  1
  P  P6  1  0.46138800  0.45721900  0.64688900  1
  P  P7  1  0.00152500  0.01150600  0.75052300  1
  P  P8  1  0.45963500  0.53616000  0.85298600  1
  P  P9  1  0.18976800  0.66384900  0.91571900  1
  O  O0  1  0.83483100  0.15589100  0.02415900  1
  O  O1  1  0.82330700  0.62441000  0.02135500  1
  O  O2  1  0.53896600  0.72349200  0.05510700  1
  O  O3  1  0.65233400  0.26983600  0.12787500  1
  O  O4  1  0.08068700  0.95611800  0.16851900  1
  O  O5  1  0.40694000  0.30945700  0.17277000  1
  O  O6  1  0.89226500  0.24946900  0.19101000  1
  O  O7  1  0.60210600  0.48816100  0.25126100  1
  O  O8  1  0.89884800  0.75968600  0.30676100  1
  O  O9  1  0.41101500  0.69035200  0.32390100  1
  O  O10  1  0.06641800  0.07841700  0.33622000  1
  O  O11  1  0.65724200  0.72157600  0.36909900  1
  O  O12  1  0.53850100  0.27540400  0.44771000  1
  O  O13  1  0.83203900  0.37084800  0.47191600  1
  O  O14  1  0.83334500  0.83613100  0.47657900  1
  O  O15  1  0.16516900  0.15589100  0.52415900  1
  O  O16  1  0.17669300  0.62441000  0.52135500  1
  O  O17  1  0.46103400  0.72349200  0.55510700  1
  O  O18  1  0.34766600  0.26983600  0.62787500  1
  O  O19  1  0.91931300  0.95611800  0.66851900  1
  O  O20  1  0.59306000  0.30945700  0.67277000  1
  O  O21  1  0.10773500  0.24946900  0.69101000  1
  O  O22  1  0.39789400  0.48816100  0.75126100  1
  O  O23  1  0.10115200  0.75968600  0.80676100  1
  O  O24  1  0.58898500  0.69035200  0.82390100  1
  O  O25  1  0.93358200  0.07841700  0.83622000  1
  O  O26  1  0.34275800  0.72157600  0.86909900  1
  O  O27  1  0.46149900  0.27540400  0.94771000  1
  O  O28  1  0.16796100  0.37084800  0.97191600  1
  O  O29  1  0.16665500  0.83613100  0.97657900  1
loop_
_geom_bond_atom_site_label_1
_geom_bond_atom_site_label_2
_geom_bond_distance
_geom_bond_site_symmetry_2
Li0 O14 2.001286 1_545
Li0 O15 2.006227 1_655
Li0 O10 2.062330 1_655
Li0 O13 2.179725 1_555
Li0 O19 2.491144 1_545
Li1 O29 2.001286 1_545
Li1 O0 2.006227 1_456
Li1 O25 2.062330 1_455
Li1 O28 2.179725 1_555
Li1 O4 2.491144 1_546
O0 P0 1.504183 1_555
O0 Sn3 2.501237 1_544
O1 P0 1.507798 1_555
O1 Sn3 2.252894 1_554
O2 P1 1.511998 1_555
O2 Sn3 2.360326 1_554
O3 P1 1.615752 1_555
O3 P0 1.616331 1_555
O4 P2 1.496756 1_465
O4 Sn0 2.483860 1_565
O5 P1 1.501270 1_555
O5 Sn0 2.465289 1_555
O6 P0 1.606047 1_555
O6 P2 1.629304 1_555
O7 P1 1.610119 1_555
O7 P3 1.615548 1_555
O8 P4 1.610993 1_555
O8 P2 1.631852 1_565
O9 P3 1.499381 1_555
O9 Sn1 2.558609 1_555
O10 P2 1.502674 1_455
O10 Sn1 2.585432 1_545
O11 P3 1.614480 1_555
O11 P4 1.616662 1_555
O12 P3 1.510494 1_555
O12 Sn2 2.367280 1_555
O13 P4 1.516656 1_555
O13 Sn2 2.388190 1_555
O14 P4 1.500894 1_555
O14 Sn2 2.572512 1_565
O15 P5 1.504183 1_555
O15 Sn1 2.501237 1_545
O16 P5 1.507798 1_555
O16 Sn1 2.252894 1_555
O17 P6 1.511998 1_555
O17 Sn1 2.360326 1_555
O18 P6 1.615752 1_555
O18 P5 1.616331 1_555
O19 P7 1.496756 1_665
O19 Sn2 2.483860 1_565
O20 P6 1.501270 1_555
O20 Sn2 2.465289 1_555
O21 P5 1.606047 1_555
O21 P7 1.629304 1_555
O22 P6 1.610119 1_555
O22 P8 1.615548 1_555
O23 P9 1.610993 1_555
O23 P7 1.631852 1_565
O24 P8 1.499381 1_555
O24 Sn3 2.558609 1_555
O25 P7 1.502674 1_655
O25 Sn3 2.585432 1_545
O26 P8 1.614480 1_555
O26 P9 1.616662 1_555
O27 P8 1.510494 1_555
O27 Sn0 2.367280 1_556
O28 P9 1.516656 1_555
O28 Sn0 2.388190 1_556
O29 P9 1.500894 1_555
O29 Sn0 2.572512 1_566
