# generated using pymatgen
data_Na8Mg2Ga2Si3(SO8)3
_symmetry_space_group_name_H-M   'P 1'
_cell_length_a   9.15105897
_cell_length_b   8.99760824
_cell_length_c   22.14825866
_cell_angle_alpha   92.79169481
_cell_angle_beta   89.69442874
_cell_angle_gamma   120.46091705
_symmetry_Int_Tables_number   1
_chemical_formula_structural   Na8Mg2Ga2Si3(SO8)3
_chemical_formula_sum   'Na24 Mg6 Ga6 Si9 S9 O72'
_cell_volume   1569.66598213
_cell_formula_units_Z   3
loop_
 _symmetry_equiv_pos_site_id
 _symmetry_equiv_pos_as_xyz
  1  'x, y, z'
loop_
 _atom_site_type_symbol
 _atom_site_label
 _atom_site_symmetry_multiplicity
 _atom_site_fract_x
 _atom_site_fract_y
 _atom_site_fract_z
 _atom_site_occupancy
  Na  Na0  1  0.63731676  0.01453915  0.25880403  1
  Na  Na1  1  0.35443252  0.35082739  0.25440445  1
  Na  Na2  1  0.00337225  0.62989876  0.24465440  1
  Na  Na3  1  0.62867803  0.63034626  0.73731800  1
  Na  Na4  1  0.99358417  0.35317981  0.74048353  1
  Na  Na5  1  0.37886170  0.01787024  0.75036884  1
  Na  Na6  1  0.30289001  0.34532777  0.59076184  1
  Na  Na7  1  0.02168541  0.68544192  0.58666947  1
  Na  Na8  1  0.66910503  0.96126976  0.58052137  1
  Na  Na9  1  0.28702760  0.95274473  0.08328123  1
  Na  Na10  1  0.67531716  0.69763253  0.08208452  1
  Na  Na11  1  0.03002838  0.34108335  0.09193522  1
  Na  Na12  1  0.97948693  0.67842209  0.91737950  1
  Na  Na13  1  0.69051834  0.02855114  0.90383235  1
  Na  Na14  1  0.32906697  0.28698129  0.90676565  1
  Na  Na15  1  0.95490508  0.28553491  0.41794200  1
  Na  Na16  1  0.33955902  0.03415718  0.41117972  1
  Na  Na17  1  0.69484563  0.67465172  0.42745821  1
  Na  Na18  1  0.98103049  0.99598102  0.50280724  1
  Na  Na19  1  0.00949316  0.99205822  0.99836523  1
  Na  Na20  1  0.65193624  0.32178272  0.82532697  1
  Na  Na21  1  0.66502324  0.31614165  0.33325563  1
  Na  Na22  1  0.31338131  0.66269346  0.16916079  1
  Na  Na23  1  0.34021915  0.65635334  0.66283772  1
  Mg  Mg0  1  0.00063636  0.01112403  0.34950502  1
  Mg  Mg1  1  0.01046759  0.01310048  0.84527022  1
  Mg  Mg2  1  0.67043640  0.33714864  0.68418539  1
  Mg  Mg3  1  0.67698686  0.33187066  0.18801990  1
  Mg  Mg4  1  0.32104691  0.67464850  0.01672994  1
  Mg  Mg5  1  0.34703307  0.66720495  0.52130496  1
  Ga  Ga0  1  0.97630822  0.01880466  0.64851373  1
  Ga  Ga1  1  0.01319899  0.98890233  0.15983596  1
  Ga  Ga2  1  0.66453861  0.33166491  0.98441006  1
  Ga  Ga3  1  0.67766368  0.31970554  0.49326863  1
  Ga  Ga4  1  0.32422207  0.68396280  0.31376574  1
  Ga  Ga5  1  0.35250067  0.68774301  0.80831905  1
  Si  Si0  1  0.29882619  0.00174048  0.25206024  1
  Si  Si1  1  0.00380657  0.29397872  0.25158164  1
  Si  Si2  1  0.29398341  0.29598797  0.75259557  1
  Si  Si3  1  0.70495670  0.00170506  0.75287005  1
  Si  Si4  1  0.96780051  0.33832217  0.58472739  1
  Si  Si5  1  0.67222189  0.62583682  0.58502046  1
  Si  Si6  1  0.95600570  0.62743839  0.08537797  1
  Si  Si7  1  0.33421202  0.96370587  0.92017175  1
  Si  Si8  1  0.62581320  0.96149224  0.41901515  1
  S  S0  1  0.70724903  0.70769091  0.24929938  1
  S  S1  1  0.00221252  0.70776202  0.75178086  1
  S  S2  1  0.37243740  0.04030664  0.58243469  1
  S  S3  1  0.66594528  0.03815423  0.08177289  1
  S  S4  1  0.37554328  0.33645175  0.08248326  1
  S  S5  1  0.62394106  0.66321071  0.91889612  1
  S  S6  1  0.03809181  0.37156286  0.91851970  1
  S  S7  1  0.33273310  0.37487462  0.41507826  1
  S  S8  1  0.03987962  0.66741215  0.41604853  1
  O  O0  1  0.20639739  0.02628847  0.31045629  1
  O  O1  1  0.81437721  0.78878815  0.30325753  1
  O  O2  1  0.96556767  0.17556845  0.30803526  1
  O  O3  1  0.21905661  0.18406011  0.81178739  1
  O  O4  1  0.98099901  0.78979403  0.80825702  1
  O  O5  1  0.81350673  0.02253905  0.81368443  1
  O  O6  1  0.78337472  0.95544238  0.69245796  1
  O  O7  1  0.16780668  0.20220731  0.69173594  1
  O  O8  1  0.03136059  0.81194735  0.69847207  1
  O  O9  1  0.78408955  0.81428626  0.19438294  1
  O  O10  1  0.03635035  0.20081752  0.18777047  1
  O  O11  1  0.17946889  0.95479991  0.18919695  1
  O  O12  1  0.87908213  0.36673278  0.64356535  1
  O  O13  1  0.47948113  0.12139398  0.63687343  1
  O  O14  1  0.63684594  0.50702678  0.64157832  1
  O  O15  1  0.86463843  0.50947486  0.14136892  1
  O  O16  1  0.63688128  0.11856007  0.13587107  1
  O  O17  1  0.47709980  0.35986066  0.13688793  1
  O  O18  1  0.45390781  0.30585484  0.02665649  1
  O  O19  1  0.83067233  0.53859086  0.02236696  1
  O  O20  1  0.69100617  0.14264861  0.02733450  1
  O  O21  1  0.45030244  0.14680366  0.52769582  1
  O  O22  1  0.70041399  0.53063917  0.52099690  1
  O  O23  1  0.84701980  0.28989892  0.52243601  1
  O  O24  1  0.54320100  0.68386875  0.97433868  1
  O  O25  1  0.14499116  0.45394114  0.97375819  1
  O  O26  1  0.30784287  0.85593227  0.97948388  1
  O  O27  1  0.53576932  0.84491454  0.47538545  1
  O  O28  1  0.31031571  0.45923855  0.46937055  1
  O  O29  1  0.14382777  0.69080671  0.46950697  1
  O  O30  1  0.11606030  0.63606800  0.35918324  1
  O  O31  1  0.50359062  0.87335394  0.35564419  1
  O  O32  1  0.35512957  0.47608872  0.36018439  1
  O  O33  1  0.11505811  0.47486772  0.86517724  1
  O  O34  1  0.37170989  0.87104840  0.85981227  1
  O  O35  1  0.51810636  0.63569394  0.86408639  1
  O  O36  1  0.02430673  0.82393570  0.41147356  1
  O  O37  1  0.81427205  0.98143149  0.41210937  1
  O  O38  1  0.17898257  0.19814383  0.41121089  1
  O  O39  1  0.01372411  0.19472857  0.91399279  1
  O  O40  1  0.16745527  0.98562633  0.91416768  1
  O  O41  1  0.79707605  0.81860657  0.91606564  1
  O  O42  1  0.98576686  0.16294841  0.58597028  1
  O  O43  1  0.20196523  0.02307113  0.58657438  1
  O  O44  1  0.85573713  0.81721345  0.58918615  1
  O  O45  1  0.97121470  0.82503844  0.08991405  1
  O  O46  1  0.82197804  0.02461496  0.08584971  1
  O  O47  1  0.20085695  0.18084478  0.08322073  1
  O  O48  1  0.68612325  0.17093991  0.74682804  1
  O  O49  1  0.48515697  0.32742829  0.74547601  1
  O  O50  1  0.84759689  0.53416165  0.74670389  1
  O  O51  1  0.68380014  0.53286945  0.24098877  1
  O  O52  1  0.84416726  0.32563323  0.24475276  1
  O  O53  1  0.48504549  0.17363229  0.24395862  1
  O  O54  1  0.64075867  0.50459275  0.92002772  1
  O  O55  1  0.86534686  0.35551488  0.92414011  1
  O  O56  1  0.51742186  0.16222650  0.92540539  1
  O  O57  1  0.63828532  0.15797366  0.42323693  1
  O  O58  1  0.48709465  0.35732670  0.41849037  1
  O  O59  1  0.86610569  0.51065938  0.41658584  1
  O  O60  1  0.36219779  0.49451490  0.07726683  1
  O  O61  1  0.14478091  0.64752326  0.07985732  1
  O  O62  1  0.51632683  0.85948913  0.07524546  1
  O  O63  1  0.35041803  0.86590879  0.57437902  1
  O  O64  1  0.51127506  0.65626573  0.57897651  1
  O  O65  1  0.15414919  0.50941073  0.57660912  1
  O  O66  1  0.31623192  0.82589779  0.25279834  1
  O  O67  1  0.53561229  0.69002719  0.25300105  1
  O  O68  1  0.18688838  0.48626340  0.25723356  1
  O  O69  1  0.29882162  0.48672937  0.75992076  1
  O  O70  1  0.15502777  0.68614874  0.75682592  1
  O  O71  1  0.51025884  0.82582722  0.75203859  1
loop_
_geom_bond_atom_site_label_1
_geom_bond_atom_site_label_2
_geom_bond_distance
_geom_bond_site_symmetry_2
Na0 O53 2.484347 1_555
Na0 O52 2.494273 1_555
Na0 O31 2.524453 1_545
Na0 O66 2.541194 1_545
Na0 O67 2.572468 1_545
Na0 O2 2.789195 1_555
Na0 O16 2.922585 1_555
Na1 O68 2.392804 1_555
Na1 O53 2.432543 1_555
Na1 O32 2.548500 1_555
Na1 O51 2.624516 1_555
Na1 O67 2.634902 1_555
Na1 O17 2.817468 1_555
Na1 O0 2.868383 1_555
Na1 O10 2.888065 1_555
Na2 O52 2.360923 1_455
Na2 O66 2.488911 1_555
Na2 O15 2.532529 1_455
Na2 O51 2.593848 1_455
Na2 O68 2.609355 1_555
Na2 O30 2.730759 1_555
Na2 O11 2.864211 1_555
Na2 O1 3.003651 1_455
Na3 O14 2.363545 1_555
Na3 O49 2.366893 1_555
Na3 O71 2.499418 1_555
Na3 O50 2.566199 1_555
Na3 O69 2.669095 1_555
Na3 O6 2.759896 1_555
Na3 O35 2.985838 1_555
Na4 O12 2.428906 1_555
Na4 O48 2.442401 1_555
Na4 O69 2.447611 1_655
Na4 O50 2.576292 1_555
Na4 O70 2.588755 1_655
Na4 O7 2.754519 1_655
Na4 O33 2.926759 1_655
Na5 O48 2.427105 1_555
Na5 O49 2.448886 1_555
Na5 O71 2.558555 1_545
Na5 O70 2.639005 1_545
Na5 O13 2.714419 1_555
Na5 O34 2.801375 1_545
Na5 O3 2.867532 1_555
Na5 O8 2.953674 1_545
Na6 O64 2.487628 1_555
Na6 O65 2.493522 1_555
Na6 O42 2.506737 1_455
Na6 O43 2.555088 1_555
Na6 O7 2.612453 1_555
Na6 O14 2.844652 1_555
Na6 O28 2.911967 1_555
Na7 O44 2.352268 1_455
Na7 O65 2.436598 1_555
Na7 O63 2.615725 1_555
Na7 O43 2.620966 1_565
Na7 O8 2.657212 1_555
Na7 O29 2.812820 1_555
Na7 O12 2.838034 1_455
Na7 O22 2.897506 1_455
Na8 O64 2.364545 1_555
Na8 O42 2.521015 1_565
Na8 O27 2.550447 1_555
Na8 O63 2.591421 1_555
Na8 O44 2.627911 1_555
Na8 O6 2.708977 1_555
Na8 O23 2.918232 1_565
Na8 O13 2.996855 1_565
Na9 O61 2.366093 1_555
Na9 O26 2.459398 1_554
Na9 O45 2.517757 1_455
Na9 O11 2.541997 1_555
Na9 O47 2.544630 1_565
Na9 O62 2.627799 1_555
Na10 O45 2.348335 1_555
Na10 O60 2.497312 1_555
Na10 O62 2.536292 1_555
Na10 O46 2.537276 1_565
Na10 O9 2.644148 1_555
Na10 O24 2.649911 1_554
Na10 O19 2.770650 1_555
Na10 O17 2.957437 1_555
Na11 O61 2.431008 1_555
Na11 O46 2.493936 1_455
Na11 O10 2.537278 1_555
Na11 O47 2.610476 1_555
Na11 O60 2.651344 1_555
Na11 O15 2.816155 1_455
Na11 O25 2.852221 1_554
Na12 O40 2.408589 1_655
Na12 O41 2.552846 1_555
Na12 O55 2.553144 1_555
Na12 O4 2.658408 1_555
Na12 O54 2.673846 1_555
Na12 O19 2.712648 1_556
Na12 O33 2.883145 1_655
Na12 O26 2.904479 1_655
Na13 O5 2.298553 1_555
Na13 O56 2.460011 1_555
Na13 O41 2.552029 1_545
Na13 O55 2.554080 1_555
Na13 O39 2.554337 1_655
Na13 O34 2.678458 1_545
Na13 O20 2.873684 1_556
Na14 O3 2.276792 1_555
Na14 O40 2.353952 1_545
Na14 O54 2.519157 1_555
Na14 O56 2.532943 1_555
Na14 O39 2.573210 1_555
Na14 O18 2.859496 1_556
Na14 O35 2.915273 1_555
Na15 O37 2.357281 1_545
Na15 O23 2.517653 1_555
Na15 O57 2.522659 1_555
Na15 O59 2.537575 1_555
Na15 O38 2.542705 1_655
Na15 O2 2.602840 1_555
Na16 O57 2.382512 1_555
Na16 O58 2.506023 1_555
Na16 O36 2.523644 1_545
Na16 O0 2.528388 1_555
Na16 O38 2.556268 1_555
Na16 O21 2.728668 1_555
Na16 O31 2.805073 1_545
Na17 O37 2.440896 1_555
Na17 O58 2.500204 1_555
Na17 O22 2.510617 1_555
Na17 O36 2.635955 1_655
Na17 O59 2.645249 1_555
Na17 O27 2.771102 1_555
Na18 O42 2.305808 1_565
Na18 O44 2.443037 1_555
Na18 O37 2.487101 1_555
Na18 O36 2.636886 1_655
Na18 O43 2.661854 1_665
Na18 O38 2.772214 1_665
Na19 O40 2.369814 1_555
Na19 O47 2.488433 1_566
Na19 O41 2.494310 1_455
Na19 O45 2.499583 1_456
Na19 O39 2.660538 1_565
Na19 O46 2.683959 1_466
Na20 O48 2.271026 1_555
Na20 O49 2.361321 1_555
Na20 O50 2.590684 1_555
Na20 O54 2.635823 1_555
Na20 O56 2.641690 1_555
Na20 O55 2.841774 1_555
Na21 O53 2.432040 1_555
Na21 O57 2.444374 1_555
Na21 O59 2.512322 1_555
Na21 O52 2.525310 1_555
Na21 O58 2.619750 1_555
Na21 O51 2.837772 1_555
Na22 O66 2.298958 1_555
Na22 O68 2.465651 1_555
Na22 O61 2.470621 1_555
Na22 O60 2.647156 1_555
Na22 O67 2.670775 1_555
Na22 O62 2.809707 1_555
Na23 O65 2.408510 1_555
Na23 O64 2.422861 1_555
Na23 O71 2.446066 1_555
Na23 O69 2.611713 1_555
Na23 O63 2.753501 1_555
Na23 O70 2.765121 1_555
Mg0 O2 1.937211 1_455
Mg0 O0 2.011386 1_555
Mg0 O1 2.078032 1_445
Mg0 O38 2.092435 1_555
Mg0 O37 2.109827 1_445
Mg0 O36 2.316375 1_545
Mg1 O3 1.917986 1_555
Mg1 O5 1.979821 1_455
Mg1 O4 2.018488 1_445
Mg1 O39 2.167281 1_555
Mg1 O40 2.207642 1_545
Mg1 O41 2.470656 1_445
Mg2 O14 1.985266 1_555
Mg2 O12 2.003869 1_555
Mg2 O13 2.074153 1_555
Mg2 O50 2.135178 1_555
Mg2 O49 2.135837 1_555
Mg2 O48 2.145675 1_555
Mg3 O15 1.982342 1_555
Mg3 O52 2.009224 1_555
Mg3 O16 2.055915 1_555
Mg3 O53 2.064056 1_555
Mg3 O51 2.081032 1_555
Mg3 O17 2.282276 1_555
Mg4 O26 1.920322 1_554
Mg4 O25 2.008335 1_554
Mg4 O61 2.055795 1_555
Mg4 O62 2.107242 1_555
Mg4 O24 2.199431 1_554
Mg4 O60 2.324287 1_555
Mg5 O27 1.978308 1_555
Mg5 O64 2.020627 1_555
Mg5 O28 2.023455 1_555
Mg5 O65 2.058430 1_555
Mg5 O63 2.078152 1_555
Mg5 O29 2.294780 1_555
Ga0 O6 1.845167 1_545
Ga0 O7 1.908531 1_655
Ga0 O42 1.915289 1_555
Ga0 O44 1.997042 1_545
Ga0 O43 2.458091 1_655
Ga0 O8 2.469720 1_645
Ga1 O11 1.826332 1_555
Ga1 O10 1.881543 1_565
Ga1 O45 1.982252 1_455
Ga1 O9 2.051778 1_455
Ga1 O47 2.461395 1_565
Ga2 O19 1.864339 1_556
Ga2 O56 1.894267 1_555
Ga2 O18 2.047623 1_556
Ga2 O20 2.105340 1_556
Ga2 O55 2.192410 1_555
Ga2 O54 2.250417 1_555
Ga3 O23 1.827583 1_555
Ga3 O22 1.873428 1_555
Ga3 O57 1.976798 1_555
Ga3 O21 2.036503 1_555
Ga3 O59 2.461546 1_555
Ga4 O31 1.866739 1_555
Ga4 O66 1.929597 1_555
Ga4 O68 1.960758 1_555
Ga4 O30 2.003923 1_555
Ga4 O32 2.315605 1_555
Ga4 O67 2.329953 1_555
Ga5 O71 1.869400 1_555
Ga5 O34 1.891239 1_555
Ga5 O69 1.891429 1_555
Ga5 O70 2.135550 1_555
Ga5 O35 2.199421 1_555
Ga5 O33 2.441697 1_555
O0 Si0 1.608393 1_555
O1 S0 1.457389 1_555
O2 Si1 1.602504 1_655
O3 Si2 1.619247 1_555
O4 S1 1.483185 1_655
O5 Si3 1.623880 1_555
O6 Si3 1.648301 1_565
O7 Si2 1.667368 1_555
O8 S1 1.481514 1_555
O9 S0 1.521331 1_555
O10 Si1 1.709376 1_555
O11 Si0 1.673658 1_565
O12 Si4 1.609156 1_555
O13 S2 1.465575 1_555
O14 Si5 1.609958 1_555
O15 Si6 1.606505 1_555
O16 S3 1.461856 1_555
O17 S4 1.465865 1_555
O18 S4 1.508790 1_555
O19 Si6 1.697337 1_555
O20 S3 1.509695 1_555
O21 S2 1.519023 1_555
O22 Si5 1.706700 1_555
O23 Si4 1.668632 1_555
O24 S5 1.481778 1_555
O25 S6 1.480681 1_555
O26 Si7 1.614843 1_555
O27 Si8 1.605689 1_555
O28 S7 1.459648 1_555
O29 S8 1.461425 1_555
O30 S8 1.518936 1_555
O31 Si8 1.690813 1_555
O32 S7 1.505153 1_555
O33 S6 1.479922 1_555
O34 Si7 1.666307 1_555
O35 S5 1.487644 1_555
O36 S8 1.493832 1_555
O37 Si8 1.648021 1_555
O38 S7 1.495032 1_555
O39 S6 1.488725 1_555
O40 Si7 1.641689 1_555
O41 S5 1.493495 1_555
O42 Si4 1.668836 1_555
O43 S2 1.490179 1_555
O44 Si5 1.687615 1_555
O45 Si6 1.709489 1_555
O46 S3 1.496864 1_555
O47 S4 1.499544 1_555
O48 Si3 1.628628 1_555
O49 Si2 1.632501 1_555
O50 S1 1.482632 1_655
O51 S0 1.477894 1_555
O52 Si1 1.632956 1_655
O53 Si0 1.636987 1_555
O54 S5 1.512410 1_555
O55 S6 1.517726 1_655
O56 Si7 1.720590 1_545
O57 Si8 1.710714 1_545
O58 S7 1.501476 1_555
O59 S8 1.498523 1_655
O60 S4 1.497713 1_555
O61 Si6 1.647791 1_455
O62 S3 1.492523 1_565
O63 S2 1.478932 1_565
O64 Si5 1.636044 1_555
O65 Si4 1.634672 1_455
O66 Si0 1.669413 1_565
O67 S0 1.498581 1_555
O68 Si1 1.690595 1_555
O69 Si2 1.693987 1_555
O70 S1 1.511753 1_555
O71 Si3 1.678640 1_565
