# generated using pymatgen
data_Tl5(Cu7Se5)2
_symmetry_space_group_name_H-M   'P 1'
_cell_length_a   9.41849459
_cell_length_b   9.41849459
_cell_length_c   18.45442460
_cell_angle_alpha   62.60023347
_cell_angle_beta   62.60023347
_cell_angle_gamma   24.08580568
_symmetry_Int_Tables_number   1
_chemical_formula_structural   Tl5(Cu7Se5)2
_chemical_formula_sum   'Tl5 Cu14 Se10'
_cell_volume   589.50358875
_cell_formula_units_Z   1
loop_
 _symmetry_equiv_pos_site_id
 _symmetry_equiv_pos_as_xyz
  1  'x, y, z'
loop_
 _atom_site_type_symbol
 _atom_site_label
 _atom_site_symmetry_multiplicity
 _atom_site_fract_x
 _atom_site_fract_y
 _atom_site_fract_z
 _atom_site_occupancy
  Tl  Tl0  1  0.22273200  0.22273200  0.82137300  1
  Tl  Tl1  1  0.77726800  0.77726800  0.17862700  1
  Tl  Tl2  1  0.88694000  0.88694000  0.59884100  1
  Tl  Tl3  1  0.11306000  0.11306000  0.40115900  1
  Tl  Tl4  1  0.00000000  0.00000000  0.00000000  1
  Cu  Cu0  1  0.02421400  0.02421400  0.78388700  1
  Cu  Cu1  1  0.09005300  0.09005300  0.61959100  1
  Cu  Cu2  1  0.90994700  0.90994700  0.38040900  1
  Cu  Cu3  1  0.63580800  0.63580800  0.68573600  1
  Cu  Cu4  1  0.36419200  0.36419200  0.31426400  1
  Cu  Cu5  1  0.58069800  0.58069800  0.12786800  1
  Cu  Cu6  1  0.41930200  0.41930200  0.87213200  1
  Cu  Cu7  1  0.69572100  0.69572100  0.53045600  1
  Cu  Cu8  1  0.30427900  0.30427900  0.46954400  1
  Cu  Cu9  1  0.80921000  0.80921000  0.95201400  1
  Cu  Cu10  1  0.19079000  0.19079000  0.04798600  1
  Cu  Cu11  1  0.52354200  0.52354200  0.28227300  1
  Cu  Cu12  1  0.47645800  0.47645800  0.71772700  1
  Cu  Cu13  1  0.97578600  0.97578600  0.21611300  1
  Se  Se0  1  0.45548800  0.45548800  0.42949900  1
  Se  Se1  1  0.22730400  0.22730400  0.61698300  1
  Se  Se2  1  0.42974900  0.42974900  0.16792700  1
  Se  Se3  1  0.57025100  0.57025100  0.83207300  1
  Se  Se4  1  0.54451200  0.54451200  0.57050100  1
  Se  Se5  1  0.88453600  0.88453600  0.79367400  1
  Se  Se6  1  0.11546400  0.11546400  0.20632600  1
  Se  Se7  1  0.66314900  0.66314900  0.98109600  1
  Se  Se8  1  0.33685100  0.33685100  0.01890400  1
  Se  Se9  1  0.77269600  0.77269600  0.38301700  1
loop_
_geom_bond_atom_site_label_1
_geom_bond_atom_site_label_2
_geom_bond_distance
_geom_bond_site_symmetry_2
Cu0 Se3 2.466066 1_545
Cu0 Se3 2.466066 1_455
Cu0 Se5 2.493317 1_445
Cu0 Cu6 2.699457 1_545
Cu0 Cu6 2.699457 1_455
Cu1 Se4 2.470130 1_545
Cu1 Se4 2.470130 1_455
Cu1 Se1 2.506208 1_555
Cu2 Se0 2.470130 1_565
Cu2 Se0 2.470130 1_655
Cu2 Se9 2.506208 1_555
Cu3 Se3 2.383737 1_555
Cu3 Se1 2.509978 1_565
Cu3 Se1 2.509978 1_655
Cu4 Se2 2.383737 1_555
Cu4 Se9 2.509978 1_455
Cu4 Se9 2.509978 1_545
Cu5 Se7 2.402452 1_554
Cu5 Se2 2.518910 1_555
Cu5 Se6 2.690912 1_655
Cu5 Se6 2.690912 1_565
Cu6 Se8 2.402452 1_556
Cu6 Se3 2.518910 1_555
Cu6 Se5 2.690912 1_545
Cu6 Se5 2.690912 1_455
Cu6 Cu9 2.708233 1_545
Cu6 Cu9 2.708233 1_455
Cu7 Se9 2.404796 1_555
Cu7 Se4 2.523595 1_555
Cu7 Se1 2.761223 1_565
Cu7 Se1 2.761223 1_655
Cu8 Se1 2.404796 1_555
Cu8 Se0 2.523595 1_555
Cu8 Se9 2.761223 1_545
Cu8 Se9 2.761223 1_455
Cu9 Se7 2.483818 1_555
Cu9 Se8 2.497261 1_656
Cu9 Se8 2.497261 1_566
Cu9 Se5 2.578388 1_555
Cu10 Se8 2.483818 1_555
Cu10 Se7 2.497261 1_454
Cu10 Se7 2.497261 1_544
Cu10 Se6 2.578388 1_555
Cu10 Cu5 2.708233 1_545
Cu10 Cu5 2.708233 1_455
Cu11 Se0 2.397507 1_555
Cu11 Cu5 2.530706 1_555
Cu11 Se6 2.541668 1_565
Cu11 Se6 2.541668 1_655
Cu12 Se4 2.397507 1_555
Cu12 Cu6 2.530706 1_555
Cu12 Se5 2.541668 1_455
Cu12 Se5 2.541668 1_545
Cu13 Se2 2.466066 1_655
Cu13 Se2 2.466066 1_565
Cu13 Se6 2.493317 1_665
Cu13 Cu5 2.699457 1_565
Cu13 Cu5 2.699457 1_655
Se0 Tl3 3.336615 1_655
Se0 Tl3 3.336615 1_565
Se0 Tl2 3.392443 1_455
Se0 Tl2 3.392443 1_545
Se1 Tl2 3.419930 1_545
Se1 Tl2 3.419930 1_455
Se2 Tl1 3.357009 1_545
Se2 Tl1 3.357009 1_455
Se2 Tl4 3.371334 1_565
Se2 Tl4 3.371334 1_655
Se3 Tl0 3.357009 1_655
Se3 Tl0 3.357009 1_565
Se3 Tl4 3.371334 1_656
Se3 Tl4 3.371334 1_566
Se4 Tl2 3.336615 1_545
Se4 Tl2 3.336615 1_455
Se4 Tl3 3.392443 1_655
Se4 Tl3 3.392443 1_565
Se5 Tl0 3.402101 1_565
Se5 Tl0 3.402101 1_655
Se6 Tl1 3.402101 1_455
Se6 Tl1 3.402101 1_545
Se7 Tl0 3.272605 1_565
Se7 Tl0 3.272605 1_655
Se8 Tl1 3.272605 1_545
Se8 Tl1 3.272605 1_455
Se9 Tl3 3.419930 1_565
Se9 Tl3 3.419930 1_655
