# generated using pymatgen
data_MgTe2Mo2WS4
_symmetry_space_group_name_H-M   'P 1'
_cell_length_a   6.59628200
_cell_length_b   6.59594914
_cell_length_c   60.50585405
_cell_angle_alpha   90.00384775
_cell_angle_beta   90.00000189
_cell_angle_gamma   120.00164195
_symmetry_Int_Tables_number   1
_chemical_formula_structural   MgTe2Mo2WS4
_chemical_formula_sum   'Mg8 Te16 Mo16 W8 S32'
_cell_volume   2279.80316555
_cell_formula_units_Z   8
loop_
 _symmetry_equiv_pos_site_id
 _symmetry_equiv_pos_as_xyz
  1  'x, y, z'
loop_
 _atom_site_type_symbol
 _atom_site_label
 _atom_site_symmetry_multiplicity
 _atom_site_fract_x
 _atom_site_fract_y
 _atom_site_fract_z
 _atom_site_occupancy
  Mg  Mg0_0  1  0.38119050  0.22872050  0.41603800  1
  Mg  Mg0_1  1  0.38119050  0.22872050  0.91603800  1
  Mg  Mg0_2  1  0.38119050  0.72872050  0.41603800  1
  Mg  Mg0_3  1  0.38119050  0.72872050  0.91603800  1
  Mg  Mg0_4  1  0.88119050  0.22872050  0.41603800  1
  Mg  Mg0_5  1  0.88119050  0.22872050  0.91603800  1
  Mg  Mg0_6  1  0.88119050  0.72872050  0.41603800  1
  Mg  Mg0_7  1  0.88119050  0.72872050  0.91603800  1
  Te  Te0_0  1  0.33331350  0.16662600  0.02617650  1
  Te  Te0_1  1  0.33331350  0.16662600  0.52617650  1
  Te  Te0_2  1  0.33331350  0.66662600  0.02617650  1
  Te  Te0_3  1  0.33331350  0.66662600  0.52617650  1
  Te  Te0_4  1  0.83331350  0.16662600  0.02617650  1
  Te  Te0_5  1  0.83331350  0.16662600  0.52617650  1
  Te  Te0_6  1  0.83331350  0.66662600  0.02617650  1
  Te  Te0_7  1  0.83331350  0.66662600  0.52617650  1
  Te  Te1_0  1  0.33334450  0.16668900  0.08943650  1
  Te  Te1_1  1  0.33334450  0.16668900  0.58943650  1
  Te  Te1_2  1  0.33334450  0.66668900  0.08943650  1
  Te  Te1_3  1  0.33334450  0.66668900  0.58943650  1
  Te  Te1_4  1  0.83334450  0.16668900  0.08943650  1
  Te  Te1_5  1  0.83334450  0.16668900  0.58943650  1
  Te  Te1_6  1  0.83334450  0.66668900  0.08943650  1
  Te  Te1_7  1  0.83334450  0.66668900  0.58943650  1
  Mo  Mo0_0  1  0.16665700  0.33331400  0.05779150  1
  Mo  Mo0_1  1  0.16665700  0.33331400  0.55779150  1
  Mo  Mo0_2  1  0.16665700  0.83331400  0.05779150  1
  Mo  Mo0_3  1  0.16665700  0.83331400  0.55779150  1
  Mo  Mo0_4  1  0.66665700  0.33331400  0.05779150  1
  Mo  Mo0_5  1  0.66665700  0.33331400  0.55779150  1
  Mo  Mo0_6  1  0.66665700  0.83331400  0.05779150  1
  Mo  Mo0_7  1  0.66665700  0.83331400  0.55779150  1
  Mo  Mo1_0  1  0.33336450  0.16672900  0.17352600  1
  Mo  Mo1_1  1  0.33336450  0.16672900  0.67352600  1
  Mo  Mo1_2  1  0.33336450  0.66672900  0.17352600  1
  Mo  Mo1_3  1  0.33336450  0.66672900  0.67352600  1
  Mo  Mo1_4  1  0.83336450  0.16672900  0.17352600  1
  Mo  Mo1_5  1  0.83336450  0.16672900  0.67352600  1
  Mo  Mo1_6  1  0.83336450  0.66672900  0.17352600  1
  Mo  Mo1_7  1  0.83336450  0.66672900  0.67352600  1
  W  W0_0  1  0.16663700  0.33327400  0.28915750  1
  W  W0_1  1  0.16663700  0.33327400  0.78915750  1
  W  W0_2  1  0.16663700  0.83327400  0.28915750  1
  W  W0_3  1  0.16663700  0.83327400  0.78915750  1
  W  W0_4  1  0.66663700  0.33327400  0.28915750  1
  W  W0_5  1  0.66663700  0.33327400  0.78915750  1
  W  W0_6  1  0.66663700  0.83327400  0.28915750  1
  W  W0_7  1  0.66663700  0.83327400  0.78915750  1
  S  S0_0  1  0.16669400  0.33338850  0.19877950  1
  S  S0_1  1  0.16669400  0.33338850  0.69877950  1
  S  S0_2  1  0.16669400  0.83338850  0.19877950  1
  S  S0_3  1  0.16669400  0.83338850  0.69877950  1
  S  S0_4  1  0.66669400  0.33338850  0.19877950  1
  S  S0_5  1  0.66669400  0.33338850  0.69877950  1
  S  S0_6  1  0.66669400  0.83338850  0.19877950  1
  S  S0_7  1  0.66669400  0.83338850  0.69877950  1
  S  S1_0  1  0.33329700  0.16659300  0.26378650  1
  S  S1_1  1  0.33329700  0.16659300  0.76378650  1
  S  S1_2  1  0.33329700  0.66659300  0.26378650  1
  S  S1_3  1  0.33329700  0.66659300  0.76378650  1
  S  S1_4  1  0.83329700  0.16659300  0.26378650  1
  S  S1_5  1  0.83329700  0.16659300  0.76378650  1
  S  S1_6  1  0.83329700  0.66659300  0.26378650  1
  S  S1_7  1  0.83329700  0.66659300  0.76378650  1
  S  S2_0  1  0.33331500  0.16663000  0.31451900  1
  S  S2_1  1  0.33331500  0.16663000  0.81451900  1
  S  S2_2  1  0.33331500  0.66663000  0.31451900  1
  S  S2_3  1  0.33331500  0.66663000  0.81451900  1
  S  S2_4  1  0.83331500  0.16663000  0.31451900  1
  S  S2_5  1  0.83331500  0.16663000  0.81451900  1
  S  S2_6  1  0.83331500  0.66663000  0.31451900  1
  S  S2_7  1  0.83331500  0.66663000  0.81451900  1
  S  S3_0  1  0.16667700  0.33335400  0.14824650  1
  S  S3_1  1  0.16667700  0.33335400  0.64824650  1
  S  S3_2  1  0.16667700  0.83335400  0.14824650  1
  S  S3_3  1  0.16667700  0.83335400  0.64824650  1
  S  S3_4  1  0.66667700  0.33335400  0.14824650  1
  S  S3_5  1  0.66667700  0.33335400  0.64824650  1
  S  S3_6  1  0.66667700  0.83335400  0.14824650  1
  S  S3_7  1  0.66667700  0.83335400  0.64824650  1
loop_
_geom_bond_atom_site_label_1
_geom_bond_atom_site_label_2
_geom_bond_distance
_geom_bond_site_symmetry_2
Mg0_0 Mg0_2 3.297975 1_545
Mg0_0 Mg0_2 3.297975 1_555
Mg0_0 Mg0_6 3.297976 1_445
Mg0_0 Mg0_6 3.297976 1_555
Mg0_0 Mg0_4 3.298141 1_555
Mg0_0 Mg0_4 3.298141 1_455
Mg0_1 Mg0_3 3.297975 1_545
Mg0_1 Mg0_3 3.297975 1_555
Mg0_1 Mg0_7 3.297976 1_555
Mg0_1 Mg0_7 3.297976 1_445
Mg0_1 Mg0_5 3.298141 1_455
Mg0_1 Mg0_5 3.298141 1_555
Mg0_2 Mg0_4 3.297976 1_565
Mg0_2 Mg0_4 3.297976 1_455
Mg0_2 Mg0_6 3.298141 1_455
Mg0_2 Mg0_6 3.298141 1_555
Mg0_3 Mg0_5 3.297976 1_565
Mg0_3 Mg0_5 3.297976 1_455
Mg0_3 Mg0_7 3.298141 1_555
Mg0_3 Mg0_7 3.298141 1_455
Mg0_4 Mg0_6 3.297975 1_555
Mg0_4 Mg0_6 3.297975 1_545
Mg0_5 Mg0_7 3.297975 1_545
Mg0_5 Mg0_7 3.297975 1_555
Mo0_0 Te0_2 2.699015 1_555
Mo0_0 Te0_4 2.699053 1_455
Mo0_0 Te0_0 2.699057 1_555
Mo0_0 Te1_0 2.700319 1_555
Mo0_0 Te1_4 2.700320 1_455
Mo0_0 Te1_2 2.700347 1_555
Mo0_1 Te0_3 2.699015 1_555
Mo0_1 Te0_5 2.699053 1_455
Mo0_1 Te0_1 2.699057 1_555
Mo0_1 Te1_1 2.700319 1_555
Mo0_1 Te1_5 2.700320 1_455
Mo0_1 Te1_3 2.700347 1_555
Mo0_2 Te0_0 2.699015 1_565
Mo0_2 Te0_6 2.699053 1_455
Mo0_2 Te0_2 2.699057 1_555
Mo0_2 Te1_2 2.700319 1_555
Mo0_2 Te1_6 2.700320 1_455
Mo0_2 Te1_0 2.700347 1_565
Mo0_3 Te0_1 2.699015 1_565
Mo0_3 Te0_7 2.699053 1_455
Mo0_3 Te0_3 2.699057 1_555
Mo0_3 Te1_3 2.700319 1_555
Mo0_3 Te1_7 2.700320 1_455
Mo0_3 Te1_1 2.700347 1_565
Mo0_4 Te0_6 2.699015 1_555
Mo0_4 Te0_0 2.699053 1_555
Mo0_4 Te0_4 2.699057 1_555
Mo0_4 Te1_4 2.700319 1_555
Mo0_4 Te1_0 2.700320 1_555
Mo0_4 Te1_6 2.700347 1_555
Mo0_5 Te0_7 2.699015 1_555
Mo0_5 Te0_1 2.699053 1_555
Mo0_5 Te0_5 2.699057 1_555
Mo0_5 Te1_5 2.700319 1_555
Mo0_5 Te1_1 2.700320 1_555
Mo0_5 Te1_7 2.700347 1_555
Mo0_6 Te0_4 2.699015 1_565
Mo0_6 Te0_2 2.699053 1_555
Mo0_6 Te0_6 2.699057 1_555
Mo0_6 Te1_6 2.700319 1_555
Mo0_6 Te1_2 2.700320 1_555
Mo0_6 Te1_4 2.700347 1_565
Mo0_7 Te0_5 2.699015 1_565
Mo0_7 Te0_3 2.699053 1_555
Mo0_7 Te0_7 2.699057 1_555
Mo0_7 Te1_7 2.700319 1_555
Mo0_7 Te1_3 2.700320 1_555
Mo0_7 Te1_5 2.700347 1_565
Mo1_0 S0_4 2.441356 1_555
Mo1_0 S0_0 2.441358 1_555
Mo1_0 S0_2 2.441469 1_545
Mo1_0 S3_0 2.442357 1_555
Mo1_0 S3_4 2.442358 1_555
Mo1_0 S3_2 2.442422 1_545
Mo1_1 S0_5 2.441356 1_555
Mo1_1 S0_1 2.441358 1_555
Mo1_1 S0_3 2.441469 1_545
Mo1_1 S3_1 2.442357 1_555
Mo1_1 S3_5 2.442358 1_555
Mo1_1 S3_3 2.442422 1_545
Mo1_2 S0_6 2.441356 1_555
Mo1_2 S0_2 2.441358 1_555
Mo1_2 S0_0 2.441469 1_555
Mo1_2 S3_2 2.442357 1_555
Mo1_2 S3_6 2.442358 1_555
Mo1_2 S3_0 2.442422 1_555
Mo1_3 S0_7 2.441356 1_555
Mo1_3 S0_3 2.441358 1_555
Mo1_3 S0_1 2.441469 1_555
Mo1_3 S3_3 2.442357 1_555
Mo1_3 S3_7 2.442358 1_555
Mo1_3 S3_1 2.442422 1_555
Mo1_4 S0_0 2.441356 1_655
Mo1_4 S0_4 2.441358 1_555
Mo1_4 S0_6 2.441469 1_545
Mo1_4 S3_4 2.442357 1_555
Mo1_4 S3_0 2.442358 1_655
Mo1_4 S3_6 2.442422 1_545
Mo1_5 S0_1 2.441356 1_655
Mo1_5 S0_5 2.441358 1_555
Mo1_5 S0_7 2.441469 1_545
Mo1_5 S3_5 2.442357 1_555
Mo1_5 S3_1 2.442358 1_655
Mo1_5 S3_7 2.442422 1_545
Mo1_6 S0_2 2.441356 1_655
Mo1_6 S0_6 2.441358 1_555
Mo1_6 S0_4 2.441469 1_555
Mo1_6 S3_6 2.442357 1_555
Mo1_6 S3_2 2.442358 1_655
Mo1_6 S3_4 2.442422 1_555
Mo1_7 S0_3 2.441356 1_655
Mo1_7 S0_7 2.441358 1_555
Mo1_7 S0_5 2.441469 1_555
Mo1_7 S3_7 2.442357 1_555
Mo1_7 S3_3 2.442358 1_655
Mo1_7 S3_5 2.442422 1_555
S1_0 W0_2 2.445829 1_545
S1_0 W0_4 2.445858 1_555
S1_0 W0_0 2.445862 1_555
S1_1 W0_3 2.445829 1_545
S1_1 W0_5 2.445858 1_555
S1_1 W0_1 2.445862 1_555
S1_2 W0_0 2.445829 1_555
S1_2 W0_6 2.445858 1_555
S1_2 W0_2 2.445862 1_555
S1_3 W0_1 2.445829 1_555
S1_3 W0_7 2.445858 1_555
S1_3 W0_3 2.445862 1_555
S1_4 W0_6 2.445829 1_545
S1_4 W0_0 2.445858 1_655
S1_4 W0_4 2.445862 1_555
S1_5 W0_7 2.445829 1_545
S1_5 W0_1 2.445858 1_655
S1_5 W0_5 2.445862 1_555
S1_6 W0_4 2.445829 1_555
S1_6 W0_2 2.445858 1_655
S1_6 W0_6 2.445862 1_555
S1_7 W0_5 2.445829 1_555
S1_7 W0_3 2.445858 1_655
S1_7 W0_7 2.445862 1_555
S2_0 W0_2 2.445448 1_545
S2_0 W0_0 2.445510 1_555
S2_0 W0_4 2.445510 1_555
S2_1 W0_3 2.445448 1_545
S2_1 W0_1 2.445510 1_555
S2_1 W0_5 2.445510 1_555
S2_2 W0_0 2.445448 1_555
S2_2 W0_2 2.445510 1_555
S2_2 W0_6 2.445510 1_555
S2_3 W0_1 2.445448 1_555
S2_3 W0_3 2.445510 1_555
S2_3 W0_7 2.445510 1_555
S2_4 W0_6 2.445448 1_545
S2_4 W0_4 2.445510 1_555
S2_4 W0_0 2.445510 1_655
S2_5 W0_7 2.445448 1_545
S2_5 W0_5 2.445510 1_555
S2_5 W0_1 2.445510 1_655
S2_6 W0_4 2.445448 1_555
S2_6 W0_6 2.445510 1_555
S2_6 W0_2 2.445510 1_655
S2_7 W0_5 2.445448 1_555
S2_7 W0_7 2.445510 1_555
S2_7 W0_3 2.445510 1_655
