# generated using pymatgen
data_EuPb
_symmetry_space_group_name_H-M   'P 1'
_cell_length_a   3.85692537
_cell_length_b   5.78384076
_cell_length_c   5.78384076
_cell_angle_alpha   90.00000000
_cell_angle_beta   90.00000000
_cell_angle_gamma   90.00000000
_symmetry_Int_Tables_number   1
_chemical_formula_structural   EuPb
_chemical_formula_sum   'Eu2 Pb2'
_cell_volume   129.02500677
_cell_formula_units_Z   2
loop_
 _symmetry_equiv_pos_site_id
 _symmetry_equiv_pos_as_xyz
  1  'x, y, z'
loop_
 _atom_site_type_symbol
 _atom_site_label
 _atom_site_symmetry_multiplicity
 _atom_site_fract_x
 _atom_site_fract_y
 _atom_site_fract_z
 _atom_site_occupancy
  Eu  Eu0  1  0.00000000  -0.00000000  0.00000000  1
  Eu  Eu1  1  0.00000000  0.50000000  0.50000000  1
  Pb  Pb0  1  0.50000000  -0.00000000  0.50000000  1
  Pb  Pb1  1  0.50000000  0.50000000  0.00000000  1
loop_
_geom_bond_atom_site_label_1
_geom_bond_atom_site_label_2
_geom_bond_distance
_geom_bond_site_symmetry_2
Eu0 Pb0 3.475942 1_554
Eu0 Pb0 3.475942 1_555
Eu0 Pb0 3.475942 1_454
Eu0 Pb1 3.475942 1_445
Eu0 Pb1 3.475942 1_555
Eu0 Pb1 3.475942 1_545
Eu0 Pb0 3.475942 1_455
Eu0 Pb1 3.475942 1_455
Eu1 Pb0 3.475942 1_555
Eu1 Pb0 3.475942 1_565
Eu1 Pb0 3.475942 1_465
Eu1 Pb1 3.475942 1_555
Eu1 Pb0 3.475942 1_455
Eu1 Pb1 3.475942 1_456
Eu1 Pb1 3.475942 1_455
Eu1 Pb1 3.475942 1_556
