# generated using pymatgen
data_HfPbS3
_symmetry_space_group_name_H-M   'P 1'
_cell_length_a   3.76009552
_cell_length_b   9.13466260
_cell_length_c   14.04024182
_cell_angle_alpha   90.00000000
_cell_angle_beta   90.00000000
_cell_angle_gamma   90.00000000
_symmetry_Int_Tables_number   1
_chemical_formula_structural   HfPbS3
_chemical_formula_sum   'Hf4 Pb4 S12'
_cell_volume   482.24304886
_cell_formula_units_Z   4
loop_
 _symmetry_equiv_pos_site_id
 _symmetry_equiv_pos_as_xyz
  1  'x, y, z'
loop_
 _atom_site_type_symbol
 _atom_site_label
 _atom_site_symmetry_multiplicity
 _atom_site_fract_x
 _atom_site_fract_y
 _atom_site_fract_z
 _atom_site_occupancy
  Hf  Hf0  1  0.25000000  0.16461852  0.95075908  1
  Hf  Hf1  1  0.75000000  0.83538148  0.04924092  1
  Hf  Hf2  1  0.25000000  0.66461852  0.54924092  1
  Hf  Hf3  1  0.75000000  0.33538148  0.45075908  1
  Pb  Pb0  1  0.25000000  0.52239521  0.17364681  1
  Pb  Pb1  1  0.75000000  0.47760479  0.82635319  1
  Pb  Pb2  1  0.25000000  0.02239521  0.32635319  1
  Pb  Pb3  1  0.75000000  0.97760479  0.67364681  1
  S  S0  1  0.25000000  0.01074005  0.10374297  1
  S  S1  1  0.75000000  0.98925995  0.89625703  1
  S  S2  1  0.25000000  0.51074005  0.39625703  1
  S  S3  1  0.75000000  0.48925995  0.60374297  1
  S  S4  1  0.25000000  0.17212158  0.50884507  1
  S  S5  1  0.75000000  0.82787842  0.49115493  1
  S  S6  1  0.25000000  0.67212158  0.99115493  1
  S  S7  1  0.75000000  0.32787842  0.00884507  1
  S  S8  1  0.75000000  0.23004924  0.28696414  1
  S  S9  1  0.25000000  0.76995076  0.71303586  1
  S  S10  1  0.75000000  0.73004924  0.21303586  1
  S  S11  1  0.25000000  0.26995076  0.78696414  1
loop_
_geom_bond_atom_site_label_1
_geom_bond_atom_site_label_2
_geom_bond_distance
_geom_bond_site_symmetry_2
Hf0 S11 2.492889 1_555
Hf0 S7 2.534509 1_456
Hf0 S7 2.534509 1_556
Hf0 S0 2.566982 1_556
Hf0 S1 2.585738 1_545
Hf0 S1 2.585738 1_445
Hf1 S10 2.492889 1_555
Hf1 S6 2.534509 1_654
Hf1 S6 2.534509 1_554
Hf1 S1 2.566982 1_554
Hf1 S0 2.585738 1_665
Hf1 S0 2.585738 1_565
Hf2 S9 2.492889 1_555
Hf2 S5 2.534509 1_555
Hf2 S5 2.534509 1_455
Hf2 S2 2.566982 1_555
Hf2 S3 2.585738 1_455
Hf2 S3 2.585738 1_555
Hf3 S8 2.492889 1_555
Hf3 S4 2.534509 1_655
Hf3 S4 2.534509 1_555
Hf3 S3 2.566982 1_555
Hf3 S2 2.585738 1_555
Hf3 S2 2.585738 1_655
Pb0 S10 2.727354 1_455
Pb0 S10 2.727354 1_555
Pb0 S6 2.904415 1_554
Pb0 S2 3.127314 1_555
Pb1 S11 2.727354 1_655
Pb1 S11 2.727354 1_555
Pb1 S7 2.904415 1_556
Pb1 S3 3.127314 1_555
Pb2 S8 2.727354 1_555
Pb2 S8 2.727354 1_455
Pb2 S4 2.904415 1_555
Pb2 S0 3.127314 1_555
Pb3 S9 2.727354 1_555
Pb3 S9 2.727354 1_655
Pb3 S5 2.904415 1_555
Pb3 S1 3.127314 1_555
