# generated using pymatgen
data_MgMn2(PO4)2
_symmetry_space_group_name_H-M   'P 1'
_cell_length_a   5.54790260
_cell_length_b   6.39281838
_cell_length_c   5.54838972
_cell_angle_alpha   76.63554675
_cell_angle_beta   62.62273018
_cell_angle_gamma   103.37256051
_symmetry_Int_Tables_number   1
_chemical_formula_structural   MgMn2(PO4)2
_chemical_formula_sum   'Mg1 Mn2 P2 O8'
_cell_volume   156.49586504
_cell_formula_units_Z   1
loop_
 _symmetry_equiv_pos_site_id
 _symmetry_equiv_pos_as_xyz
  1  'x, y, z'
loop_
 _atom_site_type_symbol
 _atom_site_label
 _atom_site_symmetry_multiplicity
 _atom_site_fract_x
 _atom_site_fract_y
 _atom_site_fract_z
 _atom_site_occupancy
  Mg  Mg0  1  0.82212400  0.24980800  0.82271900  1
  Mn  Mn0  1  0.44477100  0.25021400  0.44480400  1
  Mn  Mn1  1  0.17716700  0.74994600  0.17728600  1
  P  P0  1  0.11754600  0.25003300  0.11744800  1
  P  P1  1  0.86751600  0.74998700  0.86741000  1
  O  O0  1  0.75824200  0.58441200  0.18236500  1
  O  O1  1  0.78828500  0.11182700  0.24446600  1
  O  O2  1  0.13376600  0.38986700  0.31357100  1
  O  O3  1  0.18252100  0.91580600  0.75759300  1
  O  O4  1  0.67987500  0.89800900  0.87143400  1
  O  O5  1  0.24427400  0.38826600  0.78831900  1
  O  O6  1  0.87108100  0.60169300  0.68017100  1
  O  O7  1  0.31371400  0.11013600  0.13329500  1
loop_
_geom_bond_atom_site_label_1
_geom_bond_atom_site_label_2
_geom_bond_distance
_geom_bond_site_symmetry_2
Mg0 O4 2.110836 1_545
Mg0 O6 2.111170 1_555
Mg0 O1 2.203217 1_556
Mg0 O5 2.203850 1_655
Mg0 O7 2.318641 1_556
Mg0 O2 2.322490 1_655
Mn0 O3 2.054949 1_545
Mn0 O0 2.055102 1_555
Mn0 O5 2.220524 1_555
Mn0 O1 2.221812 1_555
Mn0 O2 2.423178 1_555
Mn0 O7 2.426508 1_555
Mn1 O7 2.167674 1_565
Mn1 O2 2.167968 1_555
Mn1 O4 2.288587 1_554
Mn1 O6 2.289659 1_455
Mn1 O0 2.304484 1_455
Mn1 O3 2.308249 1_554
O0 P1 1.554159 1_554
O1 P0 1.547825 1_655
O2 P0 1.579196 1_555
O3 P1 1.553797 1_455
O4 P1 1.556826 1_555
O5 P0 1.547834 1_556
O6 P1 1.556746 1_555
O7 P0 1.579205 1_555
