# generated using pymatgen
data_Na12Ca4Nb2Si6(SO12)3
_symmetry_space_group_name_H-M   'P 1'
_cell_length_a   9.46359691
_cell_length_b   9.46550983
_cell_length_c   22.84363687
_cell_angle_alpha   90.31731224
_cell_angle_beta   90.00000000
_cell_angle_gamma   119.99331500
_symmetry_Int_Tables_number   1
_chemical_formula_structural   Na12Ca4Nb2Si6(SO12)3
_chemical_formula_sum   'Na24 Ca8 Nb4 Si12 S6 O72'
_cell_volume   1772.21535898
_cell_formula_units_Z   2
loop_
 _symmetry_equiv_pos_site_id
 _symmetry_equiv_pos_as_xyz
  1  'x, y, z'
loop_
 _atom_site_type_symbol
 _atom_site_label
 _atom_site_symmetry_multiplicity
 _atom_site_fract_x
 _atom_site_fract_y
 _atom_site_fract_z
 _atom_site_occupancy
  Na  Na0  1  0.65043488  0.02335116  0.25724513  1
  Na  Na1  1  0.33934759  0.33291227  0.25373508  1
  Na  Na2  1  0.99978021  0.63871159  0.23739176  1
  Na  Na3  1  0.63893138  0.63871159  0.73739176  1
  Na  Na4  1  0.99356469  0.33291227  0.75373508  1
  Na  Na5  1  0.37291628  0.02335116  0.75724513  1
  Na  Na6  1  0.31215767  0.35190904  0.58689038  1
  Na  Na7  1  0.02873524  0.70649523  0.57346545  1
  Na  Na8  1  0.66406413  0.93972812  0.58069474  1
  Na  Na9  1  0.27566500  0.93972812  0.08069474  1
  Na  Na10  1  0.67776099  0.70649523  0.07346545  1
  Na  Na11  1  0.03975238  0.35190904  0.08689038  1
  Na  Na12  1  0.00046789  0.70452656  0.91655561  1
  Na  Na13  1  0.71268259  0.02198890  0.90680083  1
  Na  Na14  1  0.30369051  0.27900600  0.90780521  1
  Na  Na15  1  0.97531449  0.27900600  0.40780521  1
  Na  Na16  1  0.30930531  0.02198890  0.40680083  1
  Na  Na17  1  0.70405768  0.70452656  0.41655561  1
  Na  Na18  1  0.98748595  0.98855243  0.49017732  1
  Na  Na19  1  0.00106648  0.98855243  0.99017732  1
  Na  Na20  1  0.64700558  0.31404598  0.82354549  1
  Na  Na21  1  0.66704140  0.31404598  0.32354549  1
  Na  Na22  1  0.30011470  0.66165069  0.16803329  1
  Na  Na23  1  0.36153499  0.66165069  0.66803329  1
  Ca  Ca0  1  0.00385301  0.00318655  0.34630521  1
  Ca  Ca1  1  0.99933355  0.00318655  0.84630521  1
  Ca  Ca2  1  0.98814594  0.00381112  0.65413782  1
  Ca  Ca3  1  0.01566518  0.00381112  0.15413782  1
  Ca  Ca4  1  0.66146671  0.33328325  0.68390780  1
  Ca  Ca5  1  0.67181754  0.33328325  0.18390780  1
  Ca  Ca6  1  0.33114464  0.66710444  0.01456029  1
  Ca  Ca7  1  0.33595881  0.66710444  0.51456029  1
  Nb  Nb0  1  0.67981278  0.34536117  0.97294641  1
  Nb  Nb1  1  0.66554939  0.34536117  0.47294641  1
  Nb  Nb2  1  0.32208905  0.66646108  0.32307720  1
  Nb  Nb3  1  0.34437102  0.66646108  0.82307720  1
  Si  Si0  1  0.30885103  0.98981585  0.25246994  1
  Si  Si1  1  0.00785918  0.31489469  0.25205387  1
  Si  Si2  1  0.30703551  0.31489469  0.75205387  1
  Si  Si3  1  0.68096482  0.98981585  0.75246994  1
  Si  Si4  1  0.67008782  0.63390067  0.58355778  1
  Si  Si5  1  0.96381385  0.63390067  0.08355778  1
  Si  Si6  1  0.63534172  0.66426644  0.92241297  1
  Si  Si7  1  0.03642648  0.37153404  0.91976702  1
  Si  Si8  1  0.34003293  0.96880474  0.92172904  1
  Si  Si9  1  0.62877081  0.96880474  0.42172904  1
  Si  Si10  1  0.33510656  0.37153404  0.41976702  1
  Si  Si11  1  0.02892373  0.66426644  0.42241297  1
  S  S0  1  0.68309668  0.69712332  0.25081604  1
  S  S1  1  0.01402664  0.69712332  0.75081604  1
  S  S2  1  0.95475995  0.33229372  0.58054421  1
  S  S3  1  0.37295072  0.04293420  0.58043089  1
  S  S4  1  0.66998448  0.04293420  0.08043089  1
  S  S5  1  0.37753477  0.33229372  0.08054421  1
  O  O0  1  0.22375946  0.01610789  0.30913891  1
  O  O1  1  0.78468550  0.77218977  0.30328007  1
  O  O2  1  0.97268729  0.19774659  0.30753687  1
  O  O3  1  0.22505930  0.19774659  0.80753687  1
  O  O4  1  0.98750427  0.77218977  0.80328007  1
  O  O5  1  0.79234844  0.01610789  0.80913891  1
  O  O6  1  0.74564290  0.94237806  0.69293318  1
  O  O7  1  0.19632589  0.24632123  0.69211462  1
  O  O8  1  0.03352467  0.79628637  0.69781031  1
  O  O9  1  0.76276170  0.79628637  0.19781031  1
  O  O10  1  0.04999534  0.24632123  0.19211462  1
  O  O11  1  0.19673516  0.94237806  0.19293318  1
  O  O12  1  0.87670184  0.34087027  0.63524973  1
  O  O13  1  0.46467479  0.11669891  0.63481743  1
  O  O14  1  0.66089398  0.53519033  0.64140450  1
  O  O15  1  0.87429735  0.53519033  0.14140450  1
  O  O16  1  0.65202511  0.11669891  0.13481743  1
  O  O17  1  0.46416943  0.34087027  0.13524973  1
  O  O18  1  0.47053560  0.32211538  0.02841370  1
  O  O19  1  0.83420611  0.50629548  0.02580910  1
  O  O20  1  0.67644629  0.14413631  0.02831362  1
  O  O21  1  0.46769102  0.14413631  0.52831362  1
  O  O22  1  0.67209037  0.50629548  0.52580910  1
  O  O23  1  0.85158078  0.32211538  0.52841370  1
  O  O24  1  0.56489149  0.69325058  0.98154589  1
  O  O25  1  0.13170243  0.44292284  0.97988118  1
  O  O26  1  0.30974966  0.87001391  0.98127959  1
  O  O27  1  0.56026325  0.87001391  0.48127959  1
  O  O28  1  0.31121941  0.44292284  0.47988118  1
  O  O29  1  0.12835808  0.69325058  0.48154589  1
  O  O30  1  0.13714670  0.63994196  0.36702065  1
  O  O31  1  0.49803568  0.86252784  0.36591516  1
  O  O32  1  0.36605101  0.50215394  0.36420411  1
  O  O33  1  0.13610193  0.50215394  0.86420411  1
  O  O34  1  0.36449116  0.86252784  0.86591516  1
  O  O35  1  0.50279426  0.63994196  0.86702065  1
  O  O36  1  0.98386793  0.80295877  0.41021938  1
  O  O37  1  0.80930914  0.99798377  0.41047780  1
  O  O38  1  0.19038421  0.18713441  0.41103051  1
  O  O39  1  0.99675020  0.18713441  0.91103051  1
  O  O40  1  0.18867463  0.99798377  0.91047780  1
  O  O41  1  0.81909085  0.80295877  0.91021938  1
  O  O42  1  0.96920605  0.18227405  0.57880872  1
  O  O43  1  0.21217529  0.03704731  0.58058517  1
  O  O44  1  0.84094911  0.80621307  0.57395793  1
  O  O45  1  0.96526396  0.80621307  0.07395793  1
  O  O46  1  0.82487202  0.03704731  0.08058517  1
  O  O47  1  0.21306800  0.18227405  0.07880872  1
  O  O48  1  0.65544301  0.14810402  0.74844149  1
  O  O49  1  0.49662318  0.35638809  0.75004017  1
  O  O50  1  0.87348941  0.52741383  0.74555980  1
  O  O51  1  0.65392542  0.52741383  0.24555980  1
  O  O52  1  0.85976591  0.35638809  0.25004017  1
  O  O53  1  0.49266201  0.14810402  0.24844149  1
  O  O54  1  0.62814600  0.48000159  0.92383146  1
  O  O55  1  0.85053870  0.36564427  0.92131131  1
  O  O56  1  0.51752180  0.14961683  0.92476007  1
  O  O57  1  0.63209603  0.14961683  0.42476007  1
  O  O58  1  0.51510656  0.36564427  0.42131131  1
  O  O59  1  0.85185659  0.48000159  0.42383146  1
  O  O60  1  0.36270367  0.48097816  0.07846236  1
  O  O61  1  0.14428178  0.65053531  0.08309749  1
  O  O62  1  0.52801488  0.87534761  0.07745531  1
  O  O63  1  0.34733172  0.87534761  0.57745531  1
  O  O64  1  0.50625253  0.65053531  0.58309749  1
  O  O65  1  0.11827349  0.48097816  0.57846236  1
  O  O66  1  0.32892482  0.82132668  0.26334971  1
  O  O67  1  0.52097594  0.68839349  0.25653712  1
  O  O68  1  0.18406391  0.49783779  0.26434881  1
  O  O69  1  0.31377288  0.49783779  0.76434881  1
  O  O70  1  0.16741654  0.68839349  0.75653712  1
  O  O71  1  0.49240086  0.82132668  0.76334971  1
loop_
_geom_bond_atom_site_label_1
_geom_bond_atom_site_label_2
_geom_bond_distance
_geom_bond_site_symmetry_2
Na0 O53 2.330149 1_555
Na0 O66 2.668270 1_545
Na0 O52 2.766052 1_555
Na0 O67 2.769375 1_545
Na0 O2 2.879421 1_555
Na0 O31 2.899414 1_545
Na0 O16 2.935391 1_555
Na1 O51 2.609816 1_555
Na1 O68 2.635306 1_555
Na1 O53 2.777595 1_555
Na1 O10 2.809780 1_555
Na1 O67 2.914734 1_555
Na1 O32 2.923822 1_555
Na1 O0 2.924575 1_555
Na1 O17 2.939427 1_555
Na2 O52 2.334290 1_555
Na2 O15 2.447673 1_555
Na2 O11 2.728258 1_655
Na2 O68 2.744612 1_655
Na2 O66 2.765419 1_655
Na2 O51 2.900371 1_555
Na3 O49 2.334290 1_555
Na3 O14 2.447676 1_555
Na3 O6 2.728258 1_555
Na3 O69 2.744620 1_555
Na3 O71 2.765427 1_555
Na3 O50 2.900380 1_555
Na4 O50 2.609809 1_555
Na4 O69 2.635298 1_655
Na4 O48 2.777588 1_555
Na4 O7 2.809780 1_655
Na4 O70 2.914734 1_655
Na4 O33 2.923820 1_655
Na4 O5 2.924575 1_555
Na4 O12 2.939424 1_555
Na5 O48 2.330157 1_555
Na5 O71 2.668262 1_545
Na5 O49 2.766051 1_555
Na5 O70 2.769376 1_545
Na5 O3 2.879421 1_555
Na5 O34 2.899411 1_545
Na5 O13 2.935392 1_555
Na6 O64 2.486582 1_555
Na6 O28 2.597826 1_555
Na6 O7 2.628604 1_555
Na6 O43 2.640876 1_555
Na6 O65 2.672089 1_555
Na6 O42 2.816446 1_455
Na7 O29 2.329998 1_555
Na7 O44 2.392944 1_455
Na7 O63 2.614169 1_555
Na7 O65 2.664362 1_555
Na7 O43 2.719118 1_565
Na7 O8 2.954241 1_555
Na8 O64 2.375062 1_555
Na8 O27 2.427588 1_555
Na8 O44 2.556555 1_555
Na8 O42 2.642800 1_565
Na8 O6 2.674012 1_555
Na8 O63 2.744934 1_555
Na9 O61 2.375061 1_555
Na9 O26 2.427583 1_554
Na9 O45 2.556563 1_455
Na9 O47 2.642807 1_565
Na9 O11 2.674015 1_555
Na9 O62 2.744916 1_555
Na10 O24 2.330006 1_554
Na10 O45 2.392935 1_555
Na10 O62 2.614185 1_555
Na10 O60 2.664376 1_555
Na10 O46 2.719118 1_565
Na10 O9 2.954240 1_555
Na11 O61 2.486586 1_555
Na11 O25 2.597823 1_554
Na11 O10 2.628602 1_555
Na11 O46 2.640878 1_455
Na11 O60 2.672072 1_555
Na11 O47 2.816438 1_555
Na12 O41 2.331474 1_455
Na12 O40 2.442379 1_555
Na12 O4 2.686628 1_455
Na12 O55 2.787072 1_455
Na13 O39 2.340238 1_555
Na13 O5 2.364157 1_555
Na13 O56 2.695201 1_555
Na13 O41 2.721686 1_545
Na14 O40 2.317591 1_545
Na14 O3 2.408308 1_555
Na14 O39 2.583503 1_455
Na14 O54 2.708031 1_555
Na14 O56 2.868473 1_555
Na15 O37 2.317590 1_545
Na15 O2 2.408310 1_555
Na15 O38 2.583512 1_655
Na15 O59 2.708016 1_555
Na15 O57 2.868455 1_555
Na16 O38 2.340230 1_555
Na16 O0 2.364154 1_555
Na16 O57 2.695219 1_555
Na16 O36 2.721679 1_445
Na17 O36 2.331483 1_555
Na17 O37 2.442377 1_555
Na17 O1 2.686629 1_555
Na17 O58 2.787071 1_555
Na18 O44 2.491668 1_555
Na18 O37 2.513603 1_555
Na18 O36 2.515519 1_555
Na18 O38 2.630235 1_665
Na18 O42 2.787037 1_565
Na18 O43 2.830374 1_665
Na19 O45 2.491668 1_456
Na19 O40 2.513603 1_555
Na19 O41 2.515519 1_455
Na19 O39 2.630235 1_465
Na19 O47 2.787037 1_566
Na19 O46 2.830374 1_466
Na20 O48 2.347882 1_555
Na20 O49 2.362882 1_555
Na20 O56 2.720820 1_555
Na20 O50 2.749269 1_555
Na20 O55 2.825549 1_555
Na20 O54 2.826322 1_555
Na21 O53 2.347882 1_555
Na21 O52 2.362882 1_555
Na21 O57 2.720820 1_555
Na21 O51 2.749269 1_555
Na21 O58 2.825549 1_555
Na21 O59 2.826322 1_555
Na22 O61 2.406881 1_555
Na22 O66 2.578995 1_555
Na22 O68 2.605094 1_555
Na22 O67 2.825879 1_555
Na22 O60 2.904497 1_555
Na22 O62 2.951114 1_555
Na23 O64 2.406881 1_555
Na23 O71 2.578995 1_555
Na23 O69 2.605094 1_555
Na23 O70 2.825879 1_555
Na23 O65 2.904497 1_555
Na23 O63 2.951114 1_555
Ca0 O0 2.193958 1_555
Ca0 O2 2.196347 1_455
Ca0 O38 2.287449 1_555
Ca0 O36 2.330609 1_445
Ca0 O37 2.334767 1_445
Ca0 O1 2.343244 1_445
Ca1 O5 2.193958 1_555
Ca1 O3 2.196347 1_655
Ca1 O39 2.287449 1_555
Ca1 O41 2.330609 1_545
Ca1 O40 2.334766 1_645
Ca1 O4 2.343244 1_545
Ca2 O6 2.249847 1_545
Ca2 O7 2.315106 1_655
Ca2 O8 2.429691 1_645
Ca2 O44 2.480051 1_545
Ca2 O42 2.486303 1_555
Ca2 O43 2.599232 1_655
Ca3 O11 2.249847 1_545
Ca3 O10 2.315106 1_555
Ca3 O9 2.429691 1_445
Ca3 O45 2.480051 1_445
Ca3 O47 2.486303 1_555
Ca3 O46 2.599232 1_455
Ca4 O14 2.150849 1_555
Ca4 O13 2.255234 1_555
Ca4 O49 2.258570 1_555
Ca4 O48 2.275423 1_555
Ca4 O12 2.290030 1_555
Ca4 O50 2.381412 1_555
Ca5 O15 2.150849 1_555
Ca5 O16 2.255234 1_555
Ca5 O52 2.258570 1_555
Ca5 O53 2.275423 1_555
Ca5 O17 2.290030 1_555
Ca5 O51 2.381412 1_555
Ca6 O25 2.160999 1_554
Ca6 O26 2.170902 1_554
Ca6 O24 2.231157 1_554
Ca6 O61 2.308348 1_555
Ca6 O62 2.391173 1_555
Ca6 O60 2.424564 1_555
Ca7 O28 2.160999 1_555
Ca7 O27 2.170902 1_555
Ca7 O29 2.231157 1_555
Ca7 O64 2.308348 1_555
Ca7 O63 2.391173 1_555
Ca7 O65 2.424564 1_555
Nb0 O19 1.915187 1_556
Nb0 O55 1.931570 1_555
Nb0 O54 1.939312 1_555
Nb0 O56 2.033659 1_555
Nb0 O18 2.267979 1_556
Nb0 O20 2.279163 1_556
Nb1 O22 1.915187 1_555
Nb1 O58 1.931570 1_555
Nb1 O59 1.939312 1_555
Nb1 O57 2.033659 1_555
Nb1 O23 2.267979 1_555
Nb1 O21 2.279163 1_555
Nb2 O30 1.922887 1_555
Nb2 O66 1.985423 1_555
Nb2 O68 1.986305 1_555
Nb2 O31 2.016112 1_555
Nb2 O32 2.034116 1_555
Nb2 O67 2.347127 1_555
Nb3 O35 1.922887 1_555
Nb3 O71 1.985423 1_555
Nb3 O69 1.986305 1_555
Nb3 O34 2.016112 1_555
Nb3 O33 2.034116 1_555
Nb3 O70 2.347127 1_555
O0 Si0 1.607169 1_545
O1 S0 1.474135 1_555
O2 Si1 1.610377 1_655
O3 Si2 1.610377 1_555
O4 S1 1.474135 1_655
O5 Si3 1.607169 1_545
O6 Si3 1.641339 1_555
O7 Si2 1.644397 1_555
O8 S1 1.490181 1_555
O9 S0 1.490181 1_555
O10 Si1 1.644397 1_555
O11 Si0 1.641339 1_555
O12 S2 1.474042 1_555
O13 S3 1.472739 1_555
O14 Si4 1.599732 1_555
O15 Si5 1.599732 1_555
O16 S4 1.472739 1_555
O17 S5 1.474042 1_555
O18 S5 1.511796 1_555
O19 Si5 1.790183 1_555
O20 S4 1.514212 1_555
O21 S3 1.514212 1_555
O22 Si4 1.790183 1_555
O23 S2 1.511796 1_555
O24 Si6 1.588469 1_555
O25 Si7 1.592454 1_555
O26 Si8 1.597894 1_555
O27 Si9 1.597894 1_555
O28 Si10 1.592454 1_555
O29 Si11 1.588469 1_555
O30 Si11 1.713368 1_555
O31 Si9 1.705795 1_555
O32 Si10 1.697294 1_555
O33 Si7 1.697294 1_555
O34 Si8 1.705795 1_555
O35 Si6 1.713368 1_555
O36 Si11 1.595783 1_655
O37 Si9 1.609487 1_555
O38 Si10 1.602576 1_555
O39 Si7 1.602579 1_655
O40 Si8 1.609478 1_555
O41 Si6 1.595789 1_555
O42 S2 1.493375 1_555
O43 S3 1.494443 1_555
O44 Si4 1.640149 1_555
O45 Si5 1.640154 1_555
O46 S4 1.494433 1_555
O47 S5 1.493380 1_555
O48 Si3 1.635534 1_545
O49 Si2 1.634358 1_555
O50 S1 1.491839 1_655
O51 S0 1.491842 1_555
O52 Si1 1.634349 1_655
O53 Si0 1.635540 1_545
O54 Si6 1.711625 1_555
O55 Si7 1.732336 1_655
O56 Si8 1.697002 1_545
O57 Si9 1.696993 1_545
O58 Si10 1.732355 1_555
O59 Si11 1.711616 1_655
O60 S5 1.483542 1_555
O61 Si5 1.634901 1_455
O62 S4 1.481228 1_565
O63 S3 1.481221 1_565
O64 Si4 1.634920 1_555
O65 S2 1.483531 1_455
O66 Si0 1.717166 1_555
O67 S0 1.500395 1_555
O68 Si1 1.722141 1_555
O69 Si2 1.722145 1_555
O70 S1 1.500385 1_555
O71 Si3 1.717172 1_555
