# generated using pymatgen
data_Sn2P3O10
_symmetry_space_group_name_H-M   'P 1'
_cell_length_a   9.46127900
_cell_length_b   5.16487600
_cell_length_c   9.41183876
_cell_angle_alpha   77.72685052
_cell_angle_beta   90.00000000
_cell_angle_gamma   90.00000000
_symmetry_Int_Tables_number   1
_chemical_formula_structural   Sn2P3O10
_chemical_formula_sum   'Sn4 P6 O20'
_cell_volume   449.41066465
_cell_formula_units_Z   2
loop_
 _symmetry_equiv_pos_site_id
 _symmetry_equiv_pos_as_xyz
  1  'x, y, z'
loop_
 _atom_site_type_symbol
 _atom_site_label
 _atom_site_symmetry_multiplicity
 _atom_site_fract_x
 _atom_site_fract_y
 _atom_site_fract_z
 _atom_site_occupancy
  Sn  Sn0  1  0.95687300  0.95179600  0.34068200  1
  Sn  Sn1  1  0.54312700  0.95179600  0.34068200  1
  Sn  Sn2  1  0.45687300  0.04820400  0.65931800  1
  Sn  Sn3  1  0.04312700  0.04820400  0.65931800  1
  P  P0  1  0.75000000  0.73667700  0.85267800  1
  P  P1  1  0.25000000  0.51278700  0.40940900  1
  P  P2  1  0.25000000  0.44852500  0.82082400  1
  P  P3  1  0.75000000  0.55147500  0.17917600  1
  P  P4  1  0.75000000  0.48721300  0.59059100  1
  P  P5  1  0.25000000  0.26332300  0.14732200  1
  O  O0  1  0.88615300  0.89443500  0.83115800  1
  O  O1  1  0.61384700  0.89443500  0.83115800  1
  O  O2  1  0.25000000  0.74636500  0.74647200  1
  O  O3  1  0.38557500  0.65667500  0.43028100  1
  O  O4  1  0.11442500  0.65667500  0.43028100  1
  O  O5  1  0.75000000  0.76719900  0.48965400  1
  O  O6  1  0.88624900  0.69388900  0.20700500  1
  O  O7  1  0.61375100  0.69388900  0.20700500  1
  O  O8  1  0.75000000  0.54258800  0.00861900  1
  O  O9  1  0.75000000  0.51481400  0.75875400  1
  O  O10  1  0.25000000  0.48518600  0.24124600  1
  O  O11  1  0.25000000  0.45741200  0.99138100  1
  O  O12  1  0.38624900  0.30611100  0.79299500  1
  O  O13  1  0.11375100  0.30611100  0.79299500  1
  O  O14  1  0.25000000  0.23280100  0.51034600  1
  O  O15  1  0.88557500  0.34332500  0.56971900  1
  O  O16  1  0.61442500  0.34332500  0.56971900  1
  O  O17  1  0.75000000  0.25363500  0.25352800  1
  O  O18  1  0.38615300  0.10556500  0.16884200  1
  O  O19  1  0.11384700  0.10556500  0.16884200  1
loop_
_geom_bond_atom_site_label_1
_geom_bond_atom_site_label_2
_geom_bond_distance
_geom_bond_site_symmetry_2
O0 P0 1.514653 1_555
O0 Sn3 2.214986 1_665
O1 P0 1.514653 1_555
O1 Sn2 2.214986 1_565
O2 P2 1.548686 1_555
O2 Sn2 2.527945 1_565
O2 Sn3 2.527945 1_565
O3 P1 1.516015 1_555
O3 Sn1 2.170266 1_555
O4 P1 1.516015 1_555
O4 Sn0 2.170266 1_455
O5 P4 1.552298 1_555
O5 Sn1 2.477403 1_555
O5 Sn0 2.477403 1_555
O6 P3 1.534046 1_555
O6 Sn0 2.125159 1_555
O7 P3 1.534046 1_555
O7 Sn1 2.125159 1_555
O8 P0 1.591700 1_554
O8 P3 1.615635 1_555
O9 P0 1.589083 1_555
O9 P4 1.619030 1_555
O10 P5 1.589083 1_555
O10 P1 1.619030 1_555
O11 P5 1.591700 1_556
O11 P2 1.615635 1_555
O12 P2 1.534046 1_555
O12 Sn2 2.125159 1_555
O13 P2 1.534046 1_555
O13 Sn3 2.125159 1_555
O14 P1 1.552298 1_555
O14 Sn2 2.477403 1_555
O14 Sn3 2.477403 1_555
O15 P4 1.516015 1_555
O15 Sn3 2.170266 1_655
O16 P4 1.516015 1_555
O16 Sn2 2.170266 1_555
O17 P3 1.548686 1_555
O17 Sn1 2.527945 1_545
O17 Sn0 2.527945 1_545
O18 P5 1.514653 1_555
O18 Sn1 2.214986 1_545
O19 P5 1.514653 1_555
O19 Sn0 2.214986 1_445
