# generated using pymatgen
data_NaZnGeP(SO6)2
_symmetry_space_group_name_H-M   'P 1'
_cell_length_a   8.53487270
_cell_length_b   8.55201557
_cell_length_c   22.07845054
_cell_angle_alpha   89.50606955
_cell_angle_beta   90.00000000
_cell_angle_gamma   119.93371241
_symmetry_Int_Tables_number   1
_chemical_formula_structural   NaZnGeP(SO6)2
_chemical_formula_sum   'Na6 Zn6 Ge6 P6 S12 O72'
_cell_volume   1396.47436695
_cell_formula_units_Z   6
loop_
 _symmetry_equiv_pos_site_id
 _symmetry_equiv_pos_as_xyz
  1  'x, y, z'
loop_
 _atom_site_type_symbol
 _atom_site_label
 _atom_site_symmetry_multiplicity
 _atom_site_fract_x
 _atom_site_fract_y
 _atom_site_fract_z
 _atom_site_occupancy
  Na  Na0  1  0.98895508  0.99095489  0.50315980  1
  Na  Na1  1  0.00199981  0.99095489  0.00315980  1
  Na  Na2  1  0.65989038  0.32199236  0.83669370  1
  Na  Na3  1  0.66210298  0.32199236  0.33669370  1
  Na  Na4  1  0.32823171  0.67313311  0.17018379  1
  Na  Na5  1  0.34490040  0.67313311  0.67018379  1
  Zn  Zn0  1  0.98774614  0.99047983  0.64683974  1
  Zn  Zn1  1  0.00273369  0.99047983  0.14683974  1
  Zn  Zn2  1  0.66387230  0.33097251  0.98084806  1
  Zn  Zn3  1  0.66710122  0.33097251  0.48084806  1
  Zn  Zn4  1  0.33949144  0.68177891  0.31439549  1
  Zn  Zn5  1  0.34228646  0.68177891  0.81439549  1
  Ge  Ge0  1  0.00275680  0.00125781  0.35069141  1
  Ge  Ge1  1  0.99850101  0.00125781  0.85069141  1
  Ge  Ge2  1  0.66626768  0.33189166  0.68439427  1
  Ge  Ge3  1  0.66562497  0.33189166  0.18439427  1
  Ge  Ge4  1  0.31756600  0.67171891  0.01762959  1
  Ge  Ge5  1  0.35415190  0.67171891  0.51762959  1
  P  P0  1  0.29477708  0.00713336  0.24818258  1
  P  P1  1  0.71235628  0.00713336  0.74818258  1
  P  P2  1  0.66401878  0.61792140  0.58147114  1
  P  P3  1  0.95390362  0.61792140  0.08147114  1
  P  P4  1  0.32745940  0.96145789  0.91445841  1
  P  P5  1  0.63399748  0.96145789  0.41445841  1
  S  S0  1  0.71017655  0.70411510  0.24899625  1
  S  S1  1  0.99550326  0.28861832  0.24821568  1
  S  S2  1  0.29311506  0.28861832  0.74821568  1
  S  S3  1  0.99393855  0.70411510  0.74899625  1
  S  S4  1  0.96665356  0.34194606  0.58189256  1
  S  S5  1  0.37535714  0.03680340  0.58261741  1
  S  S6  1  0.66144727  0.03680340  0.08261741  1
  S  S7  1  0.37529350  0.34194606  0.08189256  1
  S  S8  1  0.62506531  0.67204652  0.91639426  1
  S  S9  1  0.04578727  0.37306468  0.91487706  1
  S  S10  1  0.32727642  0.37306468  0.41487706  1
  S  S11  1  0.04698022  0.67204652  0.41639426  1
  O  O0  1  0.21079914  0.04464739  0.30813446  1
  O  O1  1  0.82459496  0.78394328  0.30571220  1
  O  O2  1  0.95739822  0.17269874  0.30574612  1
  O  O3  1  0.21530053  0.17269874  0.80574612  1
  O  O4  1  0.95934832  0.78394328  0.80571220  1
  O  O5  1  0.83384825  0.04464739  0.80813446  1
  O  O6  1  0.79621878  0.98320660  0.69276309  1
  O  O7  1  0.18963226  0.20698797  0.69455912  1
  O  O8  1  0.02752709  0.81357443  0.69541248  1
  O  O9  1  0.78604734  0.81357443  0.19541248  1
  O  O10  1  0.01735571  0.20698797  0.19455912  1
  O  O11  1  0.18698781  0.98320660  0.19276309  1
  O  O12  1  0.88508621  0.37462916  0.63889314  1
  O  O13  1  0.49272466  0.11433040  0.63902834  1
  O  O14  1  0.62552856  0.49627623  0.64166703  1
  O  O15  1  0.87074867  0.49627623  0.14166703  1
  O  O16  1  0.62160674  0.11433040  0.13902834  1
  O  O17  1  0.48954395  0.37462916  0.13889314  1
  O  O18  1  0.45415134  0.31087154  0.02854218  1
  O  O19  1  0.84682430  0.53272621  0.02568613  1
  O  O20  1  0.68724323  0.14145916  0.02802417  1
  O  O21  1  0.45421693  0.14145916  0.52802417  1
  O  O22  1  0.68590291  0.53272621  0.52568613  1
  O  O23  1  0.85672121  0.31087154  0.52854218  1
  O  O24  1  0.54246338  0.70502946  0.97278984  1
  O  O25  1  0.15999298  0.45087554  0.97219176  1
  O  O26  1  0.28522953  0.83791164  0.97434921  1
  O  O27  1  0.55268111  0.83791164  0.47434921  1
  O  O28  1  0.29088156  0.45087554  0.47219176  1
  O  O29  1  0.16256507  0.70502946  0.47278984  1
  O  O30  1  0.12402666  0.64311424  0.36186249  1
  O  O31  1  0.52163731  0.87925365  0.35944702  1
  O  O32  1  0.34831371  0.47870845  0.36090080  1
  O  O33  1  0.13039374  0.47870845  0.86090080  1
  O  O34  1  0.35761533  0.87925365  0.85944702  1
  O  O35  1  0.51908658  0.64311424  0.86186249  1
  O  O36  1  0.03672157  0.84502359  0.41147474  1
  O  O37  1  0.82577540  0.97212772  0.40795063  1
  O  O38  1  0.15709717  0.18885969  0.41193253  1
  O  O39  1  0.03176252  0.18885969  0.91193253  1
  O  O40  1  0.14635231  0.97212772  0.90795063  1
  O  O41  1  0.80830202  0.84502359  0.91147474  1
  O  O42  1  0.99742403  0.19034446  0.58950911  1
  O  O43  1  0.19707514  0.01638729  0.59132815  1
  O  O44  1  0.82439934  0.80574643  0.58812229  1
  O  O45  1  0.98134709  0.80574643  0.08812229  1
  O  O46  1  0.81931215  0.01638729  0.09132815  1
  O  O47  1  0.19292043  0.19034446  0.08950911  1
  O  O48  1  0.69716037  0.18667122  0.74248579  1
  O  O49  1  0.47861515  0.30325280  0.74492074  1
  O  O50  1  0.82031136  0.52306569  0.74451897  1
  O  O51  1  0.70275532  0.52306569  0.24451897  1
  O  O52  1  0.82463865  0.30325280  0.24492074  1
  O  O53  1  0.48951185  0.18667122  0.24248579  1
  O  O54  1  0.65370777  0.51926326  0.92341611  1
  O  O55  1  0.86588640  0.35047654  0.92164460  1
  O  O56  1  0.48772613  0.14821760  0.92386869  1
  O  O57  1  0.66049247  0.14821760  0.42386869  1
  O  O58  1  0.48459114  0.35047654  0.42164460  1
  O  O59  1  0.86555649  0.51926326  0.42341611  1
  O  O60  1  0.36911996  0.51625753  0.07645543  1
  O  O61  1  0.14823821  0.63087677  0.07777425  1
  O  O62  1  0.49218683  0.85158245  0.07808707  1
  O  O63  1  0.35939462  0.85158245  0.57808707  1
  O  O64  1  0.48263756  0.63087677  0.57777425  1
  O  O65  1  0.14713657  0.51625753  0.57645543  1
  O  O66  1  0.32041566  0.84479993  0.25542860  1
  O  O67  1  0.52622765  0.67176418  0.25683492  1
  O  O68  1  0.15293679  0.46775206  0.25659658  1
  O  O69  1  0.31481427  0.46775206  0.75659658  1
  O  O70  1  0.14553552  0.67176418  0.75683492  1
  O  O71  1  0.52438327  0.84479993  0.75542860  1
loop_
_geom_bond_atom_site_label_1
_geom_bond_atom_site_label_2
_geom_bond_distance
_geom_bond_site_symmetry_2
Na0 O44 2.393480 1_555
Na0 O37 2.483210 1_555
Na0 O36 2.524420 1_655
Na0 O42 2.545683 1_565
Na0 O38 2.549122 1_665
Na0 O43 2.571680 1_665
Na1 O45 2.393480 1_455
Na1 O40 2.483210 1_554
Na1 O41 2.524420 1_454
Na1 O47 2.545683 1_565
Na1 O39 2.549122 1_564
Na1 O46 2.571680 1_465
Na2 O56 2.417329 1_555
Na2 O48 2.485074 1_555
Na2 O55 2.499740 1_555
Na2 O49 2.506600 1_555
Na2 O50 2.561856 1_555
Na2 O54 2.580614 1_555
Na3 O57 2.417329 1_555
Na3 O53 2.485074 1_555
Na3 O58 2.499740 1_555
Na3 O52 2.506600 1_555
Na3 O51 2.561856 1_555
Na3 O59 2.580614 1_555
Na4 O66 2.418127 1_555
Na4 O61 2.472225 1_555
Na4 O62 2.497379 1_555
Na4 O68 2.506591 1_555
Na4 O67 2.556403 1_555
Na4 O60 2.592126 1_555
Na5 O71 2.418127 1_555
Na5 O64 2.472225 1_555
Na5 O63 2.497379 1_555
Na5 O69 2.506591 1_555
Na5 O70 2.556403 1_555
Na5 O65 2.592126 1_555
Ge0 O0 1.873437 1_555
Ge0 O37 1.887041 1_445
Ge0 O2 1.955911 1_455
Ge0 O1 1.990935 1_445
Ge0 O36 2.006450 1_545
Ge0 O38 2.016349 1_555
Ge1 O5 1.873437 1_555
Ge1 O40 1.887041 1_645
Ge1 O3 1.955911 1_655
Ge1 O4 1.990935 1_545
Ge1 O41 2.006450 1_545
Ge1 O39 2.016349 1_655
Ge2 O14 1.857983 1_555
Ge2 O48 1.885796 1_555
Ge2 O13 1.985114 1_555
Ge2 O12 1.985732 1_555
Ge2 O49 2.003432 1_555
Ge2 O50 2.013926 1_555
Ge3 O15 1.857983 1_555
Ge3 O53 1.885795 1_555
Ge3 O16 1.985114 1_555
Ge3 O17 1.985732 1_555
Ge3 O52 2.003432 1_555
Ge3 O51 2.013926 1_555
Ge4 O26 1.837762 1_554
Ge4 O61 1.860680 1_555
Ge4 O25 1.969736 1_554
Ge4 O62 2.028908 1_555
Ge4 O24 2.048178 1_554
Ge4 O60 2.049899 1_555
Ge5 O27 1.837762 1_555
Ge5 O64 1.860680 1_555
Ge5 O28 1.969736 1_555
Ge5 O63 2.028908 1_555
Ge5 O29 2.048178 1_555
Ge5 O65 2.049899 1_555
O0 P0 1.614151 1_555
O1 S0 1.528762 1_555
O2 S1 1.535718 1_555
O3 S2 1.535718 1_555
O4 S3 1.528762 1_555
O5 P1 1.614151 1_555
O6 P1 1.483846 1_565
O6 Zn0 1.897750 1_555
O7 S2 1.438659 1_555
O7 Zn0 2.087333 1_445
O8 S3 1.439149 1_455
O8 Zn0 2.009693 1_455
O9 S0 1.439149 1_555
O9 Zn1 2.009693 1_655
O10 S1 1.438659 1_455
O10 Zn1 2.087333 1_545
O11 P0 1.483846 1_565
O11 Zn1 1.897749 1_555
O12 S4 1.531931 1_555
O13 S5 1.531543 1_555
O14 P2 1.609841 1_555
O15 P3 1.609841 1_555
O16 S6 1.531543 1_555
O17 S7 1.531931 1_555
O18 S7 1.447391 1_555
O18 Zn2 2.008003 1_554
O19 P3 1.494646 1_555
O19 Zn2 1.932847 1_554
O20 S6 1.444681 1_555
O20 Zn2 2.011202 1_554
O21 S5 1.444681 1_555
O21 Zn3 2.011202 1_555
O22 P2 1.494646 1_555
O22 Zn3 1.932847 1_555
O23 S4 1.447391 1_555
O23 Zn3 2.008003 1_555
O24 S8 1.526906 1_555
O25 S9 1.536682 1_555
O26 P4 1.609526 1_555
O27 P5 1.609526 1_555
O28 S10 1.536682 1_555
O29 S11 1.526906 1_555
O30 S11 1.452828 1_555
O30 Zn4 1.994141 1_555
O31 P5 1.493632 1_555
O31 Zn4 1.914943 1_555
O32 S10 1.445065 1_555
O32 Zn4 2.043446 1_555
O33 S9 1.445065 1_555
O33 Zn5 2.043446 1_555
O34 P4 1.493632 1_555
O34 Zn5 1.914943 1_555
O35 S8 1.452828 1_555
O35 Zn5 1.994141 1_555
O36 S11 1.527839 1_555
O37 P5 1.599626 1_555
O38 S10 1.521107 1_555
O39 S9 1.521111 1_555
O40 P4 1.599617 1_555
O41 S8 1.527844 1_555
O42 S4 1.454031 1_555
O42 Zn0 2.086221 1_545
O43 S5 1.455013 1_555
O43 Zn0 2.084084 1_445
O44 P2 1.511670 1_555
O44 Zn0 1.989313 1_555
O45 P3 1.511674 1_555
O45 Zn1 1.989313 1_655
O46 S6 1.455004 1_555
O46 Zn1 2.084084 1_645
O47 S7 1.454037 1_555
O47 Zn1 2.086221 1_545
O48 P1 1.607959 1_555
O49 S2 1.526314 1_555
O50 S3 1.521803 1_555
O51 S0 1.521807 1_555
O52 S1 1.526305 1_555
O53 P0 1.607964 1_555
O54 S8 1.451307 1_555
O54 Zn2 2.076665 1_555
O55 S9 1.456256 1_655
O55 Zn2 2.101989 1_555
O56 P4 1.513458 1_545
O56 Zn2 1.993598 1_555
O57 P5 1.513451 1_545
O57 Zn3 1.993598 1_555
O58 S10 1.456273 1_555
O58 Zn3 2.101989 1_555
O59 S11 1.451296 1_655
O59 Zn3 2.076665 1_555
O60 S7 1.521420 1_555
O61 P3 1.608231 1_455
O62 S6 1.524810 1_565
O63 S5 1.524802 1_565
O64 P2 1.608248 1_555
O65 S4 1.521411 1_455
O66 P0 1.516621 1_565
O66 Zn4 1.964779 1_555
O67 S0 1.461855 1_555
O67 Zn4 2.073788 1_555
O68 S1 1.461900 1_455
O68 Zn4 2.155370 1_555
O69 S2 1.461903 1_555
O69 Zn5 2.155370 1_555
O70 S3 1.461846 1_455
O70 Zn5 2.073788 1_555
O71 P1 1.516627 1_565
O71 Zn5 1.964779 1_555
