# generated using pymatgen
data_CaCr2Cu3(SbO6)2
_symmetry_space_group_name_H-M   'P 1'
_cell_length_a   7.56404200
_cell_length_b   7.56404200
_cell_length_c   7.56404200
_cell_angle_alpha   90.00000000
_cell_angle_beta   90.00000000
_cell_angle_gamma   90.00000000
_symmetry_Int_Tables_number   1
_chemical_formula_structural   CaCr2Cu3(SbO6)2
_chemical_formula_sum   'Ca2 Cr4 Cu6 Sb4 O24'
_cell_volume   432.77463116
_cell_formula_units_Z   2
loop_
 _symmetry_equiv_pos_site_id
 _symmetry_equiv_pos_as_xyz
  1  'x, y, z'
loop_
 _atom_site_type_symbol
 _atom_site_label
 _atom_site_symmetry_multiplicity
 _atom_site_fract_x
 _atom_site_fract_y
 _atom_site_fract_z
 _atom_site_occupancy
  Ca  Ca0  1  0.00000000  0.00000000  0.00000000  1
  Ca  Ca1  1  0.50000000  0.50000000  0.50000000  1
  Cr  Cr0  1  0.25000000  0.75000000  0.75000000  1
  Cr  Cr1  1  0.25000000  0.25000000  0.25000000  1
  Cr  Cr2  1  0.75000000  0.75000000  0.25000000  1
  Cr  Cr3  1  0.75000000  0.25000000  0.75000000  1
  Cu  Cu0  1  0.00000000  0.00000000  0.50000000  1
  Cu  Cu1  1  0.00000000  0.50000000  0.50000000  1
  Cu  Cu2  1  0.50000000  0.50000000  0.00000000  1
  Cu  Cu3  1  0.00000000  0.50000000  0.00000000  1
  Cu  Cu4  1  0.50000000  0.00000000  0.00000000  1
  Cu  Cu5  1  0.50000000  0.00000000  0.50000000  1
  Sb  Sb0  1  0.75000000  0.25000000  0.25000000  1
  Sb  Sb1  1  0.75000000  0.75000000  0.75000000  1
  Sb  Sb2  1  0.25000000  0.75000000  0.25000000  1
  Sb  Sb3  1  0.25000000  0.25000000  0.75000000  1
  O  O0  1  0.49924300  0.67490200  0.19607900  1
  O  O1  1  0.49924300  0.32509800  0.80392100  1
  O  O2  1  0.50075700  0.67490200  0.80392100  1
  O  O3  1  0.32509800  0.80392100  0.49924300  1
  O  O4  1  0.80392100  0.50075700  0.67490200  1
  O  O5  1  0.80392100  0.49924300  0.32509800  1
  O  O6  1  0.67490200  0.19607900  0.49924300  1
  O  O7  1  0.19607900  0.49924300  0.67490200  1
  O  O8  1  0.67490200  0.80392100  0.50075700  1
  O  O9  1  0.32509800  0.19607900  0.50075700  1
  O  O10  1  0.19607900  0.50075700  0.32509800  1
  O  O11  1  0.50075700  0.32509800  0.19607900  1
  O  O12  1  0.00075700  0.82509800  0.30392100  1
  O  O13  1  0.00075700  0.17490200  0.69607900  1
  O  O14  1  0.99924300  0.82509800  0.69607900  1
  O  O15  1  0.17490200  0.69607900  0.00075700  1
  O  O16  1  0.99924300  0.17490200  0.30392100  1
  O  O17  1  0.30392100  0.99924300  0.17490200  1
  O  O18  1  0.17490200  0.30392100  0.99924300  1
  O  O19  1  0.82509800  0.69607900  0.99924300  1
  O  O20  1  0.30392100  0.00075700  0.82509800  1
  O  O21  1  0.82509800  0.30392100  0.00075700  1
  O  O22  1  0.69607900  0.00075700  0.17490200  1
  O  O23  1  0.69607900  0.99924300  0.82509800  1
loop_
_geom_bond_atom_site_label_1
_geom_bond_atom_site_label_2
_geom_bond_distance
_geom_bond_site_symmetry_2
Ca0 O20 2.652373 1_554
Ca0 O15 2.652373 1_545
Ca0 O23 2.652373 1_444
Ca0 O18 2.652373 1_554
Ca0 O21 2.652373 1_455
Ca0 O14 2.652373 1_444
Ca0 O22 2.652373 1_455
Ca0 O17 2.652373 1_545
Ca0 O16 2.652373 1_455
Ca0 O19 2.652373 1_444
Ca0 O13 2.652373 1_554
Ca0 O12 2.652373 1_545
Ca1 O1 2.652373 1_555
Ca1 O6 2.652373 1_555
Ca1 O8 2.652373 1_555
Ca1 O7 2.652373 1_555
Ca1 O2 2.652373 1_555
Ca1 O5 2.652373 1_555
Ca1 O9 2.652373 1_555
Ca1 O10 2.652373 1_555
Ca1 O11 2.652373 1_555
Ca1 O0 2.652373 1_555
Ca1 O3 2.652373 1_555
Ca1 O4 2.652373 1_555
Cr0 O20 2.021543 1_565
Cr0 O15 2.021543 1_556
Cr0 O7 2.021543 1_555
Cr0 O3 2.021543 1_555
Cr0 O14 2.021543 1_455
Cr0 O2 2.021543 1_555
Cr1 O10 2.021543 1_555
Cr1 O9 2.021543 1_555
Cr1 O11 2.021543 1_555
Cr1 O18 2.021543 1_554
Cr1 O17 2.021543 1_545
Cr1 O16 2.021543 1_455
Cr2 O12 2.021543 1_655
Cr2 O22 2.021543 1_565
Cr2 O0 2.021543 1_555
Cr2 O19 2.021543 1_554
Cr2 O8 2.021543 1_555
Cr2 O5 2.021543 1_555
Cr3 O13 2.021543 1_655
Cr3 O21 2.021543 1_556
Cr3 O4 2.021543 1_555
Cr3 O1 2.021543 1_555
Cr3 O6 2.021543 1_555
Cr3 O23 2.021543 1_545
Cu0 O14 1.987462 1_445
Cu0 O16 1.987462 1_455
Cu0 O12 1.987462 1_545
Cu0 O13 1.987462 1_555
Cu1 O10 1.987462 1_555
Cu1 O5 1.987462 1_455
Cu1 O4 1.987462 1_455
Cu1 O7 1.987462 1_555
Cu2 O1 1.987462 1_554
Cu2 O11 1.987462 1_555
Cu2 O0 1.987462 1_555
Cu2 O2 1.987462 1_554
Cu3 O19 1.987462 1_454
Cu3 O18 1.987462 1_554
Cu3 O21 1.987462 1_455
Cu3 O15 1.987462 1_555
Cu4 O23 1.987462 1_544
Cu4 O22 1.987462 1_555
Cu4 O17 1.987462 1_545
Cu4 O20 1.987462 1_554
Cu5 O6 1.987462 1_555
Cu5 O8 1.987462 1_545
Cu5 O9 1.987462 1_555
Cu5 O3 1.987462 1_545
O0 Sb2 2.010801 1_555
O1 Sb3 2.010801 1_555
O2 Sb1 2.010801 1_555
O3 Sb2 2.010801 1_555
O4 Sb1 2.010801 1_555
O5 Sb0 2.010801 1_555
O6 Sb0 2.010801 1_555
O7 Sb3 2.010801 1_555
O8 Sb1 2.010801 1_555
O9 Sb3 2.010801 1_555
O10 Sb2 2.010801 1_555
O11 Sb0 2.010801 1_555
O12 Sb2 2.010801 1_555
O13 Sb3 2.010801 1_555
O14 Sb1 2.010801 1_555
O15 Sb2 2.010801 1_555
O16 Sb0 2.010801 1_555
O17 Sb2 2.010801 1_555
O18 Sb3 2.010801 1_555
O19 Sb1 2.010801 1_555
O20 Sb3 2.010801 1_555
O21 Sb0 2.010801 1_555
O22 Sb0 2.010801 1_555
O23 Sb1 2.010801 1_555
