# generated using pymatgen
data_Ba2MgTiO4
_symmetry_space_group_name_H-M   'P 1'
_cell_length_a   3.98611500
_cell_length_b   3.96941800
_cell_length_c   10.96618800
_cell_angle_alpha   90.00000000
_cell_angle_beta   90.00000000
_cell_angle_gamma   90.00000000
_symmetry_Int_Tables_number   1
_chemical_formula_structural   Ba2MgTiO4
_chemical_formula_sum   'Ba2 Mg1 Ti1 O4'
_cell_volume   173.51313066
_cell_formula_units_Z   1
loop_
 _symmetry_equiv_pos_site_id
 _symmetry_equiv_pos_as_xyz
  1  'x, y, z'
loop_
 _atom_site_type_symbol
 _atom_site_label
 _atom_site_symmetry_multiplicity
 _atom_site_fract_x
 _atom_site_fract_y
 _atom_site_fract_z
 _atom_site_occupancy
  Ba  Ba0  1  0.99493100  0.00000000  0.93050100  1
  Ba  Ba1  1  0.99493100  0.00000000  0.56949900  1
  Mg  Mg0  1  0.49517400  0.00000000  0.25000000  1
  Ti  Ti0  1  0.49542900  0.50000000  0.75000000  1
  O  O0  1  0.99318700  0.50000000  0.75000000  1
  O  O1  1  0.49367100  0.50000000  0.93181000  1
  O  O2  1  0.49367100  0.50000000  0.56819000  1
  O  O3  1  0.49300800  0.00000000  0.75000000  1
loop_
_geom_bond_atom_site_label_1
_geom_bond_atom_site_label_2
_geom_bond_distance
_geom_bond_site_symmetry_2
Ba0 O0 2.803065 1_555
Ba0 O0 2.803065 1_545
Ba0 O3 2.803540 1_655
Ba0 O1 2.809192 1_645
Ba0 O1 2.809192 1_655
Ba0 O3 2.814418 1_555
Ba0 O1 2.816310 1_555
Ba0 O1 2.816310 1_545
Ba0 Mg0 4.030414 1_556
Ba0 Mg0 4.031372 1_656
Ba1 O0 2.803065 1_555
Ba1 O0 2.803065 1_545
Ba1 O3 2.803540 1_655
Ba1 O2 2.809192 1_655
Ba1 O2 2.809192 1_645
Ba1 O3 2.814418 1_555
Ba1 O2 2.816310 1_545
Ba1 O2 2.816310 1_555
Ba1 Mg0 4.030414 1_555
Ba1 Mg0 4.031372 1_655
O0 Ti0 1.984121 1_555
O0 Ti0 2.001994 1_655
O1 Ti0 1.993775 1_555
O2 Ti0 1.993775 1_555
O3 Ti0 1.984732 1_545
O3 Ti0 1.984732 1_555
