# generated using pymatgen
data_Mg(TiS2)3
_symmetry_space_group_name_H-M   'P 1'
_cell_length_a   3.47383104
_cell_length_b   3.47375631
_cell_length_c   20.00922735
_cell_angle_alpha   90.39662850
_cell_angle_beta   89.61219166
_cell_angle_gamma   119.99447139
_symmetry_Int_Tables_number   1
_chemical_formula_structural   Mg(TiS2)3
_chemical_formula_sum   'Mg1 Ti3 S6'
_cell_volume   209.11231432
_cell_formula_units_Z   1
loop_
 _symmetry_equiv_pos_site_id
 _symmetry_equiv_pos_as_xyz
  1  'x, y, z'
loop_
 _atom_site_type_symbol
 _atom_site_label
 _atom_site_symmetry_multiplicity
 _atom_site_fract_x
 _atom_site_fract_y
 _atom_site_fract_z
 _atom_site_occupancy
  Mg  Mg0  1  0.66115700  0.33879700  0.80455100  1
  Ti  Ti0  1  0.00168400  0.99880900  0.99891100  1
  Ti  Ti1  1  0.99342700  0.99886400  0.34862200  1
  Ti  Ti2  1  0.99807100  0.00196800  0.64753700  1
  S  S0  1  0.33309800  0.66734800  0.06637200  1
  S  S1  1  0.33466700  0.66839500  0.41856100  1
  S  S2  1  0.32981800  0.67010500  0.73292200  1
  S  S3  1  0.67168400  0.33152600  0.27871500  1
  S  S4  1  0.66624400  0.33362900  0.58291300  1
  S  S5  1  0.67056300  0.32984700  0.92422700  1
loop_
_geom_bond_atom_site_label_1
_geom_bond_atom_site_label_2
_geom_bond_distance
_geom_bond_site_symmetry_2
Mg0 S5 2.395697 1_555
Mg0 S2 2.464382 1_555
Mg0 S2 2.465315 1_545
Mg0 S2 2.465585 1_655
S0 Ti0 2.416857 1_554
S0 Ti0 2.417687 1_544
S0 Ti0 2.418138 1_654
S1 Ti1 2.421856 1_555
S1 Ti1 2.448207 1_445
S1 Ti1 2.467125 1_455
S2 Ti2 2.632734 1_455
S2 Ti2 2.633379 1_565
S2 Ti2 2.637848 1_465
S3 Ti1 2.424066 1_545
S3 Ti1 2.442427 1_555
S3 Ti1 2.469597 1_445
S4 Ti2 2.386055 1_455
S4 Ti2 2.386149 1_565
S4 Ti2 2.386792 1_555
S5 Ti0 2.499636 1_645
S5 Ti0 2.501796 1_655
S5 Ti0 2.501950 1_545
