# generated using pymatgen
data_Na6CdCl8
_symmetry_space_group_name_H-M   'P 1'
_cell_length_a   7.92380841
_cell_length_b   7.92380787
_cell_length_c   7.92380852
_cell_angle_alpha   60.00000145
_cell_angle_beta   60.00000370
_cell_angle_gamma   60.00000263
_symmetry_Int_Tables_number   1
_chemical_formula_structural   Na6CdCl8
_chemical_formula_sum   'Na6 Cd1 Cl8'
_cell_volume   351.79276399
_cell_formula_units_Z   1
loop_
 _symmetry_equiv_pos_site_id
 _symmetry_equiv_pos_as_xyz
  1  'x, y, z'
loop_
 _atom_site_type_symbol
 _atom_site_label
 _atom_site_symmetry_multiplicity
 _atom_site_fract_x
 _atom_site_fract_y
 _atom_site_fract_z
 _atom_site_occupancy
  Na  Na0  1  0.50000000  -0.00000000  0.50000000  1
  Na  Na1  1  0.50000000  -0.00000000  -0.00000000  1
  Na  Na2  1  0.00000000  -0.00000000  0.50000000  1
  Na  Na3  1  0.50000000  0.50000000  -0.00000000  1
  Na  Na4  1  0.00000000  0.50000000  0.50000000  1
  Na  Na5  1  0.00000000  0.50000000  -0.00000000  1
  Cd  Cd0  1  0.00000000  -0.00000000  -0.00000000  1
  Cl  Cl0  1  0.23655101  0.76344899  0.76344899  1
  Cl  Cl1  1  0.25000000  0.25000000  0.25000000  1
  Cl  Cl2  1  0.75000000  0.75000000  0.75000000  1
  Cl  Cl3  1  0.76344899  0.23655101  0.23655101  1
  Cl  Cl4  1  0.76344899  0.76344899  0.23655101  1
  Cl  Cl5  1  0.23655101  0.23655101  0.76344899  1
  Cl  Cl6  1  0.76344899  0.23655101  0.76344899  1
  Cl  Cl7  1  0.23655101  0.76344899  0.23655101  1
loop_
_geom_bond_atom_site_label_1
_geom_bond_atom_site_label_2
_geom_bond_distance
_geom_bond_site_symmetry_2
Cd0 Cl5 2.650780 1_554
Cd0 Cl4 2.650780 1_445
Cd0 Cl6 2.650781 1_454
Cd0 Cl3 2.650781 1_455
Cd0 Cl0 2.650781 1_544
Cd0 Cl7 2.650781 1_545
Cl0 Na5 2.805540 1_556
Cl0 Na0 2.805540 1_565
Cl0 Na3 2.805540 1_556
Cl0 Na2 2.805540 1_565
Cl1 Na2 2.801489 1_555
Cl1 Na3 2.801489 1_555
Cl1 Na0 2.801489 1_555
Cl1 Na4 2.801489 1_555
Cl1 Na1 2.801489 1_555
Cl1 Na5 2.801489 1_555
Cl2 Na2 2.801489 1_665
Cl2 Na3 2.801489 1_556
Cl2 Na0 2.801489 1_565
Cl2 Na1 2.801489 1_566
Cl2 Na4 2.801489 1_655
Cl2 Na5 2.801489 1_656
Cl3 Na5 2.805540 1_655
Cl3 Na0 2.805540 1_555
Cl3 Na3 2.805540 1_555
Cl3 Na2 2.805540 1_655
Cl4 Na5 2.805540 1_655
Cl4 Na4 2.805540 1_655
Cl4 Na1 2.805540 1_565
Cl4 Na0 2.805540 1_565
Cl5 Na5 2.805540 1_556
Cl5 Na4 2.805540 1_555
Cl5 Na1 2.805540 1_556
Cl5 Na0 2.805540 1_555
Cl6 Na4 2.805540 1_655
Cl6 Na1 2.805540 1_556
Cl6 Na3 2.805540 1_556
Cl6 Na2 2.805540 1_655
Cl7 Na4 2.805540 1_555
Cl7 Na1 2.805540 1_565
Cl7 Na3 2.805540 1_555
Cl7 Na2 2.805540 1_565
