# generated using pymatgen
data_MgZn2(CoO3)2
_symmetry_space_group_name_H-M   'P 1'
_cell_length_a   5.14877505
_cell_length_b   6.00466149
_cell_length_c   5.38700039
_cell_angle_alpha   117.96663294
_cell_angle_beta   58.34233218
_cell_angle_gamma   116.03346991
_symmetry_Int_Tables_number   1
_chemical_formula_structural   MgZn2(CoO3)2
_chemical_formula_sum   'Mg1 Zn2 Co2 O6'
_cell_volume   121.02429200
_cell_formula_units_Z   1
loop_
 _symmetry_equiv_pos_site_id
 _symmetry_equiv_pos_as_xyz
  1  'x, y, z'
loop_
 _atom_site_type_symbol
 _atom_site_label
 _atom_site_symmetry_multiplicity
 _atom_site_fract_x
 _atom_site_fract_y
 _atom_site_fract_z
 _atom_site_occupancy
  Mg  Mg0  1  0.68389937  0.10817321  0.69864611  1
  Zn  Zn0  1  0.33065070  -0.00312243  0.29245395  1
  Zn  Zn1  1  0.50400662  0.54912260  0.53333367  1
  Co  Co0  1  0.10834159  0.41380512  0.18306133  1
  Co  Co1  1  0.87704328  0.71200162  0.90255768  1
  O  O0  1  0.11988068  0.30034349  0.45665005  1
  O  O1  1  0.49144524  0.40266631  0.83821020  1
  O  O2  1  0.75703088  0.27419146  0.10650759  1
  O  O3  1  0.28211807  0.83302365  0.89034900  1
  O  O4  1  0.61702681  0.84778625  0.29587776  1
  O  O5  1  0.95355576  0.74950872  0.52735167  1
loop_
_geom_bond_atom_site_label_1
_geom_bond_atom_site_label_2
_geom_bond_distance
_geom_bond_site_symmetry_2
Mg0 O0 2.033565 1_655
Mg0 O1 2.045309 1_555
Mg0 O4 2.097777 1_545
Mg0 O3 2.105533 1_545
Mg0 O2 2.108941 1_556
Mg0 O5 2.614070 1_545
Co0 O2 1.808970 1_455
Co0 O1 1.870621 1_554
Co0 O0 1.925894 1_555
Co0 O5 2.119078 1_455
Co1 O4 1.818453 1_556
Co1 O3 1.858155 1_655
Co1 O5 1.950529 1_555
Co1 O1 2.096044 1_555
O0 Zn1 1.999800 1_555
O0 Zn0 2.120617 1_555
O1 Zn1 2.160597 1_555
O2 Zn0 2.154750 1_555
O2 Zn1 2.211961 1_555
O3 Zn0 2.018931 1_566
O3 Zn1 2.058711 1_555
O4 Zn0 2.044174 1_565
O4 Zn1 2.375985 1_555
O5 Zn0 2.056622 1_665
O5 Zn1 2.078390 1_555
