# generated using pymatgen
data_Na7TaIn3Si3(PO8)3
_symmetry_space_group_name_H-M   'P 1'
_cell_length_a   9.18491083
_cell_length_b   9.18026742
_cell_length_c   22.60648067
_cell_angle_alpha   90.00402200
_cell_angle_beta   90.07385704
_cell_angle_gamma   120.03611827
_symmetry_Int_Tables_number   1
_chemical_formula_structural   Na7TaIn3Si3(PO8)3
_chemical_formula_sum   'Na21 Ta3 In9 Si9 P9 O72'
_cell_volume   1650.19466729
_cell_formula_units_Z   3
loop_
 _symmetry_equiv_pos_site_id
 _symmetry_equiv_pos_as_xyz
  1  'x, y, z'
loop_
 _atom_site_type_symbol
 _atom_site_label
 _atom_site_symmetry_multiplicity
 _atom_site_fract_x
 _atom_site_fract_y
 _atom_site_fract_z
 _atom_site_occupancy
  Na  Na0  1  0.63051475  0.99882586  0.25221240  1
  Na  Na1  1  0.36802129  0.36952285  0.25193220  1
  Na  Na2  1  0.00215856  0.63403516  0.25447685  1
  Na  Na3  1  0.64150588  0.63221233  0.74409104  1
  Na  Na4  1  0.99363010  0.35350201  0.74263932  1
  Na  Na5  1  0.29652610  0.34153298  0.58352846  1
  Na  Na6  1  0.03653812  0.69920278  0.58181035  1
  Na  Na7  1  0.66589078  0.95915713  0.57985358  1
  Na  Na8  1  0.30188071  0.96452303  0.08321585  1
  Na  Na9  1  0.65857249  0.70033983  0.08378527  1
  Na  Na10  1  0.04380257  0.33403515  0.08000048  1
  Na  Na11  1  0.32020677  0.29568538  0.91266399  1
  Na  Na12  1  0.97866631  0.30025457  0.41782204  1
  Na  Na13  1  0.32459728  0.02346131  0.41749936  1
  Na  Na14  1  0.69794544  0.67699032  0.41766877  1
  Na  Na15  1  0.99715132  0.00025562  0.49914965  1
  Na  Na16  1  0.99096530  0.99943356  0.99620338  1
  Na  Na17  1  0.66125322  0.32340308  0.82833323  1
  Na  Na18  1  0.66484650  0.33173293  0.33449943  1
  Na  Na19  1  0.33843512  0.66645035  0.16518437  1
  Na  Na20  1  0.33425551  0.66956668  0.65914056  1
  Ta  Ta0  1  0.66942044  0.32835481  0.97909386  1
  Ta  Ta1  1  0.67099252  0.33727457  0.48193285  1
  Ta  Ta2  1  0.32805570  0.66491112  0.81578536  1
  In  In0  1  0.99864536  0.99973638  0.35075223  1
  In  In1  1  0.00091420  0.00155483  0.85030783  1
  In  In2  1  0.00118233  0.00421544  0.64918710  1
  In  In3  1  0.00143445  0.00362403  0.14588233  1
  In  In4  1  0.66042201  0.33100739  0.68460300  1
  In  In5  1  0.66320813  0.33039361  0.18161493  1
  In  In6  1  0.33556011  0.66641836  0.01514065  1
  In  In7  1  0.33251111  0.66278960  0.51483910  1
  In  In8  1  0.33390981  0.66605751  0.32244177  1
  Si  Si0  1  0.29953785  0.29671703  0.75225276  1
  Si  Si1  1  0.96149647  0.33447128  0.58611440  1
  Si  Si2  1  0.66720008  0.63065982  0.58561523  1
  Si  Si3  1  0.66472060  0.03730090  0.08386396  1
  Si  Si4  1  0.37456122  0.33475630  0.08279351  1
  Si  Si5  1  0.03503379  0.37046377  0.91863479  1
  Si  Si6  1  0.62974243  0.96651476  0.41695166  1
  Si  Si7  1  0.33553960  0.36770689  0.41657342  1
  Si  Si8  1  0.03464057  0.66504473  0.41695738  1
  P  P0  1  0.29581296  0.99769787  0.24905169  1
  P  P1  1  0.70315878  0.70295945  0.24845011  1
  P  P2  1  0.00129837  0.30033928  0.24895905  1
  P  P3  1  0.00571531  0.70794486  0.75081706  1
  P  P4  1  0.69925464  0.99614199  0.75104110  1
  P  P5  1  0.37597116  0.04130021  0.58272408  1
  P  P6  1  0.95597348  0.62239877  0.08268641  1
  P  P7  1  0.62918778  0.66578537  0.91724453  1
  P  P8  1  0.33575390  0.96103198  0.91854816  1
  O  O0  1  0.21358003  0.02456441  0.30391677  1
  O  O1  1  0.81096003  0.78418612  0.30384529  1
  O  O2  1  0.97135797  0.19033802  0.30394880  1
  O  O3  1  0.21825398  0.19214654  0.81195988  1
  O  O4  1  0.96889756  0.78896565  0.80351397  1
  O  O5  1  0.81622682  0.02872080  0.80398343  1
  O  O6  1  0.76223507  0.94874697  0.69452196  1
  O  O7  1  0.17837229  0.22692276  0.69386238  1
  O  O8  1  0.03681610  0.80767597  0.69324263  1
  O  O9  1  0.78433029  0.81000936  0.19191806  1
  O  O10  1  0.02874818  0.22079423  0.19238565  1
  O  O11  1  0.18891031  0.97059875  0.19219893  1
  O  O12  1  0.88046669  0.36250807  0.64556395  1
  O  O13  1  0.48443928  0.11707740  0.63757225  1
  O  O14  1  0.63065981  0.51848837  0.64472895  1
  O  O15  1  0.88805830  0.52154906  0.14020406  1
  O  O16  1  0.63125179  0.11067327  0.14423647  1
  O  O17  1  0.48568590  0.37437634  0.14278949  1
  O  O18  1  0.47997345  0.31450998  0.02508549  1
  O  O19  1  0.83522814  0.52279478  0.02928209  1
  O  O20  1  0.68965052  0.16986647  0.02742619  1
  O  O21  1  0.46779260  0.15401886  0.52694295  1
  O  O22  1  0.68463411  0.52360623  0.52785079  1
  O  O23  1  0.83553146  0.31258562  0.52833108  1
  O  O24  1  0.55807576  0.69391839  0.97446423  1
  O  O25  1  0.14765611  0.44863158  0.97734110  1
  O  O26  1  0.31284217  0.86554055  0.97615552  1
  O  O27  1  0.55198222  0.84833815  0.47435163  1
  O  O28  1  0.29267141  0.44311740  0.47407308  1
  O  O29  1  0.15282714  0.70576026  0.47432637  1
  O  O30  1  0.10237330  0.61561234  0.35760875  1
  O  O31  1  0.51354990  0.89785020  0.35712715  1
  O  O32  1  0.38557683  0.48584198  0.35724964  1
  O  O33  1  0.14055715  0.50052943  0.86165856  1
  O  O34  1  0.36008498  0.86559599  0.86549021  1
  O  O35  1  0.50489406  0.63987657  0.86397464  1
  O  O36  1  0.00382737  0.82395701  0.41116654  1
  O  O37  1  0.81892674  0.99482788  0.41119515  1
  O  O38  1  0.17455288  0.17879383  0.41055086  1
  O  O39  1  0.01917934  0.18765434  0.91177282  1
  O  O40  1  0.18693375  0.99040137  0.91155270  1
  O  O41  1  0.80565472  0.81314044  0.90826912  1
  O  O42  1  0.97003409  0.16032061  0.58405637  1
  O  O43  1  0.20360625  0.03409310  0.58438826  1
  O  O44  1  0.84596350  0.80969950  0.58529955  1
  O  O45  1  0.96217393  0.79418807  0.08348428  1
  O  O46  1  0.83710726  0.02653170  0.08289177  1
  O  O47  1  0.19405402  0.15680284  0.08281748  1
  O  O48  1  0.68361051  0.15448951  0.74576582  1
  O  O49  1  0.49297391  0.33706324  0.74911882  1
  O  O50  1  0.85627802  0.52486983  0.74831325  1
  O  O51  1  0.68732598  0.52548191  0.24580084  1
  O  O52  1  0.84232455  0.32049680  0.24536077  1
  O  O53  1  0.47369227  0.15877827  0.24676876  1
  O  O54  1  0.62796056  0.49246315  0.92084953  1
  O  O55  1  0.84935803  0.36188276  0.92342852  1
  O  O56  1  0.50142120  0.14232199  0.92236016  1
  O  O57  1  0.64704213  0.15497251  0.42615780  1
  O  O58  1  0.50582883  0.34958552  0.42623412  1
  O  O59  1  0.84516080  0.49267524  0.42615191  1
  O  O60  1  0.34983050  0.49816958  0.07818592  1
  O  O61  1  0.13270269  0.64604312  0.07557808  1
  O  O62  1  0.49676452  0.85370061  0.07698688  1
  O  O63  1  0.35360924  0.86442266  0.57679175  1
  O  O64  1  0.50344958  0.65425127  0.57964343  1
  O  O65  1  0.14544776  0.50358079  0.58038213  1
  O  O66  1  0.31312522  0.83774092  0.25303716  1
  O  O67  1  0.52594240  0.68567281  0.25242095  1
  O  O68  1  0.16213156  0.47704449  0.25339340  1
  O  O69  1  0.31668462  0.49329399  0.76195214  1
  O  O70  1  0.16901241  0.69082864  0.76169903  1
  O  O71  1  0.52097188  0.83509304  0.76313665  1
loop_
_geom_bond_atom_site_label_1
_geom_bond_atom_site_label_2
_geom_bond_distance
_geom_bond_site_symmetry_2
Na0 O53 2.522515 1_565
Na0 O66 2.523887 1_555
Na0 O67 2.534356 1_555
Na0 O31 2.578484 1_555
Na0 O52 2.603601 1_565
Na0 O16 2.646893 1_565
Na1 O67 2.512602 1_555
Na1 O68 2.533856 1_555
Na1 O51 2.543192 1_555
Na1 O53 2.564909 1_555
Na1 O32 2.580900 1_555
Na1 O17 2.686335 1_555
Na2 O52 2.500314 1_455
Na2 O66 2.511818 1_555
Na2 O68 2.521248 1_555
Na2 O30 2.542023 1_555
Na2 O51 2.550921 1_455
Na2 O15 2.783413 1_455
Na2 O1 2.942421 1_455
Na2 O11 3.028551 1_555
Na3 O49 2.348543 1_555
Na3 O14 2.457724 1_555
Na3 O50 2.610970 1_555
Na3 O69 2.623861 1_555
Na3 O71 2.635387 1_555
Na3 O6 2.776201 1_555
Na3 O4 2.928335 1_555
Na3 O35 3.003566 1_555
Na4 O12 2.446084 1_555
Na4 O50 2.463782 1_555
Na4 O48 2.498731 1_555
Na4 O69 2.612754 1_655
Na4 O70 2.715608 1_655
Na4 O7 2.724712 1_655
Na4 O5 2.934421 1_555
Na4 O33 3.008157 1_655
Na5 O65 2.491990 1_555
Na5 O43 2.506638 1_555
Na5 O64 2.529797 1_555
Na5 O42 2.601220 1_455
Na5 O28 2.650803 1_555
Na5 O7 2.714842 1_555
Na6 O44 2.424258 1_455
Na6 O65 2.454648 1_555
Na6 O63 2.524597 1_555
Na6 O29 2.644033 1_555
Na6 O43 2.662117 1_565
Na6 O8 2.708239 1_555
Na7 O64 2.424930 1_555
Na7 O42 2.461303 1_565
Na7 O63 2.547630 1_555
Na7 O27 2.597238 1_555
Na7 O44 2.627654 1_555
Na7 O6 2.755130 1_555
Na8 O47 2.418031 1_565
Na8 O62 2.466308 1_555
Na8 O61 2.538446 1_555
Na8 O26 2.604879 1_554
Na8 O11 2.685930 1_555
Na8 O45 2.701185 1_455
Na9 O45 2.472506 1_555
Na9 O60 2.496483 1_555
Na9 O62 2.511707 1_555
Na9 O46 2.596318 1_565
Na9 O24 2.627312 1_554
Na9 O9 2.674248 1_555
Na9 O17 2.916242 1_555
Na10 O60 2.435828 1_555
Na10 O46 2.492544 1_455
Na10 O25 2.530624 1_554
Na10 O61 2.557325 1_555
Na10 O47 2.608347 1_555
Na10 O10 2.722506 1_555
Na11 O39 2.425584 1_555
Na11 O40 2.432914 1_545
Na11 O3 2.462979 1_555
Na11 O54 2.484846 1_555
Na11 O56 2.673141 1_555
Na11 O18 2.894597 1_556
Na11 O35 2.951718 1_555
Na11 O25 2.975643 1_555
Na12 O37 2.432688 1_545
Na12 O38 2.552758 1_655
Na12 O59 2.613153 1_555
Na12 O57 2.650794 1_555
Na12 O2 2.753358 1_555
Na12 O28 2.803364 1_655
Na12 O23 2.853020 1_555
Na12 O30 2.869985 1_655
Na13 O38 2.433980 1_555
Na13 O36 2.579182 1_545
Na13 O57 2.585752 1_555
Na13 O58 2.604484 1_555
Na13 O0 2.763430 1_555
Na13 O21 2.775033 1_555
Na13 O29 2.836400 1_545
Na13 O31 2.865973 1_545
Na14 O36 2.437541 1_655
Na14 O37 2.554325 1_555
Na14 O58 2.622344 1_555
Na14 O59 2.649151 1_555
Na14 O1 2.766159 1_555
Na14 O27 2.833562 1_555
Na14 O22 2.833878 1_555
Na14 O32 2.850599 1_555
Na15 O42 2.504551 1_555
Na15 O44 2.521326 1_545
Na15 O37 2.558440 1_545
Na15 O36 2.584277 1_645
Na15 O38 2.586184 1_655
Na15 O43 2.608880 1_655
Na16 O39 2.499875 1_665
Na16 O46 2.501689 1_566
Na16 O47 2.587079 1_666
Na16 O41 2.617302 1_555
Na16 O45 2.648849 1_556
Na16 O40 2.658392 1_655
Na17 O49 2.407998 1_555
Na17 O48 2.500030 1_555
Na17 O50 2.567876 1_555
Na17 O56 2.646191 1_555
Na17 O55 2.666582 1_555
Na17 O54 2.711605 1_555
Na18 O57 2.586330 1_555
Na18 O58 2.590008 1_555
Na18 O53 2.595546 1_555
Na18 O59 2.599980 1_555
Na18 O51 2.619330 1_555
Na18 O52 2.627808 1_555
Na19 O60 2.535262 1_555
Na19 O62 2.559406 1_555
Na19 O67 2.563867 1_555
Na19 O68 2.610003 1_555
Na19 O66 2.614928 1_555
Na19 O61 2.710145 1_555
Na20 O65 2.417764 1_555
Na20 O64 2.427022 1_555
Na20 O63 2.525889 1_555
Na20 O69 2.790467 1_555
Na20 O70 2.832420 1_555
Na20 O71 2.856152 1_555
In0 O38 2.115486 1_665
In0 O37 2.127264 1_555
In0 O36 2.132749 1_655
In0 O1 2.142878 1_555
In0 O0 2.150636 1_665
In0 O2 2.163937 1_565
In1 O3 2.075088 1_555
In1 O4 2.106827 1_445
In1 O5 2.110786 1_455
In1 O39 2.142380 1_555
In1 O41 2.196827 1_445
In1 O40 2.239573 1_545
In2 O7 2.124418 1_555
In2 O42 2.170976 1_455
In2 O44 2.180122 1_445
In2 O8 2.223747 1_545
In2 O6 2.239076 1_445
In2 O43 2.274740 1_555
In3 O10 2.154344 1_555
In3 O47 2.157833 1_555
In3 O46 2.159241 1_455
In3 O11 2.161338 1_545
In3 O9 2.162428 1_445
In3 O45 2.262906 1_445
In4 O14 2.078493 1_555
In4 O12 2.089697 1_555
In4 O13 2.101778 1_555
In4 O49 2.141738 1_555
In4 O48 2.219951 1_555
In4 O50 2.294722 1_555
In5 O17 2.060936 1_555
In5 O16 2.067669 1_555
In5 O15 2.144331 1_555
In5 O52 2.221498 1_555
In5 O53 2.223303 1_555
In5 O51 2.227938 1_555
In6 O25 2.061017 1_554
In6 O26 2.131531 1_554
In6 O62 2.132824 1_555
In6 O24 2.138859 1_554
In6 O60 2.153290 1_555
In6 O61 2.242993 1_555
In7 O28 2.076103 1_555
In7 O29 2.089514 1_555
In7 O27 2.090527 1_555
In7 O64 2.175942 1_555
In7 O65 2.185547 1_555
In7 O63 2.250611 1_555
In8 O31 2.084917 1_555
In8 O32 2.089669 1_555
In8 O30 2.094656 1_555
In8 O68 2.278009 1_555
In8 O66 2.298492 1_555
In8 O67 2.310487 1_555
O0 P0 1.535753 1_545
O1 P1 1.536942 1_555
O2 P2 1.537469 1_655
O3 Si0 1.608142 1_555
O4 P3 1.529535 1_655
O5 P4 1.533337 1_545
O6 P4 1.552497 1_555
O7 Si0 1.635152 1_555
O8 P3 1.534013 1_555
O9 P1 1.556934 1_555
O10 P2 1.554827 1_555
O11 P0 1.558848 1_555
O12 Si1 1.618840 1_555
O13 P5 1.522097 1_555
O14 Si2 1.616867 1_555
O15 P6 1.536583 1_555
O16 Si3 1.618380 1_555
O17 Si4 1.624291 1_555
O18 Si4 1.690341 1_555
O18 Ta0 1.976921 1_554
O19 P6 1.582656 1_555
O19 Ta0 2.016605 1_554
O20 Si3 1.698031 1_555
O20 Ta0 1.901479 1_554
O21 P5 1.581607 1_555
O21 Ta1 2.052022 1_555
O22 Si2 1.689571 1_555
O22 Ta1 1.950423 1_555
O23 Si1 1.687804 1_555
O23 Ta1 1.942774 1_555
O24 P7 1.528908 1_555
O25 Si5 1.612299 1_555
O26 P8 1.524778 1_555
O27 Si6 1.611765 1_555
O28 Si7 1.611836 1_555
O29 Si8 1.609404 1_555
O30 Si8 1.636375 1_555
O31 Si6 1.639526 1_555
O32 Si7 1.639744 1_555
O33 Si5 1.693820 1_555
O33 Ta2 1.929166 1_555
O34 P8 1.566137 1_555
O34 Ta2 2.049301 1_555
O35 P7 1.592066 1_555
O35 Ta2 2.060808 1_555
O36 Si8 1.624427 1_555
O37 Si6 1.628599 1_555
O38 Si7 1.626317 1_555
O39 Si5 1.617717 1_555
O40 P8 1.527911 1_555
O41 P7 1.517934 1_555
O42 Si1 1.640067 1_555
O43 P5 1.551602 1_555
O44 Si2 1.641908 1_555
O45 P6 1.549453 1_555
O46 Si3 1.635259 1_555
O47 Si4 1.645038 1_555
O48 P4 1.535291 1_545
O49 Si0 1.624927 1_555
O50 P3 1.549919 1_655
O51 P1 1.562720 1_555
O52 P2 1.563050 1_655
O53 P0 1.562146 1_545
O54 P7 1.587632 1_555
O54 Ta0 2.172958 1_555
O55 Si5 1.671040 1_655
O55 Ta0 1.976340 1_555
O56 P8 1.599095 1_545
O56 Ta0 2.073422 1_555
O57 Si6 1.669263 1_545
O57 Ta1 2.017302 1_555
O58 Si7 1.667742 1_555
O58 Ta1 2.016507 1_555
O59 Si8 1.679304 1_655
O59 Ta1 1.976175 1_555
O60 Si4 1.629134 1_555
O61 P6 1.534862 1_455
O62 Si3 1.625188 1_565
O63 P5 1.537161 1_565
O64 Si2 1.628748 1_555
O65 Si1 1.629827 1_455
O66 P0 1.556752 1_555
O67 P1 1.557077 1_555
O68 P2 1.557055 1_555
O69 Si0 1.744964 1_555
O69 Ta2 1.951614 1_555
O70 P3 1.603061 1_555
O70 Ta2 2.007218 1_555
O71 P4 1.587339 1_555
O71 Ta2 2.057057 1_555
