# generated using pymatgen
data_Tl2(CdSb)3
_symmetry_space_group_name_H-M   'P 1'
_cell_length_a   9.08276719
_cell_length_b   9.08276719
_cell_length_c   12.01537264
_cell_angle_alpha   68.07410873
_cell_angle_beta   68.07410873
_cell_angle_gamma   31.60423728
_symmetry_Int_Tables_number   1
_chemical_formula_structural   Tl2(CdSb)3
_chemical_formula_sum   'Tl4 Cd6 Sb6'
_cell_volume   478.74180986
_cell_formula_units_Z   2
loop_
 _symmetry_equiv_pos_site_id
 _symmetry_equiv_pos_as_xyz
  1  'x, y, z'
loop_
 _atom_site_type_symbol
 _atom_site_label
 _atom_site_symmetry_multiplicity
 _atom_site_fract_x
 _atom_site_fract_y
 _atom_site_fract_z
 _atom_site_occupancy
  Tl  Tl0  1  0.68870806  0.68870806  0.61105781  1
  Tl  Tl1  1  0.31129194  0.31129194  0.38894219  1
  Tl  Tl2  1  0.17668239  0.17668239  0.11156457  1
  Tl  Tl3  1  0.82331761  0.82331761  0.88843543  1
  Cd  Cd0  1  0.60665545  0.60665545  0.92922450  1
  Cd  Cd1  1  0.39334455  0.39334455  0.07077550  1
  Cd  Cd2  1  0.94534298  0.94534298  0.27395148  1
  Cd  Cd3  1  0.05465702  0.05465702  0.72604852  1
  Cd  Cd4  1  0.63311981  0.63311981  0.33962477  1
  Cd  Cd5  1  0.36688019  0.36688019  0.66037523  1
  Sb  Sb0  1  0.80920765  0.80920765  0.18567430  1
  Sb  Sb1  1  0.19079235  0.19079235  0.81432570  1
  Sb  Sb2  1  0.46722672  0.46722672  0.81353229  1
  Sb  Sb3  1  0.53277328  0.53277328  0.18646771  1
  Sb  Sb4  1  0.08713072  0.08713072  0.47064338  1
  Sb  Sb5  1  0.91286928  0.91286928  0.52935662  1
loop_
_geom_bond_atom_site_label_1
_geom_bond_atom_site_label_2
_geom_bond_distance
_geom_bond_site_symmetry_2
Cd0 Sb3 2.850119 1_556
Cd0 Sb1 2.934365 1_655
Cd0 Sb1 2.934365 1_565
Cd0 Sb2 3.240535 1_555
Cd1 Sb2 2.850119 1_554
Cd1 Sb0 2.934365 1_455
Cd1 Sb0 2.934365 1_545
Cd1 Sb3 3.240535 1_555
Cd2 Sb3 2.882905 1_655
Cd2 Sb3 2.882905 1_565
Cd2 Sb5 2.896151 1_555
Cd2 Sb0 2.957372 1_555
Cd2 Tl1 3.317224 1_565
Cd2 Tl1 3.317224 1_655
Cd3 Sb2 2.882905 1_545
Cd3 Sb2 2.882905 1_455
Cd3 Sb4 2.896151 1_555
Cd3 Sb1 2.957372 1_555
Cd3 Tl0 3.317224 1_545
Cd3 Tl0 3.317224 1_455
Cd4 Sb4 2.873993 1_655
Cd4 Sb4 2.873993 1_565
Cd4 Sb0 2.911346 1_555
Cd4 Sb3 2.994666 1_555
Cd5 Sb5 2.873993 1_455
Cd5 Sb5 2.873993 1_545
Cd5 Sb1 2.911346 1_555
Cd5 Sb2 2.994666 1_555
Sb0 Tl3 3.483150 1_554
Sb0 Tl1 3.486119 1_655
Sb0 Tl1 3.486119 1_565
Sb1 Tl2 3.483150 1_556
Sb1 Tl0 3.486119 1_545
Sb1 Tl0 3.486119 1_455
Sb2 Tl3 3.390830 1_545
Sb2 Tl3 3.390830 1_455
Sb3 Tl2 3.390830 1_565
Sb3 Tl2 3.390830 1_655
Sb4 Sb5 2.847373 1_445
