# generated using pymatgen
data_NaZr2Ge2P5SO24
_symmetry_space_group_name_H-M   'P 1'
_cell_length_a   8.62057900
_cell_length_b   8.63869082
_cell_length_c   22.56013948
_cell_angle_alpha   90.02783304
_cell_angle_beta   89.84228568
_cell_angle_gamma   119.98795414
_symmetry_Int_Tables_number   1
_chemical_formula_structural   NaZr2Ge2P5SO24
_chemical_formula_sum   'Na3 Zr6 Ge6 P15 S3 O72'
_cell_volume   1455.14947607
_cell_formula_units_Z   3
loop_
 _symmetry_equiv_pos_site_id
 _symmetry_equiv_pos_as_xyz
  1  'x, y, z'
loop_
 _atom_site_type_symbol
 _atom_site_label
 _atom_site_symmetry_multiplicity
 _atom_site_fract_x
 _atom_site_fract_y
 _atom_site_fract_z
 _atom_site_occupancy
  Na  Na0  1  0.67168032  0.33950678  0.83896407  1
  Na  Na1  1  0.66742391  0.33460578  0.32526021  1
  Na  Na2  1  0.33385134  0.66776323  0.16784991  1
  Zr  Zr0  1  0.99296238  0.99940567  0.86397954  1
  Zr  Zr1  1  0.00440961  0.99910224  0.64566534  1
  Zr  Zr2  1  0.66257136  0.32744018  0.69007942  1
  Zr  Zr3  1  0.65946941  0.32784541  0.46925266  1
  Zr  Zr4  1  0.33405637  0.67236941  0.51322825  1
  Zr  Zr5  1  0.33028511  0.65887588  0.81486620  1
  Ge  Ge0  1  0.00103555  0.00026761  0.34743114  1
  Ge  Ge1  1  0.99967553  0.00023282  0.14605908  1
  Ge  Ge2  1  0.66731676  0.33240247  0.18488083  1
  Ge  Ge3  1  0.67503481  0.34302027  0.99036160  1
  Ge  Ge4  1  0.33521327  0.65858569  0.02660410  1
  Ge  Ge5  1  0.33290325  0.66636096  0.30888210  1
  P  P0  1  0.28670774  0.00088722  0.24772981  1
  P  P1  1  0.71474763  0.71360387  0.24779349  1
  P  P2  1  0.99936984  0.28532582  0.24769545  1
  P  P3  1  0.28667988  0.28666614  0.75292406  1
  P  P4  1  -0.00001623  0.71136423  0.75307120  1
  P  P5  1  0.71064311  0.99867661  0.75212515  1
  P  P6  1  0.37636823  0.03967071  0.58104492  1
  P  P7  1  0.95724000  0.62539395  0.08651803  1
  P  P8  1  0.66806588  0.04645389  0.08514515  1
  P  P9  1  0.37892029  0.32861111  0.08619741  1
  P  P10  1  0.61041755  0.64805183  0.92578546  1
  P  P11  1  0.03781783  0.38845476  0.92589057  1
  P  P12  1  0.63064801  0.94696182  0.40683353  1
  P  P13  1  0.31614409  0.37132302  0.40755998  1
  P  P14  1  0.05136496  0.68189472  0.40716674  1
  S  S0  1  0.95958349  0.33599319  0.58094760  1
  S  S1  1  0.66348245  0.62266726  0.58107790  1
  S  S2  1  0.34769337  0.96163277  0.92417674  1
  O  O0  1  0.20728187  0.03825198  0.30392711  1
  O  O1  1  0.83167923  0.79353343  0.30371456  1
  O  O2  1  0.96197157  0.16851628  0.30372778  1
  O  O3  1  0.20132730  0.17320305  0.80779968  1
  O  O4  1  0.97109050  0.79784216  0.80772436  1
  O  O5  1  0.82552963  0.02730311  0.80709043  1
  O  O6  1  0.79335198  0.97842918  0.69487069  1
  O  O7  1  0.18383414  0.20386524  0.69557454  1
  O  O8  1  0.02049744  0.81554760  0.69558623  1
  O  O9  1  0.79609843  0.83321352  0.19259077  1
  O  O10  1  0.03703888  0.20378688  0.19242162  1
  O  O11  1  0.16704935  0.96347706  0.19283900  1
  O  O12  1  0.87814054  0.36099173  0.63523081  1
  O  O13  1  0.48723142  0.12857153  0.63702328  1
  O  O14  1  0.64504178  0.51932871  0.63539838  1
  O  O15  1  0.87375954  0.49720954  0.14020797  1
  O  O16  1  0.62410986  0.12758813  0.13985235  1
  O  O17  1  0.50451203  0.37346338  0.14047387  1
  O  O18  1  0.46258173  0.29541052  0.02976238  1
  O  O19  1  0.84014052  0.54619223  0.03006412  1
  O  O20  1  0.70315497  0.16545858  0.02907839  1
  O  O21  1  0.47037335  0.15603660  0.52657147  1
  O  O22  1  0.69044786  0.53786099  0.52844766  1
  O  O23  1  0.85081584  0.31636020  0.52832346  1
  O  O24  1  0.52503267  0.68936706  0.97894300  1
  O  O25  1  0.16229110  0.47755749  0.97898421  1
  O  O26  1  0.31353182  0.84605789  0.97586439  1
  O  O27  1  0.55204616  0.84284928  0.46517737  1
  O  O28  1  0.29201341  0.45040562  0.46571538  1
  O  O29  1  0.15783275  0.70862337  0.46511294  1
  O  O30  1  0.13654342  0.63673000  0.35476905  1
  O  O31  1  0.49972609  0.86226336  0.35490471  1
  O  O32  1  0.36146164  0.50073122  0.35496212  1
  O  O33  1  0.11173464  0.49777113  0.86854193  1
  O  O34  1  0.37671169  0.88700788  0.86888581  1
  O  O35  1  0.50197408  0.61670133  0.86854262  1
  O  O36  1  0.03444032  0.84736724  0.39937774  1
  O  O37  1  0.81369397  0.96507598  0.39923416  1
  O  O38  1  0.15261578  0.18748181  0.39952014  1
  O  O39  1  0.02130829  0.20483103  0.91696657  1
  O  O40  1  0.18793002  0.98067868  0.91682315  1
  O  O41  1  0.79627068  0.81287744  0.91719149  1
  O  O42  1  0.97084810  0.17294470  0.58597454  1
  O  O43  1  0.19313217  0.02356618  0.58604620  1
  O  O44  1  0.82112719  0.80124195  0.58575067  1
  O  O45  1  0.97469111  0.80940869  0.09617804  1
  O  O46  1  0.83458529  0.02760097  0.09493722  1
  O  O47  1  0.19344006  0.16302359  0.09536802  1
  O  O48  1  0.69407512  0.16776000  0.74846321  1
  O  O49  1  0.47532237  0.31083369  0.74828896  1
  O  O50  1  0.83440035  0.52507865  0.74714227  1
  O  O51  1  0.69439702  0.52367209  0.23998554  1
  O  O52  1  0.82904421  0.30529525  0.24000761  1
  O  O53  1  0.47696900  0.17066012  0.24012061  1
  O  O54  1  0.62856258  0.47891124  0.93305692  1
  O  O55  1  0.84764597  0.36511124  0.93303748  1
  O  O56  1  0.50924255  0.14148833  0.92981711  1
  O  O57  1  0.65009464  0.13494330  0.41487626  1
  O  O58  1  0.48687440  0.35386517  0.41477188  1
  O  O59  1  0.86479007  0.51362582  0.41625745  1
  O  O60  1  0.35851359  0.49893406  0.07852627  1
  O  O61  1  0.14757712  0.64593775  0.07725790  1
  O  O62  1  0.49727755  0.85676653  0.07619711  1
  O  O63  1  0.35994330  0.85723930  0.57523820  1
  O  O64  1  0.50171046  0.63432061  0.57592513  1
  O  O65  1  0.13720107  0.49202250  0.57590354  1
  O  O66  1  0.30823694  0.83179019  0.25579532  1
  O  O67  1  0.52360632  0.69190930  0.25589597  1
  O  O68  1  0.16815818  0.47598932  0.25562126  1
  O  O69  1  0.30332113  0.46921522  0.75742623  1
  O  O70  1  0.16656266  0.69646380  0.75895557  1
  O  O71  1  0.52733108  0.83647667  0.75964521  1
loop_
_geom_bond_atom_site_label_1
_geom_bond_atom_site_label_2
_geom_bond_distance
_geom_bond_site_symmetry_2
Na0 O54 2.556390 1_555
Na0 O55 2.556569 1_555
Na0 O50 2.562828 1_555
Na0 O56 2.584814 1_555
Na0 O48 2.586183 1_555
Na0 O49 2.590511 1_555
Na1 O52 2.458015 1_555
Na1 O51 2.458389 1_555
Na1 O53 2.465979 1_555
Na1 O58 2.601803 1_555
Na1 O57 2.613227 1_555
Na1 O59 2.624266 1_555
Na2 O66 2.510121 1_555
Na2 O68 2.515527 1_555
Na2 O67 2.518185 1_555
Na2 O61 2.550715 1_555
Na2 O60 2.556933 1_555
Na2 O62 2.571741 1_555
Ge0 O37 1.888281 1_445
Ge0 O36 1.893300 1_545
Ge0 O38 1.896866 1_555
Ge0 O0 1.907771 1_555
Ge0 O2 1.921072 1_455
Ge0 O1 1.921836 1_445
Ge1 O45 1.916979 1_545
Ge1 O47 1.928335 1_655
Ge1 O10 1.929702 1_655
Ge1 O9 1.929706 1_545
Ge1 O46 1.938327 1_555
Ge1 O11 1.939879 1_645
Ge2 O17 1.898669 1_555
Ge2 O16 1.908602 1_555
Ge2 O15 1.915353 1_555
Ge2 O52 1.970148 1_555
Ge2 O53 1.973941 1_555
Ge2 O51 1.985986 1_555
Ge3 O19 1.848482 1_556
Ge3 O20 1.883802 1_556
Ge3 O18 1.884665 1_556
Ge3 O55 1.904951 1_555
Ge3 O54 1.919470 1_555
Ge3 O56 2.111973 1_555
Ge4 O24 1.860142 1_554
Ge4 O25 1.870492 1_554
Ge4 O60 1.895887 1_555
Ge4 O61 1.935850 1_555
Ge4 O62 1.936599 1_555
Ge4 O26 2.067282 1_554
Ge5 O32 1.882434 1_555
Ge5 O30 1.886802 1_555
Ge5 O31 1.893098 1_555
Ge5 O67 1.951156 1_555
Ge5 O66 1.956708 1_555
Ge5 O68 1.959092 1_555
O0 P0 1.547939 1_555
O1 P1 1.547533 1_555
O2 P2 1.547229 1_555
O3 P3 1.519868 1_555
O3 Zr0 2.092945 1_445
O4 P4 1.524401 1_655
O4 Zr0 2.085460 1_555
O5 P5 1.530137 1_545
O5 Zr0 2.036367 1_545
O6 P5 1.525367 1_555
O6 Zr1 2.058832 1_655
O7 P3 1.530723 1_555
O7 Zr1 2.015388 1_545
O8 P4 1.537507 1_555
O8 Zr1 2.006089 1_555
O9 P1 1.543539 1_555
O10 P2 1.543423 1_455
O11 P0 1.541228 1_565
O12 S0 1.478468 1_555
O12 Zr2 2.125513 1_555
O13 P6 1.539494 1_555
O13 Zr2 2.020144 1_555
O14 S1 1.477202 1_555
O14 Zr2 2.132114 1_555
O15 P7 1.552783 1_555
O16 P8 1.555689 1_555
O17 P9 1.552149 1_555
O18 P9 1.557164 1_555
O19 P7 1.557252 1_555
O20 P8 1.560955 1_555
O21 P6 1.535867 1_555
O21 Zr3 2.025838 1_555
O22 S1 1.472558 1_555
O22 Zr3 2.159064 1_555
O23 S0 1.471177 1_555
O23 Zr3 2.163914 1_555
O24 P10 1.537757 1_555
O25 P11 1.535950 1_555
O26 S2 1.465819 1_555
O27 P12 1.545181 1_555
O27 Zr4 2.024657 1_555
O28 P13 1.539809 1_555
O28 Zr4 2.064576 1_555
O29 P14 1.548912 1_555
O29 Zr4 2.017226 1_555
O30 P14 1.539457 1_555
O31 P12 1.537064 1_555
O32 P13 1.540318 1_555
O33 P11 1.538458 1_555
O33 Zr5 2.078657 1_555
O34 S2 1.480813 1_555
O34 Zr5 2.177425 1_555
O35 P10 1.538906 1_555
O35 Zr5 2.083036 1_555
O36 P14 1.518027 1_555
O37 P12 1.515106 1_555
O38 P13 1.518390 1_555
O39 P11 1.533364 1_555
O39 Zr0 2.050359 1_445
O40 S2 1.476219 1_555
O40 Zr0 2.134316 1_455
O41 P10 1.532986 1_555
O41 Zr0 2.042573 1_555
O42 S0 1.463960 1_555
O42 Zr1 2.142635 1_645
O43 P6 1.518743 1_555
O43 Zr1 2.035942 1_545
O44 S1 1.463791 1_555
O44 Zr1 2.134215 1_655
O45 P7 1.535542 1_555
O46 P8 1.539953 1_555
O47 P9 1.535487 1_555
O48 P5 1.539310 1_545
O48 Zr2 2.022295 1_555
O49 P3 1.535828 1_555
O49 Zr2 2.026763 1_555
O50 P4 1.532885 1_655
O50 Zr2 2.060745 1_555
O51 P1 1.570367 1_555
O52 P2 1.571750 1_555
O53 P0 1.569919 1_555
O54 P10 1.554089 1_555
O55 P11 1.556396 1_655
O56 S2 1.485761 1_545
O57 P12 1.557520 1_545
O57 Zr3 2.037723 1_555
O58 P13 1.561609 1_555
O58 Zr3 2.029681 1_555
O59 P14 1.550265 1_655
O59 Zr3 2.070883 1_555
O60 P9 1.576382 1_555
O61 P7 1.573046 1_455
O62 P8 1.575816 1_565
O63 P6 1.515825 1_565
O63 Zr4 2.049554 1_555
O64 S1 1.452485 1_555
O64 Zr4 2.164281 1_555
O65 S0 1.452695 1_455
O65 Zr4 2.156940 1_555
O66 P0 1.572540 1_565
O67 P1 1.572670 1_555
O68 P2 1.570815 1_455
O69 P3 1.513788 1_555
O69 Zr5 2.009124 1_555
O70 P4 1.510678 1_555
O70 Zr5 2.038815 1_555
O71 P5 1.508195 1_555
O71 Zr5 2.043605 1_555
