# generated using pymatgen
data_Na5Hf2Sc2SiP5O24
_symmetry_space_group_name_H-M   'P 1'
_cell_length_a   9.03041768
_cell_length_b   9.01122921
_cell_length_c   22.73549676
_cell_angle_alpha   89.95278687
_cell_angle_beta   90.02507425
_cell_angle_gamma   120.06763485
_symmetry_Int_Tables_number   1
_chemical_formula_structural   Na5Hf2Sc2SiP5O24
_chemical_formula_sum   'Na15 Hf6 Sc6 Si3 P15 O72'
_cell_volume   1601.14408964
_cell_formula_units_Z   3
loop_
 _symmetry_equiv_pos_site_id
 _symmetry_equiv_pos_as_xyz
  1  'x, y, z'
loop_
 _atom_site_type_symbol
 _atom_site_label
 _atom_site_symmetry_multiplicity
 _atom_site_fract_x
 _atom_site_fract_y
 _atom_site_fract_z
 _atom_site_occupancy
  Na  Na0  1  0.00512615  0.64154326  0.25304766  1
  Na  Na1  1  0.63060538  0.64296368  0.75255152  1
  Na  Na2  1  0.36876058  0.99563889  0.75377269  1
  Na  Na3  1  0.66338434  0.97297508  0.58606567  1
  Na  Na4  1  0.29663806  0.97204315  0.08327607  1
  Na  Na5  1  0.68068046  0.69834447  0.08139881  1
  Na  Na6  1  0.02459857  0.33058289  0.08541282  1
  Na  Na7  1  0.96594652  0.29981189  0.41556694  1
  Na  Na8  1  0.33738137  0.03478335  0.41846247  1
  Na  Na9  1  0.00551027  0.98396278  0.49998561  1
  Na  Na10  1  0.00079219  0.99252370  0.99619831  1
  Na  Na11  1  0.68286423  0.32886690  0.84116338  1
  Na  Na12  1  0.65233733  0.33630028  0.33589766  1
  Na  Na13  1  0.34393240  0.66681460  0.17443917  1
  Na  Na14  1  0.31066973  0.64925935  0.66953456  1
  Hf  Hf0  1  0.99620668  0.00321085  0.85485714  1
  Hf  Hf1  1  0.00406743  0.00192829  0.64635803  1
  Hf  Hf2  1  0.66907628  0.32935106  0.68510993  1
  Hf  Hf3  1  0.66691264  0.33036126  0.18684492  1
  Hf  Hf4  1  0.33068192  0.66698833  0.01487428  1
  Hf  Hf5  1  0.33276668  0.66533493  0.52033302  1
  Sc  Sc0  1  0.99426338  0.99578282  0.35024177  1
  Sc  Sc1  1  -0.00026439  0.99955267  0.15189772  1
  Sc  Sc2  1  0.67053087  0.34025312  0.97846054  1
  Sc  Sc3  1  0.66149323  0.33877091  0.48294806  1
  Sc  Sc4  1  0.34220189  0.66691555  0.31460352  1
  Sc  Sc5  1  0.33032986  0.66530146  0.81618925  1
  Si  Si0  1  0.70535162  0.00103039  0.74888882  1
  Si  Si1  1  0.36867010  0.03761687  0.58095612  1
  Si  Si2  1  0.96217659  0.62916013  0.08408785  1
  P  P0  1  0.29634754  0.00016885  0.25129970  1
  P  P1  1  0.70345444  0.70344619  0.24770416  1
  P  P2  1  0.99953376  0.29732417  0.25027009  1
  P  P3  1  0.29109675  0.29132687  0.75014830  1
  P  P4  1  0.99831874  0.70991648  0.75098115  1
  P  P5  1  0.95995241  0.33399430  0.58069660  1
  P  P6  1  0.66667667  0.62772867  0.58483331  1
  P  P7  1  0.66610101  0.04129856  0.08201287  1
  P  P8  1  0.37629190  0.33441599  0.08257151  1
  P  P9  1  0.62940901  0.66630990  0.91498793  1
  P  P10  1  0.03797609  0.37056778  0.91677494  1
  P  P11  1  0.33411228  0.96587475  0.91471082  1
  P  P12  1  0.62899991  0.96102300  0.41769718  1
  P  P13  1  0.33295424  0.37229163  0.41543757  1
  P  P14  1  0.04110192  0.66618627  0.41421993  1
  O  O0  1  0.21040349  0.02049192  0.30698359  1
  O  O1  1  0.82434110  0.79374817  0.30003308  1
  O  O2  1  0.98164819  0.19162624  0.30584101  1
  O  O3  1  0.20909698  0.17432405  0.80420718  1
  O  O4  1  0.97320800  0.79734402  0.80539749  1
  O  O5  1  0.82791397  0.02084075  0.80485025  1
  O  O6  1  0.79242850  0.97439406  0.68947176  1
  O  O7  1  0.18317601  0.20202986  0.69516316  1
  O  O8  1  0.02646645  0.82514441  0.69650781  1
  O  O9  1  0.78412186  0.80116330  0.18983915  1
  O  O10  1  0.01420074  0.21158020  0.19363505  1
  O  O11  1  0.18643325  0.97772978  0.19568662  1
  O  O12  1  0.86974298  0.35894374  0.63490975  1
  O  O13  1  0.49264658  0.13283105  0.63879135  1
  O  O14  1  0.64744450  0.52702683  0.64228440  1
  O  O15  1  0.87764476  0.50850032  0.14356881  1
  O  O16  1  0.62974238  0.12153889  0.13710424  1
  O  O17  1  0.49134256  0.36333584  0.13744573  1
  O  O18  1  0.45253475  0.29496615  0.02914213  1
  O  O19  1  0.83133109  0.53545649  0.03025695  1
  O  O20  1  0.69503501  0.15436860  0.02868889  1
  O  O21  1  0.45905284  0.14579632  0.52153737  1
  O  O22  1  0.69233237  0.54097101  0.53133923  1
  O  O23  1  0.85380824  0.30586655  0.52463234  1
  O  O24  1  0.53838103  0.68363517  0.97143494  1
  O  O25  1  0.14270374  0.45726520  0.97457758  1
  O  O26  1  0.31525838  0.85278277  0.97081023  1
  O  O27  1  0.54387923  0.85710811  0.47496205  1
  O  O28  1  0.31303306  0.46363232  0.47031477  1
  O  O29  1  0.16121592  0.68814969  0.46738942  1
  O  O30  1  0.12198181  0.64211736  0.35766731  1
  O  O31  1  0.51106706  0.86890872  0.36517165  1
  O  O32  1  0.34896147  0.47813023  0.36055745  1
  O  O33  1  0.13393407  0.48147378  0.86389100  1
  O  O34  1  0.34824334  0.87559631  0.85922249  1
  O  O35  1  0.52641804  0.65533418  0.85964006  1
  O  O36  1  0.03266434  0.83367498  0.41230836  1
  O  O37  1  0.81048074  0.98432724  0.41263505  1
  O  O38  1  0.16714399  0.19198313  0.41294050  1
  O  O39  1  0.02828710  0.19334079  0.91392333  1
  O  O40  1  0.16801432  0.97652237  0.91314613  1
  O  O41  1  0.80937123  0.83123349  0.91360397  1
  O  O42  1  0.97028186  0.16859047  0.58917385  1
  O  O43  1  0.17814289  0.01245256  0.58734434  1
  O  O44  1  0.82137393  0.81364909  0.58846095  1
  O  O45  1  0.99124805  0.82391867  0.08935497  1
  O  O46  1  0.82518995  0.02105058  0.09011180  1
  O  O47  1  0.19205570  0.18282807  0.09125576  1
  O  O48  1  0.68102243  0.17068957  0.74627516  1
  O  O49  1  0.47254343  0.31041448  0.74325816  1
  O  O50  1  0.83063250  0.53579281  0.74398863  1
  O  O51  1  0.69126497  0.52348538  0.24435962  1
  O  O52  1  0.83500734  0.31568481  0.24698419  1
  O  O53  1  0.47649138  0.16067065  0.24519059  1
  O  O54  1  0.64574785  0.50545826  0.91900823  1
  O  O55  1  0.85937710  0.34884665  0.92113999  1
  O  O56  1  0.49361630  0.14216160  0.92063329  1
  O  O57  1  0.64781337  0.14271890  0.42043012  1
  O  O58  1  0.48979341  0.34642005  0.41915218  1
  O  O59  1  0.86507743  0.50282241  0.42149120  1
  O  O60  1  0.36655975  0.50276148  0.07659745  1
  O  O61  1  0.15363540  0.64623919  0.07727633  1
  O  O62  1  0.50508800  0.85777028  0.07631782  1
  O  O63  1  0.36080933  0.84998438  0.57832961  1
  O  O64  1  0.50521273  0.64699483  0.57860121  1
  O  O65  1  0.14155668  0.49091785  0.57710809  1
  O  O66  1  0.30897697  0.83481606  0.25451752  1
  O  O67  1  0.52466827  0.68165862  0.25403281  1
  O  O68  1  0.15422537  0.48274404  0.25311714  1
  O  O69  1  0.31597162  0.47269792  0.75491476  1
  O  O70  1  0.15808306  0.69116417  0.75535142  1
  O  O71  1  0.51341248  0.83028148  0.75360485  1
loop_
_geom_bond_atom_site_label_1
_geom_bond_atom_site_label_2
_geom_bond_distance
_geom_bond_site_symmetry_2
Na0 O66 2.403074 1_555
Na0 O68 2.406492 1_555
Na0 O51 2.486456 1_455
Na0 O52 2.545912 1_455
Na0 O30 2.600689 1_555
Na0 O15 2.752712 1_455
Na0 O1 2.816953 1_455
Na0 O11 2.929879 1_555
Na1 O71 2.399981 1_555
Na1 O50 2.445815 1_555
Na1 O69 2.462016 1_555
Na1 O49 2.603223 1_555
Na1 O35 2.633059 1_555
Na1 O14 2.750158 1_555
Na1 O4 2.938950 1_555
Na1 O6 2.955245 1_555
Na2 O71 2.424272 1_555
Na2 O70 2.432694 1_555
Na2 O48 2.451873 1_565
Na2 O49 2.513278 1_565
Na2 O34 2.597602 1_555
Na2 O13 2.867945 1_565
Na2 O3 2.883950 1_565
Na2 O8 2.975096 1_555
Na3 O63 2.385492 1_555
Na3 O42 2.428526 1_565
Na3 O44 2.480348 1_555
Na3 O64 2.548346 1_555
Na3 O6 2.620689 1_555
Na3 O27 2.740132 1_555
Na3 O13 2.849436 1_565
Na3 O23 2.955111 1_565
Na4 O45 2.391160 1_455
Na4 O47 2.516135 1_565
Na4 O61 2.550911 1_555
Na4 O62 2.563522 1_555
Na4 O11 2.752860 1_555
Na4 O18 2.802681 1_565
Na4 O26 2.811988 1_554
Na4 O16 2.880956 1_565
Na5 O45 2.449194 1_555
Na5 O60 2.480940 1_555
Na5 O46 2.529163 1_565
Na5 O62 2.621798 1_555
Na5 O9 2.635136 1_555
Na5 O19 2.713375 1_555
Na5 O24 2.783223 1_554
Na5 O17 2.912720 1_555
Na6 O46 2.449644 1_455
Na6 O47 2.468657 1_555
Na6 O61 2.482132 1_555
Na6 O10 2.666031 1_555
Na6 O60 2.680021 1_555
Na6 O25 2.751025 1_554
Na6 O15 2.866480 1_455
Na6 O20 2.882079 1_455
Na7 O59 2.421725 1_555
Na7 O38 2.453171 1_655
Na7 O37 2.461382 1_545
Na7 O57 2.488860 1_555
Na7 O23 2.689782 1_555
Na7 O2 2.708641 1_555
Na8 O36 2.424637 1_545
Na8 O58 2.430594 1_555
Na8 O57 2.464641 1_555
Na8 O38 2.562702 1_555
Na8 O21 2.569044 1_555
Na8 O0 2.757766 1_555
Na8 O31 2.918236 1_545
Na8 O29 2.922590 1_545
Na9 O43 2.457249 1_565
Na9 O36 2.491069 1_555
Na9 O44 2.570465 1_455
Na9 O38 2.610660 1_565
Na9 O37 2.654917 1_455
Na9 O42 2.741785 1_465
Na10 O40 2.467327 1_555
Na10 O41 2.472018 1_455
Na10 O39 2.525854 1_565
Na10 O45 2.581710 1_456
Na10 O46 2.748092 1_466
Na10 O47 2.762163 1_566
Na11 O55 2.364292 1_555
Na11 O56 2.476344 1_555
Na11 O54 2.513275 1_555
Na11 O48 2.582115 1_555
Na11 O50 2.764265 1_555
Na11 O49 2.875782 1_555
Na12 O58 2.425393 1_555
Na12 O57 2.580970 1_555
Na12 O51 2.588569 1_555
Na12 O53 2.600680 1_555
Na12 O59 2.615774 1_555
Na12 O52 2.674450 1_555
Na13 O67 2.394873 1_555
Na13 O68 2.456882 1_555
Na13 O66 2.487991 1_555
Na13 O60 2.735690 1_555
Na13 O62 2.746397 1_555
Na13 O61 2.746898 1_555
Na14 O69 2.524471 1_555
Na14 O70 2.524472 1_555
Na14 O65 2.569532 1_555
Na14 O71 2.583745 1_555
Na14 O63 2.636371 1_555
Na14 O64 2.720322 1_555
Hf0 O5 1.966628 1_555
Hf0 O39 2.080579 1_655
Hf0 O4 2.089550 1_545
Hf0 O41 2.100178 1_545
Hf0 O3 2.104330 1_655
Hf0 O40 2.143076 1_645
Hf1 O43 2.032860 1_555
Hf1 O7 2.044009 1_555
Hf1 O8 2.048998 1_545
Hf1 O6 2.049656 1_445
Hf1 O42 2.120011 1_455
Hf1 O44 2.128389 1_445
Hf2 O13 1.989423 1_555
Hf2 O48 2.034884 1_555
Hf2 O12 2.043172 1_555
Hf2 O14 2.122466 1_555
Hf2 O49 2.150561 1_555
Hf2 O50 2.159610 1_555
Hf3 O15 2.025908 1_555
Hf3 O16 2.074314 1_555
Hf3 O17 2.081673 1_555
Hf3 O52 2.095295 1_555
Hf3 O51 2.099249 1_555
Hf3 O53 2.102060 1_555
Hf4 O26 2.014171 1_554
Hf4 O25 2.019746 1_554
Hf4 O24 2.057970 1_554
Hf4 O61 2.075081 1_555
Hf4 O62 2.162500 1_555
Hf4 O60 2.177368 1_555
Hf5 O63 2.037770 1_555
Hf5 O29 2.051391 1_555
Hf5 O28 2.075392 1_555
Hf5 O27 2.093427 1_555
Hf5 O65 2.096940 1_555
Hf5 O64 2.112599 1_555
O0 P0 1.543474 1_555
O0 Sc0 2.095791 1_445
O1 P1 1.542610 1_555
O1 Sc0 2.043216 1_555
O2 P2 1.540645 1_555
O2 Sc0 2.084447 1_545
O3 P3 1.544951 1_555
O4 P4 1.543885 1_555
O5 Si0 1.636088 1_555
O6 Si0 1.640550 1_565
O7 P3 1.541055 1_555
O8 P4 1.552509 1_455
O9 P1 1.546924 1_555
O9 Sc1 2.059654 1_655
O10 P2 1.541707 1_455
O10 Sc1 2.078654 1_545
O11 P0 1.556593 1_565
O11 Sc1 2.050049 1_555
O12 P5 1.555068 1_555
O13 Si1 1.660300 1_555
O14 P6 1.549209 1_555
O15 Si2 1.661477 1_555
O16 P7 1.561794 1_555
O17 P8 1.559462 1_555
O18 P8 1.524046 1_555
O18 Sc2 2.136782 1_554
O19 Si2 1.614833 1_555
O19 Sc2 2.007971 1_554
O20 P7 1.519107 1_555
O20 Sc2 2.127647 1_554
O21 Si1 1.625717 1_555
O21 Sc3 1.987228 1_555
O22 P6 1.525571 1_555
O22 Sc3 2.025464 1_555
O23 P5 1.537452 1_555
O23 Sc3 2.125145 1_555
O24 P9 1.573827 1_555
O25 P10 1.578623 1_555
O26 P11 1.586978 1_555
O27 P12 1.562171 1_555
O28 P13 1.554594 1_555
O29 P14 1.568794 1_555
O30 P14 1.547149 1_555
O30 Sc4 2.125891 1_555
O31 P12 1.537532 1_555
O31 Sc4 2.044725 1_555
O32 P13 1.532116 1_555
O32 Sc4 2.022477 1_555
O33 P10 1.525274 1_555
O33 Sc5 2.029899 1_555
O34 P11 1.541258 1_555
O34 Sc5 2.066452 1_555
O35 P9 1.537939 1_555
O35 Sc5 2.068150 1_555
O36 P14 1.549433 1_555
O36 Sc0 2.179263 1_455
O37 P12 1.548687 1_555
O37 Sc0 2.146497 1_555
O38 P13 1.564432 1_555
O38 Sc0 2.198075 1_445
O39 P10 1.556445 1_555
O40 P11 1.550623 1_555
O41 P9 1.559022 1_555
O42 P5 1.551206 1_555
O43 Si1 1.625420 1_555
O44 P6 1.555670 1_555
O45 Si2 1.643768 1_555
O45 Sc1 2.101123 1_655
O46 P7 1.547096 1_555
O46 Sc1 2.190631 1_645
O47 P8 1.547731 1_555
O47 Sc1 2.183780 1_545
O48 Si0 1.650927 1_555
O49 P3 1.567388 1_555
O50 P4 1.549072 1_555
O51 P1 1.571315 1_555
O52 P2 1.576892 1_555
O53 P0 1.549112 1_555
O54 P9 1.531392 1_555
O54 Sc2 2.103241 1_555
O55 P10 1.527461 1_655
O55 Sc2 2.117087 1_555
O56 P11 1.524381 1_545
O56 Sc2 2.147479 1_555
O57 P12 1.560420 1_545
O57 Sc3 2.223058 1_555
O58 P13 1.548608 1_555
O58 Sc3 2.148855 1_555
O59 P14 1.541493 1_655
O59 Sc3 2.189315 1_555
O60 P8 1.568663 1_555
O61 Si2 1.664484 1_455
O62 P7 1.567364 1_565
O63 Si1 1.657499 1_565
O64 P6 1.558740 1_555
O65 P5 1.540097 1_455
O66 P0 1.551983 1_565
O66 Sc4 2.167132 1_555
O67 P1 1.532459 1_555
O67 Sc4 2.100350 1_555
O68 P2 1.551977 1_455
O68 Sc4 2.183762 1_555
O69 P3 1.538108 1_555
O69 Sc5 2.179030 1_555
O70 P4 1.537551 1_455
O70 Sc5 2.178942 1_555
O71 Si0 1.646438 1_565
O71 Sc5 2.122230 1_555
