# generated using pymatgen
data_Na2AlGaSi(SO6)2
_symmetry_space_group_name_H-M   'P 1'
_cell_length_a   8.59902253
_cell_length_b   8.60292044
_cell_length_c   21.91439310
_cell_angle_alpha   89.89844741
_cell_angle_beta   89.92186668
_cell_angle_gamma   119.88566607
_symmetry_Int_Tables_number   1
_chemical_formula_structural   Na2AlGaSi(SO6)2
_chemical_formula_sum   'Na12 Al6 Ga6 Si6 S12 O72'
_cell_volume   1405.56887985
_cell_formula_units_Z   6
loop_
 _symmetry_equiv_pos_site_id
 _symmetry_equiv_pos_as_xyz
  1  'x, y, z'
loop_
 _atom_site_type_symbol
 _atom_site_label
 _atom_site_symmetry_multiplicity
 _atom_site_fract_x
 _atom_site_fract_y
 _atom_site_fract_z
 _atom_site_occupancy
  Na  Na0  1  -0.00003151  0.62487731  0.25023687  1
  Na  Na1  1  0.37414253  0.99938211  0.75070186  1
  Na  Na2  1  0.66289141  0.97128337  0.58910832  1
  Na  Na3  1  0.02935692  0.33928741  0.08930862  1
  Na  Na4  1  0.97934459  0.67449082  0.92172465  1
  Na  Na5  1  0.32690977  0.02350041  0.42149035  1
  Na  Na6  1  0.00767739  0.99314405  0.50049083  1
  Na  Na7  1  0.00824313  0.99193071  0.00036718  1
  Na  Na8  1  0.66182636  0.31645285  0.83474417  1
  Na  Na9  1  0.68350901  0.33762517  0.33408713  1
  Na  Na10  1  0.33598091  0.66650593  0.16631840  1
  Na  Na11  1  0.33484916  0.66438865  0.66720708  1
  Al  Al0  1  0.00631262  0.01303232  0.85339904  1
  Al  Al1  1  0.00121266  0.99347739  0.14804408  1
  Al  Al2  1  0.65778905  0.33208641  0.98206174  1
  Al  Al3  1  0.32103438  0.68306291  0.01785418  1
  Al  Al4  1  0.31910210  0.67913634  0.51847408  1
  Al  Al5  1  0.35895471  0.69159805  0.81540621  1
  Ga  Ga0  1  0.98814785  0.99431251  0.35231053  1
  Ga  Ga1  1  0.00578399  0.99905083  0.65014222  1
  Ga  Ga2  1  0.66907923  0.31414489  0.68536867  1
  Ga  Ga3  1  0.68536023  0.33152051  0.18424632  1
  Ga  Ga4  1  0.66725324  0.34074935  0.48250865  1
  Ga  Ga5  1  0.30514983  0.63651130  0.31456893  1
  Si  Si0  1  0.99902054  0.27797594  0.24792575  1
  Si  Si1  1  0.71890626  0.99790343  0.75078911  1
  Si  Si2  1  0.36802092  0.04014361  0.58190221  1
  Si  Si3  1  0.95672704  0.63133811  0.08068839  1
  Si  Si4  1  0.33788376  0.96941356  0.91509234  1
  Si  Si5  1  0.03137353  0.66307728  0.41598508  1
  S  S0  1  0.29711342  0.00780565  0.24869350  1
  S  S1  1  0.70454738  0.71040269  0.24926528  1
  S  S2  1  0.28975473  0.29955003  0.75259464  1
  S  S3  1  0.99632652  0.70247061  0.75213934  1
  S  S4  1  0.96681995  0.34152948  0.58220615  1
  S  S5  1  0.66135342  0.62036841  0.58364023  1
  S  S6  1  0.66115775  0.03671165  0.08147112  1
  S  S7  1  0.38062597  0.33595015  0.08278332  1
  S  S8  1  0.61575990  0.66593129  0.91797554  1
  S  S9  1  0.05052742  0.37864594  0.91647850  1
  S  S10  1  0.61961036  0.94801789  0.41722943  1
  S  S11  1  0.33472971  0.38440257  0.41930387  1
  O  O0  1  0.22348710  0.03347519  0.30652831  1
  O  O1  1  0.81994757  0.77920747  0.30442462  1
  O  O2  1  0.96894433  0.16293872  0.30972886  1
  O  O3  1  0.20907018  0.17497340  0.80522047  1
  O  O4  1  0.97109592  0.78637943  0.80733298  1
  O  O5  1  0.84468503  0.02539772  0.80858758  1
  O  O6  1  0.79848600  0.96945942  0.68604841  1
  O  O7  1  0.18534416  0.22527759  0.69584877  1
  O  O8  1  0.04369307  0.82206709  0.69743640  1
  O  O9  1  0.79246300  0.82145878  0.19471804  1
  O  O10  1  0.02262904  0.18735621  0.18600756  1
  O  O11  1  0.17229940  0.96829377  0.19640357  1
  O  O12  1  0.89409682  0.38070720  0.63799072  1
  O  O13  1  0.49639857  0.12115370  0.64262400  1
  O  O14  1  0.63777352  0.51384847  0.63932300  1
  O  O15  1  0.87933242  0.50335695  0.14199102  1
  O  O16  1  0.61946319  0.10559853  0.13770126  1
  O  O17  1  0.48603179  0.36189724  0.13882507  1
  O  O18  1  0.46272984  0.30315505  0.02861144  1
  O  O19  1  0.83298517  0.53034505  0.02074546  1
  O  O20  1  0.69645189  0.15850861  0.02884082  1
  O  O21  1  0.45988926  0.15966701  0.52023587  1
  O  O22  1  0.69796632  0.54518787  0.52835077  1
  O  O23  1  0.84736462  0.30322900  0.52871013  1
  O  O24  1  0.52895510  0.68898643  0.97245174  1
  O  O25  1  0.15743728  0.45471601  0.97321519  1
  O  O26  1  0.28815016  0.83027474  0.97205112  1
  O  O27  1  0.53851427  0.84134565  0.47371309  1
  O  O28  1  0.31611937  0.47575686  0.47280852  1
  O  O29  1  0.16909423  0.70827554  0.47226297  1
  O  O30  1  0.11407120  0.63526262  0.35201819  1
  O  O31  1  0.50842101  0.86510781  0.36214674  1
  O  O32  1  0.36952741  0.49002728  0.36187922  1
  O  O33  1  0.13717142  0.49503757  0.86279872  1
  O  O34  1  0.36428309  0.87551458  0.85390318  1
  O  O35  1  0.50556318  0.63445784  0.86234426  1
  O  O36  1  0.02539974  0.85259924  0.40899208  1
  O  O37  1  0.80013073  0.96833336  0.41445682  1
  O  O38  1  0.17186330  0.20469100  0.41562601  1
  O  O39  1  0.02861246  0.19713015  0.91052357  1
  O  O40  1  0.15028966  0.97799901  0.90557759  1
  O  O41  1  0.79773474  0.82673976  0.91182742  1
  O  O42  1  0.97768609  0.17523427  0.58826929  1
  O  O43  1  0.17011452  0.01948946  0.59074878  1
  O  O44  1  0.81948670  0.80529555  0.58708921  1
  O  O45  1  0.97864570  0.82863732  0.09209471  1
  O  O46  1  0.82802744  0.02659641  0.08805729  1
  O  O47  1  0.19642533  0.17582278  0.08742386  1
  O  O48  1  0.68998420  0.17562492  0.74797810  1
  O  O49  1  0.47156398  0.31964355  0.74679114  1
  O  O50  1  0.82993547  0.52941713  0.74343923  1
  O  O51  1  0.67937934  0.52713166  0.24276769  1
  O  O52  1  0.82362880  0.30951434  0.24636257  1
  O  O53  1  0.47153885  0.17257275  0.23956159  1
  O  O54  1  0.64098260  0.50639237  0.92234989  1
  O  O55  1  0.87038209  0.36395241  0.92203600  1
  O  O56  1  0.51520238  0.16428477  0.92717574  1
  O  O57  1  0.63420835  0.12803760  0.42117626  1
  O  O58  1  0.49245460  0.35654813  0.42173661  1
  O  O59  1  0.83566916  0.48446630  0.42441852  1
  O  O60  1  0.36118538  0.49725133  0.07435448  1
  O  O61  1  0.15249141  0.63868122  0.07468538  1
  O  O62  1  0.50669320  0.85421767  0.07268913  1
  O  O63  1  0.36226320  0.84632751  0.57596205  1
  O  O64  1  0.49806402  0.63628073  0.57604778  1
  O  O65  1  0.14753813  0.49670187  0.57377996  1
  O  O66  1  0.31935360  0.84693891  0.25240280  1
  O  O67  1  0.53052154  0.70424210  0.25659861  1
  O  O68  1  0.17744202  0.48346164  0.24986896  1
  O  O69  1  0.30141982  0.47484590  0.76285713  1
  O  O70  1  0.15491465  0.67669406  0.75873149  1
  O  O71  1  0.51399271  0.82201052  0.75538029  1
loop_
_geom_bond_atom_site_label_1
_geom_bond_atom_site_label_2
_geom_bond_distance
_geom_bond_site_symmetry_2
Na0 O52 2.359788 1_455
Na0 O68 2.378937 1_555
Na0 O30 2.421780 1_555
Na0 O66 2.442677 1_555
Na0 O51 2.454624 1_455
Na0 O15 2.594389 1_455
Na0 O1 2.760064 1_455
Na0 O11 2.817105 1_555
Na1 O48 2.360992 1_565
Na1 O71 2.369298 1_555
Na1 O49 2.449290 1_565
Na1 O70 2.464433 1_555
Na1 O34 2.481622 1_555
Na1 O13 2.588273 1_565
Na1 O8 2.731230 1_555
Na1 O3 2.804064 1_565
Na2 O63 2.270499 1_555
Na2 O42 2.381804 1_565
Na2 O44 2.402209 1_555
Na2 O6 2.428504 1_555
Na2 O64 2.515965 1_555
Na2 O13 2.632055 1_565
Na2 O27 2.759409 1_555
Na2 O23 2.808880 1_565
Na3 O61 2.266326 1_555
Na3 O46 2.365102 1_455
Na3 O47 2.461005 1_555
Na3 O10 2.473217 1_555
Na3 O60 2.495533 1_555
Na3 O15 2.608778 1_455
Na3 O25 2.750479 1_554
Na3 O20 2.819652 1_455
Na4 O40 2.296528 1_655
Na4 O55 2.349573 1_555
Na4 O41 2.497934 1_555
Na4 O19 2.501652 1_556
Na4 O54 2.522675 1_555
Na4 O26 2.555482 1_655
Na4 O4 2.697352 1_555
Na4 O33 2.825426 1_655
Na5 O36 2.272299 1_545
Na5 O57 2.328771 1_555
Na5 O21 2.458321 1_555
Na5 O58 2.484200 1_555
Na5 O38 2.508908 1_555
Na5 O29 2.598369 1_545
Na5 O0 2.688246 1_555
Na5 O31 2.846825 1_545
Na6 O43 2.368193 1_565
Na6 O36 2.386861 1_555
Na6 O38 2.486846 1_565
Na6 O44 2.491272 1_455
Na6 O37 2.533054 1_455
Na6 O42 2.575396 1_465
Na7 O45 2.389822 1_455
Na7 O40 2.441553 1_554
Na7 O47 2.495784 1_565
Na7 O41 2.552806 1_454
Na7 O46 2.576382 1_465
Na7 O39 2.588833 1_564
Na8 O48 2.332616 1_555
Na8 O56 2.396911 1_555
Na8 O55 2.514830 1_555
Na8 O49 2.538831 1_555
Na8 O54 2.586498 1_555
Na8 O50 2.605709 1_555
Na9 O52 2.343438 1_555
Na9 O59 2.365422 1_555
Na9 O57 2.509385 1_555
Na9 O58 2.583409 1_555
Na9 O51 2.590431 1_555
Na9 O53 2.659149 1_555
Na10 O68 2.352508 1_555
Na10 O61 2.492630 1_555
Na10 O66 2.493908 1_555
Na10 O67 2.507621 1_555
Na10 O60 2.559771 1_555
Na10 O62 2.567174 1_555
Na11 O71 2.425112 1_555
Na11 O63 2.474607 1_555
Na11 O64 2.520184 1_555
Na11 O65 2.563430 1_555
Na11 O70 2.565849 1_555
Na11 O69 2.579607 1_555
Al0 O5 1.748718 1_455
Al0 O40 1.818137 1_545
Al0 O3 1.914326 1_555
Al0 O39 1.953788 1_555
Al0 O4 2.081396 1_445
Al0 O41 2.132324 1_445
Al1 O10 1.790881 1_565
Al1 O45 1.812338 1_455
Al1 O11 1.911933 1_555
Al1 O9 1.949552 1_455
Al1 O47 2.099000 1_565
Al1 O46 2.110433 1_465
Al2 O56 1.811158 1_555
Al2 O19 1.829015 1_556
Al2 O18 1.869323 1_556
Al2 O20 1.970165 1_556
Al2 O54 2.047274 1_555
Al2 O55 2.154105 1_555
Al3 O26 1.744853 1_554
Al3 O61 1.799801 1_555
Al3 O62 1.956977 1_555
Al3 O25 2.012861 1_554
Al3 O24 2.023207 1_554
Al3 O60 2.179837 1_555
Al4 O29 1.754189 1_555
Al4 O63 1.808147 1_555
Al4 O65 1.946690 1_555
Al4 O27 1.958470 1_555
Al4 O28 2.006236 1_555
Al4 O64 2.159873 1_555
Al5 O34 1.774777 1_555
Al5 O71 1.807172 1_555
Al5 O35 1.873062 1_555
Al5 O69 2.034165 1_555
Al5 O33 2.085619 1_555
Al5 O70 2.102316 1_555
Ga0 O2 1.799125 1_565
Ga0 O36 1.875299 1_655
Ga0 O1 1.990324 1_555
Ga0 O37 2.037515 1_555
Ga0 O0 2.128198 1_665
Ga0 O38 2.205019 1_665
Ga1 O6 1.845189 1_455
Ga1 O43 1.862357 1_565
Ga1 O8 1.997153 1_555
Ga1 O7 2.047329 1_565
Ga1 O42 2.133715 1_465
Ga1 O44 2.146439 1_455
Ga2 O13 1.841572 1_555
Ga2 O48 1.882359 1_555
Ga2 O12 2.009500 1_555
Ga2 O50 2.103063 1_555
Ga2 O14 2.120803 1_555
Ga2 O49 2.184674 1_555
Ga3 O15 1.832667 1_555
Ga3 O52 1.878907 1_555
Ga3 O16 2.012491 1_555
Ga3 O53 2.049986 1_555
Ga3 O17 2.108809 1_555
Ga3 O51 2.138452 1_555
Ga4 O59 1.857837 1_555
Ga4 O21 1.874339 1_555
Ga4 O22 1.927781 1_555
Ga4 O23 2.007321 1_555
Ga4 O58 2.063934 1_555
Ga4 O57 2.174283 1_555
Ga5 O30 1.830866 1_555
Ga5 O68 1.876130 1_555
Ga5 O32 1.913526 1_555
Ga5 O67 2.138806 1_555
Ga5 O31 2.143949 1_555
Ga5 O66 2.217766 1_555
O0 S0 1.481241 1_555
O1 S1 1.488860 1_555
O2 Si0 1.618602 1_555
O3 S2 1.487418 1_555
O4 S3 1.479723 1_555
O5 Si1 1.606216 1_545
O6 Si1 1.645136 1_555
O7 S2 1.481538 1_555
O8 S3 1.496076 1_455
O9 S1 1.478830 1_555
O10 Si0 1.628150 1_455
O11 S0 1.490548 1_565
O12 S4 1.486117 1_555
O13 Si2 1.647927 1_555
O14 S5 1.476511 1_555
O15 Si3 1.649849 1_555
O16 S6 1.487050 1_555
O17 S7 1.477169 1_555
O18 S7 1.478096 1_555
O19 Si3 1.642936 1_555
O20 S6 1.482603 1_555
O21 Si2 1.640204 1_555
O22 S5 1.479917 1_555
O23 S4 1.485071 1_555
O24 S8 1.472291 1_555
O25 S9 1.491911 1_555
O26 Si4 1.629987 1_555
O27 S10 1.488790 1_555
O28 S11 1.464981 1_555
O29 Si5 1.619099 1_555
O30 Si5 1.641957 1_555
O31 S10 1.485464 1_555
O32 S11 1.490917 1_555
O33 S9 1.480382 1_555
O34 Si4 1.639485 1_555
O35 S8 1.485306 1_555
O36 Si5 1.663450 1_555
O37 S10 1.474182 1_555
O38 S11 1.483625 1_555
O39 S9 1.482756 1_555
O40 Si4 1.664543 1_555
O41 S8 1.490668 1_555
O42 S4 1.485141 1_555
O43 Si2 1.631846 1_555
O44 S5 1.493529 1_555
O45 Si3 1.631510 1_555
O46 S6 1.487395 1_555
O47 S7 1.497174 1_555
O48 Si1 1.667901 1_545
O49 S2 1.490061 1_555
O50 S3 1.476128 1_555
O51 S1 1.487893 1_555
O52 Si0 1.660527 1_555
O53 S0 1.475949 1_555
O54 S8 1.495404 1_555
O55 S9 1.494903 1_655
O56 Si4 1.631214 1_545
O57 S10 1.492805 1_545
O58 S11 1.491239 1_555
O59 Si5 1.627420 1_655
O60 S7 1.489301 1_555
O61 Si3 1.657849 1_455
O62 S6 1.479788 1_565
O63 Si2 1.648662 1_565
O64 S5 1.486643 1_555
O65 S4 1.470406 1_455
O66 S0 1.490578 1_565
O67 S1 1.479284 1_555
O68 Si0 1.666849 1_455
O69 S2 1.478307 1_555
O70 S3 1.493825 1_455
O71 Si1 1.657282 1_555
