# generated using pymatgen
data_HoSiRu
_symmetry_space_group_name_H-M   'P 1'
_cell_length_a   4.31475016
_cell_length_b   6.95640207
_cell_length_c   7.02908697
_cell_angle_alpha   90.00000000
_cell_angle_beta   90.00000000
_cell_angle_gamma   90.00000000
_symmetry_Int_Tables_number   1
_chemical_formula_structural   HoSiRu
_chemical_formula_sum   'Ho4 Si4 Ru4'
_cell_volume   210.97900800
_cell_formula_units_Z   4
loop_
 _symmetry_equiv_pos_site_id
 _symmetry_equiv_pos_as_xyz
  1  'x, y, z'
loop_
 _atom_site_type_symbol
 _atom_site_label
 _atom_site_symmetry_multiplicity
 _atom_site_fract_x
 _atom_site_fract_y
 _atom_site_fract_z
 _atom_site_occupancy
  Ho  Ho0  1  0.25000000  0.98499579  0.18713540  1
  Ho  Ho1  1  0.75000000  0.01500421  0.81286460  1
  Ho  Ho2  1  0.25000000  0.48499579  0.31286460  1
  Ho  Ho3  1  0.75000000  0.51500421  0.68713540  1
  Si  Si0  1  0.25000000  0.30459524  0.89327097  1
  Si  Si1  1  0.75000000  0.69540476  0.10672903  1
  Si  Si2  1  0.25000000  0.80459524  0.60672903  1
  Si  Si3  1  0.75000000  0.19540476  0.39327097  1
  Ru  Ru0  1  0.75000000  0.84751820  0.43311253  1
  Ru  Ru1  1  0.25000000  0.15248180  0.56688747  1
  Ru  Ru2  1  0.75000000  0.34751820  0.06688747  1
  Ru  Ru3  1  0.25000000  0.65248180  0.93311253  1
loop_
_geom_bond_atom_site_label_1
_geom_bond_atom_site_label_2
_geom_bond_distance
_geom_bond_site_symmetry_2
Ho0 Ru1 2.912503 1_565
Ho0 Ru3 2.922092 1_554
Ho0 Ru0 2.925456 1_455
Ho0 Ru0 2.925456 1_555
Ho0 Si3 2.982632 1_465
Ho0 Si3 2.982632 1_565
Ho0 Si1 3.005321 1_455
Ho0 Si1 3.005321 1_555
Ho0 Si0 3.034731 1_564
Ho0 Si2 3.205245 1_555
Ho1 Ru0 2.912503 1_545
Ho1 Ru2 2.922092 1_556
Ho1 Ru1 2.925456 1_655
Ho1 Ru1 2.925456 1_555
Ho1 Si2 2.982632 1_545
Ho1 Si2 2.982632 1_645
Ho1 Si0 3.005321 1_655
Ho1 Si0 3.005321 1_555
Ho1 Si1 3.034731 1_546
Ho1 Si3 3.205245 1_555
Ho2 Ru3 2.912503 1_554
Ho2 Ru1 2.922092 1_555
Ho2 Ru2 2.925456 1_455
Ho2 Ru2 2.925456 1_555
Ho2 Si1 2.982632 1_455
Ho2 Si1 2.982632 1_555
Ho2 Si3 3.005321 1_555
Ho2 Si3 3.005321 1_455
Ho2 Si2 3.034731 1_555
Ho2 Si0 3.205245 1_554
Ho3 Ru2 2.912503 1_556
Ho3 Ru0 2.922092 1_555
Ho3 Ru3 2.925456 1_655
Ho3 Ru3 2.925456 1_555
Ho3 Si0 2.982632 1_655
Ho3 Si0 2.982632 1_555
Ho3 Si2 3.005321 1_555
Ho3 Si2 3.005321 1_655
Ho3 Si3 3.034731 1_555
Ho3 Si1 3.205245 1_556
Ru0 Si3 2.436189 1_565
Ru0 Si2 2.496541 1_555
Ru0 Si2 2.496541 1_655
Ru0 Si1 2.526452 1_555
Ru1 Si2 2.436189 1_545
Ru1 Si3 2.496541 1_455
Ru1 Si3 2.496541 1_555
Ru1 Si0 2.526452 1_555
Ru2 Si1 2.436189 1_555
Ru2 Si0 2.496541 1_654
Ru2 Si0 2.496541 1_554
Ru2 Si3 2.526452 1_555
Ru3 Si0 2.436189 1_555
Ru3 Si1 2.496541 1_556
Ru3 Si1 2.496541 1_456
Ru3 Si2 2.526452 1_555
