# generated using pymatgen
data_SrIn4Ir
_symmetry_space_group_name_H-M   'P 1'
_cell_length_a   4.35177810
_cell_length_b   7.69171636
_cell_length_c   8.70874935
_cell_angle_alpha   90.00000000
_cell_angle_beta   90.00000000
_cell_angle_gamma   90.00000000
_symmetry_Int_Tables_number   1
_chemical_formula_structural   SrIn4Ir
_chemical_formula_sum   'Sr2 In8 Ir2'
_cell_volume   291.50485629
_cell_formula_units_Z   2
loop_
 _symmetry_equiv_pos_site_id
 _symmetry_equiv_pos_as_xyz
  1  'x, y, z'
loop_
 _atom_site_type_symbol
 _atom_site_label
 _atom_site_symmetry_multiplicity
 _atom_site_fract_x
 _atom_site_fract_y
 _atom_site_fract_z
 _atom_site_occupancy
  Sr  Sr0  1  0.00000000  0.60551140  0.75000000  1
  Sr  Sr1  1  -0.00000000  0.39448860  0.25000000  1
  In  In0  1  0.50000000  0.69204684  0.43313942  1
  In  In1  1  0.50000000  0.05886722  0.25000000  1
  In  In2  1  0.50000000  0.30795316  0.93313942  1
  In  In3  1  0.50000000  0.30795316  0.56686058  1
  In  In4  1  0.50000000  0.94113278  0.75000000  1
  In  In5  1  -0.00000000  0.00000000  0.50000000  1
  In  In6  1  0.00000000  0.00000000  -0.00000000  1
  In  In7  1  0.50000000  0.69204684  0.06686058  1
  Ir  Ir0  1  0.00000000  0.81040493  0.25000000  1
  Ir  Ir1  1  -0.00000000  0.18959507  0.75000000  1
loop_
_geom_bond_atom_site_label_1
_geom_bond_atom_site_label_2
_geom_bond_distance
_geom_bond_site_symmetry_2
In0 Ir0 2.847285 1_655
In0 Ir0 2.847285 1_555
In0 In3 3.175576 1_555
In0 In7 3.189831 1_555
In0 In1 3.241064 1_565
In0 In5 3.268672 1_665
In0 In5 3.268672 1_565
In0 In4 3.359357 1_555
In0 Sr1 3.537874 1_555
In0 Sr1 3.537874 1_655
In0 Sr0 3.576610 1_655
In0 Sr0 3.576610 1_555
In1 Ir0 2.895998 1_545
In1 Ir0 2.895998 1_645
In1 In7 3.241064 1_545
In1 In2 3.359357 1_554
In1 In3 3.359357 1_555
In1 Sr1 3.376190 1_555
In1 Sr1 3.376190 1_655
In2 Ir1 2.847285 1_655
In2 Ir1 2.847285 1_555
In2 In7 3.175576 1_556
In2 In3 3.189831 1_555
In2 In4 3.241064 1_545
In2 In6 3.268672 1_656
In2 In6 3.268672 1_556
In2 Sr0 3.537874 1_555
In2 Sr0 3.537874 1_655
In2 Sr1 3.576610 1_656
In2 Sr1 3.576610 1_556
In3 Ir1 2.847285 1_655
In3 Ir1 2.847285 1_555
In3 In4 3.241064 1_545
In3 In5 3.268672 1_555
In3 In5 3.268672 1_655
In3 Sr0 3.537874 1_555
In3 Sr0 3.537874 1_655
In3 Sr1 3.576610 1_655
In3 Sr1 3.576610 1_555
In4 Ir1 2.895998 1_565
In4 Ir1 2.895998 1_665
In4 In7 3.359357 1_556
In4 Sr0 3.376190 1_655
In4 Sr0 3.376190 1_555
In5 Ir0 2.620461 1_545
In5 Ir1 2.620461 1_555
In5 Sr0 3.734580 1_545
In5 Sr1 3.734580 1_555
In6 Ir0 2.620461 1_545
In6 Ir1 2.620461 1_554
In6 In7 3.268672 1_545
In6 In7 3.268672 1_445
In6 Sr0 3.734580 1_544
In6 Sr1 3.734580 1_555
In7 Ir0 2.847285 1_655
In7 Ir0 2.847285 1_555
In7 Sr1 3.537874 1_655
In7 Sr1 3.537874 1_555
In7 Sr0 3.576610 1_654
In7 Sr0 3.576610 1_554
Ir0 Sr1 3.199110 1_555
Ir1 Sr0 3.199110 1_555
