# generated using pymatgen
data_Sb4S5Cl2
_symmetry_space_group_name_H-M   'P 1'
_cell_length_a   9.56520400
_cell_length_b   11.20718600
_cell_length_c   12.05958000
_cell_angle_alpha   90.00000000
_cell_angle_beta   90.00000000
_cell_angle_gamma   90.00000000
_symmetry_Int_Tables_number   1
_chemical_formula_structural   Sb4S5Cl2
_chemical_formula_sum   'Sb16 S20 Cl8'
_cell_volume   1292.77516190
_cell_formula_units_Z   4
loop_
 _symmetry_equiv_pos_site_id
 _symmetry_equiv_pos_as_xyz
  1  'x, y, z'
loop_
 _atom_site_type_symbol
 _atom_site_label
 _atom_site_symmetry_multiplicity
 _atom_site_fract_x
 _atom_site_fract_y
 _atom_site_fract_z
 _atom_site_occupancy
  Sb  Sb0  1  0.75000000  0.95531100  0.99547100  1
  Sb  Sb1  1  0.25000000  0.04468900  0.00452900  1
  Sb  Sb2  1  0.75000000  0.45531100  0.50452900  1
  Sb  Sb3  1  0.25000000  0.54468900  0.49547100  1
  Sb  Sb4  1  0.25000000  0.93998000  0.45499100  1
  Sb  Sb5  1  0.75000000  0.06002000  0.54500900  1
  Sb  Sb6  1  0.25000000  0.43998000  0.04500900  1
  Sb  Sb7  1  0.75000000  0.56002000  0.95499100  1
  Sb  Sb8  1  0.53155200  0.22154500  0.15769600  1
  Sb  Sb9  1  0.03155200  0.77845500  0.84230400  1
  Sb  Sb10  1  0.96844800  0.72154500  0.34230400  1
  Sb  Sb11  1  0.46844800  0.27845500  0.65769600  1
  Sb  Sb12  1  0.46844800  0.77845500  0.84230400  1
  Sb  Sb13  1  0.96844800  0.22154500  0.15769600  1
  Sb  Sb14  1  0.03155200  0.27845500  0.65769600  1
  Sb  Sb15  1  0.53155200  0.72154500  0.34230400  1
  S  S0  1  0.94195800  0.98439400  0.85604300  1
  S  S1  1  0.55364200  0.18900400  0.48257800  1
  S  S2  1  0.44635800  0.31099600  0.98257800  1
  S  S3  1  0.94635800  0.68900400  0.01742200  1
  S  S4  1  0.44195800  0.01560600  0.14395700  1
  S  S5  1  0.05364200  0.81099600  0.51742200  1
  S  S6  1  0.05804200  0.51560600  0.35604300  1
  S  S7  1  0.55804200  0.48439400  0.64395700  1
  S  S8  1  0.25000000  0.82152000  0.96957900  1
  S  S9  1  0.75000000  0.17848000  0.03042100  1
  S  S10  1  0.25000000  0.32152000  0.53042100  1
  S  S11  1  0.75000000  0.67848000  0.46957900  1
  S  S12  1  0.94635800  0.18900400  0.48257800  1
  S  S13  1  0.44635800  0.81099600  0.51742200  1
  S  S14  1  0.55364200  0.68900400  0.01742200  1
  S  S15  1  0.05364200  0.31099600  0.98257800  1
  S  S16  1  0.44195800  0.51560600  0.35604300  1
  S  S17  1  0.94195800  0.48439400  0.64395700  1
  S  S18  1  0.05804200  0.01560600  0.14395700  1
  S  S19  1  0.55804200  0.98439400  0.85604300  1
  Cl  Cl0  1  0.75000000  0.98422700  0.34574900  1
  Cl  Cl1  1  0.25000000  0.01577300  0.65425100  1
  Cl  Cl2  1  0.25000000  0.78579000  0.27112200  1
  Cl  Cl3  1  0.25000000  0.51577300  0.84574900  1
  Cl  Cl4  1  0.75000000  0.71421000  0.77112200  1
  Cl  Cl5  1  0.25000000  0.28579000  0.22887800  1
  Cl  Cl6  1  0.75000000  0.21421000  0.72887800  1
  Cl  Cl7  1  0.75000000  0.48422700  0.15425100  1
loop_
_geom_bond_atom_site_label_1
_geom_bond_atom_site_label_2
_geom_bond_distance
_geom_bond_site_symmetry_2
S0 Sb9 2.467534 1_655
S0 Sb0 2.510939 1_555
S1 Sb11 2.475674 1_555
S1 Sb5 2.486786 1_555
S2 Sb8 2.475674 1_556
S2 Sb6 2.486786 1_556
S3 Sb9 2.475674 1_654
S3 Sb7 2.486786 1_554
S4 Sb8 2.467534 1_555
S4 Sb1 2.510939 1_555
S5 Sb10 2.475674 1_455
S5 Sb4 2.486786 1_555
S6 Sb10 2.467534 1_455
S6 Sb3 2.510939 1_555
S7 Sb11 2.467534 1_555
S7 Sb2 2.510939 1_555
S8 Sb1 2.536362 1_566
S8 Sb9 2.637198 1_555
S8 Sb12 2.637198 1_555
S9 Sb0 2.536362 1_544
S9 Sb13 2.637198 1_555
S9 Sb8 2.637198 1_555
S10 Sb3 2.536362 1_555
S10 Sb14 2.637198 1_555
S10 Sb11 2.637198 1_555
S11 Sb2 2.536362 1_555
S11 Sb10 2.637198 1_555
S11 Sb15 2.637198 1_555
S12 Sb14 2.475674 1_655
S12 Sb5 2.486786 1_555
S13 Sb15 2.475674 1_555
S13 Sb4 2.486786 1_555
S14 Sb12 2.475674 1_554
S14 Sb7 2.486786 1_554
S15 Sb13 2.475674 1_456
S15 Sb6 2.486786 1_556
S16 Sb15 2.467534 1_555
S16 Sb3 2.510939 1_555
S17 Sb14 2.467534 1_655
S17 Sb2 2.510939 1_555
S18 Sb13 2.467534 1_455
S18 Sb1 2.510939 1_555
S19 Sb12 2.467534 1_555
S19 Sb0 2.510939 1_555
Cl0 Sb5 2.548705 1_565
Cl1 Sb4 2.548705 1_545
Cl2 Sb4 2.811209 1_555
Cl2 Sb10 2.916865 1_455
Cl2 Sb15 2.916865 1_555
Cl3 Sb6 2.548705 1_556
Cl4 Sb7 2.811209 1_555
Cl4 Sb9 2.916865 1_655
Cl4 Sb12 2.916865 1_555
Cl5 Sb6 2.811209 1_555
Cl5 Sb13 2.916865 1_455
Cl5 Sb8 2.916865 1_555
Cl6 Sb5 2.811209 1_555
Cl6 Sb14 2.916865 1_655
Cl6 Sb11 2.916865 1_555
Cl7 Sb7 2.548705 1_554
