# generated using pymatgen
data_WCl3
_symmetry_space_group_name_H-M   'P 1'
_cell_length_a   9.23632027
_cell_length_b   9.23632027
_cell_length_c   9.23631992
_cell_angle_alpha   110.25446802
_cell_angle_beta   110.25446807
_cell_angle_gamma   110.25446525
_symmetry_Int_Tables_number   1
_chemical_formula_structural   WCl3
_chemical_formula_sum   'W6 Cl18'
_cell_volume   588.31559129
_cell_formula_units_Z   6
loop_
 _symmetry_equiv_pos_site_id
 _symmetry_equiv_pos_as_xyz
  1  'x, y, z'
loop_
 _atom_site_type_symbol
 _atom_site_label
 _atom_site_symmetry_multiplicity
 _atom_site_fract_x
 _atom_site_fract_y
 _atom_site_fract_z
 _atom_site_occupancy
  W  W0  1  0.15098439  0.02640225  0.23836713  1
  W  W1  1  0.02640225  0.23836713  0.15098439  1
  W  W2  1  0.23836713  0.15098439  0.02640225  1
  W  W3  1  0.84901561  0.97359775  0.76163287  1
  W  W4  1  0.97359775  0.76163287  0.84901561  1
  W  W5  1  0.76163287  0.84901561  0.97359775  1
  Cl  Cl0  1  0.31715261  0.03965587  0.51382074  1
  Cl  Cl1  1  0.03965587  0.51382074  0.31715261  1
  Cl  Cl2  1  0.51382074  0.31715261  0.03965587  1
  Cl  Cl3  1  0.68284739  0.96034413  0.48617926  1
  Cl  Cl4  1  0.96034413  0.48617926  0.68284739  1
  Cl  Cl5  1  0.48617926  0.68284739  0.96034413  1
  Cl  Cl6  1  0.54666708  0.79766614  0.69388945  1
  Cl  Cl7  1  0.69388945  0.54666708  0.79766614  1
  Cl  Cl8  1  0.79766614  0.69388945  0.54666708  1
  Cl  Cl9  1  0.45333292  0.20233386  0.30611055  1
  Cl  Cl10  1  0.30611055  0.45333292  0.20233386  1
  Cl  Cl11  1  0.20233386  0.30611055  0.45333292  1
  Cl  Cl12  1  0.89779651  0.85192338  0.24577033  1
  Cl  Cl13  1  0.24577033  0.89779651  0.85192338  1
  Cl  Cl14  1  0.85192338  0.24577033  0.89779651  1
  Cl  Cl15  1  0.10220349  0.14807662  0.75422967  1
  Cl  Cl16  1  0.75422967  0.10220349  0.14807662  1
  Cl  Cl17  1  0.14807662  0.75422967  0.10220349  1
loop_
_geom_bond_atom_site_label_1
_geom_bond_atom_site_label_2
_geom_bond_distance
_geom_bond_site_symmetry_2
Cl0 W0 2.407090 1_555
Cl1 W1 2.407090 1_555
Cl2 W2 2.407090 1_555
Cl3 W3 2.407090 1_555
Cl4 W4 2.407090 1_555
Cl5 W5 2.407090 1_555
Cl6 W3 2.403091 1_555
Cl6 W5 2.406149 1_555
Cl7 W5 2.403091 1_555
Cl7 W4 2.406149 1_555
Cl8 W4 2.403091 1_555
Cl8 W3 2.406149 1_555
Cl9 W0 2.403091 1_555
Cl9 W2 2.406149 1_555
Cl10 W2 2.403091 1_555
Cl10 W1 2.406149 1_555
Cl11 W1 2.403091 1_555
Cl11 W0 2.406149 1_555
Cl12 W5 2.375462 1_554
Cl12 W0 2.376579 1_665
Cl13 W4 2.375462 1_455
Cl13 W2 2.376579 1_566
Cl14 W3 2.375462 1_545
Cl14 W1 2.376579 1_656
Cl15 W2 2.375462 1_556
Cl15 W3 2.376579 1_445
Cl16 W1 2.375462 1_655
Cl16 W5 2.376579 1_544
Cl17 W0 2.375462 1_565
Cl17 W4 2.376579 1_454
