# generated using pymatgen
data_SrH4O3
_symmetry_space_group_name_H-M   'P 1'
_cell_length_a   6.62147852
_cell_length_b   3.66407313
_cell_length_c   6.12274383
_cell_angle_alpha   89.97605949
_cell_angle_beta   90.00000000
_cell_angle_gamma   90.00000000
_symmetry_Int_Tables_number   1
_chemical_formula_structural   SrH4O3
_chemical_formula_sum   'Sr2 H8 O6'
_cell_volume   148.54743585
_cell_formula_units_Z   2
loop_
 _symmetry_equiv_pos_site_id
 _symmetry_equiv_pos_as_xyz
  1  'x, y, z'
loop_
 _atom_site_type_symbol
 _atom_site_label
 _atom_site_symmetry_multiplicity
 _atom_site_fract_x
 _atom_site_fract_y
 _atom_site_fract_z
 _atom_site_occupancy
  Sr  Sr0  1  0.75097890  0.99911422  0.62986202  1
  Sr  Sr1  1  0.25097890  0.00088578  0.37013798  1
  H  H0  1  0.82758330  0.78811261  0.12147998  1
  H  H1  1  0.82872182  0.20709875  0.12138556  1
  H  H2  1  0.32758330  0.21188739  0.87852002  1
  H  H3  1  0.32872182  0.79290125  0.87861444  1
  H  H4  1  0.59757623  0.49462809  0.96917310  1
  H  H5  1  0.09757623  0.50537191  0.03082690  1
  H  H6  1  0.60170518  0.50130240  0.29484176  1
  H  H7  1  0.10170518  0.49869760  0.70515824  1
  O  O0  1  0.87591654  0.99735967  0.21379072  1
  O  O1  1  0.37591654  0.00264033  0.78620928  1
  O  O2  1  0.74177682  0.49832290  0.94323304  1
  O  O3  1  0.24177682  0.50167710  0.05676696  1
  O  O4  1  0.53534321  0.49991952  0.43570838  1
  O  O5  1  0.03534321  0.50008048  0.56429162  1
loop_
_geom_bond_atom_site_label_1
_geom_bond_atom_site_label_2
_geom_bond_distance
_geom_bond_site_symmetry_2
H0 O0 1.005015 1_555
H0 O2 1.625512 1_554
H1 O0 1.003983 1_545
H1 O2 1.630613 1_554
H2 O1 1.005015 1_555
H2 O3 1.625512 1_556
H3 O1 1.003983 1_565
H3 O3 1.630613 1_556
H4 O2 0.968034 1_555
H5 O3 0.968034 1_555
H6 O4 0.967986 1_555
H7 O5 0.967986 1_555
O0 Sr1 2.661609 1_665
O0 Sr0 2.678466 1_555
O1 Sr0 2.661609 1_545
O1 Sr1 2.678466 1_555
O2 Sr0 2.652124 1_545
O2 Sr0 2.655020 1_555
O3 Sr1 2.652124 1_565
O3 Sr1 2.655020 1_555
O4 Sr0 2.607527 1_555
O4 Sr0 2.610973 1_545
O4 Sr1 2.655287 1_555
O4 Sr1 2.659937 1_565
O5 Sr1 2.607527 1_555
O5 Sr1 2.610973 1_565
O5 Sr0 2.655287 1_455
O5 Sr0 2.659937 1_445
