# generated using pymatgen
data_GdGa
_symmetry_space_group_name_H-M   'P 1'
_cell_length_a   4.14298222
_cell_length_b   4.25438343
_cell_length_c   5.93257839
_cell_angle_alpha   111.01184197
_cell_angle_beta   90.00000000
_cell_angle_gamma   90.00000000
_symmetry_Int_Tables_number   1
_chemical_formula_structural   GdGa
_chemical_formula_sum   'Gd2 Ga2'
_cell_volume   97.61362806
_cell_formula_units_Z   2
loop_
 _symmetry_equiv_pos_site_id
 _symmetry_equiv_pos_as_xyz
  1  'x, y, z'
loop_
 _atom_site_type_symbol
 _atom_site_label
 _atom_site_symmetry_multiplicity
 _atom_site_fract_x
 _atom_site_fract_y
 _atom_site_fract_z
 _atom_site_occupancy
  Gd  Gd0  1  0.25000000  0.85593069  0.71186138  1
  Gd  Gd1  1  0.75000000  0.14406931  0.28813962  1
  Ga  Ga0  1  0.25000000  0.56966721  0.13933341  1
  Ga  Ga1  1  0.75000000  0.43033179  0.86066659  1
loop_
_geom_bond_atom_site_label_1
_geom_bond_atom_site_label_2
_geom_bond_distance
_geom_bond_site_symmetry_2
Ga0 Ga1 2.583177 1_454
Ga0 Ga1 2.583177 1_554
Ga0 Gd1 3.081420 1_565
Ga0 Gd1 3.081420 1_465
Ga0 Gd1 3.081426 1_555
Ga0 Gd1 3.081426 1_455
Ga0 Gd0 3.170717 1_555
Ga0 Gd0 3.182677 1_554
Ga0 Gd0 3.182681 1_544
Ga1 Gd0 3.081417 1_545
Ga1 Gd0 3.081417 1_645
Ga1 Gd0 3.081426 1_555
Ga1 Gd0 3.081426 1_655
Ga1 Gd1 3.170711 1_555
Ga1 Gd1 3.182680 1_556
Ga1 Gd1 3.182686 1_566
