# generated using pymatgen
data_Na6MgV2(S3O)2
_symmetry_space_group_name_H-M   'P 1'
_cell_length_a   6.42443199
_cell_length_b   7.69238570
_cell_length_c   7.57519906
_cell_angle_alpha   99.47787401
_cell_angle_beta   90.01651534
_cell_angle_gamma   89.94064520
_symmetry_Int_Tables_number   1
_chemical_formula_structural   Na6MgV2(S3O)2
_chemical_formula_sum   'Na6 Mg1 V2 S6 O2'
_cell_volume   369.24984910
_cell_formula_units_Z   1
loop_
 _symmetry_equiv_pos_site_id
 _symmetry_equiv_pos_as_xyz
  1  'x, y, z'
loop_
 _atom_site_type_symbol
 _atom_site_label
 _atom_site_symmetry_multiplicity
 _atom_site_fract_x
 _atom_site_fract_y
 _atom_site_fract_z
 _atom_site_occupancy
  Na  Na0  1  0.39915300  0.11503500  0.86286300  1
  Na  Na1  1  0.39499900  0.17952400  0.45035400  1
  Na  Na2  1  0.48455300  0.59241900  0.83920700  1
  Na  Na3  1  0.07414500  0.42624900  0.14639100  1
  Na  Na4  1  0.00407800  0.83377600  0.08117600  1
  Na  Na5  1  0.96269500  0.82827600  0.57109000  1
  Mg  Mg0  1  0.73316300  0.16409300  0.17175800  1
  V  V0  1  0.40577000  0.71079800  0.32215400  1
  V  V1  1  0.84882900  0.30541600  0.70095800  1
  S  S0  1  0.51576600  0.42456600  0.18770300  1
  S  S1  1  0.95707600  0.11807900  0.89996400  1
  S  S2  1  0.51684800  0.83139200  0.58884300  1
  S  S3  1  0.97128200  0.16666100  0.42081500  1
  S  S4  1  0.01723800  0.55719200  0.79700100  1
  S  S5  1  0.51878300  0.89543400  0.12164300  1
  O  O0  1  0.58187200  0.30636800  0.70205800  1
  O  O1  1  0.14003700  0.70305300  0.30268900  1
loop_
_geom_bond_atom_site_label_1
_geom_bond_atom_site_label_2
_geom_bond_distance
_geom_bond_site_symmetry_2
Na0 O0 2.371259 1_555
Na0 S1 2.853738 1_455
Na0 S2 2.854303 1_545
Na0 S5 2.893803 1_546
Na0 S0 3.218509 1_556
Na1 O0 2.327514 1_555
Na1 S3 2.731818 1_455
Na1 S0 3.058220 1_555
Na1 S2 3.131338 1_545
Na1 S5 3.132711 1_545
Na2 O0 2.357275 1_555
Na2 S2 2.858045 1_555
Na2 S5 2.901275 1_556
Na2 S4 3.026823 1_555
Na2 S0 3.130229 1_556
Na3 O1 2.299171 1_555
Na3 S0 2.854531 1_555
Na3 S1 2.866258 1_454
Na3 S4 3.004981 1_554
Na3 S3 3.180600 1_455
Na4 O1 2.267784 1_555
Na4 S4 2.767527 1_554
Na4 S1 2.783064 1_464
Na4 S5 3.160516 1_455
Na4 S3 3.324218 1_465
Na4 S5 3.347819 1_555
Na5 O1 2.390368 1_655
Na5 S2 2.867398 1_555
Na5 S4 2.928003 1_655
Na5 S3 3.008431 1_565
Na5 S1 3.057503 1_565
Mg0 S3 2.426152 1_555
Mg0 S0 2.427853 1_555
Mg0 S5 2.461536 1_545
Mg0 S1 2.488835 1_554
S0 V0 2.375564 1_555
S1 V1 2.354921 1_555
S2 V0 2.198734 1_555
S3 V1 2.348375 1_555
S4 V1 2.234001 1_455
S5 V0 2.358962 1_555
O0 V1 1.715072 1_555
O1 V0 1.713750 1_555
