# generated using pymatgen
data_MgTe4Mo4(SeS)2
_symmetry_space_group_name_H-M   'P 1'
_cell_length_a   6.78042600
_cell_length_b   6.78018952
_cell_length_c   77.00782802
_cell_angle_alpha   90.00218116
_cell_angle_beta   90.00005915
_cell_angle_gamma   119.99676123
_symmetry_Int_Tables_number   1
_chemical_formula_structural   MgTe4Mo4(SeS)2
_chemical_formula_sum   'Mg8 Te32 Mo32 Se16 S16'
_cell_volume   3066.04477365
_cell_formula_units_Z   8
loop_
 _symmetry_equiv_pos_site_id
 _symmetry_equiv_pos_as_xyz
  1  'x, y, z'
loop_
 _atom_site_type_symbol
 _atom_site_label
 _atom_site_symmetry_multiplicity
 _atom_site_fract_x
 _atom_site_fract_y
 _atom_site_fract_z
 _atom_site_occupancy
  Mg  Mg0_0  1  0.17930550  0.33142700  0.43696100  1
  Mg  Mg0_1  1  0.17930550  0.33142700  0.93696100  1
  Mg  Mg0_2  1  0.17930550  0.83142700  0.43696100  1
  Mg  Mg0_3  1  0.17930550  0.83142700  0.93696100  1
  Mg  Mg0_4  1  0.67930550  0.33142700  0.43696100  1
  Mg  Mg0_5  1  0.67930550  0.33142700  0.93696100  1
  Mg  Mg0_6  1  0.67930550  0.83142700  0.43696100  1
  Mg  Mg0_7  1  0.67930550  0.83142700  0.93696100  1
  Te  Te0_0  1  0.16661250  0.33330650  0.35317200  1
  Te  Te0_1  1  0.16661250  0.33330650  0.85317200  1
  Te  Te0_2  1  0.16661250  0.83330650  0.35317200  1
  Te  Te0_3  1  0.16661250  0.83330650  0.85317200  1
  Te  Te0_4  1  0.66661250  0.33330650  0.35317200  1
  Te  Te0_5  1  0.66661250  0.33330650  0.85317200  1
  Te  Te0_6  1  0.66661250  0.83330650  0.35317200  1
  Te  Te0_7  1  0.66661250  0.83330650  0.85317200  1
  Te  Te1_0  1  0.33330500  0.16664500  0.02262350  1
  Te  Te1_1  1  0.33330500  0.16664500  0.52262350  1
  Te  Te1_2  1  0.33330500  0.66664500  0.02262350  1
  Te  Te1_3  1  0.33330500  0.66664500  0.52262350  1
  Te  Te1_4  1  0.83330500  0.16664500  0.02262350  1
  Te  Te1_5  1  0.83330500  0.16664500  0.52262350  1
  Te  Te1_6  1  0.83330500  0.66664500  0.02262350  1
  Te  Te1_7  1  0.83330500  0.66664500  0.52262350  1
  Te  Te2_0  1  0.33333200  0.16665350  0.07134500  1
  Te  Te2_1  1  0.33333200  0.16665350  0.57134500  1
  Te  Te2_2  1  0.33333200  0.66665350  0.07134500  1
  Te  Te2_3  1  0.33333200  0.66665350  0.57134500  1
  Te  Te2_4  1  0.83333200  0.16665350  0.07134500  1
  Te  Te2_5  1  0.83333200  0.16665350  0.57134500  1
  Te  Te2_6  1  0.83333200  0.66665350  0.07134500  1
  Te  Te2_7  1  0.83333200  0.66665350  0.57134500  1
  Te  Te3_0  1  0.16664300  0.33332750  0.30441650  1
  Te  Te3_1  1  0.16664300  0.33332750  0.80441650  1
  Te  Te3_2  1  0.16664300  0.83332750  0.30441650  1
  Te  Te3_3  1  0.16664300  0.83332750  0.80441650  1
  Te  Te3_4  1  0.66664300  0.33332750  0.30441650  1
  Te  Te3_5  1  0.66664300  0.33332750  0.80441650  1
  Te  Te3_6  1  0.66664300  0.83332750  0.30441650  1
  Te  Te3_7  1  0.66664300  0.83332750  0.80441650  1
  Mo  Mo0_0  1  0.16661950  0.33330000  0.04695500  1
  Mo  Mo0_1  1  0.16661950  0.33330000  0.54695500  1
  Mo  Mo0_2  1  0.16661950  0.83330000  0.04695500  1
  Mo  Mo0_3  1  0.16661950  0.83330000  0.54695500  1
  Mo  Mo0_4  1  0.66661950  0.33330000  0.04695500  1
  Mo  Mo0_5  1  0.66661950  0.33330000  0.54695500  1
  Mo  Mo0_6  1  0.66661950  0.83330000  0.04695500  1
  Mo  Mo0_7  1  0.66661950  0.83330000  0.54695500  1
  Mo  Mo1_0  1  0.16665200  0.33328350  0.23478850  1
  Mo  Mo1_1  1  0.16665200  0.33328350  0.73478850  1
  Mo  Mo1_2  1  0.16665200  0.83328350  0.23478850  1
  Mo  Mo1_3  1  0.16665200  0.83328350  0.73478850  1
  Mo  Mo1_4  1  0.66665200  0.33328350  0.23478850  1
  Mo  Mo1_5  1  0.66665200  0.33328350  0.73478850  1
  Mo  Mo1_6  1  0.66665200  0.83328350  0.23478850  1
  Mo  Mo1_7  1  0.66665200  0.83328350  0.73478850  1
  Mo  Mo2_0  1  0.33336800  0.16668850  0.14090500  1
  Mo  Mo2_1  1  0.33336800  0.16668850  0.64090500  1
  Mo  Mo2_2  1  0.33336800  0.66668850  0.14090500  1
  Mo  Mo2_3  1  0.33336800  0.66668850  0.64090500  1
  Mo  Mo2_4  1  0.83336800  0.16668850  0.14090500  1
  Mo  Mo2_5  1  0.83336800  0.16668850  0.64090500  1
  Mo  Mo2_6  1  0.83336800  0.66668850  0.14090500  1
  Mo  Mo2_7  1  0.83336800  0.66668850  0.64090500  1
  Mo  Mo3_0  1  0.33332900  0.16666650  0.32882200  1
  Mo  Mo3_1  1  0.33332900  0.16666650  0.82882200  1
  Mo  Mo3_2  1  0.33332900  0.66666650  0.32882200  1
  Mo  Mo3_3  1  0.33332900  0.66666650  0.82882200  1
  Mo  Mo3_4  1  0.83332900  0.16666650  0.32882200  1
  Mo  Mo3_5  1  0.83332900  0.16666650  0.82882200  1
  Mo  Mo3_6  1  0.83332900  0.66666650  0.32882200  1
  Mo  Mo3_7  1  0.83332900  0.66666650  0.82882200  1
  Se  Se0_0  1  0.33333300  0.16660450  0.21333300  1
  Se  Se0_1  1  0.33333300  0.16660450  0.71333300  1
  Se  Se0_2  1  0.33333300  0.66660450  0.21333300  1
  Se  Se0_3  1  0.33333300  0.66660450  0.71333300  1
  Se  Se0_4  1  0.83333300  0.16660450  0.21333300  1
  Se  Se0_5  1  0.83333300  0.16660450  0.71333300  1
  Se  Se0_6  1  0.83333300  0.66660450  0.21333300  1
  Se  Se0_7  1  0.83333300  0.66660450  0.71333300  1
  Se  Se1_0  1  0.33334700  0.16664850  0.25622150  1
  Se  Se1_1  1  0.33334700  0.16664850  0.75622150  1
  Se  Se1_2  1  0.33334700  0.66664850  0.25622150  1
  Se  Se1_3  1  0.33334700  0.66664850  0.75622150  1
  Se  Se1_4  1  0.83334700  0.16664850  0.25622150  1
  Se  Se1_5  1  0.83334700  0.16664850  0.75622150  1
  Se  Se1_6  1  0.83334700  0.66664850  0.25622150  1
  Se  Se1_7  1  0.83334700  0.66664850  0.75622150  1
  S  S0_0  1  0.16668850  0.33335100  0.16042300  1
  S  S0_1  1  0.16668850  0.33335100  0.66042300  1
  S  S0_2  1  0.16668850  0.83335100  0.16042300  1
  S  S0_3  1  0.16668850  0.83335100  0.66042300  1
  S  S0_4  1  0.66668850  0.33335100  0.16042300  1
  S  S0_5  1  0.66668850  0.33335100  0.66042300  1
  S  S0_6  1  0.66668850  0.83335100  0.16042300  1
  S  S0_7  1  0.66668850  0.83335100  0.66042300  1
  S  S1_0  1  0.16667550  0.33333600  0.12137200  1
  S  S1_1  1  0.16667550  0.33333600  0.62137200  1
  S  S1_2  1  0.16667550  0.83333600  0.12137200  1
  S  S1_3  1  0.16667550  0.83333600  0.62137200  1
  S  S1_4  1  0.66667550  0.33333600  0.12137200  1
  S  S1_5  1  0.66667550  0.33333600  0.62137200  1
  S  S1_6  1  0.66667550  0.83333600  0.12137200  1
  S  S1_7  1  0.66667550  0.83333600  0.62137200  1
loop_
_geom_bond_atom_site_label_1
_geom_bond_atom_site_label_2
_geom_bond_distance
_geom_bond_site_symmetry_2
Mg0_0 Mg0_2 3.390095 1_545
Mg0_0 Mg0_2 3.390095 1_555
Mg0_0 Mg0_4 3.390213 1_555
Mg0_0 Mg0_4 3.390213 1_455
Mg0_0 Mg0_6 3.390320 1_555
Mg0_0 Mg0_6 3.390320 1_445
Mg0_1 Mg0_3 3.390095 1_545
Mg0_1 Mg0_3 3.390095 1_555
Mg0_1 Mg0_5 3.390213 1_555
Mg0_1 Mg0_5 3.390213 1_455
Mg0_1 Mg0_7 3.390320 1_555
Mg0_1 Mg0_7 3.390320 1_445
Mg0_2 Mg0_6 3.390213 1_455
Mg0_2 Mg0_6 3.390213 1_555
Mg0_2 Mg0_4 3.390320 1_565
Mg0_2 Mg0_4 3.390320 1_455
Mg0_3 Mg0_7 3.390213 1_455
Mg0_3 Mg0_7 3.390213 1_555
Mg0_3 Mg0_5 3.390320 1_565
Mg0_3 Mg0_5 3.390320 1_455
Mg0_4 Mg0_6 3.390095 1_555
Mg0_4 Mg0_6 3.390095 1_545
Mg0_5 Mg0_7 3.390095 1_555
Mg0_5 Mg0_7 3.390095 1_545
Mo0_0 Te1_4 2.709546 1_455
Mo0_0 Te1_0 2.709565 1_555
Mo0_0 Te1_2 2.709718 1_555
Mo0_0 Te2_4 2.712612 1_455
Mo0_0 Te2_2 2.712750 1_555
Mo0_0 Te2_0 2.712818 1_555
Mo0_1 Te1_5 2.709546 1_455
Mo0_1 Te1_1 2.709565 1_555
Mo0_1 Te1_3 2.709718 1_555
Mo0_1 Te2_5 2.712612 1_455
Mo0_1 Te2_3 2.712750 1_555
Mo0_1 Te2_1 2.712818 1_555
Mo0_2 Te1_6 2.709546 1_455
Mo0_2 Te1_2 2.709565 1_555
Mo0_2 Te1_0 2.709718 1_565
Mo0_2 Te2_6 2.712612 1_455
Mo0_2 Te2_0 2.712750 1_565
Mo0_2 Te2_2 2.712818 1_555
Mo0_3 Te1_7 2.709546 1_455
Mo0_3 Te1_3 2.709565 1_555
Mo0_3 Te1_1 2.709718 1_565
Mo0_3 Te2_7 2.712612 1_455
Mo0_3 Te2_1 2.712750 1_565
Mo0_3 Te2_3 2.712818 1_555
Mo0_4 Te1_0 2.709546 1_555
Mo0_4 Te1_4 2.709565 1_555
Mo0_4 Te1_6 2.709718 1_555
Mo0_4 Te2_0 2.712612 1_555
Mo0_4 Te2_6 2.712750 1_555
Mo0_4 Te2_4 2.712818 1_555
Mo0_5 Te1_1 2.709546 1_555
Mo0_5 Te1_5 2.709565 1_555
Mo0_5 Te1_7 2.709718 1_555
Mo0_5 Te2_1 2.712612 1_555
Mo0_5 Te2_7 2.712750 1_555
Mo0_5 Te2_5 2.712818 1_555
Mo0_6 Te1_2 2.709546 1_555
Mo0_6 Te1_6 2.709565 1_555
Mo0_6 Te1_4 2.709718 1_565
Mo0_6 Te2_2 2.712612 1_555
Mo0_6 Te2_4 2.712750 1_565
Mo0_6 Te2_6 2.712818 1_555
Mo0_7 Te1_3 2.709546 1_555
Mo0_7 Te1_7 2.709565 1_555
Mo0_7 Te1_5 2.709718 1_565
Mo0_7 Te2_3 2.712612 1_555
Mo0_7 Te2_5 2.712750 1_565
Mo0_7 Te2_7 2.712818 1_555
Mo1_0 Se1_4 2.560295 1_455
Mo1_0 Se1_0 2.560305 1_555
Mo1_0 Se1_2 2.560426 1_555
Mo1_0 Se0_4 2.561416 1_455
Mo1_0 Se0_2 2.561459 1_555
Mo1_0 Se0_0 2.561503 1_555
Mo1_1 Se1_5 2.560295 1_455
Mo1_1 Se1_1 2.560305 1_555
Mo1_1 Se1_3 2.560426 1_555
Mo1_1 Se0_5 2.561416 1_455
Mo1_1 Se0_3 2.561459 1_555
Mo1_1 Se0_1 2.561503 1_555
Mo1_2 Se1_6 2.560295 1_455
Mo1_2 Se1_2 2.560305 1_555
Mo1_2 Se1_0 2.560426 1_565
Mo1_2 Se0_6 2.561416 1_455
Mo1_2 Se0_0 2.561459 1_565
Mo1_2 Se0_2 2.561503 1_555
Mo1_3 Se1_7 2.560295 1_455
Mo1_3 Se1_3 2.560305 1_555
Mo1_3 Se1_1 2.560426 1_565
Mo1_3 Se0_7 2.561416 1_455
Mo1_3 Se0_1 2.561459 1_565
Mo1_3 Se0_3 2.561503 1_555
Mo1_4 Se1_0 2.560295 1_555
Mo1_4 Se1_4 2.560305 1_555
Mo1_4 Se1_6 2.560426 1_555
Mo1_4 Se0_0 2.561416 1_555
Mo1_4 Se0_6 2.561459 1_555
Mo1_4 Se0_4 2.561503 1_555
Mo1_5 Se1_1 2.560295 1_555
Mo1_5 Se1_5 2.560305 1_555
Mo1_5 Se1_7 2.560426 1_555
Mo1_5 Se0_1 2.561416 1_555
Mo1_5 Se0_7 2.561459 1_555
Mo1_5 Se0_5 2.561503 1_555
Mo1_6 Se1_2 2.560295 1_555
Mo1_6 Se1_6 2.560305 1_555
Mo1_6 Se1_4 2.560426 1_565
Mo1_6 Se0_2 2.561416 1_555
Mo1_6 Se0_4 2.561459 1_565
Mo1_6 Se0_6 2.561503 1_555
Mo1_7 Se1_3 2.560295 1_555
Mo1_7 Se1_7 2.560305 1_555
Mo1_7 Se1_5 2.560426 1_565
Mo1_7 Se0_3 2.561416 1_555
Mo1_7 Se0_5 2.561459 1_565
Mo1_7 Se0_7 2.561503 1_555
Mo2_0 S0_0 2.467817 1_555
Mo2_0 S0_4 2.467818 1_555
Mo2_0 S0_2 2.467924 1_545
Mo2_0 S1_4 2.468516 1_555
Mo2_0 S1_0 2.468563 1_555
Mo2_0 S1_2 2.468591 1_545
Mo2_1 S0_1 2.467817 1_555
Mo2_1 S0_5 2.467818 1_555
Mo2_1 S0_3 2.467924 1_545
Mo2_1 S1_5 2.468516 1_555
Mo2_1 S1_1 2.468563 1_555
Mo2_1 S1_3 2.468591 1_545
Mo2_2 S0_2 2.467817 1_555
Mo2_2 S0_6 2.467818 1_555
Mo2_2 S0_0 2.467924 1_555
Mo2_2 S1_6 2.468516 1_555
Mo2_2 S1_2 2.468563 1_555
Mo2_2 S1_0 2.468591 1_555
Mo2_3 S0_3 2.467817 1_555
Mo2_3 S0_7 2.467818 1_555
Mo2_3 S0_1 2.467924 1_555
Mo2_3 S1_7 2.468516 1_555
Mo2_3 S1_3 2.468563 1_555
Mo2_3 S1_1 2.468591 1_555
Mo2_4 S0_4 2.467817 1_555
Mo2_4 S0_0 2.467818 1_655
Mo2_4 S0_6 2.467924 1_545
Mo2_4 S1_0 2.468516 1_655
Mo2_4 S1_4 2.468563 1_555
Mo2_4 S1_6 2.468591 1_545
Mo2_5 S0_5 2.467817 1_555
Mo2_5 S0_1 2.467818 1_655
Mo2_5 S0_7 2.467924 1_545
Mo2_5 S1_1 2.468516 1_655
Mo2_5 S1_5 2.468563 1_555
Mo2_5 S1_7 2.468591 1_545
Mo2_6 S0_6 2.467817 1_555
Mo2_6 S0_2 2.467818 1_655
Mo2_6 S0_4 2.467924 1_555
Mo2_6 S1_2 2.468516 1_655
Mo2_6 S1_6 2.468563 1_555
Mo2_6 S1_4 2.468591 1_555
Mo2_7 S0_7 2.467817 1_555
Mo2_7 S0_3 2.467818 1_655
Mo2_7 S0_5 2.467924 1_555
Mo2_7 S1_3 2.468516 1_655
Mo2_7 S1_7 2.468563 1_555
Mo2_7 S1_5 2.468591 1_555
Mo3_0 Te0_4 2.710400 1_555
Mo3_0 Te0_0 2.710618 1_555
Mo3_0 Te0_2 2.710767 1_545
Mo3_0 Te3_2 2.713515 1_545
Mo3_0 Te3_4 2.713551 1_555
Mo3_0 Te3_0 2.713594 1_555
Mo3_1 Te0_5 2.710400 1_555
Mo3_1 Te0_1 2.710618 1_555
Mo3_1 Te0_3 2.710767 1_545
Mo3_1 Te3_3 2.713515 1_545
Mo3_1 Te3_5 2.713551 1_555
Mo3_1 Te3_1 2.713594 1_555
Mo3_2 Te0_6 2.710400 1_555
Mo3_2 Te0_2 2.710618 1_555
Mo3_2 Te0_0 2.710767 1_555
Mo3_2 Te3_0 2.713515 1_555
Mo3_2 Te3_6 2.713551 1_555
Mo3_2 Te3_2 2.713594 1_555
Mo3_3 Te0_7 2.710400 1_555
Mo3_3 Te0_3 2.710618 1_555
Mo3_3 Te0_1 2.710767 1_555
Mo3_3 Te3_1 2.713515 1_555
Mo3_3 Te3_7 2.713551 1_555
Mo3_3 Te3_3 2.713594 1_555
Mo3_4 Te0_0 2.710400 1_655
Mo3_4 Te0_4 2.710618 1_555
Mo3_4 Te0_6 2.710767 1_545
Mo3_4 Te3_6 2.713515 1_545
Mo3_4 Te3_0 2.713551 1_655
Mo3_4 Te3_4 2.713594 1_555
Mo3_5 Te0_1 2.710400 1_655
Mo3_5 Te0_5 2.710618 1_555
Mo3_5 Te0_7 2.710767 1_545
Mo3_5 Te3_7 2.713515 1_545
Mo3_5 Te3_1 2.713551 1_655
Mo3_5 Te3_5 2.713594 1_555
Mo3_6 Te0_2 2.710400 1_655
Mo3_6 Te0_6 2.710618 1_555
Mo3_6 Te0_4 2.710767 1_555
Mo3_6 Te3_4 2.713515 1_555
Mo3_6 Te3_2 2.713551 1_655
Mo3_6 Te3_6 2.713594 1_555
Mo3_7 Te0_3 2.710400 1_655
Mo3_7 Te0_7 2.710618 1_555
Mo3_7 Te0_5 2.710767 1_555
Mo3_7 Te3_5 2.713515 1_555
Mo3_7 Te3_3 2.713551 1_655
Mo3_7 Te3_7 2.713594 1_555
