# generated using pymatgen
data_Na8Ti2In2Si5SO24
_symmetry_space_group_name_H-M   'P 1'
_cell_length_a   9.17457510
_cell_length_b   9.16967748
_cell_length_c   22.31860756
_cell_angle_alpha   90.20550721
_cell_angle_beta   89.43932213
_cell_angle_gamma   120.04724332
_symmetry_Int_Tables_number   1
_chemical_formula_structural   Na8Ti2In2Si5SO24
_chemical_formula_sum   'Na24 Ti6 In6 Si15 S3 O72'
_cell_volume   1625.21008856
_cell_formula_units_Z   3
loop_
 _symmetry_equiv_pos_site_id
 _symmetry_equiv_pos_as_xyz
  1  'x, y, z'
loop_
 _atom_site_type_symbol
 _atom_site_label
 _atom_site_symmetry_multiplicity
 _atom_site_fract_x
 _atom_site_fract_y
 _atom_site_fract_z
 _atom_site_occupancy
  Na  Na0  1  0.64485055  0.00668602  0.25156515  1
  Na  Na1  1  0.35492751  0.36200261  0.24916782  1
  Na  Na2  1  0.99957348  0.63974840  0.24998658  1
  Na  Na3  1  0.63302817  0.63202041  0.74743794  1
  Na  Na4  1  0.99133431  0.35894889  0.74840926  1
  Na  Na5  1  0.37092641  0.01128069  0.74885077  1
  Na  Na6  1  0.29594651  0.33499660  0.58683959  1
  Na  Na7  1  0.04150123  0.70659066  0.58273446  1
  Na  Na8  1  0.66555320  0.95677354  0.58292327  1
  Na  Na9  1  0.28588457  0.96400799  0.08163134  1
  Na  Na10  1  0.67201754  0.69444184  0.08803532  1
  Na  Na11  1  0.04580543  0.33613873  0.08767225  1
  Na  Na12  1  0.97347635  0.66991581  0.91621457  1
  Na  Na13  1  0.70718829  0.04450342  0.90766464  1
  Na  Na14  1  0.32082796  0.28390281  0.91803885  1
  Na  Na15  1  0.95735953  0.29424716  0.41099764  1
  Na  Na16  1  0.32874259  0.02422831  0.41623522  1
  Na  Na17  1  0.71048562  0.67732164  0.41800960  1
  Na  Na18  1  0.99084404  0.98909506  0.50184014  1
  Na  Na19  1  0.02025903  0.00843831  0.00000077  1
  Na  Na20  1  0.66703695  0.32641389  0.82922818  1
  Na  Na21  1  0.67213771  0.33031578  0.33331563  1
  Na  Na22  1  0.32536331  0.65583429  0.16856775  1
  Na  Na23  1  0.33712091  0.66732069  0.66506189  1
  Ti  Ti0  1  0.99992552  0.00083658  0.64940653  1
  Ti  Ti1  1  0.66601168  0.33446074  0.68397847  1
  Ti  Ti2  1  0.66785288  0.35171720  0.18797383  1
  Ti  Ti3  1  0.67942853  0.33027466  0.48569845  1
  Ti  Ti4  1  0.32902842  0.68342595  0.31303568  1
  Ti  Ti5  1  0.31445808  0.67040618  0.80876197  1
  In  In0  1  0.99369855  0.99376468  0.34577802  1
  In  In1  1  0.00875139  0.00690686  0.84505128  1
  In  In2  1  0.00722365  0.00022842  0.15497871  1
  In  In3  1  0.66716846  0.33277185  0.98019502  1
  In  In4  1  0.31516186  0.65373645  0.01884953  1
  In  In5  1  0.33629968  0.67645870  0.52119638  1
  Si  Si0  1  0.30537072  0.00596744  0.25028042  1
  Si  Si1  1  0.69319727  0.70069234  0.25041333  1
  Si  Si2  1  -0.00001168  0.30523485  0.25012352  1
  Si  Si3  1  0.29905874  0.29951176  0.74847902  1
  Si  Si4  1  0.99261356  0.70471156  0.74912695  1
  Si  Si5  1  0.70267133  0.99909906  0.74960013  1
  Si  Si6  1  0.95639330  0.32728834  0.58558533  1
  Si  Si7  1  0.37726749  0.05082445  0.58447193  1
  Si  Si8  1  0.67230022  0.62222668  0.58339916  1
  Si  Si9  1  0.95712974  0.62856174  0.08331823  1
  Si  Si10  1  0.37441352  0.33313332  0.08286675  1
  Si  Si11  1  0.03932435  0.36928998  0.91481502  1
  Si  Si12  1  0.33305635  0.95800240  0.91655327  1
  Si  Si13  1  0.62813224  0.96318309  0.41774713  1
  Si  Si14  1  0.03576473  0.66493745  0.41843175  1
  S  S0  1  0.66771129  0.04008811  0.08409744  1
  S  S1  1  0.62188891  0.66848975  0.91498862  1
  S  S2  1  0.33645195  0.37516167  0.41662822  1
  O  O0  1  0.23231764  0.05530599  0.30877828  1
  O  O1  1  0.81644598  0.76522529  0.30768906  1
  O  O2  1  0.95468001  0.18351416  0.30859940  1
  O  O3  1  0.23809601  0.18592988  0.80898880  1
  O  O4  1  0.94885600  0.77125636  0.81026488  1
  O  O5  1  0.81556266  0.04170395  0.80959446  1
  O  O6  1  0.80503207  0.96836060  0.69297382  1
  O  O7  1  0.16479175  0.19829237  0.69298492  1
  O  O8  1  0.03079708  0.83643202  0.69286157  1
  O  O9  1  0.76654637  0.82291835  0.19194304  1
  O  O10  1  0.04576768  0.22960496  0.19116653  1
  O  O11  1  0.18306542  0.94737967  0.19262646  1
  O  O12  1  0.86034837  0.35553399  0.64220845  1
  O  O13  1  0.49830160  0.14835842  0.64174302  1
  O  O14  1  0.64993916  0.50392629  0.64162742  1
  O  O15  1  0.85047607  0.50274732  0.14037231  1
  O  O16  1  0.64903370  0.12672127  0.13671290  1
  O  O17  1  0.49640136  0.34772333  0.14013107  1
  O  O18  1  0.44759442  0.29597619  0.02132348  1
  O  O19  1  0.85353002  0.54972567  0.02158832  1
  O  O20  1  0.69104595  0.13450684  0.02745253  1
  O  O21  1  0.47372210  0.16879719  0.52442025  1
  O  O22  1  0.69779939  0.52612359  0.52378411  1
  O  O23  1  0.83625740  0.30096578  0.52523022  1
  O  O24  1  0.54787114  0.68840741  0.97216577  1
  O  O25  1  0.14793509  0.43562710  0.97628172  1
  O  O26  1  0.31315033  0.85533508  0.97856304  1
  O  O27  1  0.55698222  0.84666325  0.47744257  1
  O  O28  1  0.31095524  0.44827896  0.47253181  1
  O  O29  1  0.14575539  0.69606729  0.47846695  1
  O  O30  1  0.13750698  0.64115716  0.36008294  1
  O  O31  1  0.50057938  0.85946075  0.36070907  1
  O  O32  1  0.35327415  0.47866353  0.36334290  1
  O  O33  1  0.14748445  0.49832608  0.85772030  1
  O  O34  1  0.35070638  0.85218042  0.85781834  1
  O  O35  1  0.51931654  0.65326166  0.86246555  1
  O  O36  1  0.01898564  0.83425426  0.41302579  1
  O  O37  1  0.81949954  0.99368120  0.41198802  1
  O  O38  1  0.18489684  0.20252638  0.41313477  1
  O  O39  1  0.01047749  0.17853506  0.91123215  1
  O  O40  1  0.16135589  0.97047856  0.91357208  1
  O  O41  1  0.79373466  0.81920887  0.91258660  1
  O  O42  1  0.96688450  0.15438087  0.58927163  1
  O  O43  1  0.19076007  0.03558089  0.58919273  1
  O  O44  1  0.84337365  0.80921150  0.58870291  1
  O  O45  1  0.97168482  0.81397195  0.08738130  1
  O  O46  1  0.82079862  0.02214405  0.08747750  1
  O  O47  1  0.18368600  0.17054058  0.08770208  1
  O  O48  1  0.67784798  0.16331039  0.74075090  1
  O  O49  1  0.48875789  0.32534745  0.73931158  1
  O  O50  1  0.83445730  0.51369697  0.74108341  1
  O  O51  1  0.67084110  0.50983383  0.24127828  1
  O  O52  1  0.83244327  0.32572307  0.24122327  1
  O  O53  1  0.49571560  0.16509151  0.24004637  1
  O  O54  1  0.63518084  0.51232053  0.91563641  1
  O  O55  1  0.85835483  0.36614556  0.91479244  1
  O  O56  1  0.50629397  0.14366368  0.91395525  1
  O  O57  1  0.63401653  0.14747244  0.42139481  1
  O  O58  1  0.49191242  0.36242081  0.41892293  1
  O  O59  1  0.84797553  0.48977219  0.42096648  1
  O  O60  1  0.37469390  0.51361883  0.08397855  1
  O  O61  1  0.14310326  0.64307190  0.08742376  1
  O  O62  1  0.51462332  0.86953180  0.08204838  1
  O  O63  1  0.36032082  0.86487375  0.58530311  1
  O  O64  1  0.50088211  0.63502217  0.58190112  1
  O  O65  1  0.14273014  0.49337030  0.58157773  1
  O  O66  1  0.32498847  0.83603660  0.25963721  1
  O  O67  1  0.50375871  0.67194575  0.26141777  1
  O  O68  1  0.16885790  0.49296698  0.25942477  1
  O  O69  1  0.31281333  0.48534296  0.75466864  1
  O  O70  1  0.16895024  0.69265857  0.75410397  1
  O  O71  1  0.51648336  0.82522384  0.75497030  1
loop_
_geom_bond_atom_site_label_1
_geom_bond_atom_site_label_2
_geom_bond_distance
_geom_bond_site_symmetry_2
Na0 O53 2.459239 1_555
Na0 O66 2.546759 1_545
Na0 O52 2.555126 1_555
Na0 O67 2.676915 1_545
Na0 O31 2.771163 1_545
Na0 O9 2.774126 1_545
Na0 O16 2.785626 1_555
Na0 O2 2.787458 1_555
Na1 O67 2.476305 1_555
Na1 O51 2.515216 1_555
Na1 O68 2.540112 1_555
Na1 O53 2.701461 1_555
Na1 O32 2.762967 1_555
Na1 O17 2.780305 1_555
Na1 O0 2.788185 1_555
Na1 O10 2.794104 1_555
Na2 O52 2.502244 1_555
Na2 O68 2.523865 1_655
Na2 O66 2.613036 1_655
Na2 O51 2.639103 1_555
Na2 O11 2.767384 1_655
Na2 O30 2.771947 1_655
Na2 O1 2.772735 1_555
Na2 O15 2.785131 1_555
Na3 O49 2.442603 1_555
Na3 O71 2.490284 1_555
Na3 O69 2.549744 1_555
Na3 O50 2.571815 1_555
Na3 O14 2.671335 1_555
Na3 O35 2.804391 1_555
Na3 O4 2.890361 1_555
Na3 O6 2.931756 1_555
Na4 O50 2.482600 1_555
Na4 O48 2.521886 1_555
Na4 O69 2.577904 1_655
Na4 O70 2.653856 1_655
Na4 O12 2.660976 1_555
Na4 O33 2.801829 1_655
Na4 O5 2.866241 1_555
Na4 O7 2.920458 1_655
Na5 O48 2.442535 1_555
Na5 O49 2.527827 1_555
Na5 O70 2.561276 1_545
Na5 O71 2.645668 1_545
Na5 O13 2.675062 1_555
Na5 O3 2.785386 1_555
Na5 O34 2.796970 1_545
Na5 O8 2.986887 1_545
Na6 O43 2.412214 1_555
Na6 O64 2.436001 1_555
Na6 O65 2.479421 1_555
Na6 O42 2.617356 1_455
Na6 O7 2.662045 1_555
Na6 O28 2.734128 1_555
Na7 O44 2.432013 1_455
Na7 O29 2.527223 1_555
Na7 O63 2.533161 1_555
Na7 O65 2.550187 1_555
Na7 O43 2.619246 1_565
Na7 O8 2.749500 1_555
Na8 O42 2.436308 1_565
Na8 O63 2.487820 1_555
Na8 O64 2.554225 1_555
Na8 O27 2.564273 1_555
Na8 O44 2.593273 1_555
Na8 O6 2.757734 1_555
Na9 O45 2.498275 1_455
Na9 O47 2.501609 1_565
Na9 O61 2.555799 1_555
Na9 O26 2.563020 1_554
Na9 O11 2.619702 1_555
Na9 O62 2.641156 1_555
Na9 O18 2.957475 1_565
Na10 O60 2.381760 1_555
Na10 O45 2.396233 1_555
Na10 O9 2.552399 1_555
Na10 O46 2.604861 1_565
Na10 O62 2.647222 1_555
Na10 O24 2.825156 1_554
Na11 O47 2.414465 1_555
Na11 O61 2.490424 1_555
Na11 O10 2.511081 1_555
Na11 O46 2.568925 1_455
Na11 O60 2.615063 1_555
Na11 O25 2.646785 1_554
Na12 O40 2.410868 1_655
Na12 O55 2.435004 1_555
Na12 O19 2.590362 1_556
Na12 O4 2.596639 1_555
Na12 O41 2.619952 1_555
Na12 O54 2.688979 1_555
Na13 O5 2.400549 1_555
Na13 O39 2.416268 1_655
Na13 O56 2.432257 1_555
Na13 O55 2.559716 1_555
Na13 O41 2.560554 1_545
Na13 O20 2.819482 1_556
Na14 O40 2.490044 1_545
Na14 O39 2.513231 1_555
Na14 O18 2.569123 1_556
Na14 O3 2.577676 1_555
Na14 O54 2.579941 1_555
Na14 O56 2.597055 1_555
Na14 O25 2.880644 1_555
Na15 O37 2.388569 1_545
Na15 O59 2.462868 1_555
Na15 O2 2.492801 1_555
Na15 O57 2.579930 1_555
Na15 O38 2.613049 1_655
Na15 O23 2.783926 1_555
Na15 O30 2.977607 1_655
Na16 O57 2.443431 1_555
Na16 O36 2.482232 1_545
Na16 O38 2.565700 1_555
Na16 O0 2.629545 1_555
Na16 O58 2.685694 1_555
Na16 O21 2.762368 1_555
Na16 O31 2.938979 1_545
Na16 O29 2.954279 1_545
Na17 O36 2.451592 1_655
Na17 O37 2.555061 1_555
Na17 O58 2.561350 1_555
Na17 O59 2.593837 1_555
Na17 O1 2.615317 1_555
Na17 O22 2.713918 1_555
Na17 O27 2.879714 1_555
Na18 O44 2.458947 1_555
Na18 O36 2.519658 1_655
Na18 O42 2.541103 1_565
Na18 O37 2.573524 1_555
Na18 O43 2.574444 1_665
Na18 O38 2.718258 1_665
Na19 O40 2.432152 1_544
Na19 O47 2.468514 1_555
Na19 O45 2.528603 1_445
Na19 O39 2.555731 1_554
Na19 O46 2.708302 1_455
Na19 O41 2.753186 1_444
Na20 O56 2.460122 1_555
Na20 O48 2.503919 1_555
Na20 O55 2.506141 1_555
Na20 O50 2.549937 1_555
Na20 O49 2.598226 1_555
Na20 O54 2.678603 1_555
Na21 O57 2.494135 1_555
Na21 O59 2.499282 1_555
Na21 O52 2.528169 1_555
Na21 O53 2.614579 1_555
Na21 O58 2.625421 1_555
Na21 O51 2.640780 1_555
Na22 O61 2.439546 1_555
Na22 O60 2.454855 1_555
Na22 O68 2.494266 1_555
Na22 O67 2.610941 1_555
Na22 O66 2.615936 1_555
Na22 O62 2.671647 1_555
Na23 O63 2.474913 1_555
Na23 O64 2.485354 1_555
Na23 O65 2.528156 1_555
Na23 O69 2.544868 1_555
Na23 O71 2.547288 1_555
Na23 O70 2.584476 1_555
In0 O1 2.088150 1_555
In0 O2 2.117544 1_565
In0 O0 2.126940 1_665
In0 O37 2.165746 1_555
In0 O36 2.192762 1_655
In0 O38 2.381113 1_665
In1 O3 2.070576 1_555
In1 O4 2.093125 1_445
In1 O5 2.113088 1_455
In1 O39 2.148852 1_555
In1 O40 2.219109 1_545
In1 O41 2.384541 1_445
In2 O11 2.087073 1_545
In2 O10 2.109463 1_555
In2 O9 2.139760 1_445
In2 O45 2.175515 1_445
In2 O47 2.179870 1_555
In2 O46 2.373226 1_455
In3 O18 2.073645 1_556
In3 O19 2.084702 1_556
In3 O55 2.171775 1_555
In3 O56 2.198245 1_555
In3 O20 2.209697 1_556
In3 O54 2.319914 1_555
In4 O25 2.049026 1_554
In4 O26 2.067004 1_554
In4 O61 2.154763 1_555
In4 O60 2.189457 1_555
In4 O24 2.241435 1_554
In4 O62 2.378678 1_555
In5 O27 2.072804 1_555
In5 O29 2.084828 1_555
In5 O63 2.165129 1_555
In5 O65 2.184531 1_555
In5 O64 2.208682 1_555
In5 O28 2.261200 1_555
O0 Si0 1.625040 1_555
O1 Si1 1.617296 1_555
O2 Si2 1.630048 1_655
O3 Si3 1.622761 1_555
O4 Si4 1.619884 1_555
O5 Si5 1.623710 1_545
O6 Si5 1.672699 1_555
O6 Ti0 1.914721 1_565
O7 Si3 1.670195 1_555
O7 Ti0 1.945693 1_455
O8 Si4 1.654410 1_455
O8 Ti0 1.933124 1_465
O9 Si1 1.627869 1_555
O10 Si2 1.631903 1_555
O11 Si0 1.619592 1_565
O12 Si6 1.626351 1_555
O12 Ti1 1.925903 1_555
O13 Si7 1.640670 1_555
O13 Ti1 1.885620 1_555
O14 Si8 1.640046 1_555
O14 Ti1 1.890147 1_555
O15 Si9 1.663000 1_555
O15 Ti2 1.872411 1_555
O16 S0 1.471432 1_555
O16 Ti2 2.285928 1_555
O17 Si10 1.667554 1_555
O17 Ti2 1.894919 1_555
O18 Si10 1.631325 1_555
O19 Si9 1.629273 1_555
O20 S0 1.486826 1_555
O21 Si7 1.666789 1_555
O21 Ti3 1.918310 1_555
O22 Si8 1.671392 1_555
O22 Ti3 1.914375 1_555
O23 Si6 1.687580 1_555
O23 Ti3 1.826121 1_555
O24 S1 1.492832 1_555
O25 Si11 1.630548 1_555
O26 Si12 1.633168 1_555
O27 Si13 1.624041 1_555
O28 S2 1.485367 1_555
O29 Si14 1.621848 1_555
O30 Si14 1.671156 1_555
O30 Ti4 1.903964 1_555
O31 Si13 1.673463 1_555
O31 Ti4 1.921230 1_555
O32 S2 1.482131 1_555
O32 Ti4 2.296476 1_555
O33 Si11 1.678912 1_555
O33 Ti5 1.894587 1_555
O34 Si12 1.682348 1_555
O34 Ti5 1.877903 1_555
O35 S1 1.472434 1_555
O35 Ti5 2.309794 1_555
O36 Si14 1.640066 1_555
O37 Si13 1.637499 1_555
O38 S2 1.497449 1_555
O39 Si11 1.634571 1_555
O40 Si12 1.637558 1_555
O41 S1 1.488437 1_555
O42 Si6 1.638224 1_555
O42 Ti0 2.079533 1_555
O43 Si7 1.647923 1_555
O43 Ti0 2.090778 1_455
O44 Si8 1.650602 1_555
O44 Ti0 2.116520 1_565
O45 Si9 1.639618 1_555
O46 S0 1.496332 1_555
O47 Si10 1.637468 1_555
O48 Si5 1.644577 1_545
O48 Ti1 2.065892 1_555
O49 Si3 1.645445 1_555
O49 Ti1 2.000517 1_555
O50 Si4 1.631954 1_555
O50 Ti1 2.047885 1_555
O51 Si1 1.668925 1_555
O51 Ti2 1.861907 1_555
O52 Si2 1.653191 1_655
O52 Ti2 2.036437 1_555
O53 Si0 1.635150 1_555
O53 Ti2 2.011273 1_555
O54 S1 1.496940 1_555
O55 Si11 1.646075 1_655
O56 Si12 1.648344 1_545
O57 Si13 1.665219 1_545
O57 Ti3 2.082818 1_555
O58 S2 1.489597 1_555
O58 Ti3 2.414306 1_555
O59 Si14 1.667010 1_655
O59 Ti3 2.079438 1_555
O60 Si10 1.653805 1_555
O61 Si9 1.647101 1_455
O62 S0 1.490539 1_565
O63 Si7 1.632971 1_565
O64 Si8 1.635261 1_555
O65 Si6 1.625000 1_455
O66 Si0 1.669716 1_565
O66 Ti4 1.856011 1_555
O67 Si1 1.638241 1_555
O67 Ti4 2.010003 1_555
O68 Si2 1.655201 1_555
O68 Ti4 2.022503 1_555
O69 Si3 1.649842 1_555
O69 Ti5 2.073040 1_555
O70 Si4 1.680637 1_455
O70 Ti5 1.902200 1_555
O71 Si5 1.656595 1_555
O71 Ti5 2.055667 1_555
