# generated using pymatgen
data_TbAsS
_symmetry_space_group_name_H-M   'P 1'
_cell_length_a   3.84398900
_cell_length_b   3.86697000
_cell_length_c   8.55850000
_cell_angle_alpha   90.00000000
_cell_angle_beta   90.00000000
_cell_angle_gamma   90.00000000
_symmetry_Int_Tables_number   1
_chemical_formula_structural   TbAsS
_chemical_formula_sum   'Tb2 As2 S2'
_cell_volume   127.21859474
_cell_formula_units_Z   2
loop_
 _symmetry_equiv_pos_site_id
 _symmetry_equiv_pos_as_xyz
  1  'x, y, z'
loop_
 _atom_site_type_symbol
 _atom_site_label
 _atom_site_symmetry_multiplicity
 _atom_site_fract_x
 _atom_site_fract_y
 _atom_site_fract_z
 _atom_site_occupancy
  Tb  Tb0  1  0.25000000  0.75000000  0.29123600  1
  Tb  Tb1  1  0.75000000  0.25000000  0.70876400  1
  As  As0  1  0.75000000  0.75000000  0.99650800  1
  As  As1  1  0.25000000  0.25000000  0.00349200  1
  S  S0  1  0.25000000  0.75000000  0.62666600  1
  S  S1  1  0.75000000  0.25000000  0.37333400  1
loop_
_geom_bond_atom_site_label_1
_geom_bond_atom_site_label_2
_geom_bond_distance
_geom_bond_site_symmetry_2
As0 As1 2.726903 1_666
As0 As1 2.726903 1_556
As0 As1 2.726903 1_656
As0 As1 2.726903 1_566
As0 Tb1 3.130981 1_555
As0 Tb1 3.130981 1_565
As0 Tb0 3.171232 1_556
As0 Tb0 3.171232 1_656
As1 Tb0 3.130981 1_545
As1 Tb0 3.130981 1_555
As1 Tb1 3.171232 1_554
As1 Tb1 3.171232 1_454
S0 Tb1 2.815337 1_455
S0 Tb1 2.815337 1_555
S0 Tb1 2.815337 1_565
S0 Tb1 2.815337 1_465
S0 Tb0 2.870778 1_555
S1 Tb0 2.815337 1_655
S1 Tb0 2.815337 1_555
S1 Tb0 2.815337 1_545
S1 Tb0 2.815337 1_645
S1 Tb1 2.870778 1_555
