# generated using pymatgen
data_Li3Ni2(PO4)3
_symmetry_space_group_name_H-M   'P 1'
_cell_length_a   8.98881642
_cell_length_b   8.98881642
_cell_length_c   8.98881601
_cell_angle_alpha   56.21194220
_cell_angle_beta   56.21194220
_cell_angle_gamma   56.21194711
_symmetry_Int_Tables_number   1
_chemical_formula_structural   Li3Ni2(PO4)3
_chemical_formula_sum   'Li6 Ni4 P6 O24'
_cell_volume   468.53591253
_cell_formula_units_Z   2
loop_
 _symmetry_equiv_pos_site_id
 _symmetry_equiv_pos_as_xyz
  1  'x, y, z'
loop_
 _atom_site_type_symbol
 _atom_site_label
 _atom_site_symmetry_multiplicity
 _atom_site_fract_x
 _atom_site_fract_y
 _atom_site_fract_z
 _atom_site_occupancy
  Li  Li0  1  0.66235000  0.26654800  0.92134600  1
  Li  Li1  1  0.33765000  0.73345200  0.07865400  1
  Li  Li2  1  0.07865400  0.33765000  0.73345200  1
  Li  Li3  1  0.73345200  0.07865400  0.33765000  1
  Li  Li4  1  0.92134600  0.66235000  0.26654800  1
  Li  Li5  1  0.26654800  0.92134600  0.66235000  1
  Ni  Ni0  1  0.85590600  0.85590600  0.85590600  1
  Ni  Ni1  1  0.34723400  0.34723400  0.34723400  1
  Ni  Ni2  1  0.65276600  0.65276600  0.65276600  1
  Ni  Ni3  1  0.14409400  0.14409400  0.14409400  1
  P  P0  1  0.54165100  0.95653400  0.25386700  1
  P  P1  1  0.95653400  0.25386700  0.54165100  1
  P  P2  1  0.45834900  0.04346600  0.74613300  1
  P  P3  1  0.74613300  0.45834900  0.04346600  1
  P  P4  1  0.04346600  0.74613300  0.45834900  1
  P  P5  1  0.25386700  0.54165100  0.95653400  1
  O  O0  1  0.54274000  0.15275200  0.20916500  1
  O  O1  1  0.16760000  0.53153900  0.49847300  1
  O  O2  1  0.87043800  0.25354400  0.13846600  1
  O  O3  1  0.60769300  0.01048200  0.80523000  1
  O  O4  1  0.46846100  0.50152700  0.83240000  1
  O  O5  1  0.74645600  0.86153400  0.12956200  1
  O  O6  1  0.15275200  0.20916500  0.54274000  1
  O  O7  1  0.98951800  0.19477000  0.39230700  1
  O  O8  1  0.49847300  0.16760000  0.53153900  1
  O  O9  1  0.79083500  0.45726000  0.84724800  1
  O  O10  1  0.13846600  0.87043800  0.25354400  1
  O  O11  1  0.86153400  0.12956200  0.74645600  1
  O  O12  1  0.53153900  0.49847300  0.16760000  1
  O  O13  1  0.80523000  0.60769300  0.01048200  1
  O  O14  1  0.19477000  0.39230700  0.98951800  1
  O  O15  1  0.50152700  0.83240000  0.46846200  1
  O  O16  1  0.45726000  0.84724800  0.79083500  1
  O  O17  1  0.12956200  0.74645600  0.86153400  1
  O  O18  1  0.25354400  0.13846600  0.87043800  1
  O  O19  1  0.01048200  0.80523000  0.60769300  1
  O  O20  1  0.39230700  0.98951800  0.19477000  1
  O  O21  1  0.20916500  0.54274000  0.15275200  1
  O  O22  1  0.83240000  0.46846100  0.50152700  1
  O  O23  1  0.84724800  0.79083500  0.45726000  1
loop_
_geom_bond_atom_site_label_1
_geom_bond_atom_site_label_2
_geom_bond_distance
_geom_bond_site_symmetry_2
Li0 O4 1.927483 1_555
Li0 O11 1.939983 1_555
Li0 O0 2.020298 1_556
Li0 O9 2.189240 1_555
Li1 O12 1.927483 1_555
Li1 O10 1.939983 1_555
Li1 O16 2.020298 1_554
Li1 O21 2.189240 1_555
Li2 O1 1.927483 1_555
Li2 O18 1.939983 1_555
Li2 O9 2.020298 1_455
Li2 O6 2.189240 1_555
Li3 O8 1.927483 1_555
Li3 O2 1.939983 1_555
Li3 O23 2.020298 1_545
Li3 O0 2.189240 1_555
Li4 O22 1.927483 1_555
Li4 O5 1.939983 1_555
Li4 O21 2.020298 1_655
Li4 O23 2.189240 1_555
Li5 O15 1.927478 1_555
Li5 O17 1.939983 1_555
Li5 O6 2.020298 1_565
Li5 O16 2.189240 1_555
Ni0 O19 2.023480 1_655
Ni0 O13 2.023480 1_556
Ni0 O3 2.023480 1_565
Ni0 O5 2.100633 1_556
Ni0 O11 2.100633 1_565
Ni0 O17 2.100633 1_655
Ni1 O6 2.062760 1_555
Ni1 O21 2.062761 1_555
Ni1 O0 2.062761 1_555
Ni1 O12 2.070788 1_555
Ni1 O8 2.070788 1_555
Ni1 O1 2.070788 1_555
Ni2 O23 2.062760 1_555
Ni2 O9 2.062761 1_555
Ni2 O16 2.062761 1_555
Ni2 O15 2.070781 1_555
Ni2 O4 2.070788 1_555
Ni2 O22 2.070788 1_555
Ni3 O7 2.023480 1_455
Ni3 O14 2.023480 1_554
Ni3 O20 2.023480 1_545
Ni3 O18 2.100633 1_554
Ni3 O10 2.100633 1_545
Ni3 O2 2.100633 1_455
O0 P0 1.580821 1_545
O1 P4 1.541374 1_555
O2 P3 1.546497 1_555
O3 P2 1.532153 1_555
O4 P5 1.541374 1_555
O5 P0 1.546497 1_555
O6 P1 1.580821 1_455
O7 P1 1.532152 1_555
O8 P2 1.541374 1_555
O9 P3 1.580821 1_556
O10 P4 1.546497 1_555
O11 P1 1.546497 1_555
O12 P3 1.541374 1_555
O13 P3 1.532153 1_555
O14 P5 1.532153 1_555
O15 P0 1.541380 1_555
O16 P2 1.580821 1_565
O17 P5 1.546497 1_555
O18 P2 1.546497 1_555
O19 P4 1.532152 1_555
O20 P0 1.532153 1_555
O21 P5 1.580821 1_554
O22 P1 1.541374 1_555
O23 P4 1.580821 1_655
