# generated using pymatgen
data_Rb(InAu2)2
_symmetry_space_group_name_H-M   'P 1'
_cell_length_a   7.56518314
_cell_length_b   7.56564055
_cell_length_c   7.56518305
_cell_angle_alpha   107.79897235
_cell_angle_beta   107.79347480
_cell_angle_gamma   112.87319208
_symmetry_Int_Tables_number   1
_chemical_formula_structural   Rb(InAu2)2
_chemical_formula_sum   'Rb2 In4 Au8'
_cell_volume   332.44412562
_cell_formula_units_Z   2
loop_
 _symmetry_equiv_pos_site_id
 _symmetry_equiv_pos_as_xyz
  1  'x, y, z'
loop_
 _atom_site_type_symbol
 _atom_site_label
 _atom_site_symmetry_multiplicity
 _atom_site_fract_x
 _atom_site_fract_y
 _atom_site_fract_z
 _atom_site_occupancy
  Rb  Rb0  1  0.75000052  0.75000000  0.00000052  1
  Rb  Rb1  1  0.24999948  0.25000000  0.99999948  1
  In  In0  1  0.35761125  0.85759569  0.21518023  1
  In  In1  1  0.85758353  0.64240431  0.50001356  1
  In  In2  1  0.14241647  0.35759569  0.49998644  1
  In  In3  1  0.64238875  0.14240431  0.78481977  1
  Au  Au0  1  0.51343813  0.31674904  0.50003935  1
  Au  Au1  1  0.31670969  0.81674904  0.80331191  1
  Au  Au2  1  0.81675032  0.01349288  0.49999145  1
  Au  Au3  1  0.01350043  0.51349288  0.19674256  1
  Au  Au4  1  0.68329031  0.18325096  0.19668809  1
  Au  Au5  1  0.18325068  0.98650712  0.50000855  1
  Au  Au6  1  0.48656187  0.68325096  0.49996065  1
  Au  Au7  1  0.98649957  0.48650712  0.80325744  1
loop_
_geom_bond_atom_site_label_1
_geom_bond_atom_site_label_2
_geom_bond_distance
_geom_bond_site_symmetry_2
Au0 Au5 2.762189 1_545
Au0 In1 2.804039 1_555
Au0 Au6 2.858162 1_555
Au0 In2 2.940678 1_555
Au0 In3 2.964141 1_555
Au0 In0 2.964491 1_545
Au0 Au7 3.054116 1_555
Au0 Au4 3.054827 1_555
Au0 Rb0 3.460643 1_556
Au0 Rb1 3.461092 1_554
Au1 Au7 2.762185 1_455
Au1 In3 2.804039 1_565
Au1 Au4 2.858156 1_566
Au1 In0 2.940674 1_556
Au1 In1 2.964153 1_455
Au1 In2 2.964491 1_555
Au1 Au5 3.054114 1_555
Au1 Au6 3.054827 1_555
Au1 Rb1 3.460641 1_565
Au1 Rb0 3.461091 1_556
Au2 Au6 2.762193 1_545
Au2 In2 2.803820 1_655
Au2 Au5 2.858161 1_645
Au2 In1 2.941440 1_545
Au2 In0 2.964132 1_545
Au2 In3 2.964236 1_555
Au2 Au7 3.053983 1_555
Au2 Au4 3.054116 1_555
Au2 Rb0 3.460729 1_545
Au2 Rb1 3.460990 1_655
Au3 Au4 2.762185 1_455
Au3 In0 2.803829 1_555
Au3 Au7 2.858158 1_454
Au3 In3 2.941446 1_454
Au3 In2 2.964148 1_555
Au3 In1 2.964224 1_455
Au3 Au5 3.053981 1_555
Au3 Au6 3.054116 1_555
Au3 Rb1 3.460736 1_554
Au3 Rb0 3.460985 1_455
Au4 In0 2.804039 1_545
Au4 In3 2.940674 1_554
Au4 In2 2.964153 1_655
Au4 In1 2.964491 1_555
Au4 Rb0 3.460641 1_545
Au4 Rb1 3.461091 1_554
Au5 In1 2.803824 1_455
Au5 In2 2.941444 1_565
Au5 In3 2.964126 1_565
Au5 In0 2.964230 1_555
Au5 Rb1 3.460732 1_565
Au5 Rb0 3.460993 1_455
Au6 In2 2.804039 1_555
Au6 In1 2.940678 1_555
Au6 In0 2.964141 1_555
Au6 In3 2.964491 1_565
Au6 Rb1 3.460643 1_554
Au6 Rb0 3.461092 1_556
Au7 In3 2.803829 1_555
Au7 In0 2.941446 1_656
Au7 In1 2.964148 1_555
Au7 In2 2.964224 1_655
Au7 Rb0 3.460736 1_556
Au7 Rb1 3.460985 1_655
