# generated using pymatgen
data_MgMn6(O2F)4
_symmetry_space_group_name_H-M   'P 1'
_cell_length_a   8.24067433
_cell_length_b   5.68415857
_cell_length_c   5.89856596
_cell_angle_alpha   67.54190855
_cell_angle_beta   64.96797430
_cell_angle_gamma   67.54803941
_symmetry_Int_Tables_number   1
_chemical_formula_structural   MgMn6(O2F)4
_chemical_formula_sum   'Mg1 Mn6 O8 F4'
_cell_volume   223.20968504
_cell_formula_units_Z   1
loop_
 _symmetry_equiv_pos_site_id
 _symmetry_equiv_pos_as_xyz
  1  'x, y, z'
loop_
 _atom_site_type_symbol
 _atom_site_label
 _atom_site_symmetry_multiplicity
 _atom_site_fract_x
 _atom_site_fract_y
 _atom_site_fract_z
 _atom_site_occupancy
  Mg  Mg0  1  0.50337372  0.97815379  0.50466341  1
  Mn  Mn0  1  0.85464993  0.68868038  0.68672786  1
  Mn  Mn1  1  0.68986280  0.35933410  0.33468545  1
  Mn  Mn2  1  0.27286349  0.60143612  0.65329706  1
  Mn  Mn3  1  0.13524982  0.29240719  0.31198493  1
  Mn  Mn4  1  0.49581611  0.98568563  0.00106917  1
  Mn  Mn5  1  0.00557758  0.02994686  0.97449128  1
  O  O0  1  0.67489555  0.03239924  0.64356214  1
  O  O1  1  0.31437252  0.33886215  0.97082622  1
  O  O2  1  0.95491605  0.24189327  0.20637521  1
  O  O3  1  0.02952911  0.80144943  0.78617888  1
  O  O4  1  0.43121826  0.38103538  0.44023598  1
  O  O5  1  0.33582799  0.93251395  0.36727952  1
  O  O6  1  0.67031436  0.64103846  0.02519330  1
  O  O7  1  0.01928676  0.32998501  0.67294947  1
  F  F0  1  0.31877510  0.89637529  0.85814102  1
  F  F1  1  0.65390968  0.60505224  0.55190111  1
  F  F2  1  0.69522964  0.07271947  0.14418253  1
  F  F3  1  0.01575852  0.71960205  0.29482846  1
loop_
_geom_bond_atom_site_label_1
_geom_bond_atom_site_label_2
_geom_bond_distance
_geom_bond_site_symmetry_2
Mg0 O5 2.002835 1_555
Mg0 O4 2.056336 1_565
Mg0 O0 2.066418 1_565
Mn0 O6 1.923903 1_556
Mn0 O0 1.950583 1_565
Mn0 O7 1.981100 1_655
Mn0 O3 2.130753 1_655
Mn1 O2 1.913792 1_555
Mn1 O4 1.918491 1_555
Mn1 O6 1.934196 1_555
Mn1 O0 2.046026 1_555
Mn2 O4 1.848826 1_555
Mn2 O3 1.880779 1_555
Mn2 O1 1.966995 1_555
Mn2 O5 2.058251 1_555
Mn3 O1 1.917327 1_554
Mn3 O2 1.981135 1_455
Mn3 O7 1.990457 1_555
Mn3 O5 2.094528 1_545
Mn4 O6 1.932436 1_555
Mn4 O5 1.972603 1_555
Mn4 O0 1.983234 1_564
Mn4 O1 1.989218 1_564
Mn5 O3 1.918487 1_545
Mn5 O7 1.935081 1_555
Mn5 O2 1.971819 1_456
F0 Mg0 1.998246 1_555
F0 Mn4 2.242890 1_556
F0 Mn5 2.260792 1_565
F0 Mn2 2.613936 1_555
F1 Mg0 1.986385 1_555
F1 Mn1 2.100023 1_555
F1 Mn0 2.365947 1_555
F2 Mg0 2.059322 1_545
F2 Mn5 2.268562 1_654
F2 Mn1 2.284818 1_555
F2 Mn4 2.402447 1_545
F3 Mn5 2.040516 1_564
F3 Mn0 2.099493 1_455
F3 Mn3 2.224065 1_555
