# generated using pymatgen
data_MnVAs
_symmetry_space_group_name_H-M   'P 1'
_cell_length_a   3.66666400
_cell_length_b   3.66666400
_cell_length_c   6.47664300
_cell_angle_alpha   90.00000000
_cell_angle_beta   90.00000000
_cell_angle_gamma   90.00000000
_symmetry_Int_Tables_number   1
_chemical_formula_structural   MnVAs
_chemical_formula_sum   'Mn2 V2 As2'
_cell_volume   87.07474035
_cell_formula_units_Z   2
loop_
 _symmetry_equiv_pos_site_id
 _symmetry_equiv_pos_as_xyz
  1  'x, y, z'
loop_
 _atom_site_type_symbol
 _atom_site_label
 _atom_site_symmetry_multiplicity
 _atom_site_fract_x
 _atom_site_fract_y
 _atom_site_fract_z
 _atom_site_occupancy
  Mn  Mn0  1  0.50000000  0.00000000  0.33895000  1
  Mn  Mn1  1  0.00000000  0.50000000  0.66105000  1
  V  V0  1  0.00000000  0.00000000  0.00000000  1
  V  V1  1  0.50000000  0.50000000  0.00000000  1
  As  As0  1  0.50000000  0.00000000  0.72186600  1
  As  As1  1  0.00000000  0.50000000  0.27813400  1
loop_
_geom_bond_atom_site_label_1
_geom_bond_atom_site_label_2
_geom_bond_distance
_geom_bond_site_symmetry_2
Mn0 V0 2.860116 1_655
Mn0 V0 2.860116 1_555
Mn0 V1 2.860116 1_545
Mn0 V1 2.860116 1_555
Mn1 V1 2.860116 1_456
Mn1 V1 2.860116 1_556
Mn1 V0 2.860116 1_556
Mn1 V0 2.860116 1_566
V0 V1 2.592723 1_445
V0 V1 2.592723 1_545
V0 V1 2.592723 1_455
V0 V1 2.592723 1_555
As0 Mn0 2.480010 1_555
As0 V1 2.570225 1_546
As0 V1 2.570225 1_556
As0 V0 2.570225 1_556
As0 V0 2.570225 1_656
As0 Mn1 2.622471 1_645
As0 Mn1 2.622471 1_545
As0 Mn1 2.622471 1_655
As0 Mn1 2.622471 1_555
As1 Mn1 2.480010 1_555
As1 V0 2.570225 1_555
As1 V1 2.570225 1_555
As1 V1 2.570225 1_455
As1 V0 2.570225 1_565
As1 Mn0 2.622471 1_465
As1 Mn0 2.622471 1_565
As1 Mn0 2.622471 1_455
As1 Mn0 2.622471 1_555
