# generated using pymatgen
data_Na3Zn3GePS5O24
_symmetry_space_group_name_H-M   'P 1'
_cell_length_a   8.70850711
_cell_length_b   8.68177682
_cell_length_c   22.33971616
_cell_angle_alpha   90.41477386
_cell_angle_beta   89.97316101
_cell_angle_gamma   120.27550406
_symmetry_Int_Tables_number   1
_chemical_formula_structural   Na3Zn3GePS5O24
_chemical_formula_sum   'Na9 Zn9 Ge3 P3 S15 O72'
_cell_volume   1458.59226353
_cell_formula_units_Z   3
loop_
 _symmetry_equiv_pos_site_id
 _symmetry_equiv_pos_as_xyz
  1  'x, y, z'
loop_
 _atom_site_type_symbol
 _atom_site_label
 _atom_site_symmetry_multiplicity
 _atom_site_fract_x
 _atom_site_fract_y
 _atom_site_fract_z
 _atom_site_occupancy
  Na  Na0  1  0.36266719  0.36261520  0.25134994  1
  Na  Na1  1  0.03061313  0.70051066  0.58455999  1
  Na  Na2  1  0.29841750  0.96444088  0.08016131  1
  Na  Na3  1  0.99314509  0.00303407  0.50009091  1
  Na  Na4  1  0.99734280  0.00719162  0.99316351  1
  Na  Na5  1  0.66600320  0.33000148  0.83025648  1
  Na  Na6  1  0.67718292  0.33210339  0.33378149  1
  Na  Na7  1  0.33294520  0.66589639  0.16721478  1
  Na  Na8  1  0.35104301  0.66393756  0.66670346  1
  Zn  Zn0  1  0.99648051  0.99733620  0.35111236  1
  Zn  Zn1  1  0.00811905  0.00842963  0.85218322  1
  Zn  Zn2  1  0.98670364  0.99727818  0.65197848  1
  Zn  Zn3  1  0.98984751  0.99707164  0.15109085  1
  Zn  Zn4  1  0.66143786  0.33756452  0.68595426  1
  Zn  Zn5  1  0.67559556  0.33558725  0.18442360  1
  Zn  Zn6  1  0.32947324  0.66187128  0.01157080  1
  Zn  Zn7  1  0.34764092  0.66597902  0.51671220  1
  Zn  Zn8  1  0.33321254  0.67529260  0.32066887  1
  Ge  Ge0  1  0.67257074  0.32857377  0.97548739  1
  Ge  Ge1  1  0.66758837  0.33828307  0.48496601  1
  Ge  Ge2  1  0.32398441  0.66894340  0.81934957  1
  P  P0  1  0.66431655  0.62356257  0.58391508  1
  P  P1  1  0.04075576  0.37519230  0.91768981  1
  P  P2  1  0.33430676  0.95988374  0.91948410  1
  S  S0  1  0.29378795  0.99664960  0.24883854  1
  S  S1  1  0.70445883  0.70581063  0.25035268  1
  S  S2  1  0.99967166  0.29483698  0.25082214  1
  S  S3  1  0.29446397  0.30171084  0.75200980  1
  S  S4  1  0.00599264  0.70515928  0.75178176  1
  S  S5  1  0.69705694  0.99357649  0.75304032  1
  S  S6  1  0.95416538  0.33010782  0.58208188  1
  S  S7  1  0.37834383  0.04549017  0.58223919  1
  S  S8  1  0.95377641  0.62079493  0.08182998  1
  S  S9  1  0.66960754  0.04421934  0.08167963  1
  S  S10  1  0.38009433  0.33812626  0.08254807  1
  S  S11  1  0.62381540  0.66222131  0.91761541  1
  S  S12  1  0.63099748  0.97183099  0.41903371  1
  S  S13  1  0.33770913  0.36744407  0.41734568  1
  S  S14  1  0.03234020  0.66133837  0.41978615  1
  O  O0  1  0.21056345  0.02974479  0.30119031  1
  O  O1  1  0.81176318  0.78628698  0.30427396  1
  O  O2  1  0.97395551  0.18769447  0.30430847  1
  O  O3  1  0.21396940  0.19478033  0.80533596  1
  O  O4  1  0.98094640  0.79141981  0.80404385  1
  O  O5  1  0.80573045  0.01991257  0.80594108  1
  O  O6  1  0.76666183  0.95795524  0.69732742  1
  O  O7  1  0.18835639  0.22725591  0.69667051  1
  O  O8  1  0.03932232  0.80629827  0.69522191  1
  O  O9  1  0.78106324  0.80837125  0.19539110  1
  O  O10  1  0.03407802  0.21811394  0.19599429  1
  O  O11  1  0.19244750  0.97170684  0.19218022  1
  O  O12  1  0.87430994  0.36172485  0.63533602  1
  O  O13  1  0.48776159  0.12325338  0.63568688  1
  O  O14  1  0.63841609  0.51067907  0.63815123  1
  O  O15  1  0.87379103  0.51688161  0.13575356  1
  O  O16  1  0.63510074  0.12330988  0.13524580  1
  O  O17  1  0.48011161  0.35965472  0.13877428  1
  O  O18  1  0.46696082  0.30086205  0.02899590  1
  O  O19  1  0.84042797  0.53583610  0.02639740  1
  O  O20  1  0.69793682  0.15752808  0.02657243  1
  O  O21  1  0.46219141  0.15725697  0.52607642  1
  O  O22  1  0.70736575  0.53758641  0.52548935  1
  O  O23  1  0.83885443  0.29648683  0.52583522  1
  O  O24  1  0.54973362  0.69061409  0.97244064  1
  O  O25  1  0.14621014  0.45127771  0.97449831  1
  O  O26  1  0.31330854  0.86290556  0.97792247  1
  O  O27  1  0.54968226  0.86479319  0.47211646  1
  O  O28  1  0.30988183  0.45123284  0.46981045  1
  O  O29  1  0.13672075  0.68648030  0.47458032  1
  O  O30  1  0.10843694  0.62803865  0.36553182  1
  O  O31  1  0.52427083  0.89874855  0.36370819  1
  O  O32  1  0.37140246  0.47178190  0.36143557  1
  O  O33  1  0.12469900  0.49897283  0.86079411  1
  O  O34  1  0.37603237  0.87419544  0.86319816  1
  O  O35  1  0.50698743  0.62445367  0.86310523  1
  O  O36  1  0.00885764  0.81733145  0.41335876  1
  O  O37  1  0.81063747  0.99604926  0.41278379  1
  O  O38  1  0.18106298  0.18641558  0.41156316  1
  O  O39  1  0.00879117  0.18817611  0.90868428  1
  O  O40  1  0.17335729  0.98069875  0.90995701  1
  O  O41  1  0.80163756  0.81635030  0.90922758  1
  O  O42  1  0.97344397  0.17245443  0.58556970  1
  O  O43  1  0.20122065  0.03004938  0.58553344  1
  O  O44  1  0.83978777  0.80696557  0.58591760  1
  O  O45  1  0.97406820  0.80214981  0.08484938  1
  O  O46  1  0.83026522  0.03015513  0.08603501  1
  O  O47  1  0.20202622  0.17080428  0.08526271  1
  O  O48  1  0.67317940  0.14976095  0.74622095  1
  O  O49  1  0.47468001  0.32579015  0.74685883  1
  O  O50  1  0.85168261  0.52241947  0.74679625  1
  O  O51  1  0.68004715  0.52199422  0.24565311  1
  O  O52  1  0.84061300  0.31381853  0.24502383  1
  O  O53  1  0.47297287  0.16285917  0.24470802  1
  O  O54  1  0.63732109  0.49341063  0.92258267  1
  O  O55  1  0.85103417  0.36471702  0.92258144  1
  O  O56  1  0.51091715  0.15339406  0.92348864  1
  O  O57  1  0.64557590  0.15559147  0.42572786  1
  O  O58  1  0.50539836  0.35291464  0.42452106  1
  O  O59  1  0.84871532  0.49073177  0.42452567  1
  O  O60  1  0.36397358  0.49640071  0.07641856  1
  O  O61  1  0.13423009  0.64357471  0.07760390  1
  O  O62  1  0.50685694  0.86612869  0.07580314  1
  O  O63  1  0.35207581  0.86381789  0.57469007  1
  O  O64  1  0.49995857  0.64082364  0.57606312  1
  O  O65  1  0.12820141  0.49614466  0.57418773  1
  O  O66  1  0.31235088  0.83751993  0.25506849  1
  O  O67  1  0.52171078  0.68190834  0.25556468  1
  O  O68  1  0.16502353  0.47471519  0.25635727  1
  O  O69  1  0.31118559  0.48691997  0.75918436  1
  O  O70  1  0.17608878  0.69228115  0.75839427  1
  O  O71  1  0.51255763  0.82273645  0.75969094  1
loop_
_geom_bond_atom_site_label_1
_geom_bond_atom_site_label_2
_geom_bond_distance
_geom_bond_site_symmetry_2
Na0 O68 2.368422 1_555
Na0 O53 2.372392 1_555
Na0 O51 2.390814 1_555
Na0 O67 2.395078 1_555
Na0 O32 2.616455 1_555
Na0 O17 2.719308 1_555
Na0 O0 2.744308 1_555
Na0 O10 2.766322 1_555
Na1 O44 2.272637 1_455
Na1 O65 2.331992 1_555
Na1 O63 2.428500 1_555
Na1 O43 2.471075 1_565
Na1 O8 2.618755 1_555
Na1 O29 2.648046 1_555
Na1 O22 2.761877 1_455
Na1 O12 2.792937 1_455
Na2 O47 2.332559 1_565
Na2 O62 2.365111 1_555
Na2 O61 2.406101 1_555
Na2 O45 2.442029 1_455
Na2 O26 2.469069 1_554
Na2 O11 2.678101 1_555
Na2 O18 2.777710 1_565
Na2 O16 2.813274 1_565
Na3 O42 2.460252 1_555
Na3 O44 2.471836 1_545
Na3 O37 2.497580 1_545
Na3 O38 2.557245 1_655
Na3 O36 2.559131 1_645
Na3 O43 2.559307 1_655
Na4 O39 2.434195 1_655
Na4 O40 2.490834 1_645
Na4 O41 2.505305 1_545
Na4 O46 2.597096 1_556
Na4 O47 2.614622 1_656
Na4 O45 2.663418 1_546
Na5 O48 2.456188 1_555
Na5 O49 2.487754 1_555
Na5 O50 2.490016 1_555
Na5 O55 2.538829 1_555
Na5 O56 2.543326 1_555
Na5 O54 2.577514 1_555
Na6 O59 2.475006 1_555
Na6 O52 2.490578 1_555
Na6 O57 2.502599 1_555
Na6 O51 2.569043 1_555
Na6 O53 2.570482 1_555
Na6 O58 2.577623 1_555
Na7 O66 2.516136 1_555
Na7 O67 2.527016 1_555
Na7 O68 2.541036 1_555
Na7 O61 2.588289 1_555
Na7 O60 2.590337 1_555
Na7 O62 2.622921 1_555
Na8 O64 2.465002 1_555
Na8 O71 2.490042 1_555
Na8 O69 2.501617 1_555
Na8 O70 2.635415 1_555
Na8 O65 2.696169 1_555
Na8 O63 2.696774 1_555
Ge0 O55 1.850044 1_555
Ge0 O56 1.860475 1_555
Ge0 O20 1.977851 1_556
Ge0 O19 1.996965 1_556
Ge0 O54 2.001706 1_555
Ge0 O18 2.064137 1_556
Ge1 O22 1.818444 1_555
Ge1 O21 1.922946 1_555
Ge1 O23 1.934300 1_555
Ge1 O57 1.991729 1_555
Ge1 O59 1.995417 1_555
Ge1 O58 2.004908 1_555
Ge2 O33 1.866188 1_555
Ge2 O34 1.871119 1_555
Ge2 O70 1.955230 1_555
Ge2 O71 2.017080 1_555
Ge2 O69 2.026833 1_555
Ge2 O35 2.066907 1_555
O0 S0 1.476460 1_545
O0 Zn0 2.066974 1_445
O1 S1 1.463881 1_555
O1 Zn0 2.010380 1_555
O2 S2 1.465916 1_555
O2 Zn0 2.053062 1_545
O3 S3 1.459947 1_555
O3 Zn1 2.006168 1_555
O4 S4 1.457164 1_655
O4 Zn1 2.069654 1_665
O5 S5 1.457222 1_545
O5 Zn1 2.088991 1_655
O6 S5 1.481504 1_555
O6 Zn2 2.039216 1_555
O7 S3 1.478940 1_555
O7 Zn2 2.122388 1_445
O8 S4 1.486774 1_555
O8 Zn2 2.163798 1_455
O9 S1 1.470218 1_555
O9 Zn3 1.996869 1_555
O10 S2 1.490896 1_455
O10 Zn3 2.016064 1_445
O11 S0 1.494054 1_555
O11 Zn3 2.097663 1_455
O12 S6 1.470127 1_555
O12 Zn4 2.090134 1_555
O13 S7 1.459499 1_555
O13 Zn4 2.035746 1_555
O14 P0 1.507781 1_555
O14 Zn4 1.940802 1_555
O15 S8 1.459980 1_555
O15 Zn5 1.980488 1_555
O16 S9 1.479725 1_555
O16 Zn5 2.010845 1_555
O17 S10 1.484852 1_555
O17 Zn5 2.084488 1_555
O18 S10 1.532473 1_555
O19 S8 1.518453 1_555
O20 S9 1.522061 1_555
O21 S7 1.533377 1_555
O22 P0 1.633669 1_555
O23 S6 1.540387 1_555
O24 S11 1.460238 1_555
O24 Zn6 2.006149 1_556
O25 P1 1.505845 1_555
O25 Zn6 1.900752 1_556
O26 P2 1.518907 1_555
O26 Zn6 1.974306 1_556
O27 S12 1.457018 1_555
O27 Zn7 2.007139 1_555
O28 S13 1.458329 1_555
O28 Zn7 2.008917 1_555
O29 S14 1.472895 1_555
O29 Zn7 2.150602 1_555
O30 S14 1.476176 1_555
O30 Zn8 2.049098 1_555
O31 S12 1.479563 1_555
O31 Zn8 2.043574 1_555
O32 S13 1.488192 1_555
O32 Zn8 2.162821 1_555
O33 P1 1.591084 1_555
O34 P2 1.589070 1_555
O35 S11 1.511461 1_555
O36 S14 1.476027 1_555
O36 Zn0 2.142187 1_455
O37 S12 1.476346 1_555
O37 Zn0 2.120711 1_555
O38 S13 1.477534 1_555
O38 Zn0 2.100372 1_445
O39 P1 1.514512 1_555
O39 Zn1 1.997680 1_555
O40 P2 1.516164 1_555
O40 Zn1 2.037144 1_565
O41 S11 1.462082 1_555
O41 Zn1 2.154826 1_665
O42 S6 1.463177 1_555
O42 Zn2 2.176493 1_545
O43 S7 1.481272 1_555
O43 Zn2 2.289488 1_445
O44 P0 1.555006 1_555
O44 Zn2 2.092783 1_555
O45 S8 1.494223 1_555
O45 Zn3 2.191339 1_555
O46 S9 1.467780 1_555
O46 Zn3 2.129885 1_545
O47 S10 1.499461 1_555
O47 Zn3 2.251937 1_445
O48 S5 1.480672 1_545
O48 Zn4 2.163685 1_555
O49 S3 1.479650 1_555
O49 Zn4 2.083046 1_555
O50 S4 1.477538 1_655
O50 Zn4 2.111250 1_555
O51 S1 1.502823 1_555
O51 Zn5 2.096734 1_555
O52 S2 1.480964 1_555
O52 Zn5 2.052553 1_555
O53 S0 1.502354 1_545
O53 Zn5 2.129551 1_555
O54 S11 1.533048 1_555
O55 P1 1.611961 1_655
O56 P2 1.608885 1_545
O57 S12 1.541433 1_545
O58 S13 1.536359 1_555
O59 S14 1.541449 1_655
O60 S10 1.457351 1_555
O60 Zn6 2.172198 1_555
O61 S8 1.484701 1_455
O61 Zn6 2.195674 1_555
O62 S9 1.484659 1_565
O62 Zn6 2.189305 1_555
O63 S7 1.483521 1_565
O63 Zn7 2.128411 1_555
O64 P0 1.522752 1_555
O64 Zn7 1.965476 1_555
O65 S6 1.485453 1_455
O65 Zn7 2.158366 1_555
O66 S0 1.477199 1_555
O66 Zn8 2.110086 1_555
O67 S1 1.502182 1_555
O67 Zn8 2.171902 1_555
O68 S2 1.502502 1_455
O68 Zn8 2.153079 1_555
O69 S3 1.546794 1_555
O70 S4 1.547889 1_555
O71 S5 1.550338 1_555
