# generated using pymatgen
data_Ta9(CoS3)2
_symmetry_space_group_name_H-M   'P 1'
_cell_length_a   10.31429669
_cell_length_b   10.31421681
_cell_length_c   6.58501098
_cell_angle_alpha   89.99981215
_cell_angle_beta   90.00003593
_cell_angle_gamma   120.00066807
_symmetry_Int_Tables_number   1
_chemical_formula_structural   Ta9(CoS3)2
_chemical_formula_sum   'Ta18 Co4 S12'
_cell_volume   606.68057210
_cell_formula_units_Z   2
loop_
 _symmetry_equiv_pos_site_id
 _symmetry_equiv_pos_as_xyz
  1  'x, y, z'
loop_
 _atom_site_type_symbol
 _atom_site_label
 _atom_site_symmetry_multiplicity
 _atom_site_fract_x
 _atom_site_fract_y
 _atom_site_fract_z
 _atom_site_occupancy
  Ta  Ta0  1  0.73962911  0.19229485  0.50000517  1
  Ta  Ta1  1  0.47225724  0.25944886  0.00000100  1
  Ta  Ta2  1  0.54335163  0.54334671  0.24912287  1
  Ta  Ta3  1  0.99997751  0.45664277  0.75088005  1
  Ta  Ta4  1  0.54733662  0.80773357  0.49999547  1
  Ta  Ta5  1  0.19231139  0.73964616  0.49999405  1
  Ta  Ta6  1  0.26036180  0.45265229  0.49999547  1
  Ta  Ta7  1  0.45666603  0.00001222  0.75087666  1
  Ta  Ta8  1  0.80772428  0.54734037  0.49999854  1
  Ta  Ta9  1  0.74053238  0.21278552  0.00000004  1
  Ta  Ta10  1  0.25947974  0.47227350  0.00000373  1
  Ta  Ta11  1  0.78721464  0.52773362  0.00000123  1
  Ta  Ta12  1  0.99997532  0.45664263  0.24912233  1
  Ta  Ta13  1  0.52772331  0.78723217  0.00000554  1
  Ta  Ta14  1  0.45265594  0.26033682  0.50000074  1
  Ta  Ta15  1  0.54335140  0.54334808  0.75087673  1
  Ta  Ta16  1  0.45666892  0.00001785  0.24912631  1
  Ta  Ta17  1  0.21279964  0.74053218  0.00000247  1
  Co  Co0  1  0.66666365  0.33332985  0.27994011  1
  Co  Co1  1  0.66666330  0.33333037  0.72006569  1
  Co  Co2  1  0.33332827  0.66666624  0.72003324  1
  Co  Co3  1  0.33332933  0.66666702  0.27995645  1
  S  S0  1  0.29730093  0.29728196  0.76165385  1
  S  S1  1  0.70268701  0.00002175  0.76165285  1
  S  S2  1  0.72633475  0.72633539  0.49999562  1
  S  S3  1  0.27474652  0.00000222  0.00000203  1
  S  S4  1  0.00000118  0.70268968  0.76165377  1
  S  S5  1  0.29729690  0.29728445  0.23834571  1
  S  S6  1  0.00000791  0.70269471  0.23834408  1
  S  S7  1  0.99998569  0.27366616  0.49999838  1
  S  S8  1  0.99998720  0.27472364  0.00000306  1
  S  S9  1  0.72527696  0.72527535  0.00000185  1
  S  S10  1  0.70268495  0.00001525  0.23834767  1
  S  S11  1  0.27368753  0.99999780  0.49999823  1
loop_
_geom_bond_atom_site_label_1
_geom_bond_atom_site_label_2
_geom_bond_distance
_geom_bond_site_symmetry_2
Co0 Ta14 2.424290 1_555
Co0 Ta0 2.424292 1_555
Co0 Ta8 2.424354 1_555
Co0 Ta11 2.543903 1_555
Co0 Ta1 2.543912 1_555
Co0 Ta9 2.543978 1_555
Co1 Ta0 2.424286 1_555
Co1 Ta14 2.424305 1_555
Co1 Ta8 2.424378 1_555
Co1 Ta1 2.543889 1_556
Co1 Ta11 2.543893 1_556
Co1 Ta9 2.543950 1_556
Co2 Ta5 2.424146 1_555
Co2 Ta4 2.424272 1_555
Co2 Ta6 2.424279 1_555
Co2 Ta10 2.543988 1_556
Co2 Ta17 2.544000 1_556
Co2 Ta13 2.544042 1_556
Co3 Ta5 2.424147 1_555
Co3 Ta4 2.424273 1_555
Co3 Ta6 2.424280 1_555
Co3 Ta10 2.543916 1_555
Co3 Ta17 2.543925 1_555
Co3 Ta13 2.543929 1_555
S0 Ta14 2.508412 1_555
S0 Ta6 2.508507 1_555
S0 Ta15 2.538875 1_555
S0 Ta1 2.564418 1_556
S0 Ta10 2.564647 1_556
S1 Ta0 2.508175 1_555
S1 Ta4 2.508343 1_545
S1 Ta7 2.538476 1_555
S1 Ta9 2.564165 1_556
S1 Ta13 2.564435 1_546
S2 Ta8 2.379709 1_555
S2 Ta4 2.379815 1_555
S2 Ta2 2.508224 1_555
S2 Ta15 2.508250 1_555
S3 Ta1 2.420629 1_555
S3 Ta17 2.420841 1_545
S3 Ta16 2.492343 1_555
S3 Ta7 2.492348 1_554
S4 Ta8 2.508279 1_455
S4 Ta5 2.508483 1_555
S4 Ta3 2.538651 1_455
S4 Ta11 2.564382 1_456
S4 Ta17 2.564468 1_556
S5 Ta6 2.508438 1_555
S5 Ta14 2.508460 1_555
S5 Ta2 2.538877 1_555
S5 Ta1 2.564457 1_555
S5 Ta10 2.564566 1_555
S6 Ta8 2.508315 1_455
S6 Ta5 2.508402 1_555
S6 Ta12 2.538659 1_455
S6 Ta17 2.564400 1_555
S6 Ta11 2.564418 1_455
S7 Ta0 2.379473 1_555
S7 Ta6 2.379608 1_655
S7 Ta12 2.508207 1_555
S7 Ta3 2.508232 1_555
S8 Ta9 2.420736 1_555
S8 Ta10 2.421079 1_655
S8 Ta12 2.492395 1_555
S8 Ta3 2.492396 1_554
S9 Ta11 2.420980 1_555
S9 Ta13 2.421246 1_555
S9 Ta2 2.492402 1_555
S9 Ta15 2.492422 1_554
S10 Ta4 2.508255 1_545
S10 Ta0 2.508271 1_555
S10 Ta16 2.538488 1_555
S10 Ta9 2.564205 1_555
S10 Ta13 2.564360 1_545
S11 Ta14 2.379274 1_565
S11 Ta5 2.379393 1_555
S11 Ta16 2.508125 1_565
S11 Ta7 2.508151 1_565
