# generated using pymatgen
data_Na4CaMgP2SO12
_symmetry_space_group_name_H-M   'P 1'
_cell_length_a   9.24321431
_cell_length_b   9.22154563
_cell_length_c   22.46241271
_cell_angle_alpha   89.97262035
_cell_angle_beta   90.08638079
_cell_angle_gamma   120.06293831
_symmetry_Int_Tables_number   1
_chemical_formula_structural   Na4CaMgP2SO12
_chemical_formula_sum   'Na24 Ca6 Mg6 P12 S6 O72'
_cell_volume   1657.05711365
_cell_formula_units_Z   6
loop_
 _symmetry_equiv_pos_site_id
 _symmetry_equiv_pos_as_xyz
  1  'x, y, z'
loop_
 _atom_site_type_symbol
 _atom_site_label
 _atom_site_symmetry_multiplicity
 _atom_site_fract_x
 _atom_site_fract_y
 _atom_site_fract_z
 _atom_site_occupancy
  Na  Na0  1  0.63296895  0.00686951  0.25632699  1
  Na  Na1  1  0.35378936  0.35194059  0.24535034  1
  Na  Na2  1  0.00749973  0.63160165  0.24815502  1
  Na  Na3  1  0.62648214  0.63170287  0.74517452  1
  Na  Na4  1  0.99479729  0.34874453  0.74182610  1
  Na  Na5  1  0.37538750  0.01215588  0.75369260  1
  Na  Na6  1  0.29897695  0.33790274  0.59248653  1
  Na  Na7  1  0.01744547  0.68515078  0.58034909  1
  Na  Na8  1  0.67980779  0.96861096  0.58408665  1
  Na  Na9  1  0.28839680  0.96833601  0.08497971  1
  Na  Na10  1  0.66805423  0.68546736  0.08164094  1
  Na  Na11  1  0.03893257  0.33711612  0.09390968  1
  Na  Na12  1  0.96987567  0.67657946  0.92374306  1
  Na  Na13  1  0.68369254  0.01569005  0.91093312  1
  Na  Na14  1  0.34406499  0.30202569  0.91481443  1
  Na  Na15  1  0.95885546  0.29719151  0.41156808  1
  Na  Na16  1  0.32889956  0.01668010  0.40847288  1
  Na  Na17  1  0.70960192  0.67890288  0.41988410  1
  Na  Na18  1  0.98142900  0.98974859  0.49952302  1
  Na  Na19  1  0.00820314  0.99019979  0.00145100  1
  Na  Na20  1  0.64900831  0.32445373  0.83224513  1
  Na  Na21  1  0.67460660  0.32581460  0.33130028  1
  Na  Na22  1  0.31790307  0.65807251  0.16942399  1
  Na  Na23  1  0.34108908  0.65992944  0.66587894  1
  Ca  Ca0  1  0.00022364  0.00275594  0.84377391  1
  Ca  Ca1  1  0.66211716  0.33639001  0.98979136  1
  Ca  Ca2  1  0.67447246  0.33632693  0.48481054  1
  Ca  Ca3  1  0.33478477  0.66785022  0.01784846  1
  Ca  Ca4  1  0.33375092  0.66920335  0.51402712  1
  Ca  Ca5  1  0.33963660  0.66846908  0.81610099  1
  Mg  Mg0  1  0.00229358  0.00259319  0.34560717  1
  Mg  Mg1  1  0.99302537  0.00399245  0.65200353  1
  Mg  Mg2  1  0.01281258  0.00477985  0.15504599  1
  Mg  Mg3  1  0.66866984  0.33524354  0.68044518  1
  Mg  Mg4  1  0.66608704  0.33403949  0.18372798  1
  Mg  Mg5  1  0.32458072  0.67234423  0.31697560  1
  P  P0  1  0.30077814  0.00123375  0.25059828  1
  P  P1  1  0.00002403  0.29718863  0.25009592  1
  P  P2  1  0.30745707  0.29853485  0.74537772  1
  P  P3  1  0.69777683  0.00891381  0.74624523  1
  P  P4  1  0.96741987  0.32758402  0.58664493  1
  P  P5  1  0.67425407  0.63947557  0.58661549  1
  P  P6  1  0.96501088  0.63989870  0.08897170  1
  P  P7  1  0.35947045  0.32590673  0.08889425  1
  P  P8  1  0.64327201  0.66737640  0.91713330  1
  P  P9  1  0.33261231  0.97398412  0.91653303  1
  P  P10  1  0.63828366  0.96322921  0.41187380  1
  P  P11  1  0.03300132  0.67520963  0.41274286  1
  S  S0  1  0.70362112  0.70408178  0.24972585  1
  S  S1  1  0.99362465  0.69464910  0.74559631  1
  S  S2  1  0.36188954  0.03582864  0.58634004  1
  S  S3  1  0.67528934  0.03624466  0.08835883  1
  S  S4  1  0.02652445  0.36095132  0.91670266  1
  S  S5  1  0.32707486  0.36389643  0.41220674  1
  O  O0  1  0.21703660  0.02801633  0.30606385  1
  O  O1  1  0.80722114  0.78592086  0.30324507  1
  O  O2  1  0.97462448  0.18741272  0.30559063  1
  O  O3  1  0.23795963  0.20512371  0.80489470  1
  O  O4  1  0.97355302  0.76615370  0.80212064  1
  O  O5  1  0.79179880  0.03291628  0.80580893  1
  O  O6  1  0.79524510  0.98671953  0.69472289  1
  O  O7  1  0.19220797  0.19756874  0.69307056  1
  O  O8  1  0.01314157  0.80510873  0.69502184  1
  O  O9  1  0.78428007  0.80834482  0.19624105  1
  O  O10  1  0.02242220  0.21174838  0.19427208  1
  O  O11  1  0.19020235  0.97329659  0.19527990  1
  O  O12  1  0.87215492  0.34688835  0.63970601  1
  O  O13  1  0.47056258  0.12709364  0.63725346  1
  O  O14  1  0.65387910  0.52310033  0.63922318  1
  O  O15  1  0.86703124  0.52091917  0.14086616  1
  O  O16  1  0.65727275  0.12885514  0.13872440  1
  O  O17  1  0.47600378  0.34472852  0.14145847  1
  O  O18  1  0.42926970  0.30102155  0.02971182  1
  O  O19  1  0.87464493  0.56904881  0.02886903  1
  O  O20  1  0.69790209  0.12771542  0.03163782  1
  O  O21  1  0.43286259  0.12977462  0.53011288  1
  O  O22  1  0.69425396  0.56577466  0.52728353  1
  O  O23  1  0.86933472  0.30177253  0.52807335  1
  O  O24  1  0.55711372  0.68142626  0.97402159  1
  O  O25  1  0.12555991  0.44535984  0.97045875  1
  O  O26  1  0.31552215  0.87083252  0.97297211  1
  O  O27  1  0.56739831  0.86770117  0.47109025  1
  O  O28  1  0.30654146  0.43584074  0.46853706  1
  O  O29  1  0.12892122  0.69937146  0.47196101  1
  O  O30  1  0.12737833  0.65159296  0.36039224  1
  O  O31  1  0.52405724  0.86489133  0.35884477  1
  O  O32  1  0.34712344  0.47330650  0.36111273  1
  O  O33  1  0.10751873  0.45928053  0.86250768  1
  O  O34  1  0.34206537  0.88510957  0.85961109  1
  O  O35  1  0.53876752  0.64900534  0.86105642  1
  O  O36  1  0.01564858  0.83476251  0.40603674  1
  O  O37  1  0.81774481  0.98710400  0.40648350  1
  O  O38  1  0.17460397  0.19407205  0.40700057  1
  O  O39  1  0.01206760  0.19293968  0.91482553  1
  O  O40  1  0.17684819  0.99676953  0.91606996  1
  O  O41  1  0.81801444  0.82919398  0.91537989  1
  O  O42  1  0.99099093  0.17155411  0.59158931  1
  O  O43  1  0.19060296  0.01258778  0.59211405  1
  O  O44  1  0.83553977  0.81597878  0.59211640  1
  O  O45  1  0.97909595  0.81570121  0.09460583  1
  O  O46  1  0.82402477  0.01444011  0.09477129  1
  O  O47  1  0.18051246  0.16946259  0.09387545  1
  O  O48  1  0.67927859  0.16749281  0.73988544  1
  O  O49  1  0.48684896  0.32338493  0.74000648  1
  O  O50  1  0.84161162  0.52504081  0.74056867  1
  O  O51  1  0.68676296  0.53382158  0.24538836  1
  O  O52  1  0.84234837  0.31912360  0.24531085  1
  O  O53  1  0.47971518  0.16080561  0.24527627  1
  O  O54  1  0.66443242  0.51034861  0.91741631  1
  O  O55  1  0.85695915  0.34118643  0.91966568  1
  O  O56  1  0.49675093  0.14728107  0.91728787  1
  O  O57  1  0.64892174  0.13822645  0.41281571  1
  O  O58  1  0.47818668  0.34475306  0.41498294  1
  O  O59  1  0.85503862  0.51596246  0.41357981  1
  O  O60  1  0.34539574  0.48802723  0.08817372  1
  O  O61  1  0.14319189  0.65974414  0.08888350  1
  O  O62  1  0.52099934  0.86751781  0.08681716  1
  O  O63  1  0.34835155  0.86749157  0.58448710  1
  O  O64  1  0.51600165  0.65928140  0.58602748  1
  O  O65  1  0.14334993  0.48978787  0.58518407  1
  O  O66  1  0.32168780  0.84269051  0.25534705  1
  O  O67  1  0.53227529  0.68246207  0.25453480  1
  O  O68  1  0.16185486  0.47518144  0.25492874  1
  O  O69  1  0.31742886  0.47287985  0.74523623  1
  O  O70  1  0.14431685  0.67534552  0.74743564  1
  O  O71  1  0.52015650  0.84979253  0.74604267  1
loop_
_geom_bond_atom_site_label_1
_geom_bond_atom_site_label_2
_geom_bond_distance
_geom_bond_site_symmetry_2
Na0 O53 2.469126 1_555
Na0 O66 2.491304 1_545
Na0 O52 2.552550 1_555
Na0 O31 2.591147 1_545
Na0 O67 2.650956 1_545
Na0 O16 2.835467 1_555
Na0 O2 2.948359 1_555
Na1 O68 2.550820 1_555
Na1 O53 2.552818 1_555
Na1 O17 2.609576 1_555
Na1 O67 2.648728 1_555
Na1 O51 2.667154 1_555
Na1 O32 2.844344 1_555
Na1 O10 2.897006 1_555
Na1 O0 2.932348 1_555
Na2 O68 2.490056 1_555
Na2 O52 2.496070 1_455
Na2 O66 2.565961 1_555
Na2 O51 2.631962 1_455
Na2 O15 2.683407 1_455
Na2 O30 2.721248 1_555
Na3 O49 2.467023 1_555
Na3 O69 2.472587 1_555
Na3 O50 2.625362 1_555
Na3 O14 2.643732 1_555
Na3 O71 2.644096 1_555
Na3 O35 2.755850 1_555
Na4 O48 2.533150 1_555
Na4 O12 2.553415 1_555
Na4 O69 2.605505 1_655
Na4 O70 2.612697 1_655
Na4 O50 2.637186 1_555
Na4 O33 2.898807 1_655
Na4 O5 2.932148 1_555
Na4 O7 3.004747 1_655
Na5 O48 2.451344 1_555
Na5 O71 2.463759 1_545
Na5 O49 2.535852 1_555
Na5 O34 2.601146 1_545
Na5 O70 2.753437 1_545
Na5 O13 2.794327 1_555
Na5 O3 2.893775 1_555
Na6 O65 2.464868 1_555
Na6 O42 2.466234 1_455
Na6 O7 2.545135 1_555
Na6 O64 2.621493 1_555
Na6 O43 2.644270 1_555
Na6 O28 2.916721 1_555
Na7 O44 2.527140 1_455
Na7 O65 2.590696 1_555
Na7 O29 2.622660 1_555
Na7 O43 2.627984 1_565
Na7 O63 2.652874 1_555
Na7 O8 2.811985 1_555
Na7 O22 2.872716 1_455
Na8 O64 2.470635 1_555
Na8 O44 2.472759 1_555
Na8 O42 2.531739 1_565
Na8 O6 2.675124 1_555
Na8 O63 2.719149 1_555
Na8 O27 2.722758 1_555
Na8 O23 2.949814 1_565
Na9 O61 2.465874 1_555
Na9 O45 2.484207 1_455
Na9 O47 2.515593 1_565
Na9 O11 2.648192 1_555
Na9 O26 2.726039 1_554
Na9 O62 2.736946 1_555
Na9 O18 2.940658 1_565
Na10 O45 2.516215 1_555
Na10 O60 2.606124 1_555
Na10 O24 2.617447 1_554
Na10 O62 2.639383 1_555
Na10 O46 2.643125 1_565
Na10 O9 2.799890 1_555
Na10 O19 2.875076 1_555
Na11 O60 2.455363 1_555
Na11 O47 2.475849 1_555
Na11 O10 2.502766 1_555
Na11 O46 2.622664 1_455
Na11 O61 2.630644 1_555
Na11 O25 2.920674 1_554
Na12 O41 2.442214 1_555
Na12 O54 2.450274 1_555
Na12 O19 2.542389 1_556
Na12 O40 2.597851 1_655
Na12 O55 2.725656 1_555
Na12 O4 2.849018 1_555
Na12 O26 2.982651 1_655
Na13 O5 2.539172 1_555
Na13 O56 2.565225 1_555
Na13 O41 2.578344 1_545
Na13 O55 2.606954 1_555
Na13 O39 2.630727 1_655
Na13 O20 2.881206 1_556
Na14 O40 2.440195 1_545
Na14 O56 2.459390 1_555
Na14 O54 2.600541 1_555
Na14 O3 2.640719 1_555
Na14 O18 2.698593 1_556
Na14 O39 2.708534 1_555
Na15 O57 2.479791 1_555
Na15 O37 2.480734 1_545
Na15 O38 2.606204 1_655
Na15 O2 2.619936 1_555
Na15 O59 2.632985 1_555
Na15 O23 2.752592 1_555
Na16 O36 2.516723 1_545
Na16 O0 2.544121 1_555
Na16 O57 2.587123 1_555
Na16 O58 2.625909 1_555
Na16 O38 2.654859 1_555
Na16 O21 2.909882 1_555
Na16 O29 2.932133 1_545
Na16 O31 2.998874 1_545
Na17 O36 2.468517 1_655
Na17 O59 2.471723 1_555
Na17 O37 2.514166 1_555
Na17 O22 2.603592 1_555
Na17 O58 2.734660 1_555
Na17 O1 2.786566 1_555
Na17 O27 2.895005 1_555
Na18 O44 2.559757 1_555
Na18 O37 2.571160 1_555
Na18 O42 2.636212 1_565
Na18 O36 2.647673 1_655
Na18 O43 2.772815 1_665
Na18 O38 2.773864 1_665
Na19 O40 2.454809 1_554
Na19 O41 2.531830 1_454
Na19 O45 2.570009 1_455
Na19 O47 2.633418 1_565
Na19 O39 2.685631 1_564
Na19 O46 2.781125 1_465
Na20 O56 2.449587 1_555
Na20 O54 2.525180 1_555
Na20 O49 2.552519 1_555
Na20 O48 2.624451 1_555
Na20 O55 2.695587 1_555
Na20 O50 2.745833 1_555
Na21 O57 2.447091 1_555
Na21 O52 2.498715 1_555
Na21 O59 2.517098 1_555
Na21 O53 2.557402 1_555
Na21 O58 2.681106 1_555
Na21 O51 2.682754 1_555
Na22 O61 2.428412 1_555
Na22 O68 2.486313 1_555
Na22 O60 2.501546 1_555
Na22 O66 2.562796 1_555
Na22 O62 2.659311 1_555
Na22 O67 2.678493 1_555
Na23 O69 2.412646 1_555
Na23 O64 2.418588 1_555
Na23 O71 2.477496 1_555
Na23 O65 2.491473 1_555
Na23 O63 2.622763 1_555
Na23 O70 2.636987 1_555
Ca0 O3 2.229266 1_555
Ca0 O5 2.246711 1_455
Ca0 O4 2.271335 1_445
Ca0 O41 2.300054 1_445
Ca0 O40 2.321157 1_545
Ca0 O39 2.333394 1_555
Ca1 O18 2.201119 1_556
Ca1 O19 2.237522 1_556
Ca1 O54 2.275959 1_555
Ca1 O20 2.308882 1_556
Ca1 O56 2.313960 1_555
Ca1 O55 2.378097 1_555
Ca2 O23 2.204429 1_555
Ca2 O22 2.243725 1_555
Ca2 O59 2.307641 1_555
Ca2 O21 2.322518 1_555
Ca2 O57 2.361700 1_555
Ca2 O58 2.427033 1_555
Ca3 O26 2.209766 1_554
Ca3 O24 2.226255 1_554
Ca3 O25 2.259016 1_554
Ca3 O60 2.326962 1_555
Ca3 O61 2.358722 1_555
Ca3 O62 2.360568 1_555
Ca4 O27 2.233560 1_555
Ca4 O29 2.253182 1_555
Ca4 O28 2.279777 1_555
Ca4 O65 2.340521 1_555
Ca4 O64 2.368106 1_555
Ca4 O63 2.370978 1_555
Ca5 O35 2.182884 1_555
Ca5 O34 2.214410 1_555
Ca5 O71 2.294904 1_555
Ca5 O33 2.295476 1_555
Ca5 O69 2.336635 1_555
Ca5 O70 2.397624 1_555
Mg0 O2 2.052472 1_455
Mg0 O0 2.079112 1_555
Mg0 O36 2.107582 1_545
Mg0 O1 2.129775 1_445
Mg0 O37 2.136079 1_445
Mg0 O38 2.175854 1_555
Mg1 O6 2.000402 1_545
Mg1 O7 2.032426 1_655
Mg1 O42 2.063138 1_555
Mg1 O44 2.098158 1_545
Mg1 O8 2.161328 1_645
Mg1 O43 2.239082 1_655
Mg2 O11 2.015373 1_545
Mg2 O47 2.059836 1_555
Mg2 O10 2.063592 1_555
Mg2 O45 2.106415 1_445
Mg2 O9 2.184093 1_445
Mg2 O46 2.243786 1_455
Mg3 O14 2.027906 1_555
Mg3 O12 2.046778 1_555
Mg3 O48 2.082036 1_555
Mg3 O49 2.109233 1_555
Mg3 O13 2.110362 1_555
Mg3 O50 2.152937 1_555
Mg4 O15 2.035553 1_555
Mg4 O17 2.041223 1_555
Mg4 O16 2.110870 1_555
Mg4 O53 2.163059 1_555
Mg4 O52 2.191881 1_555
Mg4 O51 2.235579 1_555
Mg5 O30 1.991474 1_555
Mg5 O31 2.037922 1_555
Mg5 O66 2.103463 1_555
Mg5 O68 2.183271 1_555
Mg5 O32 2.185401 1_555
Mg5 O67 2.343063 1_555
O0 P0 1.551488 1_555
O1 S0 1.484955 1_555
O2 P1 1.547680 1_655
O3 P2 1.545650 1_555
O4 S1 1.485042 1_555
O5 P3 1.548681 1_555
O6 P3 1.543060 1_565
O7 P2 1.544580 1_555
O8 S1 1.475149 1_455
O9 S0 1.485608 1_555
O10 P1 1.549565 1_555
O11 P0 1.545215 1_565
O12 P4 1.545335 1_555
O13 S2 1.475015 1_555
O14 P5 1.542890 1_555
O15 P6 1.545705 1_555
O16 S3 1.476808 1_555
O17 P7 1.547097 1_555
O18 P7 1.545111 1_555
O19 P6 1.548503 1_555
O20 S3 1.483788 1_555
O21 S2 1.485965 1_555
O22 P5 1.549116 1_555
O23 P4 1.545986 1_555
O24 P8 1.546126 1_555
O25 S4 1.478362 1_555
O26 P9 1.544630 1_555
O27 P10 1.548490 1_555
O28 S5 1.484883 1_555
O29 P11 1.550455 1_555
O30 P11 1.544309 1_555
O31 P10 1.547232 1_555
O32 S5 1.477056 1_555
O33 S4 1.478571 1_555
O34 P9 1.545066 1_555
O35 P8 1.543050 1_555
O36 P11 1.565046 1_555
O37 P10 1.565063 1_555
O38 S5 1.496922 1_555
O39 S4 1.487504 1_555
O40 P9 1.555704 1_555
O41 P8 1.556410 1_555
O42 P4 1.563300 1_555
O43 S2 1.493329 1_555
O44 P5 1.566999 1_555
O45 P6 1.565198 1_555
O46 S3 1.492504 1_555
O47 P7 1.561883 1_555
O48 P3 1.561515 1_555
O49 P2 1.560908 1_555
O50 S1 1.493708 1_555
O51 S0 1.501283 1_555
O52 P1 1.572081 1_655
O53 P0 1.573903 1_555
O54 P8 1.555269 1_555
O55 S4 1.486022 1_655
O56 P9 1.557788 1_545
O57 P10 1.566951 1_545
O58 S5 1.494241 1_555
O59 P11 1.562873 1_655
O60 P7 1.564305 1_555
O61 P6 1.563337 1_455
O62 S3 1.494216 1_565
O63 S2 1.494169 1_565
O64 P5 1.562309 1_555
O65 P4 1.563946 1_455
O66 P0 1.571340 1_565
O67 S0 1.497977 1_555
O68 P1 1.575816 1_555
O69 P2 1.563595 1_555
O70 S1 1.490552 1_455
O71 P3 1.560420 1_565
