# generated using pymatgen
data_CaFe5O7
_symmetry_space_group_name_H-M   'P 1'
_cell_length_a   5.36842152
_cell_length_b   5.36842152
_cell_length_c   18.37853900
_cell_angle_alpha   90.00000000
_cell_angle_beta   90.00000000
_cell_angle_gamma   146.50209641
_symmetry_Int_Tables_number   1
_chemical_formula_structural   CaFe5O7
_chemical_formula_sum   'Ca2 Fe10 O14'
_cell_volume   292.32751110
_cell_formula_units_Z   2
loop_
 _symmetry_equiv_pos_site_id
 _symmetry_equiv_pos_as_xyz
  1  'x, y, z'
loop_
 _atom_site_type_symbol
 _atom_site_label
 _atom_site_symmetry_multiplicity
 _atom_site_fract_x
 _atom_site_fract_y
 _atom_site_fract_z
 _atom_site_occupancy
  Ca  Ca0  1  0.21083200  0.78916800  0.75000000  1
  Ca  Ca1  1  0.78916800  0.21083200  0.25000000  1
  Fe  Fe0  1  0.72677300  0.27322700  0.57469900  1
  Fe  Fe1  1  0.00000000  0.00000000  0.50000000  1
  Fe  Fe2  1  0.00000000  0.00000000  0.00000000  1
  Fe  Fe3  1  0.27322700  0.72677300  0.42530100  1
  Fe  Fe4  1  0.27322700  0.72677300  0.07469900  1
  Fe  Fe5  1  0.72677300  0.27322700  0.92530100  1
  Fe  Fe6  1  0.54046600  0.45953400  0.15622800  1
  Fe  Fe7  1  0.45953400  0.54046600  0.84377200  1
  Fe  Fe8  1  0.45953400  0.54046600  0.65622800  1
  Fe  Fe9  1  0.54046600  0.45953400  0.34377200  1
  O  O0  1  0.35020400  0.64979600  0.96667600  1
  O  O1  1  0.64979600  0.35020400  0.03332400  1
  O  O2  1  0.64979600  0.35020400  0.46667600  1
  O  O3  1  0.35020400  0.64979600  0.53332400  1
  O  O4  1  0.81734900  0.18265100  0.83401800  1
  O  O5  1  0.18265100  0.81734900  0.16598200  1
  O  O6  1  0.18265100  0.81734900  0.33401800  1
  O  O7  1  0.81734900  0.18265100  0.66598200  1
  O  O8  1  0.09686600  0.90313400  0.90209700  1
  O  O9  1  0.90313400  0.09686600  0.09790300  1
  O  O10  1  0.90313400  0.09686600  0.40209700  1
  O  O11  1  0.09686600  0.90313400  0.59790300  1
  O  O12  1  0.55004400  0.44995600  0.75000000  1
  O  O13  1  0.44995600  0.55004400  0.25000000  1
loop_
_geom_bond_atom_site_label_1
_geom_bond_atom_site_label_2
_geom_bond_distance
_geom_bond_site_symmetry_2
Ca0 O12 2.264113 1_455
Ca0 O12 2.264113 1_565
Ca0 O7 2.444805 1_565
Ca0 O4 2.444805 1_565
Ca0 O7 2.444805 1_455
Ca0 O4 2.444805 1_455
Ca1 O13 2.264113 1_545
Ca1 O13 2.264113 1_655
Ca1 O6 2.444805 1_545
Ca1 O6 2.444805 1_655
Ca1 O5 2.444805 1_655
Ca1 O5 2.444805 1_545
Fe0 O7 1.918780 1_555
Fe0 O11 2.087859 1_655
Fe0 O11 2.087859 1_545
Fe0 O2 2.137240 1_555
Fe0 O3 2.140582 1_545
Fe0 O3 2.140582 1_655
Fe1 O11 2.056544 1_545
Fe1 O10 2.056544 1_455
Fe1 O3 2.267250 1_445
Fe1 O2 2.267250 1_555
Fe1 O2 2.267250 1_445
Fe1 O3 2.267250 1_555
Fe2 O8 2.056544 1_544
Fe2 O9 2.056544 1_455
Fe2 O1 2.267250 1_555
Fe2 O0 2.267250 1_554
Fe2 O0 2.267250 1_444
Fe2 O1 2.267250 1_445
Fe3 O6 1.918780 1_555
Fe3 O10 2.087859 1_565
Fe3 O10 2.087859 1_455
Fe3 O3 2.137240 1_555
Fe3 O2 2.140582 1_565
Fe3 O2 2.140582 1_455
Fe4 O5 1.918780 1_555
Fe4 O9 2.087859 1_455
Fe4 O9 2.087859 1_565
Fe4 O0 2.137240 1_554
Fe4 O1 2.140582 1_455
Fe4 O1 2.140582 1_565
Fe5 O4 1.918780 1_555
Fe5 O8 2.087859 1_545
Fe5 O8 2.087859 1_655
Fe5 O1 2.137240 1_556
Fe5 O0 2.140582 1_545
Fe5 O0 2.140582 1_655
Fe6 O13 1.958579 1_555
Fe6 O5 2.136015 1_655
Fe6 O5 2.136015 1_545
Fe6 O9 2.352885 1_565
Fe6 O9 2.352885 1_455
Fe6 O1 2.523028 1_555
Fe7 O12 1.958579 1_555
Fe7 O4 2.136015 1_565
Fe7 O4 2.136015 1_455
Fe7 O8 2.352885 1_655
Fe7 O8 2.352885 1_545
Fe7 O0 2.523028 1_555
Fe8 O12 1.958579 1_555
Fe8 O7 2.136015 1_565
Fe8 O7 2.136015 1_455
Fe8 O11 2.352885 1_655
Fe8 O11 2.352885 1_545
Fe8 O3 2.523028 1_555
Fe9 O13 1.958579 1_555
Fe9 O6 2.136015 1_655
Fe9 O6 2.136015 1_545
Fe9 O10 2.352885 1_565
Fe9 O10 2.352885 1_455
Fe9 O2 2.523028 1_555
