# generated using pymatgen
data_V2WO6
_symmetry_space_group_name_H-M   'P 1'
_cell_length_a   4.63052269
_cell_length_b   4.63052269
_cell_length_c   8.89453622
_cell_angle_alpha   89.99998013
_cell_angle_beta   89.99998720
_cell_angle_gamma   90.00090920
_symmetry_Int_Tables_number   1
_chemical_formula_structural   V2WO6
_chemical_formula_sum   'V4 W2 O12'
_cell_volume   190.71433644
_cell_formula_units_Z   2
loop_
 _symmetry_equiv_pos_site_id
 _symmetry_equiv_pos_as_xyz
  1  'x, y, z'
loop_
 _atom_site_type_symbol
 _atom_site_label
 _atom_site_symmetry_multiplicity
 _atom_site_fract_x
 _atom_site_fract_y
 _atom_site_fract_z
 _atom_site_occupancy
  V  V0  1  0.50000000  0.49999900  0.16676020  1
  V  V1  1  -0.00000000  0.99999900  0.33327684  1
  V  V2  1  0.00000000  0.00000000  0.66672577  1
  V  V3  1  0.50000000  0.49999900  0.83323225  1
  W  W0  1  -0.00000000  -0.00000000  0.00001745  1
  W  W1  1  0.50000000  0.50000000  0.50000176  1
  O  O0  1  0.29512027  0.29512027  -0.00001341  1
  O  O1  1  0.20489979  0.79509721  0.50004951  1
  O  O2  1  0.79509821  0.20490079  0.50005051  1
  O  O3  1  0.70487973  0.70487873  -0.00001341  1
  O  O4  1  0.69959506  0.69959506  0.66029965  1
  O  O5  1  0.30040494  0.30040394  0.66029965  1
  O  O6  1  0.69950465  0.69950465  0.33971323  1
  O  O7  1  0.19953452  0.80046448  0.16027861  1
  O  O8  1  0.80046448  0.19953452  0.16027761  1
  O  O9  1  0.80045182  0.19954818  0.83966428  1
  O  O10  1  0.19954818  0.80045082  0.83966428  1
  O  O11  1  0.30049435  0.30049435  0.33971323  1
loop_
_geom_bond_atom_site_label_1
_geom_bond_atom_site_label_2
_geom_bond_distance
_geom_bond_site_symmetry_2
O0 W0 1.932594 1_555
O0 V3 1.999979 1_554
O0 V0 2.000107 1_555
O1 W1 1.932483 1_555
O1 V2 1.999575 1_565
O1 V1 2.000209 1_555
O2 W1 1.932483 1_555
O2 V2 1.999569 1_655
O2 V1 2.000220 1_645
O3 W0 1.932597 1_665
O3 V3 1.999982 1_554
O3 V0 2.000108 1_555
O4 W1 1.934221 1_555
O4 V2 1.968031 1_665
O4 V3 2.018490 1_555
O5 W1 1.934222 1_555
O5 V2 1.968027 1_555
O5 V3 2.018489 1_555
O6 W1 1.933759 1_555
O6 V1 1.968622 1_655
O6 V0 2.018246 1_555
O7 W0 1.933728 1_565
O7 V0 1.968473 1_555
O7 V1 2.018690 1_555
O8 W0 1.933721 1_655
O8 V0 1.968466 1_555
O8 V1 2.018701 1_645
O9 W0 1.934389 1_656
O9 V3 1.968367 1_555
O9 V2 2.018343 1_655
O10 W0 1.934392 1_566
O10 V3 1.968370 1_555
O10 V2 2.018345 1_565
O11 W1 1.933764 1_555
O11 V1 1.968622 1_545
O11 V0 2.018245 1_555
