# generated using pymatgen
data_Fe2C2O7
_symmetry_space_group_name_H-M   'P 1'
_cell_length_a   7.73697787
_cell_length_b   7.72251147
_cell_length_c   10.80579321
_cell_angle_alpha   80.87386240
_cell_angle_beta   90.00000000
_cell_angle_gamma   90.00000000
_symmetry_Int_Tables_number   1
_chemical_formula_structural   Fe2C2O7
_chemical_formula_sum   'Fe8 C8 O28'
_cell_volume   637.46153580
_cell_formula_units_Z   4
loop_
 _symmetry_equiv_pos_site_id
 _symmetry_equiv_pos_as_xyz
  1  'x, y, z'
loop_
 _atom_site_type_symbol
 _atom_site_label
 _atom_site_symmetry_multiplicity
 _atom_site_fract_x
 _atom_site_fract_y
 _atom_site_fract_z
 _atom_site_occupancy
  Fe  Fe0  1  0.57590967  0.78214343  0.62511863  1
  Fe  Fe1  1  0.64265129  0.35707573  0.11529255  1
  Fe  Fe2  1  0.85734871  0.35707573  0.61529255  1
  Fe  Fe3  1  0.07590967  0.21785657  0.87488137  1
  Fe  Fe4  1  0.92409033  0.78214343  0.12511863  1
  Fe  Fe5  1  0.14265129  0.64292427  0.38470745  1
  Fe  Fe6  1  0.35734871  0.64292427  0.88470745  1
  Fe  Fe7  1  0.42409033  0.21785657  0.37488137  1
  C  C0  1  0.88628821  0.73500888  0.56018859  1
  C  C1  1  0.38628821  0.26499112  0.93981141  1
  C  C2  1  0.91849017  0.15541766  0.11495934  1
  C  C3  1  0.41849017  0.84458234  0.38504066  1
  C  C4  1  0.58150983  0.15541766  0.61495934  1
  C  C5  1  0.08150983  0.84458234  0.88504066  1
  C  C6  1  0.61371179  0.73500888  0.06018859  1
  C  C7  1  0.11371179  0.26499112  0.43981141  1
  O  O0  1  0.81667766  0.87122360  0.59140556  1
  O  O1  1  0.52673937  0.63798721  0.77050469  1
  O  O2  1  0.43475728  0.73167099  0.48689794  1
  O  O3  1  0.78241054  0.59798748  0.56730047  1
  O  O4  1  0.28241054  0.40201252  0.93269953  1
  O  O5  1  0.80731106  0.19022346  0.19589088  1
  O  O6  1  0.93475728  0.26832901  0.01310206  1
  O  O7  1  0.02673937  0.36201279  0.72949531  1
  O  O8  1  0.54228524  0.27182275  0.97505458  1
  O  O9  1  0.50927848  0.98466658  0.36639952  1
  O  O10  1  0.00927848  0.01533342  0.13360048  1
  O  O11  1  0.31667766  0.12877640  0.90859444  1
  O  O12  1  0.69268894  0.19022346  0.69589088  1
  O  O13  1  0.04228524  0.72817725  0.52494542  1
  O  O14  1  0.95771476  0.27182275  0.47505458  1
  O  O15  1  0.30731106  0.80977654  0.30410912  1
  O  O16  1  0.68332234  0.87122360  0.09140556  1
  O  O17  1  0.99072152  0.98466658  0.86639952  1
  O  O18  1  0.49072152  0.01533342  0.63360048  1
  O  O19  1  0.45771476  0.72817725  0.02494542  1
  O  O20  1  0.97326063  0.63798721  0.27050469  1
  O  O21  1  0.06524272  0.73167099  0.98689794  1
  O  O22  1  0.19268894  0.80977654  0.80410912  1
  O  O23  1  0.71758946  0.59798748  0.06730047  1
  O  O24  1  0.21758946  0.40201252  0.43269953  1
  O  O25  1  0.56524272  0.26832901  0.51310206  1
  O  O26  1  0.47326063  0.36201279  0.22949531  1
  O  O27  1  0.18332234  0.12877640  0.40859444  1
loop_
_geom_bond_atom_site_label_1
_geom_bond_atom_site_label_2
_geom_bond_distance
_geom_bond_site_symmetry_2
Fe0 O1 1.815857 1_555
Fe0 O18 1.933415 1_565
Fe0 O2 1.939086 1_555
Fe0 O0 1.999134 1_555
Fe0 O3 2.290702 1_555
Fe1 O26 1.804677 1_555
Fe1 O8 1.910317 1_554
Fe1 O5 1.919847 1_555
Fe1 O23 1.939148 1_555
Fe2 O7 1.804677 1_655
Fe2 O14 1.910317 1_555
Fe2 O12 1.919847 1_555
Fe2 O3 1.939148 1_555
Fe3 O7 1.815857 1_555
Fe3 O17 1.933415 1_445
Fe3 O6 1.939086 1_456
Fe3 O11 1.999134 1_555
Fe3 O4 2.290702 1_555
Fe4 O20 1.815857 1_555
Fe4 O10 1.933415 1_665
Fe4 O21 1.939086 1_654
Fe4 O16 1.999134 1_555
Fe4 O23 2.290702 1_555
Fe5 O20 1.804677 1_455
Fe5 O13 1.910317 1_555
Fe5 O15 1.919847 1_555
Fe5 O24 1.939148 1_555
Fe6 O1 1.804677 1_555
Fe6 O19 1.910317 1_556
Fe6 O22 1.919847 1_555
Fe6 O4 1.939148 1_555
Fe7 O26 1.815857 1_555
Fe7 O9 1.933415 1_545
Fe7 O25 1.939086 1_555
Fe7 O27 1.999134 1_555
Fe7 O24 2.290702 1_555
C0 O13 1.269215 1_655
C0 O0 1.273949 1_555
C0 O3 1.321258 1_555
C1 O8 1.269215 1_555
C1 O11 1.273949 1_555
C1 O4 1.321258 1_555
C2 O10 1.278730 1_655
C2 O5 1.285123 1_555
C2 O6 1.297359 1_555
C3 O9 1.278730 1_555
C3 O15 1.285123 1_555
C3 O2 1.297359 1_555
C4 O18 1.278730 1_555
C4 O12 1.285123 1_555
C4 O25 1.297359 1_555
C5 O17 1.278730 1_455
C5 O22 1.285123 1_555
C5 O21 1.297359 1_555
C6 O19 1.269215 1_555
C6 O16 1.273949 1_555
C6 O23 1.321258 1_555
C7 O14 1.269215 1_455
C7 O27 1.273949 1_555
C7 O24 1.321258 1_555
