# generated using pymatgen
data_MgFe12(OF)12
_symmetry_space_group_name_H-M   'P 1'
_cell_length_a   9.67205222
_cell_length_b   14.85565023
_cell_length_c   3.11571400
_cell_angle_alpha   90.00000000
_cell_angle_beta   90.00000000
_cell_angle_gamma   92.17798979
_symmetry_Int_Tables_number   1
_chemical_formula_structural   MgFe12(OF)12
_chemical_formula_sum   'Mg1 Fe12 O12 F12'
_cell_volume   447.35678819
_cell_formula_units_Z   1
loop_
 _symmetry_equiv_pos_site_id
 _symmetry_equiv_pos_as_xyz
  1  'x, y, z'
loop_
 _atom_site_type_symbol
 _atom_site_label
 _atom_site_symmetry_multiplicity
 _atom_site_fract_x
 _atom_site_fract_y
 _atom_site_fract_z
 _atom_site_occupancy
  Mg  Mg0  1  0.27238700  0.67441100  0.00000000  1
  Fe  Fe0  1  0.99179500  0.01666500  0.00000000  1
  Fe  Fe1  1  0.01663100  0.31849400  0.00000000  1
  Fe  Fe2  1  0.97035400  0.67457200  0.00000000  1
  Fe  Fe3  1  0.23000500  0.16366800  0.50000000  1
  Fe  Fe4  1  0.25496300  0.45626000  0.50000000  1
  Fe  Fe5  1  0.23459000  0.88551300  0.50000000  1
  Fe  Fe6  1  0.50843300  0.33387200  0.00000000  1
  Fe  Fe7  1  0.50542300  0.00477700  0.00000000  1
  Fe  Fe8  1  0.61084500  0.65583800  0.00000000  1
  Fe  Fe9  1  0.74288900  0.14827900  0.50000000  1
  Fe  Fe10  1  0.74560400  0.47819300  0.50000000  1
  Fe  Fe11  1  0.71291500  0.85143800  0.50000000  1
  O  O0  1  0.10241200  0.26639700  0.50000000  1
  O  O1  1  0.07271700  0.94553400  0.50000000  1
  O  O2  1  0.15386400  0.10538900  0.00000000  1
  O  O3  1  0.14702100  0.42643900  0.00000000  1
  O  O4  1  0.34049500  0.91364800  0.00000000  1
  O  O5  1  0.41463900  0.38735900  0.50000000  1
  O  O6  1  0.58934200  0.94901000  0.50000000  1
  O  O7  1  0.63746800  0.58219200  0.50000000  1
  O  O8  1  0.63909600  0.10909300  0.00000000  1
  O  O9  1  0.66976000  0.41725200  0.00000000  1
  O  O10  1  0.64525900  0.78475900  0.00000000  1
  O  O11  1  0.89558400  0.07187300  0.50000000  1
  F  F0  1  0.12365800  0.62956500  0.50000000  1
  F  F1  1  0.14614900  0.77696800  0.00000000  1
  F  F2  1  0.35463100  0.23042200  0.00000000  1
  F  F3  1  0.33167100  0.55009500  0.00000000  1
  F  F4  1  0.39507800  0.07314400  0.50000000  1
  F  F5  1  0.37287200  0.71689200  0.50000000  1
  F  F6  1  0.59811600  0.26426100  0.50000000  1
  F  F7  1  0.84364900  0.23408800  0.00000000  1
  F  F8  1  0.83576200  0.90691600  0.00000000  1
  F  F9  1  0.87938000  0.54907000  0.00000000  1
  F  F10  1  0.90952900  0.38823300  0.50000000  1
  F  F11  1  0.88358200  0.73997200  0.50000000  1
loop_
_geom_bond_atom_site_label_1
_geom_bond_atom_site_label_2
_geom_bond_distance
_geom_bond_site_symmetry_2
Fe0 O11 2.005870 1_554
Fe0 O11 2.005870 1_555
Fe0 O2 2.009329 1_655
Fe0 O1 2.054016 1_644
Fe0 O1 2.054016 1_645
Fe1 O0 1.939862 1_554
Fe1 O0 1.939862 1_555
Fe1 O3 2.002066 1_555
Fe3 O2 1.915819 1_555
Fe3 O2 1.915819 1_556
Fe3 O0 1.998779 1_555
Fe4 O5 1.884941 1_555
Fe4 O3 1.917812 1_555
Fe4 O3 1.917812 1_556
Fe5 O1 1.830953 1_555
Fe5 O4 1.902183 1_556
Fe5 O4 1.902183 1_555
Fe6 O9 1.955023 1_555
Fe6 O5 1.983947 1_554
Fe6 O5 1.983947 1_555
Fe7 O6 1.955294 1_544
Fe7 O6 1.955294 1_545
Fe7 O8 1.980100 1_555
Fe7 O4 2.052612 1_545
Fe8 O7 1.926552 1_554
Fe8 O7 1.926552 1_555
Fe8 O10 1.931411 1_555
Fe9 O11 1.896559 1_555
Fe9 O8 1.931108 1_555
Fe9 O8 1.931108 1_556
Fe10 O7 1.898331 1_555
Fe10 O9 1.932398 1_556
Fe10 O9 1.932398 1_555
Fe11 O6 1.913434 1_555
Fe11 O10 1.946038 1_556
Fe11 O10 1.946038 1_555
F0 Mg0 2.206183 1_555
F0 Mg0 2.206183 1_556
F0 Fe2 2.268898 1_456
F0 Fe2 2.268898 1_455
F1 Mg0 1.988314 1_555
F1 Fe2 2.237935 1_455
F1 Fe5 2.377809 1_555
F1 Fe5 2.377809 1_554
F2 Fe6 2.097842 1_555
F2 Fe3 2.184592 1_555
F2 Fe3 2.184592 1_554
F3 Mg0 1.954463 1_555
F3 Fe4 2.200441 1_554
F3 Fe4 2.200441 1_555
F4 Fe3 2.126212 1_555
F4 Fe7 2.163302 1_555
F4 Fe7 2.163302 1_556
F5 Mg0 1.929546 1_555
F5 Mg0 1.929546 1_556
F6 Fe6 2.077718 1_556
F6 Fe6 2.077718 1_555
F6 Fe9 2.261144 1_555
F7 Fe1 2.052330 1_655
F7 Fe9 2.215228 1_555
F7 Fe9 2.215228 1_554
F8 Fe11 2.107963 1_555
F8 Fe11 2.107963 1_554
F8 Fe0 2.179157 1_565
F9 Fe2 2.031153 1_555
F9 Fe10 2.259682 1_554
F9 Fe10 2.259682 1_555
F10 Fe10 2.112069 1_555
F10 Fe1 2.157523 1_655
F10 Fe1 2.157523 1_656
F11 Fe2 2.034007 1_556
F11 Fe2 2.034007 1_555
F11 Fe11 2.382137 1_555
