# generated using pymatgen
data_Na4MgCr2O8
_symmetry_space_group_name_H-M   'P 1'
_cell_length_a   5.57085574
_cell_length_b   5.57085631
_cell_length_c   7.59406118
_cell_angle_alpha   88.08798136
_cell_angle_beta   91.91201515
_cell_angle_gamma   112.61946218
_symmetry_Int_Tables_number   1
_chemical_formula_structural   Na4MgCr2O8
_chemical_formula_sum   'Na4 Mg1 Cr2 O8'
_cell_volume   217.37404055
_cell_formula_units_Z   1
loop_
 _symmetry_equiv_pos_site_id
 _symmetry_equiv_pos_as_xyz
  1  'x, y, z'
loop_
 _atom_site_type_symbol
 _atom_site_label
 _atom_site_symmetry_multiplicity
 _atom_site_fract_x
 _atom_site_fract_y
 _atom_site_fract_z
 _atom_site_occupancy
  Na  Na0  1  0.20176600  0.79823400  0.73015900  1
  Na  Na1  1  0.79823400  0.20176600  0.26984100  1
  Na  Na2  1  0.50000000  0.50000000  0.50000000  1
  Na  Na3  1  0.50000000  0.50000000  0.00000000  1
  Mg  Mg0  1  0.00000000  0.00000000  0.00000000  1
  Cr  Cr0  1  0.83760100  0.16239900  0.74343500  1
  Cr  Cr1  1  0.16239900  0.83760100  0.25656500  1
  O  O0  1  0.23603700  0.76396300  0.05297500  1
  O  O1  1  0.74283300  0.25716700  0.55172000  1
  O  O2  1  0.76396300  0.23603700  0.94702500  1
  O  O3  1  0.25716700  0.74283300  0.44828000  1
  O  O4  1  0.17808900  0.24492400  0.77685300  1
  O  O5  1  0.82191100  0.75507600  0.22314700  1
  O  O6  1  0.75507600  0.82191100  0.77685300  1
  O  O7  1  0.24492400  0.17808900  0.22314700  1
loop_
_geom_bond_atom_site_label_1
_geom_bond_atom_site_label_2
_geom_bond_distance
_geom_bond_site_symmetry_2
Na0 O3 2.221293 1_555
Na0 O0 2.459319 1_556
Na0 O6 2.578756 1_455
Na0 O4 2.578756 1_565
Na1 O1 2.221293 1_555
Na1 O2 2.459319 1_554
Na1 O7 2.578756 1_655
Na1 O5 2.578756 1_545
Na2 O1 2.269607 1_555
Na2 O3 2.269607 1_555
Na2 O5 2.783434 1_555
Na2 O4 2.783434 1_555
Na2 O6 2.783434 1_555
Na2 O7 2.783434 1_555
Na3 O6 2.470741 1_554
Na3 O7 2.470741 1_555
Na3 O4 2.470741 1_554
Na3 O5 2.470741 1_555
Na3 O0 2.495770 1_555
Na3 O2 2.495770 1_554
Mg0 O4 2.152728 1_554
Mg0 O5 2.152728 1_445
Mg0 O6 2.152728 1_444
Mg0 O7 2.152728 1_555
Mg0 O0 2.208918 1_545
Mg0 O2 2.208918 1_454
Cr0 O1 1.669996 1_555
Cr0 O2 1.714938 1_555
Cr0 O4 1.782843 1_655
Cr0 O6 1.782843 1_545
Cr1 O3 1.669996 1_555
Cr1 O0 1.714938 1_555
Cr1 O5 1.782843 1_455
Cr1 O7 1.782843 1_565
