# generated using pymatgen
data_HoTiSi
_symmetry_space_group_name_H-M   'P 1'
_cell_length_a   4.00260871
_cell_length_b   4.00260871
_cell_length_c   7.60590506
_cell_angle_alpha   90.00000000
_cell_angle_beta   90.00000000
_cell_angle_gamma   90.00000000
_symmetry_Int_Tables_number   1
_chemical_formula_structural   HoTiSi
_chemical_formula_sum   'Ho2 Ti2 Si2'
_cell_volume   121.85326553
_cell_formula_units_Z   2
loop_
 _symmetry_equiv_pos_site_id
 _symmetry_equiv_pos_as_xyz
  1  'x, y, z'
loop_
 _atom_site_type_symbol
 _atom_site_label
 _atom_site_symmetry_multiplicity
 _atom_site_fract_x
 _atom_site_fract_y
 _atom_site_fract_z
 _atom_site_occupancy
  Ho  Ho0  1  0.75000000  0.75000000  0.34805854  1
  Ho  Ho1  1  0.25000000  0.25000000  0.65194146  1
  Ti  Ti0  1  0.75000000  0.25000000  -0.00000000  1
  Ti  Ti1  1  0.25000000  0.75000000  -0.00000000  1
  Si  Si0  1  0.75000000  0.75000000  0.76082744  1
  Si  Si1  1  0.25000000  0.25000000  0.23917256  1
loop_
_geom_bond_atom_site_label_1
_geom_bond_atom_site_label_2
_geom_bond_distance
_geom_bond_site_symmetry_2
Ho0 Si1 2.948951 1_665
Ho0 Si1 2.948951 1_555
Ho0 Si1 2.948951 1_655
Ho0 Si1 2.948951 1_565
Ho0 Si0 3.139481 1_555
Ho1 Si0 2.948951 1_455
Ho1 Si0 2.948951 1_545
Ho1 Si0 2.948951 1_555
Ho1 Si0 2.948951 1_445
Ho1 Si1 3.139481 1_555
Si0 Ti1 2.704520 1_556
Si0 Ti0 2.704520 1_556
Si0 Ti0 2.704520 1_566
Si0 Ti1 2.704520 1_656
Si1 Ti1 2.704520 1_545
Si1 Ti1 2.704520 1_555
Si1 Ti0 2.704520 1_455
Si1 Ti0 2.704520 1_555
