# generated using pymatgen
data_EuAl9Co2
_symmetry_space_group_name_H-M   'P 1'
_cell_length_a   15.61796270
_cell_length_b   15.61810257
_cell_length_c   7.75738398
_cell_angle_alpha   90.00000000
_cell_angle_beta   90.00000000
_cell_angle_gamma   120.00030019
_symmetry_Int_Tables_number   1
_chemical_formula_structural   EuAl9Co2
_chemical_formula_sum   'Eu8 Al72 Co16'
_cell_volume   1638.69171840
_cell_formula_units_Z   8
loop_
 _symmetry_equiv_pos_site_id
 _symmetry_equiv_pos_as_xyz
  1  'x, y, z'
loop_
 _atom_site_type_symbol
 _atom_site_label
 _atom_site_symmetry_multiplicity
 _atom_site_fract_x
 _atom_site_fract_y
 _atom_site_fract_z
 _atom_site_occupancy
  Eu  Eu0_0  1  0.00000000  0.00000000  0.00000000  1
  Eu  Eu0_1  1  0.00000000  0.00000000  0.50000000  1
  Eu  Eu0_2  1  0.00000000  0.50000000  0.00000000  1
  Eu  Eu0_3  1  0.00000000  0.50000000  0.50000000  1
  Eu  Eu0_4  1  0.50000000  0.00000000  0.00000000  1
  Eu  Eu0_5  1  0.50000000  0.00000000  0.50000000  1
  Eu  Eu0_6  1  0.50000000  0.50000000  0.00000000  1
  Eu  Eu0_7  1  0.50000000  0.50000000  0.50000000  1
  Al  Al0_0  1  0.39292544  0.28584887  0.25000000  1
  Al  Al0_1  1  0.39292544  0.28584887  0.75000000  1
  Al  Al0_2  1  0.39292544  0.78584886  0.25000000  1
  Al  Al0_3  1  0.39292544  0.78584886  0.75000000  1
  Al  Al0_4  1  0.89292544  0.28584887  0.25000000  1
  Al  Al0_5  1  0.89292544  0.28584887  0.75000000  1
  Al  Al0_6  1  0.89292544  0.78584887  0.25000000  1
  Al  Al0_7  1  0.89292544  0.78584887  0.75000000  1
  Al  Al1_0  1  0.10707457  0.39292394  0.25000000  1
  Al  Al1_1  1  0.10707457  0.39292394  0.75000000  1
  Al  Al1_2  1  0.10707457  0.89292394  0.25000000  1
  Al  Al1_3  1  0.10707457  0.89292394  0.75000000  1
  Al  Al1_4  1  0.60707457  0.39292394  0.25000000  1
  Al  Al1_5  1  0.60707457  0.39292394  0.75000000  1
  Al  Al1_6  1  0.60707457  0.89292394  0.25000000  1
  Al  Al1_7  1  0.60707457  0.89292394  0.75000000  1
  Al  Al2_0  1  0.28584937  0.39292494  0.25000000  1
  Al  Al2_1  1  0.28584937  0.39292494  0.75000000  1
  Al  Al2_2  1  0.28584937  0.89292494  0.25000000  1
  Al  Al2_3  1  0.28584937  0.89292494  0.75000000  1
  Al  Al2_4  1  0.78584937  0.39292494  0.25000000  1
  Al  Al2_5  1  0.78584937  0.39292494  0.75000000  1
  Al  Al2_6  1  0.78584937  0.89292494  0.25000000  1
  Al  Al2_7  1  0.78584937  0.89292494  0.75000000  1
  Al  Al3_0  1  0.25000000  0.00000000  0.00000000  1
  Al  Al3_1  1  0.25000000  0.00000000  0.50000000  1
  Al  Al3_2  1  0.25000000  0.50000000  0.00000000  1
  Al  Al3_3  1  0.25000000  0.50000000  0.50000000  1
  Al  Al3_4  1  0.75000000  0.00000000  0.00000000  1
  Al  Al3_5  1  0.75000000  0.00000000  0.50000000  1
  Al  Al3_6  1  0.75000000  0.50000000  0.00000000  1
  Al  Al3_7  1  0.75000000  0.50000000  0.50000000  1
  Al  Al4_0  1  0.25000000  0.25000000  0.00000000  1
  Al  Al4_1  1  0.25000000  0.25000000  0.50000000  1
  Al  Al4_2  1  0.25000000  0.75000000  0.00000000  1
  Al  Al4_3  1  0.25000000  0.75000000  0.50000000  1
  Al  Al4_4  1  0.75000000  0.25000000  0.00000000  1
  Al  Al4_5  1  0.75000000  0.25000000  0.50000000  1
  Al  Al4_6  1  0.75000000  0.75000000  0.00000000  1
  Al  Al4_7  1  0.75000000  0.75000000  0.50000000  1
  Al  Al5_0  1  0.00000000  0.25000000  0.00000000  1
  Al  Al5_1  1  0.00000000  0.25000000  0.50000000  1
  Al  Al5_2  1  0.00000000  0.75000000  0.00000000  1
  Al  Al5_3  1  0.00000000  0.75000000  0.50000000  1
  Al  Al5_4  1  0.50000000  0.25000000  0.00000000  1
  Al  Al5_5  1  0.50000000  0.25000000  0.50000000  1
  Al  Al5_6  1  0.50000000  0.75000000  0.00000000  1
  Al  Al5_7  1  0.50000000  0.75000000  0.50000000  1
  Al  Al6_0  1  0.10707457  0.21415113  0.25000000  1
  Al  Al6_1  1  0.10707457  0.21415113  0.75000000  1
  Al  Al6_2  1  0.10707456  0.71415113  0.25000000  1
  Al  Al6_3  1  0.10707456  0.71415113  0.75000000  1
  Al  Al6_4  1  0.60707457  0.21415113  0.25000000  1
  Al  Al6_5  1  0.60707457  0.21415113  0.75000000  1
  Al  Al6_6  1  0.60707457  0.71415114  0.25000000  1
  Al  Al6_7  1  0.60707457  0.71415114  0.75000000  1
  Al  Al7_0  1  0.39292544  0.10707606  0.25000000  1
  Al  Al7_1  1  0.39292544  0.10707606  0.75000000  1
  Al  Al7_2  1  0.39292544  0.60707607  0.25000000  1
  Al  Al7_3  1  0.39292544  0.60707607  0.75000000  1
  Al  Al7_4  1  0.89292544  0.10707606  0.25000000  1
  Al  Al7_5  1  0.89292544  0.10707606  0.75000000  1
  Al  Al7_6  1  0.89292544  0.60707606  0.25000000  1
  Al  Al7_7  1  0.89292544  0.60707606  0.75000000  1
  Al  Al8_0  1  0.21415064  0.10707506  0.25000000  1
  Al  Al8_1  1  0.21415064  0.10707506  0.75000000  1
  Al  Al8_2  1  0.21415064  0.60707507  0.25000000  1
  Al  Al8_3  1  0.21415064  0.60707507  0.75000000  1
  Al  Al8_4  1  0.71415064  0.10707506  0.25000000  1
  Al  Al8_5  1  0.71415064  0.10707506  0.75000000  1
  Al  Al8_6  1  0.71415064  0.60707506  0.25000000  1
  Al  Al8_7  1  0.71415064  0.60707506  0.75000000  1
  Co  Co0_0  1  0.33333450  0.16666700  0.00000000  1
  Co  Co0_1  1  0.33333450  0.16666700  0.50000000  1
  Co  Co0_2  1  0.33333450  0.66666700  0.00000000  1
  Co  Co0_3  1  0.33333450  0.66666700  0.50000000  1
  Co  Co0_4  1  0.83333450  0.16666700  0.00000000  1
  Co  Co0_5  1  0.83333450  0.16666700  0.50000000  1
  Co  Co0_6  1  0.83333450  0.66666700  0.00000000  1
  Co  Co0_7  1  0.83333450  0.66666700  0.50000000  1
  Co  Co1_0  1  0.16666550  0.33333300  0.00000000  1
  Co  Co1_1  1  0.16666550  0.33333300  0.50000000  1
  Co  Co1_2  1  0.16666550  0.83333300  0.00000000  1
  Co  Co1_3  1  0.16666550  0.83333300  0.50000000  1
  Co  Co1_4  1  0.66666550  0.33333300  0.00000000  1
  Co  Co1_5  1  0.66666550  0.33333300  0.50000000  1
  Co  Co1_6  1  0.66666550  0.83333300  0.00000000  1
  Co  Co1_7  1  0.66666550  0.83333300  0.50000000  1
loop_
_geom_bond_atom_site_label_1
_geom_bond_atom_site_label_2
_geom_bond_distance
_geom_bond_site_symmetry_2
Eu0_0 Eu0_1 3.878692 1_555
Eu0_0 Eu0_1 3.878692 1_554
Eu0_2 Eu0_3 3.878692 1_555
Eu0_2 Eu0_3 3.878692 1_554
Eu0_4 Eu0_5 3.878692 1_555
Eu0_4 Eu0_5 3.878692 1_554
Eu0_6 Eu0_7 3.878692 1_555
Eu0_6 Eu0_7 3.878692 1_554
Al0_0 Co0_1 2.521833 1_555
Al0_0 Co0_0 2.521833 1_555
Al0_0 Al8_0 2.792090 1_555
Al0_0 Al7_0 2.792092 1_555
Al0_0 Al5_5 2.794171 1_555
Al0_0 Al5_4 2.794171 1_555
Al0_0 Al4_1 2.794186 1_555
Al0_0 Al4_0 2.794186 1_555
Al0_0 Al1_4 2.896477 1_555
Al0_0 Al2_0 2.896543 1_555
Al0_0 Eu0_6 3.485821 1_555
Al0_0 Eu0_7 3.485821 1_555
Al0_1 Co0_1 2.521833 1_555
Al0_1 Co0_0 2.521833 1_556
Al0_1 Al8_1 2.792090 1_555
Al0_1 Al7_1 2.792092 1_555
Al0_1 Al5_4 2.794171 1_556
Al0_1 Al5_5 2.794171 1_555
Al0_1 Al4_0 2.794186 1_556
Al0_1 Al4_1 2.794186 1_555
Al0_1 Al1_5 2.896477 1_555
Al0_1 Al2_1 2.896543 1_555
Al0_1 Eu0_6 3.485821 1_556
Al0_1 Eu0_7 3.485821 1_555
Al0_2 Co0_2 2.521833 1_555
Al0_2 Co0_3 2.521833 1_555
Al0_2 Al8_2 2.792090 1_555
Al0_2 Al7_2 2.792092 1_555
Al0_2 Al5_7 2.794171 1_555
Al0_2 Al5_6 2.794171 1_555
Al0_2 Al4_3 2.794186 1_555
Al0_2 Al4_2 2.794186 1_555
Al0_2 Al1_6 2.896477 1_555
Al0_2 Al2_2 2.896543 1_555
Al0_2 Eu0_4 3.485821 1_565
Al0_2 Eu0_5 3.485821 1_565
Al0_3 Co0_3 2.521833 1_555
Al0_3 Co0_2 2.521833 1_556
Al0_3 Al8_3 2.792090 1_555
Al0_3 Al7_3 2.792092 1_555
Al0_3 Al5_6 2.794171 1_556
Al0_3 Al5_7 2.794171 1_555
Al0_3 Al4_2 2.794186 1_556
Al0_3 Al4_3 2.794186 1_555
Al0_3 Al1_7 2.896477 1_555
Al0_3 Al2_3 2.896543 1_555
Al0_3 Eu0_4 3.485821 1_566
Al0_3 Eu0_5 3.485821 1_565
Al0_4 Co0_4 2.521833 1_555
Al0_4 Co0_5 2.521833 1_555
Al0_4 Al8_4 2.792090 1_555
Al0_4 Al7_4 2.792092 1_555
Al0_4 Al5_1 2.794171 1_655
Al0_4 Al5_0 2.794171 1_655
Al0_4 Al4_5 2.794186 1_555
Al0_4 Al4_4 2.794186 1_555
Al0_4 Al1_0 2.896477 1_655
Al0_4 Al2_4 2.896543 1_555
Al0_4 Eu0_3 3.485821 1_655
Al0_4 Eu0_2 3.485821 1_655
Al0_5 Co0_4 2.521833 1_556
Al0_5 Co0_5 2.521833 1_555
Al0_5 Al8_5 2.792090 1_555
Al0_5 Al7_5 2.792092 1_555
Al0_5 Al5_1 2.794171 1_655
Al0_5 Al5_0 2.794171 1_656
Al0_5 Al4_5 2.794186 1_555
Al0_5 Al4_4 2.794186 1_556
Al0_5 Al1_1 2.896477 1_655
Al0_5 Al2_5 2.896543 1_555
Al0_5 Eu0_3 3.485821 1_655
Al0_5 Eu0_2 3.485821 1_656
Al0_6 Co0_7 2.521833 1_555
Al0_6 Co0_6 2.521833 1_555
Al0_6 Al8_6 2.792090 1_555
Al0_6 Al7_6 2.792092 1_555
Al0_6 Al5_2 2.794171 1_655
Al0_6 Al5_3 2.794171 1_655
Al0_6 Al4_6 2.794186 1_555
Al0_6 Al4_7 2.794186 1_555
Al0_6 Al1_2 2.896477 1_655
Al0_6 Al2_6 2.896543 1_555
Al0_6 Eu0_1 3.485821 1_665
Al0_6 Eu0_0 3.485821 1_665
Al0_7 Co0_7 2.521833 1_555
Al0_7 Co0_6 2.521833 1_556
Al0_7 Al8_7 2.792090 1_555
Al0_7 Al7_7 2.792092 1_555
Al0_7 Al5_3 2.794171 1_655
Al0_7 Al5_2 2.794171 1_656
Al0_7 Al4_6 2.794186 1_556
Al0_7 Al4_7 2.794186 1_555
Al0_7 Al1_3 2.896477 1_655
Al0_7 Al2_7 2.896543 1_555
Al0_7 Eu0_1 3.485821 1_665
Al0_7 Eu0_0 3.485821 1_666
Al1_0 Co1_0 2.521833 1_555
Al1_0 Co1_1 2.521833 1_555
Al1_0 Al2_0 2.792090 1_555
Al1_0 Al6_0 2.792092 1_555
Al1_0 Al5_0 2.794175 1_555
Al1_0 Al5_1 2.794175 1_555
Al1_0 Al3_3 2.794184 1_555
Al1_0 Al3_2 2.794184 1_555
Al1_0 Al8_2 2.896530 1_555
Al1_0 Eu0_2 3.485815 1_555
Al1_0 Eu0_3 3.485815 1_555
Al1_1 Co1_0 2.521833 1_556
Al1_1 Co1_1 2.521833 1_555
Al1_1 Al2_1 2.792090 1_555
Al1_1 Al6_1 2.792092 1_555
Al1_1 Al5_0 2.794175 1_556
Al1_1 Al5_1 2.794175 1_555
Al1_1 Al3_2 2.794184 1_556
Al1_1 Al3_3 2.794184 1_555
Al1_1 Al8_3 2.896530 1_555
Al1_1 Eu0_2 3.485815 1_556
Al1_1 Eu0_3 3.485815 1_555
Al1_2 Co1_2 2.521833 1_555
Al1_2 Co1_3 2.521833 1_555
Al1_2 Al2_2 2.792090 1_555
Al1_2 Al6_2 2.792092 1_555
Al1_2 Al5_2 2.794175 1_555
Al1_2 Al5_3 2.794175 1_555
Al1_2 Al3_0 2.794184 1_565
Al1_2 Al3_1 2.794184 1_565
Al1_2 Al8_0 2.896530 1_565
Al1_2 Eu0_1 3.485815 1_565
Al1_2 Eu0_0 3.485815 1_565
Al1_3 Co1_2 2.521833 1_556
Al1_3 Co1_3 2.521833 1_555
Al1_3 Al2_3 2.792090 1_555
Al1_3 Al6_3 2.792092 1_555
Al1_3 Al5_2 2.794175 1_556
Al1_3 Al5_3 2.794175 1_555
Al1_3 Al3_1 2.794184 1_565
Al1_3 Al3_0 2.794184 1_566
Al1_3 Al8_1 2.896530 1_565
Al1_3 Eu0_0 3.485815 1_566
Al1_3 Eu0_1 3.485815 1_565
Al1_4 Co1_4 2.521833 1_555
Al1_4 Co1_5 2.521833 1_555
Al1_4 Al2_4 2.792090 1_555
Al1_4 Al6_4 2.792092 1_555
Al1_4 Al5_4 2.794175 1_555
Al1_4 Al5_5 2.794175 1_555
Al1_4 Al3_6 2.794184 1_555
Al1_4 Al3_7 2.794184 1_555
Al1_4 Al8_6 2.896530 1_555
Al1_4 Eu0_6 3.485815 1_555
Al1_4 Eu0_7 3.485815 1_555
Al1_5 Co1_4 2.521833 1_556
Al1_5 Co1_5 2.521833 1_555
Al1_5 Al2_5 2.792090 1_555
Al1_5 Al6_5 2.792092 1_555
Al1_5 Al5_4 2.794175 1_556
Al1_5 Al5_5 2.794175 1_555
Al1_5 Al3_6 2.794184 1_556
Al1_5 Al3_7 2.794184 1_555
Al1_5 Al8_7 2.896530 1_555
Al1_5 Eu0_6 3.485815 1_556
Al1_5 Eu0_7 3.485815 1_555
Al1_6 Co1_7 2.521833 1_555
Al1_6 Co1_6 2.521833 1_555
Al1_6 Al2_6 2.792090 1_555
Al1_6 Al6_6 2.792092 1_555
Al1_6 Al5_7 2.794175 1_555
Al1_6 Al5_6 2.794175 1_555
Al1_6 Al3_4 2.794184 1_565
Al1_6 Al3_5 2.794184 1_565
Al1_6 Al8_4 2.896530 1_565
Al1_6 Eu0_5 3.485815 1_565
Al1_6 Eu0_4 3.485815 1_565
Al1_7 Co1_7 2.521833 1_555
Al1_7 Co1_6 2.521833 1_556
Al1_7 Al2_7 2.792090 1_555
Al1_7 Al6_7 2.792092 1_555
Al1_7 Al5_7 2.794175 1_555
Al1_7 Al5_6 2.794175 1_556
Al1_7 Al3_5 2.794184 1_565
Al1_7 Al3_4 2.794184 1_566
Al1_7 Al8_5 2.896530 1_565
Al1_7 Eu0_4 3.485815 1_566
Al1_7 Eu0_5 3.485815 1_565
Al2_0 Co1_1 2.521841 1_555
Al2_0 Co1_0 2.521841 1_555
Al2_0 Al6_0 2.792090 1_555
Al2_0 Al3_3 2.794188 1_555
Al2_0 Al3_2 2.794188 1_555
Al2_0 Al4_1 2.794194 1_555
Al2_0 Al4_0 2.794194 1_555
Al2_0 Al7_2 2.896530 1_555
Al2_0 Eu0_7 3.485794 1_555
Al2_0 Eu0_6 3.485794 1_555
Al2_1 Co1_1 2.521841 1_555
Al2_1 Co1_0 2.521841 1_556
Al2_1 Al6_1 2.792090 1_555
Al2_1 Al3_2 2.794188 1_556
Al2_1 Al3_3 2.794188 1_555
Al2_1 Al4_0 2.794194 1_556
Al2_1 Al4_1 2.794194 1_555
Al2_1 Al7_3 2.896530 1_555
Al2_1 Eu0_6 3.485794 1_556
Al2_1 Eu0_7 3.485794 1_555
Al2_2 Co1_3 2.521841 1_555
Al2_2 Co1_2 2.521841 1_555
Al2_2 Al6_2 2.792090 1_555
Al2_2 Al3_0 2.794188 1_565
Al2_2 Al3_1 2.794188 1_565
Al2_2 Al4_2 2.794194 1_555
Al2_2 Al4_3 2.794194 1_555
Al2_2 Al7_0 2.896530 1_565
Al2_2 Eu0_5 3.485794 1_565
Al2_2 Eu0_4 3.485794 1_565
Al2_3 Co1_3 2.521841 1_555
Al2_3 Co1_2 2.521841 1_556
Al2_3 Al6_3 2.792090 1_555
Al2_3 Al3_0 2.794188 1_566
Al2_3 Al3_1 2.794188 1_565
Al2_3 Al4_2 2.794194 1_556
Al2_3 Al4_3 2.794194 1_555
Al2_3 Al7_1 2.896530 1_565
Al2_3 Eu0_4 3.485794 1_566
Al2_3 Eu0_5 3.485794 1_565
Al2_4 Co1_4 2.521841 1_555
Al2_4 Co1_5 2.521841 1_555
Al2_4 Al6_4 2.792090 1_555
Al2_4 Al3_7 2.794188 1_555
Al2_4 Al3_6 2.794188 1_555
Al2_4 Al4_5 2.794194 1_555
Al2_4 Al4_4 2.794194 1_555
Al2_4 Al7_6 2.896530 1_555
Al2_4 Eu0_2 3.485794 1_655
Al2_4 Eu0_3 3.485794 1_655
Al2_5 Co1_4 2.521841 1_556
Al2_5 Co1_5 2.521841 1_555
Al2_5 Al6_5 2.792090 1_555
Al2_5 Al3_7 2.794188 1_555
Al2_5 Al3_6 2.794188 1_556
Al2_5 Al4_4 2.794194 1_556
Al2_5 Al4_5 2.794194 1_555
Al2_5 Al7_7 2.896530 1_555
Al2_5 Eu0_2 3.485794 1_656
Al2_5 Eu0_3 3.485794 1_655
Al2_6 Co1_7 2.521841 1_555
Al2_6 Co1_6 2.521841 1_555
Al2_6 Al6_6 2.792090 1_555
Al2_6 Al3_4 2.794188 1_565
Al2_6 Al3_5 2.794188 1_565
Al2_6 Al4_6 2.794194 1_555
Al2_6 Al4_7 2.794194 1_555
Al2_6 Al7_4 2.896530 1_565
Al2_6 Eu0_1 3.485794 1_665
Al2_6 Eu0_0 3.485794 1_665
Al2_7 Co1_7 2.521841 1_555
Al2_7 Co1_6 2.521841 1_556
Al2_7 Al6_7 2.792090 1_555
Al2_7 Al3_4 2.794188 1_566
Al2_7 Al3_5 2.794188 1_565
Al2_7 Al4_7 2.794194 1_555
Al2_7 Al4_6 2.794194 1_556
Al2_7 Al7_5 2.896530 1_565
Al2_7 Eu0_1 3.485794 1_665
Al2_7 Eu0_0 3.485794 1_666
Al3_0 Co0_0 2.254277 1_555
Al3_0 Co1_2 2.254277 1_545
Al3_0 Al7_1 2.794184 1_554
Al3_0 Al7_0 2.794184 1_555
Al3_0 Al8_0 2.794188 1_555
Al3_0 Al8_1 2.794188 1_554
Al3_1 Co0_1 2.254277 1_555
Al3_1 Co1_3 2.254277 1_545
Al3_1 Al7_1 2.794184 1_555
Al3_1 Al7_0 2.794184 1_555
Al3_1 Al8_1 2.794188 1_555
Al3_1 Al8_0 2.794188 1_555
Al3_2 Co0_2 2.254277 1_555
Al3_2 Co1_0 2.254277 1_555
Al3_2 Al7_3 2.794184 1_554
Al3_2 Al7_2 2.794184 1_555
Al3_2 Al8_2 2.794188 1_555
Al3_2 Al8_3 2.794188 1_554
Al3_3 Co0_3 2.254277 1_555
Al3_3 Co1_1 2.254277 1_555
Al3_3 Al7_2 2.794184 1_555
Al3_3 Al7_3 2.794184 1_555
Al3_3 Al8_2 2.794188 1_555
Al3_3 Al8_3 2.794188 1_555
Al3_4 Co0_4 2.254277 1_555
Al3_4 Co1_6 2.254277 1_545
Al3_4 Al7_5 2.794184 1_554
Al3_4 Al7_4 2.794184 1_555
Al3_4 Al8_5 2.794188 1_554
Al3_4 Al8_4 2.794188 1_555
Al3_5 Co0_5 2.254277 1_555
Al3_5 Co1_7 2.254277 1_545
Al3_5 Al7_4 2.794184 1_555
Al3_5 Al7_5 2.794184 1_555
Al3_5 Al8_4 2.794188 1_555
Al3_5 Al8_5 2.794188 1_555
Al3_6 Co0_6 2.254277 1_555
Al3_6 Co1_4 2.254277 1_555
Al3_6 Al7_6 2.794184 1_555
Al3_6 Al7_7 2.794184 1_554
Al3_6 Al8_7 2.794188 1_554
Al3_6 Al8_6 2.794188 1_555
Al3_7 Co0_7 2.254277 1_555
Al3_7 Co1_5 2.254277 1_555
Al3_7 Al7_7 2.794184 1_555
Al3_7 Al7_6 2.794184 1_555
Al3_7 Al8_7 2.794188 1_555
Al3_7 Al8_6 2.794188 1_555
Al4_0 Co1_0 2.254284 1_555
Al4_0 Co0_0 2.254284 1_555
Al4_0 Al6_1 2.794186 1_554
Al4_0 Al6_0 2.794186 1_555
Al4_0 Al8_0 2.794194 1_555
Al4_0 Al8_1 2.794194 1_554
Al4_1 Co1_1 2.254284 1_555
Al4_1 Co0_1 2.254284 1_555
Al4_1 Al6_1 2.794186 1_555
Al4_1 Al6_0 2.794186 1_555
Al4_1 Al8_0 2.794194 1_555
Al4_1 Al8_1 2.794194 1_555
Al4_2 Co1_2 2.254284 1_555
Al4_2 Co0_2 2.254284 1_555
Al4_2 Al6_2 2.794186 1_555
Al4_2 Al6_3 2.794186 1_554
Al4_2 Al8_2 2.794194 1_555
Al4_2 Al8_3 2.794194 1_554
Al4_3 Co1_3 2.254284 1_555
Al4_3 Co0_3 2.254284 1_555
Al4_3 Al6_2 2.794186 1_555
Al4_3 Al6_3 2.794186 1_555
Al4_3 Al8_2 2.794194 1_555
Al4_3 Al8_3 2.794194 1_555
Al4_4 Co1_4 2.254284 1_555
Al4_4 Co0_4 2.254284 1_555
Al4_4 Al6_5 2.794186 1_554
Al4_4 Al6_4 2.794186 1_555
Al4_4 Al8_4 2.794194 1_555
Al4_4 Al8_5 2.794194 1_554
Al4_5 Co1_5 2.254284 1_555
Al4_5 Co0_5 2.254284 1_555
Al4_5 Al6_5 2.794186 1_555
Al4_5 Al6_4 2.794186 1_555
Al4_5 Al8_4 2.794194 1_555
Al4_5 Al8_5 2.794194 1_555
Al4_6 Co1_6 2.254284 1_555
Al4_6 Co0_6 2.254284 1_555
Al4_6 Al6_6 2.794186 1_555
Al4_6 Al6_7 2.794186 1_554
Al4_6 Al8_6 2.794194 1_555
Al4_6 Al8_7 2.794194 1_554
Al4_7 Co1_7 2.254284 1_555
Al4_7 Co0_7 2.254284 1_555
Al4_7 Al6_6 2.794186 1_555
Al4_7 Al6_7 2.794186 1_555
Al4_7 Al8_6 2.794194 1_555
Al4_7 Al8_7 2.794194 1_555
Al5_0 Co0_4 2.254236 1_455
Al5_0 Co1_0 2.254236 1_555
Al5_0 Al6_1 2.794171 1_554
Al5_0 Al6_0 2.794171 1_555
Al5_0 Al7_4 2.794175 1_455
Al5_0 Al7_5 2.794175 1_454
Al5_1 Co0_5 2.254236 1_455
Al5_1 Co1_1 2.254236 1_555
Al5_1 Al6_0 2.794171 1_555
Al5_1 Al6_1 2.794171 1_555
Al5_1 Al7_4 2.794175 1_455
Al5_1 Al7_5 2.794175 1_455
Al5_2 Co0_6 2.254236 1_455
Al5_2 Co1_2 2.254236 1_555
Al5_2 Al6_2 2.794171 1_555
Al5_2 Al6_3 2.794171 1_554
Al5_2 Al7_6 2.794175 1_455
Al5_2 Al7_7 2.794175 1_454
Al5_3 Co0_7 2.254236 1_455
Al5_3 Co1_3 2.254236 1_555
Al5_3 Al6_2 2.794171 1_555
Al5_3 Al6_3 2.794171 1_555
Al5_3 Al7_6 2.794175 1_455
Al5_3 Al7_7 2.794175 1_455
Al5_4 Co1_4 2.254236 1_555
Al5_4 Co0_0 2.254236 1_555
Al5_4 Al6_4 2.794171 1_555
Al5_4 Al6_5 2.794171 1_554
Al5_4 Al7_1 2.794175 1_554
Al5_4 Al7_0 2.794175 1_555
Al5_5 Co1_5 2.254236 1_555
Al5_5 Co0_1 2.254236 1_555
Al5_5 Al6_4 2.794171 1_555
Al5_5 Al6_5 2.794171 1_555
Al5_5 Al7_0 2.794175 1_555
Al5_5 Al7_1 2.794175 1_555
Al5_6 Co1_6 2.254236 1_555
Al5_6 Co0_2 2.254236 1_555
Al5_6 Al6_6 2.794171 1_555
Al5_6 Al6_7 2.794171 1_554
Al5_6 Al7_3 2.794175 1_554
Al5_6 Al7_2 2.794175 1_555
Al5_7 Co1_7 2.254236 1_555
Al5_7 Co0_3 2.254236 1_555
Al5_7 Al6_6 2.794171 1_555
Al5_7 Al6_7 2.794171 1_555
Al5_7 Al7_3 2.794175 1_555
Al5_7 Al7_2 2.794175 1_555
Al6_0 Co1_1 2.521833 1_555
Al6_0 Co1_0 2.521833 1_555
Al6_0 Al7_4 2.896477 1_455
Al6_0 Al8_0 2.896543 1_555
Al6_0 Eu0_1 3.485821 1_555
Al6_0 Eu0_0 3.485821 1_555
Al6_1 Co1_1 2.521833 1_555
Al6_1 Co1_0 2.521833 1_556
Al6_1 Al7_5 2.896477 1_455
Al6_1 Al8_1 2.896543 1_555
Al6_1 Eu0_0 3.485821 1_556
Al6_1 Eu0_1 3.485821 1_555
Al6_2 Co1_3 2.521833 1_555
Al6_2 Co1_2 2.521833 1_555
Al6_2 Al7_6 2.896477 1_455
Al6_2 Al8_2 2.896543 1_555
Al6_2 Eu0_2 3.485821 1_555
Al6_2 Eu0_3 3.485821 1_555
Al6_3 Co1_3 2.521833 1_555
Al6_3 Co1_2 2.521833 1_556
Al6_3 Al7_7 2.896477 1_455
Al6_3 Al8_3 2.896543 1_555
Al6_3 Eu0_2 3.485821 1_556
Al6_3 Eu0_3 3.485821 1_555
Al6_4 Co1_5 2.521833 1_555
Al6_4 Co1_4 2.521833 1_555
Al6_4 Al7_0 2.896477 1_555
Al6_4 Al8_4 2.896543 1_555
Al6_4 Eu0_4 3.485821 1_555
Al6_4 Eu0_5 3.485821 1_555
Al6_5 Co1_5 2.521833 1_555
Al6_5 Co1_4 2.521833 1_556
Al6_5 Al7_1 2.896477 1_555
Al6_5 Al8_5 2.896543 1_555
Al6_5 Eu0_4 3.485821 1_556
Al6_5 Eu0_5 3.485821 1_555
Al6_6 Co1_6 2.521833 1_555
Al6_6 Co1_7 2.521833 1_555
Al6_6 Al7_2 2.896477 1_555
Al6_6 Al8_6 2.896543 1_555
Al6_6 Eu0_7 3.485821 1_555
Al6_6 Eu0_6 3.485821 1_555
Al6_7 Co1_6 2.521833 1_556
Al6_7 Co1_7 2.521833 1_555
Al6_7 Al7_3 2.896477 1_555
Al6_7 Al8_7 2.896543 1_555
Al6_7 Eu0_7 3.485821 1_555
Al6_7 Eu0_6 3.485821 1_556
Al7_0 Co0_0 2.521833 1_555
Al7_0 Co0_1 2.521833 1_555
Al7_0 Al8_0 2.792090 1_555
Al7_0 Eu0_4 3.485815 1_555
Al7_0 Eu0_5 3.485815 1_555
Al7_1 Co0_0 2.521833 1_556
Al7_1 Co0_1 2.521833 1_555
Al7_1 Al8_1 2.792090 1_555
Al7_1 Eu0_4 3.485815 1_556
Al7_1 Eu0_5 3.485815 1_555
Al7_2 Co0_2 2.521833 1_555
Al7_2 Co0_3 2.521833 1_555
Al7_2 Al8_2 2.792090 1_555
Al7_2 Eu0_6 3.485815 1_555
Al7_2 Eu0_7 3.485815 1_555
Al7_3 Co0_3 2.521833 1_555
Al7_3 Co0_2 2.521833 1_556
Al7_3 Al8_3 2.792090 1_555
Al7_3 Eu0_6 3.485815 1_556
Al7_3 Eu0_7 3.485815 1_555
Al7_4 Co0_4 2.521833 1_555
Al7_4 Co0_5 2.521833 1_555
Al7_4 Al8_4 2.792090 1_555
Al7_4 Eu0_1 3.485815 1_655
Al7_4 Eu0_0 3.485815 1_655
Al7_5 Co0_4 2.521833 1_556
Al7_5 Co0_5 2.521833 1_555
Al7_5 Al8_5 2.792090 1_555
Al7_5 Eu0_1 3.485815 1_655
Al7_5 Eu0_0 3.485815 1_656
Al7_6 Co0_7 2.521833 1_555
Al7_6 Co0_6 2.521833 1_555
Al7_6 Al8_6 2.792090 1_555
Al7_6 Eu0_2 3.485815 1_655
Al7_6 Eu0_3 3.485815 1_655
Al7_7 Co0_7 2.521833 1_555
Al7_7 Co0_6 2.521833 1_556
Al7_7 Al8_7 2.792090 1_555
Al7_7 Eu0_2 3.485815 1_656
Al7_7 Eu0_3 3.485815 1_655
Al8_0 Co0_0 2.521841 1_555
Al8_0 Co0_1 2.521841 1_555
Al8_0 Eu0_1 3.485794 1_555
Al8_0 Eu0_0 3.485794 1_555
Al8_1 Co0_0 2.521841 1_556
Al8_1 Co0_1 2.521841 1_555
Al8_1 Eu0_1 3.485794 1_555
Al8_1 Eu0_0 3.485794 1_556
Al8_2 Co0_3 2.521841 1_555
Al8_2 Co0_2 2.521841 1_555
Al8_2 Eu0_2 3.485794 1_555
Al8_2 Eu0_3 3.485794 1_555
Al8_3 Co0_3 2.521841 1_555
Al8_3 Co0_2 2.521841 1_556
Al8_3 Eu0_2 3.485794 1_556
Al8_3 Eu0_3 3.485794 1_555
Al8_4 Co0_4 2.521841 1_555
Al8_4 Co0_5 2.521841 1_555
Al8_4 Eu0_4 3.485794 1_555
Al8_4 Eu0_5 3.485794 1_555
Al8_5 Co0_4 2.521841 1_556
Al8_5 Co0_5 2.521841 1_555
Al8_5 Eu0_4 3.485794 1_556
Al8_5 Eu0_5 3.485794 1_555
Al8_6 Co0_7 2.521841 1_555
Al8_6 Co0_6 2.521841 1_555
Al8_6 Eu0_6 3.485794 1_555
Al8_6 Eu0_7 3.485794 1_555
Al8_7 Co0_7 2.521841 1_555
Al8_7 Co0_6 2.521841 1_556
Al8_7 Eu0_6 3.485794 1_556
Al8_7 Eu0_7 3.485794 1_555
