# generated using pymatgen
data_Sr2UO4
_symmetry_space_group_name_H-M   'P 1'
_cell_length_a   7.17465519
_cell_length_b   7.17465519
_cell_length_c   7.17465519
_cell_angle_alpha   144.12924355
_cell_angle_beta   144.12924355
_cell_angle_gamma   51.63407187
_symmetry_Int_Tables_number   1
_chemical_formula_structural   Sr2UO4
_chemical_formula_sum   'Sr2 U1 O4'
_cell_volume   126.10747508
_cell_formula_units_Z   1
loop_
 _symmetry_equiv_pos_site_id
 _symmetry_equiv_pos_as_xyz
  1  'x, y, z'
loop_
 _atom_site_type_symbol
 _atom_site_label
 _atom_site_symmetry_multiplicity
 _atom_site_fract_x
 _atom_site_fract_y
 _atom_site_fract_z
 _atom_site_occupancy
  Sr  Sr0  1  0.35217200  0.35217200  0.00000000  1
  Sr  Sr1  1  0.64782800  0.64782800  0.00000000  1
  U  U0  1  0.00000000  0.00000000  0.00000000  1
  O  O0  1  0.00000000  0.50000000  0.50000000  1
  O  O1  1  0.50000000  0.00000000  0.50000000  1
  O  O2  1  0.16991600  0.16991600  0.00000000  1
  O  O3  1  0.83008400  0.83008400  0.00000000  1
loop_
_geom_bond_atom_site_label_1
_geom_bond_atom_site_label_2
_geom_bond_distance
_geom_bond_site_symmetry_2
O0 U0 2.209393 1_555
O0 U0 2.209393 1_566
O0 Sr1 2.920212 1_556
O0 Sr1 2.920212 1_455
O0 Sr0 2.920212 1_556
O0 Sr0 2.920212 1_455
O1 U0 2.209393 1_555
O1 U0 2.209393 1_656
O1 Sr1 2.920212 1_556
O1 Sr1 2.920212 1_545
O1 Sr0 2.920212 1_556
O1 Sr0 2.920212 1_545
O2 U0 2.194821 1_555
O2 Sr0 2.354218 1_555
O2 Sr1 3.137553 1_444
O2 Sr1 3.137553 1_545
O2 Sr1 3.137553 1_455
O2 Sr1 3.137553 1_556
O3 U0 2.194821 1_665
O3 Sr1 2.354218 1_555
O3 Sr0 3.137553 1_565
O3 Sr0 3.137553 1_666
O3 Sr0 3.137553 1_655
O3 Sr0 3.137553 1_554
