# generated using pymatgen
data_Na5Y4P5SO24
_symmetry_space_group_name_H-M   'P 1'
_cell_length_a   9.29724119
_cell_length_b   9.30767134
_cell_length_c   23.59254996
_cell_angle_alpha   90.15004599
_cell_angle_beta   90.07546106
_cell_angle_gamma   119.99850951
_symmetry_Int_Tables_number   1
_chemical_formula_structural   Na5Y4P5SO24
_chemical_formula_sum   'Na15 Y12 P15 S3 O72'
_cell_volume   1768.08723443
_cell_formula_units_Z   3
loop_
 _symmetry_equiv_pos_site_id
 _symmetry_equiv_pos_as_xyz
  1  'x, y, z'
loop_
 _atom_site_type_symbol
 _atom_site_label
 _atom_site_symmetry_multiplicity
 _atom_site_fract_x
 _atom_site_fract_y
 _atom_site_fract_z
 _atom_site_occupancy
  Na  Na0  1  0.64829891  0.00022945  0.25028774  1
  Na  Na1  1  0.99618752  0.36020770  0.74916900  1
  Na  Na2  1  0.36184778  0.99939893  0.74973390  1
  Na  Na3  1  0.02656157  0.69471424  0.58137384  1
  Na  Na4  1  0.66788898  0.97254662  0.58477933  1
  Na  Na5  1  0.30608542  0.97379149  0.08013357  1
  Na  Na6  1  0.02631049  0.33358004  0.08471341  1
  Na  Na7  1  0.98236252  0.66621033  0.91738130  1
  Na  Na8  1  0.70496189  0.67504921  0.41883914  1
  Na  Na9  1  0.02101451  0.01667901  0.50101923  1
  Na  Na10  1  0.00042147  0.01313179  0.99842991  1
  Na  Na11  1  0.65389348  0.32127274  0.83394646  1
  Na  Na12  1  0.69714747  0.34617356  0.33333398  1
  Na  Na13  1  0.33849371  0.63777369  0.16783474  1
  Na  Na14  1  0.35082602  0.65011044  0.66633212  1
  Y  Y0  1  0.99767133  0.99969404  0.35027677  1
  Y  Y1  1  0.00180417  0.00928318  0.85024958  1
  Y  Y2  1  0.00157598  0.00129563  0.65073497  1
  Y  Y3  1  0.98872476  0.99097224  0.15003025  1
  Y  Y4  1  0.66411744  0.34414573  0.68255466  1
  Y  Y5  1  0.67306548  0.35211786  0.18351955  1
  Y  Y6  1  0.65970539  0.32507627  0.98301828  1
  Y  Y7  1  0.66672921  0.32284057  0.48268389  1
  Y  Y8  1  0.33972339  0.66503821  0.01662255  1
  Y  Y9  1  0.32823037  0.66601506  0.51598197  1
  Y  Y10  1  0.31720078  0.66014071  0.31626976  1
  Y  Y11  1  0.33951456  0.66925937  0.81703291  1
  P  P0  1  0.69512798  0.70007282  0.25415127  1
  P  P1  1  0.99666002  0.29678363  0.24716948  1
  P  P2  1  0.29788657  0.29824146  0.75067309  1
  P  P3  1  0.00160898  0.69971351  0.75183534  1
  P  P4  1  0.69848426  0.00281912  0.74680747  1
  P  P5  1  0.96574086  0.33371961  0.58627612  1
  P  P6  1  0.36647506  0.03125305  0.58504093  1
  P  P7  1  0.66859636  0.63706599  0.57902313  1
  P  P8  1  0.96986951  0.63445671  0.07910687  1
  P  P9  1  0.66472560  0.03778631  0.08685159  1
  P  P10  1  0.36301311  0.32875821  0.08409987  1
  P  P11  1  0.03121680  0.36828987  0.91670637  1
  P  P12  1  0.32973555  0.96538208  0.91691641  1
  P  P13  1  0.63112677  0.96286225  0.41485725  1
  P  P14  1  0.02682246  0.66783822  0.41939170  1
  S  S0  1  0.30392770  0.00161419  0.24834069  1
  S  S1  1  0.63988274  0.66660360  0.91653505  1
  S  S2  1  0.33554376  0.36924432  0.41625663  1
  O  O0  1  0.21432275  0.01327898  0.29811150  1
  O  O1  1  0.79378180  0.78060789  0.30924421  1
  O  O2  1  0.98207065  0.18331856  0.29724208  1
  O  O3  1  0.21313462  0.18959508  0.80300275  1
  O  O4  1  0.98577560  0.78557645  0.80552016  1
  O  O5  1  0.81410343  0.02296390  0.79685928  1
  O  O6  1  0.77362496  0.98404959  0.69059864  1
  O  O7  1  0.18831534  0.21402209  0.69799731  1
  O  O8  1  0.02103190  0.80463143  0.69831042  1
  O  O9  1  0.79126769  0.81306148  0.20336208  1
  O  O10  1  0.01385851  0.21904784  0.19103317  1
  O  O11  1  0.21129483  0.98672837  0.19536124  1
  O  O12  1  0.88789633  0.35644064  0.64140406  1
  O  O13  1  0.46554151  0.11125569  0.64027765  1
  O  O14  1  0.65294881  0.53123370  0.63122912  1
  O  O15  1  0.87854014  0.52107302  0.12999890  1
  O  O16  1  0.64179322  0.11626999  0.14168728  1
  O  O17  1  0.46612771  0.34756666  0.13738062  1
  O  O18  1  0.44989467  0.30960243  0.03139925  1
  O  O19  1  0.87163443  0.55829093  0.02383536  1
  O  O20  1  0.68922478  0.15290308  0.03606368  1
  O  O21  1  0.45748583  0.13953850  0.53359440  1
  O  O22  1  0.68490262  0.55381972  0.52447467  1
  O  O23  1  0.85021043  0.31213797  0.53581625  1
  O  O24  1  0.55705559  0.68000917  0.96794527  1
  O  O25  1  0.13487037  0.45539927  0.97049053  1
  O  O26  1  0.31850716  0.86146030  0.97015434  1
  O  O27  1  0.54355621  0.85521433  0.46793541  1
  O  O28  1  0.31519846  0.44780550  0.46790592  1
  O  O29  1  0.11783630  0.67733262  0.47568569  1
  O  O30  1  0.12166460  0.65165775  0.36861842  1
  O  O31  1  0.52949888  0.87332513  0.36105594  1
  O  O32  1  0.35055406  0.47044415  0.36588569  1
  O  O33  1  0.12325645  0.47265831  0.86357226  1
  O  O34  1  0.34583635  0.87857545  0.86305986  1
  O  O35  1  0.54304822  0.65403001  0.86540646  1
  O  O36  1  0.01056446  0.82586242  0.41510890  1
  O  O37  1  0.80463219  0.97476261  0.41278882  1
  O  O38  1  0.19127983  0.19973899  0.41178793  1
  O  O39  1  0.00353885  0.19075010  0.91390998  1
  O  O40  1  0.16217659  0.96577582  0.91484442  1
  O  O41  1  0.80921284  0.81516731  0.91439294  1
  O  O42  1  0.97760227  0.17377675  0.58796166  1
  O  O43  1  0.18601516  0.99845910  0.58710816  1
  O  O44  1  0.83099376  0.81029243  0.58402349  1
  O  O45  1  0.00177388  0.81354713  0.08667243  1
  O  O46  1  0.82406267  0.02390552  0.08887687  1
  O  O47  1  0.18859732  0.16724565  0.08726043  1
  O  O48  1  0.68382964  0.16330225  0.74604517  1
  O  O49  1  0.46897030  0.30949252  0.74618000  1
  O  O50  1  0.85223090  0.52079714  0.74757349  1
  O  O51  1  0.67269391  0.52535571  0.24871340  1
  O  O52  1  0.83069644  0.30101570  0.24684758  1
  O  O53  1  0.47344409  0.14901842  0.24718132  1
  O  O54  1  0.66024100  0.51816968  0.91852931  1
  O  O55  1  0.86255463  0.36661813  0.91880401  1
  O  O56  1  0.48038970  0.14245750  0.91968299  1
  O  O57  1  0.65115511  0.13733731  0.41864972  1
  O  O58  1  0.49219349  0.36350397  0.41956377  1
  O  O59  1  0.84676301  0.51550480  0.41901643  1
  O  O60  1  0.33248977  0.47800903  0.08017452  1
  O  O61  1  0.14411805  0.64683291  0.07727084  1
  O  O62  1  0.50604377  0.86654451  0.07926160  1
  O  O63  1  0.35579277  0.85809657  0.57995655  1
  O  O64  1  0.51956146  0.66793063  0.57758401  1
  O  O65  1  0.13701628  0.49300939  0.57974563  1
  O  O66  1  0.32415052  0.85232344  0.25213919  1
  O  O67  1  0.52492629  0.69535501  0.25505264  1
  O  O68  1  0.14764045  0.47336125  0.25283423  1
  O  O69  1  0.31119776  0.47041884  0.75544716  1
  O  O70  1  0.16304107  0.68609865  0.75465492  1
  O  O71  1  0.52056982  0.85264972  0.75317952  1
loop_
_geom_bond_atom_site_label_1
_geom_bond_atom_site_label_2
_geom_bond_distance
_geom_bond_site_symmetry_2
Na0 O52 2.444251 1_555
Na0 O67 2.475471 1_545
Na0 O53 2.611039 1_555
Na0 O66 2.613701 1_545
Na0 O16 2.795405 1_555
Na0 O31 2.857219 1_545
Na0 O9 2.887330 1_545
Na0 O2 2.907561 1_555
Na1 O50 2.455096 1_555
Na1 O48 2.544510 1_555
Na1 O69 2.577895 1_655
Na1 O70 2.629866 1_655
Na1 O12 2.726983 1_555
Na1 O33 2.918299 1_655
Na1 O5 2.948676 1_555
Na1 O7 2.987812 1_655
Na2 O71 2.462862 1_555
Na2 O49 2.540953 1_565
Na2 O70 2.558537 1_555
Na2 O48 2.594410 1_565
Na2 O13 2.774685 1_565
Na2 O34 2.878306 1_555
Na2 O8 3.005488 1_555
Na2 O3 3.010882 1_565
Na3 O43 2.452615 1_555
Na3 O44 2.534370 1_455
Na3 O65 2.551133 1_555
Na3 O63 2.651223 1_555
Na3 O29 2.665399 1_555
Na3 O8 2.949349 1_555
Na4 O64 2.460974 1_555
Na4 O42 2.531961 1_565
Na4 O63 2.544571 1_555
Na4 O44 2.621171 1_555
Na4 O6 2.664112 1_555
Na5 O45 2.456782 1_555
Na5 O62 2.511699 1_555
Na5 O47 2.535597 1_565
Na5 O61 2.636205 1_555
Na5 O26 2.818907 1_554
Na5 O11 2.879619 1_555
Na5 O18 2.953492 1_565
Na6 O60 2.469187 1_555
Na6 O46 2.536865 1_455
Na6 O61 2.557613 1_555
Na6 O47 2.648227 1_555
Na6 O10 2.707955 1_555
Na6 O25 2.906051 1_554
Na6 O15 2.909632 1_455
Na6 O20 2.945760 1_455
Na7 O55 2.431519 1_555
Na7 O40 2.431625 1_655
Na7 O54 2.596616 1_555
Na7 O41 2.598215 1_555
Na7 O19 2.713396 1_556
Na7 O4 2.860156 1_555
Na7 O26 2.986373 1_655
Na7 O33 2.987496 1_655
Na8 O59 2.429187 1_555
Na8 O36 2.462537 1_655
Na8 O37 2.465490 1_555
Na8 O58 2.566405 1_555
Na8 O22 2.706406 1_555
Na8 O1 2.745963 1_555
Na9 O43 2.600193 1_545
Na9 O36 2.660826 1_545
Na9 O42 2.661764 1_455
Na9 O38 2.677937 1_555
Na9 O44 2.698404 1_445
Na9 O37 2.780690 1_445
Na10 O39 2.584503 1_555
Na10 O47 2.641151 1_556
Na10 O40 2.647789 1_545
Na10 O41 2.680003 1_445
Na10 O46 2.724782 1_456
Na10 O45 2.797999 1_546
Na11 O56 2.608686 1_555
Na11 O48 2.633406 1_555
Na11 O49 2.656386 1_555
Na11 O55 2.667631 1_555
Na11 O54 2.686374 1_555
Na11 O50 2.758078 1_555
Na12 O59 2.507774 1_555
Na12 O52 2.530956 1_555
Na12 O57 2.684061 1_555
Na12 O51 2.685928 1_555
Na12 O53 2.824413 1_555
Na12 O58 2.848074 1_555
Na13 O60 2.528267 1_555
Na13 O67 2.565464 1_555
Na13 O68 2.611892 1_555
Na13 O61 2.825115 1_555
Na13 O62 2.835910 1_555
Na13 O66 2.864919 1_555
Na14 O64 2.573483 1_555
Na14 O69 2.599541 1_555
Na14 O71 2.690526 1_555
Na14 O65 2.707354 1_555
Na14 O63 2.798918 1_555
Na14 O70 2.844833 1_555
O0 S0 1.475451 1_555
O0 Y0 2.310963 1_445
O1 P0 1.548177 1_555
O1 Y0 2.192773 1_555
O2 P1 1.546937 1_555
O2 Y0 2.183182 1_545
O3 P2 1.542733 1_555
O3 Y1 2.153549 1_555
O4 P3 1.541873 1_655
O4 Y1 2.269171 1_665
O5 P4 1.542404 1_555
O5 Y1 2.205780 1_655
O6 P4 1.549322 1_565
O6 Y2 2.251142 1_665
O7 P2 1.545877 1_555
O7 Y2 2.173438 1_555
O8 P3 1.552934 1_555
O8 Y2 2.232613 1_565
O9 P0 1.552475 1_555
O9 Y3 2.161623 1_555
O10 P1 1.553813 1_455
O10 Y3 2.233722 1_445
O11 S0 1.483291 1_565
O11 Y3 2.345935 1_455
O12 P5 1.553768 1_555
O12 Y4 2.247678 1_555
O13 P6 1.551456 1_555
O13 Y4 2.254806 1_555
O14 P7 1.540142 1_555
O14 Y4 2.168155 1_555
O15 P8 1.545835 1_555
O15 Y5 2.174749 1_555
O16 P9 1.550581 1_555
O16 Y5 2.286291 1_555
O17 P10 1.535477 1_555
O17 Y5 2.191126 1_555
O18 P10 1.541318 1_555
O18 Y6 2.203288 1_554
O19 P8 1.543277 1_555
O19 Y6 2.286641 1_554
O20 P9 1.548887 1_555
O20 Y6 2.158475 1_554
O21 P6 1.536663 1_555
O21 Y7 2.199092 1_555
O22 P7 1.546707 1_555
O22 Y7 2.290819 1_555
O23 P5 1.546265 1_555
O23 Y7 2.157821 1_555
O24 S1 1.475614 1_555
O24 Y8 2.268585 1_556
O25 P11 1.551217 1_555
O25 Y8 2.210567 1_556
O26 P12 1.558791 1_555
O26 Y8 2.225704 1_556
O27 P13 1.558345 1_555
O27 Y9 2.210198 1_555
O28 S2 1.479713 1_555
O28 Y9 2.273264 1_555
O29 P14 1.552217 1_555
O29 Y9 2.223252 1_555
O30 P14 1.539391 1_555
O30 Y10 2.167805 1_555
O31 P13 1.549948 1_555
O31 Y10 2.239809 1_555
O32 S2 1.481153 1_555
O32 Y10 2.267421 1_555
O33 P11 1.557347 1_555
O33 Y11 2.221244 1_555
O34 P12 1.551046 1_555
O34 Y11 2.202845 1_555
O35 S1 1.473199 1_555
O35 Y11 2.273047 1_555
O36 P14 1.555465 1_555
O36 Y0 2.275554 1_455
O37 P13 1.561531 1_555
O37 Y0 2.245509 1_555
O38 S2 1.477150 1_555
O38 Y0 2.332490 1_445
O39 P11 1.541246 1_555
O39 Y1 2.251276 1_555
O40 P12 1.560374 1_555
O40 Y1 2.304471 1_565
O41 S1 1.488901 1_555
O41 Y1 2.355228 1_665
O42 P5 1.547391 1_555
O42 Y2 2.278088 1_655
O43 P6 1.548770 1_565
O43 Y2 2.290492 1_565
O44 P7 1.567624 1_555
O44 Y2 2.304849 1_665
O45 P8 1.549945 1_455
O45 Y3 2.272471 1_455
O46 P9 1.550721 1_555
O46 Y3 2.232699 1_545
O47 P10 1.567898 1_555
O47 Y3 2.304204 1_445
O48 P4 1.566442 1_555
O48 Y4 2.330563 1_555
O49 P2 1.544724 1_555
O49 Y4 2.252470 1_555
O50 P3 1.548607 1_655
O50 Y4 2.284617 1_555
O51 P0 1.537591 1_555
O51 Y5 2.226722 1_555
O52 P1 1.563079 1_555
O52 Y5 2.302446 1_555
O53 S0 1.484956 1_555
O53 Y5 2.405786 1_555
O54 S1 1.486132 1_555
O54 Y6 2.355921 1_555
O55 P11 1.561223 1_655
O55 Y6 2.298443 1_555
O56 P12 1.540564 1_545
O56 Y6 2.246734 1_555
O57 P13 1.541664 1_545
O57 Y7 2.240579 1_555
O58 S2 1.485802 1_555
O58 Y7 2.367433 1_555
O59 P14 1.561828 1_655
O59 Y7 2.300641 1_555
O60 P10 1.553620 1_555
O60 Y8 2.275930 1_555
O61 P8 1.566285 1_455
O61 Y8 2.254615 1_555
O62 P9 1.547730 1_565
O62 Y8 2.274233 1_555
O63 P6 1.568654 1_565
O63 Y9 2.250954 1_555
O64 P7 1.549700 1_555
O64 Y9 2.288710 1_555
O65 P5 1.548754 1_455
O65 Y9 2.274570 1_555
O66 S0 1.495354 1_565
O66 Y10 2.322052 1_555
O67 P0 1.561089 1_555
O67 Y10 2.302176 1_555
O68 P1 1.543003 1_455
O68 Y10 2.233156 1_555
O69 P2 1.548203 1_555
O69 Y11 2.259060 1_555
O70 P3 1.569417 1_555
O70 Y11 2.265895 1_555
O71 P4 1.549901 1_565
O71 Y11 2.272352 1_555
