# generated using pymatgen
data_Er2Cu2O5
_symmetry_space_group_name_H-M   'P 1'
_cell_length_a   3.48875200
_cell_length_b   10.84675200
_cell_length_c   12.48531700
_cell_angle_alpha   90.00000000
_cell_angle_beta   90.00000000
_cell_angle_gamma   90.00000000
_symmetry_Int_Tables_number   1
_chemical_formula_structural   Er2Cu2O5
_chemical_formula_sum   'Er8 Cu8 O20'
_cell_volume   472.46471805
_cell_formula_units_Z   4
loop_
 _symmetry_equiv_pos_site_id
 _symmetry_equiv_pos_as_xyz
  1  'x, y, z'
loop_
 _atom_site_type_symbol
 _atom_site_label
 _atom_site_symmetry_multiplicity
 _atom_site_fract_x
 _atom_site_fract_y
 _atom_site_fract_z
 _atom_site_occupancy
  Er  Er0  1  0.27788900  0.54316100  0.82707700  1
  Er  Er1  1  0.72211100  0.45683900  0.32707700  1
  Er  Er2  1  0.22211100  0.04316100  0.82707700  1
  Er  Er3  1  0.77788900  0.95683900  0.32707700  1
  Er  Er4  1  0.28048300  0.70855500  0.49940600  1
  Er  Er5  1  0.71951700  0.29144500  0.99940600  1
  Er  Er6  1  0.21951700  0.20855500  0.49940600  1
  Er  Er7  1  0.78048300  0.79144500  0.99940600  1
  Cu  Cu0  1  0.84584100  0.76336300  0.71566800  1
  Cu  Cu1  1  0.15415900  0.23663700  0.21566800  1
  Cu  Cu2  1  0.65415900  0.26336300  0.71566800  1
  Cu  Cu3  1  0.34584100  0.73663700  0.21566800  1
  Cu  Cu4  1  0.84060200  0.49029400  0.60945300  1
  Cu  Cu5  1  0.15939800  0.50970600  0.10945300  1
  Cu  Cu6  1  0.65939800  0.99029400  0.60945300  1
  Cu  Cu7  1  0.34060200  0.00970600  0.10945300  1
  O  O0  1  0.27448800  0.92180000  0.96950000  1
  O  O1  1  0.72551200  0.07820000  0.46950000  1
  O  O2  1  0.22551200  0.42180000  0.96950000  1
  O  O3  1  0.77448800  0.57820000  0.46950000  1
  O  O4  1  0.72338100  0.93023500  0.76053300  1
  O  O5  1  0.27661900  0.06976500  0.26053300  1
  O  O6  1  0.77661900  0.43023500  0.76053300  1
  O  O7  1  0.22338100  0.56976500  0.26053300  1
  O  O8  1  0.16218600  0.62614100  0.66312900  1
  O  O9  1  0.83781400  0.37385900  0.16312900  1
  O  O10  1  0.33781400  0.12614100  0.66312900  1
  O  O11  1  0.66218600  0.87385900  0.16312900  1
  O  O12  1  0.78312400  0.82336000  0.56339200  1
  O  O13  1  0.21687600  0.17664000  0.06339200  1
  O  O14  1  0.71687600  0.32336000  0.56339200  1
  O  O15  1  0.28312400  0.67664000  0.06339200  1
  O  O16  1  0.27649200  0.82624400  0.35504400  1
  O  O17  1  0.72350800  0.17375600  0.85504400  1
  O  O18  1  0.22350800  0.32624400  0.35504400  1
  O  O19  1  0.77649200  0.67375600  0.85504400  1
loop_
_geom_bond_atom_site_label_1
_geom_bond_atom_site_label_2
_geom_bond_distance
_geom_bond_site_symmetry_2
Er0 O2 2.219957 1_555
Er0 O19 2.270320 1_555
Er0 O8 2.272230 1_555
Er0 O19 2.277797 1_455
Er0 O6 2.284296 1_555
Er0 O6 2.291053 1_455
Er1 O3 2.219957 1_555
Er1 O18 2.270320 1_555
Er1 O9 2.272230 1_555
Er1 O18 2.277797 1_655
Er1 O7 2.284296 1_555
Er1 O7 2.291053 1_655
Er2 O0 2.219957 1_545
Er2 O17 2.270320 1_455
Er2 O10 2.272230 1_555
Er2 O17 2.277797 1_555
Er2 O4 2.284296 1_445
Er2 O4 2.291053 1_545
Er3 O1 2.219957 1_565
Er3 O16 2.270320 1_655
Er3 O11 2.272230 1_555
Er3 O16 2.277797 1_555
Er3 O5 2.284296 1_665
Er3 O5 2.291053 1_565
Er4 O16 2.208715 1_555
Er4 O3 2.260294 1_555
Er4 O8 2.268901 1_555
Er4 O12 2.280281 1_455
Er4 O3 2.292349 1_455
Er4 O12 2.294335 1_555
Er5 O17 2.208715 1_555
Er5 O2 2.260294 1_555
Er5 O9 2.268901 1_556
Er5 O13 2.280281 1_656
Er5 O2 2.292349 1_655
Er5 O13 2.294335 1_556
Er6 O18 2.208715 1_555
Er6 O1 2.260294 1_455
Er6 O10 2.268901 1_555
Er6 O14 2.280281 1_555
Er6 O1 2.292349 1_555
Er6 O14 2.294335 1_455
Er7 O19 2.208715 1_555
Er7 O0 2.260294 1_655
Er7 O11 2.268901 1_556
Er7 O15 2.280281 1_556
Er7 O0 2.292349 1_555
Er7 O15 2.294335 1_656
Cu0 O4 1.942285 1_555
Cu0 O8 1.965631 1_655
Cu0 O19 2.007821 1_555
Cu0 O12 2.021385 1_555
Cu1 O5 1.942285 1_555
Cu1 O9 1.965631 1_455
Cu1 O18 2.007821 1_555
Cu1 O13 2.021385 1_555
Cu2 O6 1.942285 1_555
Cu2 O10 1.965631 1_555
Cu2 O17 2.007821 1_555
Cu2 O14 2.021385 1_555
Cu3 O7 1.942285 1_555
Cu3 O11 1.965631 1_555
Cu3 O16 2.007821 1_555
Cu3 O15 2.021385 1_555
Cu4 O14 1.948243 1_555
Cu4 O8 1.969527 1_655
Cu4 O3 2.003899 1_555
Cu4 O6 2.008051 1_555
Cu5 O15 1.948243 1_555
Cu5 O9 1.969527 1_455
Cu5 O2 2.003899 1_554
Cu5 O7 2.008051 1_555
Cu6 O12 1.948243 1_555
Cu6 O10 1.969527 1_565
Cu6 O1 2.003899 1_565
Cu6 O4 2.008051 1_555
Cu7 O13 1.948243 1_555
Cu7 O11 1.969527 1_545
Cu7 O0 2.003899 1_544
Cu7 O5 2.008051 1_555
