# generated using pymatgen
data_PrFe2
_symmetry_space_group_name_H-M   'P 1'
_cell_length_a   5.29105801
_cell_length_b   5.29105801
_cell_length_c   5.29105801
_cell_angle_alpha   60.00000000
_cell_angle_beta   60.00000000
_cell_angle_gamma   60.00000000
_symmetry_Int_Tables_number   1
_chemical_formula_structural   PrFe2
_chemical_formula_sum   'Pr2 Fe4'
_cell_volume   104.74000056
_cell_formula_units_Z   2
loop_
 _symmetry_equiv_pos_site_id
 _symmetry_equiv_pos_as_xyz
  1  'x, y, z'
loop_
 _atom_site_type_symbol
 _atom_site_label
 _atom_site_symmetry_multiplicity
 _atom_site_fract_x
 _atom_site_fract_y
 _atom_site_fract_z
 _atom_site_occupancy
  Pr  Pr0  1  0.50000000  0.50000000  0.50000000  1
  Pr  Pr1  1  0.75000000  0.75000000  0.75000000  1
  Fe  Fe0  1  0.12500000  0.12500000  0.12500000  1
  Fe  Fe1  1  0.62500000  0.12500000  0.12500000  1
  Fe  Fe2  1  0.12500000  0.62500000  0.12500000  1
  Fe  Fe3  1  0.12500000  0.12500000  0.62500000  1
loop_
_geom_bond_atom_site_label_1
_geom_bond_atom_site_label_2
_geom_bond_distance
_geom_bond_site_symmetry_2
Pr0 Pr1 3.240098 1_554
Pr0 Pr1 3.240098 1_455
Pr0 Pr1 3.240098 1_545
Pr0 Pr1 3.240098 1_555
Fe0 Fe3 2.645529 1_554
Fe0 Fe1 2.645529 1_455
Fe0 Fe3 2.645529 1_555
Fe0 Fe2 2.645529 1_545
Fe0 Fe2 2.645529 1_555
Fe0 Fe1 2.645529 1_555
Fe0 Pr0 3.102158 1_554
Fe0 Pr1 3.102158 1_454
Fe0 Pr0 3.102158 1_455
Fe0 Pr0 3.102158 1_545
Fe0 Pr1 3.102158 1_544
Fe0 Pr1 3.102158 1_445
Fe1 Fe3 2.645529 1_555
Fe1 Fe2 2.645529 1_555
Fe1 Fe2 2.645529 1_645
Fe1 Fe3 2.645529 1_654
Fe1 Pr0 3.102158 1_554
Fe1 Pr1 3.102158 1_554
Fe1 Pr0 3.102158 1_555
Fe1 Pr1 3.102158 1_545
Fe1 Pr0 3.102158 1_545
Fe1 Pr1 3.102158 1_544
Fe2 Fe3 2.645529 1_555
Fe2 Fe3 2.645529 1_564
Fe2 Pr0 3.102158 1_554
Fe2 Pr1 3.102158 1_554
Fe2 Pr1 3.102158 1_455
Fe2 Pr0 3.102158 1_555
Fe2 Pr1 3.102158 1_454
Fe2 Pr0 3.102158 1_455
Fe3 Pr1 3.102158 1_455
Fe3 Pr0 3.102158 1_555
Fe3 Pr0 3.102158 1_455
Fe3 Pr0 3.102158 1_545
Fe3 Pr1 3.102158 1_545
Fe3 Pr1 3.102158 1_445
