# generated using pymatgen
data_MgV6O5F19
_symmetry_space_group_name_H-M   'P 1'
_cell_length_a   5.42058818
_cell_length_b   5.35621453
_cell_length_c   15.59020653
_cell_angle_alpha   89.71184152
_cell_angle_beta   100.95360263
_cell_angle_gamma   91.40776639
_symmetry_Int_Tables_number   1
_chemical_formula_structural   MgV6O5F19
_chemical_formula_sum   'Mg1 V6 O5 F19'
_cell_volume   444.26275217
_cell_formula_units_Z   1
loop_
 _symmetry_equiv_pos_site_id
 _symmetry_equiv_pos_as_xyz
  1  'x, y, z'
loop_
 _atom_site_type_symbol
 _atom_site_label
 _atom_site_symmetry_multiplicity
 _atom_site_fract_x
 _atom_site_fract_y
 _atom_site_fract_z
 _atom_site_occupancy
  Mg  Mg0  1  0.65261700  0.75127800  0.81472900  1
  V  V0  1  0.00801400  0.00508000  0.01071100  1
  V  V1  1  0.11134000  0.48349800  0.33148000  1
  V  V2  1  0.32150500  0.05875600  0.65337400  1
  V  V3  1  0.47627900  0.47464600  0.00804300  1
  V  V4  1  0.60607800  0.03003300  0.33134800  1
  V  V5  1  0.84485300  0.49729200  0.65587600  1
  O  O0  1  0.04698100  0.21499100  0.65121300  1
  O  O1  1  0.21749100  0.27327300  0.98677400  1
  O  O2  1  0.35742800  0.20757100  0.31108600  1
  O  O3  1  0.53620300  0.28314300  0.64163700  1
  O  O4  1  0.85808900  0.29875900  0.30959300  1
  F  F0  1  0.14056700  0.70810500  0.68365300  1
  F  F1  1  0.04704700  0.05731900  0.12299200  1
  F  F2  1  0.23346800  0.41238400  0.44254800  1
  F  F3  1  0.41854900  0.03207000  0.77657000  1
  F  F4  1  0.15078000  0.58103800  0.22632400  1
  F  F5  1  0.27337500  0.91885100  0.54952400  1
  F  F6  1  0.45580100  0.57470700  0.88419300  1
  F  F7  1  0.71549600  0.21541600  0.98640300  1
  F  F8  1  0.28789900  0.78203800  0.02309900  1
  F  F9  1  0.47383600  0.73206600  0.36043200  1
  F  F10  1  0.63797700  0.78871000  0.68327100  1
  F  F11  1  0.57720300  0.44475000  0.12400700  1
  F  F12  1  0.73909800  0.09217000  0.44253200  1
  F  F13  1  0.85080600  0.46859400  0.77773900  1
  F  F14  1  0.63802300  0.92397900  0.22699400  1
  F  F15  1  0.78414300  0.58556400  0.54621400  1
  F  F16  1  0.92979700  0.92772900  0.88757100  1
  F  F17  1  0.78514000  0.71656000  0.01768200  1
  F  F18  1  0.97888000  0.77213400  0.35828200  1
loop_
_geom_bond_atom_site_label_1
_geom_bond_atom_site_label_2
_geom_bond_distance
_geom_bond_site_symmetry_2
O0 V2 1.719783 1_555
O0 V5 1.898646 1_455
O1 V3 1.730205 1_556
O1 V0 1.888816 1_556
O2 V4 1.648894 1_555
O2 V1 2.080270 1_555
O3 V2 1.685929 1_555
O3 V5 1.982731 1_555
O4 V1 1.654896 1_655
O4 V4 2.031603 1_555
F0 V5 1.919414 1_455
F0 V2 2.188332 1_565
F1 V0 1.746000 1_555
F2 V1 1.775333 1_555
F3 V2 1.898163 1_555
F3 Mg0 2.005893 1_545
F4 V1 1.767877 1_555
F5 V2 1.758688 1_565
F6 Mg0 1.893310 1_555
F6 V3 1.984640 1_556
F7 V0 1.944779 1_656
F7 V3 1.995640 1_556
F8 V0 1.934326 1_565
F8 V3 1.996549 1_555
F9 V4 1.823898 1_565
F9 V1 2.319000 1_555
F10 V5 2.037411 1_555
F10 Mg0 2.044899 1_555
F10 V2 2.250219 1_565
F11 V3 1.794147 1_555
F12 V4 1.776041 1_555
F13 V5 1.899521 1_555
F13 Mg0 2.025680 1_555
F14 V4 1.766538 1_565
F15 V5 1.743691 1_555
F16 V0 1.930545 1_666
F16 Mg0 1.932075 1_555
F17 V0 1.953457 1_665
F17 V3 2.074672 1_555
F18 V1 1.804245 1_655
F18 V4 2.444789 1_565
