# generated using pymatgen
data_EuMgVO3
_symmetry_space_group_name_H-M   'P 1'
_cell_length_a   4.41651248
_cell_length_b   4.47790439
_cell_length_c   4.41937837
_cell_angle_alpha   98.67153116
_cell_angle_beta   98.17679719
_cell_angle_gamma   81.28193683
_symmetry_Int_Tables_number   1
_chemical_formula_structural   EuMgVO3
_chemical_formula_sum   'Eu1 Mg1 V1 O3'
_cell_volume   84.76373921
_cell_formula_units_Z   1
loop_
 _symmetry_equiv_pos_site_id
 _symmetry_equiv_pos_as_xyz
  1  'x, y, z'
loop_
 _atom_site_type_symbol
 _atom_site_label
 _atom_site_symmetry_multiplicity
 _atom_site_fract_x
 _atom_site_fract_y
 _atom_site_fract_z
 _atom_site_occupancy
  Eu  Eu0  1  0.88398262  0.87471986  0.11315877  1
  Mg  Mg0  1  0.24279043  0.24415772  0.75529423  1
  V  V0  1  0.53904433  0.53791640  0.46192633  1
  O  O0  1  0.03094589  0.52655726  0.47483915  1
  O  O1  1  0.52760350  0.02655605  0.47435487  1
  O  O2  1  0.52563322  0.52342671  0.97042865  1
loop_
_geom_bond_atom_site_label_1
_geom_bond_atom_site_label_2
_geom_bond_distance
_geom_bond_site_symmetry_2
Eu0 O2 2.355572 1_554
Eu0 O1 2.355984 1_565
Eu0 O0 2.357188 1_655
Mg0 O1 1.944512 1_555
Mg0 O0 1.948018 1_555
Mg0 O2 1.950754 1_555
O0 V0 2.158162 1_455
O0 V0 2.261280 1_555
O1 V0 2.173547 1_545
O1 V0 2.307086 1_555
O2 V0 2.155892 1_556
O2 V0 2.267357 1_555
