# generated using pymatgen
data_Na14Ti4Si11Sn4SO48
_symmetry_space_group_name_H-M   'P 1'
_cell_length_a   18.05792443
_cell_length_b   9.03511501
_cell_length_c   22.20220384
_cell_angle_alpha   90.07781356
_cell_angle_beta   90.08046496
_cell_angle_gamma   120.00484804
_symmetry_Int_Tables_number   1
_chemical_formula_structural   Na14Ti4Si11Sn4SO48
_chemical_formula_sum   'Na42 Ti12 Si33 Sn12 S3 O144'
_cell_volume   3136.93382924
_cell_formula_units_Z   3
loop_
 _symmetry_equiv_pos_site_id
 _symmetry_equiv_pos_as_xyz
  1  'x, y, z'
loop_
 _atom_site_type_symbol
 _atom_site_label
 _atom_site_symmetry_multiplicity
 _atom_site_fract_x
 _atom_site_fract_y
 _atom_site_fract_z
 _atom_site_occupancy
  Na  Na0  1  0.31798328  0.00004295  0.24995950  1
  Na  Na1  1  0.81770336  0.99975576  0.24993128  1
  Na  Na2  1  0.31812868  0.63177839  0.74963994  1
  Na  Na3  1  0.81528990  0.63103846  0.74977378  1
  Na  Na4  1  0.49807670  0.36602147  0.75065170  1
  Na  Na5  1  0.68465175  0.00109319  0.74962245  1
  Na  Na6  1  0.15013830  0.33461067  0.58260087  1
  Na  Na7  1  0.64703325  0.32813880  0.58476367  1
  Na  Na8  1  0.01921027  0.69825319  0.58345646  1
  Na  Na9  1  0.51637807  0.70403320  0.58349366  1
  Na  Na10  1  0.33258940  0.95898156  0.58341186  1
  Na  Na11  1  0.83380178  0.97163752  0.58393437  1
  Na  Na12  1  0.14929514  0.96669164  0.08304538  1
  Na  Na13  1  0.64739926  0.96547615  0.08314636  1
  Na  Na14  1  0.33216658  0.69677257  0.08331263  1
  Na  Na15  1  0.83306124  0.69636349  0.08429301  1
  Na  Na16  1  0.01796300  0.33733947  0.08370356  1
  Na  Na17  1  0.51667035  0.33813110  0.08371714  1
  Na  Na18  1  0.48127958  0.66603438  0.91634467  1
  Na  Na19  1  0.98602265  0.66654440  0.91635985  1
  Na  Na20  1  0.34962361  0.03417480  0.91615436  1
  Na  Na21  1  0.84974896  0.03543918  0.91572135  1
  Na  Na22  1  0.16739098  0.30100154  0.91765958  1
  Na  Na23  1  0.66390886  0.29434087  0.91561497  1
  Na  Na24  1  0.48183082  0.30230544  0.41698691  1
  Na  Na25  1  0.98503347  0.30481912  0.41632470  1
  Na  Na26  1  0.16779515  0.03780670  0.41758670  1
  Na  Na27  1  0.66422890  0.03169465  0.41682381  1
  Na  Na28  1  0.34756548  0.65916289  0.41685952  1
  Na  Na29  1  0.84903626  0.66247904  0.41576340  1
  Na  Na30  1  0.00158211  0.00255951  0.50002120  1
  Na  Na31  1  0.50188043  0.00001789  0.50180860  1
  Na  Na32  1  0.00248639  0.00210655  0.00012419  1
  Na  Na33  1  0.50106142  0.99986341  0.99799874  1
  Na  Na34  1  0.33066996  0.32322692  0.83333250  1
  Na  Na35  1  0.83890287  0.33463703  0.83209393  1
  Na  Na36  1  0.33692881  0.34848460  0.33371231  1
  Na  Na37  1  0.83679697  0.34864466  0.33253014  1
  Na  Na38  1  0.16279415  0.65129786  0.16762876  1
  Na  Na39  1  0.66209371  0.65115550  0.16766347  1
  Na  Na40  1  0.16267851  0.67272089  0.66642508  1
  Na  Na41  1  0.66710677  0.66797233  0.66631954  1
  Ti  Ti0  1  0.99285970  0.99681621  0.35473955  1
  Ti  Ti1  1  0.49027553  0.99485211  0.35542771  1
  Ti  Ti2  1  0.99387315  0.98910363  0.85485029  1
  Ti  Ti3  1  0.49792386  0.99915665  0.85148768  1
  Ti  Ti4  1  0.99603303  0.98661612  0.64546067  1
  Ti  Ti5  1  0.49841986  0.99744591  0.64826352  1
  Ti  Ti6  1  0.99467282  0.00400428  0.14557917  1
  Ti  Ti7  1  0.49288500  0.00426219  0.14463303  1
  Ti  Ti8  1  0.33621955  0.32800843  0.68307980  1
  Ti  Ti9  1  0.33302998  0.33645478  0.98120912  1
  Ti  Ti10  1  0.33259550  0.33363424  0.48171075  1
  Ti  Ti11  1  0.16612408  0.66374776  0.51884381  1
  Si  Si0  1  0.35457408  0.70752143  0.24979591  1
  Si  Si1  1  0.85490136  0.70826602  0.25022053  1
  Si  Si2  1  0.00136260  0.29253257  0.25008796  1
  Si  Si3  1  0.50046616  0.29141837  0.25016697  1
  Si  Si4  1  0.64343451  0.28656212  0.74984768  1
  Si  Si5  1  0.00311571  0.71278035  0.74982918  1
  Si  Si6  1  0.49749037  0.70831865  0.74956548  1
  Si  Si7  1  0.35327720  0.99952894  0.74924914  1
  Si  Si8  1  0.85743227  0.00337328  0.75007745  1
  Si  Si9  1  0.47762021  0.33013523  0.58240339  1
  Si  Si10  1  0.98194098  0.33448761  0.58367489  1
  Si  Si11  1  0.18906243  0.04345686  0.58315624  1
  Si  Si12  1  0.68609145  0.04081912  0.58466162  1
  Si  Si13  1  0.33266896  0.62080412  0.58457038  1
  Si  Si14  1  0.83268059  0.62433331  0.58425147  1
  Si  Si15  1  0.47951847  0.62704535  0.08261620  1
  Si  Si16  1  0.98159891  0.63021465  0.08351339  1
  Si  Si17  1  0.33162289  0.04614126  0.08411592  1
  Si  Si18  1  0.83216959  0.04223532  0.08522232  1
  Si  Si19  1  0.18844903  0.33261820  0.08396802  1
  Si  Si20  1  0.68653350  0.33088003  0.08455281  1
  Si  Si21  1  0.31297478  0.66606437  0.91489120  1
  Si  Si22  1  0.81275129  0.66513898  0.91618788  1
  Si  Si23  1  0.02097960  0.37330748  0.91544930  1
  Si  Si24  1  0.51825238  0.37064922  0.91612995  1
  Si  Si25  1  0.16780350  0.96532672  0.91715864  1
  Si  Si26  1  0.66561617  0.96077688  0.91564210  1
  Si  Si27  1  0.30888739  0.95648276  0.41647999  1
  Si  Si28  1  0.81083894  0.95707774  0.41498610  1
  Si  Si29  1  0.16750071  0.37359089  0.41775688  1
  Si  Si30  1  0.66590424  0.36940437  0.41698289  1
  Si  Si31  1  0.02324648  0.66909610  0.41650871  1
  Si  Si32  1  0.51924217  0.66624533  0.41576927  1
  Sn  Sn0  1  0.83746034  0.33626897  0.68838297  1
  Sn  Sn1  1  0.33898349  0.34639884  0.18706904  1
  Sn  Sn2  1  0.83882781  0.34605068  0.18735266  1
  Sn  Sn3  1  0.83353993  0.33497831  0.98178538  1
  Sn  Sn4  1  0.83442066  0.33182640  0.48195158  1
  Sn  Sn5  1  0.16650940  0.66715045  0.01758277  1
  Sn  Sn6  1  0.66669374  0.66654853  0.01830976  1
  Sn  Sn7  1  0.66492629  0.66468797  0.51838637  1
  Sn  Sn8  1  0.16655983  0.65410877  0.31366123  1
  Sn  Sn9  1  0.66484430  0.65318236  0.31308158  1
  Sn  Sn10  1  0.16645617  0.67741335  0.81369863  1
  Sn  Sn11  1  0.66568480  0.66606707  0.81284250  1
  S  S0  1  0.14332239  0.00001462  0.25031608  1
  S  S1  1  0.64288726  0.99966866  0.25000757  1
  S  S2  1  0.14446392  0.28711425  0.74975241  1
  O  O0  1  0.10235198  0.01586217  0.30535943  1
  O  O1  1  0.60230374  0.01526633  0.30505738  1
  O  O2  1  0.41231078  0.80745667  0.30980581  1
  O  O3  1  0.91358356  0.80759714  0.31031325  1
  O  O4  1  0.48905922  0.16951287  0.30901706  1
  O  O5  1  0.99059837  0.16988689  0.30877940  1
  O  O6  1  0.10381388  0.19024156  0.80503199  1
  O  O7  1  0.59696355  0.16759970  0.80889648  1
  O  O8  1  0.48373671  0.80110398  0.80853141  1
  O  O9  1  0.99204030  0.81269349  0.80862857  1
  O  O10  1  0.41438449  0.03070102  0.80856011  1
  O  O11  1  0.91394099  0.01903671  0.81016660  1
  O  O12  1  0.40127303  0.97229315  0.69039958  1
  O  O13  1  0.90579709  0.97876682  0.69124244  1
  O  O14  1  0.09391652  0.20414823  0.69493819  1
  O  O15  1  0.58311473  0.19498394  0.69042904  1
  O  O16  1  0.01183835  0.82890812  0.68968232  1
  O  O17  1  0.51255961  0.83094639  0.69081546  1
  O  O18  1  0.40428770  0.82971429  0.19087799  1
  O  O19  1  0.90503459  0.83053766  0.19161479  1
  O  O20  1  0.01004837  0.19379529  0.18997401  1
  O  O21  1  0.50875670  0.19197499  0.19012811  1
  O  O22  1  0.09456430  0.98494696  0.19510505  1
  O  O23  1  0.59449000  0.98419540  0.19471762  1
  O  O24  1  0.43312193  0.36520597  0.64192441  1
  O  O25  1  0.94060498  0.38656377  0.63877179  1
  O  O26  1  0.25436927  0.14225275  0.63988989  1
  O  O27  1  0.74863305  0.12205229  0.64315365  1
  O  O28  1  0.31692667  0.49756102  0.64345287  1
  O  O29  1  0.81203098  0.50442614  0.64321236  1
  O  O30  1  0.44319583  0.49893239  0.13988512  1
  O  O31  1  0.94189384  0.49644880  0.13880635  1
  O  O32  1  0.31144527  0.12110943  0.14496336  1
  O  O33  1  0.81168887  0.12231514  0.14431253  1
  O  O34  1  0.25165356  0.37752421  0.14150339  1
  O  O35  1  0.75286251  0.37808405  0.14023166  1
  O  O36  1  0.23310358  0.30097669  0.02438009  1
  O  O37  1  0.72291926  0.28739971  0.02311672  1
  O  O38  1  0.41736352  0.53826102  0.02364201  1
  O  O39  1  0.92137188  0.55831593  0.02274920  1
  O  O40  1  0.34957525  0.17082414  0.02616016  1
  O  O41  1  0.85547477  0.16207441  0.02534907  1
  O  O42  1  0.23248787  0.16517469  0.52400803  1
  O  O43  1  0.72546909  0.15943120  0.52446375  1
  O  O44  1  0.34895593  0.52938927  0.52570812  1
  O  O45  1  0.85589618  0.55051429  0.52445211  1
  O  O46  1  0.41730062  0.30234766  0.52381859  1
  O  O47  1  0.92107516  0.28211137  0.52296521  1
  O  O48  1  0.27464783  0.71203250  0.97461797  1
  O  O49  1  0.77602388  0.71146965  0.97598343  1
  O  O50  1  0.07900914  0.44505767  0.97693798  1
  O  O51  1  0.58127067  0.44913038  0.97495889  1
  O  O52  1  0.14153434  0.84107544  0.97664498  1
  O  O53  1  0.64571767  0.84075562  0.97528299  1
  O  O54  1  0.26461564  0.82854296  0.47419504  1
  O  O55  1  0.77402234  0.83754787  0.47494170  1
  O  O56  1  0.14853362  0.46394987  0.47590278  1
  O  O57  1  0.64170020  0.44176132  0.47770242  1
  O  O58  1  0.08377253  0.70057479  0.47647603  1
  O  O59  1  0.57963967  0.71510382  0.47663032  1
  O  O60  1  0.06350927  0.62249407  0.35919977  1
  O  O61  1  0.56198392  0.61859544  0.36014361  1
  O  O62  1  0.25044465  0.88110160  0.35569413  1
  O  O63  1  0.74989316  0.87704517  0.35593995  1
  O  O64  1  0.19595229  0.50194185  0.36038274  1
  O  O65  1  0.69341822  0.50342869  0.36161689  1
  O  O66  1  0.06345577  0.50593790  0.85995630  1
  O  O67  1  0.55774902  0.49447275  0.85689963  1
  O  O68  1  0.19559001  0.88716415  0.86146493  1
  O  O69  1  0.68788923  0.88120874  0.85649352  1
  O  O70  1  0.25010750  0.61891880  0.85596287  1
  O  O71  1  0.75224096  0.62461353  0.85700758  1
  O  O72  1  0.01493035  0.84189460  0.41040988  1
  O  O73  1  0.50987587  0.83724391  0.40773608  1
  O  O74  1  0.40491598  0.97449793  0.41171887  1
  O  O75  1  0.90720399  0.97765296  0.40941048  1
  O  O76  1  0.08161815  0.18473166  0.41031072  1
  O  O77  1  0.58147431  0.17981009  0.40774854  1
  O  O78  1  0.01181046  0.18398453  0.90768808  1
  O  O79  1  0.50837026  0.18096626  0.90979100  1
  O  O80  1  0.08347378  0.98697678  0.90771430  1
  O  O81  1  0.58034108  0.97889539  0.90967709  1
  O  O82  1  0.40762512  0.83676552  0.90883154  1
  O  O83  1  0.90878574  0.83623382  0.91035472  1
  O  O84  1  0.48554993  0.15870107  0.58783121  1
  O  O85  1  0.99389922  0.16724704  0.59281865  1
  O  O86  1  0.09462484  0.02666115  0.59048141  1
  O  O87  1  0.59117374  0.02151773  0.59009428  1
  O  O88  1  0.41820463  0.81071884  0.58911795  1
  O  O89  1  0.91866925  0.81744127  0.58976334  1
  O  O90  1  0.48820353  0.81607849  0.08990042  1
  O  O91  1  0.99186442  0.81967393  0.09282721  1
  O  O92  1  0.41839036  0.02727228  0.08875271  1
  O  O93  1  0.91809580  0.02102700  0.09053719  1
  O  O94  1  0.09362926  0.15989075  0.09004961  1
  O  O95  1  0.59187419  0.15962422  0.09245201  1
  O  O96  1  0.34729683  0.17433837  0.74334521  1
  O  O97  1  0.84437060  0.16849151  0.74887015  1
  O  O98  1  0.23165243  0.30827125  0.74654918  1
  O  O99  1  0.73809711  0.30466489  0.74767309  1
  O  O100  1  0.41171608  0.51846393  0.74489267  1
  O  O101  1  0.91200418  0.53190998  0.74858984  1
  O  O102  1  0.34503284  0.51905795  0.24931311  1
  O  O103  1  0.84522505  0.51950862  0.24937844  1
  O  O104  1  0.40884635  0.29078449  0.24897967  1
  O  O105  1  0.90921531  0.29045301  0.24894184  1
  O  O106  1  0.23121910  0.15383265  0.24888175  1
  O  O107  1  0.73130700  0.15360738  0.24854453  1
  O  O108  1  0.32280864  0.49624481  0.92236488  1
  O  O109  1  0.82310960  0.49658465  0.91997607  1
  O  O110  1  0.42400652  0.35278564  0.92329400  1
  O  O111  1  0.92557755  0.35236904  0.92049835  1
  O  O112  1  0.25218596  0.15485018  0.92459488  1
  O  O113  1  0.75211147  0.14922373  0.92035717  1
  O  O114  1  0.32210200  0.14759164  0.42386691  1
  O  O115  1  0.82300283  0.14830079  0.41936224  1
  O  O116  1  0.25102779  0.35002433  0.42575629  1
  O  O117  1  0.75151907  0.35077035  0.42189973  1
  O  O118  1  0.42410167  0.49725515  0.42298377  1
  O  O119  1  0.92729451  0.49997008  0.42154502  1
  O  O120  1  0.17766877  0.50211193  0.07870700  1
  O  O121  1  0.67625364  0.50110453  0.07974788  1
  O  O122  1  0.07642332  0.64950873  0.07899248  1
  O  O123  1  0.57512907  0.64958570  0.07765247  1
  O  O124  1  0.24905748  0.85380332  0.07875927  1
  O  O125  1  0.74832243  0.85134040  0.08042975  1
  O  O126  1  0.18031302  0.85472738  0.57818157  1
  O  O127  1  0.67741989  0.85120535  0.58000251  1
  O  O128  1  0.24742457  0.63998587  0.57801571  1
  O  O129  1  0.74798154  0.64551719  0.57959279  1
  O  O130  1  0.07634863  0.50557909  0.57630871  1
  O  O131  1  0.57173876  0.50361399  0.58074095  1
  O  O132  1  0.15372750  0.84564135  0.25166880  1
  O  O133  1  0.65399738  0.84545799  0.25147853  1
  O  O134  1  0.26345292  0.70935450  0.25130569  1
  O  O135  1  0.76357790  0.70914290  0.25159434  1
  O  O136  1  0.08567041  0.48137056  0.25143870  1
  O  O137  1  0.58528499  0.48049359  0.25078905  1
  O  O138  1  0.15469729  0.46238435  0.75123281  1
  O  O139  1  0.65070390  0.47546898  0.75198338  1
  O  O140  1  0.08757962  0.69278596  0.75104067  1
  O  O141  1  0.58483686  0.69384795  0.75144213  1
  O  O142  1  0.26267042  0.81742661  0.75177918  1
  O  O143  1  0.76293656  0.82612456  0.75133919  1
loop_
_geom_bond_atom_site_label_1
_geom_bond_atom_site_label_2
_geom_bond_distance
_geom_bond_site_symmetry_2
Na0 O134 2.298307 1_545
Na0 O104 2.298401 1_555
Na0 O106 2.561926 1_555
Na0 O132 2.570493 1_545
Na0 O32 2.603844 1_555
Na0 O62 2.618648 1_545
Na1 O135 2.298847 1_555
Na1 O105 2.299787 1_565
Na1 O107 2.556612 1_565
Na1 O133 2.561707 1_555
Na1 O33 2.619827 1_565
Na1 O63 2.631648 1_555
Na2 O142 2.344922 1_555
Na2 O100 2.376145 1_555
Na2 O98 2.533936 1_555
Na2 O138 2.556632 1_555
Na2 O70 2.638347 1_555
Na2 O28 2.644810 1_555
Na2 O8 2.898483 1_555
Na2 O12 2.974257 1_555
Na3 O101 2.327545 1_555
Na3 O143 2.380833 1_555
Na3 O99 2.555222 1_555
Na3 O139 2.575619 1_555
Na3 O29 2.614288 1_555
Na3 O71 2.628659 1_555
Na4 O96 2.391861 1_555
Na4 O139 2.418435 1_555
Na4 O100 2.548254 1_555
Na4 O141 2.566441 1_555
Na4 O67 2.609081 1_555
Na4 O24 2.680773 1_555
Na4 O10 2.924468 1_555
Na4 O15 2.984545 1_555
Na5 O99 2.410235 1_555
Na5 O141 2.439835 1_545
Na5 O97 2.498742 1_555
Na5 O143 2.595025 1_545
Na5 O27 2.620847 1_555
Na5 O69 2.622337 1_545
Na6 O128 2.421302 1_555
Na6 O86 2.447298 1_555
Na6 O85 2.456398 1_455
Na6 O130 2.497976 1_555
Na6 O56 2.649432 1_555
Na6 O14 2.731133 1_555
Na6 O42 2.919607 1_555
Na6 O28 2.934693 1_555
Na7 O87 2.431607 1_555
Na7 O129 2.516438 1_555
Na7 O84 2.527382 1_555
Na7 O131 2.554661 1_555
Na7 O57 2.611157 1_555
Na7 O15 2.628653 1_555
Na7 O43 2.877686 1_555
Na7 O29 2.887141 1_555
Na8 O130 2.432377 1_555
Na8 O126 2.522635 1_555
Na8 O89 2.535995 1_455
Na8 O86 2.576807 1_565
Na8 O58 2.642860 1_555
Na8 O16 2.669088 1_555
Na8 O25 2.733156 1_455
Na8 O45 2.870969 1_455
Na9 O88 2.407689 1_555
Na9 O131 2.468313 1_555
Na9 O87 2.489470 1_565
Na9 O127 2.522798 1_555
Na9 O59 2.615002 1_555
Na9 O17 2.658831 1_555
Na9 O44 2.913511 1_555
Na9 O24 2.954347 1_555
Na10 O126 2.422888 1_555
Na10 O84 2.430851 1_565
Na10 O128 2.500354 1_555
Na10 O88 2.504387 1_555
Na10 O12 2.652711 1_555
Na10 O54 2.704178 1_555
Na10 O26 2.940750 1_565
Na10 O46 2.997606 1_565
Na11 O127 2.468206 1_555
Na11 O85 2.531348 1_565
Na11 O89 2.538048 1_555
Na11 O129 2.554374 1_555
Na11 O55 2.676858 1_555
Na11 O13 2.697719 1_555
Na11 O47 2.789231 1_565
Na11 O27 2.834118 1_565
Na12 O94 2.415843 1_565
Na12 O91 2.473710 1_455
Na12 O124 2.476433 1_555
Na12 O122 2.485907 1_555
Na12 O52 2.592498 1_554
Na12 O22 2.713452 1_555
Na12 O32 2.882321 1_565
Na12 O36 2.924678 1_565
Na13 O95 2.425645 1_565
Na13 O123 2.477351 1_555
Na13 O90 2.495889 1_555
Na13 O125 2.503645 1_555
Na13 O53 2.638954 1_554
Na13 O23 2.691606 1_555
Na13 O37 2.853879 1_565
Na13 O33 2.903890 1_565
Na14 O120 2.445100 1_555
Na14 O90 2.466466 1_555
Na14 O124 2.530827 1_555
Na14 O92 2.589228 1_565
Na14 O48 2.656833 1_554
Na14 O18 2.694670 1_555
Na14 O34 2.814979 1_555
Na14 O38 2.894380 1_555
Na15 O121 2.478525 1_555
Na15 O91 2.510604 1_555
Na15 O125 2.540170 1_555
Na15 O93 2.544622 1_565
Na15 O49 2.645118 1_554
Na15 O19 2.691485 1_555
Na15 O35 2.785484 1_555
Na15 O39 2.820759 1_555
Na16 O122 2.470564 1_555
Na16 O120 2.500621 1_555
Na16 O93 2.508025 1_455
Na16 O94 2.578443 1_555
Na16 O50 2.592670 1_554
Na16 O20 2.663324 1_555
Na16 O31 2.724922 1_455
Na16 O41 2.851728 1_455
Na17 O92 2.463077 1_555
Na17 O123 2.466100 1_555
Na17 O121 2.497507 1_555
Na17 O95 2.583362 1_555
Na17 O51 2.653614 1_554
Na17 O21 2.677052 1_555
Na17 O30 2.711823 1_555
Na17 O40 2.905986 1_555
Na18 O81 2.481302 1_555
Na18 O108 2.484214 1_555
Na18 O110 2.485513 1_555
Na18 O82 2.495689 1_555
Na18 O38 2.650001 1_556
Na18 O8 2.678639 1_555
Na18 O67 2.862136 1_555
Na18 O53 2.883919 1_555
Na19 O111 2.481876 1_555
Na19 O80 2.534248 1_655
Na19 O83 2.540151 1_555
Na19 O109 2.549886 1_555
Na19 O39 2.602080 1_556
Na19 O9 2.709669 1_555
Na19 O66 2.767384 1_655
Na19 O52 2.778304 1_655
Na20 O82 2.484519 1_545
Na20 O79 2.489117 1_555
Na20 O112 2.497781 1_555
Na20 O110 2.499418 1_555
Na20 O10 2.668230 1_555
Na20 O68 2.695647 1_545
Na20 O40 2.735400 1_556
Na20 O48 2.839616 1_545
Na21 O113 2.447286 1_555
Na21 O111 2.482550 1_555
Na21 O83 2.511772 1_545
Na21 O78 2.543875 1_655
Na21 O11 2.652615 1_555
Na21 O41 2.667856 1_556
Na21 O69 2.850392 1_545
Na21 O49 2.872040 1_545
Na22 O108 2.458952 1_555
Na22 O78 2.467131 1_555
Na22 O80 2.468265 1_545
Na22 O112 2.476734 1_555
Na22 O36 2.648522 1_556
Na22 O6 2.721855 1_555
Na22 O50 2.837648 1_555
Na22 O70 2.843161 1_555
Na23 O79 2.464941 1_555
Na23 O81 2.472746 1_545
Na23 O113 2.521036 1_555
Na23 O109 2.521479 1_555
Na23 O37 2.626071 1_556
Na23 O7 2.643249 1_555
Na23 O51 2.829595 1_555
Na23 O71 2.897910 1_555
Na24 O118 2.458291 1_555
Na24 O114 2.503242 1_555
Na24 O77 2.548888 1_555
Na24 O74 2.568898 1_545
Na24 O46 2.644237 1_555
Na24 O4 2.711580 1_555
Na24 O61 2.780707 1_555
Na24 O57 2.843486 1_555
Na25 O119 2.459251 1_555
Na25 O76 2.475869 1_655
Na25 O115 2.535344 1_555
Na25 O75 2.565105 1_545
Na25 O47 2.598809 1_555
Na25 O5 2.704253 1_555
Na25 O60 2.793190 1_655
Na25 O56 2.876153 1_655
Na26 O72 2.426854 1_545
Na26 O114 2.449877 1_555
Na26 O116 2.450896 1_555
Na26 O76 2.505190 1_555
Na26 O42 2.629087 1_555
Na26 O0 2.720379 1_555
Na26 O62 2.869551 1_545
Na26 O58 2.947553 1_545
Na27 O73 2.448704 1_545
Na27 O77 2.462653 1_555
Na27 O117 2.502420 1_555
Na27 O115 2.512338 1_555
Na27 O43 2.641000 1_555
Na27 O1 2.693574 1_555
Na27 O59 2.815058 1_545
Na27 O63 2.887060 1_545
Na28 O116 2.451948 1_555
Na28 O118 2.467932 1_555
Na28 O74 2.500608 1_555
Na28 O73 2.550785 1_555
Na28 O64 2.679859 1_555
Na28 O44 2.693091 1_555
Na28 O2 2.694658 1_555
Na28 O54 2.915295 1_555
Na29 O117 2.468355 1_555
Na29 O75 2.498434 1_555
Na29 O119 2.498938 1_555
Na29 O72 2.600152 1_655
Na29 O45 2.644433 1_555
Na29 O3 2.654540 1_555
Na29 O65 2.711849 1_555
Na29 O55 2.864532 1_555
Na30 O76 2.530399 1_555
Na30 O72 2.543061 1_545
Na30 O89 2.553816 1_445
Na30 O86 2.554896 1_555
Na30 O75 2.570588 1_445
Na30 O85 2.584012 1_455
Na31 O87 2.481268 1_555
Na31 O84 2.491427 1_555
Na31 O88 2.529536 1_545
Na31 O74 2.589395 1_545
Na31 O77 2.597750 1_555
Na31 O73 2.598258 1_545
Na32 O94 2.522640 1_555
Na32 O83 2.554921 1_444
Na32 O80 2.564096 1_544
Na32 O93 2.578621 1_455
Na32 O78 2.583414 1_554
Na32 O91 2.585350 1_445
Na33 O81 2.491756 1_555
Na33 O79 2.514685 1_565
Na33 O82 2.536453 1_555
Na33 O90 2.568943 1_556
Na33 O92 2.593608 1_566
Na33 O95 2.604837 1_566
Na34 O112 2.507712 1_555
Na34 O96 2.507946 1_555
Na34 O110 2.537793 1_555
Na34 O100 2.558239 1_555
Na34 O108 2.566244 1_555
Na34 O98 2.583764 1_555
Na35 O97 2.412174 1_555
Na35 O101 2.453431 1_555
Na35 O111 2.463252 1_555
Na35 O99 2.529052 1_555
Na35 O109 2.537833 1_555
Na35 O113 2.548439 1_555
Na36 O102 2.385563 1_555
Na36 O118 2.465954 1_555
Na36 O104 2.485719 1_555
Na36 O116 2.571580 1_555
Na36 O114 2.626422 1_555
Na36 O106 2.628202 1_555
Na37 O103 2.363942 1_555
Na37 O105 2.474381 1_555
Na37 O119 2.488923 1_555
Na37 O117 2.519307 1_555
Na37 O115 2.571993 1_555
Na37 O107 2.614345 1_555
Na38 O136 2.373970 1_555
Na38 O134 2.462696 1_555
Na38 O120 2.478525 1_555
Na38 O122 2.504325 1_555
Na38 O124 2.614423 1_555
Na38 O132 2.621263 1_555
Na39 O137 2.362930 1_555
Na39 O121 2.460547 1_555
Na39 O135 2.476453 1_555
Na39 O123 2.535540 1_555
Na39 O125 2.578434 1_555
Na39 O133 2.610513 1_555
Na40 O140 2.377690 1_555
Na40 O126 2.476055 1_555
Na40 O142 2.486665 1_555
Na40 O130 2.518416 1_555
Na40 O128 2.596510 1_555
Na40 O138 2.629501 1_555
Na41 O143 2.471828 1_555
Na41 O127 2.479803 1_555
Na41 O129 2.486935 1_555
Na41 O141 2.487479 1_555
Na41 O131 2.491289 1_555
Na41 O139 2.495095 1_555
O0 S0 1.472877 1_555
O0 Ti0 2.192540 1_445
O1 S1 1.468372 1_545
O1 Ti1 2.238511 1_545
O2 Si0 1.651896 1_555
O2 Ti1 1.866033 1_555
O3 Si1 1.658325 1_555
O3 Ti0 1.867817 1_555
O4 Si3 1.655457 1_555
O4 Ti1 1.895152 1_545
O5 Si2 1.659196 1_655
O5 Ti0 1.885788 1_545
O6 S2 1.474487 1_555
O6 Ti2 2.206949 1_445
O7 Si4 1.638003 1_555
O7 Ti3 1.922330 1_545
O8 Si6 1.638469 1_555
O8 Ti3 1.927032 1_555
O9 Si5 1.654475 1_655
O9 Ti2 1.880799 1_555
O10 Si7 1.647757 1_545
O10 Ti3 1.921465 1_545
O11 Si8 1.640850 1_555
O11 Ti2 1.878276 1_545
O12 Si7 1.653640 1_555
O12 Ti5 1.900198 1_555
O13 Si8 1.647770 1_565
O13 Ti4 1.892794 1_555
O14 S2 1.478592 1_555
O14 Ti4 2.169811 1_445
O15 Si4 1.644093 1_555
O15 Ti5 1.913720 1_545
O16 Si5 1.657730 1_555
O16 Ti4 1.866963 1_455
O17 Si6 1.645115 1_555
O17 Ti5 1.899510 1_555
O18 Si0 1.658883 1_555
O18 Ti7 1.893798 1_565
O19 Si1 1.655302 1_555
O19 Ti6 1.895490 1_565
O20 Si2 1.655013 1_555
O20 Ti6 1.872849 1_455
O21 Si3 1.654811 1_555
O21 Ti7 1.867415 1_555
O22 S0 1.474108 1_565
O22 Ti6 2.190463 1_465
O23 S1 1.471245 1_555
O23 Ti7 2.227849 1_565
O24 Si9 1.657996 1_555
O24 Ti8 1.851218 1_555
O25 Si10 1.620870 1_555
O25 Sn0 2.012350 1_555
O26 Si11 1.647456 1_555
O26 Ti8 1.852443 1_555
O27 Si12 1.632461 1_555
O27 Sn0 2.052452 1_555
O28 Si13 1.648704 1_555
O28 Ti8 1.943918 1_555
O29 Si14 1.620980 1_555
O29 Sn0 2.055627 1_555
O30 Si15 1.622888 1_555
O30 Sn1 1.988399 1_555
O31 Si16 1.619153 1_555
O31 Sn2 1.988047 1_555
O32 Si17 1.631672 1_555
O32 Sn1 2.060507 1_555
O33 Si18 1.627224 1_555
O33 Sn2 2.059685 1_555
O34 Si19 1.621855 1_555
O34 Sn1 2.007311 1_555
O35 Si20 1.621174 1_555
O35 Sn2 2.008408 1_555
O36 Si19 1.647658 1_555
O36 Ti9 1.924768 1_554
O37 Si20 1.644935 1_555
O37 Sn3 2.040729 1_554
O38 Si15 1.646267 1_555
O38 Ti9 1.935324 1_554
O39 Si16 1.646747 1_555
O39 Sn3 2.050516 1_554
O40 Si17 1.633928 1_555
O40 Ti9 1.942982 1_554
O41 Si18 1.632883 1_555
O41 Sn3 2.038329 1_554
O42 Si11 1.641097 1_555
O42 Ti10 1.929566 1_555
O43 Si12 1.638542 1_555
O43 Sn4 2.032757 1_555
O44 Si13 1.648544 1_555
O44 Ti10 1.908292 1_555
O45 Si14 1.631602 1_555
O45 Sn4 2.042643 1_555
O46 Si9 1.631859 1_555
O46 Ti10 1.929440 1_555
O47 Si10 1.650058 1_555
O47 Sn4 2.044415 1_555
O48 Si21 1.642721 1_555
O48 Sn5 2.025325 1_556
O49 Si22 1.629793 1_555
O49 Sn6 2.037261 1_556
O50 Si23 1.642018 1_555
O50 Sn5 2.039001 1_556
O51 Si24 1.640136 1_555
O51 Sn6 2.030955 1_556
O52 Si25 1.644021 1_555
O52 Sn5 2.051940 1_556
O53 Si26 1.635229 1_555
O53 Sn6 2.032935 1_556
O54 Si27 1.643160 1_555
O54 Ti11 1.929583 1_555
O55 Si28 1.633575 1_555
O55 Sn7 2.045206 1_555
O56 Si29 1.651807 1_555
O56 Ti11 1.920821 1_555
O57 Si30 1.649504 1_555
O57 Sn7 2.048849 1_555
O58 Si31 1.652910 1_555
O58 Ti11 1.923231 1_555
O59 Si32 1.650146 1_555
O59 Sn7 2.034120 1_555
O60 Si31 1.622403 1_555
O60 Sn8 2.010259 1_555
O61 Si32 1.624775 1_555
O61 Sn9 2.016269 1_555
O62 Si27 1.635122 1_555
O62 Sn8 2.062860 1_555
O63 Si28 1.627926 1_555
O63 Sn9 2.058887 1_555
O64 Si29 1.625237 1_555
O64 Sn8 1.995020 1_555
O65 Si30 1.621194 1_555
O65 Sn9 1.989677 1_555
O66 Si23 1.621634 1_555
O66 Sn10 2.010526 1_555
O67 Si24 1.642632 1_555
O67 Sn11 2.036332 1_555
O68 Si25 1.622733 1_555
O68 Sn10 1.997192 1_555
O69 Si26 1.640511 1_555
O69 Sn11 2.023058 1_555
O70 Si21 1.640933 1_555
O70 Sn10 2.058514 1_555
O71 Si22 1.627566 1_555
O71 Sn11 2.031506 1_555
O72 Si31 1.647243 1_555
O72 Ti0 2.051114 1_455
O73 Si32 1.646035 1_555
O73 Ti1 2.002314 1_555
O74 Si27 1.662214 1_555
O74 Ti1 1.922050 1_555
O75 Si28 1.659862 1_555
O75 Ti0 1.906253 1_555
O76 Si29 1.641942 1_555
O76 Ti0 2.059355 1_445
O77 Si30 1.639209 1_555
O77 Ti1 2.022631 1_545
O78 Si23 1.642850 1_555
O78 Ti2 2.001085 1_445
O79 Si24 1.637738 1_555
O79 Ti3 2.023167 1_545
O80 Si25 1.642665 1_555
O80 Ti2 2.005415 1_455
O81 Si26 1.633160 1_555
O81 Ti3 2.045806 1_555
O82 Si21 1.637945 1_555
O82 Ti3 2.012623 1_555
O83 Si22 1.653429 1_555
O83 Ti2 1.916918 1_555
O84 Si9 1.629875 1_555
O84 Ti5 2.078477 1_545
O85 Si10 1.642599 1_555
O85 Ti4 2.024586 1_545
O86 Si11 1.643078 1_555
O86 Ti4 2.038055 1_445
O87 Si12 1.638444 1_555
O87 Ti5 2.040384 1_545
O88 Si13 1.639701 1_555
O88 Ti5 2.052656 1_555
O89 Si14 1.661184 1_555
O89 Ti4 1.916131 1_555
O90 Si15 1.642886 1_555
O90 Ti7 2.055493 1_565
O91 Si16 1.639787 1_555
O91 Ti6 2.014467 1_565
O92 Si17 1.661748 1_555
O92 Ti7 1.915153 1_555
O93 Si18 1.659872 1_555
O93 Ti6 1.907287 1_555
O94 Si19 1.647486 1_555
O94 Ti6 2.047099 1_455
O95 Si20 1.644114 1_555
O95 Ti7 2.002144 1_555
O96 Si7 1.641504 1_545
O96 Ti8 2.010004 1_555
O97 Si8 1.622969 1_555
O97 Sn0 2.076354 1_555
O98 S2 1.489904 1_555
O98 Ti8 2.292260 1_555
O99 Si4 1.634560 1_555
O99 Sn0 2.128165 1_555
O100 Si6 1.641364 1_555
O100 Ti8 2.084509 1_555
O101 Si5 1.639798 1_655
O101 Sn0 2.081378 1_555
O102 Si0 1.623518 1_555
O102 Sn1 2.044163 1_555
O103 Si1 1.625203 1_555
O103 Sn2 2.044150 1_555
O104 Si3 1.651780 1_555
O104 Sn1 2.089134 1_555
O105 Si2 1.654832 1_655
O105 Sn2 2.091244 1_555
O106 S0 1.498607 1_555
O106 Sn1 2.307634 1_555
O107 S1 1.504695 1_545
O107 Sn2 2.297002 1_555
O108 Si21 1.639018 1_555
O108 Ti9 2.023914 1_555
O109 Si22 1.626811 1_555
O109 Sn3 2.080973 1_555
O110 Si24 1.635196 1_555
O110 Ti9 2.034237 1_555
O111 Si23 1.640398 1_655
O111 Sn3 2.093856 1_555
O112 Si25 1.634082 1_545
O112 Ti9 1.999243 1_555
O113 Si26 1.639763 1_545
O113 Sn3 2.087800 1_555
O114 Si27 1.628596 1_545
O114 Ti10 2.045874 1_555
O115 Si28 1.631759 1_545
O115 Sn4 2.091436 1_555
O116 Si29 1.634774 1_555
O116 Ti10 1.987045 1_555
O117 Si30 1.640233 1_555
O117 Sn4 2.073482 1_555
O118 Si32 1.639038 1_555
O118 Ti10 2.045512 1_555
O119 Si31 1.643981 1_655
O119 Sn4 2.093557 1_555
O120 Si19 1.641735 1_555
O120 Sn5 2.100256 1_555
O121 Si20 1.642319 1_555
O121 Sn6 2.094726 1_555
O122 Si16 1.635399 1_455
O122 Sn5 2.068383 1_555
O123 Si15 1.638124 1_555
O123 Sn6 2.060721 1_555
O124 Si17 1.632365 1_565
O124 Sn5 2.093986 1_555
O125 Si18 1.632736 1_565
O125 Sn6 2.095043 1_555
O126 Si11 1.635491 1_565
O126 Ti11 2.080719 1_555
O127 Si12 1.643588 1_565
O127 Sn7 2.091626 1_555
O128 Si13 1.639217 1_555
O128 Ti11 2.058636 1_555
O129 Si14 1.636784 1_555
O129 Sn7 2.093038 1_555
O130 Si10 1.639648 1_455
O130 Ti11 1.997964 1_555
O131 Si9 1.637898 1_555
O131 Sn7 2.104509 1_555
O132 S0 1.497941 1_565
O132 Sn8 2.312881 1_555
O133 S1 1.504099 1_555
O133 Sn9 2.296310 1_555
O134 Si0 1.654189 1_555
O134 Sn8 2.088636 1_555
O135 Si1 1.653412 1_555
O135 Sn9 2.098860 1_555
O136 Si2 1.622200 1_555
O136 Sn8 2.046056 1_555
O137 Si3 1.627096 1_555
O137 Sn9 2.039086 1_555
O138 S2 1.500045 1_555
O138 Sn10 2.307010 1_555
O139 Si4 1.645694 1_555
O139 Sn11 2.095521 1_555
O140 Si5 1.623330 1_555
O140 Sn10 2.043565 1_555
O141 Si6 1.647051 1_555
O141 Sn11 2.101111 1_555
O142 Si7 1.641758 1_555
O142 Sn10 2.078968 1_555
O143 Si8 1.656617 1_565
O143 Sn11 2.124174 1_555
