# generated using pymatgen
data_Be(BH4)2
_symmetry_space_group_name_H-M   'P 1'
_cell_length_a   10.65941755
_cell_length_b   10.65941914
_cell_length_c   10.65966793
_cell_angle_alpha   100.18370113
_cell_angle_beta   100.18369554
_cell_angle_gamma   130.26931991
_symmetry_Int_Tables_number   1
_chemical_formula_structural   Be(BH4)2
_chemical_formula_sum   'Be8 B16 H64'
_cell_volume   838.48669178
_cell_formula_units_Z   8
loop_
 _symmetry_equiv_pos_site_id
 _symmetry_equiv_pos_as_xyz
  1  'x, y, z'
loop_
 _atom_site_type_symbol
 _atom_site_label
 _atom_site_symmetry_multiplicity
 _atom_site_fract_x
 _atom_site_fract_y
 _atom_site_fract_z
 _atom_site_occupancy
  Be  Be0  1  0.41199590  0.80033890  0.21033208  1
  Be  Be1  1  0.58997573  0.20166090  0.78966394  1
  Be  Be2  1  0.45164275  0.16196888  0.11167417  1
  Be  Be3  1  0.05026398  0.33991415  0.88828657  1
  Be  Be4  1  0.08991344  0.30026375  0.38828637  1
  Be  Be5  1  0.95166072  0.83997568  0.28966392  1
  Be  Be6  1  0.55033943  0.66199617  0.71033234  1
  Be  Be7  1  0.91196845  0.70164319  0.61167440  1
  B  B0  1  0.42761851  0.98109568  0.16541658  1
  B  B1  1  0.81567223  0.26219898  0.83458370  1
  B  B2  1  0.51220209  0.17761570  0.94652344  1
  B  B3  1  0.23109171  0.56567805  0.05347138  1
  B  B4  1  0.31567780  0.48109154  0.55347141  1
  B  B5  1  0.01219879  0.06567196  0.33458378  1
  B  B6  1  0.73109547  0.67761845  0.66541659  1
  B  B7  1  0.92761574  0.76220209  0.44652337  1
  B  B8  1  0.55487727  0.84410956  0.38138362  1
  B  B9  1  0.46273019  0.17349377  0.61862082  1
  B  B10  1  0.42348808  0.30486953  0.21076191  1
  B  B11  1  0.09410067  0.21272502  0.78922887  1
  B  B12  1  0.96272482  0.34410050  0.28922865  1
  B  B13  1  0.92349417  0.71273051  0.11862117  1
  B  B14  1  0.59410965  0.80487751  0.88138383  1
  B  B15  1  0.05486958  0.67348789  0.71076192  1
  H  H0  1  0.55327672  0.14100202  0.23191896  1
  H  H1  1  0.90907952  0.32135950  0.76807993  1
  H  H2  1  0.57136025  0.30328473  0.91227991  1
  H  H3  1  0.39100645  0.65908673  0.08772563  1
  H  H4  1  0.40908662  0.64100640  0.58772567  1
  H  H5  1  0.07135989  0.15907975  0.26808016  1
  H  H6  1  0.89100222  0.80327670  0.73191904  1
  H  H7  1  0.05328486  0.82136030  0.41227998  1
  H  H8  1  0.31103851  0.93952018  0.06814600  1
  H  H9  1  0.87137707  0.24289465  0.93185368  1
  H  H10  1  0.49289362  0.06103879  0.87151966  1
  H  H11  1  0.18953384  0.62138527  0.12848623  1
  H  H12  1  0.37138512  0.43953385  0.62848624  1
  H  H13  1  0.99289461  0.12137702  0.43185372  1
  H  H14  1  0.68952031  0.56103857  0.56814611  1
  H  H15  1  0.81103882  0.74289354  0.37151947  1
  H  H16  1  0.48754389  0.92713518  0.11749585  1
  H  H17  1  0.80964166  0.37004844  0.88250776  1
  H  H18  1  0.62004617  0.23753890  0.06040358  1
  H  H19  1  0.17714282  0.55966240  0.93960062  1
  H  H20  1  0.30966263  0.42714294  0.43960068  1
  H  H21  1  0.35987593  0.91814408  0.24517491  1
  H  H22  1  0.12004840  0.05964147  0.38250786  1
  H  H23  1  0.98753879  0.87004610  0.56040346  1
  H  H24  1  0.13980499  0.65514698  0.66603718  1
  H  H25  1  0.72376041  0.88980667  0.98466079  1
  H  H26  1  0.90514452  0.73911370  0.01535268  1
  H  H27  1  0.98911376  0.47375568  0.33396070  1
  H  H28  1  0.22375613  0.23911403  0.83396100  1
  H  H29  1  0.40514692  0.38980473  0.16603706  1
  H  H30  1  0.48911364  0.15514362  0.51535285  1
  H  H31  1  0.63980650  0.97376024  0.48466082  1
  H  H32  1  0.05985933  0.67544469  0.82438506  1
  H  H33  1  0.48547179  0.80986345  0.88442025  1
  H  H34  1  0.92544307  0.60106046  0.11559287  1
  H  H35  1  0.85106522  0.23546331  0.17561318  1
  H  H36  1  0.98546368  0.10106533  0.67561320  1
  H  H37  1  0.42544440  0.30985919  0.32438500  1
  H  H38  1  0.35106042  0.17544263  0.61559249  1
  H  H39  1  0.55986327  0.73547168  0.38441998  1
  H  H40  1  0.10688974  0.81759396  0.70985816  1
  H  H41  1  0.64703822  0.85689831  0.78929752  1
  H  H42  1  0.06760556  0.85774426  0.21070687  1
  H  H43  1  0.10773743  0.39702784  0.29013425  1
  H  H44  1  0.14702788  0.35773747  0.79013442  1
  H  H45  1  0.56759407  0.35688942  0.20985840  1
  H  H46  1  0.60774420  0.31760524  0.71070672  1
  H  H47  1  0.60689834  0.89703829  0.28929755  1
  H  H48  1  0.89485245  0.55017973  0.62774840  1
  H  H49  1  0.51711055  0.64486443  0.84468099  1
  H  H50  1  0.80019109  0.67244396  0.15533868  1
  H  H51  1  0.92243643  0.26709261  0.37224829  1
  H  H52  1  0.01709265  0.17243621  0.87224823  1
  H  H53  1  0.30017996  0.14485249  0.12774848  1
  H  H54  1  0.42244394  0.05019091  0.65533889  1
  H  H55  1  0.39486418  0.76711044  0.34468060  1
  H  H56  1  0.85987114  0.61469677  0.44173284  1
  H  H57  1  0.66814407  0.60987594  0.74517493  1
  H  H58  1  0.86469703  0.92296951  0.25482539  1
  H  H59  1  0.17296434  0.41813733  0.55826929  1
  H  H60  1  0.16813756  0.42296459  0.05826937  1
  H  H61  1  0.36469689  0.10987117  0.94173299  1
  H  H62  1  0.67296919  0.11469710  0.75482570  1
  H  H63  1  0.67713516  0.73754375  0.61749599  1
loop_
_geom_bond_atom_site_label_1
_geom_bond_atom_site_label_2
_geom_bond_distance
_geom_bond_site_symmetry_2
Be0 H47 1.547136 1_555
Be0 H55 1.548538 1_555
Be0 H3 1.670466 1_555
Be0 H16 1.673997 1_555
Be0 H21 1.683273 1_555
Be0 H11 1.689765 1_555
Be1 H46 1.547027 1_555
Be1 H54 1.548239 1_555
Be1 H2 1.670361 1_555
Be1 H17 1.674227 1_555
Be1 H62 1.683577 1_555
Be1 H10 1.689847 1_555
Be2 H45 1.547190 1_555
Be2 H53 1.548337 1_555
Be2 H0 1.670278 1_555
Be2 H18 1.674262 1_555
Be2 H61 1.683500 1_554
Be2 H8 1.689627 1_545
Be3 H44 1.547004 1_555
Be3 H52 1.547877 1_555
Be3 H1 1.670199 1_455
Be3 H19 1.674819 1_555
Be3 H60 1.683861 1_556
Be3 H9 1.689629 1_455
Be4 H43 1.547004 1_555
Be4 H51 1.547869 1_455
Be4 H5 1.670200 1_555
Be4 H20 1.674826 1_555
Be4 H59 1.683861 1_555
Be4 H13 1.689630 1_455
Be5 H42 1.547029 1_655
Be5 H50 1.548239 1_555
Be5 H7 1.670362 1_655
Be5 H22 1.674227 1_665
Be5 H58 1.683580 1_555
Be5 H15 1.689844 1_555
Be6 H41 1.547134 1_555
Be6 H49 1.548541 1_555
Be6 H4 1.670470 1_555
Be6 H63 1.673994 1_555
Be6 H57 1.683270 1_555
Be6 H12 1.689768 1_555
Be7 H40 1.547195 1_655
Be7 H48 1.548345 1_555
Be7 H6 1.670270 1_555
Be7 H23 1.674259 1_555
Be7 H56 1.683505 1_555
Be7 H14 1.689622 1_555
B0 H8 1.218888 1_555
B0 H16 1.219125 1_555
B0 H21 1.219409 1_555
B0 H0 1.219614 1_565
B1 H9 1.218894 1_555
B1 H17 1.219094 1_555
B1 H62 1.219392 1_555
B1 H1 1.219650 1_555
B2 H10 1.218856 1_555
B2 H18 1.219101 1_556
B2 H61 1.219433 1_555
B2 H2 1.219668 1_555
B3 H11 1.218878 1_555
B3 H19 1.219081 1_554
B3 H60 1.219450 1_555
B3 H3 1.219667 1_555
B4 H12 1.218877 1_555
B4 H20 1.219082 1_555
B4 H59 1.219449 1_555
B4 H4 1.219668 1_555
B5 H13 1.218894 1_455
B5 H22 1.219095 1_555
B5 H58 1.219391 1_445
B5 H5 1.219653 1_555
B6 H14 1.218888 1_555
B6 H63 1.219122 1_555
B6 H57 1.219408 1_555
B6 H6 1.219617 1_555
B7 H15 1.218856 1_555
B7 H23 1.219101 1_555
B7 H56 1.219434 1_555
B7 H7 1.219668 1_655
B8 H31 1.197351 1_555
B8 H39 1.198785 1_555
B8 H47 1.254278 1_555
B8 H55 1.255647 1_555
B9 H30 1.197315 1_555
B9 H38 1.198744 1_555
B9 H46 1.254290 1_555
B9 H54 1.255698 1_555
B10 H29 1.197366 1_555
B10 H37 1.198786 1_555
B10 H45 1.254240 1_555
B10 H53 1.255681 1_555
B11 H28 1.197299 1_555
B11 H36 1.198726 1_455
B11 H44 1.254249 1_555
B11 H52 1.255758 1_555
B12 H27 1.197297 1_555
B12 H35 1.198724 1_555
B12 H43 1.254250 1_655
B12 H51 1.255760 1_555
B13 H26 1.197318 1_555
B13 H34 1.198747 1_555
B13 H42 1.254288 1_655
B13 H50 1.255695 1_555
B14 H25 1.197350 1_555
B14 H33 1.198784 1_555
B14 H41 1.254279 1_555
B14 H49 1.255647 1_555
B15 H24 1.197366 1_555
B15 H32 1.198785 1_555
B15 H40 1.254241 1_555
B15 H48 1.255681 1_455
