# generated using pymatgen
data_KMnPH2O5
_symmetry_space_group_name_H-M   'P 1'
_cell_length_a   7.57882163
_cell_length_b   7.57552010
_cell_length_c   9.82198348
_cell_angle_alpha   70.94888752
_cell_angle_beta   70.91164623
_cell_angle_gamma   98.87216428
_symmetry_Int_Tables_number   1
_chemical_formula_structural   KMnPH2O5
_chemical_formula_sum   'K4 Mn4 P4 H8 O20'
_cell_volume   481.74151730
_cell_formula_units_Z   4
loop_
 _symmetry_equiv_pos_site_id
 _symmetry_equiv_pos_as_xyz
  1  'x, y, z'
loop_
 _atom_site_type_symbol
 _atom_site_label
 _atom_site_symmetry_multiplicity
 _atom_site_fract_x
 _atom_site_fract_y
 _atom_site_fract_z
 _atom_site_occupancy
  K  K0  1  0.20525600  0.70529200  0.46462000  1
  K  K1  1  0.70525800  0.20530900  0.46461500  1
  K  K2  1  0.16986300  0.16990300  0.53570000  1
  K  K3  1  0.66986200  0.66990300  0.53571300  1
  Mn  Mn0  1  0.48174500  0.98145000  0.01906900  1
  Mn  Mn1  1  0.00108300  0.00099300  0.98072100  1
  Mn  Mn2  1  0.98165700  0.48142300  0.01907300  1
  Mn  Mn3  1  0.50101800  0.50099200  0.98064300  1
  P  P0  1  0.31649800  0.81652400  0.78273700  1
  P  P1  1  0.81647700  0.31652800  0.78272600  1
  P  P2  1  0.09933500  0.09930800  0.21720000  1
  P  P3  1  0.59923900  0.59933300  0.21721600  1
  H  H0  1  0.67962500  0.04325200  0.20189900  1
  H  H1  1  0.17960100  0.54325700  0.20189100  1
  H  H2  1  0.24536500  0.38178900  0.79836300  1
  H  H3  1  0.74532700  0.88176300  0.79838400  1
  H  H4  1  0.54338400  0.17970900  0.20190100  1
  H  H5  1  0.04336500  0.67968700  0.20188200  1
  H  H6  1  0.88161800  0.74523600  0.79838700  1
  H  H7  1  0.38164000  0.24523900  0.79837900  1
  O  O0  1  0.54507500  0.04507800  0.21483200  1
  O  O1  1  0.04503700  0.54507300  0.21481300  1
  O  O2  1  0.76068300  0.76072000  0.78457900  1
  O  O3  1  0.26069800  0.26073000  0.78457100  1
  O  O4  1  0.27093900  0.27117000  0.18079000  1
  O  O5  1  0.77095100  0.77116900  0.18069300  1
  O  O6  1  0.95230800  0.45243300  0.81815300  1
  O  O7  1  0.45237000  0.95238600  0.81818000  1
  O  O8  1  0.98515700  0.98523700  0.39530900  1
  O  O9  1  0.48517100  0.48528200  0.39533600  1
  O  O10  1  0.38029900  0.88032500  0.60458800  1
  O  O11  1  0.88029700  0.38031500  0.60458100  1
  O  O12  1  0.17800100  0.96053700  0.13634700  1
  O  O13  1  0.67771800  0.46065400  0.13625600  1
  O  O14  1  0.09684300  0.81361100  0.86438100  1
  O  O15  1  0.59683100  0.31360900  0.86437700  1
  O  O16  1  0.46052000  0.67757900  0.13626200  1
  O  O17  1  0.96054800  0.17747000  0.13624600  1
  O  O18  1  0.31367400  0.59685400  0.86430200  1
  O  O19  1  0.81366300  0.09687300  0.86428400  1
loop_
_geom_bond_atom_site_label_1
_geom_bond_atom_site_label_2
_geom_bond_distance
_geom_bond_site_symmetry_2
K0 O10 2.692277 1_555
K0 O11 2.778857 1_455
K0 O9 2.937388 1_555
K0 O8 2.938520 1_455
K0 O0 2.996255 1_565
K0 O6 3.094035 1_455
K0 O12 3.265938 1_555
K0 O16 3.267208 1_555
K1 O11 2.692124 1_555
K1 O10 2.778879 1_545
K1 O8 2.937692 1_545
K1 O9 2.938550 1_555
K1 O1 2.996075 1_655
K1 O7 3.094265 1_545
K1 O17 3.267807 1_555
K1 O13 3.267869 1_555
K2 O9 2.693158 1_555
K2 O8 2.781330 1_445
K2 O11 2.937102 1_455
K2 O10 2.937638 1_545
K2 O3 2.995827 1_555
K2 O4 3.106986 1_555
K2 O19 3.268768 1_455
K2 O14 3.270425 1_545
K3 O8 2.692875 1_555
K3 O9 2.780950 1_555
K3 O10 2.937131 1_555
K3 O11 2.937658 1_555
K3 O2 2.995696 1_555
K3 O5 3.108010 1_555
K3 O18 3.268717 1_555
K3 O15 3.270299 1_555
Mn0 O7 2.132386 1_554
Mn0 O16 2.164443 1_555
Mn0 O12 2.164555 1_555
Mn0 O0 2.301538 1_565
Mn0 O19 2.314346 1_564
Mn0 O15 2.315450 1_564
Mn1 O5 2.126341 1_446
Mn1 O14 2.163740 1_545
Mn1 O19 2.165993 1_455
Mn1 O3 2.303571 1_555
Mn1 O17 2.316916 1_456
Mn1 O12 2.321566 1_546
Mn2 O6 2.132394 1_554
Mn2 O17 2.165189 1_555
Mn2 O13 2.165992 1_555
Mn2 O1 2.301564 1_655
Mn2 O18 2.314932 1_654
Mn2 O14 2.315625 1_654
Mn3 O4 2.126846 1_556
Mn3 O15 2.163393 1_555
Mn3 O18 2.164853 1_555
Mn3 O2 2.303476 1_555
Mn3 O16 2.318334 1_556
Mn3 O13 2.320114 1_556
H0 O0 0.988410 1_555
H1 O1 0.988521 1_555
H2 O3 0.988220 1_555
H3 O2 0.988189 1_555
H4 O0 0.988445 1_555
H5 O1 0.988287 1_555
H6 O2 0.988071 1_555
H7 O3 0.988135 1_555
O4 P2 1.544001 1_555
O5 P3 1.544043 1_555
O6 P1 1.543383 1_555
O7 P0 1.543477 1_555
O8 P2 1.532398 1_665
O9 P3 1.532379 1_555
O10 P0 1.533480 1_555
O11 P1 1.533439 1_555
O12 P2 1.587427 1_565
O13 P3 1.586991 1_555
O14 P0 1.587085 1_555
O15 P1 1.587022 1_555
O16 P3 1.587502 1_555
O17 P2 1.587759 1_655
O18 P0 1.587142 1_555
O19 P1 1.587054 1_555
