# generated using pymatgen
data_Na7In2Ga2SiP5O24
_symmetry_space_group_name_H-M   'P 1'
_cell_length_a   9.01230426
_cell_length_b   9.00960635
_cell_length_c   22.12937651
_cell_angle_alpha   90.19834585
_cell_angle_beta   89.51645913
_cell_angle_gamma   119.88911555
_symmetry_Int_Tables_number   1
_chemical_formula_structural   Na7In2Ga2SiP5O24
_chemical_formula_sum   'Na21 In6 Ga6 Si3 P15 O72'
_cell_volume   1557.79396988
_cell_formula_units_Z   3
loop_
 _symmetry_equiv_pos_site_id
 _symmetry_equiv_pos_as_xyz
  1  'x, y, z'
loop_
 _atom_site_type_symbol
 _atom_site_label
 _atom_site_symmetry_multiplicity
 _atom_site_fract_x
 _atom_site_fract_y
 _atom_site_fract_z
 _atom_site_occupancy
  Na  Na0  1  0.36735282  0.36972985  0.25173834  1
  Na  Na1  1  0.99914201  0.62985409  0.24907842  1
  Na  Na2  1  0.63620794  0.64183889  0.75006798  1
  Na  Na3  1  0.99525284  0.35938027  0.75330499  1
  Na  Na4  1  0.36809004  0.99886308  0.74940446  1
  Na  Na5  1  0.30246482  0.32812106  0.58000731  1
  Na  Na6  1  0.03427244  0.69979312  0.58124755  1
  Na  Na7  1  0.66112408  0.96716670  0.58520511  1
  Na  Na8  1  0.30204181  0.96861774  0.08357633  1
  Na  Na9  1  0.67158284  0.69731954  0.08249287  1
  Na  Na10  1  0.03064684  0.33836062  0.08482416  1
  Na  Na11  1  0.96205396  0.66480660  0.91917264  1
  Na  Na12  1  0.70468516  0.03623260  0.91450928  1
  Na  Na13  1  0.96635263  0.29717013  0.41439061  1
  Na  Na14  1  0.33404328  0.03646761  0.41748852  1
  Na  Na15  1  0.99411668  0.98915680  0.49777819  1
  Na  Na16  1  0.00990714  0.00679519  0.00170505  1
  Na  Na17  1  0.65643549  0.32890490  0.83377052  1
  Na  Na18  1  0.66666305  0.33326604  0.33276579  1
  Na  Na19  1  0.33960242  0.67700479  0.16765791  1
  Na  Na20  1  0.33873653  0.67443253  0.66644373  1
  In  In0  1  0.00464266  0.00639409  0.85257060  1
  In  In1  1  0.99892935  0.99971621  0.65298376  1
  In  In2  1  0.66363362  0.32580747  0.67992683  1
  In  In3  1  0.66997171  0.32863227  0.18391724  1
  In  In4  1  0.66342978  0.33706606  0.98417986  1
  In  In5  1  0.66289598  0.33706704  0.47974102  1
  Ga  Ga0  1  0.99133866  0.99276477  0.34996909  1
  Ga  Ga1  1  0.99632950  0.99332438  0.15254508  1
  Ga  Ga2  1  0.32829254  0.66484906  0.01670916  1
  Ga  Ga3  1  0.33800126  0.67303543  0.51343202  1
  Ga  Ga4  1  0.34206072  0.67408805  0.31626864  1
  Ga  Ga5  1  0.33864426  0.66935369  0.81771725  1
  Si  Si0  1  0.69382618  0.99565831  0.75311887  1
  Si  Si1  1  0.36258019  0.02463389  0.58005501  1
  Si  Si2  1  0.97304225  0.64020385  0.08381772  1
  P  P0  1  0.28678632  0.99568931  0.25260259  1
  P  P1  1  0.70632793  0.71451552  0.25135975  1
  P  P2  1  0.00314265  0.28833381  0.25246231  1
  P  P3  1  0.30081651  0.30618825  0.75095769  1
  P  P4  1  0.00394601  0.69829144  0.75254166  1
  P  P5  1  0.97271575  0.34001018  0.57969792  1
  P  P6  1  0.66221334  0.63211648  0.58208416  1
  P  P7  1  0.66676064  0.02960949  0.08185571  1
  P  P8  1  0.36224303  0.33221993  0.08573701  1
  P  P9  1  0.61673678  0.66297676  0.91712108  1
  P  P10  1  0.04953707  0.38099545  0.91747025  1
  P  P11  1  0.33414038  0.95449141  0.91722261  1
  P  P12  1  0.62766162  0.95168809  0.41474751  1
  P  P13  1  0.32926960  0.37789338  0.41358511  1
  P  P14  1  0.04713700  0.67161331  0.41352503  1
  O  O0  1  0.20161121  0.02594374  0.30917075  1
  O  O1  1  0.82722324  0.80045091  0.30489443  1
  O  O2  1  0.98275769  0.18228671  0.30981939  1
  O  O3  1  0.22113033  0.17938106  0.80347855  1
  O  O4  1  0.96992228  0.77877874  0.80885464  1
  O  O5  1  0.81689714  0.03727247  0.81160902  1
  O  O6  1  0.77056740  0.95397862  0.69198678  1
  O  O7  1  0.19525089  0.23496393  0.69217391  1
  O  O8  1  0.04298468  0.81078688  0.69521060  1
  O  O9  1  0.78426977  0.81506733  0.19182493  1
  O  O10  1  0.02800097  0.20298393  0.19488774  1
  O  O11  1  0.17704834  0.96652670  0.19505812  1
  O  O12  1  0.90034436  0.37958503  0.63778804  1
  O  O13  1  0.47944309  0.09848398  0.64092056  1
  O  O14  1  0.63042149  0.52710315  0.64114548  1
  O  O15  1  0.89606071  0.51386147  0.14282585  1
  O  O16  1  0.61596918  0.10542031  0.13556782  1
  O  O17  1  0.47574669  0.37205640  0.14262575  1
  O  O18  1  0.43766537  0.28227704  0.03159073  1
  O  O19  1  0.84865983  0.56486487  0.02461503  1
  O  O20  1  0.70671332  0.14236260  0.02436998  1
  O  O21  1  0.44260976  0.14984900  0.52144789  1
  O  O22  1  0.70673112  0.55116006  0.52905690  1
  O  O23  1  0.85717447  0.30634804  0.52444230  1
  O  O24  1  0.52925154  0.68502186  0.97417864  1
  O  O25  1  0.14965671  0.46685643  0.97533544  1
  O  O26  1  0.31136405  0.84704412  0.97456128  1
  O  O27  1  0.55007476  0.85161691  0.47432134  1
  O  O28  1  0.30456898  0.46257855  0.47143277  1
  O  O29  1  0.15613347  0.70020720  0.47121955  1
  O  O30  1  0.13284535  0.64160358  0.35713930  1
  O  O31  1  0.50609554  0.86564371  0.36147022  1
  O  O32  1  0.34950734  0.48469339  0.35656791  1
  O  O33  1  0.13543086  0.48896916  0.86011277  1
  O  O34  1  0.35632394  0.86979120  0.85939233  1
  O  O35  1  0.51784282  0.64855579  0.85887383  1
  O  O36  1  0.03293542  0.83679796  0.40860690  1
  O  O37  1  0.81138350  0.97685264  0.40878141  1
  O  O38  1  0.16399663  0.19552190  0.41143333  1
  O  O39  1  0.02419731  0.19790610  0.91706884  1
  O  O40  1  0.16766762  0.96558788  0.91507324  1
  O  O41  1  0.79912557  0.82746906  0.91692695  1
  O  O42  1  0.98695467  0.17657070  0.58578479  1
  O  O43  1  0.17192137  0.00487396  0.58615321  1
  O  O44  1  0.81908415  0.81444603  0.58594381  1
  O  O45  1  0.99190438  0.83148633  0.09246483  1
  O  O46  1  0.83136403  0.01843254  0.09176631  1
  O  O47  1  0.17952210  0.17528661  0.09364270  1
  O  O48  1  0.67704934  0.16847814  0.74907998  1
  O  O49  1  0.48461177  0.33525509  0.74588924  1
  O  O50  1  0.84013743  0.52162735  0.74601013  1
  O  O51  1  0.68668281  0.53098563  0.24852531  1
  O  O52  1  0.84560810  0.31513144  0.25038303  1
  O  O53  1  0.46403698  0.16206009  0.24803030  1
  O  O54  1  0.64213611  0.50498322  0.91793053  1
  O  O55  1  0.86723072  0.36401491  0.91826490  1
  O  O56  1  0.50003219  0.13177604  0.91991730  1
  O  O57  1  0.64847012  0.13572629  0.41696088  1
  O  O58  1  0.48656740  0.35096818  0.41485438  1
  O  O59  1  0.86991797  0.50533457  0.41733367  1
  O  O60  1  0.34928795  0.49598140  0.07598916  1
  O  O61  1  0.16469099  0.65983079  0.07598884  1
  O  O62  1  0.51054604  0.84661775  0.07467582  1
  O  O63  1  0.34716108  0.83520583  0.57310035  1
  O  O64  1  0.49616064  0.64133341  0.57399787  1
  O  O65  1  0.15341658  0.49859624  0.57243194  1
  O  O66  1  0.30075468  0.83037735  0.25770661  1
  O  O67  1  0.52261472  0.68945567  0.25752788  1
  O  O68  1  0.16846805  0.47081175  0.25488763  1
  O  O69  1  0.30978703  0.48099754  0.75969907  1
  O  O70  1  0.16244034  0.67550126  0.75893063  1
  O  O71  1  0.50334144  0.82280000  0.75838135  1
loop_
_geom_bond_atom_site_label_1
_geom_bond_atom_site_label_2
_geom_bond_distance
_geom_bond_site_symmetry_2
Na0 O68 2.381453 1_555
Na0 O53 2.426783 1_555
Na0 O51 2.495648 1_555
Na0 O67 2.501099 1_555
Na0 O32 2.573581 1_555
Na0 O17 2.593284 1_555
Na1 O66 2.408555 1_655
Na1 O52 2.458700 1_555
Na1 O51 2.494771 1_555
Na1 O15 2.556571 1_555
Na1 O68 2.565615 1_655
Na1 O30 2.664833 1_655
Na1 O11 2.888992 1_655
Na1 O1 2.935410 1_555
Na2 O49 2.396686 1_555
Na2 O71 2.462884 1_555
Na2 O50 2.557196 1_555
Na2 O69 2.557814 1_555
Na2 O14 2.610060 1_555
Na2 O35 2.638012 1_555
Na2 O6 2.762586 1_555
Na2 O4 2.935403 1_555
Na3 O70 2.474127 1_655
Na3 O50 2.481775 1_555
Na3 O69 2.483167 1_655
Na3 O48 2.505697 1_555
Na3 O33 2.665888 1_655
Na3 O12 2.737667 1_555
Na3 O5 2.830582 1_555
Na3 O7 2.880515 1_655
Na4 O48 2.418130 1_565
Na4 O71 2.444336 1_555
Na4 O70 2.565801 1_555
Na4 O13 2.579246 1_565
Na4 O49 2.668813 1_565
Na4 O34 2.679565 1_555
Na4 O3 2.817420 1_565
Na4 O8 2.826885 1_555
Na5 O42 2.468121 1_455
Na5 O64 2.473323 1_555
Na5 O65 2.500662 1_555
Na5 O43 2.543519 1_555
Na5 O7 2.639120 1_555
Na5 O28 2.690216 1_555
Na5 O21 2.798946 1_555
Na5 O14 2.924039 1_555
Na6 O43 2.389073 1_565
Na6 O63 2.456971 1_555
Na6 O65 2.531961 1_555
Na6 O44 2.613680 1_455
Na6 O29 2.661862 1_555
Na6 O8 2.697026 1_555
Na6 O12 2.806126 1_455
Na6 O22 2.819222 1_455
Na7 O44 2.423401 1_555
Na7 O63 2.479781 1_555
Na7 O64 2.557563 1_555
Na7 O42 2.580985 1_565
Na7 O6 2.594010 1_555
Na7 O27 2.663054 1_555
Na7 O13 2.736314 1_565
Na7 O23 2.979170 1_565
Na8 O61 2.422463 1_555
Na8 O45 2.434783 1_455
Na8 O47 2.603457 1_565
Na8 O62 2.613195 1_555
Na8 O26 2.663954 1_554
Na8 O11 2.699588 1_555
Na8 O18 2.712867 1_565
Na8 O16 2.723422 1_565
Na9 O62 2.428387 1_555
Na9 O46 2.516850 1_565
Na9 O45 2.524821 1_555
Na9 O60 2.549911 1_555
Na9 O9 2.638273 1_555
Na9 O24 2.703950 1_554
Na9 O19 2.732099 1_555
Na9 O17 2.882036 1_555
Na10 O47 2.442946 1_555
Na10 O60 2.495907 1_555
Na10 O46 2.529136 1_455
Na10 O61 2.529635 1_555
Na10 O25 2.664431 1_554
Na10 O10 2.722343 1_555
Na10 O15 2.736781 1_455
Na10 O20 2.888331 1_455
Na11 O55 2.401385 1_555
Na11 O40 2.404119 1_655
Na11 O54 2.500073 1_555
Na11 O19 2.521305 1_556
Na11 O41 2.540227 1_555
Na11 O4 2.638388 1_555
Na12 O56 2.394789 1_555
Na12 O41 2.421144 1_545
Na12 O5 2.481914 1_555
Na12 O39 2.497710 1_655
Na12 O55 2.561817 1_555
Na12 O20 2.606214 1_556
Na13 O38 2.374695 1_655
Na13 O59 2.428931 1_555
Na13 O57 2.484163 1_555
Na13 O37 2.505590 1_545
Na13 O2 2.564838 1_555
Na13 O23 2.635392 1_555
Na14 O36 2.404172 1_545
Na14 O58 2.457577 1_555
Na14 O57 2.510711 1_555
Na14 O21 2.513758 1_555
Na14 O38 2.571698 1_555
Na14 O0 2.667028 1_555
Na14 O29 2.883478 1_545
Na14 O31 2.939818 1_545
Na15 O43 2.497471 1_665
Na15 O44 2.503452 1_555
Na15 O36 2.519688 1_655
Na15 O37 2.544481 1_555
Na15 O38 2.567114 1_665
Na15 O42 2.594590 1_565
Na16 O39 2.507285 1_554
Na16 O40 2.511924 1_544
Na16 O45 2.513164 1_445
Na16 O47 2.549274 1_555
Na16 O46 2.585491 1_455
Na16 O41 2.592093 1_444
Na17 O48 2.424678 1_555
Na17 O54 2.486176 1_555
Na17 O56 2.501702 1_555
Na17 O49 2.514596 1_555
Na17 O50 2.575189 1_555
Na17 O55 2.581130 1_555
Na18 O52 2.482350 1_555
Na18 O58 2.483136 1_555
Na18 O51 2.525479 1_555
Na18 O57 2.528407 1_555
Na18 O53 2.541776 1_555
Na18 O59 2.543344 1_555
Na19 O61 2.536273 1_555
Na19 O66 2.540528 1_555
Na19 O67 2.560780 1_555
Na19 O62 2.562116 1_555
Na19 O68 2.583614 1_555
Na19 O60 2.626540 1_555
Na20 O71 2.486479 1_555
Na20 O63 2.505837 1_555
Na20 O64 2.579810 1_555
Na20 O70 2.583332 1_555
Na20 O69 2.631874 1_555
Na20 O65 2.650686 1_555
In0 O5 2.063677 1_455
In0 O3 2.088355 1_555
In0 O4 2.142684 1_445
In0 O39 2.174756 1_555
In0 O40 2.187021 1_545
In0 O41 2.247911 1_445
In1 O6 2.068249 1_555
In1 O43 2.123528 1_665
In1 O8 2.149209 1_655
In1 O7 2.156510 1_665
In1 O44 2.222898 1_555
In1 O42 2.225402 1_565
In2 O13 2.078188 1_555
In2 O48 2.134167 1_555
In2 O12 2.143531 1_555
In2 O14 2.161335 1_555
In2 O49 2.199388 1_555
In2 O50 2.237390 1_555
In3 O15 2.086597 1_555
In3 O16 2.108173 1_555
In3 O17 2.182650 1_555
In3 O53 2.214511 1_555
In3 O52 2.217239 1_555
In3 O51 2.258881 1_555
In4 O19 2.097024 1_556
In4 O18 2.109698 1_556
In4 O20 2.172335 1_556
In4 O54 2.187321 1_555
In4 O56 2.216847 1_555
In4 O55 2.252317 1_555
In5 O21 2.068994 1_555
In5 O22 2.073870 1_555
In5 O23 2.152875 1_555
In5 O59 2.199675 1_555
In5 O58 2.200214 1_555
In5 O57 2.233421 1_555
Ga0 O1 1.908803 1_555
Ga0 O2 1.963232 1_565
Ga0 O0 1.975871 1_665
Ga0 O37 2.019557 1_555
Ga0 O36 2.084416 1_655
Ga0 O38 2.189501 1_665
Ga1 O45 1.955717 1_555
Ga1 O9 1.977358 1_555
Ga1 O10 1.995621 1_665
Ga1 O11 2.003835 1_655
Ga1 O47 2.096036 1_665
Ga1 O46 2.107503 1_565
Ga2 O25 1.939990 1_554
Ga2 O61 1.948893 1_555
Ga2 O24 1.960431 1_554
Ga2 O26 1.962232 1_554
Ga2 O62 2.089367 1_555
Ga2 O60 2.091979 1_555
Ga3 O63 1.937367 1_555
Ga3 O27 1.976778 1_555
Ga3 O28 1.993252 1_555
Ga3 O29 2.011554 1_555
Ga3 O65 2.076991 1_555
Ga3 O64 2.085738 1_555
Ga4 O31 1.906504 1_555
Ga4 O32 1.958874 1_555
Ga4 O30 1.970252 1_555
Ga4 O67 2.024280 1_555
Ga4 O66 2.084228 1_555
Ga4 O68 2.193126 1_555
Ga5 O71 1.942446 1_555
Ga5 O35 1.949467 1_555
Ga5 O34 1.959908 1_555
Ga5 O33 1.972480 1_555
Ga5 O69 2.036320 1_555
Ga5 O70 2.083319 1_555
O0 P0 1.555812 1_545
O1 P1 1.537772 1_555
O2 P2 1.545058 1_655
O3 P3 1.532718 1_555
O4 P4 1.543284 1_655
O5 Si0 1.628665 1_545
O6 Si0 1.639813 1_555
O7 P3 1.554278 1_555
O8 P4 1.551328 1_555
O9 P1 1.551860 1_555
O10 P2 1.557209 1_555
O11 P0 1.558431 1_555
O12 P5 1.555473 1_555
O13 Si1 1.638736 1_555
O14 P6 1.554845 1_555
O15 Si2 1.640158 1_555
O16 P7 1.544560 1_555
O17 P8 1.553306 1_555
O18 P8 1.545183 1_555
O19 Si2 1.641347 1_555
O20 P7 1.554537 1_555
O21 Si1 1.630445 1_555
O22 P6 1.532241 1_555
O23 P5 1.541305 1_555
O24 P9 1.546902 1_555
O25 P10 1.539251 1_555
O26 P11 1.547696 1_555
O27 P12 1.550538 1_555
O28 P13 1.558248 1_555
O29 P14 1.558221 1_555
O30 P14 1.554429 1_555
O31 P12 1.536330 1_555
O32 P13 1.542978 1_555
O33 P10 1.548581 1_555
O34 P11 1.549530 1_555
O35 P9 1.541268 1_555
O36 P14 1.560227 1_555
O37 P12 1.559726 1_555
O38 P13 1.575468 1_555
O39 P10 1.548475 1_555
O40 P11 1.553671 1_555
O41 P9 1.571724 1_555
O42 P5 1.546912 1_555
O43 Si1 1.641265 1_555
O44 P6 1.546283 1_555
O45 Si2 1.655850 1_555
O46 P7 1.553515 1_555
O47 P8 1.554930 1_555
O48 Si0 1.640439 1_545
O49 P3 1.545841 1_555
O50 P4 1.547214 1_655
O51 P1 1.573895 1_555
O52 P2 1.555283 1_655
O53 P0 1.555875 1_545
O54 P9 1.550467 1_555
O55 P10 1.572317 1_655
O56 P11 1.552699 1_545
O57 P12 1.573718 1_545
O58 P13 1.553296 1_555
O59 P14 1.554427 1_655
O60 P8 1.552856 1_555
O61 Si2 1.653861 1_455
O62 P7 1.553736 1_565
O63 Si1 1.648606 1_565
O64 P6 1.551438 1_555
O65 P5 1.548407 1_455
O66 P0 1.560505 1_555
O67 P1 1.560358 1_555
O68 P2 1.576439 1_555
O69 P3 1.547810 1_555
O70 P4 1.548675 1_555
O71 Si0 1.649050 1_555
