# generated using pymatgen
data_Na14Zn6Si5Ge2S7O48
_symmetry_space_group_name_H-M   'P 1'
_cell_length_a   18.06943360
_cell_length_b   9.08650689
_cell_length_c   22.01668059
_cell_angle_alpha   90.03418468
_cell_angle_beta   90.06878751
_cell_angle_gamma   120.53511653
_symmetry_Int_Tables_number   1
_chemical_formula_structural   Na14Zn6Si5Ge2S7O48
_chemical_formula_sum   'Na42 Zn18 Si15 Ge6 S21 O144'
_cell_volume   3113.55175951
_cell_formula_units_Z   3
loop_
 _symmetry_equiv_pos_site_id
 _symmetry_equiv_pos_as_xyz
  1  'x, y, z'
loop_
 _atom_site_type_symbol
 _atom_site_label
 _atom_site_symmetry_multiplicity
 _atom_site_fract_x
 _atom_site_fract_y
 _atom_site_fract_z
 _atom_site_occupancy
  Na  Na0  1  0.81241115  0.00706264  0.24792951  1
  Na  Na1  1  0.68841767  0.36289450  0.24668635  1
  Na  Na2  1  0.49915827  0.63773686  0.24503346  1
  Na  Na3  1  0.31010985  0.61476423  0.74880759  1
  Na  Na4  1  -0.00065737  0.36524377  0.74376968  1
  Na  Na5  1  0.18083073  -0.00313199  0.74461786  1
  Na  Na6  1  0.15241577  0.33051234  0.57498007  1
  Na  Na7  1  0.66809721  0.36280532  0.58364470  1
  Na  Na8  1  0.01427581  0.68951131  0.57311615  1
  Na  Na9  1  0.51974715  0.68549849  0.59188669  1
  Na  Na10  1  0.32586063  0.97882111  0.58375449  1
  Na  Na11  1  0.82737980  0.96910945  0.59296416  1
  Na  Na12  1  0.16413408  0.96846618  0.07804484  1
  Na  Na13  1  0.65727872  0.98249035  0.06963201  1
  Na  Na14  1  0.32282575  0.68463142  0.08708286  1
  Na  Na15  1  0.82689078  0.67353452  0.07996163  1
  Na  Na16  1  0.01860632  0.35467432  0.08732723  1
  Na  Na17  1  0.51427723  0.33473164  0.06828627  1
  Na  Na18  1  0.48528117  0.66607236  0.91962089  1
  Na  Na19  1  0.97799265  0.66091525  0.91434552  1
  Na  Na20  1  0.35538109  0.04465905  0.92254232  1
  Na  Na21  1  0.84782785  0.04215832  0.91183950  1
  Na  Na22  1  0.16626352  0.29055088  0.91500286  1
  Na  Na23  1  0.66296495  0.28907814  0.92541165  1
  Na  Na24  1  0.47951416  0.30190710  0.42634016  1
  Na  Na25  1  0.98503164  0.30556010  0.42393442  1
  Na  Na26  1  0.16125146  0.03387399  0.42801998  1
  Na  Na27  1  0.66981638  0.04743889  0.42054031  1
  Na  Na28  1  0.34571322  0.65423746  0.41689293  1
  Na  Na29  1  0.85473858  0.66424353  0.42486435  1
  Na  Na30  1  0.00356787  0.99086025  0.49883741  1
  Na  Na31  1  0.50493400  0.01092961  0.50355153  1
  Na  Na32  1  0.00371224  0.99811059  0.99741274  1
  Na  Na33  1  0.50428913  0.01857049  0.99452099  1
  Na  Na34  1  0.33988651  0.33481535  0.82965879  1
  Na  Na35  1  0.82594087  0.33049651  0.82634719  1
  Na  Na36  1  0.31813440  0.32315874  0.33086989  1
  Na  Na37  1  0.84195849  0.34606754  0.33102536  1
  Na  Na38  1  0.16835461  0.67112333  0.16293755  1
  Na  Na39  1  0.66728289  0.66259784  0.16311228  1
  Na  Na40  1  0.16092418  0.67105573  0.66652674  1
  Na  Na41  1  0.66965103  0.66592330  0.66457779  1
  Zn  Zn0  1  0.00887247  0.00661092  0.35510830  1
  Zn  Zn1  1  0.50395084  0.00451673  0.33922364  1
  Zn  Zn2  1  0.00349035  0.98581977  0.82892214  1
  Zn  Zn3  1  0.50932979  0.01095722  0.85482744  1
  Zn  Zn4  1  0.32819061  0.31629165  0.67780145  1
  Zn  Zn5  1  0.82992716  0.34896115  0.68115811  1
  Zn  Zn6  1  0.31751717  0.30900958  0.17206148  1
  Zn  Zn7  1  0.82808408  0.33869501  0.17653387  1
  Zn  Zn8  1  0.33277699  0.30584893  0.99042377  1
  Zn  Zn9  1  0.82464311  0.33623765  0.98910430  1
  Zn  Zn10  1  0.32609133  0.31862872  0.49279647  1
  Zn  Zn11  1  0.83346750  0.35800894  0.49676735  1
  Zn  Zn12  1  0.16596919  0.66595905  0.02425299  1
  Zn  Zn13  1  0.65987268  0.65135156  0.00988140  1
  Zn  Zn14  1  0.15838415  0.66650462  0.51197274  1
  Zn  Zn15  1  0.66713507  0.67318083  0.52761873  1
  Zn  Zn16  1  0.66364996  0.68086343  0.31452750  1
  Zn  Zn17  1  0.15664525  0.64415078  0.80890367  1
  Si  Si0  1  0.64841964  0.00323133  0.24947846  1
  Si  Si1  1  0.14820494  0.28869966  0.74814496  1
  Si  Si2  1  0.99493995  0.68526370  0.75332095  1
  Si  Si3  1  0.47756367  0.33042640  0.58391819  1
  Si  Si4  1  0.18241954  0.02330442  0.58434264  1
  Si  Si5  1  0.68816889  0.04987266  0.58544379  1
  Si  Si6  1  0.83904898  0.64806044  0.58589230  1
  Si  Si7  1  0.97683302  0.62280613  0.08363266  1
  Si  Si8  1  0.33932083  0.03360670  0.08730661  1
  Si  Si9  1  0.18556291  0.33078068  0.08301095  1
  Si  Si10  1  0.68134093  0.33953935  0.08646427  1
  Si  Si11  1  0.51712181  0.37313119  0.91407717  1
  Si  Si12  1  0.67060539  0.96698131  0.92113219  1
  Si  Si13  1  0.16992437  0.37411655  0.42092220  1
  Si  Si14  1  0.01457505  0.66116026  0.41583725  1
  Ge  Ge0  1  0.01197584  0.97838478  0.65035956  1
  Ge  Ge1  1  0.51149032  0.03427414  0.64810942  1
  Ge  Ge2  1  0.01094627  0.98959891  0.14643335  1
  Ge  Ge3  1  0.50610550  0.01173751  0.14692896  1
  Ge  Ge4  1  0.15840195  0.63649430  0.32427016  1
  Ge  Ge5  1  0.66518359  0.68741059  0.82213988  1
  S  S0  1  0.14918733  0.99010088  0.25151202  1
  S  S1  1  0.34833072  0.70351986  0.25142808  1
  S  S2  1  0.85702714  0.71798622  0.25126570  1
  S  S3  1  0.00673303  0.29748340  0.25195338  1
  S  S4  1  0.49881901  0.29586720  0.25077826  1
  S  S5  1  0.64749411  0.30902876  0.75227657  1
  S  S6  1  0.50658421  0.71849731  0.75132254  1
  S  S7  1  0.36109968  -0.00068824  0.75022807  1
  S  S8  1  0.84254386  0.98175335  0.75462944  1
  S  S9  1  0.98204548  0.32546211  0.58500267  1
  S  S10  1  0.33865874  0.64330415  0.58606116  1
  S  S11  1  0.48144510  0.63855907  0.08841041  1
  S  S12  1  0.83840783  0.03323410  0.08697011  1
  S  S13  1  0.31109414  0.66451284  0.91468643  1
  S  S14  1  0.81169453  0.67142553  0.91405009  1
  S  S15  1  0.01713001  0.36571052  0.91764142  1
  S  S16  1  0.16670207  0.95782472  0.91572088  1
  S  S17  1  0.31366241  0.95407287  0.41117781  1
  S  S18  1  0.81227069  0.96127994  0.41508121  1
  S  S19  1  0.66335483  0.37537372  0.41285463  1
  S  S20  1  0.51760883  0.66843819  0.41580100  1
  O  O0  1  0.10421985  0.00182174  0.30445188  1
  O  O1  1  0.61074395  0.03635991  0.31146531  1
  O  O2  1  0.39796428  0.79002354  0.30769073  1
  O  O3  1  0.90245724  0.81079141  0.30591857  1
  O  O4  1  0.48721854  0.19822502  0.30734202  1
  O  O5  1  0.99874063  0.19495864  0.30584355  1
  O  O6  1  0.10905126  0.18687509  0.81151739  1
  O  O7  1  0.60165794  0.20759518  0.80547984  1
  O  O8  1  0.49846889  0.80276013  0.80613993  1
  O  O9  1  0.97960872  0.76144413  0.81552029  1
  O  O10  1  0.40694289  0.00191931  0.80531224  1
  O  O11  1  0.89431382  -0.00128004  0.80986990  1
  O  O12  1  0.40587497  0.97659725  0.69349973  1
  O  O13  1  0.88256845  0.96121143  0.69924662  1
  O  O14  1  0.07636143  0.17909172  0.69042631  1
  O  O15  1  0.59282338  0.22477669  0.69373339  1
  O  O16  1  0.01424526  0.82109375  0.69544556  1
  O  O17  1  0.51565079  0.82102955  0.69466970  1
  O  O18  1  0.39286864  0.80724728  0.19634780  1
  O  O19  1  0.90039773  0.82582832  0.19447894  1
  O  O20  1  0.01566533  0.21589292  0.19460553  1
  O  O21  1  0.50804896  0.20370145  0.19699537  1
  O  O22  1  0.09688095  0.97064323  0.19277973  1
  O  O23  1  0.57623140  0.96839568  0.19262619  1
  O  O24  1  0.43491434  0.37966667  0.63825742  1
  O  O25  1  0.94107777  0.34123338  0.63982540  1
  O  O26  1  0.23925989  0.09985057  0.64500081  1
  O  O27  1  0.75345712  0.13437245  0.64053706  1
  O  O28  1  0.32606194  0.53993935  0.64057882  1
  O  O29  1  0.81271434  0.51157480  0.63845236  1
  O  O30  1  0.44032987  0.54036986  0.14379555  1
  O  O31  1  0.93531674  0.49199543  0.13943704  1
  O  O32  1  0.32379130  0.12297257  0.14420285  1
  O  O33  1  0.82639531  0.11034154  0.14217490  1
  O  O34  1  0.24843505  0.38870234  0.14096377  1
  O  O35  1  0.73739748  0.37558933  0.14743144  1
  O  O36  1  0.22118431  0.27625352  0.02359626  1
  O  O37  1  0.71589695  0.28656139  0.02697593  1
  O  O38  1  0.43162966  0.55468842  0.03280115  1
  O  O39  1  0.91809893  0.56017977  0.02148443  1
  O  O40  1  0.36941364  0.15203766  0.02584940  1
  O  O41  1  0.85071616  0.13642329  0.03211591  1
  O  O42  1  0.21728085  0.14353383  0.52425803  1
  O  O43  1  0.71853168  0.16428202  0.52213168  1
  O  O44  1  0.35200723  0.56642655  0.53041520  1
  O  O45  1  0.86946092  0.59122108  0.52388677  1
  O  O46  1  0.41955674  0.27803021  0.52104015  1
  O  O47  1  0.93241230  0.31263827  0.52893438  1
  O  O48  1  0.27063984  0.68532592  0.96966791  1
  O  O49  1  0.77378290  0.68535083  0.97181884  1
  O  O50  1  0.07074890  0.45278550  0.97127243  1
  O  O51  1  0.57303337  0.44142149  0.97554325  1
  O  O52  1  0.16319130  0.86313192  0.97125146  1
  O  O53  1  0.65709991  0.85072770  0.98065807  1
  O  O54  1  0.27896367  0.86252034  0.46883210  1
  O  O55  1  0.76824462  0.85298517  0.46769227  1
  O  O56  1  0.15860708  0.46706004  0.47983392  1
  O  O57  1  0.65886064  0.46229798  0.46771526  1
  O  O58  1  0.07447340  0.70823539  0.47502574  1
  O  O59  1  0.57195784  0.68982599  0.46848853  1
  O  O60  1  0.06641111  0.62306501  0.35713792  1
  O  O61  1  0.55642066  0.65183689  0.35810555  1
  O  O62  1  0.25430029  0.85976730  0.35813467  1
  O  O63  1  0.76387302  0.88181866  0.35731355  1
  O  O64  1  0.19149041  0.50636961  0.35967424  1
  O  O65  1  0.66787209  0.47176845  0.35660188  1
  O  O66  1  0.05782479  0.46100882  0.86085253  1
  O  O67  1  0.57226063  0.51655567  0.85703770  1
  O  O68  1  0.17176087  0.87115283  0.86023849  1
  O  O69  1  0.69229883  0.87732017  0.86082059  1
  O  O70  1  0.26095986  0.64988002  0.85878721  1
  O  O71  1  0.75359365  0.64697020  0.86069726  1
  O  O72  1  0.00378957  0.82690770  0.40730077  1
  O  O73  1  0.50666274  0.82206386  0.41392974  1
  O  O74  1  0.40019751  0.97119097  0.40492346  1
  O  O75  1  0.89950817  0.98242224  0.41280240  1
  O  O76  1  0.08143108  0.19086376  0.41377052  1
  O  O77  1  0.58276960  0.20055651  0.41318527  1
  O  O78  1  0.00516123  0.19049093  0.91589308  1
  O  O79  1  0.50424778  0.18268140  0.90720702  1
  O  O80  1  0.08860158  0.97472955  0.91680169  1
  O  O81  1  0.58232433  0.97358265  0.91414715  1
  O  O82  1  0.39943773  0.81840343  0.91235994  1
  O  O83  1  0.89646863  0.83022147  0.91005490  1
  O  O84  1  0.48257658  0.14851183  0.59392757  1
  O  O85  1  0.98784126  0.16754905  0.58519383  1
  O  O86  1  0.08675178  0.01275227  0.58967282  1
  O  O87  1  0.58790853  0.03009739  0.59560677  1
  O  O88  1  0.42055192  0.81692181  0.59059101  1
  O  O89  1  0.92478801  0.84610898  0.59853679  1
  O  O90  1  0.48637997  0.81036182  0.08891018  1
  O  O91  1  0.98224273  0.81639836  0.09426999  1
  O  O92  1  0.42365747  0.00246041  0.09839045  1
  O  O93  1  0.91967976  0.02299356  0.09116250  1
  O  O94  1  0.08719463  0.14759222  0.09429788  1
  O  O95  1  0.58456105  0.15744278  0.09302851  1
  O  O96  1  0.35387027  0.15243669  0.74733486  1
  O  O97  1  0.83281678  0.13069858  0.75242366  1
  O  O98  1  0.24430904  0.31161734  0.74202472  1
  O  O99  1  0.72914804  0.31716254  0.74760831  1
  O  O100  1  0.42887455  0.54876030  0.74767436  1
  O  O101  1  0.91651582  0.49080933  0.74448603  1
  O  O102  1  0.34450141  0.53740594  0.24962152  1
  O  O103  1  0.84888784  0.54898958  0.25021347  1
  O  O104  1  0.42819578  0.32954746  0.24561964  1
  O  O105  1  0.92996312  0.31314147  0.24896770  1
  O  O106  1  0.23333156  0.14703968  0.24746804  1
  O  O107  1  0.74483024  0.16926501  0.24178309  1
  O  O108  1  0.31868893  0.50927559  0.91744118  1
  O  O109  1  0.81982503  0.51765240  0.91226443  1
  O  O110  1  0.42450572  0.36595881  0.91607596  1
  O  O111  1  0.93178026  0.35283774  0.92080416  1
  O  O112  1  0.24563922  0.13239330  0.91543330  1
  O  O113  1  0.75623766  0.15797490  0.92124787  1
  O  O114  1  0.32236348  0.12433544  0.40971434  1
  O  O115  1  0.82031297  0.13158793  0.41870963  1
  O  O116  1  0.25587420  0.35633216  0.42004859  1
  O  O117  1  0.74027107  0.35640944  0.41218255  1
  O  O118  1  0.43167537  0.51130810  0.41925081  1
  O  O119  1  0.92225690  0.48289476  0.41705558  1
  O  O120  1  0.16447290  0.48247914  0.07536879  1
  O  O121  1  0.66863989  0.50469294  0.08010997  1
  O  O122  1  0.07556322  0.66865970  0.07786293  1
  O  O123  1  0.56956568  0.66709549  0.08646669  1
  O  O124  1  0.25617645  0.84501955  0.07961905  1
  O  O125  1  0.76336086  0.85838672  0.08224949  1
  O  O126  1  0.17046607  0.83283773  0.57851440  1
  O  O127  1  0.66602029  0.85377064  0.57848856  1
  O  O128  1  0.26448227  0.66852020  0.58078255  1
  O  O129  1  0.75859643  0.67744223  0.57725860  1
  O  O130  1  0.07004745  0.47785134  0.58313413  1
  O  O131  1  0.57655694  0.48410079  0.57776042  1
  O  O132  1  0.15629843  0.83419300  0.25174193  1
  O  O133  1  0.65203554  0.82525304  0.24814902  1
  O  O134  1  0.26127632  0.68722850  0.25243104  1
  O  O135  1  0.76881879  0.69606550  0.24858246  1
  O  O136  1  0.08861380  0.47356887  0.25426103  1
  O  O137  1  0.58239485  0.46309287  0.25131624  1
  O  O138  1  0.15597324  0.47593294  0.74589869  1
  O  O139  1  0.65473214  0.47946920  0.75234389  1
  O  O140  1  0.08759704  0.69132406  0.75144844  1
  O  O141  1  0.58728619  0.70657214  0.75328113  1
  O  O142  1  0.27443829  0.84270668  0.74689949  1
  O  O143  1  0.75364521  0.81254293  0.75769657  1
loop_
_geom_bond_atom_site_label_1
_geom_bond_atom_site_label_2
_geom_bond_distance
_geom_bond_site_symmetry_2
Na0 O107 2.347430 1_555
Na0 O33 2.475657 1_555
Na0 O105 2.498861 1_555
Na0 O133 2.502483 1_545
Na0 O135 2.518829 1_545
Na0 O63 2.618825 1_545
Na1 O35 2.339483 1_555
Na1 O107 2.443088 1_555
Na1 O137 2.506435 1_555
Na1 O103 2.508021 1_555
Na1 O135 2.609192 1_555
Na1 O65 2.710218 1_555
Na2 O133 2.399053 1_555
Na2 O104 2.416146 1_555
Na2 O30 2.432514 1_555
Na2 O102 2.462296 1_555
Na2 O61 2.672680 1_555
Na2 O137 2.687854 1_555
Na2 O23 2.838002 1_555
Na3 O98 2.386345 1_555
Na3 O138 2.404563 1_555
Na3 O142 2.462458 1_555
Na3 O100 2.504718 1_555
Na3 O28 2.534190 1_555
Na3 O70 2.654404 1_555
Na4 O101 2.297195 1_455
Na4 O138 2.476104 1_555
Na4 O25 2.480626 1_455
Na4 O140 2.558936 1_555
Na4 O97 2.667981 1_455
Na4 O66 2.752313 1_555
Na4 O14 2.927578 1_555
Na5 O26 2.409298 1_555
Na5 O140 2.411884 1_545
Na5 O98 2.483010 1_555
Na5 O142 2.689448 1_545
Na5 O96 2.699347 1_555
Na5 O68 2.761515 1_545
Na5 O16 2.808671 1_545
Na6 O56 2.408894 1_555
Na6 O130 2.462699 1_555
Na6 O86 2.523894 1_555
Na6 O85 2.571778 1_455
Na6 O128 2.688688 1_555
Na6 O42 2.744399 1_555
Na6 O14 2.886752 1_555
Na7 O131 2.412389 1_555
Na7 O129 2.473444 1_555
Na7 O29 2.552065 1_555
Na7 O87 2.618983 1_555
Na7 O57 2.741322 1_555
Na7 O15 2.752435 1_555
Na7 O43 2.754842 1_555
Na7 O84 2.906883 1_555
Na8 O58 2.386237 1_555
Na8 O126 2.437125 1_555
Na8 O45 2.537117 1_455
Na8 O86 2.561977 1_565
Na8 O130 2.594714 1_555
Na8 O89 2.700339 1_455
Na8 O16 2.946209 1_555
Na9 O127 2.303616 1_555
Na9 O131 2.531464 1_555
Na9 O17 2.594741 1_555
Na9 O24 2.606372 1_555
Na9 O88 2.610456 1_555
Na9 O87 2.721909 1_565
Na9 O59 2.870761 1_555
Na9 O44 2.974088 1_555
Na10 O126 2.423108 1_555
Na10 O128 2.450768 1_555
Na10 O84 2.451092 1_565
Na10 O26 2.688558 1_565
Na10 O54 2.705275 1_555
Na10 O46 2.738143 1_565
Na10 O88 2.769784 1_555
Na10 O12 2.819626 1_555
Na11 O129 2.310601 1_555
Na11 O89 2.522050 1_555
Na11 O85 2.525168 1_565
Na11 O13 2.557825 1_555
Na11 O127 2.567774 1_555
Na11 O27 2.678790 1_565
Na12 O122 2.356348 1_555
Na12 O124 2.433321 1_555
Na12 O52 2.534823 1_554
Na12 O94 2.647612 1_565
Na12 O36 2.720068 1_565
Na12 O22 2.808913 1_555
Na12 O91 2.868421 1_455
Na12 O32 2.878766 1_565
Na13 O53 2.294348 1_554
Na13 O123 2.499930 1_555
Na13 O95 2.577244 1_565
Na13 O37 2.582541 1_565
Na13 O125 2.686751 1_555
Na13 O90 2.694176 1_555
Na14 O124 2.320464 1_555
Na14 O120 2.506960 1_555
Na14 O92 2.524528 1_565
Na14 O90 2.570928 1_555
Na14 O34 2.603741 1_555
Na14 O18 2.680850 1_555
Na14 O48 2.751749 1_554
Na15 O91 2.441087 1_555
Na15 O121 2.464293 1_555
Na15 O125 2.469999 1_555
Na15 O49 2.588597 1_554
Na15 O39 2.676391 1_555
Na15 O93 2.746471 1_565
Na15 O35 2.777223 1_555
Na15 O19 2.855901 1_555
Na16 O120 2.292765 1_555
Na16 O122 2.501996 1_555
Na16 O93 2.609975 1_455
Na16 O31 2.654962 1_455
Na16 O20 2.665976 1_555
Na16 O50 2.714077 1_554
Na16 O94 2.733076 1_555
Na16 O41 2.913532 1_455
Na17 O51 2.279922 1_554
Na17 O121 2.419378 1_555
Na17 O40 2.461176 1_555
Na17 O95 2.565735 1_555
Na17 O123 2.685268 1_555
Na17 O92 2.686538 1_555
Na18 O110 2.367497 1_555
Na18 O81 2.432912 1_555
Na18 O82 2.555156 1_555
Na18 O108 2.595236 1_555
Na18 O38 2.680542 1_556
Na18 O8 2.747025 1_555
Na18 O67 2.896048 1_555
Na18 O53 2.992345 1_555
Na19 O9 2.354739 1_555
Na19 O109 2.466577 1_555
Na19 O111 2.485831 1_555
Na19 O80 2.517328 1_655
Na19 O39 2.564243 1_556
Na19 O83 2.616910 1_555
Na20 O79 2.344638 1_555
Na20 O40 2.436003 1_556
Na20 O112 2.489565 1_555
Na20 O110 2.529691 1_555
Na20 O82 2.563890 1_545
Na20 O10 2.837739 1_555
Na21 O113 2.379005 1_555
Na21 O111 2.440608 1_555
Na21 O78 2.452037 1_655
Na21 O83 2.490477 1_545
Na21 O11 2.498375 1_555
Na21 O69 2.667629 1_545
Na21 O41 2.774939 1_556
Na22 O108 2.444579 1_555
Na22 O80 2.472712 1_545
Na22 O6 2.479821 1_555
Na22 O112 2.493375 1_555
Na22 O78 2.571355 1_555
Na22 O36 2.616033 1_556
Na23 O37 2.435704 1_556
Na23 O81 2.481263 1_545
Na23 O113 2.511659 1_555
Na23 O109 2.540085 1_555
Na23 O79 2.549455 1_555
Na23 O7 2.811552 1_555
Na23 O51 2.839598 1_555
Na24 O46 2.309779 1_555
Na24 O118 2.462368 1_555
Na24 O114 2.478303 1_555
Na24 O77 2.481934 1_555
Na24 O74 2.631940 1_545
Na24 O4 2.811095 1_555
Na24 O57 2.940757 1_555
Na25 O119 2.400660 1_555
Na25 O76 2.452694 1_655
Na25 O47 2.513879 1_555
Na25 O75 2.541062 1_545
Na25 O115 2.566898 1_555
Na25 O5 2.842988 1_555
Na25 O60 2.889262 1_655
Na25 O56 2.969334 1_655
Na26 O42 2.339787 1_555
Na26 O76 2.510702 1_555
Na26 O72 2.529613 1_545
Na26 O116 2.539682 1_555
Na26 O114 2.623899 1_555
Na26 O58 2.752813 1_545
Na26 O0 2.869774 1_555
Na27 O115 2.422560 1_555
Na27 O117 2.430193 1_555
Na27 O43 2.438790 1_555
Na27 O77 2.580551 1_555
Na27 O73 2.601945 1_545
Na27 O1 2.607856 1_555
Na28 O116 2.345810 1_555
Na28 O118 2.480287 1_555
Na28 O73 2.506354 1_555
Na28 O74 2.540377 1_555
Na28 O44 2.643935 1_555
Na28 O2 2.649440 1_555
Na28 O64 2.709794 1_555
Na28 O54 2.943539 1_555
Na29 O45 2.333185 1_555
Na29 O72 2.355001 1_655
Na29 O119 2.505257 1_555
Na29 O117 2.509763 1_555
Na29 O75 2.590073 1_555
Na29 O3 2.866636 1_555
Na29 O55 2.999703 1_555
Na30 O86 2.446815 1_565
Na30 O76 2.490414 1_565
Na30 O72 2.506682 1_555
Na30 O89 2.585152 1_455
Na30 O85 2.595082 1_465
Na30 O75 2.640872 1_455
Na31 O87 2.472428 1_555
Na31 O84 2.489465 1_555
Na31 O88 2.526768 1_545
Na31 O77 2.540411 1_555
Na31 O73 2.624895 1_545
Na31 O74 2.778868 1_545
Na32 O80 2.425920 1_555
Na32 O78 2.497008 1_565
Na32 O94 2.564627 1_566
Na32 O83 2.601012 1_455
Na32 O91 2.603745 1_456
Na32 O93 2.640620 1_466
Na33 O81 2.424364 1_545
Na33 O79 2.433864 1_555
Na33 O95 2.555240 1_556
Na33 O82 2.579944 1_545
Na33 O92 2.676864 1_556
Na33 O90 2.717870 1_546
Na34 O110 2.364455 1_555
Na34 O98 2.524143 1_555
Na34 O100 2.541195 1_555
Na34 O96 2.553090 1_555
Na34 O112 2.584293 1_555
Na34 O108 2.647645 1_555
Na35 O101 2.374137 1_555
Na35 O99 2.419929 1_555
Na35 O97 2.487254 1_555
Na35 O113 2.532451 1_555
Na35 O109 2.582645 1_555
Na35 O111 2.760255 1_555
Na36 O116 2.358112 1_555
Na36 O106 2.403905 1_555
Na36 O102 2.506086 1_555
Na36 O114 2.535095 1_555
Na36 O118 2.709366 1_555
Na36 O104 2.715349 1_555
Na37 O119 2.322964 1_555
Na37 O103 2.520102 1_555
Na37 O105 2.524253 1_555
Na37 O107 2.577705 1_555
Na37 O117 2.600159 1_555
Na37 O115 2.628636 1_555
Na38 O124 2.417129 1_555
Na38 O122 2.504877 1_555
Na38 O132 2.528098 1_555
Na38 O134 2.542620 1_555
Na38 O120 2.556122 1_555
Na38 O136 2.593097 1_555
Na39 O121 2.330560 1_555
Na39 O123 2.456256 1_555
Na39 O133 2.485403 1_555
Na39 O125 2.494261 1_555
Na39 O135 2.534509 1_555
Na39 O137 2.568290 1_555
Na40 O140 2.353452 1_555
Na40 O126 2.385836 1_555
Na40 O138 2.459301 1_555
Na40 O130 2.491798 1_555
Na40 O142 2.551143 1_555
Na40 O128 2.667975 1_555
Na41 O129 2.475212 1_555
Na41 O143 2.493238 1_555
Na41 O139 2.493584 1_555
Na41 O131 2.525329 1_555
Na41 O127 2.574416 1_555
Na41 O141 2.594251 1_555
Ge0 O16 1.758084 1_555
Ge0 O86 1.812306 1_565
Ge0 O14 1.815849 1_565
Ge0 O89 1.816140 1_455
Ge1 O87 1.816964 1_555
Ge1 O84 1.823326 1_555
Ge1 O15 1.890661 1_555
Ge1 O12 1.975926 1_545
Ge1 O88 2.213301 1_545
Ge1 O17 2.227369 1_545
Ge2 O91 1.797713 1_455
Ge2 O94 1.809057 1_565
Ge2 O22 1.936544 1_555
Ge2 O19 2.076064 1_455
Ge2 O93 2.190120 1_465
Ge2 O20 2.275784 1_565
Ge3 O92 1.799185 1_555
Ge3 O95 1.808200 1_555
Ge3 O23 1.810377 1_545
Ge3 O21 2.047969 1_555
Ge3 O90 2.107206 1_545
Ge3 O18 2.228792 1_545
Ge4 O64 1.755391 1_555
Ge4 O60 1.760231 1_555
Ge4 O62 2.024196 1_555
Ge4 O136 2.062354 1_555
Ge4 O134 2.303643 1_555
Ge4 O132 2.418882 1_555
Ge5 O69 1.755332 1_555
Ge5 O67 1.782003 1_555
Ge5 O71 2.000338 1_555
Ge5 O143 2.005370 1_555
Ge5 O141 2.134044 1_555
Ge5 O139 2.366507 1_555
O0 S0 1.456073 1_545
O0 Zn0 2.072387 1_555
O1 Si0 1.620672 1_555
O1 Zn1 1.901741 1_555
O2 S1 1.495473 1_555
O2 Zn1 2.037317 1_565
O3 S2 1.458034 1_555
O3 Zn0 2.133628 1_665
O4 S4 1.481542 1_555
O4 Zn1 2.055211 1_555
O5 S3 1.470198 1_655
O5 Zn0 2.111648 1_655
O6 Si1 1.625446 1_555
O6 Zn2 1.893240 1_545
O7 S5 1.461328 1_555
O7 Zn3 2.033198 1_555
O8 S6 1.475716 1_555
O8 Zn3 2.094334 1_565
O9 Si2 1.620450 1_555
O9 Zn2 1.880142 1_655
O10 S7 1.461221 1_555
O10 Zn3 2.111547 1_555
O11 S8 1.492821 1_545
O11 Zn2 2.077140 1_645
O12 S7 1.558496 1_565
O13 S8 1.477738 1_555
O14 Si1 1.724178 1_555
O15 S5 1.565436 1_555
O16 Si2 1.683476 1_455
O17 S6 1.515714 1_555
O18 S1 1.496518 1_555
O19 S2 1.536557 1_555
O20 S3 1.513548 1_555
O21 S4 1.507488 1_555
O22 S0 1.556803 1_555
O23 Si0 1.715943 1_565
O24 Si3 1.605406 1_555
O24 Zn4 1.919553 1_555
O25 S9 1.461213 1_555
O25 Zn5 2.239296 1_555
O26 Si4 1.609936 1_555
O26 Zn4 1.937993 1_555
O27 Si5 1.589846 1_555
O27 Zn5 1.941216 1_555
O28 S10 1.469502 1_555
O28 Zn4 2.210016 1_555
O29 Si6 1.583337 1_555
O29 Zn5 1.905780 1_555
O30 S11 1.471336 1_555
O30 Zn6 2.235129 1_555
O31 Si7 1.607168 1_555
O31 Zn7 1.903789 1_555
O32 Si8 1.593256 1_555
O32 Zn6 1.854795 1_555
O33 S12 1.472895 1_555
O33 Zn7 2.193688 1_555
O34 Si9 1.607417 1_555
O34 Zn6 1.862353 1_555
O35 Si10 1.610622 1_555
O35 Zn7 1.940120 1_555
O36 Si9 1.642024 1_555
O36 Zn8 2.030870 1_554
O37 Si10 1.625935 1_555
O37 Zn9 1.965515 1_554
O38 S11 1.479596 1_555
O38 Zn8 2.250134 1_554
O39 Si7 1.644479 1_555
O39 Zn9 2.001060 1_554
O40 Si8 1.641178 1_555
O40 Zn8 1.984967 1_554
O41 S12 1.475557 1_555
O41 Zn9 2.298986 1_554
O42 Si4 1.626255 1_555
O42 Zn10 1.924264 1_555
O43 Si5 1.657940 1_555
O43 Zn11 2.003212 1_555
O44 S10 1.489299 1_555
O44 Zn10 2.213704 1_555
O45 Si6 1.649765 1_555
O45 Zn11 1.966501 1_555
O46 Si3 1.652397 1_555
O46 Zn10 2.001464 1_555
O47 S9 1.494230 1_555
O47 Zn11 2.148091 1_555
O48 S13 1.475725 1_555
O48 Zn12 2.172538 1_556
O49 S14 1.480858 1_555
O49 Zn13 2.095850 1_556
O50 S15 1.475174 1_555
O50 Zn12 2.163086 1_556
O51 Si11 1.611146 1_555
O51 Zn13 1.904307 1_556
O52 S16 1.478203 1_555
O52 Zn12 2.160515 1_556
O53 Si12 1.622793 1_555
O53 Zn13 1.947314 1_556
O54 S17 1.472954 1_555
O54 Zn14 2.210285 1_555
O55 S18 1.466627 1_555
O55 Zn15 2.173299 1_555
O56 Si13 1.616226 1_555
O56 Zn14 1.947013 1_555
O57 S19 1.467518 1_555
O57 Zn15 2.266927 1_555
O58 Si14 1.605640 1_555
O58 Zn14 1.919901 1_555
O59 S20 1.466586 1_555
O59 Zn15 2.221388 1_555
O60 Si14 1.731809 1_555
O61 S20 1.495848 1_555
O61 Zn16 2.056641 1_555
O62 S17 1.520033 1_555
O63 S18 1.502775 1_555
O63 Zn16 2.033448 1_555
O64 Si13 1.715144 1_555
O65 S19 1.495532 1_555
O65 Zn16 2.150099 1_555
O66 S15 1.486703 1_555
O66 Zn17 2.062438 1_555
O67 Si11 1.718640 1_555
O68 S16 1.480881 1_555
O68 Zn17 2.242892 1_555
O69 Si12 1.704430 1_555
O70 S13 1.492557 1_555
O70 Zn17 2.158015 1_555
O71 S14 1.513620 1_555
O72 Si14 1.624819 1_555
O72 Zn0 1.960933 1_565
O73 S20 1.506657 1_555
O73 Zn1 2.354105 1_565
O74 S17 1.497174 1_555
O74 Zn1 2.264717 1_565
O75 S18 1.488870 1_555
O75 Zn0 2.265389 1_665
O76 Si13 1.627227 1_555
O76 Zn0 1.988201 1_555
O77 S19 1.514372 1_555
O77 Zn1 2.294818 1_555
O78 S15 1.494379 1_555
O79 Si11 1.631640 1_555
O79 Zn3 1.979098 1_555
O80 S16 1.495354 1_555
O80 Zn2 2.503878 1_555
O81 Si12 1.633562 1_555
O81 Zn3 2.003062 1_565
O82 S13 1.496085 1_555
O82 Zn3 2.255451 1_565
O83 S14 1.480110 1_555
O83 Zn2 2.482433 1_655
O84 Si3 1.715110 1_555
O85 S9 1.490825 1_555
O86 Si4 1.686214 1_555
O87 Si5 1.742028 1_555
O88 S10 1.521760 1_555
O89 Si6 1.697510 1_555
O90 S11 1.517759 1_555
O91 Si7 1.727277 1_555
O92 Si8 1.702761 1_555
O93 S12 1.520631 1_555
O94 Si9 1.728289 1_555
O95 Si10 1.696317 1_555
O96 S7 1.463492 1_555
O96 Zn4 2.340663 1_555
O97 S8 1.451445 1_545
O98 Si1 1.646285 1_555
O98 Zn4 2.058708 1_555
O99 S5 1.443093 1_555
O99 Zn5 2.238808 1_555
O100 S6 1.468282 1_555
O100 Zn4 2.494556 1_555
O101 Si2 1.619446 1_555
O101 Zn5 1.999179 1_555
O102 S1 1.475954 1_555
O102 Zn6 2.534996 1_555
O103 S2 1.466514 1_555
O103 Zn7 2.385171 1_555
O104 S4 1.459992 1_555
O104 Zn6 2.503967 1_555
O105 S3 1.466014 1_655
O105 Zn7 2.532544 1_555
O106 S0 1.466466 1_545
O106 Zn6 2.229433 1_555
O107 Si0 1.634022 1_555
O107 Zn7 2.086007 1_555
O108 S13 1.486265 1_555
O109 S14 1.477837 1_555
O109 Zn9 2.394940 1_555
O110 Si11 1.642014 1_555
O110 Zn8 2.193781 1_555
O111 S15 1.487933 1_655
O111 Zn9 2.396304 1_555
O112 S16 1.500545 1_545
O112 Zn8 2.271163 1_555
O113 Si12 1.636275 1_545
O113 Zn9 2.083680 1_555
O114 S17 1.473825 1_545
O114 Zn10 2.518392 1_555
O115 S18 1.481075 1_545
O115 Zn11 2.596280 1_555
O116 Si13 1.641214 1_555
O116 Zn10 2.174852 1_555
O117 S19 1.484908 1_555
O117 Zn11 2.504342 1_555
O118 S20 1.484260 1_555
O118 Zn10 2.437973 1_555
O119 Si14 1.631468 1_655
O119 Zn11 2.258512 1_555
O120 Si9 1.614755 1_555
O120 Zn12 2.000823 1_555
O121 Si10 1.635355 1_555
O121 Zn13 2.099543 1_555
O122 Si7 1.617931 1_455
O122 Zn12 2.026738 1_555
O123 S11 1.478205 1_555
O123 Zn13 2.402054 1_555
O124 Si8 1.614074 1_565
O124 Zn12 2.021892 1_555
O125 S12 1.477868 1_565
O125 Zn13 2.447265 1_555
O126 Si4 1.636516 1_565
O126 Zn14 2.034592 1_555
O127 Si5 1.622842 1_565
O127 Zn15 1.994711 1_555
O128 S10 1.474516 1_555
O128 Zn14 2.434782 1_555
O129 Si6 1.616947 1_555
O129 Zn15 1.964127 1_555
O130 S9 1.486762 1_455
O130 Zn14 2.273731 1_555
O131 Si3 1.621916 1_555
O131 Zn15 1.999636 1_555
O132 S0 1.486079 1_555
O133 Si0 1.651599 1_565
O133 Zn16 2.045118 1_555
O134 S1 1.503422 1_555
O135 S2 1.503585 1_555
O135 Zn16 2.340618 1_555
O136 S3 1.531630 1_555
O137 S4 1.502611 1_555
O137 Zn16 2.246714 1_555
O138 Si1 1.635241 1_555
O138 Zn17 2.058952 1_555
O139 S5 1.486534 1_555
O140 Si2 1.647533 1_455
O140 Zn17 1.969983 1_555
O141 S6 1.516733 1_555
O142 S7 1.489210 1_565
O142 Zn17 2.399333 1_555
O143 S8 1.561937 1_555
