# generated using pymatgen
data_K2SbCl5
_symmetry_space_group_name_H-M   'P 1'
_cell_length_a   12.47534312
_cell_length_b   8.90189880
_cell_length_c   8.93670008
_cell_angle_alpha   69.68814807
_cell_angle_beta   90.00000000
_cell_angle_gamma   90.00000000
_symmetry_Int_Tables_number   1
_chemical_formula_structural   K2SbCl5
_chemical_formula_sum   'K8 Sb4 Cl20'
_cell_volume   930.74455706
_cell_formula_units_Z   4
loop_
 _symmetry_equiv_pos_site_id
 _symmetry_equiv_pos_as_xyz
  1  'x, y, z'
loop_
 _atom_site_type_symbol
 _atom_site_label
 _atom_site_symmetry_multiplicity
 _atom_site_fract_x
 _atom_site_fract_y
 _atom_site_fract_z
 _atom_site_occupancy
  K  K0  1  0.67333937  0.91031714  0.18441947  1
  K  K1  1  0.12849425  0.15732220  0.37320608  1
  K  K2  1  0.62849425  0.34267780  0.62679392  1
  K  K3  1  0.87150575  0.84267780  0.62679392  1
  K  K4  1  0.82666063  0.41031714  0.18441947  1
  K  K5  1  0.32666063  0.08968286  0.81558053  1
  K  K6  1  0.37150575  0.65732220  0.37320608  1
  K  K7  1  0.17333937  0.58968286  0.81558053  1
  Sb  Sb0  1  0.49367767  0.29969165  0.18455478  1
  Sb  Sb1  1  0.99367767  0.20030835  0.81544522  1
  Sb  Sb2  1  0.50632233  0.70030835  0.81544522  1
  Sb  Sb3  1  0.00632233  0.79969165  0.18455478  1
  Cl  Cl0  1  0.88516186  0.64258946  0.38919984  1
  Cl  Cl1  1  0.42486478  0.03631844  0.16944806  1
  Cl  Cl2  1  0.92486478  0.46368156  0.83055194  1
  Cl  Cl3  1  0.57513522  0.96368156  0.83055194  1
  Cl  Cl4  1  0.90568860  0.04962094  0.24320086  1
  Cl  Cl5  1  0.40568860  0.45037906  0.75679914  1
  Cl  Cl6  1  0.09431140  0.95037906  0.75679914  1
  Cl  Cl7  1  0.59431140  0.54962094  0.24320086  1
  Cl  Cl8  1  0.84697315  0.79735062  0.99123730  1
  Cl  Cl9  1  0.34697315  0.70264938  0.00876270  1
  Cl  Cl10  1  0.15302685  0.20264938  0.00876270  1
  Cl  Cl11  1  0.65302685  0.29735062  0.99123730  1
  Cl  Cl12  1  0.13904501  0.78895528  0.41696491  1
  Cl  Cl13  1  0.61483814  0.14258946  0.38919984  1
  Cl  Cl14  1  0.86095499  0.21104472  0.58303509  1
  Cl  Cl15  1  0.36095499  0.28895528  0.41696491  1
  Cl  Cl16  1  0.63904501  0.71104472  0.58303509  1
  Cl  Cl17  1  0.38516186  0.85741054  0.61080016  1
  Cl  Cl18  1  0.11483814  0.35741054  0.61080016  1
  Cl  Cl19  1  0.07513522  0.53631844  0.16944806  1
loop_
_geom_bond_atom_site_label_1
_geom_bond_atom_site_label_2
_geom_bond_distance
_geom_bond_site_symmetry_2
Cl0 Sb3 2.410296 1_655
Cl0 K3 3.214914 1_555
Cl0 K4 3.283907 1_555
Cl0 K0 3.603364 1_555
Cl1 Sb0 2.543957 1_555
Cl1 K5 3.268709 1_554
Cl1 K0 3.283384 1_545
Cl1 K6 3.297908 1_545
Cl2 Sb1 2.543957 1_555
Cl2 K4 3.268709 1_556
Cl2 K7 3.283384 1_655
Cl2 K3 3.297908 1_555
Cl3 Sb2 2.543957 1_555
Cl3 K0 3.268709 1_556
Cl3 K5 3.283384 1_565
Cl3 K2 3.297908 1_565
Cl4 Sb3 2.758675 1_645
Cl4 K4 3.222839 1_555
Cl4 K0 3.266201 1_545
Cl4 K1 3.281522 1_655
Cl4 K3 3.307982 1_545
Cl5 Sb2 2.758675 1_555
Cl5 K5 3.222839 1_555
Cl5 K7 3.266201 1_555
Cl5 K2 3.281522 1_555
Cl5 K6 3.307982 1_555
Cl6 Sb1 2.758675 1_465
Cl6 K7 3.222839 1_555
Cl6 K5 3.266201 1_565
Cl6 K3 3.281522 1_455
Cl6 K1 3.307982 1_565
Cl7 Sb0 2.758675 1_555
Cl7 K0 3.222839 1_555
Cl7 K4 3.266201 1_555
Cl7 K6 3.281522 1_555
Cl7 K2 3.307982 1_555
Cl8 Sb3 2.638558 1_656
Cl8 K0 3.144715 1_556
Cl8 K3 3.154623 1_555
Cl8 K4 3.284133 1_556
Cl9 Sb2 2.638558 1_554
Cl9 K7 3.144715 1_554
Cl9 K6 3.154623 1_555
Cl9 K5 3.284133 1_564
Cl10 Sb1 2.638558 1_454
Cl10 K5 3.144715 1_554
Cl10 K1 3.154623 1_555
Cl10 K7 3.284133 1_554
Cl11 Sb0 2.638558 1_556
Cl11 K4 3.144715 1_556
Cl11 K2 3.154623 1_555
Cl11 K0 3.284133 1_546
Cl12 Sb3 2.631864 1_555
Cl12 K1 3.167474 1_565
Cl12 K6 3.202234 1_555
Cl12 K7 3.410668 1_555
Cl13 Sb0 2.410296 1_555
Cl13 K2 3.214914 1_555
Cl13 K0 3.283907 1_545
Cl13 K4 3.603364 1_555
Cl14 Sb1 2.631864 1_555
Cl14 K3 3.167474 1_545
Cl14 K2 3.202234 1_555
Cl14 K4 3.410668 1_555
Cl15 Sb0 2.631864 1_555
Cl15 K6 3.167474 1_555
Cl15 K1 3.202234 1_555
Cl15 K5 3.410668 1_555
Cl16 Sb2 2.631864 1_555
Cl16 K2 3.167474 1_555
Cl16 K3 3.202234 1_555
Cl16 K0 3.410668 1_555
Cl17 Sb2 2.410296 1_555
Cl17 K6 3.214914 1_555
Cl17 K5 3.283907 1_565
Cl17 K7 3.603364 1_555
Cl18 Sb1 2.410296 1_455
Cl18 K1 3.214914 1_555
Cl18 K7 3.283907 1_555
Cl18 K5 3.603364 1_555
Cl19 Sb3 2.543957 1_555
Cl19 K7 3.268709 1_554
Cl19 K4 3.283384 1_455
Cl19 K1 3.297908 1_555
