# generated using pymatgen
data_Pr2O3
_symmetry_space_group_name_H-M   'P 1'
_cell_length_a   3.88935641
_cell_length_b   3.88935810
_cell_length_c   6.05917112
_cell_angle_alpha   90.00000000
_cell_angle_beta   90.00000000
_cell_angle_gamma   120.00001169
_symmetry_Int_Tables_number   1
_chemical_formula_structural   Pr2O3
_chemical_formula_sum   'Pr2 O3'
_cell_volume   79.37787575
_cell_formula_units_Z   1
loop_
 _symmetry_equiv_pos_site_id
 _symmetry_equiv_pos_as_xyz
  1  'x, y, z'
loop_
 _atom_site_type_symbol
 _atom_site_label
 _atom_site_symmetry_multiplicity
 _atom_site_fract_x
 _atom_site_fract_y
 _atom_site_fract_z
 _atom_site_occupancy
  Pr  Pr0  1  0.66666700  0.33333300  0.75276132  1
  Pr  Pr1  1  0.33333300  0.66666700  0.24723868  1
  O  O0  1  0.66666700  0.33333300  0.35445467  1
  O  O1  1  0.33333300  0.66666700  0.64554533  1
  O  O2  1  -0.00000000  -0.00000000  0.00000000  1
loop_
_geom_bond_atom_site_label_1
_geom_bond_atom_site_label_2
_geom_bond_distance
_geom_bond_site_symmetry_2
O0 Pr1 2.337602 1_655
O0 Pr1 2.337603 1_545
O0 Pr1 2.337610 1_555
O0 Pr0 2.413408 1_555
O1 Pr0 2.337602 1_455
O1 Pr0 2.337603 1_565
O1 Pr0 2.337610 1_555
O1 Pr1 2.413408 1_555
O2 Pr1 2.699360 1_545
O2 Pr0 2.699360 1_454
O2 Pr0 2.699362 1_554
O2 Pr1 2.699362 1_445
O2 Pr0 2.699363 1_444
O2 Pr1 2.699363 1_555
