# generated using pymatgen
data_Na6Sc3TaSi2(PO6)4
_symmetry_space_group_name_H-M   'P 1'
_cell_length_a   9.05096150
_cell_length_b   9.07057143
_cell_length_c   22.58185697
_cell_angle_alpha   89.96103075
_cell_angle_beta   90.04013723
_cell_angle_gamma   119.98100756
_symmetry_Int_Tables_number   1
_chemical_formula_structural   Na6Sc3TaSi2(PO6)4
_chemical_formula_sum   'Na18 Sc9 Ta3 Si6 P12 O72'
_cell_volume   1605.84119547
_cell_formula_units_Z   3
loop_
 _symmetry_equiv_pos_site_id
 _symmetry_equiv_pos_as_xyz
  1  'x, y, z'
loop_
 _atom_site_type_symbol
 _atom_site_label
 _atom_site_symmetry_multiplicity
 _atom_site_fract_x
 _atom_site_fract_y
 _atom_site_fract_z
 _atom_site_occupancy
  Na  Na0  1  0.99530078  0.98877932  0.50301233  1
  Na  Na1  1  0.97780995  0.99030270  0.99552619  1
  Na  Na2  1  0.66232046  0.33446478  0.82873870  1
  Na  Na3  1  0.66159102  0.33614823  0.32819814  1
  Na  Na4  1  0.33422788  0.65711238  0.16224919  1
  Na  Na5  1  0.33136253  0.66366834  0.66555587  1
  Na  Na6  1  0.64420844  0.01015670  0.24610279  1
  Na  Na7  1  0.99566388  0.35408635  0.74682041  1
  Na  Na8  1  0.36165790  0.00750283  0.75050206  1
  Na  Na9  1  0.30092964  0.33359973  0.58729325  1
  Na  Na10  1  0.66807682  0.96775934  0.58456933  1
  Na  Na11  1  0.29481289  0.96101063  0.08302376  1
  Na  Na12  1  0.03846175  0.33712952  0.08179235  1
  Na  Na13  1  0.97888254  0.68217097  0.91554965  1
  Na  Na14  1  0.32063702  0.29303223  0.91418424  1
  Na  Na15  1  0.96026104  0.29099935  0.41683170  1
  Na  Na16  1  0.33483713  0.03704821  0.41382304  1
  Na  Na17  1  0.70270970  0.67299988  0.41826369  1
  Sc  Sc0  1  0.00320616  0.00116546  0.34812760  1
  Sc  Sc1  1  0.99910630  0.00283344  0.85244557  1
  Sc  Sc2  1  0.00130947  0.99762361  0.65141819  1
  Sc  Sc3  1  0.99945228  0.99171819  0.14950681  1
  Sc  Sc4  1  0.66573248  0.34220606  0.68463129  1
  Sc  Sc5  1  0.66259874  0.33788901  0.18731934  1
  Sc  Sc6  1  0.66727392  0.33138387  0.48252991  1
  Sc  Sc7  1  0.34071575  0.66854481  0.01711959  1
  Sc  Sc8  1  0.33305569  0.67022809  0.51893793  1
  Ta  Ta0  1  0.66693643  0.33160653  0.97770537  1
  Ta  Ta1  1  0.33197178  0.66981562  0.31176664  1
  Ta  Ta2  1  0.33848507  0.66443024  0.81667315  1
  Si  Si0  1  0.29614643  0.00278090  0.25027476  1
  Si  Si1  1  0.29713522  0.29805493  0.75013210  1
  Si  Si2  1  0.62958198  0.66978995  0.91890460  1
  Si  Si3  1  0.04091324  0.37465050  0.91903061  1
  Si  Si4  1  0.33532709  0.95758918  0.91840893  1
  Si  Si5  1  0.62850068  0.96028051  0.41774844  1
  P  P0  1  0.70449561  0.70546569  0.25252509  1
  P  P1  1  0.00363167  0.29630857  0.24985992  1
  P  P2  1  0.00295289  0.70456012  0.75227225  1
  P  P3  1  0.70229071  0.99633080  0.74875221  1
  P  P4  1  0.96265729  0.33248055  0.58373879  1
  P  P5  1  0.37101639  0.03886938  0.58357335  1
  P  P6  1  0.66869211  0.63023536  0.58097223  1
  P  P7  1  0.95445507  0.62279767  0.08329472  1
  P  P8  1  0.66740262  0.04471346  0.08510598  1
  P  P9  1  0.37526129  0.33373519  0.08332152  1
  P  P10  1  0.33272860  0.37812837  0.41704247  1
  P  P11  1  0.04386871  0.66655177  0.41599812  1
  O  O0  1  0.21111157  0.02262622  0.31064574  1
  O  O1  1  0.80433779  0.78622890  0.30983727  1
  O  O2  1  0.97340978  0.18529126  0.30558080  1
  O  O3  1  0.21084568  0.18160972  0.80829897  1
  O  O4  1  0.97782934  0.78058244  0.80885753  1
  O  O5  1  0.81820012  0.02474121  0.80164472  1
  O  O6  1  0.77541221  0.96652581  0.69112727  1
  O  O7  1  0.17580557  0.21661076  0.69126503  1
  O  O8  1  0.03426401  0.82156682  0.69839471  1
  O  O9  1  0.78295408  0.82763489  0.19937525  1
  O  O10  1  0.03215331  0.21620840  0.19399815  1
  O  O11  1  0.18060928  0.96876839  0.19118350  1
  O  O12  1  0.87595926  0.35141648  0.63958278  1
  O  O13  1  0.48381205  0.12515608  0.63841794  1
  O  O14  1  0.64170095  0.51245274  0.63403472  1
  O  O15  1  0.86509117  0.50871252  0.13632536  1
  O  O16  1  0.64549827  0.12779680  0.14103607  1
  O  O17  1  0.48418991  0.35094412  0.13736743  1
  O  O18  1  0.46963426  0.31508075  0.02689493  1
  O  O19  1  0.84548514  0.52953480  0.02604293  1
  O  O20  1  0.68544479  0.16509390  0.03049863  1
  O  O21  1  0.45600673  0.14969295  0.52707123  1
  O  O22  1  0.68867534  0.54845744  0.52320339  1
  O  O23  1  0.85225857  0.30990907  0.52743738  1
  O  O24  1  0.53894479  0.69404505  0.97544243  1
  O  O25  1  0.15337291  0.45743969  0.97733169  1
  O  O26  1  0.30011613  0.84304423  0.97670952  1
  O  O27  1  0.54085038  0.84201118  0.47541857  1
  O  O28  1  0.30279821  0.45473917  0.47329158  1
  O  O29  1  0.15614401  0.69467488  0.47016675  1
  O  O30  1  0.13632146  0.64127733  0.36132225  1
  O  O31  1  0.49981538  0.85522652  0.36023103  1
  O  O32  1  0.35244361  0.49535900  0.36333367  1
  O  O33  1  0.13435844  0.50363319  0.86055248  1
  O  O34  1  0.36482569  0.86568124  0.85928039  1
  O  O35  1  0.49806356  0.63133435  0.86120331  1
  O  O36  1  0.02459538  0.82593681  0.40990422  1
  O  O37  1  0.81769374  0.98125946  0.41135280  1
  O  O38  1  0.17437599  0.19767431  0.41046008  1
  O  O39  1  0.02186631  0.18994131  0.90975307  1
  O  O40  1  0.17346423  0.98561539  0.91029802  1
  O  O41  1  0.82230889  0.81983911  0.91026217  1
  O  O42  1  0.97439288  0.16584320  0.58627176  1
  O  O43  1  0.19479423  0.02693275  0.58828216  1
  O  O44  1  0.82262409  0.81162140  0.58697139  1
  O  O45  1  0.97285244  0.80189205  0.08513131  1
  O  O46  1  0.83541785  0.03981058  0.08550071  1
  O  O47  1  0.19838289  0.16664762  0.08458695  1
  O  O48  1  0.68057731  0.15562823  0.74389567  1
  O  O49  1  0.48357697  0.31304487  0.74399815  1
  O  O50  1  0.85535005  0.51962027  0.74466582  1
  O  O51  1  0.68141435  0.52811317  0.24550748  1
  O  O52  1  0.84506460  0.31686785  0.24471047  1
  O  O53  1  0.49341293  0.15615322  0.24641404  1
  O  O54  1  0.63432898  0.48739841  0.92458700  1
  O  O55  1  0.85525421  0.36947521  0.92394970  1
  O  O56  1  0.50733667  0.14995541  0.92518263  1
  O  O57  1  0.63890664  0.14642516  0.41882253  1
  O  O58  1  0.49804899  0.36670000  0.41914714  1
  O  O59  1  0.86631481  0.50361616  0.41885173  1
  O  O60  1  0.34715535  0.48717816  0.08035128  1
  O  O61  1  0.13388380  0.64062295  0.07966890  1
  O  O62  1  0.50419059  0.87104595  0.07919298  1
  O  O63  1  0.35922717  0.86289645  0.57866838  1
  O  O64  1  0.50171485  0.64278010  0.57895982  1
  O  O65  1  0.14528974  0.48645642  0.57910847  1
  O  O66  1  0.31516730  0.82544224  0.25811501  1
  O  O67  1  0.52118141  0.68820637  0.25957849  1
  O  O68  1  0.16668363  0.47556869  0.25957914  1
  O  O69  1  0.30664752  0.48689279  0.75770918  1
  O  O70  1  0.17256566  0.69313935  0.75657877  1
  O  O71  1  0.51727372  0.83797800  0.75707001  1
loop_
_geom_bond_atom_site_label_1
_geom_bond_atom_site_label_2
_geom_bond_distance
_geom_bond_site_symmetry_2
Na0 O44 2.471733 1_555
Na0 O42 2.541379 1_565
Na0 O43 2.541506 1_665
Na0 O37 2.599798 1_555
Na0 O36 2.658797 1_655
Na0 O38 2.741422 1_665
Na1 O41 2.429852 1_555
Na1 O39 2.542524 1_665
Na1 O46 2.564007 1_566
Na1 O40 2.630971 1_655
Na1 O45 2.633591 1_556
Na1 O47 2.719589 1_666
Na2 O49 2.449268 1_555
Na2 O50 2.558350 1_555
Na2 O48 2.569428 1_555
Na2 O54 2.651294 1_555
Na2 O56 2.676726 1_555
Na2 O55 2.685946 1_555
Na3 O53 2.431006 1_555
Na3 O51 2.496945 1_555
Na3 O52 2.576370 1_555
Na3 O57 2.614257 1_555
Na3 O58 2.626958 1_555
Na3 O59 2.667853 1_555
Na4 O60 2.448335 1_555
Na4 O61 2.551975 1_555
Na4 O62 2.581745 1_555
Na4 O67 2.700390 1_555
Na4 O66 2.704770 1_555
Na4 O68 2.710350 1_555
Na5 O65 2.554422 1_555
Na5 O64 2.556145 1_555
Na5 O69 2.566958 1_555
Na5 O63 2.592180 1_555
Na5 O70 2.598269 1_555
Na5 O71 2.634871 1_555
Na6 O53 2.328725 1_555
Na6 O52 2.447641 1_555
Na6 O67 2.570969 1_545
Na6 O16 2.598489 1_555
Na6 O66 2.600709 1_545
Na6 O9 2.741066 1_545
Na6 O2 2.910707 1_555
Na6 O31 2.913627 1_545
Na7 O50 2.403173 1_555
Na7 O69 2.458626 1_655
Na7 O48 2.499394 1_555
Na7 O12 2.647429 1_555
Na7 O70 2.673840 1_655
Na7 O7 2.797178 1_655
Na7 O5 2.870382 1_555
Na7 O33 2.882761 1_655
Na8 O49 2.421429 1_555
Na8 O70 2.490217 1_545
Na8 O48 2.506747 1_555
Na8 O71 2.556212 1_545
Na8 O13 2.754740 1_555
Na8 O34 2.778867 1_545
Na8 O8 2.830690 1_545
Na8 O3 2.867127 1_555
Na9 O65 2.427397 1_555
Na9 O43 2.447490 1_555
Na9 O64 2.471652 1_555
Na9 O42 2.560489 1_455
Na9 O7 2.592371 1_555
Na9 O28 2.795116 1_555
Na9 O14 2.873305 1_555
Na9 O21 2.991318 1_555
Na10 O42 2.436735 1_565
Na10 O44 2.438257 1_555
Na10 O63 2.465554 1_555
Na10 O64 2.556709 1_555
Na10 O6 2.596465 1_555
Na10 O27 2.718368 1_555
Na10 O13 2.946739 1_565
Na10 O23 2.983631 1_565
Na11 O62 2.410509 1_555
Na11 O47 2.422662 1_565
Na11 O61 2.518410 1_555
Na11 O45 2.524627 1_455
Na11 O26 2.639309 1_554
Na11 O11 2.667472 1_555
Na12 O46 2.388296 1_455
Na12 O60 2.420603 1_555
Na12 O61 2.439293 1_555
Na12 O25 2.588955 1_554
Na12 O47 2.593656 1_555
Na12 O10 2.749606 1_555
Na13 O41 2.313016 1_555
Na13 O40 2.417998 1_655
Na13 O55 2.482029 1_555
Na13 O4 2.570450 1_555
Na13 O54 2.717023 1_555
Na13 O19 2.815884 1_556
Na13 O26 2.871772 1_655
Na13 O33 2.903100 1_655
Na14 O39 2.381063 1_555
Na14 O40 2.417735 1_545
Na14 O54 2.494287 1_555
Na14 O3 2.592765 1_555
Na14 O56 2.606172 1_555
Na14 O18 2.839559 1_556
Na14 O35 2.915346 1_555
Na14 O25 2.968413 1_555
Na15 O37 2.439419 1_545
Na15 O59 2.466478 1_555
Na15 O38 2.476495 1_655
Na15 O57 2.523798 1_555
Na15 O2 2.713425 1_555
Na15 O23 2.719369 1_555
Na16 O57 2.417039 1_555
Na16 O36 2.487050 1_545
Na16 O38 2.520370 1_555
Na16 O0 2.559315 1_555
Na16 O58 2.592915 1_555
Na16 O21 2.768845 1_555
Na17 O58 2.450954 1_555
Na17 O37 2.452944 1_555
Na17 O36 2.531602 1_655
Na17 O22 2.600249 1_555
Na17 O59 2.612885 1_555
Na17 O1 2.636568 1_555
Na17 O27 2.900358 1_555
Na17 O32 3.012858 1_555
O0 Si0 1.619748 1_555
O0 Sc0 1.982720 1_555
O1 P0 1.538278 1_555
O1 Sc0 2.069142 1_665
O2 P1 1.547770 1_655
O2 Sc0 2.057369 1_655
O3 Si1 1.620497 1_555
O3 Sc1 2.047130 1_455
O4 P2 1.522597 1_655
O4 Sc1 2.164345 1_565
O5 P3 1.523840 1_545
O5 Sc1 2.087761 1_555
O6 P3 1.544320 1_555
O6 Sc2 2.118918 1_655
O7 Si1 1.645386 1_555
O7 Sc2 2.028468 1_545
O8 P2 1.544372 1_555
O8 Sc2 2.058591 1_555
O9 P0 1.544574 1_555
O9 Sc3 2.099776 1_555
O10 P1 1.541092 1_555
O10 Sc3 2.154850 1_445
O11 Si0 1.626495 1_565
O11 Sc3 1.989021 1_455
O12 P4 1.540102 1_555
O12 Sc4 2.122742 1_555
O13 P5 1.545853 1_555
O13 Sc4 2.106376 1_555
O14 P6 1.541003 1_555
O14 Sc4 2.017515 1_555
O15 P7 1.523907 1_555
O15 Sc5 2.061126 1_555
O16 P8 1.534076 1_555
O16 Sc5 2.110817 1_555
O17 P9 1.526651 1_555
O17 Sc5 2.020466 1_555
O18 P9 1.590008 1_555
O18 Ta0 2.044588 1_554
O19 P7 1.589240 1_555
O19 Ta0 2.031452 1_554
O20 P8 1.599944 1_555
O20 Ta0 1.995162 1_554
O21 P5 1.567487 1_555
O21 Sc6 2.057920 1_555
O22 P6 1.555784 1_555
O22 Sc6 2.092618 1_555
O23 P4 1.565534 1_555
O23 Sc6 2.047650 1_555
O24 Si2 1.591745 1_555
O24 Sc7 1.935354 1_556
O25 Si3 1.602752 1_555
O25 Sc7 2.025900 1_556
O26 Si4 1.606900 1_555
O26 Sc7 2.012932 1_556
O27 Si5 1.620235 1_555
O27 Sc8 2.000638 1_555
O28 P10 1.536077 1_555
O28 Sc8 2.103654 1_555
O29 P11 1.527622 1_555
O29 Sc8 2.044039 1_555
O30 P11 1.571868 1_555
O30 Ta1 1.999842 1_555
O31 Si5 1.685808 1_555
O31 Ta1 1.944405 1_555
O32 P10 1.562836 1_555
O32 Ta1 2.045637 1_555
O33 Si3 1.684775 1_555
O33 Ta2 1.957039 1_555
O34 Si4 1.665406 1_555
O34 Ta2 1.970278 1_555
O35 Si2 1.679264 1_555
O35 Ta2 1.902185 1_555
O36 P11 1.546350 1_555
O36 Sc0 2.194080 1_565
O37 Si5 1.632163 1_555
O37 Sc0 2.142504 1_665
O38 P10 1.552701 1_555
O38 Sc0 2.190679 1_555
O39 Si3 1.610093 1_555
O39 Sc1 2.061736 1_455
O40 Si4 1.617471 1_555
O40 Sc1 2.112982 1_465
O41 Si2 1.600202 1_555
O41 Sc1 2.089441 1_565
O42 P4 1.568281 1_555
O42 Sc2 2.218048 1_645
O43 P5 1.547456 1_555
O43 Sc2 2.169758 1_545
O44 P6 1.541260 1_555
O44 Sc2 2.202964 1_655
O45 P7 1.548595 1_555
O45 Sc3 2.173609 1_555
O46 P8 1.543423 1_555
O46 Sc3 2.264302 1_545
O47 P9 1.560711 1_555
O47 Sc3 2.248103 1_445
O48 P3 1.556277 1_545
O48 Sc4 2.212946 1_555
O49 Si1 1.629799 1_555
O49 Sc4 2.037680 1_555
O50 P2 1.545507 1_655
O50 Sc4 2.147664 1_555
O51 P0 1.523503 1_555
O51 Sc5 2.107566 1_555
O52 P1 1.541193 1_655
O52 Sc5 2.180544 1_555
O53 Si0 1.627393 1_555
O53 Sc5 2.078487 1_555
O54 Si2 1.681095 1_555
O54 Ta0 1.984150 1_555
O55 Si3 1.661228 1_655
O55 Ta0 1.978364 1_555
O56 Si4 1.666387 1_545
O56 Ta0 1.956977 1_555
O57 Si5 1.643595 1_545
O57 Sc6 2.126608 1_555
O58 P10 1.551405 1_555
O58 Sc6 2.232454 1_555
O59 P11 1.548311 1_655
O59 Sc6 2.222972 1_555
O60 P9 1.536250 1_555
O60 Sc7 2.200257 1_555
O61 P7 1.551764 1_455
O61 Sc7 2.256789 1_555
O62 P8 1.534864 1_565
O62 Sc7 2.193704 1_555
O63 P5 1.549656 1_565
O63 Sc8 2.125703 1_555
O64 P6 1.571885 1_555
O64 Sc8 2.146131 1_555
O65 P4 1.544888 1_455
O65 Sc8 2.163778 1_555
O66 Si0 1.710203 1_565
O66 Ta1 1.922412 1_555
O67 P0 1.594823 1_555
O67 Ta1 2.016558 1_555
O68 P1 1.572179 1_555
O68 Ta1 2.024178 1_555
O69 Si1 1.680356 1_555
O69 Ta2 1.996961 1_555
O70 P2 1.592363 1_555
O70 Ta2 2.133559 1_555
O71 P3 1.580752 1_555
O71 Ta2 2.088660 1_555
