# generated using pymatgen
data_Na3Mg2Al2PS5O24
_symmetry_space_group_name_H-M   'P 1'
_cell_length_a   8.57810072
_cell_length_b   8.54898118
_cell_length_c   21.91137097
_cell_angle_alpha   89.97406867
_cell_angle_beta   90.02293316
_cell_angle_gamma   119.92850176
_symmetry_Int_Tables_number   1
_chemical_formula_structural   Na3Mg2Al2PS5O24
_chemical_formula_sum   'Na9 Mg6 Al6 P3 S15 O72'
_cell_volume   1392.57333528
_cell_formula_units_Z   3
loop_
 _symmetry_equiv_pos_site_id
 _symmetry_equiv_pos_as_xyz
  1  'x, y, z'
loop_
 _atom_site_type_symbol
 _atom_site_label
 _atom_site_symmetry_multiplicity
 _atom_site_fract_x
 _atom_site_fract_y
 _atom_site_fract_z
 _atom_site_occupancy
  Na  Na0  1  0.36208781  0.99502178  0.74833911  1
  Na  Na1  1  0.66386980  0.95958827  0.58901172  1
  Na  Na2  1  0.67125803  0.70571400  0.08193803  1
  Na  Na3  1  0.02834443  0.00277420  0.50031868  1
  Na  Na4  1  0.01788799  0.00443472  0.00026805  1
  Na  Na5  1  0.68345786  0.34104885  0.83424888  1
  Na  Na6  1  0.66673516  0.33352688  0.33404730  1
  Na  Na7  1  0.30305805  0.66286782  0.16787708  1
  Na  Na8  1  0.32757771  0.65315623  0.66724001  1
  Mg  Mg0  1  0.00481234  0.00146885  0.64568995  1
  Mg  Mg1  1  0.00687748  0.99961520  0.14588976  1
  Mg  Mg2  1  0.31693059  0.66467163  0.01821376  1
  Mg  Mg3  1  0.32747224  0.66883580  0.51719206  1
  Mg  Mg4  1  0.33122838  0.66630462  0.31772494  1
  Mg  Mg5  1  0.33988364  0.66873681  0.81826423  1
  Al  Al0  1  0.00196475  0.00058562  0.34903356  1
  Al  Al1  1  0.99040690  0.00086486  0.84866799  1
  Al  Al2  1  0.66809977  0.32704260  0.68609032  1
  Al  Al3  1  0.67497087  0.33759009  0.18713763  1
  Al  Al4  1  0.67271050  0.33871002  0.98236310  1
  Al  Al5  1  0.65868271  0.32810132  0.48151401  1
  P  P0  1  0.71134269  0.00451816  0.74689904  1
  P  P1  1  0.37972945  0.04922352  0.58376816  1
  P  P2  1  0.95266655  0.61432792  0.08449167  1
  S  S0  1  0.29839563  0.00862056  0.24984654  1
  S  S1  1  0.70907932  0.70490425  0.24892413  1
  S  S2  1  0.99344639  0.28630516  0.24959106  1
  S  S3  1  0.29218137  0.29226947  0.75008352  1
  S  S4  1  0.98988379  0.70314206  0.75075351  1
  S  S5  1  0.95295776  0.34093816  0.58230902  1
  S  S6  1  0.66553255  0.61034666  0.58319621  1
  S  S7  1  0.66515355  0.05241687  0.08367063  1
  S  S8  1  0.38454988  0.33007674  0.08326068  1
  S  S9  1  0.63831395  0.66740353  0.91851306  1
  S  S10  1  0.03028777  0.36157846  0.91649506  1
  S  S11  1  0.33230885  0.97542838  0.91532093  1
  S  S12  1  0.64127471  0.97106749  0.41715906  1
  S  S13  1  0.33170465  0.36341916  0.41604935  1
  S  S14  1  0.02605441  0.66584582  0.41590453  1
  O  O0  1  0.20951082  0.03451998  0.30480221  1
  O  O1  1  0.82896840  0.79935209  0.30209581  1
  O  O2  1  0.97142609  0.17393451  0.30485678  1
  O  O3  1  0.20688254  0.16896006  0.80385883  1
  O  O4  1  0.96643297  0.79067348  0.80628338  1
  O  O5  1  0.83182802  0.02763073  0.80260382  1
  O  O6  1  0.78807696  0.97911978  0.68746050  1
  O  O7  1  0.19037506  0.21213986  0.69454810  1
  O  O8  1  0.02949503  0.81826129  0.69687561  1
  O  O9  1  0.78499123  0.80505117  0.19191865  1
  O  O10  1  0.01660067  0.20453471  0.19465757  1
  O  O11  1  0.19291423  0.98223517  0.19487883  1
  O  O12  1  0.86777588  0.36049314  0.63879919  1
  O  O13  1  0.49346656  0.13722504  0.64313390  1
  O  O14  1  0.65257432  0.50678756  0.63907479  1
  O  O15  1  0.85744957  0.50483254  0.14263717  1
  O  O16  1  0.64145389  0.13613559  0.13954136  1
  O  O17  1  0.49378305  0.35218333  0.13886270  1
  O  O18  1  0.47043819  0.30854289  0.02756799  1
  O  O19  1  0.83307259  0.52237605  0.02783242  1
  O  O20  1  0.67881621  0.15551100  0.02788953  1
  O  O21  1  0.48069825  0.16183630  0.52730307  1
  O  O22  1  0.68555031  0.52535745  0.52737769  1
  O  O23  1  0.84288433  0.32114976  0.52758709  1
  O  O24  1  0.56285977  0.69729192  0.97503687  1
  O  O25  1  0.14081783  0.43868591  0.97113647  1
  O  O26  1  0.30069976  0.85950914  0.96845440  1
  O  O27  1  0.56889197  0.86541056  0.47387344  1
  O  O28  1  0.29971783  0.44174524  0.47082519  1
  O  O29  1  0.13763328  0.70177844  0.47058639  1
  O  O30  1  0.10406228  0.63034511  0.36196054  1
  O  O31  1  0.52306137  0.88652887  0.36486761  1
  O  O32  1  0.36255900  0.47460633  0.36176540  1
  O  O33  1  0.10894284  0.47456009  0.86241911  1
  O  O34  1  0.36421345  0.90021091  0.85907509  1
  O  O35  1  0.52327959  0.63782684  0.86567940  1
  O  O36  1  0.00461858  0.82831200  0.40582379  1
  O  O37  1  0.82336941  0.99242572  0.40655778  1
  O  O38  1  0.17162563  0.17794635  0.40712179  1
  O  O39  1  0.00831783  0.17764367  0.90743288  1
  O  O40  1  0.17091575  0.99748481  0.90698123  1
  O  O41  1  0.82180045  0.82792917  0.90909810  1
  O  O42  1  0.96408069  0.17386664  0.58505137  1
  O  O43  1  0.19578702  0.03411720  0.58655561  1
  O  O44  1  0.82451955  0.79395909  0.58570462  1
  O  O45  1  0.96761861  0.80225059  0.08671893  1
  O  O46  1  0.82982223  0.03788015  0.08690741  1
  O  O47  1  0.20468154  0.17202261  0.08704340  1
  O  O48  1  0.69413810  0.18045182  0.74397539  1
  O  O49  1  0.47594509  0.30987472  0.74563868  1
  O  O50  1  0.82191585  0.52631906  0.74351037  1
  O  O51  1  0.69482995  0.52239858  0.24581743  1
  O  O52  1  0.82341006  0.29680875  0.24589423  1
  O  O53  1  0.47951410  0.17667122  0.24466279  1
  O  O54  1  0.65995159  0.50454272  0.92459330  1
  O  O55  1  0.84466264  0.33509244  0.92503932  1
  O  O56  1  0.49336209  0.15850257  0.92469915  1
  O  O57  1  0.66683607  0.15728079  0.42434894  1
  O  O58  1  0.49315308  0.34015849  0.42366487  1
  O  O59  1  0.84137630  0.50719372  0.42513821  1
  O  O60  1  0.37478797  0.49791408  0.07849332  1
  O  O61  1  0.13645519  0.62916110  0.08028125  1
  O  O62  1  0.50762363  0.86780689  0.07949149  1
  O  O63  1  0.36792141  0.86293410  0.57985788  1
  O  O64  1  0.50115877  0.62566207  0.57993839  1
  O  O65  1  0.13216605  0.50001030  0.57813280  1
  O  O66  1  0.32381635  0.85204361  0.25815230  1
  O  O67  1  0.52926315  0.68148681  0.25766694  1
  O  O68  1  0.14809309  0.46925148  0.25696317  1
  O  O69  1  0.31220046  0.47027619  0.75924183  1
  O  O70  1  0.14495415  0.67474012  0.75927707  1
  O  O71  1  0.51855714  0.84441096  0.75575672  1
loop_
_geom_bond_atom_site_label_1
_geom_bond_atom_site_label_2
_geom_bond_distance
_geom_bond_site_symmetry_2
Na0 O71 2.282513 1_555
Na0 O49 2.362030 1_565
Na0 O70 2.436113 1_555
Na0 O48 2.475842 1_565
Na0 O34 2.560769 1_555
Na0 O13 2.587342 1_565
Na0 O8 2.718783 1_555
Na0 O3 2.728000 1_565
Na1 O63 2.252654 1_555
Na1 O42 2.299534 1_565
Na1 O6 2.374309 1_555
Na1 O44 2.420024 1_555
Na1 O64 2.482245 1_555
Na1 O27 2.649976 1_555
Na2 O45 2.249723 1_555
Na2 O60 2.262978 1_555
Na2 O62 2.415407 1_555
Na2 O46 2.464097 1_565
Na2 O24 2.507592 1_554
Na2 O9 2.579442 1_555
Na2 O19 2.821819 1_555
Na2 O17 2.900824 1_555
Na3 O43 2.306424 1_555
Na3 O38 2.466972 1_555
Na3 O36 2.500501 1_545
Na3 O44 2.574736 1_445
Na3 O42 2.588073 1_455
Na3 O37 2.676223 1_445
Na4 O47 2.438162 1_555
Na4 O40 2.446399 1_544
Na4 O45 2.452696 1_445
Na4 O39 2.540783 1_554
Na4 O41 2.562082 1_444
Na4 O46 2.598347 1_455
Na5 O48 2.435985 1_555
Na5 O55 2.437267 1_555
Na5 O50 2.448303 1_555
Na5 O54 2.489374 1_555
Na5 O56 2.546148 1_555
Na5 O49 2.556107 1_555
Na6 O51 2.451912 1_555
Na6 O52 2.461563 1_555
Na6 O53 2.462562 1_555
Na6 O58 2.482523 1_555
Na6 O57 2.486726 1_555
Na6 O59 2.492624 1_555
Na7 O61 2.323086 1_555
Na7 O68 2.474010 1_555
Na7 O66 2.505033 1_555
Na7 O62 2.613682 1_555
Na7 O60 2.659383 1_555
Na7 O67 2.711143 1_555
Na8 O65 2.479088 1_555
Na8 O64 2.506681 1_555
Na8 O69 2.513386 1_555
Na8 O63 2.525878 1_555
Na8 O71 2.538987 1_555
Na8 O70 2.616559 1_555
Mg0 O6 1.994363 1_445
Mg0 O43 1.996397 1_555
Mg0 O7 2.015754 1_555
Mg0 O8 2.021120 1_545
Mg0 O44 2.128214 1_445
Mg0 O42 2.138063 1_455
Mg1 O11 1.988994 1_555
Mg1 O10 2.018319 1_565
Mg1 O45 2.018879 1_455
Mg1 O47 2.053918 1_565
Mg1 O9 2.060965 1_455
Mg1 O46 2.139585 1_465
Mg2 O61 1.967432 1_555
Mg2 O25 2.041317 1_554
Mg2 O26 2.052365 1_554
Mg2 O62 2.158737 1_555
Mg2 O60 2.174164 1_555
Mg2 O24 2.199447 1_554
Mg3 O63 2.046062 1_555
Mg3 O29 2.056710 1_555
Mg3 O65 2.064016 1_555
Mg3 O28 2.097201 1_555
Mg3 O27 2.131012 1_555
Mg3 O64 2.189267 1_555
Mg4 O32 2.031510 1_555
Mg4 O31 2.056314 1_555
Mg4 O30 2.057842 1_555
Mg4 O66 2.080398 1_555
Mg4 O67 2.101427 1_555
Mg4 O68 2.106652 1_555
Mg5 O35 2.009325 1_555
Mg5 O71 2.045349 1_555
Mg5 O69 2.051147 1_555
Mg5 O33 2.082026 1_555
Mg5 O34 2.085295 1_555
Mg5 O70 2.133777 1_555
Al0 O2 1.894115 1_455
Al0 O1 1.916369 1_445
Al0 O0 1.918034 1_555
Al0 O36 1.936424 1_545
Al0 O37 1.958428 1_445
Al0 O38 1.958431 1_555
Al1 O5 1.797448 1_555
Al1 O39 1.932729 1_655
Al1 O4 1.940704 1_545
Al1 O3 1.953146 1_655
Al1 O41 1.974070 1_545
Al1 O40 2.018429 1_645
Al2 O13 1.826991 1_555
Al2 O48 1.872628 1_555
Al2 O12 1.897824 1_555
Al2 O14 1.908641 1_555
Al2 O50 1.995952 1_555
Al2 O49 2.049665 1_555
Al3 O15 1.792192 1_555
Al3 O16 1.908841 1_555
Al3 O17 1.934470 1_555
Al3 O52 1.960015 1_555
Al3 O51 1.977738 1_555
Al3 O53 1.997744 1_555
Al4 O19 1.787556 1_556
Al4 O20 1.879125 1_556
Al4 O18 1.900749 1_556
Al4 O54 1.943511 1_555
Al4 O55 1.949700 1_555
Al4 O56 1.992964 1_555
Al5 O21 1.786753 1_555
Al5 O22 1.876243 1_555
Al5 O23 1.900462 1_555
Al5 O58 1.943709 1_555
Al5 O57 1.951935 1_555
Al5 O59 1.982837 1_555
O0 S0 1.499931 1_555
O1 S1 1.496088 1_555
O2 S2 1.497663 1_555
O3 S3 1.504967 1_555
O4 S4 1.494021 1_555
O5 P0 1.546757 1_555
O6 P0 1.523209 1_565
O7 S3 1.454519 1_555
O8 S4 1.463992 1_455
O9 S1 1.469893 1_555
O10 S2 1.454800 1_455
O11 S0 1.454625 1_565
O12 S5 1.488879 1_555
O13 P1 1.573968 1_555
O14 S6 1.481953 1_555
O15 P2 1.550291 1_555
O16 S7 1.482709 1_555
O17 S8 1.490167 1_555
O18 S8 1.483949 1_555
O19 P2 1.551397 1_555
O20 S7 1.476636 1_555
O21 P1 1.541260 1_555
O22 S6 1.476053 1_555
O23 S5 1.482477 1_555
O24 S9 1.477869 1_555
O25 S10 1.463934 1_555
O26 S11 1.463590 1_555
O27 S12 1.478396 1_555
O28 S13 1.465777 1_555
O29 S14 1.466996 1_555
O30 S14 1.463073 1_555
O31 S12 1.460120 1_555
O32 S13 1.461684 1_555
O33 S10 1.463358 1_555
O34 S11 1.477786 1_555
O35 S9 1.458841 1_555
O36 S14 1.505401 1_555
O37 S12 1.497625 1_555
O38 S13 1.505149 1_555
O39 S10 1.500703 1_555
O40 S11 1.498630 1_555
O41 S9 1.499296 1_555
O42 S5 1.479403 1_555
O43 P1 1.518829 1_555
O44 S6 1.480144 1_555
O45 P2 1.547347 1_555
O46 S7 1.480146 1_555
O47 S8 1.460461 1_555
O48 P0 1.584127 1_555
O49 S3 1.510089 1_555
O50 S4 1.487619 1_555
O51 S1 1.504562 1_555
O52 S2 1.507546 1_555
O53 S0 1.504487 1_555
O54 S9 1.499453 1_555
O55 S10 1.504064 1_655
O56 S11 1.497629 1_545
O57 S12 1.503012 1_545
O58 S13 1.503324 1_555
O59 S14 1.498723 1_655
O60 S8 1.482037 1_555
O61 P2 1.520113 1_455
O62 S7 1.482292 1_565
O63 P1 1.546958 1_565
O64 S6 1.481387 1_555
O65 S5 1.461125 1_455
O66 S0 1.470870 1_565
O67 S1 1.465639 1_555
O68 S2 1.470299 1_455
O69 S3 1.457754 1_555
O70 S4 1.478289 1_455
O71 P0 1.545104 1_565
