# generated using pymatgen
data_Li2CoCl4
_symmetry_space_group_name_H-M   'P 1'
_cell_length_a   6.10422589
_cell_length_b   6.10422589
_cell_length_c   3.58948008
_cell_angle_alpha   90.00000000
_cell_angle_beta   90.00000000
_cell_angle_gamma   107.27324455
_symmetry_Int_Tables_number   1
_chemical_formula_structural   Li2CoCl4
_chemical_formula_sum   'Li2 Co1 Cl4'
_cell_volume   127.71750733
_cell_formula_units_Z   1
loop_
 _symmetry_equiv_pos_site_id
 _symmetry_equiv_pos_as_xyz
  1  'x, y, z'
loop_
 _atom_site_type_symbol
 _atom_site_label
 _atom_site_symmetry_multiplicity
 _atom_site_fract_x
 _atom_site_fract_y
 _atom_site_fract_z
 _atom_site_occupancy
  Li  Li0  1  0.50000000  -0.00000000  0.50000000  1
  Li  Li1  1  0.00000000  0.50000000  0.50000000  1
  Co  Co0  1  0.00000000  -0.00000000  0.00000000  1
  Cl  Cl0  1  0.77130017  0.77130017  0.50000000  1
  Cl  Cl1  1  0.76646960  0.23353040  0.00000000  1
  Cl  Cl2  1  0.22869983  0.22869983  0.50000000  1
  Cl  Cl3  1  0.23353040  0.76646960  0.00000000  1
loop_
_geom_bond_atom_site_label_1
_geom_bond_atom_site_label_2
_geom_bond_distance
_geom_bond_site_symmetry_2
Cl0 Co0 2.441627 1_666
Cl0 Co0 2.441627 1_665
Cl0 Li0 2.462615 1_565
Cl0 Li1 2.462615 1_655
Cl1 Co0 2.295869 1_655
Cl1 Li0 2.553821 1_554
Cl1 Li1 2.553821 1_655
Cl1 Li1 2.553821 1_654
Cl1 Li0 2.553821 1_555
Cl2 Co0 2.441627 1_555
Cl2 Co0 2.441627 1_556
Cl2 Li1 2.462615 1_555
Cl2 Li0 2.462615 1_555
Cl3 Co0 2.295869 1_565
Cl3 Li0 2.553821 1_564
Cl3 Li1 2.553821 1_554
Cl3 Li1 2.553821 1_555
Cl3 Li0 2.553821 1_565
