# generated using pymatgen
data_Na15Pb4
_symmetry_space_group_name_H-M   'P 1'
_cell_length_a   11.38879930
_cell_length_b   11.38879989
_cell_length_c   11.38879992
_cell_angle_alpha   109.47121888
_cell_angle_beta   109.47121992
_cell_angle_gamma   109.47122030
_symmetry_Int_Tables_number   1
_chemical_formula_structural   Na15Pb4
_chemical_formula_sum   'Na30 Pb8'
_cell_volume   1137.13490124
_cell_formula_units_Z   2
loop_
 _symmetry_equiv_pos_site_id
 _symmetry_equiv_pos_as_xyz
  1  'x, y, z'
loop_
 _atom_site_type_symbol
 _atom_site_label
 _atom_site_symmetry_multiplicity
 _atom_site_fract_x
 _atom_site_fract_y
 _atom_site_fract_z
 _atom_site_occupancy
  Na  Na0  1  0.25000000  0.62500000  0.37500000  1
  Na  Na1  1  0.37500000  0.25000000  0.62500000  1
  Na  Na2  1  0.12500000  0.75000000  0.87500000  1
  Na  Na3  1  0.87500000  0.12500000  0.75000000  1
  Na  Na4  1  0.62500000  0.37500000  0.25000000  1
  Na  Na5  1  0.75000000  0.87500000  0.12500000  1
  Na  Na6  1  0.11226326  0.08370533  0.27562384  1
  Na  Na7  1  0.91629467  0.69191752  0.02855593  1
  Na  Na8  1  0.16336058  0.88773774  0.47144407  1
  Na  Na9  1  0.47144407  0.16336058  0.88773774  1
  Na  Na10  1  0.72437616  0.33663942  0.80808248  1
  Na  Na11  1  0.80808248  0.72437616  0.33663942  1
  Na  Na12  1  0.69191752  0.02855593  0.91629467  1
  Na  Na13  1  0.83663942  0.22437616  0.30808248  1
  Na  Na14  1  0.52855593  0.19191752  0.41629467  1
  Na  Na15  1  0.66336058  0.97144407  0.38773674  1
  Na  Na16  1  0.22437616  0.30808248  0.83663942  1
  Na  Na17  1  0.41629467  0.52855593  0.19191752  1
  Na  Na18  1  0.97144407  0.38773674  0.66336058  1
  Na  Na19  1  0.27562384  0.11226326  0.08370533  1
  Na  Na20  1  0.08370533  0.27562384  0.11226326  1
  Na  Na21  1  0.30808248  0.83663942  0.22437616  1
  Na  Na22  1  0.19191752  0.41629467  0.52855593  1
  Na  Na23  1  0.38773674  0.66336058  0.97144407  1
  Na  Na24  1  0.58370533  0.61226226  0.77562384  1
  Na  Na25  1  0.77562384  0.58370533  0.61226226  1
  Na  Na26  1  0.61226226  0.77562384  0.58370533  1
  Na  Na27  1  0.33663942  0.80808248  0.72437616  1
  Na  Na28  1  0.02855593  0.91629467  0.69191752  1
  Na  Na29  1  0.88773774  0.47144407  0.16336058  1
  Pb  Pb0  1  0.41639015  0.41639015  0.41639015  1
  Pb  Pb1  1  0.58360985  0.50000000  0.00000000  1
  Pb  Pb2  1  -0.00000000  0.58360985  0.50000000  1
  Pb  Pb3  1  0.50000000  0.00000000  0.58360985  1
  Pb  Pb4  1  -0.00000000  0.08360985  0.50000000  1
  Pb  Pb5  1  0.50000000  0.00000000  0.08360985  1
  Pb  Pb6  1  0.08360985  0.50000000  -0.00000000  1
  Pb  Pb7  1  0.91639015  0.91639015  0.91639015  1
loop_
_geom_bond_atom_site_label_1
_geom_bond_atom_site_label_2
_geom_bond_distance
_geom_bond_site_symmetry_2
Na0 Na20 3.410779 1_555
Na0 Na27 3.410781 1_555
Na0 Na8 3.410792 1_555
Na0 Na17 3.410794 1_555
Na0 Na22 3.411715 1_555
Na0 Na26 3.411723 1_555
Na0 Na29 3.411726 1_455
Na0 Na21 3.411733 1_555
Na0 Pb2 3.551084 1_555
Na0 Pb0 3.551084 1_555
Na0 Pb6 3.551084 1_555
Na0 Pb3 3.551084 1_565
Na1 Na6 3.410779 1_555
Na1 Na10 3.410781 1_555
Na1 Na9 3.410792 1_555
Na1 Na22 3.410794 1_555
Na1 Na14 3.411715 1_555
Na1 Na24 3.411723 1_555
Na1 Na8 3.411726 1_545
Na1 Na16 3.411733 1_555
Na1 Pb4 3.551084 1_555
Na1 Pb3 3.551084 1_555
Na1 Pb0 3.551084 1_555
Na1 Pb1 3.551084 1_556
Na2 Na21 3.410781 1_556
Na2 Na23 3.410782 1_555
Na2 Na25 3.410783 1_455
Na2 Na28 3.410794 1_555
Na2 Na7 3.411715 1_456
Na2 Na27 3.411733 1_555
Na2 Pb7 3.551084 1_455
Na2 Pb5 3.551084 1_566
Na2 Pb6 3.551084 1_556
Na2 Pb2 3.551084 1_555
Na3 Pb3 3.551084 1_555
Na3 Pb4 3.551084 1_655
Na3 Pb7 3.551084 1_545
Na3 Pb6 3.551084 1_656
Na4 Na9 3.411726 1_554
Na4 Pb0 3.551084 1_555
Na4 Pb2 3.551084 1_655
Na4 Pb1 3.551084 1_555
Na4 Pb5 3.551084 1_555
Na5 Na7 3.410794 1_555
Na5 Na6 3.411732 1_665
Na5 Pb5 3.551084 1_565
Na5 Pb7 3.551084 1_554
Na5 Pb1 3.551084 1_555
Na5 Pb4 3.551084 1_665
Na6 Pb4 3.216154 1_555
Na6 Pb7 3.351124 1_444
Na6 Pb0 3.524537 1_555
Na6 Na8 3.689475 1_545
Na6 Na7 3.689480 1_445
Na7 Pb7 3.216150 1_554
Na7 Pb6 3.351113 1_655
Na7 Pb1 3.524545 1_555
Na8 Pb3 3.216159 1_565
Na8 Pb4 3.351113 1_565
Na8 Pb2 3.524533 1_555
Na9 Pb1 3.216159 1_556
Na9 Pb5 3.351113 1_556
Na9 Pb3 3.524533 1_555
Na10 Pb3 3.216156 1_555
Na10 Na29 3.335563 1_556
Na10 Na7 3.335563 1_556
Na10 Pb6 3.351123 1_656
Na10 Na3 3.411733 1_555
Na10 Na9 3.487278 1_555
Na10 Pb1 3.524531 1_556
Na10 Na14 3.689477 1_555
Na10 Na18 3.689495 1_555
Na11 Pb1 3.216156 1_555
Na11 Na8 3.335563 1_655
Na11 Na28 3.335563 1_655
Na11 Pb4 3.351123 1_665
Na11 Na4 3.410781 1_555
Na11 Na5 3.411733 1_555
Na11 Na29 3.487278 1_555
Na11 Pb2 3.524531 1_655
Na11 Na17 3.689476 1_555
Na11 Na15 3.689495 1_555
Na12 Pb7 3.216150 1_545
Na12 Na9 3.335563 1_555
Na12 Na27 3.335563 1_545
Na12 Pb5 3.351113 1_556
Na12 Na3 3.410794 1_555
Na12 Na5 3.411715 1_546
Na12 Na26 3.487286 1_545
Na12 Pb3 3.524546 1_555
Na12 Na13 3.689477 1_556
Na12 Na20 3.689479 1_656
Na13 Pb5 3.216156 1_555
Na13 Na22 3.335563 1_655
Na13 Na18 3.335563 1_555
Na13 Pb2 3.351123 1_655
Na13 Na5 3.410781 1_545
Na13 Na4 3.411733 1_555
Na13 Na15 3.487270 1_545
Na13 Pb4 3.524531 1_655
Na13 Na29 3.689496 1_555
Na14 Pb0 3.216150 1_555
Na14 Na15 3.335563 1_545
Na14 Na21 3.335563 1_545
Na14 Pb3 3.351113 1_555
Na14 Na4 3.410794 1_555
Na14 Na19 3.487290 1_555
Na14 Pb5 3.524546 1_555
Na14 Na25 3.689480 1_555
Na15 Pb4 3.216157 1_665
Na15 Na21 3.335563 1_555
Na15 Pb3 3.351122 1_565
Na15 Na5 3.410782 1_555
Na15 Na3 3.411735 1_565
Na15 Pb5 3.524524 1_565
Na15 Na26 3.689486 1_555
Na16 Pb4 3.216156 1_555
Na16 Na23 3.335563 1_555
Na16 Na17 3.335563 1_556
Na16 Pb1 3.351123 1_556
Na16 Na3 3.410781 1_455
Na16 Na18 3.487270 1_455
Na16 Pb6 3.524531 1_556
Na16 Na28 3.689477 1_545
Na16 Na9 3.689496 1_555
Na17 Pb0 3.216150 1_555
Na17 Na23 3.335563 1_554
Na17 Pb1 3.351113 1_555
Na17 Na4 3.411715 1_555
Na17 Na20 3.487290 1_555
Na17 Pb6 3.524545 1_555
Na17 Na26 3.689480 1_555
Na18 Pb6 3.216158 1_656
Na18 Na22 3.335563 1_655
Na18 Pb2 3.351122 1_655
Na18 Na3 3.410782 1_555
Na18 Na2 3.411735 1_655
Na18 Pb4 3.524524 1_655
Na18 Na25 3.689486 1_555
Na19 Pb5 3.216154 1_555
Na19 Na20 3.335576 1_555
Na19 Na6 3.335576 1_555
Na19 Pb7 3.351124 1_444
Na19 Na4 3.410779 1_555
Na19 Na2 3.411732 1_544
Na19 Pb0 3.524538 1_555
Na19 Na9 3.689475 1_554
Na19 Na28 3.689480 1_544
Na20 Pb6 3.216154 1_555
Na20 Na6 3.335576 1_555
Na20 Pb7 3.351124 1_444
Na20 Na3 3.411732 1_454
Na20 Pb0 3.524537 1_555
Na20 Na29 3.689475 1_455
Na21 Pb6 3.216156 1_555
Na21 Pb3 3.351123 1_565
Na21 Na23 3.487270 1_554
Na21 Pb5 3.524531 1_565
Na21 Na7 3.689476 1_455
Na21 Na8 3.689496 1_555
Na22 Pb0 3.216150 1_555
Na22 Pb2 3.351113 1_555
Na22 Na6 3.487291 1_555
Na22 Pb4 3.524546 1_555
Na22 Na27 3.689477 1_555
Na22 Na24 3.689480 1_555
Na23 Pb5 3.216158 1_566
Na23 Pb1 3.351122 1_556
Na23 Na5 3.411735 1_556
Na23 Pb6 3.524524 1_556
Na23 Na24 3.689486 1_555
Na23 Na27 3.689495 1_555
Na24 Pb1 3.216147 1_556
Na24 Na25 3.335583 1_555
Na24 Na26 3.335583 1_555
Na24 Pb0 3.351123 1_555
Na24 Na5 3.410783 1_556
Na24 Na7 3.487286 1_556
Na24 Pb7 3.524543 1_555
Na25 Pb2 3.216147 1_655
Na25 Na26 3.335583 1_555
Na25 Pb0 3.351123 1_555
Na25 Na4 3.411723 1_555
Na25 Na28 3.487286 1_655
Na25 Pb7 3.524543 1_555
Na26 Pb3 3.216147 1_565
Na26 Pb0 3.351123 1_555
Na26 Na3 3.410783 1_565
Na26 Pb7 3.524543 1_555
Na27 Pb2 3.216156 1_555
Na27 Na9 3.335563 1_565
Na27 Pb5 3.351123 1_566
Na27 Na8 3.487278 1_555
Na27 Pb3 3.524531 1_565
Na28 Pb7 3.216150 1_455
Na28 Na8 3.335563 1_555
Na28 Pb4 3.351113 1_565
Na28 Na3 3.411715 1_465
Na28 Pb2 3.524546 1_555
Na29 Pb2 3.216159 1_655
Na29 Na7 3.335563 1_555
Na29 Pb6 3.351113 1_655
Na29 Na4 3.410792 1_555
Na29 Pb1 3.524533 1_555
