# generated using pymatgen
data_MgMn6(O2F)4
_symmetry_space_group_name_H-M   'P 1'
_cell_length_a   8.30949061
_cell_length_b   5.95630233
_cell_length_c   5.70592759
_cell_angle_alpha   65.69825264
_cell_angle_beta   66.24342796
_cell_angle_gamma   63.51752833
_symmetry_Int_Tables_number   1
_chemical_formula_structural   MgMn6(O2F)4
_chemical_formula_sum   'Mg1 Mn6 O8 F4'
_cell_volume   221.89369444
_cell_formula_units_Z   1
loop_
 _symmetry_equiv_pos_site_id
 _symmetry_equiv_pos_as_xyz
  1  'x, y, z'
loop_
 _atom_site_type_symbol
 _atom_site_label
 _atom_site_symmetry_multiplicity
 _atom_site_fract_x
 _atom_site_fract_y
 _atom_site_fract_z
 _atom_site_occupancy
  Mg  Mg0  1  0.50398370  0.50443137  0.96511213  1
  Mn  Mn0  1  0.85614213  0.67531842  0.68097738  1
  Mn  Mn1  1  0.67348372  0.33398502  0.36424910  1
  Mn  Mn2  1  0.25606301  0.64391956  0.59897209  1
  Mn  Mn3  1  0.16025500  0.32493014  0.32999741  1
  Mn  Mn4  1  0.49047637  0.99332449  0.99773041  1
  Mn  Mn5  1  0.00969395  0.99453336  0.99527921  1
  O  O0  1  0.67001926  0.02397234  0.64931718  1
  O  O1  1  0.32849442  0.36587026  0.94882566  1
  O  O2  1  0.02072859  0.80147817  0.79381405  1
  O  O3  1  0.41746886  0.42441638  0.38183752  1
  O  O4  1  0.31785590  0.95874216  0.35735471  1
  O  O5  1  0.66945122  0.63115698  0.03486517  1
  O  O6  1  0.02899262  0.31027338  0.70270429  1
  O  O7  1  0.02818143  0.69702415  0.31868246  1
  F  F0  1  0.32050074  0.86254023  0.90289728  1
  F  F1  1  0.65431895  0.54948160  0.59249452  1
  F  F2  1  0.95360870  0.21536490  0.23767346  1
  F  F3  1  0.69861143  0.14161709  0.07578497  1
loop_
_geom_bond_atom_site_label_1
_geom_bond_atom_site_label_2
_geom_bond_distance
_geom_bond_site_symmetry_2
Mg0 O1 2.015401 1_555
Mg0 O5 2.057285 1_556
Mg0 O3 2.096057 1_556
Mn0 O0 1.946562 1_565
Mn0 O7 1.974235 1_655
Mn0 O6 1.985540 1_655
Mn0 O5 1.988978 1_556
Mn0 O2 2.207674 1_655
Mn1 O0 1.895727 1_555
Mn1 O3 1.917386 1_555
Mn1 O5 1.981458 1_555
Mn2 O2 1.846931 1_555
Mn2 O3 1.863802 1_555
Mn2 O4 1.959880 1_555
Mn2 O1 2.109009 1_555
Mn3 O6 1.945023 1_555
Mn3 O4 1.957987 1_545
Mn3 O7 1.972475 1_555
Mn3 O1 2.040077 1_554
Mn3 O3 2.605750 1_555
Mn4 O0 1.940582 1_565
Mn4 O4 1.963340 1_556
Mn4 O5 1.981555 1_556
Mn4 O1 1.985631 1_565
Mn5 O2 1.887104 1_555
Mn5 O6 1.954127 1_565
Mn5 O7 1.965477 1_556
F0 Mg0 1.978069 1_555
F0 Mn4 2.199662 1_555
F0 Mn5 2.235934 1_555
F1 Mg0 1.960202 1_555
F1 Mn1 2.096550 1_555
F1 Mn0 2.396638 1_555
F2 Mn1 2.009416 1_555
F2 Mn5 2.071611 1_644
F2 Mn3 2.379729 1_655
F3 Mg0 2.065675 1_554
F3 Mn5 2.239481 1_644
F3 Mn1 2.264431 1_555
F3 Mn4 2.505294 1_544
