# generated using pymatgen
data_MgFe3Co5O16
_symmetry_space_group_name_H-M   'P 1'
_cell_length_a   5.77382926
_cell_length_b   5.86715559
_cell_length_c   9.36565811
_cell_angle_alpha   90.01618705
_cell_angle_beta   85.25070429
_cell_angle_gamma   120.52597883
_symmetry_Int_Tables_number   1
_chemical_formula_structural   MgFe3Co5O16
_chemical_formula_sum   'Mg1 Fe3 Co5 O16'
_cell_volume   272.03557179
_cell_formula_units_Z   1
loop_
 _symmetry_equiv_pos_site_id
 _symmetry_equiv_pos_as_xyz
  1  'x, y, z'
loop_
 _atom_site_type_symbol
 _atom_site_label
 _atom_site_symmetry_multiplicity
 _atom_site_fract_x
 _atom_site_fract_y
 _atom_site_fract_z
 _atom_site_occupancy
  Mg  Mg0  1  0.59840800  0.79931300  0.39433300  1
  Fe  Fe0  1  0.68941300  0.84501700  0.99890900  1
  Fe  Fe1  1  0.84374600  0.67258700  0.69895400  1
  Fe  Fe2  1  0.84371500  0.17064500  0.69897700  1
  Co  Co0  1  0.15365300  0.82036700  0.20032700  1
  Co  Co1  1  0.32874400  0.66413000  0.73654500  1
  Co  Co2  1  0.15331500  0.33368100  0.20022200  1
  Co  Co3  1  0.34378100  0.17173500  0.73026300  1
  Co  Co4  1  0.66185500  0.33102900  0.98555700  1
  O  O0  1  0.21917000  0.86791500  0.62461000  1
  O  O1  1  0.98141300  0.49109500  0.29256900  1
  O  O2  1  0.31388700  0.65709600  0.09315800  1
  O  O3  1  0.95600800  0.97824200  0.27803500  1
  O  O4  1  0.97982700  0.98970100  0.82419800  1
  O  O5  1  0.21920800  0.35081800  0.62464000  1
  O  O6  1  0.39566400  0.95627500  0.31199800  1
  O  O7  1  0.39557900  0.43980900  0.31206200  1
  O  O8  1  0.31160100  0.15598100  0.08252600  1
  O  O9  1  0.66559300  0.83254500  0.60156100  1
  O  O10  1  0.50628800  0.48825400  0.84790100  1
  O  O11  1  0.50647600  0.01757000  0.84800100  1
  O  O12  1  0.66065100  0.33007000  0.61047000  1
  O  O13  1  0.81878200  0.64043700  0.07985400  1
  O  O14  1  0.96759000  0.48367500  0.83342400  1
  O  O15  1  0.81896600  0.17887600  0.08006100  1
loop_
_geom_bond_atom_site_label_1
_geom_bond_atom_site_label_2
_geom_bond_distance
_geom_bond_site_symmetry_2
Mg0 O3 1.994456 1_555
Mg0 O9 2.000731 1_555
Mg0 O7 2.013294 1_555
Mg0 O6 2.014463 1_555
Fe0 O13 1.891682 1_556
Fe0 O15 1.891811 1_566
Fe0 O2 1.987741 1_556
Fe0 O4 2.076091 1_555
Fe0 O11 2.339333 1_565
Fe0 O10 2.344621 1_555
Fe1 O0 1.929711 1_655
Fe1 O12 1.956736 1_555
Fe1 O9 1.976712 1_555
Fe1 O4 2.030090 1_555
Fe1 O14 2.069038 1_555
Fe1 O10 2.078972 1_555
Fe2 O5 1.929984 1_655
Fe2 O12 1.956813 1_555
Fe2 O9 1.976615 1_545
Fe2 O4 2.030012 1_545
Fe2 O14 2.069684 1_555
Fe2 O11 2.078515 1_555
Co0 O6 1.670885 1_555
Co0 O1 1.836984 1_455
Co0 O2 1.878029 1_555
Co0 O3 1.904158 1_455
Co0 O8 1.984101 1_565
Co0 O13 2.100710 1_455
Co1 O14 1.933112 1_455
Co1 O5 1.950701 1_555
Co1 O0 1.951360 1_555
Co1 O9 1.999640 1_555
Co1 O10 2.110819 1_555
Co1 O11 2.111233 1_565
Co2 O7 1.673007 1_555
Co2 O1 1.837051 1_455
Co2 O2 1.877662 1_555
Co2 O3 1.904690 1_445
Co2 O8 1.984388 1_555
Co2 O15 2.096702 1_455
Co3 O12 1.844759 1_555
Co3 O5 1.867091 1_555
Co3 O0 1.867709 1_545
Co3 O4 1.935206 1_445
Co3 O10 1.985669 1_555
Co3 O11 1.987896 1_555
Co4 O13 1.832236 1_556
Co4 O15 1.832824 1_556
Co4 O8 1.885682 1_556
Co4 O14 1.981556 1_555
Co4 O10 2.086627 1_555
Co4 O11 2.088268 1_555
