# generated using pymatgen
data_Na3LaSiGe(PO6)2
_symmetry_space_group_name_H-M   'P 1'
_cell_length_a   9.42893905
_cell_length_b   9.42893870
_cell_length_c   22.11851810
_cell_angle_alpha   92.96255006
_cell_angle_beta   87.03744991
_cell_angle_gamma   121.01384364
_symmetry_Int_Tables_number   1
_chemical_formula_structural   Na3LaSiGe(PO6)2
_chemical_formula_sum   'Na18 La6 Si6 Ge6 P12 O72'
_cell_volume   1682.35345709
_cell_formula_units_Z   6
loop_
 _symmetry_equiv_pos_site_id
 _symmetry_equiv_pos_as_xyz
  1  'x, y, z'
loop_
 _atom_site_type_symbol
 _atom_site_label
 _atom_site_symmetry_multiplicity
 _atom_site_fract_x
 _atom_site_fract_y
 _atom_site_fract_z
 _atom_site_occupancy
  Na  Na0  1  0.00170136  0.98410668  0.50271796  1
  Na  Na1  1  0.01589332  0.99829864  0.00271796  1
  Na  Na2  1  0.67928318  0.31896179  0.83427433  1
  Na  Na3  1  0.68103821  0.32071682  0.33427433  1
  Na  Na4  1  0.38627611  0.69831953  0.16888633  1
  Na  Na5  1  0.30168047  0.61372389  0.66888633  1
  Na  Na6  1  0.34069871  0.33675691  0.24753990  1
  Na  Na7  1  0.99533882  0.64369091  0.23961039  1
  Na  Na8  1  0.66324309  0.65930129  0.74753990  1
  Na  Na9  1  0.35630909  0.00466118  0.73961039  1
  Na  Na10  1  0.03575449  0.70520883  0.58404874  1
  Na  Na11  1  0.65342455  0.98310461  0.58194724  1
  Na  Na12  1  0.29479117  0.96424551  0.08404874  1
  Na  Na13  1  0.01689539  0.34657545  0.08194724  1
  Na  Na14  1  0.00466907  0.69616542  0.91272658  1
  Na  Na15  1  0.68761680  0.02333095  0.91863535  1
  Na  Na16  1  0.97666905  0.31238320  0.41863535  1
  Na  Na17  1  0.30383458  0.99533093  0.41272658  1
  La  La0  1  0.97952547  0.98373174  0.35075067  1
  La  La1  1  0.01626826  0.02047453  0.85075067  1
  La  La2  1  0.68138407  0.34008495  0.68453955  1
  La  La3  1  0.65991505  0.31861593  0.18453955  1
  La  La4  1  0.33221082  0.66106662  0.01477011  1
  La  La5  1  0.33893338  0.66778918  0.51477011  1
  Si  Si0  1  0.01890333  0.30637082  0.25422964  1
  Si  Si1  1  0.69362918  0.98109667  0.75422964  1
  Si  Si2  1  0.35787036  0.06126315  0.58364204  1
  Si  Si3  1  0.93873685  0.64212964  0.08364204  1
  Si  Si4  1  0.36214163  0.98429372  0.92349148  1
  Si  Si5  1  0.01570628  0.63785837  0.42349148  1
  Ge  Ge0  1  0.01016929  0.04004163  0.64598801  1
  Ge  Ge1  1  0.95995837  0.98983071  0.14598801  1
  Ge  Ge2  1  0.65128493  0.36571714  0.97442264  1
  Ge  Ge3  1  0.63428286  0.34871507  0.47442264  1
  Ge  Ge4  1  0.31525148  0.65760500  0.31235739  1
  Ge  Ge5  1  0.34239500  0.68474852  0.81235739  1
  P  P0  1  0.28451082  0.96065816  0.25473975  1
  P  P1  1  0.67500394  0.71359146  0.24740068  1
  P  P2  1  0.28640854  0.32499606  0.74740068  1
  P  P3  1  0.03934184  0.71548918  0.75473975  1
  P  P4  1  0.97378307  0.30840045  0.57926079  1
  P  P5  1  0.69686575  0.64997700  0.58494961  1
  P  P6  1  0.69159955  0.02621693  0.07926079  1
  P  P7  1  0.35002300  0.30313425  0.08494961  1
  P  P8  1  0.62350334  0.64390442  0.90683259  1
  P  P9  1  0.01929077  0.39783625  0.91904909  1
  P  P10  1  0.60216375  0.98070923  0.41904909  1
  P  P11  1  0.35609558  0.37649666  0.40683259  1
  O  O0  1  0.20556962  0.96572976  0.31606211  1
  O  O1  1  0.78559606  0.75452798  0.30121701  1
  O  O2  1  0.01799678  0.22629136  0.31647265  1
  O  O3  1  0.24547202  0.21440394  0.80121701  1
  O  O4  1  0.03427024  0.79443038  0.81606211  1
  O  O5  1  0.77370864  0.98200322  0.81647265  1
  O  O6  1  0.81791111  0.96904470  0.69519992  1
  O  O7  1  0.16147060  0.22439497  0.69453561  1
  O  O8  1  0.06577421  0.82698159  0.70127026  1
  O  O9  1  0.77560503  0.83852940  0.19453561  1
  O  O10  1  0.03095530  0.18208889  0.19519992  1
  O  O11  1  0.17301841  0.93422579  0.20127026  1
  O  O12  1  0.89666755  0.34018046  0.63722828  1
  O  O13  1  0.45779555  0.12351513  0.64541354  1
  O  O14  1  0.69223065  0.57329205  0.64441706  1
  O  O15  1  0.87648487  0.54220445  0.14541354  1
  O  O16  1  0.65981954  0.10333245  0.13722828  1
  O  O17  1  0.42670795  0.30776935  0.14441706  1
  O  O18  1  0.46577375  0.29899182  0.02979577  1
  O  O19  1  0.81079797  0.53077296  0.02446029  1
  O  O20  1  0.71807780  0.12491909  0.02306494  1
  O  O21  1  0.46922704  0.18920203  0.52446029  1
  O  O22  1  0.70100818  0.53422625  0.52979577  1
  O  O23  1  0.87508091  0.28192220  0.52306494  1
  O  O24  1  0.55605532  0.68720641  0.96366091  1
  O  O25  1  0.07784658  0.43852187  0.98409015  1
  O  O26  1  0.35879198  0.89988308  0.98514125  1
  O  O27  1  0.56147813  0.92215342  0.48409015  1
  O  O28  1  0.31279359  0.44394468  0.46366091  1
  O  O29  1  0.10011692  0.64120802  0.48514125  1
  O  O30  1  0.12718369  0.61175927  0.36302990  1
  O  O31  1  0.46354043  0.84611067  0.37628052  1
  O  O32  1  0.37259861  0.47510993  0.34967923  1
  O  O33  1  0.15388933  0.53645957  0.87628052  1
  O  O34  1  0.38824073  0.87281631  0.86302990  1
  O  O35  1  0.52489007  0.62740139  0.84967923  1
  O  O36  1  0.00544772  0.80368981  0.41950093  1
  O  O37  1  0.77917071  0.02120987  0.40403390  1
  O  O38  1  0.22579626  0.19034193  0.40343997  1
  O  O39  1  0.97879013  0.22082929  0.90403390  1
  O  O40  1  0.19631019  0.99455228  0.91950093  1
  O  O41  1  0.80965807  0.77420374  0.90343997  1
  O  O42  1  0.94986257  0.12778969  0.58674087  1
  O  O43  1  0.17397441  0.05030101  0.59203528  1
  O  O44  1  0.86817661  0.81646286  0.58144181  1
  O  O45  1  0.94969899  0.82602559  0.09203528  1
  O  O46  1  0.87221031  0.05013743  0.08674087  1
  O  O47  1  0.18353714  0.13182339  0.08144181  1
  O  O48  1  0.65105418  0.12724505  0.75025271  1
  O  O49  1  0.46596463  0.38496401  0.72893565  1
  O  O50  1  0.88108389  0.54342554  0.75132502  1
  O  O51  1  0.61503599  0.53403537  0.22893565  1
  O  O52  1  0.87275495  0.34894582  0.25025271  1
  O  O53  1  0.45657446  0.11891611  0.25132502  1
  O  O54  1  0.60704294  0.46807021  0.91430065  1
  O  O55  1  0.85672933  0.40732506  0.91485951  1
  O  O56  1  0.54415054  0.17085037  0.92429146  1
  O  O57  1  0.59267494  0.14327067  0.41485951  1
  O  O58  1  0.53192979  0.39295706  0.41430065  1
  O  O59  1  0.82914963  0.45584946  0.42429146  1
  O  O60  1  0.31418717  0.44429785  0.08098911  1
  O  O61  1  0.12674513  0.68001806  0.07298771  1
  O  O62  1  0.55685106  0.84211427  0.07949910  1
  O  O63  1  0.31998194  0.87325487  0.57298771  1
  O  O64  1  0.55570215  0.68581283  0.58098911  1
  O  O65  1  0.15788573  0.44314894  0.57949910  1
  O  O66  1  0.29271104  0.79531342  0.25484238  1
  O  O67  1  0.52285525  0.73633564  0.26199864  1
  O  O68  1  0.20497157  0.48843959  0.25069506  1
  O  O69  1  0.26366436  0.47714475  0.76199864  1
  O  O70  1  0.20468658  0.70728896  0.75484238  1
  O  O71  1  0.51156041  0.79502843  0.75069506  1
loop_
_geom_bond_atom_site_label_1
_geom_bond_atom_site_label_2
_geom_bond_distance
_geom_bond_site_symmetry_2
Na0 O44 2.263358 1_455
Na0 O42 2.420010 1_465
Na0 O36 2.452471 1_555
Na0 O43 2.467883 1_565
Na0 O38 2.965738 1_565
Na1 O47 2.263358 1_565
Na1 O46 2.420010 1_465
Na1 O40 2.452471 1_554
Na1 O45 2.467883 1_455
Na1 O41 2.965738 1_454
Na2 O55 2.321384 1_555
Na2 O56 2.393653 1_555
Na2 O48 2.449572 1_555
Na2 O54 2.485704 1_555
Na2 O50 2.712324 1_555
Na3 O57 2.321384 1_555
Na3 O59 2.393653 1_555
Na3 O52 2.449572 1_555
Na3 O58 2.485704 1_555
Na3 O53 2.712324 1_555
Na4 O66 2.389075 1_555
Na4 O67 2.398047 1_555
Na4 O62 2.456681 1_555
Na4 O68 2.584011 1_555
Na4 O60 2.820659 1_555
Na5 O70 2.389075 1_555
Na5 O69 2.398047 1_555
Na5 O65 2.456681 1_555
Na5 O71 2.584011 1_555
Na5 O64 2.820659 1_555
Na6 O51 2.308950 1_555
Na6 O68 2.356849 1_555
Na6 O17 2.430591 1_555
Na6 O32 2.501472 1_555
Na6 O53 2.785594 1_555
Na6 O10 2.789724 1_555
Na7 O15 2.332962 1_555
Na7 O52 2.417495 1_555
Na7 O66 2.436457 1_655
Na7 O11 2.528690 1_655
Na7 O1 2.926458 1_555
Na8 O49 2.308949 1_555
Na8 O71 2.356849 1_555
Na8 O14 2.430591 1_555
Na8 O35 2.501472 1_555
Na8 O50 2.785594 1_555
Na8 O6 2.789724 1_555
Na9 O13 2.332962 1_555
Na9 O48 2.417495 1_555
Na9 O70 2.436457 1_545
Na9 O8 2.528690 1_545
Na9 O3 2.926457 1_555
Na10 O44 2.307407 1_455
Na10 O63 2.312816 1_555
Na10 O29 2.371101 1_555
Na10 O8 2.748477 1_555
Na10 O43 2.812777 1_565
Na11 O27 2.306233 1_555
Na11 O42 2.402330 1_565
Na11 O64 2.457914 1_555
Na11 O63 2.772060 1_555
Na12 O47 2.307407 1_565
Na12 O61 2.312816 1_555
Na12 O26 2.371101 1_554
Na12 O11 2.748477 1_555
Na12 O45 2.812777 1_455
Na13 O25 2.306233 1_554
Na13 O46 2.402330 1_455
Na13 O60 2.457915 1_555
Na13 O61 2.772060 1_555
Na14 O4 2.320415 1_555
Na14 O41 2.326695 1_455
Na14 O55 2.335999 1_455
Na14 O40 2.439008 1_555
Na14 O33 2.614895 1_555
Na15 O56 2.384065 1_555
Na15 O39 2.410739 1_555
Na15 O20 2.427279 1_556
Na15 O5 2.441787 1_545
Na15 O34 2.746849 1_545
Na15 O24 2.953351 1_545
Na16 O59 2.384065 1_555
Na16 O37 2.410739 1_555
Na16 O23 2.427279 1_555
Na16 O2 2.441787 1_655
Na16 O30 2.746849 1_655
Na16 O28 2.953351 1_655
Na17 O0 2.320415 1_555
Na17 O38 2.326695 1_565
Na17 O57 2.335999 1_565
Na17 O36 2.439008 1_555
Na17 O31 2.614895 1_555
La0 O1 2.259335 1_555
La0 O2 2.287585 1_665
La0 O0 2.313112 1_655
La0 O37 2.344657 1_565
La0 O38 2.434914 1_665
La0 O36 2.446799 1_655
La1 O3 2.259335 1_555
La1 O5 2.287585 1_445
La1 O4 2.313112 1_545
La1 O39 2.344657 1_455
La1 O41 2.434914 1_445
La1 O40 2.446799 1_545
La2 O13 2.221029 1_555
La2 O12 2.234767 1_555
La2 O14 2.365112 1_555
La2 O50 2.382884 1_555
La2 O48 2.426721 1_555
La2 O49 2.430149 1_555
La3 O15 2.221029 1_555
La3 O16 2.234767 1_555
La3 O17 2.365112 1_555
La3 O53 2.382884 1_555
La3 O52 2.426721 1_555
La3 O51 2.430148 1_555
La4 O24 2.244882 1_554
La4 O26 2.262038 1_554
La4 O25 2.334691 1_554
La4 O61 2.349123 1_555
La4 O62 2.405231 1_555
La4 O60 2.505479 1_555
La5 O28 2.244882 1_555
La5 O29 2.262038 1_555
La5 O27 2.334690 1_555
La5 O63 2.349123 1_555
La5 O65 2.405231 1_555
La5 O64 2.505479 1_555
Ge0 O42 1.843663 1_455
Ge0 O43 1.867193 1_555
Ge0 O6 1.881485 1_445
Ge0 O7 1.902573 1_555
Ge0 O44 2.291910 1_445
Ge1 O46 1.843663 1_565
Ge1 O45 1.867193 1_555
Ge1 O10 1.881485 1_665
Ge1 O9 1.902573 1_555
Ge1 O47 2.291910 1_665
Ge2 O54 1.865115 1_555
Ge2 O19 1.868431 1_556
Ge2 O56 1.902223 1_555
Ge2 O18 1.918244 1_556
Ge2 O55 2.156042 1_555
Ge3 O58 1.865115 1_555
Ge3 O21 1.868431 1_555
Ge3 O59 1.902223 1_555
Ge3 O22 1.918244 1_555
Ge3 O57 2.156042 1_555
Ge4 O30 1.908481 1_555
Ge4 O68 1.923062 1_555
Ge4 O66 1.957690 1_555
Ge4 O67 1.996538 1_555
Ge4 O31 2.120579 1_555
Ge4 O32 2.255337 1_555
Ge5 O34 1.908481 1_555
Ge5 O71 1.923062 1_555
Ge5 O70 1.957690 1_555
Ge5 O69 1.996538 1_555
Ge5 O33 2.120579 1_555
Ge5 O35 2.255337 1_555
O0 P0 1.523695 1_555
O1 P1 1.522923 1_555
O2 Si0 1.601607 1_555
O3 P2 1.522923 1_555
O4 P3 1.523695 1_555
O5 Si1 1.601607 1_555
O6 Si1 1.747740 1_555
O7 P2 1.590916 1_555
O8 P3 1.547257 1_555
O9 P1 1.590916 1_555
O10 Si0 1.747740 1_555
O11 P0 1.547257 1_555
O12 P4 1.533251 1_555
O13 Si2 1.606014 1_555
O14 P5 1.521388 1_555
O15 Si3 1.606014 1_555
O16 P6 1.533251 1_555
O17 P7 1.521388 1_555
O18 P7 1.606948 1_555
O19 Si3 1.728326 1_555
O20 P6 1.523642 1_555
O21 Si2 1.728326 1_555
O22 P5 1.606947 1_555
O23 P4 1.523642 1_555
O24 P8 1.510958 1_555
O25 P9 1.525909 1_555
O26 Si4 1.604897 1_555
O27 P10 1.525909 1_555
O28 P11 1.510958 1_555
O29 Si5 1.604897 1_555
O30 Si5 1.743863 1_555
O31 P10 1.583754 1_555
O32 P11 1.561702 1_555
O33 P9 1.583754 1_555
O34 Si4 1.743863 1_555
O35 P8 1.561703 1_555
O36 Si5 1.622665 1_555
O37 P10 1.529929 1_545
O38 P11 1.539359 1_555
O39 P9 1.529929 1_655
O40 Si4 1.622665 1_555
O41 P8 1.539359 1_555
O42 P4 1.614869 1_555
O43 Si2 1.683963 1_555
O44 P5 1.570367 1_555
O45 Si3 1.683963 1_555
O46 P6 1.614869 1_555
O47 P7 1.570367 1_555
O48 Si1 1.629134 1_545
O49 P2 1.522749 1_555
O50 P3 1.539070 1_655
O51 P1 1.522749 1_555
O52 Si0 1.629134 1_655
O53 P0 1.539070 1_545
O54 P8 1.600188 1_555
O55 P9 1.588354 1_655
O56 Si4 1.711372 1_545
O57 P10 1.588354 1_545
O58 P11 1.600188 1_555
O59 Si5 1.711372 1_655
O60 P7 1.540142 1_555
O61 Si3 1.624378 1_455
O62 P6 1.534635 1_565
O63 Si2 1.624378 1_565
O64 P5 1.540142 1_555
O65 P4 1.534635 1_455
O66 P0 1.600358 1_555
O67 P1 1.571726 1_555
O68 Si0 1.710920 1_555
O69 P2 1.571726 1_555
O70 P3 1.600358 1_555
O71 Si1 1.710920 1_555
