# generated using pymatgen
data_K8MgTi2O8
_symmetry_space_group_name_H-M   'P 1'
_cell_length_a   8.18203921
_cell_length_b   8.18203921
_cell_length_c   6.64335206
_cell_angle_alpha   106.62125926
_cell_angle_beta   106.62125926
_cell_angle_gamma   79.53757546
_symmetry_Int_Tables_number   1
_chemical_formula_structural   K8MgTi2O8
_chemical_formula_sum   'K8 Mg1 Ti2 O8'
_cell_volume   405.93692016
_cell_formula_units_Z   1
loop_
 _symmetry_equiv_pos_site_id
 _symmetry_equiv_pos_as_xyz
  1  'x, y, z'
loop_
 _atom_site_type_symbol
 _atom_site_label
 _atom_site_symmetry_multiplicity
 _atom_site_fract_x
 _atom_site_fract_y
 _atom_site_fract_z
 _atom_site_occupancy
  K  K0  1  0.16775244  0.83224756  0.50000000  1
  K  K1  1  0.14171961  0.85828039  0.00000000  1
  K  K2  1  0.57246679  0.87508634  0.24620183  1
  K  K3  1  0.12491366  0.42753321  0.75379817  1
  K  K4  1  0.42753321  0.12491366  0.75379817  1
  K  K5  1  0.87508634  0.57246679  0.24620183  1
  K  K6  1  0.85828039  0.14171961  0.00000000  1
  K  K7  1  0.83224756  0.16775244  0.50000000  1
  Mg  Mg0  1  0.50000000  0.50000000  0.50000000  1
  Ti  Ti0  1  0.25676873  0.25676873  0.27334218  1
  Ti  Ti1  1  0.74323127  0.74323127  0.72665782  1
  O  O0  1  0.22561090  0.49105914  0.39275368  1
  O  O1  1  0.50894086  0.77438910  0.60724632  1
  O  O2  1  0.17931604  0.17931604  0.97576439  1
  O  O3  1  0.14168913  0.14168913  0.38345679  1
  O  O4  1  0.82068396  0.82068396  0.02423561  1
  O  O5  1  0.85831087  0.85831087  0.61654321  1
  O  O6  1  0.77438910  0.50894086  0.60724632  1
  O  O7  1  0.49105914  0.22561090  0.39275368  1
loop_
_geom_bond_atom_site_label_1
_geom_bond_atom_site_label_2
_geom_bond_distance
_geom_bond_site_symmetry_2
K0 O0 2.664581 1_555
K0 O1 2.664581 1_555
K0 O3 2.808229 1_565
K0 O5 2.808229 1_455
K1 O4 2.753903 1_455
K1 O2 2.753903 1_564
K1 O5 2.913297 1_454
K1 O3 2.913297 1_565
K2 O4 2.739834 1_555
K2 O7 2.774307 1_565
K2 O5 2.885587 1_555
K2 O1 2.949798 1_555
K3 O2 2.739834 1_555
K3 O6 2.774307 1_455
K3 O3 2.885587 1_555
K3 O0 2.949798 1_555
K4 O2 2.739834 1_555
K4 O1 2.774307 1_545
K4 O3 2.885587 1_555
K4 O7 2.949798 1_555
K5 O4 2.739834 1_555
K5 O0 2.774307 1_655
K5 O5 2.885587 1_555
K5 O6 2.949798 1_555
K6 O2 2.753903 1_654
K6 O4 2.753903 1_545
K6 O3 2.913297 1_655
K6 O5 2.913297 1_544
K7 O7 2.664581 1_555
K7 O6 2.664581 1_555
K7 O3 2.808229 1_655
K7 O5 2.808229 1_545
Mg0 O0 2.160561 1_555
Mg0 O7 2.160561 1_555
Mg0 O6 2.160561 1_555
Mg0 O1 2.160561 1_555
O0 Ti0 1.854000 1_555
O1 Ti1 1.854000 1_555
O2 Ti0 1.850354 1_556
O3 Ti0 1.848892 1_555
O4 Ti1 1.850354 1_554
O5 Ti1 1.848892 1_555
O6 Ti1 1.854000 1_555
O7 Ti0 1.854000 1_555
