# generated using pymatgen
data_MgFe6(OF)6
_symmetry_space_group_name_H-M   'P 1'
_cell_length_a   5.16258470
_cell_length_b   14.36454182
_cell_length_c   3.11164191
_cell_angle_alpha   96.02187776
_cell_angle_beta   90.11105529
_cell_angle_gamma   95.28713322
_symmetry_Int_Tables_number   1
_chemical_formula_structural   MgFe6(OF)6
_chemical_formula_sum   'Mg1 Fe6 O6 F6'
_cell_volume   228.48829552
_cell_formula_units_Z   1
loop_
 _symmetry_equiv_pos_site_id
 _symmetry_equiv_pos_as_xyz
  1  'x, y, z'
loop_
 _atom_site_type_symbol
 _atom_site_label
 _atom_site_symmetry_multiplicity
 _atom_site_fract_x
 _atom_site_fract_y
 _atom_site_fract_z
 _atom_site_occupancy
  Mg  Mg0  1  0.57588246  0.34860987  0.69418996  1
  Fe  Fe0  1  0.99564436  0.98860242  0.00788910  1
  Fe  Fe1  1  0.07550609  0.31423299  0.16760329  1
  Fe  Fe2  1  0.91525623  0.68427221  0.86447517  1
  Fe  Fe3  1  0.60427720  0.14831450  0.58044957  1
  Fe  Fe4  1  0.42598364  0.54073006  0.29130701  1
  Fe  Fe5  1  0.39682600  0.83208089  0.43662126  1
  O  O0  1  0.15604208  0.93158418  0.48115286  1
  O  O1  1  0.24918731  0.76668674  0.90449268  1
  O  O2  1  0.40869545  0.40702211  0.22094188  1
  O  O3  1  0.60512011  0.58066121  0.81136234  1
  O  O4  1  0.71537860  0.24141890  0.12559626  1
  O  O5  1  0.86297700  0.06673462  0.54464087  1
  F  F0  1  0.27535749  0.24481712  0.63243366  1
  F  F1  1  0.09396809  0.59189840  0.31813503  1
  F  F2  1  0.38256755  0.09038393  0.05338663  1
  F  F3  1  0.64019895  0.90534562  0.96863141  1
  F  F4  1  0.93317793  0.39832484  0.70841830  1
  F  F5  1  0.71573144  0.75161239  0.39660571  1
loop_
_geom_bond_atom_site_label_1
_geom_bond_atom_site_label_2
_geom_bond_distance
_geom_bond_site_symmetry_2
Mg0 O2 1.996478 1_556
Mg0 O2 2.001319 1_555
Mg0 O4 2.307755 1_556
Mg0 O4 2.378540 1_555
Fe0 O0 1.972684 1_654
Fe0 O0 1.974459 1_655
Fe0 O5 2.066646 1_565
Fe0 O5 2.069740 1_564
Fe1 O4 2.044420 1_455
Fe1 O2 2.071920 1_555
Fe2 O1 1.995271 1_655
Fe2 O3 2.077055 1_555
Fe3 O5 1.852296 1_555
Fe3 O4 2.091393 1_556
Fe3 O4 2.092785 1_555
Fe4 O3 1.871334 1_554
Fe4 O3 1.872062 1_555
Fe4 O2 1.903921 1_555
Fe5 O1 1.934374 1_554
Fe5 O1 1.934456 1_555
Fe5 O0 1.973303 1_555
F0 Mg0 2.044346 1_555
F0 Fe1 2.153420 1_555
F0 Fe1 2.163265 1_556
F0 Fe3 2.284524 1_555
F1 Fe4 1.924855 1_555
F1 Fe2 2.284331 1_454
F1 Fe2 2.293546 1_455
F2 Fe3 2.055020 1_555
F2 Fe3 2.063041 1_554
F2 Fe0 2.359019 1_445
F3 Fe0 2.092015 1_556
F3 Fe5 2.193021 1_555
F3 Fe5 2.211724 1_556
F4 Mg0 1.914331 1_555
F4 Fe1 2.135926 1_656
F4 Fe1 2.138406 1_655
F5 Fe5 2.093672 1_555
F5 Fe2 2.142309 1_555
F5 Fe2 2.143030 1_554
