# generated using pymatgen
data_MgNb4O10
_symmetry_space_group_name_H-M   'P 1'
_cell_length_a   5.24906770
_cell_length_b   5.53042799
_cell_length_c   7.45379925
_cell_angle_alpha   105.55314597
_cell_angle_beta   109.41934807
_cell_angle_gamma   89.18786259
_symmetry_Int_Tables_number   1
_chemical_formula_structural   MgNb4O10
_chemical_formula_sum   'Mg1 Nb4 O10'
_cell_volume   195.92780464
_cell_formula_units_Z   1
loop_
 _symmetry_equiv_pos_site_id
 _symmetry_equiv_pos_as_xyz
  1  'x, y, z'
loop_
 _atom_site_type_symbol
 _atom_site_label
 _atom_site_symmetry_multiplicity
 _atom_site_fract_x
 _atom_site_fract_y
 _atom_site_fract_z
 _atom_site_occupancy
  Mg  Mg0  1  0.50000000  0.00000000  0.50000000  1
  Nb  Nb0  1  0.36116900  0.31074800  0.22869500  1
  Nb  Nb1  1  0.09791600  0.19311800  0.68456400  1
  Nb  Nb2  1  0.63883100  0.68925200  0.77130500  1
  Nb  Nb3  1  0.90208400  0.80688200  0.31543600  1
  O  O0  1  0.75073400  0.36018100  0.62357100  1
  O  O1  1  0.15716200  0.15439100  0.40443000  1
  O  O2  1  0.24926600  0.63981900  0.37642900  1
  O  O3  1  0.84283800  0.84560900  0.59557000  1
  O  O4  1  0.87804200  0.77005000  0.02650600  1
  O  O5  1  0.12195800  0.22995000  0.97349400  1
  O  O6  1  0.34734900  0.51198900  0.78055800  1
  O  O7  1  0.56917600  0.01056600  0.25547000  1
  O  O8  1  0.65265100  0.48801100  0.21944200  1
  O  O9  1  0.43082400  0.98943400  0.74453000  1
loop_
_geom_bond_atom_site_label_1
_geom_bond_atom_site_label_2
_geom_bond_distance
_geom_bond_site_symmetry_2
Mg0 O1 1.976153 1_555
Mg0 O3 1.976153 1_545
Mg0 O7 1.988775 1_555
Mg0 O9 1.988775 1_545
Mg0 O0 2.198353 1_555
Mg0 O2 2.198353 1_545
Nb0 O5 1.834817 1_554
Nb0 O8 1.858951 1_555
Nb0 O7 1.992334 1_555
Nb0 O2 2.048115 1_555
Nb0 O1 2.275232 1_555
Nb1 O0 2.002002 1_455
Nb1 O6 2.025329 1_555
Nb1 O9 2.053565 1_545
Nb1 O5 2.068883 1_555
Nb1 O1 2.166258 1_555
Nb1 O3 2.173712 1_445
Nb2 O4 1.834817 1_556
Nb2 O6 1.858951 1_555
Nb2 O9 1.992334 1_555
Nb2 O0 2.048115 1_555
Nb2 O3 2.275232 1_555
Nb3 O2 2.002002 1_655
Nb3 O8 2.025329 1_555
Nb3 O7 2.053565 1_565
Nb3 O4 2.068883 1_555
Nb3 O3 2.166258 1_555
Nb3 O1 2.173712 1_665
