# generated using pymatgen
data_Zn(H2N)2
_symmetry_space_group_name_H-M   'P 1'
_cell_length_a   12.41091297
_cell_length_b   12.41091297
_cell_length_c   12.41091297
_cell_angle_alpha   131.83676269
_cell_angle_beta   131.83676269
_cell_angle_gamma   70.48696497
_symmetry_Int_Tables_number   1
_chemical_formula_structural   Zn(H2N)2
_chemical_formula_sum   'Zn16 H64 N32'
_cell_volume   1039.77150538
_cell_formula_units_Z   16
loop_
 _symmetry_equiv_pos_site_id
 _symmetry_equiv_pos_as_xyz
  1  'x, y, z'
loop_
 _atom_site_type_symbol
 _atom_site_label
 _atom_site_symmetry_multiplicity
 _atom_site_fract_x
 _atom_site_fract_y
 _atom_site_fract_z
 _atom_site_occupancy
  Zn  Zn0  1  0.68273600  0.42168900  0.48385600  1
  Zn  Zn1  1  0.30111900  0.56216600  0.48385600  1
  Zn  Zn2  1  0.07831100  0.81726400  0.51614400  1
  Zn  Zn3  1  0.56726400  0.55111900  0.23895300  1
  Zn  Zn4  1  0.31216600  0.32831100  0.76104700  1
  Zn  Zn5  1  0.17168900  0.18783400  0.23895300  1
  Zn  Zn6  1  0.94888100  0.93273600  0.76104700  1
  Zn  Zn7  1  0.93783400  0.19888100  0.51614400  1
  Zn  Zn8  1  0.06726400  0.82831100  0.01614400  1
  Zn  Zn9  1  0.44888100  0.68783400  0.01614400  1
  Zn  Zn10  1  0.67168900  0.43273600  0.98385600  1
  Zn  Zn11  1  0.18273600  0.69888100  0.26104700  1
  Zn  Zn12  1  0.43783400  0.92168900  0.73895300  1
  Zn  Zn13  1  0.57831100  0.06216600  0.26104700  1
  Zn  Zn14  1  0.80111900  0.31726400  0.73895300  1
  Zn  Zn15  1  0.81216600  0.05111900  0.98385600  1
  H  H0  1  0.10419100  0.74242600  0.78936200  1
  H  H1  1  0.18517000  0.54693600  0.78936200  1
  H  H2  1  0.75757400  0.39580900  0.21063800  1
  H  H3  1  0.14580900  0.43517000  0.13823500  1
  H  H4  1  0.29693600  0.00757400  0.86176500  1
  H  H5  1  0.49242600  0.20306400  0.13823500  1
  H  H6  1  0.06483000  0.35419100  0.86176500  1
  H  H7  1  0.95306400  0.31483000  0.21063800  1
  H  H8  1  0.64580900  0.50757400  0.71063800  1
  H  H9  1  0.56483000  0.70306400  0.71063800  1
  H  H10  1  0.99242600  0.85419100  0.28936200  1
  H  H11  1  0.60419100  0.81483000  0.36176500  1
  H  H12  1  0.45306400  0.24242600  0.63823500  1
  H  H13  1  0.25757400  0.04693600  0.36176500  1
  H  H14  1  0.68517000  0.89580900  0.63823500  1
  H  H15  1  0.79693600  0.93517000  0.28936200  1
  H  H16  1  0.82544800  0.56462000  0.33631700  1
  H  H17  1  0.01086900  0.27169700  0.33631700  1
  H  H18  1  0.93538000  0.67455200  0.66368300  1
  H  H19  1  0.42455200  0.26086900  0.23917200  1
  H  H20  1  0.02169700  0.18538000  0.76082800  1
  H  H21  1  0.31462000  0.47830300  0.23917200  1
  H  H22  1  0.23913100  0.07544800  0.76082800  1
  H  H23  1  0.22830300  0.48913100  0.66368300  1
  H  H24  1  0.92455200  0.68538000  0.16368300  1
  H  H25  1  0.73913100  0.97830300  0.16368300  1
  H  H26  1  0.81462000  0.57544800  0.83631700  1
  H  H27  1  0.16378400  0.65718700  0.61244700  1
  H  H28  1  0.32544800  0.98913100  0.26082800  1
  H  H29  1  0.43538000  0.77169700  0.26082800  1
  H  H30  1  0.51086900  0.17455200  0.73917200  1
  H  H31  1  0.52169700  0.76086900  0.83631700  1
  H  H32  1  0.71082400  0.67738300  0.58518800  1
  H  H33  1  0.37436300  0.40780400  0.58518800  1
  H  H34  1  0.82261700  0.78917600  0.41481200  1
  H  H35  1  0.53917600  0.62436300  0.46655900  1
  H  H36  1  0.15780400  0.07261700  0.53344100  1
  H  H37  1  0.42738300  0.34219600  0.46655900  1
  H  H38  1  0.87563700  0.96082400  0.53344100  1
  H  H39  1  0.09219600  0.12563700  0.41481200  1
  H  H40  1  0.03917600  0.57261700  0.91481200  1
  H  H41  1  0.37563700  0.84219600  0.91481200  1
  H  H42  1  0.92738300  0.46082400  0.08518800  1
  H  H43  1  0.21082400  0.62563700  0.03344100  1
  H  H44  1  0.59219600  0.17738300  0.96655900  1
  H  H45  1  0.32261700  0.90780400  0.03344100  1
  H  H46  1  0.87436300  0.28917600  0.96655900  1
  H  H47  1  0.65780400  0.12436300  0.08518800  1
  H  H48  1  0.70526000  0.69866200  0.11244700  1
  H  H49  1  0.44866200  0.83621600  0.49340200  1
  H  H50  1  0.34281300  0.95526000  0.50659800  1
  H  H51  1  0.54474000  0.15718700  0.49340200  1
  H  H52  1  0.66378400  0.05133800  0.50659800  1
  H  H53  1  0.90718700  0.91378400  0.11244700  1
  H  H54  1  0.80133800  0.79474000  0.88755300  1
  H  H55  1  0.58621600  0.59281300  0.88755300  1
  H  H56  1  0.04474000  0.55133800  0.38755300  1
  H  H57  1  0.30133800  0.41378400  0.00659800  1
  H  H58  1  0.40718700  0.29474000  0.99340200  1
  H  H59  1  0.20526000  0.09281300  0.00659800  1
  H  H60  1  0.08621600  0.19866200  0.99340200  1
  H  H61  1  0.84281300  0.33621600  0.38755300  1
  H  H62  1  0.94866200  0.45526000  0.61244700  1
  H  H63  1  0.72830300  0.06462000  0.73917200  1
  N  N0  1  0.01404800  0.76964800  0.78407800  1
  N  N1  1  0.27003000  0.51443000  0.78407800  1
  N  N2  1  0.73035200  0.48595200  0.21592200  1
  N  N3  1  0.23595200  0.52003000  0.25560000  1
  N  N4  1  0.26443000  0.98035200  0.74440000  1
  N  N5  1  0.51964800  0.23557000  0.25560000  1
  N  N6  1  0.97997000  0.26404800  0.74440000  1
  N  N7  1  0.98557000  0.22997000  0.21592200  1
  N  N8  1  0.73595200  0.48035200  0.71592200  1
  N  N9  1  0.47997000  0.73557000  0.71592200  1
  N  N10  1  0.01964800  0.76404800  0.28407800  1
  N  N11  1  0.51404800  0.72997000  0.24440000  1
  N  N12  1  0.48557000  0.26964800  0.75560000  1
  N  N13  1  0.23035200  0.01443000  0.24440000  1
  N  N14  1  0.77003000  0.98595200  0.75560000  1
  N  N15  1  0.76443000  0.02003000  0.28407800  1
  N  N16  1  0.62500000  0.58835800  0.46335800  1
  N  N17  1  0.33835800  0.37500000  0.46335800  1
  N  N18  1  0.91164200  0.87500000  0.53664200  1
  N  N19  1  0.12500000  0.16164200  0.53664200  1
  N  N20  1  0.12500000  0.66164200  0.03664200  1
  N  N21  1  0.41164200  0.87500000  0.03664200  1
  N  N22  1  0.83835800  0.37500000  0.96335800  1
  N  N23  1  0.62500000  0.08835800  0.96335800  1
  N  N24  1  0.13536000  0.63536000  0.50000000  1
  N  N25  1  0.38536000  0.38536000  0.00000000  1
  N  N26  1  0.11464000  0.11464000  0.00000000  1
  N  N27  1  0.86464000  0.36464000  0.50000000  1
  N  N28  1  0.61464000  0.61464000  0.00000000  1
  N  N29  1  0.36464000  0.86464000  0.50000000  1
  N  N30  1  0.63536000  0.13536000  0.50000000  1
  N  N31  1  0.88536000  0.88536000  0.00000000  1
loop_
_geom_bond_atom_site_label_1
_geom_bond_atom_site_label_2
_geom_bond_distance
_geom_bond_site_symmetry_2
H0 N0 1.024325 1_555
H1 N1 1.024337 1_555
H2 N2 1.024325 1_555
H3 N3 1.024331 1_555
H4 N4 1.024325 1_545
H5 N5 1.024325 1_555
H6 N6 1.024331 1_455
H7 N7 1.024337 1_555
H8 N8 1.024325 1_555
H9 N9 1.024337 1_555
H10 N10 1.024325 1_655
H11 N11 1.024331 1_555
H12 N12 1.024325 1_555
H13 N13 1.024325 1_555
H14 N14 1.024331 1_555
H15 N15 1.024337 1_565
H16 N2 1.024659 1_555
H17 N7 1.024659 1_455
H18 N0 1.024659 1_655
H19 N5 1.024659 1_555
H20 N6 1.024659 1_455
H21 N3 1.024659 1_555
H22 N4 1.024659 1_545
H23 N1 1.024659 1_555
H24 N10 1.024659 1_655
H25 N15 1.024659 1_565
H26 N8 1.024659 1_555
H27 N24 1.023817 1_555
H28 N13 1.024659 1_565
H29 N11 1.024659 1_555
H30 N12 1.024659 1_555
H31 N9 1.024659 1_555
H32 N16 1.024994 1_555
H33 N17 1.025005 1_555
H34 N18 1.024994 1_555
H35 N16 1.024993 1_555
H36 N19 1.024993 1_555
H37 N17 1.024993 1_555
H38 N18 1.024993 1_555
H39 N19 1.025005 1_555
H40 N20 1.024994 1_556
H41 N21 1.025005 1_556
H42 N22 1.024994 1_554
H43 N20 1.024993 1_555
H44 N23 1.024993 1_555
H45 N21 1.024993 1_555
H46 N22 1.024993 1_555
H47 N23 1.025005 1_554
H48 N28 1.023811 1_555
H49 N29 1.023812 1_555
H50 N29 1.023811 1_555
H51 N30 1.023811 1_555
H52 N30 1.023812 1_555
H53 N31 1.023817 1_555
H54 N31 1.023811 1_556
H55 N28 1.023817 1_556
H56 N24 1.023811 1_555
H57 N25 1.023812 1_555
H58 N25 1.023811 1_556
H59 N26 1.023811 1_555
H60 N26 1.023812 1_556
H61 N27 1.023817 1_555
H62 N27 1.023811 1_555
H63 N14 1.024659 1_545
N0 Zn6 2.049997 1_455
N0 Zn8 2.061027 1_556
N1 Zn4 2.049997 1_555
N1 Zn9 2.061039 1_556
N2 Zn3 2.049997 1_555
N2 Zn10 2.061027 1_554
N3 Zn1 2.050009 1_555
N3 Zn11 2.061038 1_555
N4 Zn2 2.049997 1_555
N4 Zn12 2.061038 1_555
N5 Zn0 2.049997 1_555
N5 Zn13 2.061038 1_555
N6 Zn7 2.050009 1_555
N6 Zn14 2.061038 1_555
N7 Zn5 2.049997 1_655
N7 Zn15 2.061039 1_554
N8 Zn14 2.049997 1_555
N8 Zn0 2.061027 1_555
N9 Zn12 2.049997 1_555
N9 Zn1 2.061039 1_555
N10 Zn11 2.049997 1_555
N10 Zn2 2.061027 1_555
N11 Zn9 2.050009 1_555
N11 Zn3 2.061038 1_555
N12 Zn10 2.049997 1_555
N12 Zn4 2.061038 1_555
N13 Zn8 2.049997 1_545
N13 Zn5 2.061038 1_555
N14 Zn15 2.050009 1_565
N14 Zn6 2.061038 1_555
N15 Zn13 2.049997 1_555
N15 Zn7 2.061039 1_555
N16 Zn3 2.079792 1_555
N16 Zn0 2.079799 1_555
N17 Zn1 2.079787 1_555
N17 Zn5 2.079792 1_555
N18 Zn6 2.079792 1_555
N18 Zn2 2.079799 1_655
N19 Zn7 2.079787 1_455
N19 Zn4 2.079792 1_555
N20 Zn11 2.079792 1_555
N20 Zn8 2.079799 1_555
N21 Zn9 2.079787 1_555
N21 Zn13 2.079792 1_565
N22 Zn14 2.079792 1_555
N22 Zn10 2.079799 1_555
N23 Zn15 2.079787 1_555
N23 Zn12 2.079792 1_545
N24 Zn1 2.038660 1_555
N24 Zn2 2.038671 1_555
N25 Zn3 2.038665 1_555
N25 Zn4 2.038665 1_554
N26 Zn6 2.038665 1_444
N26 Zn5 2.038665 1_555
N27 Zn7 2.038660 1_555
N27 Zn0 2.038671 1_555
N28 Zn9 2.038660 1_555
N28 Zn10 2.038671 1_554
N29 Zn12 2.038665 1_555
N29 Zn11 2.038665 1_555
N30 Zn14 2.038665 1_555
N30 Zn13 2.038665 1_555
N31 Zn15 2.038660 1_564
N31 Zn8 2.038671 1_655
