# generated using pymatgen
data_MgVCr2Fe3(PO4)6
_symmetry_space_group_name_H-M   'P 1'
_cell_length_a   8.68852959
_cell_length_b   8.75273761
_cell_length_c   8.67521902
_cell_angle_alpha   60.29836544
_cell_angle_beta   60.13450234
_cell_angle_gamma   62.75521760
_symmetry_Int_Tables_number   1
_chemical_formula_structural   MgVCr2Fe3(PO4)6
_chemical_formula_sum   'Mg1 V1 Cr2 Fe3 P6 O24'
_cell_volume   477.04844922
_cell_formula_units_Z   1
loop_
 _symmetry_equiv_pos_site_id
 _symmetry_equiv_pos_as_xyz
  1  'x, y, z'
loop_
 _atom_site_type_symbol
 _atom_site_label
 _atom_site_symmetry_multiplicity
 _atom_site_fract_x
 _atom_site_fract_y
 _atom_site_fract_z
 _atom_site_occupancy
  Mg  Mg0  1  0.37292500  0.88023700  0.87044300  1
  V  V0  1  0.53520000  0.15603300  0.15373500  1
  Cr  Cr0  1  0.97261500  0.01444200  0.00761200  1
  Cr  Cr1  1  0.49923100  0.49470500  0.50573400  1
  Fe  Fe0  1  0.10514700  0.62818400  0.63081900  1
  Fe  Fe1  1  0.74943100  0.75099600  0.75321500  1
  Fe  Fe2  1  0.93105100  0.35416700  0.35606500  1
  P  P0  1  0.23199300  0.25403800  0.54539500  1
  P  P1  1  0.22183700  0.97366800  0.25029200  1
  P  P2  1  0.24586700  0.53705300  0.96062100  1
  P  P3  1  0.72140800  0.45991900  0.06467900  1
  P  P4  1  0.74394300  0.05169500  0.75869500  1
  P  P5  1  0.73080000  0.75842900  0.45436200  1
  O  O0  1  0.05608000  0.11331200  0.33447400  1
  O  O1  1  0.06944800  0.47826100  0.10208100  1
  O  O2  1  0.06248600  0.34583000  0.48711000  1
  O  O3  1  0.19203200  0.09902600  0.74115100  1
  O  O4  1  0.40514400  0.16850900  0.39806000  1
  O  O5  1  0.28586400  0.39844000  0.54959000  1
  O  O6  1  0.18932200  0.96910100  0.09219700  1
  O  O7  1  0.26046300  0.78121300  0.39728700  1
  O  O8  1  0.56551200  0.62982000  0.00307500  1
  O  O9  1  0.29011000  0.54409700  0.75940800  1
  O  O10  1  0.72006700  0.27467100  0.08584400  1
  O  O11  1  0.57687000  0.98928100  0.81087700  1
  O  O12  1  0.40595100  0.02765300  0.16492800  1
  O  O13  1  0.21981500  0.72309000  0.95679400  1
  O  O14  1  0.71392500  0.44191300  0.25418000  1
  O  O15  1  0.41845500  0.38791700  0.01494100  1
  O  O16  1  0.73978600  0.23551700  0.59633000  1
  O  O17  1  0.74736500  0.07156400  0.92595800  1
  O  O18  1  0.71576500  0.59662000  0.44225900  1
  O  O19  1  0.56979100  0.80952300  0.62872600  1
  O  O20  1  0.74121100  0.92466100  0.26572000  1
  O  O21  1  0.90347200  0.70799900  0.50303100  1
  O  O22  1  0.89803000  0.50633000  0.88987000  1
  O  O23  1  0.91033800  0.88396200  0.71412700  1
loop_
_geom_bond_atom_site_label_1
_geom_bond_atom_site_label_2
_geom_bond_distance
_geom_bond_site_symmetry_2
Mg0 O13 1.970923 1_555
Mg0 O6 2.034947 1_556
Mg0 O3 2.065662 1_565
Mg0 O19 2.109661 1_555
Mg0 O11 2.113215 1_555
Mg0 O8 2.233448 1_556
Cr0 O6 2.155089 1_645
Cr0 O17 2.171589 1_554
Cr0 O3 2.175644 1_654
Cr0 O20 2.211996 1_545
Cr0 O10 2.436415 1_555
Cr0 O13 2.542992 1_644
Cr1 O9 2.138350 1_555
Cr1 O14 2.147412 1_555
Cr1 O18 2.157894 1_555
Cr1 O5 2.168290 1_555
Cr1 O16 2.379175 1_555
Cr1 O7 2.513987 1_555
Fe0 O7 1.990624 1_555
Fe0 O9 2.063403 1_555
Fe0 O5 2.101676 1_555
Fe0 O22 2.186483 1_455
Fe0 O21 2.198590 1_455
Fe0 O23 2.305402 1_455
Fe1 O23 2.012581 1_555
Fe1 O21 2.024549 1_555
Fe1 O22 2.033583 1_555
Fe1 O8 2.049586 1_556
Fe1 O19 2.064785 1_555
Fe1 O11 2.066868 1_555
Fe2 O1 1.914688 1_655
Fe2 O2 1.932954 1_655
Fe2 O0 1.936825 1_655
Fe2 O16 2.042057 1_555
Fe2 O14 2.142749 1_555
Fe2 O18 2.259756 1_555
O0 P1 1.525378 1_545
O1 P2 1.530794 1_554
O2 P0 1.525092 1_555
O3 P0 1.551177 1_555
O4 P0 1.568243 1_555
O4 V0 1.874147 1_555
O5 P0 1.556302 1_555
O6 P1 1.553383 1_555
O7 P1 1.535019 1_555
O8 P3 1.555920 1_555
O9 P2 1.563760 1_555
O10 P3 1.543703 1_555
O10 V0 1.995999 1_555
O11 P4 1.561122 1_565
O12 P1 1.579920 1_545
O12 V0 1.863275 1_555
O13 P2 1.523238 1_555
O14 P3 1.542031 1_555
O15 P2 1.573726 1_554
O15 V0 1.872893 1_555
O16 P4 1.525017 1_555
O17 P4 1.560264 1_555
O17 V0 2.102739 1_556
O18 P5 1.537637 1_555
O19 P5 1.560507 1_555
O20 P5 1.554610 1_555
O20 V0 2.170753 1_565
O21 P5 1.569635 1_555
O22 P3 1.569174 1_556
O23 P4 1.567632 1_565
