# generated using pymatgen
data_MgCo(WO4)2
_symmetry_space_group_name_H-M   'P 1'
_cell_length_a   5.04773024
_cell_length_b   5.76980690
_cell_length_c   5.87322811
_cell_angle_alpha   70.32148656
_cell_angle_beta   91.14325178
_cell_angle_gamma   115.27259029
_symmetry_Int_Tables_number   1
_chemical_formula_structural   MgCo(WO4)2
_chemical_formula_sum   'Mg1 Co1 W2 O8'
_cell_volume   144.10034390
_cell_formula_units_Z   1
loop_
 _symmetry_equiv_pos_site_id
 _symmetry_equiv_pos_as_xyz
  1  'x, y, z'
loop_
 _atom_site_type_symbol
 _atom_site_label
 _atom_site_symmetry_multiplicity
 _atom_site_fract_x
 _atom_site_fract_y
 _atom_site_fract_z
 _atom_site_occupancy
  Mg  Mg0  1  0.97405000  0.94959300  0.71635000  1
  Co  Co0  1  0.50002500  0.99661100  0.01892600  1
  W  W0  1  0.26891400  0.52434800  0.66814400  1
  W  W1  1  0.73779000  0.48182800  0.33200300  1
  O  O0  1  0.68226400  0.71490600  0.55206100  1
  O  O1  1  0.17043500  0.70702400  0.33611400  1
  O  O2  1  0.23876100  0.75494900  0.80896200  1
  O  O3  1  0.26795600  0.23075800  0.91897100  1
  O  O4  1  0.33075700  0.29106400  0.46430700  1
  O  O5  1  0.83651400  0.26892600  0.66987600  1
  O  O6  1  0.72439700  0.75751700  0.05994100  1
  O  O7  1  0.74314100  0.25105200  0.19392600  1
loop_
_geom_bond_atom_site_label_1
_geom_bond_atom_site_label_2
_geom_bond_distance
_geom_bond_site_symmetry_2
Mg0 O0 2.013522 1_555
Mg0 O2 2.045340 1_655
Mg0 O6 2.071556 1_556
Mg0 O4 2.104325 1_665
Mg0 O5 2.167297 1_565
Mg0 O3 2.328875 1_665
Co0 O7 2.035983 1_565
Co0 O3 2.081277 1_564
Co0 O6 2.084035 1_555
Co0 O1 2.164231 1_555
Co0 O2 2.174197 1_554
Co0 O5 2.290690 1_564
O0 W0 1.902689 1_555
O0 W1 2.250421 1_555
O1 W1 2.013534 1_455
O1 W0 2.045795 1_555
O2 W0 1.842968 1_555
O3 W0 1.830943 1_555
O4 W1 1.895628 1_555
O4 W0 2.191200 1_555
O5 W0 2.044548 1_655
O5 W1 2.129949 1_555
O6 W1 1.861114 1_555
O7 W1 1.786109 1_555
