# generated using pymatgen
data_MgMn2Tl2O6
_symmetry_space_group_name_H-M   'P 1'
_cell_length_a   5.56103990
_cell_length_b   6.19489151
_cell_length_c   5.58011322
_cell_angle_alpha   116.62896435
_cell_angle_beta   119.65710472
_cell_angle_gamma   89.85668194
_symmetry_Int_Tables_number   1
_chemical_formula_structural   MgMn2Tl2O6
_chemical_formula_sum   'Mg1 Mn2 Tl2 O6'
_cell_volume   143.26030232
_cell_formula_units_Z   1
loop_
 _symmetry_equiv_pos_site_id
 _symmetry_equiv_pos_as_xyz
  1  'x, y, z'
loop_
 _atom_site_type_symbol
 _atom_site_label
 _atom_site_symmetry_multiplicity
 _atom_site_fract_x
 _atom_site_fract_y
 _atom_site_fract_z
 _atom_site_occupancy
  Mg  Mg0  1  0.50000000  0.50000000  0.00000000  1
  Mn  Mn0  1  0.32536700  0.97132700  0.64957800  1
  Mn  Mn1  1  0.67463300  0.02867300  0.35042200  1
  Tl  Tl0  1  0.12261000  0.37784400  0.24943400  1
  Tl  Tl1  1  0.87739000  0.62215600  0.75056600  1
  O  O0  1  0.09486800  0.26729800  0.56199600  1
  O  O1  1  0.45392500  0.25598400  0.15559100  1
  O  O2  1  0.70056100  0.25858700  0.79613000  1
  O  O3  1  0.29943900  0.74141300  0.20387000  1
  O  O4  1  0.54607500  0.74401600  0.84440900  1
  O  O5  1  0.90513200  0.73270200  0.43800400  1
loop_
_geom_bond_atom_site_label_1
_geom_bond_atom_site_label_2
_geom_bond_distance
_geom_bond_site_symmetry_2
Mg0 O2 2.120592 1_554
Mg0 O3 2.120592 1_555
Mg0 O4 2.122058 1_554
Mg0 O1 2.122058 1_555
Mg0 O5 2.129822 1_555
Mg0 O0 2.129822 1_554
Mn0 O3 2.169278 1_555
Mn0 O4 2.171295 1_555
Mn0 O5 2.182390 1_455
Mn0 O1 2.266865 1_566
Mn0 O2 2.283502 1_565
Mn0 O0 2.327059 1_565
Mn1 O2 2.169278 1_555
Mn1 O1 2.171295 1_555
Mn1 O0 2.182390 1_655
Mn1 O4 2.266865 1_544
Mn1 O3 2.283502 1_545
Mn1 O5 2.327059 1_545
O0 Tl0 2.207325 1_555
O0 Tl1 2.564164 1_455
O1 Tl0 2.198230 1_555
O1 Tl1 2.693002 1_555
O2 Tl0 2.216081 1_656
O2 Tl1 2.622248 1_555
O3 Tl1 2.216081 1_454
O3 Tl0 2.622248 1_555
O4 Tl1 2.198230 1_555
O4 Tl0 2.693002 1_555
O5 Tl1 2.207325 1_555
O5 Tl0 2.564164 1_655
