# generated using pymatgen
data_YGa(SO4)3
_symmetry_space_group_name_H-M   'P 1'
_cell_length_a   8.80445480
_cell_length_b   8.80445452
_cell_length_c   23.07881749
_cell_angle_alpha   90.00000000
_cell_angle_beta   90.00000000
_cell_angle_gamma   120.00000105
_symmetry_Int_Tables_number   1
_chemical_formula_structural   YGa(SO4)3
_chemical_formula_sum   'Y6 Ga6 S18 O72'
_cell_volume   1549.34845166
_cell_formula_units_Z   6
loop_
 _symmetry_equiv_pos_site_id
 _symmetry_equiv_pos_as_xyz
  1  'x, y, z'
loop_
 _atom_site_type_symbol
 _atom_site_label
 _atom_site_symmetry_multiplicity
 _atom_site_fract_x
 _atom_site_fract_y
 _atom_site_fract_z
 _atom_site_occupancy
  Y  Y0  1  0.00000000  0.00000000  0.84983660  1
  Y  Y1  1  0.66666700  0.33333300  0.98349640  1
  Y  Y2  1  0.33333300  0.66666700  0.02861540  1
  Y  Y3  1  0.33333300  0.66666700  0.52204640  1
  Y  Y4  1  0.33333300  0.66666700  0.31128760  1
  Y  Y5  1  0.33333300  0.66666700  0.80471860  1
  Ga  Ga0  1  0.00000000  0.00000000  0.35051487  1
  Ga  Ga1  1  0.00000000  0.00000000  0.64482399  1
  Ga  Ga2  1  0.00000000  0.00000000  0.15044264  1
  Ga  Ga3  1  0.66666700  0.33333300  0.68289036  1
  Ga  Ga4  1  0.66666700  0.33333300  0.18850901  1
  Ga  Ga5  1  0.66666700  0.33333300  0.48281813  1
  S  S0  1  0.28860311  0.01563265  0.24760559  1
  S  S1  1  0.72702954  0.71139689  0.24760559  1
  S  S2  1  0.98436735  0.27297046  0.24760559  1
  S  S3  1  0.30018437  0.28233510  0.74130416  1
  S  S4  1  0.98215073  0.69981563  0.74130416  1
  S  S5  1  0.71766490  0.01784927  0.74130416  1
  S  S6  1  0.93963746  0.31770035  0.58572741  1
  S  S7  1  0.37806389  0.06036254  0.58572741  1
  S  S8  1  0.68229965  0.62193611  0.58572741  1
  S  S9  1  0.94900210  0.63351737  0.09202884  1
  S  S10  1  0.68451627  0.05099790  0.09202884  1
  S  S11  1  0.36648263  0.31548373  0.09202884  1
  S  S12  1  0.62439265  0.66666700  0.91666700  1
  S  S13  1  0.04227335  0.37560735  0.91666700  1
  S  S14  1  0.33333300  0.95772665  0.91666700  1
  S  S15  1  0.64440606  0.97774006  0.41666700  1
  S  S16  1  0.33333300  0.35559394  0.41666700  1
  S  S17  1  0.02225994  0.66666700  0.41666700  1
  O  O0  1  0.21002294  0.04579093  0.30061997  1
  O  O1  1  0.83576799  0.78997706  0.30061997  1
  O  O2  1  0.95420907  0.16423201  0.30061997  1
  O  O3  1  0.23001721  0.18045167  0.79533855  1
  O  O4  1  0.95043446  0.76998279  0.79533855  1
  O  O5  1  0.81954833  0.04956554  0.79533855  1
  O  O6  1  0.80443046  0.98439226  0.69180848  1
  O  O7  1  0.17996180  0.19556954  0.69180848  1
  O  O8  1  0.01560774  0.82003820  0.69180848  1
  O  O9  1  0.80474061  0.82329063  0.19596944  1
  O  O10  1  0.01855003  0.19525939  0.19596944  1
  O  O11  1  0.17670937  0.98144997  0.19596944  1
  O  O12  1  0.86192639  0.35188303  0.63736356  1
  O  O13  1  0.48995763  0.13807361  0.63736356  1
  O  O14  1  0.64811697  0.51004237  0.63736356  1
  O  O15  1  0.86223654  0.51329480  0.14152452  1
  O  O16  1  0.65105926  0.13776346  0.14152452  1
  O  O17  1  0.48670520  0.34894074  0.14152452  1
  O  O18  1  0.43664979  0.28376746  0.03799445  1
  O  O19  1  0.84711867  0.56335021  0.03799445  1
  O  O20  1  0.71623254  0.15288133  0.03799445  1
  O  O21  1  0.45664406  0.16910099  0.53271303  1
  O  O22  1  0.71245793  0.54335594  0.53271303  1
  O  O23  1  0.83089901  0.28754207  0.53271303  1
  O  O24  1  0.54152428  0.68881770  0.96922038  1
  O  O25  1  0.14729242  0.45847572  0.96922038  1
  O  O26  1  0.31118230  0.85270758  0.96922038  1
  O  O27  1  0.56574283  0.86163786  0.46765981  1
  O  O28  1  0.29589403  0.43425717  0.46765981  1
  O  O29  1  0.13836214  0.70410597  0.46765981  1
  O  O30  1  0.10092317  0.62922803  0.36567419  1
  O  O31  1  0.52830386  0.89907683  0.36567419  1
  O  O32  1  0.37077197  0.47169614  0.36567419  1
  O  O33  1  0.12514172  0.48062642  0.86411362  1
  O  O34  1  0.35548370  0.87485828  0.86411362  1
  O  O35  1  0.51937358  0.64451630  0.86411362  1
  O  O36  1  0.00365637  0.82301189  0.40537562  1
  O  O37  1  0.81935552  0.99634363  0.40537562  1
  O  O38  1  0.17698811  0.18064448  0.40537562  1
  O  O39  1  0.02547108  0.20134676  0.91174537  1
  O  O40  1  0.17587567  0.97452892  0.91174537  1
  O  O41  1  0.79865324  0.82412433  0.91174537  1
  O  O42  1  0.95676035  0.15953177  0.59364474  1
  O  O43  1  0.20277142  0.04323965  0.59364474  1
  O  O44  1  0.84046823  0.79722858  0.59364474  1
  O  O45  1  0.96815848  0.80838763  0.10009884  1
  O  O46  1  0.84022916  0.03184152  0.10009884  1
  O  O47  1  0.19161237  0.15977084  0.10009884  1
  O  O48  1  0.69850852  0.17356216  0.73323416  1
  O  O49  1  0.47505463  0.30149148  0.73323416  1
  O  O50  1  0.82643784  0.52494537  0.73323416  1
  O  O51  1  0.70990665  0.53610442  0.23968826  1
  O  O52  1  0.82619877  0.29009335  0.23968826  1
  O  O53  1  0.46389558  0.17380123  0.23968826  1
  O  O54  1  0.64119592  0.50920867  0.92158763  1
  O  O55  1  0.86801376  0.35880408  0.92158763  1
  O  O56  1  0.49079133  0.13198624  0.92158763  1
  O  O57  1  0.66301063  0.15268852  0.42795738  1
  O  O58  1  0.48967889  0.33698937  0.42795738  1
  O  O59  1  0.84731148  0.51032111  0.42795738  1
  O  O60  1  0.34979035  0.47294421  0.08623922  1
  O  O61  1  0.12315286  0.65020965  0.08623922  1
  O  O62  1  0.52705579  0.87684714  0.08623922  1
  O  O63  1  0.35964199  0.88523154  0.57873535  1
  O  O64  1  0.52558855  0.64035801  0.57873535  1
  O  O65  1  0.11476846  0.47441145  0.57873535  1
  O  O66  1  0.30702401  0.85892255  0.25459865  1
  O  O67  1  0.55189754  0.69297599  0.25459865  1
  O  O68  1  0.14107745  0.44810246  0.25459865  1
  O  O69  1  0.31687565  0.45648686  0.74709478  1
  O  O70  1  0.13961021  0.68312435  0.74709478  1
  O  O71  1  0.54351314  0.86038979  0.74709478  1
loop_
_geom_bond_atom_site_label_1
_geom_bond_atom_site_label_2
_geom_bond_distance
_geom_bond_site_symmetry_2
Ga0 O38 2.020523 1_555
Ga0 O36 2.020523 1_545
Ga0 O37 2.020523 1_445
Ga0 O1 2.040179 1_445
Ga0 O2 2.040179 1_455
Ga0 O0 2.040179 1_555
Ga1 O7 1.980645 1_555
Ga1 O8 1.980645 1_545
Ga1 O6 1.980645 1_445
Ga1 O44 2.011882 1_445
Ga1 O42 2.011882 1_455
Ga1 O43 2.011882 1_555
Ga2 O46 1.949796 1_455
Ga2 O47 1.949796 1_555
Ga2 O45 1.949796 1_445
Ga2 O10 1.950734 1_555
Ga2 O9 1.950734 1_445
Ga2 O11 1.950734 1_545
Ga3 O48 1.949796 1_555
Ga3 O50 1.949796 1_555
Ga3 O49 1.949796 1_555
Ga3 O13 1.950734 1_555
Ga3 O12 1.950734 1_555
Ga3 O14 1.950734 1_555
Ga4 O16 1.980645 1_555
Ga4 O15 1.980645 1_555
Ga4 O17 1.980645 1_555
Ga4 O51 2.011882 1_555
Ga4 O53 2.011882 1_555
Ga4 O52 2.011882 1_555
Ga5 O57 2.020523 1_555
Ga5 O59 2.020523 1_555
Ga5 O58 2.020523 1_555
Ga5 O22 2.040179 1_555
Ga5 O21 2.040179 1_555
Ga5 O23 2.040179 1_555
O0 S0 1.493268 1_555
O1 S1 1.493268 1_555
O2 S2 1.493268 1_555
O3 S3 1.478946 1_555
O3 Y0 2.233816 1_555
O4 S4 1.478946 1_555
O4 Y0 2.233816 1_665
O5 S5 1.478946 1_555
O5 Y0 2.233816 1_655
O6 S5 1.483318 1_565
O7 S3 1.483318 1_555
O8 S4 1.483318 1_455
O9 S1 1.478100 1_555
O10 S2 1.478101 1_455
O11 S0 1.478100 1_565
O12 S6 1.478101 1_555
O13 S7 1.478100 1_555
O14 S8 1.478100 1_555
O15 S9 1.483318 1_555
O16 S10 1.483318 1_555
O17 S11 1.483318 1_555
O18 S11 1.478946 1_555
O18 Y1 2.233816 1_554
O19 S9 1.478946 1_555
O19 Y1 2.233816 1_554
O20 S10 1.478946 1_555
O20 Y1 2.233816 1_554
O21 S7 1.493268 1_555
O22 S8 1.493268 1_555
O23 S6 1.493268 1_555
O24 S12 1.477739 1_555
O24 Y2 2.217991 1_556
O25 S13 1.477739 1_555
O25 Y2 2.217990 1_556
O26 S14 1.477739 1_555
O26 Y2 2.217991 1_556
O27 S15 1.483784 1_555
O27 Y3 2.279634 1_555
O28 S16 1.483784 1_555
O28 Y3 2.279634 1_555
O29 S17 1.483784 1_555
O29 Y3 2.279634 1_555
O30 S17 1.483784 1_555
O30 Y4 2.279634 1_555
O31 S15 1.483784 1_555
O31 Y4 2.279634 1_555
O32 S16 1.483784 1_555
O32 Y4 2.279634 1_555
O33 S13 1.477739 1_555
O33 Y5 2.217991 1_555
O34 S14 1.477739 1_555
O34 Y5 2.217990 1_555
O35 S12 1.477739 1_555
O35 Y5 2.217991 1_555
O36 S17 1.488302 1_555
O37 S15 1.488311 1_555
O38 S16 1.488307 1_555
O39 S13 1.470305 1_555
O39 Y0 2.199270 1_555
O40 S14 1.470297 1_555
O40 Y0 2.199270 1_565
O41 S12 1.470301 1_555
O41 Y0 2.199270 1_665
O42 S6 1.485046 1_555
O43 S7 1.485054 1_555
O44 S8 1.485051 1_555
O45 S9 1.474429 1_555
O46 S10 1.474420 1_555
O47 S11 1.474425 1_555
O48 S5 1.474420 1_555
O49 S3 1.474429 1_555
O50 S4 1.474425 1_555
O51 S1 1.485054 1_555
O52 S2 1.485046 1_555
O53 S0 1.485051 1_555
O54 S12 1.470308 1_555
O54 Y1 2.199270 1_555
O55 S13 1.470291 1_655
O55 Y1 2.199270 1_555
O56 S14 1.470298 1_545
O56 Y1 2.199270 1_555
O57 S15 1.488295 1_545
O58 S16 1.488312 1_555
O59 S17 1.488302 1_655
O60 S11 1.471454 1_555
O60 Y2 2.223937 1_555
O61 S9 1.471436 1_455
O61 Y2 2.223937 1_555
O62 S10 1.471444 1_565
O62 Y2 2.223937 1_555
O63 S7 1.476418 1_565
O63 Y3 2.241134 1_555
O64 S8 1.476436 1_555
O64 Y3 2.241135 1_555
O65 S6 1.476425 1_455
O65 Y3 2.241134 1_555
O66 S0 1.476424 1_565
O66 Y4 2.241134 1_555
O67 S1 1.476433 1_555
O67 Y4 2.241135 1_555
O68 S2 1.476429 1_455
O68 Y4 2.241134 1_555
O69 S3 1.471451 1_555
O69 Y5 2.223937 1_555
O70 S4 1.471442 1_455
O70 Y5 2.223937 1_555
O71 S5 1.471447 1_565
O71 Y5 2.223937 1_555
