# generated using pymatgen
data_Sr2MgTi2O6
_symmetry_space_group_name_H-M   'P 1'
_cell_length_a   6.21814797
_cell_length_b   5.81362794
_cell_length_c   6.73528071
_cell_angle_alpha   118.00104363
_cell_angle_beta   126.89513926
_cell_angle_gamma   88.74713825
_symmetry_Int_Tables_number   1
_chemical_formula_structural   Sr2MgTi2O6
_chemical_formula_sum   'Sr2 Mg1 Ti2 O6'
_cell_volume   159.84739749
_cell_formula_units_Z   1
loop_
 _symmetry_equiv_pos_site_id
 _symmetry_equiv_pos_as_xyz
  1  'x, y, z'
loop_
 _atom_site_type_symbol
 _atom_site_label
 _atom_site_symmetry_multiplicity
 _atom_site_fract_x
 _atom_site_fract_y
 _atom_site_fract_z
 _atom_site_occupancy
  Sr  Sr0  1  0.77968837  0.25676846  0.38515377  1
  Sr  Sr1  1  0.34838651  0.84694878  0.58337056  1
  Mg  Mg0  1  0.69902383  0.45801905  0.85223232  1
  Ti  Ti0  1  0.41176203  0.58519898  0.09886229  1
  Ti  Ti1  1  0.06341986  0.01851250  0.99225640  1
  O  O0  1  0.86175596  0.25720563  0.05673813  1
  O  O1  1  0.54892986  0.74459211  0.98233308  1
  O  O2  1  0.25877371  0.18866583  0.91564446  1
  O  O3  1  0.04435062  0.64131080  0.94795178  1
  O  O4  1  0.40187350  0.17524448  0.41778609  1
  O  O5  1  0.71298776  0.73229540  0.50576612  1
loop_
_geom_bond_atom_site_label_1
_geom_bond_atom_site_label_2
_geom_bond_distance
_geom_bond_site_symmetry_2
Mg0 O4 1.950131 1_555
Mg0 O3 1.988664 1_655
Mg0 O1 1.989404 1_555
Mg0 O0 2.017142 1_556
O0 Ti1 1.923183 1_654
O0 Sr0 2.552237 1_555
O0 Sr1 2.648822 1_544
O0 Sr1 3.104840 1_655
O1 Ti0 1.929619 1_556
O1 Sr0 2.492568 1_566
O1 Sr1 2.564244 1_555
O2 Ti0 1.938389 1_556
O2 Ti1 2.001207 1_555
O2 Sr1 2.557318 1_545
O2 Sr0 2.688924 1_556
O2 Sr0 3.208434 1_455
O3 Ti0 1.962028 1_556
O3 Ti1 2.065528 1_565
O3 Sr0 2.605457 1_455
O3 Sr1 2.983146 1_556
O4 Ti1 1.965462 1_554
O4 Sr0 2.560991 1_555
O4 Sr1 2.732934 1_545
O5 Ti0 1.859138 1_555
O5 Ti1 2.172440 1_665
O5 Sr0 2.592350 1_555
O5 Sr1 2.624321 1_555
