# generated using pymatgen
data_Na6Hf4Si5SO24
_symmetry_space_group_name_H-M   'P 1'
_cell_length_a   9.13610699
_cell_length_b   9.13679229
_cell_length_c   22.78572445
_cell_angle_alpha   89.90581321
_cell_angle_beta   89.99965542
_cell_angle_gamma   119.94243672
_symmetry_Int_Tables_number   1
_chemical_formula_structural   Na6Hf4Si5SO24
_chemical_formula_sum   'Na18 Hf12 Si15 S3 O72'
_cell_volume   1648.15949021
_cell_formula_units_Z   3
loop_
 _symmetry_equiv_pos_site_id
 _symmetry_equiv_pos_as_xyz
  1  'x, y, z'
loop_
 _atom_site_type_symbol
 _atom_site_label
 _atom_site_symmetry_multiplicity
 _atom_site_fract_x
 _atom_site_fract_y
 _atom_site_fract_z
 _atom_site_occupancy
  Na  Na0  1  0.64130581  0.00363205  0.25277789  1
  Na  Na1  1  0.35995158  0.36252135  0.24660169  1
  Na  Na2  1  0.00016664  0.63507280  0.25048363  1
  Na  Na3  1  0.63596878  0.63513088  0.74746361  1
  Na  Na4  1  0.99665477  0.36186370  0.75046873  1
  Na  Na5  1  0.36722826  0.00423046  0.75063292  1
  Na  Na6  1  0.30167131  0.33216849  0.58579674  1
  Na  Na7  1  0.02849161  0.69855606  0.58294768  1
  Na  Na8  1  0.67117660  0.97035351  0.58328421  1
  Na  Na9  1  0.03927968  0.33675725  0.08720122  1
  Na  Na10  1  0.97933483  0.66658795  0.91730393  1
  Na  Na11  1  0.33296716  0.02385346  0.41667427  1
  Na  Na12  1  0.97958192  0.98703049  0.49803190  1
  Na  Na13  1  0.02548822  0.00979158  0.00009917  1
  Na  Na14  1  0.65931285  0.31122436  0.83458828  1
  Na  Na15  1  0.68859238  0.33965325  0.33640031  1
  Na  Na16  1  0.33591364  0.66430254  0.16512427  1
  Na  Na17  1  0.33533213  0.66592194  0.66685120  1
  Hf  Hf0  1  0.98756690  0.99038351  0.35223609  1
  Hf  Hf1  1  0.01119683  0.01312602  0.85279639  1
  Hf  Hf2  1  0.00009903  0.99976966  0.64808253  1
  Hf  Hf3  1  0.00828324  0.99392920  0.14726264  1
  Hf  Hf4  1  0.66930357  0.33405540  0.68541376  1
  Hf  Hf5  1  0.66549676  0.34137378  0.18591889  1
  Hf  Hf6  1  0.65667541  0.32984041  0.98004848  1
  Hf  Hf7  1  0.68009898  0.33625738  0.48107534  1
  Hf  Hf8  1  0.31787786  0.65848321  0.01956865  1
  Hf  Hf9  1  0.33652407  0.67713311  0.51934199  1
  Hf  Hf10  1  0.32982462  0.67101997  0.31397589  1
  Hf  Hf11  1  0.32565570  0.66934131  0.81427071  1
  Si  Si0  1  0.29437425  0.00237757  0.25285337  1
  Si  Si1  1  0.70796631  0.71014499  0.24862055  1
  Si  Si2  1  0.99947493  0.28872945  0.24806300  1
  Si  Si3  1  0.29596842  0.29538022  0.74868071  1
  Si  Si4  1  0.99698814  0.70740310  0.75170041  1
  Si  Si5  1  0.70838166  0.99854363  0.75011458  1
  Si  Si6  1  0.96271246  0.33265844  0.58434354  1
  Si  Si7  1  0.37483830  0.04440322  0.58203476  1
  Si  Si8  1  0.66589778  0.62411322  0.58364006  1
  Si  Si9  1  0.95572216  0.62825801  0.08161472  1
  Si  Si10  1  0.37103318  0.33516285  0.08401845  1
  Si  Si11  1  0.03351240  0.36717859  0.91723114  1
  Si  Si12  1  0.33420284  0.96212890  0.91604610  1
  Si  Si13  1  0.63058259  0.96424100  0.41659411  1
  Si  Si14  1  0.03560364  0.66742239  0.41630532  1
  S  S0  1  0.66533277  0.04187357  0.08316913  1
  S  S1  1  0.62328525  0.66682079  0.91717312  1
  S  S2  1  0.33323701  0.37478245  0.41681786  1
  O  O0  1  0.21477292  0.04095561  0.31085011  1
  O  O1  1  0.83195501  0.79239722  0.30563287  1
  O  O2  1  0.96651646  0.16275026  0.30340609  1
  O  O3  1  0.20461131  0.16801712  0.80414568  1
  O  O4  1  0.96540330  0.79352732  0.80915337  1
  O  O5  1  0.83597163  0.03169429  0.80449186  1
  O  O6  1  0.78971420  0.96644729  0.69051033  1
  O  O7  1  0.17770732  0.21443694  0.69021588  1
  O  O8  1  0.03149508  0.82621620  0.69348869  1
  O  O9  1  0.79383225  0.83699718  0.19319056  1
  O  O10  1  0.03219296  0.20783929  0.18899038  1
  O  O11  1  0.16690123  0.96428048  0.19715634  1
  O  O12  1  0.88236081  0.37061483  0.64283073  1
  O  O13  1  0.49453369  0.12983715  0.63979128  1
  O  O14  1  0.63311965  0.51025989  0.64319031  1
  O  O15  1  0.86927592  0.50623100  0.13972273  1
  O  O16  1  0.64022453  0.11667708  0.13774712  1
  O  O17  1  0.47889274  0.35172118  0.14396675  1
  O  O18  1  0.46969239  0.30998901  0.02876865  1
  O  O19  1  0.84488451  0.53024171  0.02371766  1
  O  O20  1  0.68838741  0.15237703  0.03215125  1
  O  O21  1  0.46038560  0.16210756  0.52433878  1
  O  O22  1  0.69823038  0.52940708  0.52909595  1
  O  O23  1  0.83498252  0.29662376  0.52908928  1
  O  O24  1  0.53778467  0.68435234  0.96849315  1
  O  O25  1  0.15101652  0.46122260  0.97535088  1
  O  O26  1  0.31309729  0.83676186  0.97091404  1
  O  O27  1  0.53833562  0.84988581  0.47541222  1
  O  O28  1  0.31581800  0.45844395  0.46982536  1
  O  O29  1  0.15439247  0.68885460  0.47400594  1
  O  O30  1  0.12826169  0.64498422  0.35768188  1
  O  O31  1  0.51145488  0.86655062  0.35908766  1
  O  O32  1  0.35083454  0.47551493  0.36348429  1
  O  O33  1  0.12923612  0.48870680  0.85959659  1
  O  O34  1  0.35826612  0.87580842  0.85582465  1
  O  O35  1  0.52530341  0.64593125  0.86251777  1
  O  O36  1  0.03881120  0.84921947  0.41290856  1
  O  O37  1  0.81943037  0.98833228  0.41243096  1
  O  O38  1  0.18106873  0.20448852  0.41338035  1
  O  O39  1  0.01244754  0.17983835  0.91305194  1
  O  O40  1  0.15317952  0.96111138  0.91302905  1
  O  O41  1  0.79537942  0.81627918  0.91318291  1
  O  O42  1  0.97989078  0.16366653  0.58864706  1
  O  O43  1  0.18600457  0.02108493  0.58827951  1
  O  O44  1  0.83369379  0.81269417  0.58824437  1
  O  O45  1  0.97305630  0.81406377  0.08675858  1
  O  O46  1  0.82350856  0.03431576  0.08702809  1
  O  O47  1  0.17613383  0.17379018  0.08708518  1
  O  O48  1  0.68628253  0.16577296  0.74522572  1
  O  O49  1  0.48215088  0.31205796  0.74413154  1
  O  O50  1  0.83111281  0.51911819  0.74554076  1
  O  O51  1  0.69012615  0.52214256  0.24249134  1
  O  O52  1  0.83109958  0.30945953  0.24287146  1
  O  O53  1  0.48386344  0.16453455  0.24357170  1
  O  O54  1  0.64251359  0.51347089  0.92145427  1
  O  O55  1  0.85328813  0.36626734  0.92195641  1
  O  O56  1  0.49866747  0.15039873  0.92207150  1
  O  O57  1  0.62790089  0.14332640  0.42013814  1
  O  O58  1  0.48517235  0.35585868  0.42014408  1
  O  O59  1  0.84728306  0.50239437  0.42047168  1
  O  O60  1  0.35540186  0.50689916  0.07860834  1
  O  O61  1  0.14393509  0.64137587  0.07784341  1
  O  O62  1  0.51766186  0.87210284  0.07630289  1
  O  O63  1  0.35550357  0.85478909  0.57751548  1
  O  O64  1  0.49587411  0.64059604  0.57643031  1
  O  O65  1  0.15041552  0.49840540  0.57605513  1
  O  O66  1  0.31310519  0.83218373  0.25665128  1
  O  O67  1  0.51741165  0.68161487  0.25695491  1
  O  O68  1  0.16844250  0.47623362  0.25648887  1
  O  O69  1  0.31799972  0.48348432  0.75702285  1
  O  O70  1  0.16746895  0.68837051  0.75595640  1
  O  O71  1  0.52206815  0.82857252  0.75715992  1
loop_
_geom_bond_atom_site_label_1
_geom_bond_atom_site_label_2
_geom_bond_distance
_geom_bond_site_symmetry_2
Na0 O52 2.454949 1_555
Na0 O53 2.526713 1_555
Na0 O67 2.573210 1_545
Na0 O66 2.600610 1_545
Na0 O31 2.711194 1_545
Na0 O16 2.817473 1_555
Na0 O2 2.822360 1_555
Na0 O9 2.868452 1_545
Na1 O68 2.450896 1_555
Na1 O67 2.537844 1_555
Na1 O53 2.569714 1_555
Na1 O17 2.601431 1_555
Na1 O51 2.615905 1_555
Na1 O32 2.874124 1_555
Na1 O10 2.910115 1_555
Na1 O0 2.937745 1_555
Na2 O51 2.490832 1_455
Na2 O66 2.509602 1_555
Na2 O52 2.584818 1_455
Na2 O68 2.591359 1_555
Na2 O30 2.690537 1_555
Na2 O15 2.791010 1_455
Na2 O1 2.866740 1_455
Na2 O11 2.873741 1_555
Na3 O71 2.468359 1_555
Na3 O50 2.488117 1_555
Na3 O69 2.527290 1_555
Na3 O49 2.560034 1_555
Na3 O14 2.631871 1_555
Na3 O35 2.829333 1_555
Na3 O6 2.926300 1_555
Na3 O4 2.964359 1_555
Na4 O48 2.488780 1_555
Na4 O50 2.555995 1_555
Na4 O69 2.572964 1_655
Na4 O70 2.589295 1_655
Na4 O12 2.682308 1_555
Na4 O33 2.757074 1_655
Na4 O5 2.887502 1_555
Na4 O7 2.943752 1_655
Na5 O49 2.466889 1_555
Na5 O48 2.528824 1_555
Na5 O70 2.532826 1_545
Na5 O71 2.620087 1_545
Na5 O34 2.650155 1_545
Na5 O13 2.776055 1_555
Na5 O3 2.856379 1_555
Na5 O8 2.962419 1_545
Na6 O64 2.478240 1_555
Na6 O43 2.489924 1_555
Na6 O65 2.521907 1_555
Na6 O42 2.549221 1_455
Na6 O7 2.622228 1_555
Na6 O28 2.858623 1_555
Na6 O14 2.935284 1_555
Na6 O21 2.955371 1_555
Na7 O44 2.474383 1_455
Na7 O43 2.556868 1_565
Na7 O65 2.577630 1_555
Na7 O63 2.592479 1_555
Na7 O29 2.755954 1_555
Na7 O8 2.771840 1_555
Na7 O22 2.889548 1_455
Na7 O12 2.935200 1_455
Na8 O42 2.473311 1_565
Na8 O63 2.531861 1_555
Na8 O44 2.535140 1_555
Na8 O64 2.617571 1_555
Na8 O6 2.679884 1_555
Na8 O27 2.720541 1_555
Na8 O23 2.861055 1_565
Na8 O13 2.956222 1_565
Na9 O47 2.374634 1_555
Na9 O61 2.459185 1_555
Na9 O46 2.466629 1_455
Na9 O60 2.512629 1_555
Na9 O10 2.585702 1_555
Na9 O25 2.768074 1_554
Na9 O15 2.940937 1_455
Na10 O40 2.346509 1_655
Na10 O55 2.389849 1_555
Na10 O41 2.645399 1_555
Na10 O54 2.671614 1_555
Na10 O19 2.720750 1_556
Na10 O4 2.751740 1_555
Na10 O33 2.911180 1_655
Na10 O26 2.912259 1_655
Na11 O36 2.344242 1_545
Na11 O57 2.349987 1_555
Na11 O58 2.632817 1_555
Na11 O38 2.634657 1_555
Na11 O0 2.678053 1_555
Na11 O21 2.740686 1_555
Na11 O29 2.956131 1_545
Na11 O31 2.965185 1_545
Na12 O37 2.441861 1_555
Na12 O36 2.515651 1_655
Na12 O44 2.531578 1_555
Na12 O42 2.621863 1_565
Na12 O43 2.701557 1_665
Na12 O38 2.718997 1_665
Na13 O40 2.452697 1_544
Na13 O47 2.453380 1_555
Na13 O45 2.541618 1_445
Na13 O39 2.556715 1_554
Na13 O41 2.787284 1_444
Na13 O46 2.791572 1_455
Na14 O56 2.474723 1_555
Na14 O48 2.511711 1_555
Na14 O55 2.543667 1_555
Na14 O49 2.623042 1_555
Na14 O50 2.683207 1_555
Na14 O54 2.766048 1_555
Na15 O59 2.416595 1_555
Na15 O57 2.482250 1_555
Na15 O52 2.583282 1_555
Na15 O51 2.706276 1_555
Na15 O58 2.718913 1_555
Na15 O53 2.748847 1_555
Na16 O60 2.500215 1_555
Na16 O61 2.590362 1_555
Na16 O67 2.625290 1_555
Na16 O68 2.644106 1_555
Na16 O66 2.659924 1_555
Na16 O62 2.701510 1_555
Na17 O69 2.598142 1_555
Na17 O64 2.605769 1_555
Na17 O63 2.612731 1_555
Na17 O70 2.613736 1_555
Na17 O71 2.613918 1_555
Na17 O65 2.627947 1_555
Hf0 O1 1.964732 1_555
Hf0 O2 2.012899 1_565
Hf0 O37 2.052410 1_555
Hf0 O36 2.095444 1_655
Hf0 O0 2.110141 1_665
Hf0 O38 2.334498 1_665
Hf1 O3 1.962800 1_555
Hf1 O5 2.018305 1_455
Hf1 O39 2.048135 1_555
Hf1 O4 2.087650 1_445
Hf1 O40 2.098902 1_545
Hf1 O41 2.338266 1_445
Hf2 O8 2.028762 1_555
Hf2 O6 2.033860 1_455
Hf2 O7 2.056884 1_565
Hf2 O42 2.092838 1_465
Hf2 O43 2.109122 1_565
Hf2 O44 2.122623 1_455
Hf3 O11 1.963867 1_555
Hf3 O9 2.044605 1_455
Hf3 O45 2.045582 1_455
Hf3 O10 2.086033 1_565
Hf3 O47 2.099823 1_565
Hf3 O46 2.343041 1_465
Hf4 O13 2.035682 1_555
Hf4 O14 2.037897 1_555
Hf4 O12 2.047385 1_555
Hf4 O49 2.100012 1_555
Hf4 O50 2.105664 1_555
Hf4 O48 2.115833 1_555
Hf5 O17 1.997444 1_555
Hf5 O15 2.009551 1_555
Hf5 O51 2.018962 1_555
Hf5 O53 2.099160 1_555
Hf5 O52 2.120687 1_555
Hf5 O16 2.237667 1_555
Hf6 O18 1.968136 1_556
Hf6 O56 2.040000 1_555
Hf6 O19 2.040212 1_556
Hf6 O55 2.119244 1_555
Hf6 O20 2.141285 1_556
Hf6 O54 2.196268 1_555
Hf7 O23 1.959745 1_555
Hf7 O22 2.013359 1_555
Hf7 O59 2.054906 1_555
Hf7 O21 2.083108 1_555
Hf7 O57 2.105133 1_555
Hf7 O58 2.334250 1_555
Hf8 O25 1.962317 1_554
Hf8 O26 1.987297 1_554
Hf8 O61 2.016018 1_555
Hf8 O60 2.076854 1_555
Hf8 O24 2.229743 1_554
Hf8 O62 2.294386 1_555
Hf9 O27 1.995603 1_555
Hf9 O29 2.006228 1_555
Hf9 O63 2.036660 1_555
Hf9 O64 2.099224 1_555
Hf9 O65 2.109244 1_555
Hf9 O28 2.220662 1_555
Hf10 O30 2.000344 1_555
Hf10 O31 2.012091 1_555
Hf10 O66 2.028787 1_555
Hf10 O68 2.108388 1_555
Hf10 O67 2.113898 1_555
Hf10 O32 2.199069 1_555
Hf11 O34 1.997190 1_555
Hf11 O33 2.012120 1_555
Hf11 O70 2.033346 1_555
Hf11 O71 2.101830 1_555
Hf11 O69 2.116323 1_555
Hf11 O35 2.229351 1_555
O0 Si0 1.629999 1_555
O1 Si1 1.639799 1_555
O2 Si2 1.629420 1_555
O3 Si3 1.635114 1_555
O4 Si4 1.626744 1_555
O5 Si5 1.623121 1_545
O6 Si5 1.643617 1_555
O7 Si3 1.641513 1_555
O8 Si4 1.640366 1_455
O9 Si1 1.625260 1_555
O10 Si2 1.634361 1_455
O11 Si0 1.638559 1_565
O12 Si6 1.640379 1_555
O13 Si7 1.639622 1_555
O14 Si8 1.642361 1_555
O15 Si9 1.654089 1_555
O16 S0 1.491838 1_555
O17 Si10 1.646714 1_555
O18 Si10 1.630368 1_555
O19 Si9 1.632913 1_555
O20 S0 1.482888 1_555
O21 Si7 1.628491 1_555
O22 Si8 1.624602 1_555
O23 Si6 1.634969 1_555
O24 S1 1.459029 1_555
O25 Si11 1.651511 1_555
O26 Si12 1.639226 1_555
O27 Si13 1.647569 1_555
O28 S2 1.480849 1_555
O29 Si14 1.653310 1_555
O30 Si14 1.648359 1_555
O31 Si13 1.652963 1_555
O32 S2 1.482686 1_555
O33 Si11 1.657765 1_555
O34 Si12 1.652245 1_555
O35 S1 1.489606 1_555
O36 Si14 1.648301 1_555
O37 Si13 1.629430 1_555
O38 S2 1.483533 1_555
O39 Si11 1.627169 1_555
O40 Si12 1.650661 1_555
O41 S1 1.483700 1_555
O42 Si6 1.630867 1_555
O43 Si7 1.635526 1_555
O44 Si8 1.641253 1_555
O45 Si9 1.628854 1_555
O46 S0 1.483389 1_555
O47 Si10 1.651746 1_555
O48 Si5 1.641696 1_545
O49 Si3 1.633557 1_555
O50 Si4 1.635258 1_555
O51 Si1 1.648636 1_555
O52 Si2 1.645298 1_555
O53 Si0 1.635660 1_555
O54 S1 1.499597 1_555
O55 Si11 1.645932 1_655
O56 Si12 1.629777 1_545
O57 Si13 1.650740 1_545
O58 S2 1.483914 1_555
O59 Si14 1.628660 1_655
O60 Si10 1.649480 1_555
O61 Si9 1.665165 1_455
O62 S0 1.470531 1_565
O63 Si7 1.654790 1_565
O64 Si8 1.641959 1_555
O65 Si6 1.635981 1_455
O66 Si0 1.649267 1_565
O67 Si1 1.637575 1_555
O68 Si2 1.648007 1_455
O69 Si3 1.638965 1_555
O70 Si4 1.654047 1_455
O71 Si5 1.641730 1_555
