# generated using pymatgen
data_Ho5Sb3
_symmetry_space_group_name_H-M   'P 1'
_cell_length_a   8.90295062
_cell_length_b   8.90288625
_cell_length_c   6.26826821
_cell_angle_alpha   90.00001485
_cell_angle_beta   90.00000000
_cell_angle_gamma   120.00007398
_symmetry_Int_Tables_number   1
_chemical_formula_structural   Ho5Sb3
_chemical_formula_sum   'Ho10 Sb6'
_cell_volume   430.27158660
_cell_formula_units_Z   2
loop_
 _symmetry_equiv_pos_site_id
 _symmetry_equiv_pos_as_xyz
  1  'x, y, z'
loop_
 _atom_site_type_symbol
 _atom_site_label
 _atom_site_symmetry_multiplicity
 _atom_site_fract_x
 _atom_site_fract_y
 _atom_site_fract_z
 _atom_site_occupancy
  Ho  Ho0  1  0.33333389  0.66666711  -0.00000000  1
  Ho  Ho1  1  0.66666711  0.33333289  0.50000000  1
  Ho  Ho2  1  0.66666611  0.33333289  0.00000000  1
  Ho  Ho3  1  0.33333289  0.66666711  0.50000000  1
  Ho  Ho4  1  0.75237640  0.00000081  0.75000000  1
  Ho  Ho5  1  0.75237544  0.75237444  0.25000000  1
  Ho  Ho6  1  -0.00000081  0.24762360  0.25000000  1
  Ho  Ho7  1  0.00000081  0.75237640  0.75000000  1
  Ho  Ho8  1  0.24762456  0.24762556  0.75000000  1
  Ho  Ho9  1  0.24762360  -0.00000081  0.25000000  1
  Sb  Sb0  1  0.38776522  0.00000007  0.75000000  1
  Sb  Sb1  1  0.38776317  0.38776317  0.25000000  1
  Sb  Sb2  1  -0.00000007  0.61223478  0.25000000  1
  Sb  Sb3  1  0.00000007  0.38776622  0.75000000  1
  Sb  Sb4  1  0.61223683  0.61223483  0.75000000  1
  Sb  Sb5  1  0.61223478  -0.00000007  0.25000000  1
loop_
_geom_bond_atom_site_label_1
_geom_bond_atom_site_label_2
_geom_bond_distance
_geom_bond_site_symmetry_2
Ho0 Sb0 3.171628 1_564
Ho0 Sb5 3.171629 1_565
Ho0 Sb1 3.171640 1_555
Ho0 Sb3 3.171640 1_554
Ho0 Sb2 3.171652 1_555
Ho0 Sb4 3.171660 1_554
Ho1 Sb5 3.171625 1_555
Ho1 Sb4 3.171629 1_555
Ho1 Sb0 3.171633 1_555
Ho1 Sb2 3.171639 1_655
Ho1 Sb3 3.171642 1_655
Ho1 Sb1 3.171658 1_555
Ho2 Sb4 3.171625 1_554
Ho2 Sb5 3.171628 1_555
Ho2 Sb0 3.171629 1_554
Ho2 Sb2 3.171643 1_655
Ho2 Sb3 3.171650 1_654
Ho2 Sb1 3.171650 1_555
Ho3 Sb0 3.171625 1_565
Ho3 Sb5 3.171633 1_565
Ho3 Sb3 3.171636 1_555
Ho3 Sb1 3.171644 1_555
Ho3 Sb2 3.171645 1_555
Ho3 Sb4 3.171668 1_555
Ho4 Sb3 3.027761 1_655
Ho4 Sb4 3.027766 1_545
Ho4 Sb0 3.246112 1_555
Ho4 Sb5 3.373348 1_555
Ho4 Sb5 3.373348 1_556
Ho5 Sb2 3.027770 1_655
Ho5 Sb5 3.027777 1_565
Ho5 Sb1 3.246105 1_555
Ho5 Sb4 3.373339 1_554
Ho5 Sb4 3.373339 1_555
Ho6 Sb5 3.027771 1_455
Ho6 Sb1 3.027774 1_555
Ho6 Sb2 3.246089 1_555
Ho6 Sb3 3.373348 1_555
Ho6 Sb3 3.373348 1_554
Ho7 Sb0 3.027771 1_565
Ho7 Sb4 3.027772 1_455
Ho7 Sb3 3.246080 1_555
Ho7 Sb2 3.373344 1_555
Ho7 Sb2 3.373345 1_556
Ho8 Sb3 3.027777 1_555
Ho8 Sb0 3.027777 1_555
Ho8 Sb4 3.246096 1_555
Ho8 Sb1 3.373335 1_556
Ho8 Sb1 3.373336 1_555
Ho9 Sb1 3.027750 1_555
Ho9 Sb2 3.027754 1_545
Ho9 Sb5 3.246112 1_555
Ho9 Sb0 3.373348 1_555
Ho9 Sb0 3.373348 1_554
