# generated using pymatgen
data_Na3(Mn2Te3)2
_symmetry_space_group_name_H-M   'P 1'
_cell_length_a   7.93055645
_cell_length_b   7.93055645
_cell_length_c   7.57952679
_cell_angle_alpha   89.43581906
_cell_angle_beta   89.43581906
_cell_angle_gamma   120.46423101
_symmetry_Int_Tables_number   1
_chemical_formula_structural   Na3(Mn2Te3)2
_chemical_formula_sum   'Na3 Mn4 Te6'
_cell_volume   410.81279752
_cell_formula_units_Z   1
loop_
 _symmetry_equiv_pos_site_id
 _symmetry_equiv_pos_as_xyz
  1  'x, y, z'
loop_
 _atom_site_type_symbol
 _atom_site_label
 _atom_site_symmetry_multiplicity
 _atom_site_fract_x
 _atom_site_fract_y
 _atom_site_fract_z
 _atom_site_occupancy
  Na  Na0  1  0.34828600  0.65171400  0.00000000  1
  Na  Na1  1  0.65171400  0.34828600  0.00000000  1
  Na  Na2  1  0.00000000  0.00000000  0.00000000  1
  Mn  Mn0  1  0.33413200  0.01348600  0.62405600  1
  Mn  Mn1  1  0.98651400  0.66586800  0.37594400  1
  Mn  Mn2  1  0.66586800  0.98651400  0.37594400  1
  Mn  Mn3  1  0.01348600  0.33413200  0.62405600  1
  Te  Te0  1  0.32210000  0.32210000  0.74129800  1
  Te  Te1  1  0.67790000  0.67790000  0.25870200  1
  Te  Te2  1  0.33509800  0.98420500  0.26250000  1
  Te  Te3  1  0.01579500  0.66490200  0.73750000  1
  Te  Te4  1  0.66490200  0.01579500  0.73750000  1
  Te  Te5  1  0.98420500  0.33509800  0.26250000  1
loop_
_geom_bond_atom_site_label_1
_geom_bond_atom_site_label_2
_geom_bond_distance
_geom_bond_site_symmetry_2
Na0 Te1 3.206187 1_555
Na0 Te0 3.206187 1_554
Na0 Te4 3.322241 1_564
Na0 Te5 3.322241 1_455
Na0 Te3 3.361745 1_554
Na0 Te2 3.361745 1_555
Na1 Te1 3.206187 1_555
Na1 Te0 3.206187 1_554
Na1 Te3 3.322241 1_654
Na1 Te2 3.322241 1_545
Na1 Te4 3.361745 1_554
Na1 Te5 3.361745 1_555
Na2 Te0 3.175118 1_554
Na2 Te1 3.175118 1_445
Na2 Te3 3.387248 1_544
Na2 Te4 3.387248 1_454
Na2 Te2 3.387248 1_545
Na2 Te5 3.387248 1_455
Mn0 Te0 2.658367 1_555
Mn0 Te2 2.752785 1_545
Mn0 Te3 2.754769 1_545
Mn0 Te4 2.759860 1_555
Mn1 Te1 2.658367 1_555
Mn1 Te3 2.752785 1_655
Mn1 Te2 2.754769 1_655
Mn1 Te5 2.759860 1_555
Mn2 Te1 2.658367 1_555
Mn2 Te4 2.752785 1_565
Mn2 Te5 2.754769 1_565
Mn2 Te2 2.759860 1_555
Mn3 Te0 2.658367 1_555
Mn3 Te5 2.752785 1_455
Mn3 Te4 2.754769 1_455
Mn3 Te3 2.759860 1_555
