# generated using pymatgen
data_Ba2MgCoWO6
_symmetry_space_group_name_H-M   'P 1'
_cell_length_a   6.67877674
_cell_length_b   5.69726107
_cell_length_c   6.68027394
_cell_angle_alpha   64.79575154
_cell_angle_beta   51.75284488
_cell_angle_gamma   64.70841838
_symmetry_Int_Tables_number   1
_chemical_formula_structural   Ba2MgCoWO6
_chemical_formula_sum   'Ba2 Mg1 Co1 W1 O6'
_cell_volume   175.76906420
_cell_formula_units_Z   1
loop_
 _symmetry_equiv_pos_site_id
 _symmetry_equiv_pos_as_xyz
  1  'x, y, z'
loop_
 _atom_site_type_symbol
 _atom_site_label
 _atom_site_symmetry_multiplicity
 _atom_site_fract_x
 _atom_site_fract_y
 _atom_site_fract_z
 _atom_site_occupancy
  Ba  Ba0  1  0.68690300  0.81349100  0.68610500  1
  Ba  Ba1  1  0.31309700  0.18650900  0.31389500  1
  Mg  Mg0  1  0.00000000  0.50000000  0.00000000  1
  Co  Co0  1  0.00000000  0.00000000  0.00000000  1
  W  W0  1  0.50000000  0.50000000  0.50000000  1
  O  O0  1  0.23497300  0.75010100  0.76504000  1
  O  O1  1  0.23457300  0.24915200  0.76528000  1
  O  O2  1  0.69567500  0.30463200  0.69489900  1
  O  O3  1  0.30432500  0.69536800  0.30510100  1
  O  O4  1  0.76542700  0.75084800  0.23472000  1
  O  O5  1  0.76502700  0.24989900  0.23496000  1
loop_
_geom_bond_atom_site_label_1
_geom_bond_atom_site_label_2
_geom_bond_distance
_geom_bond_site_symmetry_2
Ba0 O2 2.849721 1_565
Ba0 O2 2.850572 1_555
Ba0 O4 2.879861 1_555
Ba0 O1 2.880929 1_565
Ba0 O5 2.883838 1_565
Ba0 O0 2.884009 1_555
Ba0 O3 3.166756 1_655
Ba0 O3 3.177753 1_556
Ba1 O3 2.849721 1_545
Ba1 O3 2.850572 1_555
Ba1 O1 2.879861 1_555
Ba1 O4 2.880929 1_545
Ba1 O0 2.883838 1_545
Ba1 O5 2.884009 1_555
Ba1 O2 3.166756 1_455
Ba1 O2 3.177753 1_554
Mg0 O4 1.977247 1_455
Mg0 O1 1.977247 1_554
Mg0 O0 1.978095 1_554
Mg0 O5 1.978095 1_455
Co0 O1 1.972575 1_554
Co0 O4 1.972575 1_445
Co0 O5 1.974310 1_455
Co0 O0 1.974310 1_544
O0 W0 2.100399 1_555
O1 W0 2.107998 1_555
O2 W0 2.066752 1_555
O3 W0 2.066752 1_555
O4 W0 2.107998 1_555
O5 W0 2.100399 1_555
