# generated using pymatgen
data_SbRh
_symmetry_space_group_name_H-M   'P 1'
_cell_length_a   3.88337309
_cell_length_b   6.00436448
_cell_length_c   6.39799785
_cell_angle_alpha   90.00000000
_cell_angle_beta   90.00000000
_cell_angle_gamma   90.00000000
_symmetry_Int_Tables_number   1
_chemical_formula_structural   SbRh
_chemical_formula_sum   'Sb4 Rh4'
_cell_volume   149.18331514
_cell_formula_units_Z   4
loop_
 _symmetry_equiv_pos_site_id
 _symmetry_equiv_pos_as_xyz
  1  'x, y, z'
loop_
 _atom_site_type_symbol
 _atom_site_label
 _atom_site_symmetry_multiplicity
 _atom_site_fract_x
 _atom_site_fract_y
 _atom_site_fract_z
 _atom_site_occupancy
  Sb  Sb0  1  0.75000000  0.80213542  0.40939720  1
  Sb  Sb1  1  0.25000000  0.19786458  0.59060280  1
  Sb  Sb2  1  0.75000000  0.30213542  0.09060280  1
  Sb  Sb3  1  0.25000000  0.69786458  0.90939720  1
  Rh  Rh0  1  0.75000000  0.99538618  0.80411548  1
  Rh  Rh1  1  0.25000000  0.00461382  0.19588452  1
  Rh  Rh2  1  0.75000000  0.49538618  0.69588452  1
  Rh  Rh3  1  0.25000000  0.50461382  0.30411548  1
loop_
_geom_bond_atom_site_label_1
_geom_bond_atom_site_label_2
_geom_bond_distance
_geom_bond_site_symmetry_2
Rh0 Sb2 2.598469 1_566
Rh0 Sb1 2.667266 1_565
Rh0 Sb1 2.667266 1_665
Rh0 Sb3 2.723086 1_655
Rh0 Sb3 2.723086 1_555
Rh0 Sb0 2.779224 1_555
Rh1 Sb3 2.598469 1_544
Rh1 Sb0 2.667266 1_545
Rh1 Sb0 2.667266 1_445
Rh1 Sb2 2.723086 1_555
Rh1 Sb2 2.723086 1_455
Rh1 Sb1 2.779224 1_555
Rh2 Sb0 2.598469 1_555
Rh2 Sb3 2.667266 1_555
Rh2 Sb3 2.667266 1_655
Rh2 Sb1 2.723086 1_555
Rh2 Sb1 2.723086 1_655
Rh2 Sb2 2.779224 1_556
Rh3 Sb1 2.598469 1_555
Rh3 Sb2 2.667266 1_455
Rh3 Sb2 2.667266 1_555
Rh3 Sb0 2.723086 1_455
Rh3 Sb0 2.723086 1_555
Rh3 Sb3 2.779224 1_554
