# generated using pymatgen
data_Na4SnS4
_symmetry_space_group_name_H-M   'P 1'
_cell_length_a   6.95621257
_cell_length_b   7.81961597
_cell_length_c   7.81961597
_cell_angle_alpha   90.00000000
_cell_angle_beta   90.00000000
_cell_angle_gamma   90.00000000
_symmetry_Int_Tables_number   1
_chemical_formula_structural   Na4SnS4
_chemical_formula_sum   'Na8 Sn2 S8'
_cell_volume   425.34731398
_cell_formula_units_Z   2
loop_
 _symmetry_equiv_pos_site_id
 _symmetry_equiv_pos_as_xyz
  1  'x, y, z'
loop_
 _atom_site_type_symbol
 _atom_site_label
 _atom_site_symmetry_multiplicity
 _atom_site_fract_x
 _atom_site_fract_y
 _atom_site_fract_z
 _atom_site_occupancy
  Na  Na0  1  0.03067456  0.19778108  0.59386456  1
  Na  Na1  1  0.96932544  0.59386456  0.80221892  1
  Na  Na2  1  0.96932544  0.40613544  0.19778108  1
  Na  Na3  1  0.03067456  0.80221892  0.40613544  1
  Na  Na4  1  0.46932544  0.69778108  0.90613544  1
  Na  Na5  1  0.46932544  0.30221892  0.09386456  1
  Na  Na6  1  0.53067456  0.90613544  0.30221892  1
  Na  Na7  1  0.53067456  0.09386456  0.69778108  1
  Sn  Sn0  1  -0.00000000  -0.00000000  0.00000000  1
  Sn  Sn1  1  0.50000000  0.50000000  0.50000000  1
  S  S0  1  0.68965609  0.25996218  0.40706203  1
  S  S1  1  0.68965609  0.74003782  0.59293797  1
  S  S2  1  0.18965609  0.09293797  0.24003782  1
  S  S3  1  0.81034391  0.24003782  0.90706203  1
  S  S4  1  0.81034391  0.75996218  0.09293797  1
  S  S5  1  0.18965609  0.90706203  0.75996218  1
  S  S6  1  0.31034391  0.59293797  0.25996218  1
  S  S7  1  0.31034391  0.40706203  0.74003782  1
loop_
_geom_bond_atom_site_label_1
_geom_bond_atom_site_label_2
_geom_bond_distance
_geom_bond_site_symmetry_2
Na0 S7 2.787355 1_555
Na0 S0 2.827977 1_455
Na0 S5 2.842167 1_545
Na0 S3 2.907966 1_455
Na0 S2 3.090353 1_555
Na1 S1 2.787355 1_555
Na1 S7 2.827977 1_655
Na1 S4 2.842167 1_556
Na1 S5 2.907966 1_655
Na1 S3 3.090353 1_555
Na2 S0 2.787355 1_555
Na2 S6 2.827977 1_655
Na2 S3 2.842167 1_554
Na2 S2 2.907966 1_655
Na2 S4 3.090353 1_555
Na3 S6 2.787355 1_555
Na3 S1 2.827977 1_455
Na3 S2 2.842167 1_565
Na3 S4 2.907966 1_455
Na3 S5 3.090353 1_555
Na4 S5 2.787355 1_555
Na4 S4 2.827977 1_556
Na4 S7 2.842167 1_555
Na4 S1 2.907966 1_555
Na4 S6 3.090353 1_556
Na5 S2 2.787355 1_555
Na5 S3 2.827977 1_554
Na5 S6 2.842167 1_555
Na5 S0 2.907966 1_555
Na5 S7 3.090353 1_554
Na6 S4 2.787355 1_555
Na6 S2 2.827977 1_565
Na6 S1 2.842167 1_555
Na6 S6 2.907966 1_555
Na6 S0 3.090353 1_565
Na7 S3 2.787355 1_555
Na7 S5 2.827977 1_545
Na7 S0 2.842167 1_555
Na7 S7 2.907966 1_555
Na7 S1 3.090353 1_545
S0 Sn1 2.406619 1_555
S1 Sn1 2.406619 1_555
S2 Sn0 2.406619 1_555
S3 Sn0 2.406619 1_656
S4 Sn0 2.406619 1_665
S5 Sn0 2.406619 1_566
S6 Sn1 2.406619 1_555
S7 Sn1 2.406619 1_555
