# generated using pymatgen
data_TcP3
_symmetry_space_group_name_H-M   'P 1'
_cell_length_a   3.11739506
_cell_length_b   5.13315370
_cell_length_c   15.36421722
_cell_angle_alpha   90.00000000
_cell_angle_beta   90.00000000
_cell_angle_gamma   90.00000000
_symmetry_Int_Tables_number   1
_chemical_formula_structural   TcP3
_chemical_formula_sum   'Tc4 P12'
_cell_volume   245.85924852
_cell_formula_units_Z   4
loop_
 _symmetry_equiv_pos_site_id
 _symmetry_equiv_pos_as_xyz
  1  'x, y, z'
loop_
 _atom_site_type_symbol
 _atom_site_label
 _atom_site_symmetry_multiplicity
 _atom_site_fract_x
 _atom_site_fract_y
 _atom_site_fract_z
 _atom_site_occupancy
  Tc  Tc0  1  0.25000000  0.35108270  0.65029038  1
  Tc  Tc1  1  0.75000000  0.64891730  0.34970962  1
  Tc  Tc2  1  0.75000000  0.85108270  0.84970962  1
  Tc  Tc3  1  0.25000000  0.14891730  0.15029038  1
  P  P0  1  0.25000000  0.52207349  0.79333751  1
  P  P1  1  0.75000000  0.47792651  0.20666249  1
  P  P2  1  0.75000000  0.02207349  0.70666249  1
  P  P3  1  0.25000000  0.97792651  0.29333751  1
  P  P4  1  0.25000000  0.35343093  0.01246535  1
  P  P5  1  0.75000000  0.64656907  0.98753465  1
  P  P6  1  0.75000000  0.85343093  0.48753465  1
  P  P7  1  0.25000000  0.14656907  0.51246535  1
  P  P8  1  0.25000000  0.32066897  0.38161268  1
  P  P9  1  0.75000000  0.67933103  0.61838732  1
  P  P10  1  0.75000000  0.82066897  0.11838732  1
  P  P11  1  0.25000000  0.17933103  0.88161268  1
loop_
_geom_bond_atom_site_label_1
_geom_bond_atom_site_label_2
_geom_bond_distance
_geom_bond_site_symmetry_2
P0 P11 2.221442 1_555
P0 Tc0 2.366591 1_555
P0 Tc2 2.455997 1_455
P0 Tc2 2.455997 1_555
P1 P10 2.221442 1_555
P1 Tc1 2.366591 1_555
P1 Tc3 2.455997 1_555
P1 Tc3 2.455997 1_655
P2 P9 2.221442 1_545
P2 Tc2 2.366591 1_545
P2 Tc0 2.455997 1_555
P2 Tc0 2.455997 1_655
P3 P8 2.221442 1_565
P3 Tc3 2.366591 1_565
P3 Tc1 2.455997 1_455
P3 Tc1 2.455997 1_555
P4 P5 2.200102 1_454
P4 P5 2.200102 1_554
P4 Tc3 2.363514 1_555
P5 Tc2 2.363514 1_555
P6 P7 2.200102 1_665
P6 P7 2.200102 1_565
P6 P9 2.200130 1_555
P6 Tc1 2.363514 1_555
P7 P8 2.200130 1_555
P7 Tc0 2.363514 1_555
P8 Tc1 2.347095 1_555
P8 Tc1 2.347095 1_455
P9 Tc0 2.347095 1_555
P9 Tc0 2.347095 1_655
P10 P5 2.200130 1_554
P10 Tc3 2.347095 1_565
P10 Tc3 2.347095 1_665
P11 P4 2.200130 1_556
P11 Tc2 2.347095 1_545
P11 Tc2 2.347095 1_445
