# generated using pymatgen
data_La3MgTi3CrO12
_symmetry_space_group_name_H-M   'P 1'
_cell_length_a   5.49380464
_cell_length_b   5.53380555
_cell_length_c   7.91182029
_cell_angle_alpha   90.21779941
_cell_angle_beta   89.94682876
_cell_angle_gamma   89.71199080
_symmetry_Int_Tables_number   1
_chemical_formula_structural   La3MgTi3CrO12
_chemical_formula_sum   'La3 Mg1 Ti3 Cr1 O12'
_cell_volume   240.52747997
_cell_formula_units_Z   1
loop_
 _symmetry_equiv_pos_site_id
 _symmetry_equiv_pos_as_xyz
  1  'x, y, z'
loop_
 _atom_site_type_symbol
 _atom_site_label
 _atom_site_symmetry_multiplicity
 _atom_site_fract_x
 _atom_site_fract_y
 _atom_site_fract_z
 _atom_site_occupancy
  La  La0  1  0.49627700  0.54112100  0.25072100  1
  La  La1  1  0.50911200  0.46063400  0.74795500  1
  La  La2  1  0.99457600  0.96515600  0.75021200  1
  Mg  Mg0  1  0.99323500  0.02626000  0.25628500  1
  Ti  Ti0  1  0.99950200  0.49879700  0.00641200  1
  Ti  Ti1  1  0.00105600  0.49490800  0.49228600  1
  Ti  Ti2  1  0.49880800  0.00351400  0.00809800  1
  Cr  Cr0  1  0.50125700  0.00110000  0.49357200  1
  O  O0  1  0.94214000  0.43022000  0.25128500  1
  O  O1  1  0.18876300  0.81572900  0.06180500  1
  O  O2  1  0.18948900  0.80826800  0.43707300  1
  O  O3  1  0.30390500  0.30568400  0.02300000  1
  O  O4  1  0.30535500  0.30586200  0.47417600  1
  O  O5  1  0.61355100  0.99201200  0.25008000  1
  O  O6  1  0.42739100  0.99615100  0.74860000  1
  O  O7  1  0.70287600  0.70140400  0.52724300  1
  O  O8  1  0.69898900  0.70713500  0.97137900  1
  O  O9  1  0.79176200  0.21218800  0.54880200  1
  O  O10  1  0.78503000  0.21637500  0.95251100  1
  O  O11  1  0.06698800  0.52795000  0.74850300  1
loop_
_geom_bond_atom_site_label_1
_geom_bond_atom_site_label_2
_geom_bond_distance
_geom_bond_site_symmetry_2
La0 O4 2.438941 1_555
La0 O3 2.461707 1_555
La0 O0 2.522212 1_555
La0 O5 2.580138 1_555
La0 O7 2.619426 1_555
La0 O8 2.643850 1_554
La0 O2 2.674649 1_555
La0 O1 2.719117 1_555
La1 O7 2.446674 1_555
La1 O11 2.455488 1_555
La1 O8 2.464350 1_555
La1 O4 2.584298 1_555
La1 O9 2.596482 1_555
La1 O10 2.597047 1_555
La1 O3 2.600191 1_556
La1 O6 2.611519 1_545
La2 O9 2.377835 1_565
La2 O6 2.384865 1_655
La2 O10 2.404842 1_565
La2 O11 2.449911 1_655
La2 O8 2.788317 1_555
La2 O7 2.796362 1_555
La2 O1 2.812639 1_656
La2 O2 2.829801 1_655
Mg0 O5 2.096054 1_545
Mg0 O2 2.160217 1_645
Mg0 O1 2.202157 1_645
Mg0 O0 2.252092 1_555
Cr0 O4 2.002535 1_555
Cr0 O7 2.008431 1_545
Cr0 O5 2.022655 1_545
Cr0 O9 2.029470 1_555
Cr0 O6 2.058081 1_545
Cr0 O2 2.070830 1_545
O0 Ti1 1.966151 1_655
O0 Ti0 2.000617 1_555
O1 Ti2 2.044885 1_565
O1 Ti0 2.088652 1_455
O2 Ti1 2.071828 1_555
O3 Ti2 1.984132 1_555
O3 Ti0 1.984801 1_455
O4 Ti1 1.972450 1_555
O5 Ti2 2.017317 1_565
O6 Ti2 2.090896 1_566
O7 Ti1 2.010901 1_655
O8 Ti2 1.990340 1_566
O8 Ti0 2.028748 1_556
O9 Ti1 1.998046 1_655
O10 Ti0 2.006767 1_556
O10 Ti2 2.018616 1_556
O11 Ti1 2.067161 1_555
O11 Ti0 2.080612 1_456
