# generated using pymatgen
data_La6MnSb15
_symmetry_space_group_name_H-M   'P 1'
_cell_length_a   12.86141587
_cell_length_b   12.86141587
_cell_length_c   4.30460449
_cell_angle_alpha   80.40457529
_cell_angle_beta   80.40457529
_cell_angle_gamma   102.12461448
_symmetry_Int_Tables_number   1
_chemical_formula_structural   La6MnSb15
_chemical_formula_sum   'La6 Mn1 Sb15'
_cell_volume   671.23391090
_cell_formula_units_Z   1
loop_
 _symmetry_equiv_pos_site_id
 _symmetry_equiv_pos_as_xyz
  1  'x, y, z'
loop_
 _atom_site_type_symbol
 _atom_site_label
 _atom_site_symmetry_multiplicity
 _atom_site_fract_x
 _atom_site_fract_y
 _atom_site_fract_z
 _atom_site_occupancy
  La  La0  1  0.00285757  0.27059916  0.94875902  1
  La  La1  1  0.99437889  0.72616806  0.22510409  1
  La  La2  1  0.72616806  0.99437889  0.22510409  1
  La  La3  1  0.27059916  0.00285757  0.94875902  1
  La  La4  1  0.67920454  0.32304271  0.08431222  1
  La  La5  1  0.32304271  0.67920454  0.08431222  1
  Mn  Mn0  1  0.28054659  0.28054659  0.80861122  1
  Sb  Sb0  1  0.40105951  0.40105951  0.18699712  1
  Sb  Sb1  1  0.58960571  0.58960571  0.99384406  1
  Sb  Sb2  1  0.91007344  0.51256896  0.87159418  1
  Sb  Sb3  1  0.07579348  0.48758358  0.30284231  1
  Sb  Sb4  1  0.48758358  0.07579348  0.30284231  1
  Sb  Sb5  1  0.51256896  0.91007344  0.87159418  1
  Sb  Sb6  1  0.23757412  0.47645364  0.72754954  1
  Sb  Sb7  1  0.74904943  0.54222581  0.43890304  1
  Sb  Sb8  1  0.54222581  0.74904943  0.43890304  1
  Sb  Sb9  1  0.47645364  0.23757412  0.72754954  1
  Sb  Sb10  1  0.16582521  0.16582521  0.42104510  1
  Sb  Sb11  1  0.86094531  0.86094531  0.72464873  1
  Sb  Sb12  1  0.80104029  0.19722471  0.58703180  1
  Sb  Sb13  1  0.19722471  0.80104029  0.58703180  1
  Sb  Sb14  1  0.99338030  0.99338030  0.09286036  1
loop_
_geom_bond_atom_site_label_1
_geom_bond_atom_site_label_2
_geom_bond_distance
_geom_bond_site_symmetry_2
La0 Sb12 3.295579 1_455
La0 Sb12 3.302409 1_456
La0 Sb3 3.433115 1_556
La0 Sb3 3.441333 1_555
La0 Sb6 3.445755 1_555
La0 Sb10 3.462499 1_555
La0 Sb10 3.469283 1_556
La0 Sb14 3.488096 1_446
La0 Mn0 3.492816 1_555
La0 Sb2 3.544993 1_455
La1 Sb13 3.309328 1_654
La1 Sb13 3.310686 1_655
La1 Sb14 3.391766 1_555
La1 Sb7 3.401463 1_555
La1 Sb2 3.414847 1_555
La1 Sb2 3.425025 1_554
La1 Sb3 3.427615 1_655
La1 Sb11 3.439187 1_554
La1 Sb11 3.440339 1_555
La2 Sb12 3.309328 1_564
La2 Sb12 3.310686 1_565
La2 Sb14 3.391766 1_555
La2 Sb8 3.401463 1_555
La2 Sb5 3.414847 1_555
La2 Sb5 3.425025 1_554
La2 Sb4 3.427615 1_565
La2 Sb11 3.439187 1_554
La2 Sb11 3.440339 1_555
La3 Sb13 3.295579 1_545
La3 Sb13 3.302409 1_546
La3 Sb4 3.433115 1_556
La3 Sb4 3.441333 1_555
La3 Sb9 3.445755 1_555
La3 Sb10 3.462499 1_555
La3 Sb10 3.469283 1_556
La3 Sb14 3.488096 1_446
La3 Mn0 3.492816 1_555
La3 Sb5 3.544993 1_545
La4 Sb12 3.279920 1_554
La4 Sb12 3.284076 1_555
La4 Sb2 3.302418 1_554
La4 Sb9 3.324006 1_555
La4 Sb9 3.325721 1_554
La4 Sb7 3.451287 1_555
La4 Sb7 3.459124 1_554
La4 Sb4 3.465349 1_555
La4 Sb1 3.820669 1_554
La4 Sb0 3.889491 1_555
La5 Sb13 3.279920 1_554
La5 Sb13 3.284076 1_555
La5 Sb5 3.302418 1_554
La5 Sb6 3.324006 1_555
La5 Sb6 3.325721 1_554
La5 Sb8 3.451287 1_555
La5 Sb8 3.459124 1_554
La5 Sb3 3.465349 1_555
La5 Sb1 3.820669 1_554
La5 Sb0 3.889491 1_555
Mn0 Sb9 2.670579 1_555
Mn0 Sb6 2.670579 1_555
Mn0 Sb10 2.792132 1_556
Mn0 Sb10 2.804304 1_555
Mn0 Sb0 2.851647 1_556
Mn0 Sb0 2.861852 1_555
Sb0 Sb1 2.938992 1_554
Sb0 Sb9 3.279226 1_555
Sb0 Sb6 3.279226 1_555
Sb0 Sb6 3.297937 1_554
Sb0 Sb9 3.297937 1_554
Sb1 Sb7 3.108067 1_555
Sb1 Sb8 3.108067 1_555
Sb1 Sb8 3.113258 1_556
Sb1 Sb7 3.113258 1_556
Sb2 Sb7 3.047067 1_555
Sb2 Sb7 3.058494 1_556
Sb2 Sb3 3.074151 1_655
Sb2 Sb3 3.082216 1_656
Sb3 Sb6 2.999711 1_555
Sb3 Sb6 3.001333 1_554
Sb4 Sb9 2.999711 1_555
Sb4 Sb9 3.001333 1_554
Sb4 Sb5 3.074151 1_545
Sb4 Sb5 3.082216 1_544
Sb5 Sb8 3.047067 1_555
Sb5 Sb8 3.058494 1_556
Sb10 Sb14 3.443328 1_445
Sb10 Sb14 3.443576 1_446
Sb11 Sb14 2.981831 1_555
Sb11 Sb14 2.982625 1_556
