# generated using pymatgen
data_MgFe2(CuS2)2
_symmetry_space_group_name_H-M   'P 1'
_cell_length_a   5.20527500
_cell_length_b   5.33470401
_cell_length_c   5.33470401
_cell_angle_alpha   89.99415733
_cell_angle_beta   90.00000000
_cell_angle_gamma   90.00000000
_symmetry_Int_Tables_number   1
_chemical_formula_structural   MgFe2(CuS2)2
_chemical_formula_sum   'Mg1 Fe2 Cu2 S4'
_cell_volume   148.13726838
_cell_formula_units_Z   1
loop_
 _symmetry_equiv_pos_site_id
 _symmetry_equiv_pos_as_xyz
  1  'x, y, z'
loop_
 _atom_site_type_symbol
 _atom_site_label
 _atom_site_symmetry_multiplicity
 _atom_site_fract_x
 _atom_site_fract_y
 _atom_site_fract_z
 _atom_site_occupancy
  Mg  Mg0  1  0.00000400  0.50000000  0.00000000  1
  Fe  Fe0  1  0.50006500  0.00000000  0.50000000  1
  Fe  Fe1  1  0.50005000  0.50000000  0.00000000  1
  Cu  Cu0  1  0.00002100  0.50000000  0.50000000  1
  Cu  Cu1  1  0.00002100  0.00000000  0.00000000  1
  S  S0  1  0.71609300  0.24509300  0.74509300  1
  S  S1  1  0.28382600  0.75492800  0.74507200  1
  S  S2  1  0.28382600  0.24507200  0.25492800  1
  S  S3  1  0.71609300  0.75490700  0.25490600  1
loop_
_geom_bond_atom_site_label_1
_geom_bond_atom_site_label_2
_geom_bond_distance
_geom_bond_site_symmetry_2
Mg0 S1 2.425131 1_554
Mg0 S2 2.425131 1_555
Mg0 S3 2.425440 1_455
Mg0 S0 2.425443 1_454
Fe0 S0 2.164237 1_555
Fe0 S3 2.164240 1_545
Fe0 S2 2.164511 1_555
Fe0 S1 2.164511 1_545
Fe1 S3 2.227871 1_555
Fe1 S0 2.227874 1_554
Fe1 S1 2.228317 1_554
Fe1 S2 2.228317 1_555
Fe1 Mg0 2.602398 1_655
Fe1 Mg0 2.602877 1_555
Cu0 S1 2.396141 1_555
Cu0 S2 2.396141 1_555
Cu0 S0 2.396382 1_455
Cu0 S3 2.396385 1_455
Cu0 Mg0 2.667352 1_555
Cu0 Mg0 2.667352 1_556
Cu1 S2 2.396141 1_555
Cu1 S1 2.396141 1_544
Cu1 S3 2.396379 1_445
Cu1 S0 2.396382 1_454
Cu1 Mg0 2.667352 1_555
Cu1 Mg0 2.667352 1_545
