# generated using pymatgen
data_Na10Ca4Al4Si3(S3O16)3
_symmetry_space_group_name_H-M   'P 1'
_cell_length_a   18.10142719
_cell_length_b   9.08237632
_cell_length_c   22.31976973
_cell_angle_alpha   89.80558032
_cell_angle_beta   87.45551844
_cell_angle_gamma   120.23439133
_symmetry_Int_Tables_number   1
_chemical_formula_structural   Na10Ca4Al4Si3(S3O16)3
_chemical_formula_sum   'Na30 Ca12 Al12 Si9 S27 O144'
_cell_volume   3165.77700974
_cell_formula_units_Z   3
loop_
 _symmetry_equiv_pos_site_id
 _symmetry_equiv_pos_as_xyz
  1  'x, y, z'
loop_
 _atom_site_type_symbol
 _atom_site_label
 _atom_site_symmetry_multiplicity
 _atom_site_fract_x
 _atom_site_fract_y
 _atom_site_fract_z
 _atom_site_occupancy
  Na  Na0  1  0.18898767  0.37196363  0.24644089  1
  Na  Na1  1  0.68881722  0.37351926  0.24523536  1
  Na  Na2  1  0.98660678  0.65236199  0.25568493  1
  Na  Na3  1  0.48956316  0.64038101  0.26367781  1
  Na  Na4  1  0.33275915  0.66201215  0.74257791  1
  Na  Na5  1  0.82681163  0.65350067  0.74512396  1
  Na  Na6  1  0.98854718  0.33372639  0.75386020  1
  Na  Na7  1  0.18414451  0.00042928  0.74146054  1
  Na  Na8  1  0.68546767  0.00277294  0.74052802  1
  Na  Na9  1  0.51814587  0.70721576  0.57357641  1
  Na  Na10  1  0.31952426  0.97593465  0.59101937  1
  Na  Na11  1  0.81742164  0.96766939  0.58895289  1
  Na  Na12  1  0.15577662  0.98096390  0.08131769  1
  Na  Na13  1  0.65570762  0.98126320  0.07928312  1
  Na  Na14  1  0.32244881  0.67754248  0.09430835  1
  Na  Na15  1  0.82173154  0.67421824  0.09481505  1
  Na  Na16  1  0.65414965  0.99350943  0.42666197  1
  Na  Na17  1  0.35678318  0.67022793  0.40773898  1
  Na  Na18  1  0.02607763  0.01348392  0.50389755  1
  Na  Na19  1  0.51095254  0.01203235  0.50278671  1
  Na  Na20  1  0.01345986  0.03755957  0.00356684  1
  Na  Na21  1  0.51329370  0.04006303  0.00435324  1
  Na  Na22  1  0.35112281  0.30459776  0.83201248  1
  Na  Na23  1  0.83520407  0.30991825  0.83501917  1
  Na  Na24  1  0.33504087  0.32640626  0.33566392  1
  Na  Na25  1  0.84083925  0.35860775  0.33444735  1
  Na  Na26  1  0.16897345  0.64697982  0.16887139  1
  Na  Na27  1  0.67103181  0.65431863  0.17051822  1
  Na  Na28  1  0.16020529  0.68047571  0.66466477  1
  Na  Na29  1  0.65626698  0.65786418  0.66600617  1
  Ca  Ca0  1  0.99853383  0.99174293  0.35574667  1
  Ca  Ca1  1  0.50046431  0.00220348  0.35241864  1
  Ca  Ca2  1  0.99946467  0.00350318  0.85663152  1
  Ca  Ca3  1  0.49749174  0.00398079  0.85749720  1
  Ca  Ca4  1  0.33356217  0.32802780  0.68487069  1
  Ca  Ca5  1  0.83246682  0.32942924  0.68001568  1
  Ca  Ca6  1  0.33377614  0.33437688  0.18335622  1
  Ca  Ca7  1  0.83442458  0.33765950  0.18316483  1
  Ca  Ca8  1  0.16247169  0.65002311  0.01809439  1
  Ca  Ca9  1  0.66252923  0.64930324  0.01762420  1
  Ca  Ca10  1  0.16079691  0.66777699  0.52151718  1
  Ca  Ca11  1  0.66859044  0.66843037  0.51567486  1
  Al  Al0  1  0.99337379  0.98220483  0.64377638  1
  Al  Al1  1  0.50575682  0.03443875  0.65000760  1
  Al  Al2  1  0.98558458  0.02322375  0.14700811  1
  Al  Al3  1  0.49819576  0.01715871  0.15370008  1
  Al  Al4  1  0.32284913  0.32066442  0.98407878  1
  Al  Al5  1  0.82154163  0.32145998  0.98227613  1
  Al  Al6  1  0.33239928  0.32380150  0.48233536  1
  Al  Al7  1  0.82908057  0.33603514  0.48732153  1
  Al  Al8  1  0.18071003  0.69009473  0.31615963  1
  Al  Al9  1  0.67858214  0.67958892  0.32627445  1
  Al  Al10  1  0.18295510  0.67585860  0.82376194  1
  Al  Al11  1  0.66774649  0.67233324  0.81648944  1
  Si  Si0  1  0.35106235  0.71652072  0.25111146  1
  Si  Si1  1  0.84976269  0.72052771  0.25053696  1
  Si  Si2  1  0.35037592  0.98719363  0.75250304  1
  Si  Si3  1  0.85145715  0.98807987  0.74987836  1
  Si  Si4  1  0.18042553  0.04988507  0.58725624  1
  Si  Si5  1  0.67768923  0.04208480  0.58744164  1
  Si  Si6  1  0.17714530  0.31275636  0.09045062  1
  Si  Si7  1  0.67758918  0.31398381  0.08953696  1
  Si  Si8  1  0.51486472  0.64372826  0.42013873  1
  S  S0  1  0.14811881  0.97580893  0.25110900  1
  S  S1  1  0.64552081  0.97987192  0.24756821  1
  S  S2  1  0.00554099  0.30132632  0.24980003  1
  S  S3  1  0.50572931  0.30221484  0.24743266  1
  S  S4  1  0.14455092  0.31109749  0.75018256  1
  S  S5  1  0.64200741  0.31206986  0.74934559  1
  S  S6  1  0.00450117  0.71414192  0.74785323  1
  S  S7  1  0.50997170  0.71360912  0.75225575  1
  S  S8  1  0.48020095  0.31533683  0.58065969  1
  S  S9  1  0.97440504  0.30691702  0.58161768  1
  S  S10  1  0.33948719  0.63876218  0.58052601  1
  S  S11  1  0.84395194  0.64038557  0.58122514  1
  S  S12  1  0.47338496  0.63490459  0.07670442  1
  S  S13  1  0.97389255  0.63625984  0.07683493  1
  S  S14  1  0.34091407  0.05019624  0.07628497  1
  S  S15  1  0.84067521  0.05182771  0.07657981  1
  S  S16  1  0.31060599  0.63098720  0.91859704  1
  S  S17  1  0.80904645  0.63023818  0.91630240  1
  S  S18  1  0.01261871  0.38956414  0.91558639  1
  S  S19  1  0.51327950  0.39143232  0.91646123  1
  S  S20  1  0.17980315  0.97335261  0.91780299  1
  S  S21  1  0.67814813  0.97270603  0.91744671  1
  S  S22  1  0.30601541  0.97307308  0.41624795  1
  S  S23  1  0.81376547  0.98714742  0.41908354  1
  S  S24  1  0.17270783  0.38673313  0.41257685  1
  S  S25  1  0.68104152  0.37944737  0.41657530  1
  S  S26  1  0.01034898  0.63455955  0.41728868  1
  O  O0  1  0.11242887  0.02144385  0.30331453  1
  O  O1  1  0.61083359  0.00922329  0.30430048  1
  O  O2  1  0.40296411  0.78862677  0.31051891  1
  O  O3  1  0.91628237  0.79948441  0.30168747  1
  O  O4  1  0.49809626  0.21197970  0.30330476  1
  O  O5  1  0.99742215  0.20720342  0.30444908  1
  O  O6  1  0.11615725  0.19795626  0.80393963  1
  O  O7  1  0.60973640  0.20072020  0.80284019  1
  O  O8  1  0.50041566  0.79246728  0.80649915  1
  O  O9  1  0.99523657  0.78788637  0.80382519  1
  O  O10  1  0.39997761  0.99063891  0.80939908  1
  O  O11  1  0.91646536  0.03121007  0.80161271  1
  O  O12  1  0.40324779  0.96489654  0.69055352  1
  O  O13  1  0.89759246  0.95264435  0.68728210  1
  O  O14  1  0.09042363  0.22551980  0.69937246  1
  O  O15  1  0.59007287  0.22513876  0.69639831  1
  O  O16  1  0.01156957  0.82262704  0.69450835  1
  O  O17  1  0.52345598  0.82044184  0.69714507  1
  O  O18  1  0.40552672  0.84095636  0.18956734  1
  O  O19  1  0.89763417  0.84076444  0.18567197  1
  O  O20  1  0.01054418  0.20669769  0.19513303  1
  O  O21  1  0.50828902  0.20278075  0.19394490  1
  O  O22  1  0.09727218  0.94837719  0.19771221  1
  O  O23  1  0.59154306  0.97225130  0.19657162  1
  O  O24  1  0.44649567  0.35208374  0.63614864  1
  O  O25  1  0.94727217  0.33278968  0.64233255  1
  O  O26  1  0.23091108  0.11336778  0.64830552  1
  O  O27  1  0.73072292  0.10990231  0.64674218  1
  O  O28  1  0.33543310  0.55554691  0.63842776  1
  O  O29  1  0.83462275  0.55789653  0.64017213  1
  O  O30  1  0.44426654  0.55309627  0.13663996  1
  O  O31  1  0.94537376  0.55726010  0.13746796  1
  O  O32  1  0.32750457  0.12193377  0.13110076  1
  O  O33  1  0.82763887  0.12240871  0.13160303  1
  O  O34  1  0.22598269  0.33939107  0.15119615  1
  O  O35  1  0.72689097  0.33996785  0.14993282  1
  O  O36  1  0.23179176  0.27928022  0.03339343  1
  O  O37  1  0.73182968  0.27948850  0.03233665  1
  O  O38  1  0.41838249  0.51928545  0.02936306  1
  O  O39  1  0.91874691  0.51801030  0.03021699  1
  O  O40  1  0.34947042  0.15697260  0.02177261  1
  O  O41  1  0.85032929  0.15702144  0.02206516  1
  O  O42  1  0.24271059  0.18019125  0.52922006  1
  O  O43  1  0.73390368  0.16847950  0.52712311  1
  O  O44  1  0.34501406  0.53964712  0.52861019  1
  O  O45  1  0.84860550  0.53656512  0.53084062  1
  O  O46  1  0.42572558  0.29419955  0.52953223  1
  O  O47  1  0.91564419  0.30616841  0.53562084  1
  O  O48  1  0.27418949  0.65613191  0.97441933  1
  O  O49  1  0.77300356  0.65326863  0.97299811  1
  O  O50  1  0.05576831  0.46408821  0.97018980  1
  O  O51  1  0.55446310  0.45945657  0.97227563  1
  O  O52  1  0.16785588  0.88220654  0.97471583  1
  O  O53  1  0.66647092  0.87902583  0.97371509  1
  O  O54  1  0.27324841  0.87783314  0.47335694  1
  O  O55  1  0.78156783  0.90330215  0.47836069  1
  O  O56  1  0.16680878  0.46623899  0.46744565  1
  O  O57  1  0.66632559  0.44977198  0.47085502  1
  O  O58  1  0.05921942  0.65009093  0.46925141  1
  O  O59  1  0.56543119  0.68021956  0.48052633  1
  O  O60  1  0.05447716  0.62018774  0.36029267  1
  O  O61  1  0.57665706  0.63576450  0.36139800  1
  O  O62  1  0.24940647  0.87148147  0.36607283  1
  O  O63  1  0.75439042  0.87592512  0.37159475  1
  O  O64  1  0.17779137  0.49546780  0.35782274  1
  O  O65  1  0.68699798  0.48241838  0.36120572  1
  O  O66  1  0.06540865  0.50264604  0.86085106  1
  O  O67  1  0.56739478  0.50893774  0.86339366  1
  O  O68  1  0.18595132  0.87148048  0.86515613  1
  O  O69  1  0.68503334  0.87652720  0.86386291  1
  O  O70  1  0.25608317  0.62198757  0.86618487  1
  O  O71  1  0.75582087  0.61850882  0.86415648  1
  O  O72  1  0.99784144  0.78228451  0.41385257  1
  O  O73  1  0.50283498  0.81114551  0.41331891  1
  O  O74  1  0.39341737  0.00494932  0.40585115  1
  O  O75  1  0.90128489  0.02533668  0.40855300  1
  O  O76  1  0.09950235  0.21263345  0.41004777  1
  O  O77  1  0.61080646  0.20017082  0.41164931  1
  O  O78  1  0.00170638  0.21798569  0.91112053  1
  O  O79  1  0.50243772  0.22095915  0.90990686  1
  O  O80  1  0.10785681  0.00289331  0.91090862  1
  O  O81  1  0.60713447  0.00553968  0.91164877  1
  O  O82  1  0.39885326  0.76920962  0.90938487  1
  O  O83  1  0.89746265  0.77021950  0.90770034  1
  O  O84  1  0.47597280  0.14498066  0.58768563  1
  O  O85  1  0.96634025  0.13389099  0.58045310  1
  O  O86  1  0.08575615  0.04068721  0.59454995  1
  O  O87  1  0.58186278  0.02864068  0.59569014  1
  O  O88  1  0.42005970  0.80922686  0.57668637  1
  O  O89  1  0.92551139  0.80965205  0.57906835  1
  O  O90  1  0.46797107  0.79352310  0.07381536  1
  O  O91  1  0.96795625  0.79420586  0.07303088  1
  O  O92  1  0.41872166  0.03457714  0.07865424  1
  O  O93  1  0.92073365  0.03964789  0.07999995  1
  O  O94  1  0.08099646  0.12875132  0.09708457  1
  O  O95  1  0.58222961  0.12986050  0.09571041  1
  O  O96  1  0.32933696  0.13999512  0.74980902  1
  O  O97  1  0.83332277  0.14735205  0.74729013  1
  O  O98  1  0.23660305  0.36970775  0.73869922  1
  O  O99  1  0.73283951  0.35836514  0.73841400  1
  O  O100  1  0.43333016  0.54251350  0.74757568  1
  O  O101  1  0.92817397  0.53940454  0.74468224  1
  O  O102  1  0.33733627  0.52371149  0.24711106  1
  O  O103  1  0.83390681  0.52581385  0.24542933  1
  O  O104  1  0.43428452  0.33608898  0.24519502  1
  O  O105  1  0.93401583  0.33528294  0.24639152  1
  O  O106  1  0.23875951  0.10714737  0.24274749  1
  O  O107  1  0.73489240  0.11780530  0.24043204  1
  O  O108  1  0.30825461  0.46358301  0.92143719  1
  O  O109  1  0.80918867  0.46342295  0.92048677  1
  O  O110  1  0.42793691  0.38130639  0.91814881  1
  O  O111  1  0.92683773  0.37791899  0.91725438  1
  O  O112  1  0.26247312  0.14139737  0.91805767  1
  O  O113  1  0.76157066  0.14056629  0.91883129  1
  O  O114  1  0.30652171  0.13752710  0.41824182  1
  O  O115  1  0.80891359  0.14773927  0.41757441  1
  O  O116  1  0.25455260  0.38214369  0.40998380  1
  O  O117  1  0.76375082  0.37807394  0.41948806  1
  O  O118  1  0.41637617  0.46966250  0.42788775  1
  O  O119  1  0.92333238  0.47183536  0.42490576  1
  O  O120  1  0.17030102  0.48293366  0.08248560  1
  O  O121  1  0.67108128  0.48463411  0.08226965  1
  O  O122  1  0.06508142  0.68686886  0.06934582  1
  O  O123  1  0.56490723  0.68645648  0.06905854  1
  O  O124  1  0.26450089  0.87495656  0.07261795  1
  O  O125  1  0.76646028  0.87580367  0.07242307  1
  O  O126  1  0.16866527  0.85956827  0.58094697  1
  O  O127  1  0.66365741  0.84855370  0.58226703  1
  O  O128  1  0.26555709  0.66622767  0.57900814  1
  O  O129  1  0.77117978  0.66939915  0.57623581  1
  O  O130  1  0.06348836  0.43783408  0.57101784  1
  O  O131  1  0.56989741  0.44825818  0.57271635  1
  O  O132  1  0.14165249  0.80287720  0.26321308  1
  O  O133  1  0.64119142  0.81116949  0.25034060  1
  O  O134  1  0.25400032  0.69777416  0.25740699  1
  O  O135  1  0.75291244  0.70060619  0.26524736  1
  O  O136  1  0.08773502  0.46837075  0.24726477  1
  O  O137  1  0.58794714  0.46698823  0.24402232  1
  O  O138  1  0.13881478  0.47064977  0.76142752  1
  O  O139  1  0.64148298  0.47552572  0.75736268  1
  O  O140  1  0.08324293  0.70100331  0.74706835  1
  O  O141  1  0.59068494  0.70085818  0.75605155  1
  O  O142  1  0.25215722  0.79969710  0.75971336  1
  O  O143  1  0.75556592  0.80558479  0.76221386  1
loop_
_geom_bond_atom_site_label_1
_geom_bond_atom_site_label_2
_geom_bond_distance
_geom_bond_site_symmetry_2
Na0 O34 2.265512 1_555
Na0 O102 2.321038 1_555
Na0 O136 2.395734 1_555
Na0 O134 2.593215 1_555
Na0 O64 2.771773 1_555
Na1 O103 2.270125 1_555
Na1 O35 2.275579 1_555
Na1 O137 2.370764 1_555
Na1 O135 2.637189 1_555
Na1 O65 2.778833 1_555
Na1 O107 2.836465 1_555
Na2 O103 2.423253 1_555
Na2 O132 2.439951 1_655
Na2 O3 2.463019 1_555
Na2 O105 2.550171 1_555
Na2 O22 2.690301 1_655
Na2 O60 2.767259 1_655
Na2 O31 2.793977 1_555
Na3 O133 2.380077 1_555
Na3 O102 2.450526 1_555
Na3 O104 2.463501 1_555
Na3 O2 2.711594 1_555
Na3 O61 2.759639 1_555
Na4 O98 2.333768 1_555
Na4 O142 2.372734 1_555
Na4 O28 2.528546 1_555
Na4 O100 2.551773 1_555
Na4 O12 2.618355 1_555
Na5 O143 2.338914 1_555
Na5 O99 2.352571 1_555
Na5 O101 2.520655 1_555
Na5 O29 2.523748 1_555
Na5 O13 2.648336 1_555
Na5 O71 2.844405 1_555
Na6 O138 2.368417 1_655
Na6 O97 2.455630 1_555
Na6 O11 2.575629 1_555
Na6 O101 2.607502 1_555
Na6 O25 2.629379 1_555
Na6 O14 2.734915 1_655
Na6 O66 2.856973 1_655
Na6 O140 2.881589 1_655
Na7 O26 2.246469 1_555
Na7 O96 2.288871 1_555
Na7 O140 2.392171 1_545
Na7 O142 2.702834 1_545
Na8 O27 2.242947 1_555
Na8 O97 2.325519 1_555
Na8 O141 2.405339 1_545
Na8 O143 2.718271 1_545
Na9 O59 2.272232 1_555
Na9 O127 2.294601 1_555
Na9 O88 2.379447 1_555
Na9 O87 2.601089 1_565
Na10 O126 2.402958 1_555
Na10 O84 2.446313 1_565
Na10 O128 2.489882 1_555
Na10 O26 2.758781 1_565
Na10 O12 2.773570 1_555
Na10 O54 2.802148 1_555
Na10 O46 2.842046 1_565
Na10 O88 2.903991 1_555
Na11 O85 2.331500 1_565
Na11 O129 2.421284 1_555
Na11 O127 2.438280 1_555
Na11 O55 2.574077 1_555
Na11 O13 2.724236 1_555
Na11 O27 2.769234 1_565
Na11 O47 2.883111 1_565
Na11 O89 2.954373 1_555
Na12 O122 2.351363 1_555
Na12 O94 2.355527 1_565
Na12 O36 2.544328 1_565
Na12 O52 2.584441 1_554
Na12 O124 2.591054 1_555
Na12 O22 2.719014 1_555
Na13 O95 2.343668 1_565
Na13 O123 2.351224 1_555
Na13 O37 2.535154 1_565
Na13 O53 2.570679 1_554
Na13 O125 2.620605 1_555
Na13 O23 2.800303 1_555
Na14 O90 2.313648 1_555
Na14 O120 2.438054 1_555
Na14 O124 2.546116 1_555
Na14 O18 2.653755 1_555
Na14 O92 2.814514 1_565
Na14 O48 2.828666 1_554
Na14 O34 2.910247 1_555
Na15 O91 2.325337 1_555
Na15 O121 2.412886 1_555
Na15 O19 2.542324 1_555
Na15 O125 2.546720 1_555
Na15 O35 2.866222 1_555
Na15 O49 2.873012 1_554
Na15 O93 2.878617 1_565
Na16 O77 2.398541 1_565
Na16 O73 2.416868 1_555
Na16 O115 2.418072 1_565
Na16 O59 2.706338 1_555
Na16 O43 2.763782 1_565
Na16 O63 2.775963 1_555
Na16 O1 2.897264 1_565
Na17 O73 2.294709 1_555
Na17 O116 2.321141 1_555
Na17 O2 2.341276 1_555
Na17 O118 2.588546 1_555
Na17 O74 2.765852 1_565
Na17 O44 2.898788 1_555
Na18 O86 2.291419 1_555
Na18 O89 2.422785 1_445
Na18 O85 2.514833 1_455
Na18 O76 2.594598 1_555
Na18 O72 2.783664 1_445
Na19 O88 2.346658 1_545
Na19 O87 2.452249 1_555
Na19 O84 2.475611 1_555
Na19 O77 2.619967 1_555
Na19 O73 2.668127 1_545
Na20 O93 2.346489 1_455
Na20 O94 2.399148 1_555
Na20 O91 2.448943 1_445
Na20 O78 2.712061 1_554
Na20 O80 2.743790 1_554
Na21 O92 2.311870 1_555
Na21 O95 2.364819 1_555
Na21 O90 2.470646 1_545
Na21 O81 2.737481 1_554
Na21 O79 2.742285 1_554
Na22 O96 2.290409 1_555
Na22 O110 2.320725 1_555
Na22 O112 2.402520 1_555
Na22 O100 2.630676 1_555
Na22 O108 2.771533 1_555
Na23 O113 2.310024 1_555
Na23 O111 2.397502 1_555
Na23 O97 2.447489 1_555
Na23 O109 2.530613 1_555
Na23 O101 2.716535 1_555
Na24 O114 2.368256 1_555
Na24 O116 2.380018 1_555
Na24 O118 2.540802 1_555
Na24 O104 2.613414 1_555
Na24 O102 2.648235 1_555
Na24 O106 2.856183 1_555
Na25 O117 2.365741 1_555
Na25 O119 2.469623 1_555
Na25 O115 2.492066 1_555
Na25 O103 2.542278 1_555
Na25 O105 2.611641 1_555
Na26 O136 2.281538 1_555
Na26 O120 2.447349 1_555
Na26 O134 2.459227 1_555
Na26 O132 2.704862 1_555
Na26 O124 2.815492 1_555
Na27 O137 2.243488 1_555
Na27 O133 2.490394 1_555
Na27 O121 2.505317 1_555
Na27 O135 2.549646 1_555
Na27 O125 2.821182 1_555
Na28 O140 2.322655 1_555
Na28 O126 2.421543 1_555
Na28 O142 2.637722 1_555
Na28 O128 2.689808 1_555
Na28 O138 2.756953 1_555
Na28 O130 2.959919 1_555
Na29 O141 2.421021 1_555
Na29 O127 2.496643 1_555
Na29 O139 2.540519 1_555
Na29 O143 2.752370 1_555
Na29 O131 2.778952 1_555
Na29 O129 2.785932 1_555
Ca0 O3 2.068157 1_555
Ca0 O0 2.217276 1_665
Ca0 O75 2.222653 1_565
Ca0 O5 2.273157 1_565
Ca0 O72 2.293248 1_555
Ca0 O76 2.314027 1_665
Ca1 O2 2.112656 1_545
Ca1 O1 2.197641 1_555
Ca1 O4 2.214904 1_555
Ca1 O73 2.219183 1_545
Ca1 O74 2.240824 1_555
Ca1 O77 2.367254 1_555
Ca2 O11 2.090697 1_555
Ca2 O6 2.229901 1_655
Ca2 O83 2.248234 1_545
Ca2 O9 2.258924 1_545
Ca2 O78 2.283932 1_655
Ca2 O80 2.353560 1_655
Ca3 O10 2.058309 1_545
Ca3 O7 2.217697 1_555
Ca3 O82 2.245301 1_545
Ca3 O8 2.258484 1_545
Ca3 O79 2.259916 1_555
Ca3 O81 2.363226 1_555
Ca4 O26 2.101641 1_555
Ca4 O24 2.181858 1_555
Ca4 O96 2.205670 1_555
Ca4 O98 2.269822 1_555
Ca4 O28 2.292949 1_555
Ca4 O100 2.390614 1_555
Ca5 O27 2.086200 1_555
Ca5 O25 2.192663 1_555
Ca5 O97 2.236205 1_555
Ca5 O29 2.236281 1_555
Ca5 O99 2.300254 1_555
Ca5 O101 2.373803 1_555
Ca6 O34 2.130302 1_555
Ca6 O30 2.198433 1_555
Ca6 O102 2.213428 1_555
Ca6 O32 2.214175 1_555
Ca6 O106 2.275719 1_555
Ca6 O104 2.325920 1_555
Ca7 O35 2.123370 1_555
Ca7 O31 2.195921 1_555
Ca7 O103 2.209712 1_555
Ca7 O33 2.224299 1_555
Ca7 O107 2.241020 1_555
Ca7 O105 2.346639 1_555
Ca8 O120 2.146745 1_555
Ca8 O50 2.153242 1_554
Ca8 O48 2.180471 1_554
Ca8 O122 2.223969 1_555
Ca8 O52 2.272584 1_554
Ca8 O124 2.341405 1_555
Ca9 O121 2.140321 1_555
Ca9 O51 2.148243 1_554
Ca9 O49 2.177784 1_554
Ca9 O123 2.231014 1_555
Ca9 O53 2.269084 1_554
Ca9 O125 2.364536 1_555
Ca10 O126 2.143984 1_555
Ca10 O58 2.159109 1_555
Ca10 O130 2.189002 1_555
Ca10 O54 2.195338 1_555
Ca10 O56 2.241166 1_555
Ca10 O128 2.342126 1_555
Ca11 O59 2.108244 1_555
Ca11 O55 2.206747 1_555
Ca11 O57 2.209411 1_555
Ca11 O131 2.234787 1_555
Ca11 O127 2.246171 1_555
Ca11 O129 2.341407 1_555
Al0 O86 1.795587 1_665
Al0 O13 1.844167 1_555
Al0 O16 1.998493 1_655
Al0 O89 2.070047 1_555
Al0 O85 2.205028 1_565
Al0 O14 2.410813 1_665
Al1 O87 1.815386 1_555
Al1 O12 1.824213 1_545
Al1 O84 1.958515 1_555
Al1 O15 1.972739 1_555
Al1 O17 2.372822 1_545
Al1 O88 2.514178 1_545
Al2 O19 1.799124 1_545
Al2 O94 1.816019 1_655
Al2 O20 1.852498 1_655
Al2 O93 1.991944 1_555
Al3 O18 1.784480 1_545
Al3 O95 1.812457 1_555
Al3 O21 1.843127 1_555
Al3 O23 2.184514 1_545
Al3 O92 2.311186 1_555
Al4 O36 1.811568 1_556
Al4 O40 1.974674 1_556
Al4 O108 2.018747 1_555
Al4 O38 2.071763 1_556
Al4 O112 2.093811 1_555
Al4 O110 2.185895 1_555
Al5 O37 1.800956 1_556
Al5 O109 1.979924 1_555
Al5 O41 2.026476 1_556
Al5 O113 2.058911 1_555
Al5 O39 2.108217 1_556
Al5 O111 2.183361 1_555
Al6 O42 1.771836 1_555
Al6 O118 1.827453 1_555
Al6 O114 2.099040 1_555
Al6 O44 2.132114 1_555
Al6 O46 2.156233 1_555
Al6 O116 2.412976 1_555
Al7 O43 1.813229 1_555
Al7 O45 1.944154 1_555
Al7 O119 2.007705 1_555
Al7 O47 2.065681 1_555
Al7 O117 2.108619 1_555
Al7 O115 2.218378 1_555
Al8 O134 1.798955 1_555
Al8 O62 1.890449 1_555
Al8 O132 1.934151 1_555
Al8 O64 1.970440 1_555
Al8 O60 2.220242 1_555
Al8 O136 2.467786 1_555
Al9 O135 1.810792 1_555
Al9 O61 1.818486 1_555
Al9 O63 1.938361 1_555
Al9 O65 2.028241 1_555
Al9 O133 2.379367 1_555
Al10 O142 1.813564 1_555
Al10 O70 1.910129 1_555
Al10 O68 1.982876 1_555
Al10 O66 2.037467 1_555
Al10 O138 2.159717 1_555
Al11 O143 1.827788 1_555
Al11 O67 1.924524 1_555
Al11 O69 2.028203 1_555
Al11 O141 2.088367 1_555
Al11 O139 2.092514 1_555
Al11 O71 2.201035 1_555
O0 S0 1.467304 1_545
O1 S1 1.472741 1_545
O2 Si0 1.602057 1_555
O3 Si1 1.589196 1_555
O4 S3 1.452453 1_555
O5 S2 1.445915 1_655
O6 S4 1.471301 1_555
O7 S5 1.457579 1_555
O8 S7 1.456277 1_555
O9 S6 1.462060 1_655
O10 Si2 1.578927 1_555
O11 Si3 1.590909 1_545
O12 Si2 1.717094 1_555
O13 Si3 1.709710 1_555
O14 S4 1.479161 1_555
O15 S5 1.503732 1_555
O16 S6 1.502125 1_555
O17 S7 1.496938 1_555
O18 Si0 1.698024 1_555
O19 Si1 1.721733 1_555
O20 S2 1.520306 1_555
O21 S3 1.512455 1_555
O22 S0 1.482591 1_555
O23 S1 1.512023 1_555
O24 S8 1.469112 1_555
O25 S9 1.480589 1_555
O26 Si4 1.615405 1_555
O27 Si5 1.604891 1_555
O28 S10 1.475086 1_555
O29 S11 1.472075 1_555
O30 S12 1.468231 1_555
O31 S13 1.473476 1_555
O32 S14 1.455554 1_555
O33 S15 1.451488 1_555
O34 Si6 1.603611 1_555
O35 Si7 1.601926 1_555
O36 Si6 1.698937 1_555
O37 Si7 1.700972 1_555
O38 S12 1.502835 1_555
O39 S13 1.500891 1_555
O40 S14 1.506264 1_555
O41 S15 1.492959 1_555
O42 Si4 1.692893 1_555
O43 Si5 1.690340 1_555
O44 S10 1.500184 1_555
O45 S11 1.496550 1_555
O46 S8 1.490704 1_555
O47 S9 1.508349 1_555
O48 S16 1.455908 1_555
O49 S17 1.461734 1_555
O50 S18 1.453006 1_555
O51 S19 1.453693 1_555
O52 S20 1.460771 1_555
O53 S21 1.460802 1_555
O54 S22 1.460647 1_555
O55 S23 1.465531 1_555
O56 S24 1.450747 1_555
O57 S25 1.447278 1_555
O58 S26 1.454003 1_555
O59 Si8 1.603556 1_555
O60 S26 1.513054 1_555
O61 Si8 1.710900 1_555
O62 S22 1.520617 1_555
O63 S23 1.521208 1_555
O64 S24 1.538698 1_555
O65 S25 1.514045 1_555
O66 S18 1.536203 1_555
O67 S19 1.528739 1_555
O68 S20 1.532548 1_555
O69 S21 1.520675 1_555
O70 S16 1.539854 1_555
O71 S17 1.513695 1_555
O72 S26 1.471068 1_655
O73 Si8 1.648476 1_555
O74 S22 1.465051 1_545
O75 S23 1.448561 1_545
O76 S24 1.468515 1_555
O77 S25 1.486114 1_555
O78 S18 1.473154 1_555
O79 S19 1.468071 1_555
O80 S20 1.470079 1_545
O81 S21 1.469219 1_545
O82 S16 1.455851 1_555
O83 S17 1.461708 1_555
O84 S8 1.517375 1_555
O85 S9 1.503708 1_555
O86 Si4 1.673633 1_555
O87 Si5 1.678040 1_555
O88 S10 1.498489 1_555
O89 S11 1.500935 1_555
O90 S12 1.493752 1_555
O91 S13 1.493934 1_555
O92 S14 1.488074 1_555
O93 S15 1.513068 1_555
O94 Si6 1.700054 1_555
O95 Si7 1.692740 1_555
O96 Si2 1.615046 1_545
O97 Si3 1.637981 1_545
O98 S4 1.481018 1_555
O99 S5 1.485647 1_555
O100 S7 1.480954 1_555
O101 S6 1.494595 1_655
O102 Si0 1.643515 1_555
O103 Si1 1.648013 1_555
O104 S3 1.475119 1_555
O105 S2 1.479148 1_655
O106 S0 1.466296 1_545
O107 S1 1.465153 1_545
O108 S16 1.500488 1_555
O109 S17 1.518941 1_555
O110 S19 1.499361 1_555
O111 S18 1.501026 1_655
O112 S20 1.506490 1_545
O113 S21 1.513783 1_545
O114 S22 1.489868 1_545
O115 S23 1.505047 1_545
O116 S24 1.501514 1_555
O117 S25 1.507748 1_555
O118 Si8 1.685211 1_555
O119 S26 1.524568 1_655
O120 Si6 1.621361 1_555
O121 Si7 1.620579 1_555
O122 S13 1.474703 1_455
O123 S12 1.478557 1_555
O124 S14 1.498986 1_565
O125 S15 1.489422 1_565
O126 Si4 1.639117 1_565
O127 Si5 1.649791 1_565
O128 S10 1.481357 1_555
O129 S11 1.476302 1_555
O130 S9 1.450288 1_455
O131 S8 1.457412 1_555
O132 S0 1.537120 1_555
O133 S1 1.495214 1_555
O134 Si0 1.676992 1_555
O135 Si1 1.686131 1_555
O136 S2 1.495762 1_555
O137 S3 1.485429 1_555
O138 S4 1.524923 1_555
O139 S5 1.500632 1_555
O140 S6 1.488362 1_555
O141 S7 1.528563 1_555
O142 Si2 1.735062 1_555
O143 Si3 1.700899 1_555
