# generated using pymatgen
data_MgV6O15
_symmetry_space_group_name_H-M   'P 1'
_cell_length_a   8.48988026
_cell_length_b   8.33655536
_cell_length_c   10.27760974
_cell_angle_alpha   65.10329690
_cell_angle_beta   113.77996885
_cell_angle_gamma   154.81537021
_symmetry_Int_Tables_number   1
_chemical_formula_structural   MgV6O15
_chemical_formula_sum   'Mg1 V6 O15'
_cell_volume   280.30688305
_cell_formula_units_Z   1
loop_
 _symmetry_equiv_pos_site_id
 _symmetry_equiv_pos_as_xyz
  1  'x, y, z'
loop_
 _atom_site_type_symbol
 _atom_site_label
 _atom_site_symmetry_multiplicity
 _atom_site_fract_x
 _atom_site_fract_y
 _atom_site_fract_z
 _atom_site_occupancy
  Mg  Mg0  1  0.09340400  0.11839700  0.72982700  1
  V  V0  1  0.14893200  0.91407900  0.09833000  1
  V  V1  1  0.89330800  0.14925100  0.89547100  1
  V  V2  1  0.25395000  0.67434400  0.42561500  1
  V  V3  1  0.34192000  0.65728600  0.12733400  1
  V  V4  1  0.70498400  0.37259000  0.89879400  1
  V  V5  1  0.70321400  0.28001700  0.58894700  1
  O  O0  1  0.21806400  0.84791400  0.95172000  1
  O  O1  1  0.13030600  0.90464700  0.25359200  1
  O  O2  1  0.22577100  0.74916200  0.56720300  1
  O  O3  1  0.37456400  0.63152600  0.95865800  1
  O  O4  1  0.27187900  0.72440000  0.23927600  1
  O  O5  1  0.31081300  0.51189600  0.52472700  1
  O  O6  1  0.42035200  0.53815600  0.25549700  1
  O  O7  1  0.64062300  0.53048200  0.76625600  1
  O  O8  1  0.05837400  0.04551500  0.96182500  1
  O  O9  1  0.61614100  0.40881800  0.51666200  1
  O  O10  1  0.74667100  0.27846700  0.77929700  1
  O  O11  1  0.67064500  0.38667500  0.07239700  1
  O  O12  1  0.74126100  0.22596900  0.42964600  1
  O  O13  1  0.83632900  0.09390800  0.72881500  1
  O  O14  1  0.82349600  0.18983500  0.06761100  1
loop_
_geom_bond_atom_site_label_1
_geom_bond_atom_site_label_2
_geom_bond_distance
_geom_bond_site_symmetry_2
Mg0 O13 1.995569 1_455
Mg0 O7 2.078431 1_555
Mg0 O7 2.110743 1_445
Mg0 O5 2.228979 1_555
Mg0 O8 2.273314 1_555
O0 V4 1.897718 1_565
O0 V4 1.906891 1_455
O0 V0 2.217678 1_556
O0 V3 2.442885 1_556
O1 V0 1.628762 1_555
O2 V5 1.920518 1_455
O2 V5 1.923792 1_565
O2 V2 1.969480 1_555
O3 V1 1.899369 1_455
O3 V3 1.984157 1_556
O3 V1 1.997455 1_565
O4 V2 1.819956 1_555
O4 V3 1.919927 1_555
O4 V0 2.351090 1_555
O5 V2 1.652237 1_555
O6 V3 1.597769 1_555
O7 V4 1.754567 1_555
O8 V0 1.766489 1_546
O8 V1 2.025588 1_455
O9 V5 1.604190 1_555
O10 V5 1.835437 1_555
O10 V4 1.978338 1_555
O10 V1 2.069144 1_555
O11 V0 1.921492 1_655
O11 V0 1.922545 1_545
O11 V4 1.984961 1_554
O12 V2 1.867586 1_655
O12 V2 1.963142 1_545
O12 V5 2.073381 1_555
O13 V1 1.724489 1_555
O13 V5 2.395053 1_555
O14 V3 1.918429 1_545
O14 V3 1.930628 1_655
O14 V1 2.303980 1_554
O14 V4 2.341965 1_554
