# generated using pymatgen
data_TlBO2
_symmetry_space_group_name_H-M   'P 1'
_cell_length_a   7.38892239
_cell_length_b   7.38892239
_cell_length_c   9.39313667
_cell_angle_alpha   90.00000000
_cell_angle_beta   90.00000000
_cell_angle_gamma   90.00000000
_symmetry_Int_Tables_number   1
_chemical_formula_structural   TlBO2
_chemical_formula_sum   'Tl8 B8 O16'
_cell_volume   512.82932484
_cell_formula_units_Z   8
loop_
 _symmetry_equiv_pos_site_id
 _symmetry_equiv_pos_as_xyz
  1  'x, y, z'
loop_
 _atom_site_type_symbol
 _atom_site_label
 _atom_site_symmetry_multiplicity
 _atom_site_fract_x
 _atom_site_fract_y
 _atom_site_fract_z
 _atom_site_occupancy
  Tl  Tl0  1  0.74094666  0.97584658  0.90651872  1
  Tl  Tl1  1  0.02415342  0.74094666  0.15651872  1
  Tl  Tl2  1  0.97584658  0.25905334  0.65651872  1
  Tl  Tl3  1  0.25905334  0.02415342  0.40651872  1
  Tl  Tl4  1  0.73410708  0.73434651  0.49624366  1
  Tl  Tl5  1  0.26565349  0.73410708  0.74624366  1
  Tl  Tl6  1  0.73434651  0.26589292  0.24624366  1
  Tl  Tl7  1  0.26589292  0.26565349  0.99624366  1
  B  B0  1  0.54656491  0.59481288  0.02019121  1
  B  B1  1  0.40518712  0.54656491  0.27019121  1
  B  B2  1  0.59481288  0.45343509  0.77019121  1
  B  B3  1  0.45343509  0.40518712  0.52019121  1
  B  B4  1  0.86468832  0.54076453  0.91993747  1
  B  B5  1  0.45923547  0.86468832  0.16993747  1
  B  B6  1  0.54076453  0.13531168  0.66993747  1
  B  B7  1  0.13531168  0.45923547  0.41993747  1
  O  O0  1  0.20996983  0.50035356  0.28844640  1
  O  O1  1  0.49964644  0.20996983  0.53844640  1
  O  O2  1  0.50035356  0.79003017  0.03844640  1
  O  O3  1  0.79003017  0.49964644  0.78844640  1
  O  O4  1  0.51479116  0.46072755  0.37976446  1
  O  O5  1  0.53927245  0.51479116  0.62976446  1
  O  O6  1  0.46072755  0.48520884  0.12976446  1
  O  O7  1  0.48520884  0.53927245  0.87976446  1
  O  O8  1  0.25347481  0.42532412  0.53283815  1
  O  O9  1  0.57467588  0.25347481  0.78283815  1
  O  O10  1  0.42532412  0.74652519  0.28283815  1
  O  O11  1  0.74652519  0.57467588  0.03283815  1
  O  O12  1  0.95582955  0.44571797  0.44155993  1
  O  O13  1  0.55428203  0.95582955  0.69155993  1
  O  O14  1  0.44571797  0.04417045  0.19155993  1
  O  O15  1  0.04417045  0.55428203  0.94155993  1
loop_
_geom_bond_atom_site_label_1
_geom_bond_atom_site_label_2
_geom_bond_distance
_geom_bond_site_symmetry_2
B0 O7 1.453903 1_554
B0 O6 1.455150 1_555
B0 O11 1.489708 1_555
B0 O2 1.492193 1_555
B1 O6 1.453903 1_555
B1 O4 1.455150 1_555
B1 O10 1.489708 1_555
B1 O0 1.492193 1_555
B2 O5 1.453903 1_555
B2 O7 1.455150 1_555
B2 O9 1.489708 1_555
B2 O3 1.492193 1_555
B3 O4 1.453903 1_555
B3 O5 1.455150 1_555
B3 O8 1.489708 1_555
B3 O1 1.492193 1_555
B4 O15 1.345355 1_655
B4 O3 1.386406 1_555
B4 O11 1.396326 1_556
B5 O14 1.345355 1_565
B5 O2 1.386406 1_555
B5 O10 1.396326 1_555
B6 O13 1.345355 1_545
B6 O1 1.386406 1_555
B6 O9 1.396326 1_555
B7 O12 1.345355 1_455
B7 O0 1.386406 1_555
B7 O8 1.396326 1_555
O0 Tl1 2.565353 1_555
O1 Tl3 2.565353 1_555
O2 Tl0 2.565353 1_554
O3 Tl2 2.565353 1_555
O4 Tl6 2.505444 1_555
O4 Tl4 2.812576 1_555
O5 Tl4 2.505444 1_555
O5 Tl5 2.812576 1_555
O6 Tl7 2.505444 1_554
O6 Tl6 2.812576 1_555
O7 Tl5 2.505444 1_555
O7 Tl7 2.812576 1_555
O8 Tl2 2.658412 1_455
O9 Tl0 2.658412 1_545
O10 Tl3 2.658412 1_565
O11 Tl1 2.658412 1_655
O12 Tl2 2.449719 1_555
O12 Tl4 2.737891 1_555
O12 Tl6 2.794558 1_555
O13 Tl0 2.449719 1_555
O13 Tl5 2.737891 1_555
O13 Tl4 2.794558 1_555
O14 Tl3 2.449719 1_555
O14 Tl6 2.737891 1_555
O14 Tl7 2.794558 1_554
O15 Tl1 2.449719 1_556
O15 Tl7 2.737891 1_555
O15 Tl5 2.794558 1_555
