# generated using pymatgen
data_Na14Ta4In4Si11SO48
_symmetry_space_group_name_H-M   'P 1'
_cell_length_a   18.37594247
_cell_length_b   9.17589999
_cell_length_c   22.57247243
_cell_angle_alpha   89.96566013
_cell_angle_beta   90.05858278
_cell_angle_gamma   119.99958474
_symmetry_Int_Tables_number   1
_chemical_formula_structural   Na14Ta4In4Si11SO48
_chemical_formula_sum   'Na42 Ta12 In12 Si33 S3 O144'
_cell_volume   3296.17032257
_cell_formula_units_Z   3
loop_
 _symmetry_equiv_pos_site_id
 _symmetry_equiv_pos_as_xyz
  1  'x, y, z'
loop_
 _atom_site_type_symbol
 _atom_site_label
 _atom_site_symmetry_multiplicity
 _atom_site_fract_x
 _atom_site_fract_y
 _atom_site_fract_z
 _atom_site_occupancy
  Na  Na0  1  0.32456538  0.99975041  0.24994636  1
  Na  Na1  1  0.82525137  0.00036393  0.24986556  1
  Na  Na2  1  0.32189824  0.63490273  0.74919686  1
  Na  Na3  1  0.82406041  0.64683894  0.74906569  1
  Na  Na4  1  0.49303879  0.35925017  0.74817548  1
  Na  Na5  1  0.68091983  0.00454937  0.75139771  1
  Na  Na6  1  0.14977256  0.32355305  0.58248034  1
  Na  Na7  1  0.65321619  0.32947460  0.58126603  1
  Na  Na8  1  0.01451320  0.70777738  0.58470555  1
  Na  Na9  1  0.51032936  0.68784893  0.58265269  1
  Na  Na10  1  0.33141556  0.97953558  0.58270103  1
  Na  Na11  1  0.84089656  0.97347017  0.58496736  1
  Na  Na12  1  0.14581067  0.95609080  0.08033008  1
  Na  Na13  1  0.64564910  0.95596714  0.07999882  1
  Na  Na14  1  0.33229709  0.71198181  0.08309196  1
  Na  Na15  1  0.83243273  0.71177113  0.08355814  1
  Na  Na16  1  0.02356255  0.33466557  0.08338136  1
  Na  Na17  1  0.52312665  0.33416629  0.08343698  1
  Na  Na18  1  0.48536406  0.68060773  0.91474471  1
  Na  Na19  1  0.98641171  0.67848301  0.91508875  1
  Na  Na20  1  0.35449025  0.02713931  0.91504389  1
  Na  Na21  1  0.85396546  0.02834750  0.91522644  1
  Na  Na22  1  0.16074676  0.29810410  0.91865912  1
  Na  Na23  1  0.65957173  0.29195041  0.91579179  1
  Na  Na24  1  0.47594766  0.28779155  0.41583714  1
  Na  Na25  1  0.97735425  0.28914571  0.41666558  1
  Na  Na26  1  0.16780677  0.04415364  0.42077884  1
  Na  Na27  1  0.66770594  0.04348317  0.41888073  1
  Na  Na28  1  0.35521326  0.66496266  0.41595158  1
  Na  Na29  1  0.85654422  0.66549184  0.41640529  1
  Na  Na30  1  0.00063071  0.99924345  0.50029551  1
  Na  Na31  1  0.49855443  0.99846675  0.49494881  1
  Na  Na32  1  0.99960313  0.00135134  0.00014725  1
  Na  Na33  1  0.49926951  -0.00001294  0.99939065  1
  Na  Na34  1  0.33314628  0.32451254  0.82895390  1
  Na  Na35  1  0.83932584  0.33477447  0.83229443  1
  Na  Na36  1  0.33753492  0.34711260  0.33619049  1
  Na  Na37  1  0.83852150  0.34863449  0.33576408  1
  Na  Na38  1  0.16425833  0.65205127  0.16404977  1
  Na  Na39  1  0.66418953  0.65203947  0.16395616  1
  Na  Na40  1  0.16326371  0.67709728  0.66820209  1
  Na  Na41  1  0.66682390  0.66664646  0.66671495  1
  Ta  Ta0  1  0.49825698  0.99803059  0.64943547  1
  Ta  Ta1  1  0.83711965  0.33696132  0.68499405  1
  Ta  Ta2  1  0.33856929  0.34631681  0.18576753  1
  Ta  Ta3  1  0.83891210  0.34690917  0.18575091  1
  Ta  Ta4  1  0.33337515  0.33528696  0.97899748  1
  Ta  Ta5  1  0.83300485  0.33329759  0.97914812  1
  Ta  Ta6  1  0.16517065  0.66751012  0.51944869  1
  Ta  Ta7  1  0.66715547  0.66585925  0.51953107  1
  Ta  Ta8  1  0.16546232  0.65326482  0.31409150  1
  Ta  Ta9  1  0.66533361  0.65368078  0.31383139  1
  Ta  Ta10  1  0.16624881  0.67556057  0.81674997  1
  Ta  Ta11  1  0.66653798  0.66839663  0.81495694  1
  In  In0  1  0.99477594  0.99639944  0.35196450  1
  In  In1  1  0.49427575  0.99570582  0.35148714  1
  In  In2  1  0.99523708  0.99316470  0.84916781  1
  In  In3  1  0.50060913  0.00132878  0.84981762  1
  In  In4  1  0.99824877  0.99148822  0.65058391  1
  In  In5  1  0.99643307  0.00398524  0.14783434  1
  In  In6  1  0.49622881  0.00396611  0.14763949  1
  In  In7  1  0.33390125  0.32717486  0.67956021  1
  In  In8  1  0.33482125  0.33433178  0.48197272  1
  In  In9  1  0.83301852  0.33019492  0.48069755  1
  In  In10  1  0.16658476  0.66633776  0.01961749  1
  In  In11  1  0.66696888  0.66627531  0.02025853  1
  Si  Si0  1  0.35083352  0.70093177  0.25039288  1
  Si  Si1  1  0.85094393  0.70124464  0.25045572  1
  Si  Si2  1  0.00026222  0.29864736  0.24951051  1
  Si  Si3  1  0.50012437  0.29857373  0.24945530  1
  Si  Si4  1  0.64857347  0.29717807  0.75012075  1
  Si  Si5  1  0.00241001  0.70089770  0.74962094  1
  Si  Si6  1  0.49837177  0.70109047  0.75142873  1
  Si  Si7  1  0.34962110  0.99911398  0.75194263  1
  Si  Si8  1  0.85138774  0.00272734  0.75025546  1
  Si  Si9  1  0.48282518  0.33259743  0.58287750  1
  Si  Si10  1  0.98108442  0.33301746  0.58162449  1
  Si  Si11  1  0.18499818  0.03894092  0.58094774  1
  Si  Si12  1  0.68584568  0.03888775  0.58342389  1
  Si  Si13  1  0.33271791  0.62859771  0.58392904  1
  Si  Si14  1  0.83295663  0.62572365  0.58120211  1
  Si  Si15  1  0.47937046  0.62638370  0.08228387  1
  Si  Si16  1  0.97939529  0.62641106  0.08197921  1
  Si  Si17  1  0.33246495  0.04582934  0.08406388  1
  Si  Si18  1  0.83252483  0.04537546  0.08443801  1
  Si  Si19  1  0.18849604  0.33052408  0.08372010  1
  Si  Si20  1  0.68855728  0.33031668  0.08373305  1
  Si  Si21  1  0.31259811  0.66605492  0.91752147  1
  Si  Si22  1  0.81252921  0.66465169  0.91830373  1
  Si  Si23  1  0.02068477  0.37391293  0.91837333  1
  Si  Si24  1  0.51979852  0.37447398  0.91827354  1
  Si  Si25  1  0.16709236  0.96351650  0.91879050  1
  Si  Si26  1  0.66691366  0.96085180  0.91892730  1
  Si  Si27  1  0.31007618  0.95574277  0.41522652  1
  Si  Si28  1  0.81027667  0.95534177  0.41545365  1
  Si  Si29  1  0.16654841  0.37359012  0.41814801  1
  Si  Si30  1  0.66656159  0.37319398  0.41702343  1
  Si  Si31  1  0.02226515  0.66835584  0.41517651  1
  Si  Si32  1  0.52319737  0.66934019  0.41636347  1
  S  S0  1  0.15035285  0.00004407  0.24989804  1
  S  S1  1  0.65035364  0.00017686  0.25003896  1
  S  S2  1  0.14916015  0.30240055  0.75166562  1
  O  O0  1  0.11293792  0.02633768  0.30378876  1
  O  O1  1  0.61291191  0.02613111  0.30409252  1
  O  O2  1  0.40571071  0.77186244  0.31057932  1
  O  O3  1  0.90567054  0.77272519  0.31051231  1
  O  O4  1  0.47795432  0.18063019  0.30827444  1
  O  O5  1  0.97739459  0.17982924  0.30811416  1
  O  O6  1  0.10911972  0.20168585  0.80515469  1
  O  O7  1  0.61553739  0.18392598  0.80889554  1
  O  O8  1  0.48350960  0.77987594  0.81025382  1
  O  O9  1  0.97808693  0.77128739  0.80787082  1
  O  O10  1  0.40661217  0.03408377  0.81015780  1
  O  O11  1  0.90391070  0.03691802  0.81047465  1
  O  O12  1  0.40152786  0.97228617  0.69446014  1
  O  O13  1  0.88659377  0.95467997  0.69234997  1
  O  O14  1  0.10037043  0.22740738  0.69710568  1
  O  O15  1  0.58435102  0.19872503  0.69375789  1
  O  O16  1  0.01907656  0.80807597  0.68954556  1
  O  O17  1  0.51426490  0.83095803  0.69422738  1
  O  O18  1  0.38782745  0.81987106  0.19190431  1
  O  O19  1  0.88751428  0.81955469  0.19176745  1
  O  O20  1  0.01948086  0.22729160  0.18951556  1
  O  O21  1  0.51981434  0.22754361  0.18960834  1
  O  O22  1  0.09967371  0.97367807  0.19599309  1
  O  O23  1  0.59959070  0.97360620  0.19625824  1
  O  O24  1  0.45077622  0.38414845  0.64138836  1
  O  O25  1  0.92912719  0.36334307  0.63700183  1
  O  O26  1  0.24869933  0.10939690  0.63653208  1
  O  O27  1  0.74878580  0.13475698  0.63984599  1
  O  O28  1  0.31001985  0.51343267  0.64277331  1
  O  O29  1  0.81727883  0.49961976  0.63911563  1
  O  O30  1  0.42784654  0.50166187  0.13919366  1
  O  O31  1  0.92791921  0.50182992  0.13900902  1
  O  O32  1  0.32305359  0.14415438  0.14232648  1
  O  O33  1  0.82312049  0.14436591  0.14242216  1
  O  O34  1  0.25128041  0.34933803  0.13900841  1
  O  O35  1  0.75140165  0.34952973  0.13899276  1
  O  O36  1  0.23735279  0.31160582  0.02345897  1
  O  O37  1  0.73774838  0.31170486  0.02347056  1
  O  O38  1  0.41821724  0.52776158  0.02381527  1
  O  O39  1  0.91811329  0.52728953  0.02350437  1
  O  O40  1  0.34265528  0.16756712  0.02514612  1
  O  O41  1  0.84255227  0.16681633  0.02527631  1
  O  O42  1  0.22198109  0.15245482  0.52148568  1
  O  O43  1  0.71741069  0.15146498  0.52394401  1
  O  O44  1  0.35995286  0.56271508  0.52623593  1
  O  O45  1  0.84966477  0.54812499  0.52244389  1
  O  O46  1  0.42422359  0.28304632  0.52469185  1
  O  O47  1  0.92382647  0.28842549  0.52278469  1
  O  O48  1  0.27506007  0.70350784  0.97634275  1
  O  O49  1  0.77524374  0.70245199  0.97675617  1
  O  O50  1  0.07473703  0.44410092  0.97841313  1
  O  O51  1  0.57616418  0.44933036  0.97679146  1
  O  O52  1  0.14501297  0.84878349  0.97724203  1
  O  O53  1  0.64856612  0.84863616  0.97755360  1
  O  O54  1  0.25893340  0.83437648  0.47361328  1
  O  O55  1  0.76004116  0.83530018  0.47489551  1
  O  O56  1  0.15410359  0.47023102  0.47661803  1
  O  O57  1  0.65613145  0.47406778  0.47520028  1
  O  O58  1  0.08018327  0.68532522  0.47489063  1
  O  O59  1  0.58128082  0.68780262  0.47683567  1
  O  O60  1  0.07601938  0.64987536  0.36019266  1
  O  O61  1  0.57614912  0.64980188  0.36121557  1
  O  O62  1  0.25139727  0.85670731  0.35718876  1
  O  O63  1  0.75068225  0.85593660  0.35792699  1
  O  O64  1  0.17710908  0.49822701  0.36099877  1
  O  O65  1  0.67681720  0.49764188  0.36033566  1
  O  O66  1  0.07229427  0.50753324  0.86298726  1
  O  O67  1  0.56852702  0.50092676  0.85947022  1
  O  O68  1  0.18378718  0.86314119  0.86222496  1
  O  O69  1  0.68050683  0.86129108  0.86049180  1
  O  O70  1  0.24925600  0.63386599  0.85944414  1
  O  O71  1  0.74964336  0.63697340  0.85934582  1
  O  O72  1  0.01971100  0.84228287  0.41400364  1
  O  O73  1  0.52026750  0.84287172  0.41481877  1
  O  O74  1  0.40051193  0.96443114  0.41776230  1
  O  O75  1  0.90052769  0.96499965  0.41766749  1
  O  O76  1  0.08169855  0.19244984  0.41376479  1
  O  O77  1  0.58098699  0.19249665  0.41432023  1
  O  O78  1  0.00848428  0.18792206  0.90995756  1
  O  O79  1  0.50674432  0.18822357  0.91136932  1
  O  O80  1  0.08898923  0.99420169  0.90768787  1
  O  O81  1  0.58768265  0.98958339  0.91242049  1
  O  O82  1  0.40653477  0.82452648  0.91205476  1
  O  O83  1  0.90653227  0.82387648  0.91286888  1
  O  O84  1  0.49549718  0.16592867  0.59282731  1
  O  O85  1  0.99644709  0.17672810  0.59268968  1
  O  O86  1  0.09175511  0.01669067  0.58718763  1
  O  O87  1  0.59084271  0.01223674  0.59552952  1
  O  O88  1  0.41676445  0.82169639  0.59378991  1
  O  O89  1  0.91239610  0.81326582  0.58680228  1
  O  O90  1  0.48470167  0.80726944  0.08598466  1
  O  O91  1  0.98446136  0.80703751  0.08577461  1
  O  O92  1  0.41811216  0.03624967  0.08211985  1
  O  O93  1  0.91820240  0.03611080  0.08213272  1
  O  O94  1  0.09879621  0.15696308  0.08535948  1
  O  O95  1  0.59890000  0.15705293  0.08540653  1
  O  O96  1  0.34239122  0.16617283  0.74479843  1
  O  O97  1  0.83410821  0.16274848  0.74107495  1
  O  O98  1  0.23522865  0.32748014  0.74871170  1
  O  O99  1  0.74272435  0.32283854  0.73846541  1
  O  O100  1  0.41614155  0.51691948  0.74459165  1
  O  O101  1  0.91456272  0.51299777  0.74056667  1
  O  O102  1  0.33631820  0.50894082  0.24140793  1
  O  O103  1  0.83624128  0.50910214  0.24139300  1
  O  O104  1  0.41241556  0.30992218  0.24193853  1
  O  O105  1  0.91250371  0.31038911  0.24185538  1
  O  O106  1  0.23717670  0.15042869  0.24432844  1
  O  O107  1  0.73712211  0.15022557  0.24451731  1
  O  O108  1  0.31665875  0.48814631  0.92120772  1
  O  O109  1  0.81672120  0.48753770  0.92038525  1
  O  O110  1  0.42732148  0.36647940  0.92135854  1
  O  O111  1  0.92747798  0.36421550  0.92140133  1
  O  O112  1  0.25608821  0.14634556  0.92156027  1
  O  O113  1  0.75628428  0.14531325  0.92103743  1
  O  O114  1  0.31705574  0.13872322  0.41620343  1
  O  O115  1  0.81483857  0.13580274  0.41682579  1
  O  O116  1  0.25322569  0.36926207  0.41804643  1
  O  O117  1  0.75186707  0.36467406  0.41668391  1
  O  O118  1  0.43265845  0.49872303  0.41780937  1
  O  O119  1  0.93179555  0.49798925  0.41629896  1
  O  O120  1  0.18328469  0.50100991  0.08367101  1
  O  O121  1  0.68329057  0.50073827  0.08364180  1
  O  O122  1  0.06876345  0.63381030  0.08309399  1
  O  O123  1  0.56872653  0.63347367  0.08340828  1
  O  O124  1  0.24748451  0.86378796  0.08346332  1
  O  O125  1  0.74770249  0.86350306  0.08409150  1
  O  O126  1  0.17431486  0.84677232  0.57395026  1
  O  O127  1  0.67717880  0.85023285  0.57914190  1
  O  O128  1  0.25016537  0.65467530  0.57511528  1
  O  O129  1  0.74532913  0.63843341  0.57828767  1
  O  O130  1  0.07335972  0.50916525  0.57857709  1
  O  O131  1  0.57801847  0.49933754  0.57482413  1
  O  O132  1  0.16220543  0.84981163  0.25545638  1
  O  O133  1  0.66208162  0.84962498  0.25573827  1
  O  O134  1  0.25743849  0.68976176  0.25813896  1
  O  O135  1  0.75735961  0.69000867  0.25835219  1
  O  O136  1  0.08189791  0.49053643  0.25865062  1
  O  O137  1  0.58162686  0.49081233  0.25880981  1
  O  O138  1  0.15756904  0.47474746  0.75675427  1
  O  O139  1  0.65559118  0.48395427  0.75494962  1
  O  O140  1  0.08495997  0.67657930  0.75963863  1
  O  O141  1  0.58660170  0.69092767  0.75524450  1
  O  O142  1  0.25958590  0.81666282  0.75607975  1
  O  O143  1  0.75551808  0.83087715  0.75855341  1
loop_
_geom_bond_atom_site_label_1
_geom_bond_atom_site_label_2
_geom_bond_distance
_geom_bond_site_symmetry_2
Na0 O134 2.477448 1_555
Na0 O104 2.478817 1_565
Na0 O132 2.589507 1_555
Na0 O106 2.593462 1_565
Na0 O62 2.761987 1_555
Na0 O32 2.773183 1_565
Na0 O18 2.777893 1_555
Na0 O4 2.783866 1_565
Na1 O105 2.476887 1_555
Na1 O135 2.479938 1_545
Na1 O107 2.598938 1_555
Na1 O133 2.602782 1_545
Na1 O5 2.765516 1_555
Na1 O33 2.770758 1_555
Na1 O19 2.772242 1_545
Na1 O63 2.787604 1_545
Na2 O98 2.449774 1_555
Na2 O142 2.455045 1_555
Na2 O100 2.461166 1_555
Na2 O28 2.611435 1_555
Na2 O138 2.621162 1_555
Na2 O70 2.822930 1_555
Na2 O8 2.920933 1_555
Na2 O12 2.953111 1_555
Na3 O101 2.520753 1_555
Na3 O143 2.571379 1_555
Na3 O99 2.585831 1_555
Na3 O139 2.684964 1_555
Na3 O13 2.773308 1_555
Na3 O29 2.799102 1_555
Na3 O9 2.799835 1_555
Na3 O71 2.820939 1_555
Na4 O96 2.429680 1_555
Na4 O100 2.477972 1_555
Na4 O24 2.576535 1_555
Na4 O139 2.614679 1_555
Na4 O141 2.647920 1_555
Na4 O67 2.849364 1_555
Na4 O10 2.939926 1_555
Na4 O15 2.995306 1_555
Na5 O97 2.449554 1_555
Na5 O141 2.511047 1_545
Na5 O99 2.566641 1_555
Na5 O143 2.574590 1_545
Na5 O69 2.788948 1_545
Na5 O7 2.796492 1_555
Na5 O27 2.799266 1_555
Na5 O17 2.949149 1_545
Na6 O85 2.451861 1_455
Na6 O86 2.464605 1_555
Na6 O128 2.656582 1_555
Na6 O130 2.696519 1_555
Na6 O56 2.723467 1_555
Na6 O14 2.738274 1_555
Na6 O42 2.865412 1_555
Na6 O28 2.902280 1_555
Na7 O129 2.471461 1_555
Na7 O84 2.524227 1_555
Na7 O131 2.552066 1_555
Na7 O87 2.560115 1_555
Na7 O57 2.724079 1_555
Na7 O43 2.768781 1_555
Na7 O15 2.823672 1_555
Na7 O29 2.918780 1_555
Na8 O86 2.455455 1_565
Na8 O89 2.505392 1_455
Na8 O16 2.525744 1_555
Na8 O130 2.545798 1_555
Na8 O126 2.562141 1_555
Na8 O58 2.810418 1_555
Na8 O45 2.975513 1_455
Na8 O25 2.980692 1_455
Na9 O88 2.576940 1_555
Na9 O131 2.592841 1_555
Na9 O87 2.594159 1_565
Na9 O127 2.656855 1_555
Na9 O44 2.719874 1_555
Na9 O59 2.722498 1_555
Na9 O24 2.769501 1_555
Na9 O17 2.825094 1_555
Na10 O126 2.517823 1_555
Na10 O128 2.587224 1_555
Na10 O88 2.624933 1_555
Na10 O84 2.628848 1_565
Na10 O26 2.650176 1_565
Na10 O46 2.762218 1_565
Na10 O54 2.799044 1_555
Na10 O12 2.847299 1_555
Na11 O89 2.412496 1_555
Na11 O85 2.519444 1_565
Na11 O13 2.598122 1_555
Na11 O127 2.635205 1_555
Na11 O129 2.675650 1_555
Na11 O55 2.846174 1_555
Na11 O47 2.870541 1_565
Na11 O27 3.016815 1_565
Na12 O94 2.397795 1_565
Na12 O124 2.407312 1_555
Na12 O52 2.524417 1_554
Na12 O122 2.562554 1_555
Na12 O91 2.573334 1_455
Na12 O22 2.775419 1_555
Na13 O95 2.396453 1_565
Na13 O125 2.415756 1_555
Na13 O53 2.525070 1_554
Na13 O123 2.564721 1_555
Na13 O90 2.567558 1_555
Na13 O23 2.787710 1_555
Na14 O120 2.438227 1_555
Na14 O90 2.482545 1_555
Na14 O124 2.557404 1_555
Na14 O92 2.578462 1_565
Na14 O48 2.613752 1_554
Na14 O18 2.653614 1_555
Na15 O121 2.440047 1_555
Na15 O91 2.475669 1_555
Na15 O125 2.555509 1_555
Na15 O93 2.579099 1_565
Na15 O49 2.613196 1_554
Na15 O19 2.639223 1_555
Na16 O122 2.438157 1_555
Na16 O93 2.439316 1_455
Na16 O120 2.542518 1_555
Na16 O50 2.562051 1_554
Na16 O20 2.576708 1_555
Na16 O94 2.612677 1_555
Na17 O92 2.433608 1_555
Na17 O123 2.437957 1_555
Na17 O121 2.549500 1_555
Na17 O21 2.577263 1_555
Na17 O51 2.614054 1_554
Na17 O95 2.616224 1_555
Na18 O82 2.399711 1_555
Na18 O81 2.499069 1_555
Na18 O110 2.528575 1_555
Na18 O8 2.534212 1_555
Na18 O108 2.697527 1_555
Na18 O38 2.796866 1_556
Na18 O53 2.958253 1_555
Na18 O67 3.022640 1_555
Na19 O83 2.427968 1_555
Na19 O111 2.526994 1_555
Na19 O80 2.552059 1_655
Na19 O9 2.594772 1_555
Na19 O109 2.710093 1_555
Na19 O39 2.783835 1_556
Na19 O52 2.888637 1_655
Na19 O66 2.969147 1_655
Na20 O79 2.425767 1_555
Na20 O82 2.480714 1_545
Na20 O112 2.542908 1_555
Na20 O10 2.543636 1_555
Na20 O110 2.709216 1_555
Na20 O40 2.858225 1_556
Na20 O48 2.920337 1_545
Na20 O68 2.966454 1_545
Na21 O78 2.462403 1_655
Na21 O83 2.503721 1_545
Na21 O113 2.513602 1_555
Na21 O11 2.524174 1_555
Na21 O111 2.679418 1_555
Na21 O41 2.846122 1_556
Na21 O49 2.938933 1_545
Na21 O69 3.023968 1_545
Na22 O80 2.428866 1_545
Na22 O78 2.461647 1_555
Na22 O108 2.501271 1_555
Na22 O6 2.721289 1_555
Na22 O36 2.722528 1_556
Na22 O112 2.729867 1_555
Na22 O50 2.869802 1_555
Na22 O70 2.985395 1_555
Na23 O81 2.404914 1_545
Na23 O79 2.475743 1_555
Na23 O109 2.527430 1_555
Na23 O7 2.579970 1_555
Na23 O113 2.715410 1_555
Na23 O37 2.781597 1_556
Na23 O51 2.924125 1_555
Na23 O71 3.024124 1_555
Na24 O118 2.433244 1_555
Na24 O77 2.485836 1_555
Na24 O114 2.530317 1_555
Na24 O74 2.571819 1_545
Na24 O4 2.627264 1_555
Na24 O46 2.627928 1_555
Na25 O119 2.444897 1_555
Na25 O76 2.483876 1_655
Na25 O75 2.577057 1_545
Na25 O115 2.587729 1_555
Na25 O47 2.589142 1_555
Na25 O5 2.648339 1_555
Na26 O72 2.412295 1_545
Na26 O114 2.430240 1_555
Na26 O42 2.480895 1_555
Na26 O76 2.555933 1_555
Na26 O116 2.585417 1_555
Na26 O0 2.801279 1_555
Na27 O115 2.395756 1_555
Na27 O73 2.397874 1_545
Na27 O117 2.553894 1_555
Na27 O43 2.556088 1_555
Na27 O77 2.568646 1_555
Na27 O1 2.754557 1_555
Na28 O116 2.406588 1_555
Na28 O74 2.440946 1_555
Na28 O118 2.554311 1_555
Na28 O2 2.563605 1_555
Na28 O73 2.629394 1_555
Na28 O44 2.676446 1_555
Na29 O75 2.446588 1_555
Na29 O117 2.451476 1_555
Na29 O119 2.529795 1_555
Na29 O3 2.570961 1_555
Na29 O72 2.600176 1_655
Na29 O45 2.601207 1_555
Na30 O75 2.525234 1_455
Na30 O86 2.530243 1_565
Na30 O72 2.549707 1_555
Na30 O76 2.556959 1_565
Na30 O89 2.567025 1_455
Na30 O85 2.671585 1_465
Na31 O74 2.410506 1_555
Na31 O73 2.458320 1_555
Na31 O77 2.466090 1_565
Na31 O84 2.708553 1_565
Na31 O88 2.726231 1_555
Na31 O87 2.797266 1_565
Na32 O93 2.499484 1_555
Na32 O94 2.540559 1_655
Na32 O91 2.548173 1_545
Na32 O83 2.582649 1_544
Na32 O78 2.611328 1_654
Na32 O80 2.678235 1_644
Na33 O92 2.514891 1_556
Na33 O90 2.557913 1_546
Na33 O95 2.560520 1_556
Na33 O82 2.576002 1_545
Na33 O81 2.581551 1_545
Na33 O79 2.590180 1_555
Na34 O96 2.449299 1_555
Na34 O100 2.525581 1_555
Na34 O98 2.561499 1_555
Na34 O112 2.595075 1_555
Na34 O110 2.611679 1_555
Na34 O108 2.672560 1_555
Na35 O111 2.509772 1_555
Na35 O97 2.567619 1_555
Na35 O101 2.571724 1_555
Na35 O109 2.584287 1_555
Na35 O113 2.590895 1_555
Na35 O99 2.728924 1_555
Na36 O118 2.439218 1_555
Na36 O116 2.485288 1_555
Na36 O114 2.517460 1_555
Na36 O102 2.610008 1_555
Na36 O104 2.648115 1_555
Na36 O106 2.761552 1_555
Na37 O119 2.401726 1_555
Na37 O117 2.476734 1_555
Na37 O115 2.549272 1_555
Na37 O103 2.601015 1_555
Na37 O105 2.636019 1_555
Na37 O107 2.762796 1_555
Na38 O120 2.413254 1_555
Na38 O122 2.479265 1_555
Na38 O124 2.540222 1_555
Na38 O136 2.608957 1_555
Na38 O134 2.638789 1_555
Na38 O132 2.761250 1_555
Na39 O121 2.414300 1_555
Na39 O123 2.471244 1_555
Na39 O125 2.528588 1_555
Na39 O137 2.614007 1_555
Na39 O135 2.643799 1_555
Na39 O133 2.766875 1_555
Na40 O140 2.515865 1_555
Na40 O142 2.537096 1_555
Na40 O130 2.578327 1_555
Na40 O126 2.583066 1_555
Na40 O138 2.693602 1_555
Na40 O128 2.709868 1_555
Na41 O127 2.541206 1_555
Na41 O139 2.543697 1_555
Na41 O129 2.551902 1_555
Na41 O141 2.559513 1_555
Na41 O143 2.601056 1_555
Na41 O131 2.610340 1_555
In0 O3 2.099418 1_555
In0 O5 2.109412 1_565
In0 O75 2.188096 1_555
In0 O72 2.194341 1_655
In0 O76 2.204213 1_665
In0 O0 2.319634 1_665
In1 O2 2.092021 1_555
In1 O4 2.104048 1_565
In1 O74 2.190750 1_555
In1 O73 2.214598 1_555
In1 O77 2.220900 1_565
In1 O1 2.317511 1_565
In2 O11 2.100173 1_565
In2 O9 2.115022 1_555
In2 O83 2.146533 1_555
In2 O80 2.166087 1_655
In2 O78 2.168638 1_665
In2 O6 2.241719 1_665
In3 O8 2.094881 1_545
In3 O10 2.095451 1_555
In3 O7 2.141118 1_555
In3 O79 2.166390 1_555
In3 O81 2.176303 1_545
In3 O82 2.188994 1_545
In4 O16 2.096183 1_655
In4 O13 2.126787 1_555
In4 O85 2.156736 1_565
In4 O89 2.157376 1_555
In4 O86 2.158933 1_665
In4 O14 2.290612 1_665
In5 O20 2.096857 1_655
In5 O19 2.113823 1_545
In5 O93 2.184443 1_555
In5 O94 2.204543 1_655
In5 O91 2.209406 1_545
In5 O22 2.319741 1_645
In6 O21 2.099144 1_555
In6 O18 2.111160 1_545
In6 O92 2.180812 1_555
In6 O95 2.204302 1_555
In6 O90 2.204395 1_545
In6 O23 2.326821 1_545
In7 O26 2.063601 1_555
In7 O24 2.123384 1_555
In7 O28 2.133220 1_555
In7 O96 2.145410 1_555
In7 O100 2.199401 1_555
In7 O98 2.394797 1_555
In8 O42 2.102806 1_555
In8 O46 2.149317 1_555
In8 O44 2.153359 1_555
In8 O118 2.212712 1_555
In8 O116 2.215556 1_555
In8 O114 2.224501 1_555
In9 O45 2.090535 1_555
In9 O47 2.114188 1_555
In9 O43 2.161936 1_555
In9 O115 2.185888 1_555
In9 O117 2.208750 1_555
In9 O119 2.233015 1_555
In10 O48 2.089884 1_554
In10 O50 2.104625 1_554
In10 O52 2.129695 1_554
In10 O122 2.200346 1_555
In10 O124 2.207911 1_555
In10 O120 2.224417 1_555
In11 O49 2.091958 1_554
In11 O51 2.094538 1_554
In11 O53 2.099248 1_554
In11 O123 2.200675 1_555
In11 O125 2.205933 1_555
In11 O121 2.212737 1_555
O0 S0 1.476007 1_555
O1 S1 1.478079 1_555
O2 Si0 1.621151 1_555
O3 Si1 1.618006 1_555
O4 Si3 1.630482 1_555
O5 Si2 1.629847 1_655
O6 S2 1.474350 1_555
O7 Si4 1.605523 1_555
O8 Si6 1.599895 1_555
O9 Si5 1.623780 1_655
O10 Si7 1.608767 1_545
O11 Si8 1.603957 1_555
O12 Si7 1.700494 1_555
O12 Ta0 1.957471 1_555
O13 Si8 1.615234 1_565
O14 S2 1.475086 1_555
O15 Si4 1.661226 1_555
O15 Ta0 1.995175 1_545
O16 Si5 1.611805 1_555
O17 Si6 1.680289 1_555
O17 Ta0 1.976736 1_555
O18 Si0 1.629245 1_555
O19 Si1 1.629612 1_555
O20 Si2 1.618841 1_555
O21 Si3 1.618179 1_555
O22 S0 1.476166 1_565
O23 S1 1.474419 1_565
O24 Si9 1.611164 1_555
O25 Si10 1.679299 1_555
O25 Ta1 1.919596 1_555
O26 Si11 1.613571 1_555
O27 Si12 1.647565 1_555
O27 Ta1 2.025619 1_555
O28 Si13 1.616677 1_555
O29 Si14 1.672252 1_555
O29 Ta1 1.993635 1_555
O30 Si15 1.665393 1_555
O30 Ta2 1.868619 1_555
O31 Si16 1.666767 1_555
O31 Ta3 1.867036 1_555
O32 Si17 1.652694 1_555
O32 Ta2 1.989130 1_555
O33 Si18 1.651319 1_555
O33 Ta3 1.989256 1_555
O34 Si19 1.648184 1_555
O34 Ta2 1.930963 1_555
O35 Si20 1.647515 1_555
O35 Ta3 1.932785 1_555
O36 Si19 1.686727 1_555
O36 Ta4 1.946241 1_554
O37 Si20 1.689310 1_555
O37 Ta5 1.939257 1_554
O38 Si15 1.674825 1_555
O38 Ta4 1.954162 1_554
O39 Si16 1.676827 1_555
O39 Ta5 1.957559 1_554
O40 Si17 1.685561 1_555
O40 Ta4 1.934635 1_554
O41 Si18 1.688916 1_555
O41 Ta5 1.927244 1_554
O42 Si11 1.624998 1_555
O43 Si12 1.614585 1_555
O44 Si13 1.617613 1_555
O45 Si14 1.606537 1_555
O46 Si9 1.612318 1_555
O47 Si10 1.614240 1_555
O48 Si21 1.611303 1_555
O49 Si22 1.603323 1_555
O50 Si23 1.611412 1_555
O51 Si24 1.605065 1_555
O52 Si25 1.608122 1_555
O53 Si26 1.605387 1_555
O54 Si27 1.677665 1_555
O54 Ta6 1.935756 1_555
O55 Si28 1.688103 1_555
O55 Ta7 1.921904 1_555
O56 Si29 1.668942 1_555
O56 Ta6 1.971416 1_555
O57 Si30 1.672526 1_555
O57 Ta7 1.945417 1_555
O58 Si31 1.674933 1_555
O58 Ta6 1.931111 1_555
O59 Si32 1.687494 1_555
O59 Ta7 1.942653 1_555
O60 Si31 1.647761 1_555
O60 Ta8 1.933289 1_555
O61 Si32 1.644908 1_555
O61 Ta9 1.943270 1_555
O62 Si27 1.650278 1_555
O62 Ta8 1.994003 1_555
O63 Si28 1.648343 1_555
O63 Ta9 1.995778 1_555
O64 Si29 1.669285 1_555
O64 Ta8 1.868932 1_555
O65 Si30 1.661438 1_555
O65 Ta9 1.869856 1_555
O66 Si23 1.674370 1_555
O66 Ta10 1.946052 1_555
O67 Si24 1.694571 1_555
O67 Ta11 1.961882 1_555
O68 Si25 1.690403 1_555
O68 Ta10 1.888614 1_555
O69 Si26 1.693265 1_555
O69 Ta11 1.949993 1_555
O70 Si21 1.677561 1_555
O70 Ta10 1.995464 1_555
O71 Si22 1.695511 1_555
O71 Ta11 1.963690 1_555
O72 Si31 1.620114 1_555
O73 Si32 1.620252 1_555
O74 Si27 1.624400 1_555
O75 Si28 1.616683 1_555
O76 Si29 1.616130 1_555
O77 Si30 1.618123 1_555
O78 Si23 1.617602 1_555
O79 Si24 1.610232 1_555
O80 Si25 1.614069 1_555
O81 Si26 1.610654 1_555
O82 Si21 1.612314 1_555
O83 Si22 1.615558 1_555
O84 Si9 1.673060 1_555
O84 Ta0 2.021001 1_545
O85 Si10 1.613376 1_555
O86 Si11 1.627268 1_555
O87 Si12 1.660168 1_555
O87 Ta0 2.043143 1_545
O88 Si13 1.684512 1_555
O88 Ta0 2.003453 1_555
O89 Si14 1.611256 1_555
O90 Si15 1.615248 1_555
O91 Si16 1.615202 1_555
O92 Si17 1.620228 1_555
O93 Si18 1.619476 1_555
O94 Si19 1.621617 1_555
O95 Si20 1.619932 1_555
O96 Si7 1.611459 1_545
O97 Si8 1.662984 1_555
O97 Ta1 2.017468 1_555
O98 S2 1.481575 1_555
O99 Si4 1.646643 1_555
O99 Ta1 2.064401 1_555
O100 Si6 1.615324 1_555
O101 Si5 1.684305 1_655
O101 Ta1 1.976867 1_555
O102 Si0 1.657182 1_555
O102 Ta2 1.967207 1_555
O103 Si1 1.657492 1_555
O103 Ta3 1.967292 1_555
O104 Si3 1.674683 1_555
O104 Ta2 2.002428 1_555
O105 Si2 1.677869 1_655
O105 Ta3 1.998503 1_555
O106 S0 1.504696 1_555
O106 Ta2 2.258951 1_555
O107 S1 1.502802 1_555
O107 Ta3 2.267584 1_555
O108 Si21 1.673048 1_555
O108 Ta4 2.047232 1_555
O109 Si22 1.665666 1_555
O109 Ta5 2.066982 1_555
O110 Si24 1.665415 1_555
O110 Ta4 2.065186 1_555
O111 Si23 1.671518 1_655
O111 Ta5 2.074862 1_555
O112 Si25 1.658070 1_545
O112 Ta4 2.059221 1_555
O113 Si26 1.668676 1_545
O113 Ta5 2.061708 1_555
O114 Si27 1.618861 1_545
O115 Si28 1.615924 1_545
O116 Si29 1.613004 1_555
O117 Si30 1.608109 1_555
O118 Si32 1.617244 1_555
O119 Si31 1.615373 1_655
O120 Si19 1.614373 1_555
O121 Si20 1.614338 1_555
O122 Si16 1.609523 1_455
O123 Si15 1.610634 1_555
O124 Si17 1.618801 1_565
O125 Si18 1.616610 1_565
O126 Si11 1.681336 1_565
O126 Ta6 1.993237 1_555
O127 Si12 1.660065 1_565
O127 Ta7 2.096962 1_555
O128 Si13 1.661439 1_555
O128 Ta6 2.052290 1_555
O129 Si14 1.672829 1_555
O129 Ta7 2.059888 1_555
O130 Si10 1.658874 1_455
O130 Ta6 2.071182 1_555
O131 Si9 1.660674 1_555
O131 Ta7 2.018560 1_555
O132 S0 1.504483 1_565
O132 Ta8 2.261159 1_555
O133 S1 1.506268 1_565
O133 Ta9 2.249494 1_555
O134 Si0 1.676659 1_555
O134 Ta8 2.000435 1_555
O135 Si1 1.680201 1_555
O135 Ta9 1.994797 1_555
O136 Si2 1.658822 1_555
O136 Ta8 1.964465 1_555
O137 Si3 1.660477 1_555
O137 Ta9 1.959981 1_555
O138 S2 1.514541 1_555
O138 Ta10 2.227873 1_555
O139 Si4 1.656787 1_555
O139 Ta11 2.097909 1_555
O140 Si5 1.655216 1_555
O140 Ta10 1.975679 1_555
O141 Si6 1.672019 1_555
O141 Ta11 2.077605 1_555
O142 Si7 1.667072 1_555
O142 Ta10 2.067754 1_555
O143 Si8 1.687477 1_565
O143 Ta11 2.020279 1_555
