# generated using pymatgen
data_MgV2P2(O4F)2
_symmetry_space_group_name_H-M   'P 1'
_cell_length_a   5.17328066
_cell_length_b   5.47168029
_cell_length_c   7.40314154
_cell_angle_alpha   69.09851985
_cell_angle_beta   71.18602466
_cell_angle_gamma   90.01378441
_symmetry_Int_Tables_number   1
_chemical_formula_structural   MgV2P2(O4F)2
_chemical_formula_sum   'Mg1 V2 P2 O8 F2'
_cell_volume   183.72587232
_cell_formula_units_Z   1
loop_
 _symmetry_equiv_pos_site_id
 _symmetry_equiv_pos_as_xyz
  1  'x, y, z'
loop_
 _atom_site_type_symbol
 _atom_site_label
 _atom_site_symmetry_multiplicity
 _atom_site_fract_x
 _atom_site_fract_y
 _atom_site_fract_z
 _atom_site_occupancy
  Mg  Mg0  1  0.00000000  0.00000000  0.00000000  1
  V  V0  1  0.50000000  0.00000000  0.50000000  1
  V  V1  1  0.00000000  0.50000000  0.00000000  1
  P  P0  1  0.38786100  0.62073800  0.25398800  1
  P  P1  1  0.61213900  0.37926200  0.74601200  1
  O  O0  1  0.33777900  0.32730900  0.38626600  1
  O  O1  1  0.69337700  0.69689200  0.09523700  1
  O  O2  1  0.66222100  0.67269100  0.61373400  1
  O  O3  1  0.30662300  0.30310800  0.90476300  1
  O  O4  1  0.19290500  0.67991000  0.12342600  1
  O  O5  1  0.33725200  0.80617600  0.37058100  1
  O  O6  1  0.80709500  0.32009000  0.87657400  1
  O  O7  1  0.66274800  0.19382400  0.62941900  1
  F  F0  1  0.14281500  0.86422700  0.76526000  1
  F  F1  1  0.85718500  0.13577300  0.23474000  1
loop_
_geom_bond_atom_site_label_1
_geom_bond_atom_site_label_2
_geom_bond_distance
_geom_bond_site_symmetry_2
Mg0 O1 2.051089 1_445
Mg0 O3 2.051089 1_554
Mg0 O4 2.084571 1_545
Mg0 O6 2.084571 1_454
O0 P0 1.522561 1_555
O0 V0 2.000296 1_555
O1 P0 1.582742 1_555
O1 V1 1.998841 1_655
O2 P1 1.522561 1_555
O2 V0 2.000296 1_565
O3 P1 1.582742 1_555
O3 V1 1.998841 1_556
O4 P0 1.569048 1_555
O4 V1 2.007331 1_555
O5 P0 1.523939 1_555
O5 V0 1.999118 1_565
O6 P1 1.569048 1_555
O6 V1 2.007331 1_656
O7 P1 1.523939 1_555
O7 V0 1.999118 1_555
F0 Mg0 2.052092 1_566
F0 V1 2.058548 1_556
F0 V0 2.107275 1_565
F1 Mg0 2.052092 1_655
F1 V1 2.058548 1_655
F1 V0 2.107275 1_555
