# generated using pymatgen
data_TbCoGe
_symmetry_space_group_name_H-M   'P 1'
_cell_length_a   4.30760757
_cell_length_b   7.01822497
_cell_length_c   7.05257191
_cell_angle_alpha   89.99734914
_cell_angle_beta   90.00002396
_cell_angle_gamma   90.00006143
_symmetry_Int_Tables_number   1
_chemical_formula_structural   TbCoGe
_chemical_formula_sum   'Tb4 Co4 Ge4'
_cell_volume   213.21165426
_cell_formula_units_Z   4
loop_
 _symmetry_equiv_pos_site_id
 _symmetry_equiv_pos_as_xyz
  1  'x, y, z'
loop_
 _atom_site_type_symbol
 _atom_site_label
 _atom_site_symmetry_multiplicity
 _atom_site_fract_x
 _atom_site_fract_y
 _atom_site_fract_z
 _atom_site_occupancy
  Tb  Tb0  1  0.25000345  0.47879811  0.29982781  1
  Tb  Tb1  1  0.75000233  0.52122374  0.70016521  1
  Tb  Tb2  1  0.25000341  0.97876170  0.20023730  1
  Tb  Tb3  1  0.75000426  0.02121579  0.79977372  1
  Co  Co0  1  0.74999361  0.34313267  0.06945165  1
  Co  Co1  1  0.24999905  0.15689182  0.56941930  1
  Co  Co2  1  0.74999274  0.84311269  0.43057507  1
  Co  Co3  1  0.24999326  0.65684801  0.93055259  1
  Ge  Ge0  1  0.25000141  0.79991965  0.60293164  1
  Ge  Ge1  1  0.75000138  0.70011085  0.10290106  1
  Ge  Ge2  1  0.25000157  0.29989777  0.89704765  1
  Ge  Ge3  1  0.75000353  0.20008619  0.39711699  1
loop_
_geom_bond_atom_site_label_1
_geom_bond_atom_site_label_2
_geom_bond_distance
_geom_bond_site_symmetry_2
Co0 Ge2 2.491830 1_554
Co0 Ge2 2.491891 1_654
Co0 Ge1 2.516446 1_555
Co0 Ge3 2.519494 1_555
Co0 Tb0 2.860976 1_555
Co0 Tb0 2.861038 1_655
Co0 Tb1 2.888755 1_554
Co0 Tb3 2.953316 1_554
Co1 Ge3 2.491445 1_455
Co1 Ge3 2.491479 1_555
Co1 Ge0 2.516424 1_545
Co1 Ge2 2.519226 1_555
Co1 Tb3 2.860877 1_455
Co1 Tb3 2.860912 1_555
Co1 Tb2 2.888314 1_545
Co1 Tb0 2.952732 1_555
Co2 Ge0 2.491616 1_555
Co2 Ge0 2.491680 1_655
Co2 Ge3 2.516397 1_565
Co2 Ge1 2.519510 1_555
Co2 Tb2 2.860730 1_555
Co2 Tb2 2.860799 1_655
Co2 Tb3 2.888338 1_565
Co2 Tb1 2.952633 1_555
Co3 Ge1 2.491664 1_456
Co3 Ge1 2.491723 1_556
Co3 Ge2 2.516287 1_555
Co3 Ge0 2.519277 1_555
Co3 Tb1 2.860925 1_455
Co3 Tb1 2.860986 1_555
Co3 Tb0 2.888559 1_556
Co3 Tb2 2.953330 1_556
Ge0 Tb1 2.989099 1_455
Ge0 Tb1 2.989107 1_555
Ge0 Tb3 2.996395 1_465
Ge0 Tb3 2.996410 1_565
Ge0 Tb2 3.104973 1_555
Ge0 Tb0 3.106320 1_555
Ge1 Tb2 2.989099 1_555
Ge1 Tb2 2.989109 1_655
Ge1 Tb0 2.996666 1_555
Ge1 Tb0 2.996680 1_655
Ge1 Tb1 3.105475 1_554
Ge1 Tb3 3.106206 1_564
Ge2 Tb3 2.989136 1_455
Ge2 Tb3 2.989156 1_555
Ge2 Tb1 2.996575 1_455
Ge2 Tb1 2.996578 1_555
Ge2 Tb0 3.105798 1_556
Ge2 Tb2 3.106667 1_546
Ge3 Tb0 2.989265 1_655
Ge3 Tb0 2.989268 1_555
Ge3 Tb2 2.996627 1_545
Ge3 Tb2 2.996630 1_645
Ge3 Tb3 3.104811 1_555
Ge3 Tb1 3.106131 1_555
