# generated using pymatgen
data_Na10La4In4Si5S7O48
_symmetry_space_group_name_H-M   'P 1'
_cell_length_a   18.77221193
_cell_length_b   9.39817951
_cell_length_c   23.81899004
_cell_angle_alpha   89.81829153
_cell_angle_beta   89.27061518
_cell_angle_gamma   120.04466798
_symmetry_Int_Tables_number   1
_chemical_formula_structural   Na10La4In4Si5S7O48
_chemical_formula_sum   'Na30 La12 In12 Si15 S21 O144'
_cell_volume   3637.10556717
_cell_formula_units_Z   3
loop_
 _symmetry_equiv_pos_site_id
 _symmetry_equiv_pos_as_xyz
  1  'x, y, z'
loop_
 _atom_site_type_symbol
 _atom_site_label
 _atom_site_symmetry_multiplicity
 _atom_site_fract_x
 _atom_site_fract_y
 _atom_site_fract_z
 _atom_site_occupancy
  Na  Na0  1  0.33060066  0.00107550  0.24905962  1
  Na  Na1  1  0.82576123  0.99307714  0.25380353  1
  Na  Na2  1  0.18644064  0.38524962  0.23917189  1
  Na  Na3  1  0.67164455  0.36963638  0.24352644  1
  Na  Na4  1  0.99494113  0.62865090  0.26526311  1
  Na  Na5  1  0.49510465  0.62275775  0.26160022  1
  Na  Na6  1  0.83331314  0.65982259  0.73948290  1
  Na  Na7  1  0.98925296  0.35655948  0.75410968  1
  Na  Na8  1  0.49320779  0.34572093  0.75871362  1
  Na  Na9  1  0.17665458  0.99509095  0.73423213  1
  Na  Na10  1  0.02009199  0.71654287  0.58933258  1
  Na  Na11  1  0.32802691  0.98069226  0.59746746  1
  Na  Na12  1  0.02410093  0.32966429  0.08609545  1
  Na  Na13  1  0.51488165  0.32868258  0.09004749  1
  Na  Na14  1  0.15852370  0.30095779  0.93086353  1
  Na  Na15  1  0.66030270  0.30449302  0.93424699  1
  Na  Na16  1  0.16121341  0.01652926  0.42863518  1
  Na  Na17  1  0.66062820  0.02488927  0.42842398  1
  Na  Na18  1  0.99632758  0.99113892  0.50555996  1
  Na  Na19  1  0.51615660  0.98857594  0.49375690  1
  Na  Na20  1  0.00567217  0.01345369  0.00078212  1
  Na  Na21  1  0.50845493  0.01050451  0.00720700  1
  Na  Na22  1  0.34906847  0.32675431  0.83615222  1
  Na  Na23  1  0.85336471  0.31918158  0.82807272  1
  Na  Na24  1  0.35767138  0.37797742  0.33721225  1
  Na  Na25  1  0.85192857  0.37135226  0.33880556  1
  Na  Na26  1  0.17913104  0.65246898  0.17057062  1
  Na  Na27  1  0.67562424  0.64666146  0.16564691  1
  Na  Na28  1  0.17139935  0.68267382  0.67239799  1
  Na  Na29  1  0.69152225  0.73775239  0.65753405  1
  La  La0  1  0.98896348  0.98642382  0.35192341  1
  La  La1  1  0.98912122  0.98748863  0.84656550  1
  La  La2  1  0.49296156  0.00896347  0.84787629  1
  La  La3  1  0.51173359  0.00522164  0.64357331  1
  La  La4  1  0.99828749  0.00040981  0.15706740  1
  La  La5  1  0.82482551  0.33483824  0.17969587  1
  La  La6  1  0.33976658  0.33813602  0.98698528  1
  La  La7  1  0.83450327  0.33449408  0.98525088  1
  La  La8  1  0.17085883  0.65851212  0.01881110  1
  La  La9  1  0.16544611  0.66288699  0.51744517  1
  La  La10  1  0.16260202  0.66780220  0.81446098  1
  La  La11  1  0.66871338  0.68816438  0.81518312  1
  In  In0  1  0.48806980  0.98067959  0.34685920  1
  In  In1  1  0.00290732  0.99649129  0.64730715  1
  In  In2  1  0.50060381  0.00980065  0.15595953  1
  In  In3  1  0.33247445  0.32764572  0.67751693  1
  In  In4  1  0.82641351  0.31243848  0.67962894  1
  In  In5  1  0.33556220  0.34749987  0.18434026  1
  In  In6  1  0.33593395  0.34389998  0.48112117  1
  In  In7  1  0.83643675  0.34050374  0.48278377  1
  In  In8  1  0.65990722  0.64958396  0.01801978  1
  In  In9  1  0.65659622  0.68182154  0.51621543  1
  In  In10  1  0.16264481  0.65197766  0.31917935  1
  In  In11  1  0.65252175  0.63958793  0.32185821  1
  Si  Si0  1  0.35282884  0.70519700  0.25088460  1
  Si  Si1  1  0.83709659  0.68875130  0.25366723  1
  Si  Si2  1  0.00213144  0.31707339  0.24835904  1
  Si  Si3  1  0.49714554  0.29246486  0.24934891  1
  Si  Si4  1  0.99391451  0.68717991  0.73867869  1
  Si  Si5  1  0.34904232  0.01560103  0.73900240  1
  Si  Si6  1  0.85260415  0.00404890  0.74119141  1
  Si  Si7  1  0.18517941  0.04922869  0.58036446  1
  Si  Si8  1  0.69157954  0.04230094  0.57569643  1
  Si  Si9  1  0.18240166  0.32989753  0.08628454  1
  Si  Si10  1  0.66927091  0.32596039  0.08269580  1
  Si  Si11  1  0.01210347  0.35095917  0.91681850  1
  Si  Si12  1  0.51832459  0.36725209  0.91535446  1
  Si  Si13  1  0.01371093  0.65738290  0.41869466  1
  Si  Si14  1  0.51435377  0.67178386  0.41439209  1
  S  S0  1  0.15877504  0.00027568  0.25388515  1
  S  S1  1  0.64235273  0.98856405  0.25392952  1
  S  S2  1  0.15353287  0.29643885  0.74464071  1
  S  S3  1  0.65800939  0.30982853  0.75091144  1
  S  S4  1  0.49172208  0.67832341  0.74697059  1
  S  S5  1  0.48176441  0.34464833  0.58045296  1
  S  S6  1  0.97773705  0.32419025  0.58531900  1
  S  S7  1  0.33413582  0.62331444  0.58443535  1
  S  S8  1  0.83177891  0.62869326  0.58237458  1
  S  S9  1  0.49031662  0.64845030  0.08870549  1
  S  S10  1  0.98972501  0.64653190  0.08542081  1
  S  S11  1  0.33709765  0.03445971  0.09302699  1
  S  S12  1  0.82611265  0.00626208  0.08321536  1
  S  S13  1  0.32106921  0.66125593  0.91406846  1
  S  S14  1  0.81195997  0.66671796  0.91992537  1
  S  S15  1  0.16812671  0.98098009  0.91611031  1
  S  S16  1  0.66213199  0.96448794  0.92375094  1
  S  S17  1  0.31867595  0.97491983  0.41402594  1
  S  S18  1  0.80576378  0.95915195  0.41763742  1
  S  S19  1  0.17505120  0.36428772  0.41401703  1
  S  S20  1  0.66662453  0.36981989  0.41858206  1
  O  O0  1  0.12184938  0.02800803  0.30478749  1
  O  O1  1  0.60671828  0.01976542  0.30522311  1
  O  O2  1  0.41395929  0.76872569  0.30455236  1
  O  O3  1  0.90664024  0.76571599  0.30267104  1
  O  O4  1  0.47819278  0.16034981  0.30124516  1
  O  O5  1  0.98929649  0.18621931  0.29835365  1
  O  O6  1  0.11968055  0.20408807  0.79826663  1
  O  O7  1  0.62355062  0.21668966  0.80416222  1
  O  O8  1  0.48930975  0.75916031  0.79920933  1
  O  O9  1  0.97818916  0.77423308  0.79317315  1
  O  O10  1  0.41009328  0.04471356  0.79274636  1
  O  O11  1  0.90332470  0.03431930  0.79977939  1
  O  O12  1  0.39364244  0.00206011  0.68128241  1
  O  O13  1  0.90422489  0.98074834  0.68959193  1
  O  O14  1  0.10003460  0.20508016  0.69724296  1
  O  O15  1  0.60304851  0.21876523  0.70396133  1
  O  O16  1  0.01850325  0.80856103  0.68262609  1
  O  O17  1  0.50177814  0.78119911  0.69714489  1
  O  O18  1  0.39350035  0.83047631  0.19645672  1
  O  O19  1  0.87594948  0.80765996  0.19790098  1
  O  O20  1  0.01643447  0.24586913  0.18827322  1
  O  O21  1  0.52003125  0.22884955  0.19108699  1
  O  O22  1  0.10395299  0.96635018  0.20529328  1
  O  O23  1  0.59236826  0.96944152  0.20376087  1
  O  O24  1  0.44905145  0.36934839  0.63507661  1
  O  O25  1  0.93954111  0.34512742  0.63715518  1
  O  O26  1  0.24007617  0.13119030  0.63690478  1
  O  O27  1  0.73804431  0.13399513  0.63309651  1
  O  O28  1  0.33511863  0.53542824  0.63610045  1
  O  O29  1  0.82279322  0.53990258  0.63651073  1
  O  O30  1  0.45157096  0.53704608  0.13890530  1
  O  O31  1  0.94918623  0.55888218  0.13861402  1
  O  O32  1  0.33374845  0.12436413  0.14367706  1
  O  O33  1  0.81718888  0.07336578  0.13794278  1
  O  O34  1  0.23420434  0.32888451  0.14222975  1
  O  O35  1  0.72014007  0.34301951  0.14036565  1
  O  O36  1  0.22790352  0.33538952  0.02588571  1
  O  O37  1  0.71553092  0.31535695  0.02509196  1
  O  O38  1  0.44083966  0.57153356  0.03822176  1
  O  O39  1  0.94077765  0.55084260  0.03714387  1
  O  O40  1  0.34626465  0.13268711  0.04152861  1
  O  O41  1  0.83633846  0.12199030  0.03721199  1
  O  O42  1  0.23234014  0.15126085  0.52159405  1
  O  O43  1  0.73655509  0.14361143  0.51728102  1
  O  O44  1  0.33598776  0.53944511  0.53297480  1
  O  O45  1  0.84660755  0.54341572  0.53483518  1
  O  O46  1  0.42770527  0.33056166  0.53392991  1
  O  O47  1  0.93032817  0.31248042  0.53479229  1
  O  O48  1  0.28165728  0.67594632  0.96611514  1
  O  O49  1  0.76543092  0.67847573  0.96813965  1
  O  O50  1  0.06808407  0.45656939  0.97187923  1
  O  O51  1  0.57140810  0.46652332  0.97078632  1
  O  O52  1  0.17069084  0.88745125  0.96504909  1
  O  O53  1  0.66440121  0.86929161  0.97243606  1
  O  O54  1  0.28161091  0.88096152  0.46696072  1
  O  O55  1  0.76376336  0.85481132  0.46718672  1
  O  O56  1  0.17094335  0.45248296  0.46365865  1
  O  O57  1  0.66004399  0.46238406  0.46657855  1
  O  O58  1  0.06726525  0.67261437  0.47467108  1
  O  O59  1  0.57872358  0.71202826  0.46564348  1
  O  O60  1  0.06052226  0.64443332  0.36016611  1
  O  O61  1  0.55088126  0.64085906  0.35467221  1
  O  O62  1  0.26681551  0.88394605  0.36504421  1
  O  O63  1  0.76324517  0.87674613  0.36463504  1
  O  O64  1  0.18100480  0.45572484  0.36127814  1
  O  O65  1  0.67660198  0.45847567  0.36391896  1
  O  O66  1  0.05928716  0.44770388  0.85776113  1
  O  O67  1  0.56339292  0.45749814  0.85529199  1
  O  O68  1  0.17123739  0.90294573  0.86262458  1
  O  O69  1  0.66838974  0.89165552  0.86994137  1
  O  O70  1  0.27617271  0.66731240  0.86432210  1
  O  O71  1  0.77499286  0.67323035  0.86577218  1
  O  O72  1  0.01403919  0.83332203  0.41795975  1
  O  O73  1  0.51275260  0.84980941  0.41006648  1
  O  O74  1  0.40311815  0.00249705  0.40932415  1
  O  O75  1  0.89161203  0.99201833  0.41858704  1
  O  O76  1  0.10165480  0.19662655  0.41472246  1
  O  O77  1  0.59234708  0.20097704  0.41661142  1
  O  O78  1  0.01355237  0.17692885  0.92021700  1
  O  O79  1  0.51762606  0.18843528  0.91860181  1
  O  O80  1  0.09216544  0.99322667  0.91930493  1
  O  O81  1  0.58551703  0.97404591  0.92515565  1
  O  O82  1  0.40689518  0.79689218  0.91385650  1
  O  O83  1  0.89818714  0.80321070  0.92334152  1
  O  O84  1  0.48329012  0.18776158  0.58204759  1
  O  O85  1  0.98882756  0.17892186  0.58740245  1
  O  O86  1  0.08946398  0.01840954  0.58277446  1
  O  O87  1  0.59729817  0.01792825  0.57505012  1
  O  O88  1  0.40660035  0.79344943  0.58278177  1
  O  O89  1  0.90920185  0.79556973  0.58373571  1
  O  O90  1  0.49837348  0.81119874  0.09592073  1
  O  O91  1  0.99888751  0.81185160  0.08277750  1
  O  O92  1  0.41181415  0.01875962  0.09330125  1
  O  O93  1  0.90277423  0.99513720  0.08246392  1
  O  O94  1  0.08754516  0.17030905  0.08520584  1
  O  O95  1  0.57584488  0.15857552  0.08686117  1
  O  O96  1  0.34496084  0.19022509  0.74104645  1
  O  O97  1  0.84333739  0.16853060  0.73934295  1
  O  O98  1  0.23691121  0.31576698  0.73780582  1
  O  O99  1  0.74231796  0.33804463  0.74329224  1
  O  O100  1  0.41412926  0.51494054  0.74385796  1
  O  O101  1  0.90865493  0.50734885  0.73292316  1
  O  O102  1  0.33549972  0.51407713  0.24246234  1
  O  O103  1  0.81682824  0.49744041  0.24729149  1
  O  O104  1  0.41332224  0.31326580  0.24342219  1
  O  O105  1  0.91921703  0.33668164  0.24786301  1
  O  O106  1  0.24113578  0.14827820  0.24454772  1
  O  O107  1  0.72747350  0.13161438  0.24758573  1
  O  O108  1  0.31776881  0.49965661  0.91338001  1
  O  O109  1  0.80933653  0.50567767  0.92053386  1
  O  O110  1  0.42494189  0.33908626  0.91708401  1
  O  O111  1  0.91977351  0.32977708  0.91729244  1
  O  O112  1  0.24013586  0.15251868  0.91537277  1
  O  O113  1  0.73322117  0.13613099  0.92326315  1
  O  O114  1  0.31897489  0.13501195  0.41619785  1
  O  O115  1  0.80665345  0.11926924  0.41851759  1
  O  O116  1  0.24958322  0.34465286  0.41518449  1
  O  O117  1  0.74050032  0.34797976  0.42231540  1
  O  O118  1  0.42223849  0.50568960  0.42394427  1
  O  O119  1  0.92055324  0.49045912  0.42202371  1
  O  O120  1  0.16998788  0.49405746  0.09076188  1
  O  O121  1  0.65671747  0.49077085  0.08112616  1
  O  O122  1  0.07126336  0.65719217  0.08398423  1
  O  O123  1  0.57299917  0.66320046  0.08223627  1
  O  O124  1  0.26169126  0.87167828  0.09173803  1
  O  O125  1  0.75202259  0.84268906  0.07565768  1
  O  O126  1  0.17812062  0.86357523  0.57993732  1
  O  O127  1  0.68313132  0.85645572  0.57749195  1
  O  O128  1  0.25877513  0.63916993  0.58766719  1
  O  O129  1  0.75802587  0.64479231  0.57462121  1
  O  O130  1  0.06095304  0.47776316  0.58265293  1
  O  O131  1  0.56702667  0.48488094  0.57389516  1
  O  O132  1  0.17073765  0.85540776  0.25996857  1
  O  O133  1  0.64874849  0.83745512  0.25833318  1
  O  O134  1  0.26040090  0.69098075  0.26112397  1
  O  O135  1  0.74949417  0.68908476  0.26490285  1
  O  O136  1  0.08648040  0.50072453  0.25449019  1
  O  O137  1  0.57824978  0.47820612  0.25773036  1
  O  O138  1  0.15938954  0.45995074  0.74619897  1
  O  O139  1  0.66274612  0.47287709  0.75243283  1
  O  O140  1  0.07250536  0.65450279  0.74608679  1
  O  O141  1  0.56194698  0.64532416  0.74659690  1
  O  O142  1  0.25421933  0.86145209  0.74557117  1
  O  O143  1  0.76375837  0.82832912  0.74353724  1
loop_
_geom_bond_atom_site_label_1
_geom_bond_atom_site_label_2
_geom_bond_distance
_geom_bond_site_symmetry_2
Na0 O134 2.540046 1_545
Na0 O104 2.543187 1_555
Na0 O132 2.609898 1_545
Na0 O106 2.660117 1_555
Na0 O18 2.721306 1_545
Na0 O4 2.721892 1_555
Na0 O32 2.748800 1_555
Na0 O62 2.975615 1_545
Na1 O135 2.484287 1_555
Na1 O19 2.706289 1_555
Na1 O107 2.744578 1_565
Na1 O105 2.800671 1_565
Na1 O63 2.856506 1_555
Na1 O133 2.883724 1_555
Na1 O33 2.886317 1_565
Na1 O5 2.891448 1_565
Na2 O102 2.432188 1_555
Na2 O134 2.547609 1_555
Na2 O34 2.616676 1_555
Na2 O136 2.618462 1_555
Na3 O103 2.368031 1_555
Na3 O137 2.451085 1_555
Na3 O135 2.653977 1_555
Na3 O35 2.665350 1_555
Na3 O21 2.782322 1_555
Na3 O107 2.908705 1_555
Na3 O65 2.978797 1_555
Na4 O105 2.416245 1_555
Na4 O136 2.554152 1_655
Na4 O60 2.556868 1_655
Na4 O3 2.703469 1_555
Na5 O61 2.433709 1_555
Na5 O137 2.531923 1_555
Na5 O104 2.560885 1_555
Na5 O133 2.561633 1_555
Na5 O102 2.683511 1_555
Na5 O2 2.703834 1_555
Na6 O101 2.470506 1_555
Na6 O143 2.508078 1_555
Na6 O99 2.625460 1_555
Na6 O29 2.670561 1_555
Na6 O9 2.712397 1_555
Na6 O139 2.787924 1_555
Na6 O13 2.863174 1_555
Na7 O140 2.434467 1_655
Na7 O97 2.435351 1_555
Na7 O101 2.591156 1_555
Na7 O66 2.743334 1_655
Na7 O11 2.828366 1_555
Na7 O138 2.838345 1_655
Na7 O25 2.934354 1_555
Na8 O96 2.453303 1_555
Na8 O141 2.454340 1_555
Na8 O10 2.574443 1_555
Na8 O67 2.614925 1_555
Na8 O100 2.689230 1_555
Na8 O139 2.785278 1_555
Na9 O142 2.368457 1_555
Na9 O26 2.610320 1_565
Na9 O98 2.638183 1_565
Na9 O96 2.754053 1_565
Na9 O140 2.803861 1_555
Na9 O16 2.879792 1_555
Na10 O16 2.392297 1_555
Na10 O86 2.461980 1_565
Na10 O89 2.541113 1_455
Na10 O126 2.576096 1_555
Na10 O130 2.715228 1_555
Na10 O58 2.953866 1_555
Na11 O12 2.315287 1_565
Na11 O126 2.497219 1_555
Na11 O84 2.589528 1_565
Na11 O128 2.807282 1_555
Na11 O26 2.813568 1_565
Na11 O88 2.825695 1_555
Na12 O94 2.333989 1_555
Na12 O120 2.381466 1_555
Na12 O20 2.535662 1_555
Na12 O122 2.744164 1_555
Na12 O93 2.813489 1_445
Na12 O50 2.905435 1_554
Na13 O121 2.318851 1_555
Na13 O95 2.387860 1_555
Na13 O92 2.566121 1_555
Na13 O21 2.600786 1_555
Na13 O123 2.768627 1_555
Na13 O30 2.985163 1_555
Na13 O40 3.002667 1_555
Na13 O51 3.065465 1_554
Na14 O78 2.381632 1_555
Na14 O80 2.529446 1_545
Na14 O112 2.560961 1_555
Na14 O36 2.565412 1_556
Na14 O108 2.640167 1_555
Na14 O50 2.903221 1_555
Na15 O79 2.367453 1_555
Na15 O37 2.391650 1_556
Na15 O109 2.486900 1_555
Na15 O113 2.570638 1_555
Na15 O81 2.703471 1_545
Na15 O51 2.894322 1_555
Na16 O72 2.433007 1_545
Na16 O76 2.474978 1_555
Na16 O42 2.586277 1_555
Na16 O114 2.602259 1_555
Na16 O116 2.687347 1_555
Na17 O115 2.429852 1_555
Na17 O73 2.462968 1_545
Na17 O43 2.501057 1_555
Na17 O77 2.567330 1_555
Na17 O117 2.630989 1_555
Na17 O59 2.686497 1_545
Na18 O86 2.478147 1_665
Na18 O89 2.532014 1_555
Na18 O72 2.675792 1_655
Na18 O85 2.682951 1_565
Na18 O75 2.876735 1_555
Na18 O76 2.891607 1_665
Na19 O73 2.369580 1_555
Na19 O87 2.409009 1_565
Na19 O77 2.541222 1_565
Na19 O88 2.859507 1_555
Na20 O78 2.410661 1_554
Na20 O94 2.531348 1_555
Na20 O80 2.582627 1_544
Na20 O93 2.667453 1_445
Na20 O91 2.673767 1_445
Na20 O83 2.739246 1_444
Na21 O95 2.334871 1_555
Na21 O81 2.541328 1_544
Na21 O79 2.638221 1_554
Na21 O92 2.747674 1_555
Na21 O90 2.760286 1_545
Na21 O82 2.985420 1_544
Na22 O110 2.379958 1_555
Na22 O96 2.589953 1_555
Na22 O112 2.636806 1_555
Na22 O100 2.682612 1_555
Na22 O108 2.704989 1_555
Na23 O111 2.454519 1_555
Na23 O97 2.503792 1_555
Na23 O101 2.723557 1_555
Na24 O118 2.408374 1_555
Na24 O116 2.632194 1_555
Na24 O104 2.652799 1_555
Na24 O102 2.727885 1_555
Na24 O114 2.749226 1_555
Na25 O119 2.340233 1_555
Na25 O105 2.596331 1_555
Na25 O103 2.718794 1_555
Na25 O117 2.794904 1_555
Na25 O115 2.802520 1_555
Na26 O120 2.372756 1_555
Na26 O136 2.542444 1_555
Na26 O134 2.578076 1_555
Na26 O124 2.622257 1_555
Na26 O132 2.918012 1_555
Na26 O122 2.924294 1_555
Na27 O121 2.416946 1_555
Na27 O135 2.684596 1_555
Na27 O125 2.701158 1_555
Na27 O137 2.763432 1_555
Na27 O123 2.842201 1_555
Na28 O142 2.397861 1_555
Na28 O140 2.453397 1_555
Na28 O138 2.648847 1_555
Na28 O126 2.740620 1_555
Na28 O128 2.742838 1_555
Na28 O130 2.952557 1_555
Na29 O127 2.252622 1_555
Na29 O143 2.384480 1_555
Na29 O129 2.694882 1_555
La0 O3 2.217825 1_555
La0 O5 2.264247 1_565
La0 O72 2.334257 1_655
La0 O75 2.426251 1_555
La0 O76 2.555356 1_665
La0 O0 2.566278 1_665
La1 O11 2.186777 1_565
La1 O9 2.299412 1_555
La1 O78 2.383355 1_665
La1 O83 2.489513 1_555
La1 O6 2.528175 1_665
La1 O80 2.593836 1_655
La2 O10 2.197671 1_555
La2 O79 2.270053 1_555
La2 O82 2.396581 1_545
La2 O7 2.456591 1_555
La2 O8 2.591956 1_545
La2 O81 2.676428 1_545
La3 O87 2.235649 1_555
La3 O12 2.367521 1_555
La3 O15 2.381451 1_555
La3 O17 2.383017 1_545
La3 O88 2.471976 1_545
La3 O84 2.509391 1_555
La4 O20 2.284861 1_655
La4 O19 2.295170 1_545
La4 O94 2.348937 1_655
La4 O22 2.459268 1_645
La4 O91 2.512173 1_545
La4 O93 2.523421 1_545
La5 O35 2.223321 1_555
La5 O103 2.278002 1_555
La5 O105 2.412273 1_555
La5 O31 2.418191 1_555
La5 O107 2.452058 1_555
La5 O33 2.591261 1_555
La6 O36 2.272638 1_556
La6 O110 2.290553 1_555
La6 O40 2.377993 1_556
La6 O38 2.410247 1_556
La6 O108 2.485522 1_555
La6 O112 2.506734 1_555
La7 O111 2.278153 1_555
La7 O37 2.337433 1_556
La7 O41 2.361334 1_556
La7 O39 2.378847 1_556
La7 O113 2.410396 1_555
La7 O109 2.439586 1_555
La8 O50 2.230620 1_554
La8 O120 2.298552 1_555
La8 O48 2.349335 1_554
La8 O122 2.410028 1_555
La8 O52 2.501737 1_554
La8 O124 2.571994 1_555
La9 O58 2.158526 1_555
La9 O126 2.325315 1_555
La9 O130 2.403126 1_555
La9 O56 2.403992 1_555
La9 O54 2.417447 1_555
La9 O128 2.525885 1_555
La10 O66 2.241048 1_555
La10 O140 2.321261 1_555
La10 O142 2.395324 1_555
La10 O68 2.426563 1_555
La10 O70 2.455622 1_555
La10 O138 2.523459 1_555
La11 O67 2.273347 1_555
La11 O143 2.320696 1_555
La11 O69 2.320755 1_555
La11 O71 2.406789 1_555
La11 O141 2.475360 1_555
La11 O139 2.477255 1_555
In0 O2 2.047523 1_555
In0 O4 2.091195 1_565
In0 O73 2.137934 1_555
In0 O74 2.251193 1_565
In0 O1 2.280677 1_565
In0 O77 2.631551 1_565
In1 O13 2.035955 1_455
In1 O16 2.104172 1_555
In1 O86 2.155118 1_565
In1 O14 2.252330 1_565
In1 O85 2.343765 1_465
In1 O89 2.390108 1_455
In2 O21 2.082799 1_555
In2 O18 2.088166 1_545
In2 O95 2.146504 1_555
In2 O23 2.260339 1_545
In2 O92 2.283798 1_555
In2 O90 2.338984 1_545
In3 O26 2.049501 1_555
In3 O96 2.076654 1_555
In3 O28 2.162974 1_555
In3 O98 2.241800 1_555
In3 O24 2.246538 1_555
In3 O100 2.307051 1_555
In4 O27 2.016345 1_555
In4 O97 2.093488 1_555
In4 O101 2.140838 1_555
In4 O25 2.217616 1_555
In4 O99 2.274054 1_555
In4 O29 2.400565 1_555
In5 O34 2.091258 1_555
In5 O102 2.093561 1_555
In5 O104 2.175879 1_555
In5 O30 2.264999 1_555
In5 O32 2.297648 1_555
In5 O106 2.301992 1_555
In6 O118 2.062885 1_555
In6 O42 2.098708 1_555
In6 O46 2.199134 1_555
In6 O44 2.217079 1_555
In6 O116 2.273877 1_555
In6 O114 2.398481 1_555
In7 O43 2.022815 1_555
In7 O119 2.067504 1_555
In7 O45 2.206055 1_555
In7 O47 2.286677 1_555
In7 O117 2.348377 1_555
In7 O115 2.420085 1_555
In8 O51 2.045348 1_554
In8 O121 2.093965 1_555
In8 O49 2.192885 1_554
In8 O125 2.258841 1_555
In8 O123 2.272528 1_555
In8 O53 2.293168 1_554
In9 O59 2.031451 1_555
In9 O127 2.070540 1_555
In9 O55 2.169608 1_555
In9 O131 2.224682 1_555
In9 O57 2.408803 1_555
In9 O129 2.531755 1_555
In10 O60 2.109280 1_555
In10 O136 2.115158 1_555
In10 O134 2.161653 1_555
In10 O64 2.271519 1_555
In10 O132 2.313870 1_555
In10 O62 2.360256 1_555
In11 O61 2.058271 1_555
In11 O135 2.110874 1_555
In11 O137 2.128107 1_555
In11 O65 2.208267 1_555
In11 O63 2.399074 1_555
In11 O133 2.422675 1_555
O0 S0 1.476467 1_555
O1 S1 1.484605 1_545
O2 Si0 1.632037 1_555
O3 Si1 1.639661 1_555
O4 Si3 1.653165 1_555
O5 Si2 1.635601 1_655
O6 S2 1.486162 1_555
O7 S3 1.482739 1_555
O8 S4 1.471888 1_555
O9 Si4 1.637111 1_555
O10 Si5 1.659103 1_555
O11 Si6 1.643182 1_555
O12 Si5 1.638850 1_555
O13 Si6 1.637503 1_565
O14 S2 1.480513 1_555
O15 S3 1.482833 1_555
O16 Si4 1.656597 1_455
O17 S4 1.477555 1_555
O18 Si0 1.647681 1_555
O19 Si1 1.641626 1_555
O20 Si2 1.656625 1_555
O21 Si3 1.647763 1_555
O22 S0 1.484743 1_565
O23 S1 1.483825 1_555
O24 S5 1.499376 1_555
O25 S6 1.482420 1_555
O26 Si7 1.648050 1_555
O27 Si8 1.630296 1_555
O28 S7 1.485382 1_555
O29 S8 1.494728 1_555
O30 S9 1.504099 1_555
O31 S10 1.484624 1_555
O32 S11 1.493681 1_555
O33 S12 1.493478 1_555
O34 Si9 1.662422 1_555
O35 Si10 1.644979 1_555
O36 Si9 1.651075 1_555
O37 Si10 1.644325 1_555
O38 S9 1.480805 1_555
O39 S10 1.476936 1_555
O40 S11 1.488236 1_555
O41 S12 1.482732 1_555
O42 Si7 1.665152 1_555
O43 Si8 1.646844 1_555
O44 S7 1.468814 1_555
O45 S8 1.491020 1_555
O46 S5 1.473211 1_555
O47 S6 1.477360 1_555
O48 S13 1.477603 1_555
O49 S14 1.471701 1_555
O50 Si11 1.675826 1_555
O51 Si12 1.648352 1_555
O52 S15 1.473448 1_555
O53 S16 1.476427 1_555
O54 S17 1.486269 1_555
O55 S18 1.473402 1_555
O56 S19 1.469347 1_555
O57 S20 1.479641 1_555
O58 Si13 1.643201 1_555
O59 Si14 1.635933 1_555
O60 Si13 1.675555 1_555
O61 Si14 1.659945 1_555
O62 S17 1.497235 1_555
O63 S18 1.497848 1_555
O64 S19 1.490763 1_555
O65 S20 1.501734 1_555
O66 Si11 1.656423 1_555
O67 Si12 1.650691 1_555
O68 S15 1.487006 1_555
O69 S16 1.485700 1_555
O70 S13 1.480069 1_555
O71 S14 1.487923 1_555
O72 Si13 1.650467 1_555
O73 Si14 1.691206 1_555
O74 S17 1.475254 1_545
O75 S18 1.481744 1_555
O76 S19 1.485527 1_555
O77 S20 1.500325 1_555
O78 Si11 1.651102 1_555
O79 Si12 1.675558 1_555
O80 S15 1.487965 1_555
O81 S16 1.485214 1_555
O82 S13 1.471039 1_555
O83 S14 1.482250 1_555
O84 S5 1.489370 1_555
O85 S6 1.481281 1_555
O86 Si7 1.670862 1_555
O87 Si8 1.667306 1_555
O88 S7 1.492949 1_555
O89 S8 1.513976 1_555
O90 S9 1.470572 1_555
O91 S10 1.476161 1_555
O92 S11 1.482075 1_555
O93 S12 1.494090 1_565
O94 Si9 1.657722 1_555
O95 Si10 1.671017 1_555
O96 Si5 1.681646 1_555
O97 Si6 1.640372 1_555
O98 S2 1.489283 1_555
O99 S3 1.476547 1_555
O100 S4 1.499590 1_555
O101 Si4 1.653850 1_555
O102 Si0 1.670682 1_555
O103 Si1 1.648855 1_555
O104 Si3 1.687516 1_555
O105 Si2 1.656631 1_655
O106 S0 1.486761 1_555
O107 S1 1.491643 1_545
O108 S13 1.488838 1_555
O109 S14 1.489456 1_555
O110 Si12 1.636523 1_555
O111 Si11 1.642514 1_655
O112 S15 1.497878 1_545
O113 S16 1.492340 1_545
O114 S17 1.502830 1_545
O115 S18 1.496736 1_545
O116 S19 1.500628 1_555
O117 S20 1.503778 1_555
O118 Si14 1.662353 1_555
O119 Si13 1.665565 1_655
O120 Si9 1.675215 1_555
O121 Si10 1.679714 1_555
O122 S10 1.482970 1_455
O123 S9 1.493453 1_555
O124 S11 1.475825 1_565
O125 S12 1.482299 1_565
O126 Si7 1.682450 1_565
O127 Si8 1.673200 1_565
O128 S7 1.495948 1_555
O129 S8 1.479849 1_555
O130 S6 1.505544 1_455
O131 S5 1.484314 1_555
O132 S0 1.493595 1_565
O133 S1 1.487398 1_555
O134 Si0 1.686628 1_555
O135 Si1 1.664315 1_555
O136 Si2 1.666855 1_555
O137 Si3 1.659437 1_555
O138 S2 1.485343 1_555
O139 S3 1.490416 1_555
O140 Si4 1.661929 1_455
O141 S4 1.497741 1_555
O142 Si5 1.643477 1_565
O143 Si6 1.658629 1_565
