# generated using pymatgen
data_Na10Nb2In6Si7S5O48
_symmetry_space_group_name_H-M   'P 1'
_cell_length_a   18.27742070
_cell_length_b   9.11153196
_cell_length_c   23.00835953
_cell_angle_alpha   89.99915368
_cell_angle_beta   90.13398636
_cell_angle_gamma   119.90230358
_symmetry_Int_Tables_number   1
_chemical_formula_structural   Na10Nb2In6Si7S5O48
_chemical_formula_sum   'Na30 Nb6 In18 Si21 S15 O144'
_cell_volume   3321.60303968
_cell_formula_units_Z   3
loop_
 _symmetry_equiv_pos_site_id
 _symmetry_equiv_pos_as_xyz
  1  'x, y, z'
loop_
 _atom_site_type_symbol
 _atom_site_label
 _atom_site_symmetry_multiplicity
 _atom_site_fract_x
 _atom_site_fract_y
 _atom_site_fract_z
 _atom_site_occupancy
  Na  Na0  1  0.31590048  0.00065359  0.24580068  1
  Na  Na1  1  0.81644562  0.01153594  0.24609478  1
  Na  Na2  1  0.18736579  0.36724561  0.24690666  1
  Na  Na3  1  0.31690550  0.62130787  0.74652692  1
  Na  Na4  1  0.81525390  0.63055244  0.74577296  1
  Na  Na5  1  0.68645597  0.00641532  0.74728447  1
  Na  Na6  1  0.16212548  0.33870277  0.58481583  1
  Na  Na7  1  0.65614567  0.33707664  0.57990668  1
  Na  Na8  1  0.01548488  0.70036522  0.57552430  1
  Na  Na9  1  0.15832725  0.98045540  0.08351710  1
  Na  Na10  1  0.66130407  0.98413917  0.08456968  1
  Na  Na11  1  0.51480571  0.32991205  0.07476793  1
  Na  Na12  1  0.85021150  0.02278857  0.91986694  1
  Na  Na13  1  0.66455661  0.30672118  0.91864647  1
  Na  Na14  1  0.48492818  0.29310649  0.42026368  1
  Na  Na15  1  0.16648774  0.02520600  0.41953939  1
  Na  Na16  1  0.66622169  0.05103725  0.41541142  1
  Na  Na17  1  0.84879468  0.65455167  0.41626497  1
  Na  Na18  1  0.99827461  0.99247469  0.49861560  1
  Na  Na19  1  0.48717444  0.98228918  0.49562839  1
  Na  Na20  1  0.99486231  0.99375754  0.99721142  1
  Na  Na21  1  0.49057405  0.00288845  0.99595356  1
  Na  Na22  1  0.33545893  0.33200610  0.83150190  1
  Na  Na23  1  0.83789360  0.33870834  0.83130283  1
  Na  Na24  1  0.33364150  0.34755855  0.33164641  1
  Na  Na25  1  0.83484396  0.34047841  0.33053964  1
  Na  Na26  1  0.16794598  0.65410330  0.16175532  1
  Na  Na27  1  0.67532783  0.66845716  0.16342182  1
  Na  Na28  1  0.17646499  0.68306406  0.66343659  1
  Na  Na29  1  0.66793215  0.68122200  0.66154398  1
  Nb  Nb0  1  0.99916175  0.00696880  0.65040475  1
  Nb  Nb1  1  0.50533460  0.98663430  0.64567524  1
  Nb  Nb2  1  0.00547978  0.02413584  0.14563417  1
  Nb  Nb3  1  0.49823798  0.98963976  0.14986062  1
  Nb  Nb4  1  0.16357055  0.67908385  0.31080975  1
  Nb  Nb5  1  0.66176307  0.64459166  0.81087461  1
  In  In0  1  0.00277702  0.00237847  0.34791704  1
  In  In1  1  0.50006417  0.99581923  0.35054327  1
  In  In2  1  0.00161034  0.00563155  0.84925487  1
  In  In3  1  0.49820601  0.00328042  0.84937861  1
  In  In4  1  0.32811243  0.33310016  0.68470809  1
  In  In5  1  0.82648645  0.31932510  0.68225553  1
  In  In6  1  0.32698283  0.33217553  0.18177052  1
  In  In7  1  0.82817335  0.32343493  0.18451377  1
  In  In8  1  0.33347912  0.31979862  0.98105136  1
  In  In9  1  0.83088695  0.33745678  0.98756778  1
  In  In10  1  0.32714565  0.33016123  0.48751289  1
  In  In11  1  0.83274299  0.34675350  0.48253981  1
  In  In12  1  0.17200698  0.66548218  0.01947334  1
  In  In13  1  0.67728870  0.65639188  0.01686890  1
  In  In14  1  0.17763616  0.69584967  0.51730661  1
  In  In15  1  0.66985422  0.66697050  0.51998086  1
  In  In16  1  0.66354695  0.66298365  0.31309934  1
  In  In17  1  0.16396004  0.65682303  0.81440900  1
  Si  Si0  1  0.14566792  0.00133567  0.24949364  1
  Si  Si1  1  0.64740785  0.99594217  0.25389959  1
  Si  Si2  1  0.35386823  0.70197177  0.25242837  1
  Si  Si3  1  0.99821602  0.29624320  0.25309643  1
  Si  Si4  1  0.14777048  0.29636058  0.75309177  1
  Si  Si5  1  0.64449156  0.28682455  0.75000650  1
  Si  Si6  1  0.49817224  0.70147908  0.75367440  1
  Si  Si7  1  0.85309963  0.00495740  0.75357274  1
  Si  Si8  1  0.18404318  0.03391107  0.58571412  1
  Si  Si9  1  0.68645606  0.03072839  0.58128161  1
  Si  Si10  1  0.33222217  0.62957610  0.58369460  1
  Si  Si11  1  0.83546298  0.63370310  0.58643416  1
  Si  Si12  1  0.33475451  0.03860730  0.08599935  1
  Si  Si13  1  0.83236930  0.03464388  0.08178195  1
  Si  Si14  1  0.18801466  0.33922198  0.08175279  1
  Si  Si15  1  0.68431300  0.33324852  0.08576572  1
  Si  Si16  1  0.81971491  0.66926536  0.91359548  1
  Si  Si17  1  0.51555186  0.37003099  0.91832690  1
  Si  Si18  1  0.31719835  0.96931834  0.41419736  1
  Si  Si19  1  0.66533134  0.37480150  0.41629670  1
  Si  Si20  1  0.01823046  0.66363621  0.41779146  1
  S  S0  1  0.85529169  0.70902890  0.24896441  1
  S  S1  1  0.50068940  0.29453178  0.24764852  1
  S  S2  1  0.00194304  0.70892239  0.74859182  1
  S  S3  1  0.35375313  0.00056774  0.74883843  1
  S  S4  1  0.48002813  0.32797017  0.58506848  1
  S  S5  1  0.97945966  0.32901883  0.58340983  1
  S  S6  1  0.47959564  0.62995649  0.08334154  1
  S  S7  1  0.98169876  0.63413697  0.08482958  1
  S  S8  1  0.31529338  0.66634172  0.91576521  1
  S  S9  1  0.01885522  0.37593152  0.91794861  1
  S  S10  1  0.16512617  0.95358402  0.91604675  1
  S  S11  1  0.66560979  0.95453066  0.91624758  1
  S  S12  1  0.81591063  0.96392587  0.41580570  1
  S  S13  1  0.16585354  0.37659709  0.41606137  1
  S  S14  1  0.51855284  0.66196362  0.41809960  1
  O  O0  1  0.11076695  0.03920136  0.30854356  1
  O  O1  1  0.60769709  0.02024008  0.31300154  1
  O  O2  1  0.40890147  0.79032291  0.30843233  1
  O  O3  1  0.89907149  0.77817129  0.30556282  1
  O  O4  1  0.48771905  0.19688435  0.30153683  1
  O  O5  1  0.97484269  0.16609939  0.30646213  1
  O  O6  1  0.10483066  0.18062656  0.80890655  1
  O  O7  1  0.60858550  0.17693321  0.80836981  1
  O  O8  1  0.47654692  0.78771969  0.80684966  1
  O  O9  1  0.98592498  0.78192304  0.80083122  1
  O  O10  1  0.40013698  0.02263101  0.80405649  1
  O  O11  1  0.90390869  0.02810350  0.81281492  1
  O  O12  1  0.39731256  0.97258659  0.69868687  1
  O  O13  1  0.90390876  0.97243791  0.69799047  1
  O  O14  1  0.08453419  0.19237533  0.69486781  1
  O  O15  1  0.58502586  0.19401230  0.69229363  1
  O  O16  1  0.01219479  0.81572268  0.69561131  1
  O  O17  1  0.51531500  0.83352527  0.69535849  1
  O  O18  1  0.40193556  0.83195479  0.19533298  1
  O  O19  1  0.90232261  0.82530024  0.19975021  1
  O  O20  1  0.01511800  0.19709315  0.19521695  1
  O  O21  1  0.50973675  0.20317694  0.19592703  1
  O  O22  1  0.08567007  0.97658260  0.19222140  1
  O  O23  1  0.58338226  0.97634055  0.19651442  1
  O  O24  1  0.43879650  0.35053705  0.63506617  1
  O  O25  1  0.94231948  0.35975084  0.63578742  1
  O  O26  1  0.24640111  0.12314918  0.63888524  1
  O  O27  1  0.73521766  0.10313709  0.64233928  1
  O  O28  1  0.31609541  0.52303871  0.64325996  1
  O  O29  1  0.82300040  0.52146482  0.64444748  1
  O  O30  1  0.44256712  0.52477475  0.13592362  1
  O  O31  1  0.94393978  0.53026054  0.13610643  1
  O  O32  1  0.31941618  0.11548829  0.14586508  1
  O  O33  1  0.81731830  0.11402860  0.14040700  1
  O  O34  1  0.23440980  0.36540706  0.14395768  1
  O  O35  1  0.74704757  0.37119558  0.13909473  1
  O  O36  1  0.22699313  0.28649866  0.02767023  1
  O  O37  1  0.71465703  0.28278039  0.02485922  1
  O  O38  1  0.42814434  0.56039832  0.03126102  1
  O  O39  1  0.93175786  0.56303010  0.03057791  1
  O  O40  1  0.36429531  0.16726056  0.03098598  1
  O  O41  1  0.85416377  0.14891540  0.02216014  1
  O  O42  1  0.21246150  0.14374471  0.52445163  1
  O  O43  1  0.72370796  0.15311109  0.52445868  1
  O  O44  1  0.35642655  0.55659894  0.52664393  1
  O  O45  1  0.86309539  0.57098846  0.52773174  1
  O  O46  1  0.43331290  0.30359586  0.52898955  1
  O  O47  1  0.92739579  0.29664766  0.53102643  1
  O  O48  1  0.27405770  0.69303830  0.96693639  1
  O  O49  1  0.78174075  0.71954639  0.96855218  1
  O  O50  1  0.07001589  0.46244659  0.96976458  1
  O  O51  1  0.57363649  0.45201322  0.97622814  1
  O  O52  1  0.15606582  0.85583857  0.97050815  1
  O  O53  1  0.65571124  0.85942985  0.97030128  1
  O  O54  1  0.27911664  0.85810092  0.47128884  1
  O  O55  1  0.77497973  0.85376214  0.46678921  1
  O  O56  1  0.15590614  0.45160476  0.47013580  1
  O  O57  1  0.64689148  0.45212171  0.47553663  1
  O  O58  1  0.07516854  0.69977613  0.47592623  1
  O  O59  1  0.57279306  0.68864069  0.46924556  1
  O  O60  1  0.07429606  0.65235761  0.36071064  1
  O  O61  1  0.55617514  0.63630343  0.36426321  1
  O  O62  1  0.25184744  0.86359515  0.35703850  1
  O  O63  1  0.76527356  0.89149233  0.36159544  1
  O  O64  1  0.17292243  0.47820474  0.36332320  1
  O  O65  1  0.68497038  0.50348982  0.36116124  1
  O  O66  1  0.05715831  0.47460477  0.86412169  1
  O  O67  1  0.57354218  0.49602509  0.86099490  1
  O  O68  1  0.17438991  0.86626409  0.86387716  1
  O  O69  1  0.67479504  0.86771320  0.86396093  1
  O  O70  1  0.26633295  0.64760916  0.86111518  1
  O  O71  1  0.75337402  0.64313742  0.85657916  1
  O  O72  1  0.00832053  0.83533395  0.41101173  1
  O  O73  1  0.51101783  0.81620901  0.41484813  1
  O  O74  1  0.41267102  0.00452399  0.40787837  1
  O  O75  1  0.89957495  0.97234664  0.41196075  1
  O  O76  1  0.09053661  0.20142249  0.41278205  1
  O  O77  1  0.58168613  0.18491182  0.41295915  1
  O  O78  1  0.01055422  0.20478001  0.91600795  1
  O  O79  1  0.51398429  0.18780672  0.91151520  1
  O  O80  1  0.08824004  0.96818557  0.91255460  1
  O  O81  1  0.59247364  0.98297646  0.91223089  1
  O  O82  1  0.40038714  0.82113134  0.91304028  1
  O  O83  1  0.91251700  0.83926691  0.90838482  1
  O  O84  1  0.49036353  0.17384632  0.59076910  1
  O  O85  1  0.98906369  0.17312022  0.59081945  1
  O  O86  1  0.08872459  0.02387734  0.59648309  1
  O  O87  1  0.59174710  0.02696723  0.59075429  1
  O  O88  1  0.41582034  0.82532835  0.59575160  1
  O  O89  1  0.92168344  0.82356228  0.59630945  1
  O  O90  1  0.48994618  0.80573410  0.09132999  1
  O  O91  1  0.99166436  0.80839266  0.09102628  1
  O  O92  1  0.42056270  0.01872726  0.09590546  1
  O  O93  1  0.91626752  0.00754179  0.09493974  1
  O  O94  1  0.09181525  0.15510148  0.09063945  1
  O  O95  1  0.58919979  0.15380340  0.09645813  1
  O  O96  1  0.34419357  0.14906332  0.74233509  1
  O  O97  1  0.83943898  0.16626462  0.74515808  1
  O  O98  1  0.24224732  0.32431460  0.74872649  1
  O  O99  1  0.74173701  0.32559760  0.74647500  1
  O  O100  1  0.41871617  0.51676751  0.74322320  1
  O  O101  1  0.92622150  0.53936907  0.74166009  1
  O  O102  1  0.33888207  0.51223345  0.24486611  1
  O  O103  1  0.84599275  0.54143224  0.24292597  1
  O  O104  1  0.42432039  0.30982696  0.24107148  1
  O  O105  1  0.91832478  0.32092431  0.24269456  1
  O  O106  1  0.24221148  0.15792471  0.24625034  1
  O  O107  1  0.74181491  0.15851364  0.24843883  1
  O  O108  1  0.32130485  0.51194519  0.92133313  1
  O  O109  1  0.81671360  0.48534632  0.91762394  1
  O  O110  1  0.42463850  0.36127339  0.91672970  1
  O  O111  1  0.93196841  0.35322092  0.92094668  1
  O  O112  1  0.24213331  0.12272909  0.91798128  1
  O  O113  1  0.74560374  0.12454602  0.91728560  1
  O  O114  1  0.32038169  0.15619878  0.41696871  1
  O  O115  1  0.82375927  0.13213364  0.42276265  1
  O  O116  1  0.24282172  0.35821592  0.41670056  1
  O  O117  1  0.75028347  0.35488742  0.41812913  1
  O  O118  1  0.43491921  0.50401850  0.42294311  1
  O  O119  1  0.92512022  0.49576388  0.41708560  1
  O  O120  1  0.16653832  0.49057715  0.07715585  1
  O  O121  1  0.65972533  0.48240548  0.08367432  1
  O  O122  1  0.06927845  0.66308067  0.07807799  1
  O  O123  1  0.56618254  0.65737154  0.07785660  1
  O  O124  1  0.24584634  0.85984197  0.07840268  1
  O  O125  1  0.74300367  0.85430029  0.07693249  1
  O  O126  1  0.15899839  0.83542929  0.58408484  1
  O  O127  1  0.66603595  0.83771792  0.57608730  1
  O  O128  1  0.24270094  0.63053766  0.57782911  1
  O  O129  1  0.74751402  0.63695648  0.58179595  1
  O  O130  1  0.06555426  0.47433813  0.57741411  1
  O  O131  1  0.56718817  0.47661718  0.58153858  1
  O  O132  1  0.15309230  0.82501899  0.25423416  1
  O  O133  1  0.65815219  0.82446498  0.25196163  1
  O  O134  1  0.25929029  0.69012049  0.25716783  1
  O  O135  1  0.77174759  0.70387715  0.24996738  1
  O  O136  1  0.09044275  0.47182742  0.25930637  1
  O  O137  1  0.57823089  0.46228303  0.24890230  1
  O  O138  1  0.15683509  0.48763824  0.75155119  1
  O  O139  1  0.65255892  0.47880272  0.75470110  1
  O  O140  1  0.08007971  0.69888264  0.75246463  1
  O  O141  1  0.59041673  0.70873823  0.75978309  1
  O  O142  1  0.26900198  0.83942220  0.75251716  1
  O  O143  1  0.75893277  0.82769175  0.75685576  1
loop_
_geom_bond_atom_site_label_1
_geom_bond_atom_site_label_2
_geom_bond_distance
_geom_bond_site_symmetry_2
Na0 O106 2.406636 1_555
Na0 O134 2.495392 1_545
Na0 O104 2.511890 1_555
Na0 O32 2.513867 1_555
Na0 O132 2.590021 1_545
Na0 O62 2.834939 1_545
Na0 O18 2.932972 1_545
Na0 O4 3.014361 1_555
Na1 O107 2.340658 1_555
Na1 O105 2.487412 1_555
Na1 O135 2.500098 1_545
Na1 O133 2.525681 1_545
Na1 O33 2.602076 1_555
Na1 O63 2.850419 1_545
Na1 O5 2.865343 1_555
Na2 O102 2.401988 1_555
Na2 O136 2.411035 1_555
Na2 O34 2.524713 1_555
Na2 O106 2.559093 1_555
Na2 O134 2.565384 1_555
Na2 O64 2.921638 1_555
Na2 O0 2.956715 1_555
Na2 O20 2.974145 1_555
Na3 O98 2.346489 1_555
Na3 O100 2.478650 1_555
Na3 O28 2.536533 1_555
Na3 O142 2.543745 1_555
Na3 O138 2.550514 1_555
Na3 O70 2.845201 1_555
Na3 O8 2.882558 1_555
Na3 O12 2.988868 1_555
Na4 O99 2.409141 1_555
Na4 O143 2.489180 1_555
Na4 O101 2.548296 1_555
Na4 O29 2.566132 1_555
Na4 O139 2.588429 1_555
Na4 O71 2.816898 1_555
Na4 O13 2.917817 1_555
Na4 O9 2.988271 1_555
Na5 O141 2.403304 1_545
Na5 O97 2.425336 1_555
Na5 O99 2.559180 1_555
Na5 O143 2.569935 1_545
Na5 O27 2.574535 1_555
Na5 O69 2.929732 1_545
Na5 O7 2.937545 1_555
Na5 O17 2.960238 1_545
Na6 O128 2.315593 1_555
Na6 O86 2.503016 1_555
Na6 O130 2.616352 1_555
Na6 O85 2.746732 1_455
Na6 O42 2.750708 1_555
Na6 O28 2.796157 1_555
Na6 O56 2.854554 1_555
Na6 O14 2.886503 1_555
Na7 O129 2.388868 1_555
Na7 O87 2.473245 1_555
Na7 O131 2.514547 1_555
Na7 O84 2.639332 1_555
Na7 O57 2.658732 1_555
Na7 O43 2.834317 1_555
Na7 O15 2.898561 1_555
Na8 O126 2.283153 1_555
Na8 O89 2.520066 1_455
Na8 O58 2.541440 1_555
Na8 O86 2.603108 1_565
Na8 O130 2.638114 1_555
Na8 O45 2.658700 1_455
Na9 O124 2.352449 1_555
Na9 O94 2.442668 1_565
Na9 O122 2.516623 1_555
Na9 O91 2.647218 1_455
Na9 O36 2.742287 1_565
Na9 O22 2.826507 1_555
Na9 O52 2.829228 1_554
Na9 O32 2.934103 1_565
Na10 O125 2.328700 1_555
Na10 O95 2.496884 1_565
Na10 O123 2.597852 1_555
Na10 O90 2.720667 1_555
Na10 O37 2.757382 1_565
Na10 O33 2.792947 1_565
Na10 O53 2.845514 1_554
Na10 O23 2.929799 1_555
Na11 O121 2.305755 1_555
Na11 O51 2.520495 1_554
Na11 O92 2.525322 1_555
Na11 O40 2.588628 1_555
Na11 O95 2.616284 1_555
Na11 O123 2.644856 1_555
Na12 O83 2.462271 1_545
Na12 O113 2.507128 1_555
Na12 O78 2.549942 1_655
Na12 O41 2.604197 1_556
Na12 O111 2.610038 1_555
Na12 O11 2.645055 1_555
Na12 O49 2.648395 1_545
Na13 O79 2.408244 1_555
Na13 O109 2.423023 1_555
Na13 O81 2.565773 1_545
Na13 O37 2.654590 1_556
Na13 O113 2.720733 1_555
Na13 O7 2.768497 1_555
Na13 O51 2.910858 1_555
Na13 O71 3.019920 1_555
Na14 O74 2.296777 1_555
Na14 O77 2.422246 1_555
Na14 O118 2.506775 1_555
Na14 O114 2.620150 1_555
Na14 O46 2.694085 1_555
Na14 O57 2.861088 1_555
Na14 O4 2.877292 1_555
Na15 O114 2.448125 1_555
Na15 O72 2.529733 1_545
Na15 O76 2.598169 1_555
Na15 O42 2.604812 1_555
Na15 O116 2.633814 1_555
Na15 O0 2.773596 1_555
Na15 O58 2.887341 1_545
Na15 O62 2.995247 1_545
Na16 O77 2.399404 1_555
Na16 O117 2.405785 1_555
Na16 O1 2.542436 1_555
Na16 O73 2.563872 1_545
Na16 O115 2.596504 1_555
Na16 O43 2.697677 1_555
Na17 O117 2.407810 1_555
Na17 O119 2.460072 1_555
Na17 O72 2.538182 1_655
Na17 O75 2.564487 1_555
Na17 O45 2.724111 1_555
Na17 O3 2.753106 1_555
Na17 O65 2.888044 1_555
Na17 O55 2.985834 1_555
Na18 O72 2.531879 1_655
Na18 O75 2.629917 1_555
Na18 O76 2.680096 1_665
Na18 O89 2.692089 1_555
Na18 O86 2.719626 1_665
Na18 O85 2.741562 1_565
Na19 O74 2.496766 1_565
Na19 O73 2.568207 1_555
Na19 O77 2.616467 1_565
Na19 O88 2.684660 1_555
Na19 O84 2.782029 1_565
Na19 O87 2.795338 1_565
Na20 O83 2.509377 1_555
Na20 O78 2.592782 1_665
Na20 O80 2.678275 1_655
Na20 O94 2.703168 1_666
Na20 O93 2.707471 1_566
Na20 O91 2.723469 1_556
Na21 O79 2.466039 1_555
Na21 O82 2.522437 1_545
Na21 O92 2.672999 1_556
Na21 O81 2.750653 1_545
Na21 O95 2.827872 1_556
Na21 O90 2.832347 1_546
Na22 O110 2.474862 1_555
Na22 O98 2.529902 1_555
Na22 O100 2.595267 1_555
Na22 O112 2.697683 1_555
Na22 O96 2.698139 1_555
Na22 O108 2.729907 1_555
Na23 O109 2.529625 1_555
Na23 O97 2.538242 1_555
Na23 O99 2.585927 1_555
Na23 O111 2.642886 1_555
Na23 O101 2.697341 1_555
Na23 O113 2.701948 1_555
Na24 O102 2.470771 1_555
Na24 O114 2.556067 1_555
Na24 O106 2.597009 1_555
Na24 O116 2.602010 1_555
Na24 O118 2.687401 1_555
Na24 O104 2.791478 1_555
Na25 O119 2.519264 1_555
Na25 O107 2.526390 1_555
Na25 O117 2.585389 1_555
Na25 O105 2.594314 1_555
Na25 O103 2.662240 1_555
Na25 O115 2.786687 1_555
Na26 O120 2.443595 1_555
Na26 O124 2.563361 1_555
Na26 O122 2.663912 1_555
Na26 O134 2.674123 1_555
Na26 O132 2.729599 1_555
Na26 O136 2.733449 1_555
Na27 O121 2.416078 1_555
Na27 O125 2.506077 1_555
Na27 O135 2.567406 1_555
Na27 O133 2.591742 1_555
Na27 O137 2.690516 1_555
Na27 O123 2.765209 1_555
Na28 O126 2.408673 1_555
Na28 O128 2.482579 1_555
Na28 O142 2.583127 1_555
Na28 O138 2.603061 1_555
Na28 O140 2.755035 1_555
Na28 O130 2.789464 1_555
Na29 O127 2.439124 1_555
Na29 O129 2.498515 1_555
Na29 O131 2.610781 1_555
Na29 O143 2.669542 1_555
Na29 O141 2.747423 1_555
Na29 O139 2.749674 1_555
Nb0 O14 1.923434 1_655
Nb0 O13 1.947177 1_545
Nb0 O89 1.994856 1_545
Nb0 O86 2.000171 1_655
Nb0 O85 2.117266 1_555
Nb0 O16 2.141898 1_645
Nb1 O17 1.881200 1_555
Nb1 O87 1.912316 1_565
Nb1 O88 1.936516 1_555
Nb1 O15 2.022635 1_565
Nb1 O84 2.245933 1_565
Nb1 O12 2.271890 1_555
Nb2 O20 1.881037 1_555
Nb2 O94 1.909696 1_555
Nb2 O93 1.946124 1_455
Nb2 O22 2.027486 1_545
Nb2 O19 2.234420 1_445
Nb2 O91 2.238361 1_445
Nb3 O18 1.934987 1_555
Nb3 O23 1.941377 1_555
Nb3 O92 1.998456 1_565
Nb3 O95 2.010269 1_565
Nb3 O90 2.095306 1_555
Nb3 O21 2.131773 1_565
Nb4 O60 1.911170 1_555
Nb4 O132 1.936982 1_555
Nb4 O62 1.961763 1_555
Nb4 O136 2.057408 1_555
Nb4 O134 2.104486 1_555
Nb4 O64 2.269369 1_555
Nb5 O67 1.895951 1_555
Nb5 O139 1.930365 1_555
Nb5 O71 1.980795 1_555
Nb5 O141 2.043697 1_555
Nb5 O143 2.130337 1_555
Nb5 O69 2.279810 1_555
In0 O5 2.037845 1_455
In0 O0 2.043805 1_555
In0 O72 2.141798 1_545
In0 O3 2.201463 1_445
In0 O76 2.275481 1_555
In0 O75 2.302730 1_445
In1 O2 2.025539 1_555
In1 O1 2.058445 1_565
In1 O74 2.105743 1_565
In1 O77 2.164190 1_565
In1 O4 2.255983 1_565
In1 O73 2.287482 1_555
In2 O6 1.993073 1_555
In2 O11 2.071539 1_455
In2 O83 2.085560 1_445
In2 O9 2.212291 1_445
In2 O80 2.296185 1_545
In2 O78 2.319782 1_555
In3 O8 2.048140 1_545
In3 O7 2.071250 1_555
In3 O79 2.113914 1_555
In3 O10 2.153536 1_555
In3 O82 2.269392 1_545
In3 O81 2.323850 1_545
In4 O26 2.036090 1_555
In4 O28 2.081044 1_555
In4 O98 2.127101 1_555
In4 O100 2.140575 1_555
In4 O24 2.261142 1_555
In4 O96 2.268431 1_555
In5 O27 2.054995 1_555
In5 O29 2.066331 1_555
In5 O97 2.103129 1_555
In5 O99 2.164463 1_555
In5 O25 2.234739 1_555
In5 O101 2.356971 1_555
In6 O34 2.053136 1_555
In6 O32 2.080132 1_555
In6 O102 2.118779 1_555
In6 O106 2.163419 1_555
In6 O30 2.229199 1_555
In6 O104 2.327674 1_555
In7 O35 2.028827 1_555
In7 O33 2.081207 1_555
In7 O105 2.129505 1_555
In7 O107 2.135105 1_555
In7 O103 2.282695 1_555
In7 O31 2.303089 1_555
In8 O40 2.084797 1_556
In8 O36 2.109880 1_556
In8 O110 2.119632 1_555
In8 O112 2.262118 1_555
In8 O38 2.311501 1_556
In8 O108 2.321525 1_555
In9 O37 2.109665 1_556
In9 O41 2.119609 1_556
In9 O39 2.194567 1_556
In9 O109 2.195158 1_555
In9 O111 2.352058 1_555
In9 O113 2.404450 1_555
In10 O44 2.061719 1_555
In10 O42 2.111772 1_555
In10 O114 2.228440 1_555
In10 O46 2.279107 1_555
In10 O116 2.340150 1_555
In10 O118 2.345030 1_555
In11 O45 2.104887 1_555
In11 O43 2.125551 1_555
In11 O117 2.138734 1_555
In11 O119 2.165266 1_555
In11 O47 2.285687 1_555
In11 O115 2.328419 1_555
In12 O120 2.037858 1_555
In12 O124 2.098685 1_555
In12 O48 2.132340 1_554
In12 O50 2.181090 1_554
In12 O52 2.205602 1_554
In12 O122 2.305419 1_555
In13 O49 2.031324 1_554
In13 O51 2.098937 1_554
In13 O125 2.106419 1_555
In13 O121 2.115098 1_555
In13 O53 2.334821 1_554
In13 O123 2.474754 1_555
In14 O54 2.005506 1_555
In14 O128 2.098887 1_555
In14 O58 2.115129 1_555
In14 O126 2.128060 1_555
In14 O56 2.324880 1_555
In14 O130 2.464460 1_555
In15 O127 2.049511 1_555
In15 O57 2.057405 1_555
In15 O129 2.118951 1_555
In15 O55 2.199264 1_555
In15 O59 2.210969 1_555
In15 O131 2.302770 1_555
In16 O65 2.013291 1_555
In16 O133 2.072982 1_555
In16 O61 2.198033 1_555
In16 O137 2.259112 1_555
In16 O63 2.273248 1_555
In16 O135 2.332062 1_555
In17 O138 2.069774 1_555
In17 O68 2.147057 1_555
In17 O66 2.157399 1_555
In17 O70 2.193208 1_555
In17 O140 2.259242 1_555
In17 O142 2.304314 1_555
O0 Si0 1.611012 1_555
O1 Si1 1.609290 1_545
O2 Si2 1.583295 1_555
O3 S0 1.491822 1_555
O4 S1 1.475177 1_555
O5 Si3 1.610467 1_555
O6 Si4 1.598953 1_555
O7 Si5 1.607916 1_555
O8 Si6 1.607026 1_555
O9 S2 1.472627 1_655
O10 S3 1.482665 1_555
O11 Si7 1.601139 1_555
O12 S3 1.495675 1_565
O13 Si7 1.692807 1_565
O14 Si4 1.711473 1_555
O15 Si5 1.654261 1_555
O16 S2 1.512363 1_555
O17 Si6 1.723974 1_555
O18 Si2 1.693568 1_555
O19 S0 1.496661 1_555
O20 Si3 1.721993 1_455
O21 S1 1.508163 1_555
O22 Si0 1.654239 1_565
O23 Si1 1.711435 1_555
O24 S4 1.446410 1_555
O25 S5 1.478138 1_555
O26 Si8 1.589441 1_555
O27 Si9 1.615876 1_555
O28 Si10 1.619883 1_555
O29 Si11 1.627426 1_555
O30 S6 1.482326 1_555
O31 S7 1.454829 1_555
O32 Si12 1.632238 1_555
O33 Si13 1.618165 1_555
O34 Si14 1.617727 1_555
O35 Si15 1.593114 1_555
O36 Si14 1.622384 1_555
O37 Si15 1.655532 1_555
O38 S6 1.456855 1_555
O39 S7 1.488661 1_555
O40 Si12 1.624781 1_555
O41 Si13 1.647293 1_555
O42 Si8 1.656273 1_555
O43 Si9 1.632008 1_555
O44 Si10 1.630004 1_555
O45 Si11 1.642196 1_555
O46 S4 1.499660 1_555
O47 S5 1.469684 1_555
O48 S8 1.483355 1_555
O49 Si16 1.616061 1_555
O50 S9 1.475465 1_555
O51 Si17 1.631742 1_555
O52 S10 1.498225 1_555
O53 S11 1.474805 1_555
O54 Si18 1.593062 1_555
O55 S12 1.482771 1_555
O56 S13 1.474129 1_555
O57 Si19 1.645188 1_555
O58 Si20 1.622472 1_555
O59 S14 1.476826 1_555
O60 Si20 1.701995 1_555
O61 S14 1.492028 1_555
O62 Si18 1.711637 1_555
O63 S12 1.494487 1_555
O64 S13 1.492523 1_555
O65 Si19 1.641780 1_555
O66 S9 1.486170 1_555
O67 Si17 1.724730 1_555
O68 S10 1.495920 1_555
O69 S11 1.494855 1_555
O70 S8 1.501151 1_555
O71 Si16 1.718326 1_555
O72 Si20 1.669421 1_555
O73 S14 1.480769 1_555
O74 Si18 1.616207 1_545
O75 S12 1.495232 1_555
O76 S13 1.502361 1_555
O77 Si19 1.642820 1_555
O78 S9 1.490293 1_555
O79 Si17 1.653686 1_555
O80 S10 1.478124 1_555
O81 S11 1.485750 1_555
O82 S8 1.491781 1_555
O83 Si16 1.634655 1_555
O84 S4 1.513054 1_555
O85 S5 1.525152 1_555
O86 Si8 1.717018 1_555
O87 Si9 1.728519 1_555
O88 Si10 1.695190 1_555
O89 Si11 1.675673 1_555
O90 S6 1.527237 1_555
O91 S7 1.511937 1_555
O92 Si12 1.681090 1_555
O93 Si13 1.696896 1_555
O94 Si14 1.734480 1_555
O95 Si15 1.709959 1_555
O96 S3 1.455736 1_555
O97 Si7 1.620389 1_555
O98 Si4 1.618352 1_555
O99 Si5 1.632530 1_555
O100 Si6 1.600256 1_555
O101 S2 1.481464 1_655
O102 Si2 1.619174 1_555
O103 S0 1.456445 1_555
O104 S1 1.477708 1_555
O105 Si3 1.601818 1_555
O106 Si0 1.626455 1_555
O107 Si1 1.624798 1_545
O108 S8 1.470232 1_555
O109 Si16 1.651731 1_555
O110 Si17 1.623684 1_555
O111 S9 1.497465 1_655
O112 S10 1.481606 1_545
O113 S11 1.509830 1_545
O114 Si18 1.675731 1_545
O115 S12 1.475075 1_545
O116 S13 1.497368 1_555
O117 Si19 1.651119 1_555
O118 S14 1.492505 1_555
O119 Si20 1.624976 1_655
O120 Si14 1.614515 1_555
O121 Si15 1.630992 1_555
O122 S7 1.495420 1_455
O123 S6 1.479757 1_555
O124 Si12 1.638270 1_565
O125 Si13 1.644263 1_565
O126 Si8 1.629739 1_565
O127 Si9 1.609876 1_565
O128 Si10 1.645830 1_555
O129 Si11 1.625721 1_555
O130 S5 1.473773 1_455
O131 S4 1.492708 1_555
O132 Si0 1.681810 1_565
O133 Si1 1.669632 1_555
O134 Si2 1.681225 1_555
O135 S0 1.504352 1_555
O136 Si3 1.652704 1_455
O137 S1 1.478394 1_555
O138 Si4 1.666824 1_555
O139 Si5 1.684023 1_555
O140 S2 1.478358 1_555
O141 Si6 1.659639 1_555
O142 S3 1.515068 1_565
O143 Si7 1.675008 1_565
