# generated using pymatgen
data_Cu3Au
_symmetry_space_group_name_H-M   'P 1'
_cell_length_a   3.73538756
_cell_length_b   3.73538756
_cell_length_c   3.73538756
_cell_angle_alpha   90.00000000
_cell_angle_beta   90.00000000
_cell_angle_gamma   90.00000000
_symmetry_Int_Tables_number   1
_chemical_formula_structural   Cu3Au
_chemical_formula_sum   'Cu3 Au1'
_cell_volume   52.12031171
_cell_formula_units_Z   1
loop_
 _symmetry_equiv_pos_site_id
 _symmetry_equiv_pos_as_xyz
  1  'x, y, z'
loop_
 _atom_site_type_symbol
 _atom_site_label
 _atom_site_symmetry_multiplicity
 _atom_site_fract_x
 _atom_site_fract_y
 _atom_site_fract_z
 _atom_site_occupancy
  Cu  Cu0  1  0.00000000  0.50000000  0.50000000  1
  Cu  Cu1  1  0.50000000  0.50000000  0.00000000  1
  Cu  Cu2  1  0.50000000  0.00000000  0.50000000  1
  Au  Au0  1  -0.00000000  -0.00000000  -0.00000000  1
loop_
_geom_bond_atom_site_label_1
_geom_bond_atom_site_label_2
_geom_bond_distance
_geom_bond_site_symmetry_2
Cu0 Cu1 2.641318 1_555
Cu0 Cu1 2.641318 1_556
Cu0 Cu2 2.641318 1_555
Cu0 Cu2 2.641318 1_565
Cu0 Cu1 2.641318 1_456
Cu0 Cu2 2.641318 1_465
Cu0 Cu2 2.641318 1_455
Cu0 Cu1 2.641318 1_455
Cu1 Cu2 2.641318 1_555
Cu1 Cu2 2.641318 1_565
Cu1 Cu2 2.641318 1_564
Cu1 Cu2 2.641318 1_554
Au0 Cu1 2.641318 1_555
Au0 Cu0 2.641318 1_554
Au0 Cu2 2.641318 1_555
Au0 Cu1 2.641318 1_445
Au0 Cu2 2.641318 1_455
Au0 Cu0 2.641318 1_544
Au0 Cu0 2.641318 1_555
Au0 Cu0 2.641318 1_545
Au0 Cu2 2.641318 1_454
Au0 Cu1 2.641318 1_545
Au0 Cu1 2.641318 1_455
Au0 Cu2 2.641318 1_554
