# generated using pymatgen
data_MnAsRh
_symmetry_space_group_name_H-M   'P 1'
_cell_length_a   6.97249629
_cell_length_b   6.97249629
_cell_length_c   3.05004300
_cell_angle_alpha   90.00000000
_cell_angle_beta   90.00000000
_cell_angle_gamma   120.00000276
_symmetry_Int_Tables_number   1
_chemical_formula_structural   MnAsRh
_chemical_formula_sum   'Mn3 As3 Rh3'
_cell_volume   128.41423403
_cell_formula_units_Z   3
loop_
 _symmetry_equiv_pos_site_id
 _symmetry_equiv_pos_as_xyz
  1  'x, y, z'
loop_
 _atom_site_type_symbol
 _atom_site_label
 _atom_site_symmetry_multiplicity
 _atom_site_fract_x
 _atom_site_fract_y
 _atom_site_fract_z
 _atom_site_occupancy
  Mn  Mn0  1  0.29714000  0.29714000  0.00000000  1
  Mn  Mn1  1  0.00000000  0.70286000  0.00000000  1
  Mn  Mn2  1  0.70286000  0.00000000  0.00000000  1
  As  As0  1  0.00000000  0.00000000  0.50000000  1
  As  As1  1  0.33333300  0.66666700  0.00000000  1
  As  As2  1  0.66666700  0.33333300  0.00000000  1
  Rh  Rh0  1  0.36343300  0.00000000  0.50000000  1
  Rh  Rh1  1  0.63656700  0.63656700  0.50000000  1
  Rh  Rh2  1  0.00000000  0.36343300  0.50000000  1
loop_
_geom_bond_atom_site_label_1
_geom_bond_atom_site_label_2
_geom_bond_distance
_geom_bond_site_symmetry_2
Mn0 Rh0 2.790946 1_554
Mn0 Rh0 2.790946 1_555
Mn0 Rh2 2.790946 1_554
Mn0 Rh2 2.790946 1_555
Mn0 Rh1 2.815446 1_555
Mn0 Rh1 2.815446 1_554
Mn1 Rh0 2.790946 1_564
Mn1 Rh0 2.790946 1_565
Mn1 Rh1 2.790946 1_455
Mn1 Rh1 2.790946 1_454
Mn1 Rh2 2.815447 1_554
Mn1 Rh2 2.815447 1_555
Mn2 Rh2 2.790946 1_654
Mn2 Rh2 2.790946 1_655
Mn2 Rh1 2.790946 1_544
Mn2 Rh1 2.790946 1_545
Mn2 Rh0 2.815447 1_554
Mn2 Rh0 2.815447 1_555
As0 Rh1 2.534035 1_445
As0 Rh0 2.534035 1_555
As0 Rh2 2.534035 1_555
As0 Mn0 2.572562 1_555
As0 Mn0 2.572562 1_556
As0 Mn1 2.572562 1_546
As0 Mn2 2.572562 1_455
As0 Mn1 2.572562 1_545
As0 Mn2 2.572562 1_456
As1 Mn1 2.460068 1_555
As1 Mn2 2.460072 1_565
As1 Mn0 2.460075 1_555
As1 Rh0 2.698832 1_564
As1 Rh0 2.698832 1_565
As1 Rh2 2.698834 1_554
As1 Rh2 2.698834 1_555
As1 Rh1 2.698838 1_555
As1 Rh1 2.698838 1_554
As2 Mn2 2.460068 1_555
As2 Mn1 2.460072 1_655
As2 Mn0 2.460075 1_555
As2 Rh2 2.698832 1_654
As2 Rh2 2.698832 1_655
As2 Rh0 2.698834 1_554
As2 Rh0 2.698834 1_555
As2 Rh1 2.698838 1_555
As2 Rh1 2.698838 1_554
