# generated using pymatgen
data_Na3Mg2Ta10Si3(P5O24)3
_symmetry_space_group_name_H-M   'P 1'
_cell_length_a   8.76507023
_cell_length_b   8.76704708
_cell_length_c   22.66326736
_cell_angle_alpha   89.91111027
_cell_angle_beta   89.99849718
_cell_angle_gamma   120.01237072
_symmetry_Int_Tables_number   1
_chemical_formula_structural   Na3Mg2Ta10Si3(P5O24)3
_chemical_formula_sum   'Na3 Mg2 Ta10 Si3 P15 O72'
_cell_volume   1508.01976453
_cell_formula_units_Z   1
loop_
 _symmetry_equiv_pos_site_id
 _symmetry_equiv_pos_as_xyz
  1  'x, y, z'
loop_
 _atom_site_type_symbol
 _atom_site_label
 _atom_site_symmetry_multiplicity
 _atom_site_fract_x
 _atom_site_fract_y
 _atom_site_fract_z
 _atom_site_occupancy
  Na  Na0  1  0.00041048  0.00051718  0.00145631  1
  Na  Na1  1  0.66720998  0.33411055  0.83785113  1
  Na  Na2  1  0.66737236  0.33384578  0.33857357  1
  Mg  Mg0  1  0.66670923  0.33336110  0.98033464  1
  Mg  Mg1  1  0.66675107  0.33337919  0.47899815  1
  Ta  Ta0  1  0.99434936  0.99812500  0.35840578  1
  Ta  Ta1  1  0.99840724  0.99567588  0.85549325  1
  Ta  Ta2  1  0.00159194  0.99670279  0.64174838  1
  Ta  Ta3  1  0.99773383  0.00134678  0.14729723  1
  Ta  Ta4  1  0.66932078  0.33582386  0.68489895  1
  Ta  Ta5  1  0.66864294  0.33549221  0.18810375  1
  Ta  Ta6  1  0.33351138  0.66602911  0.02497769  1
  Ta  Ta7  1  0.33242449  0.66672327  0.52144087  1
  Ta  Ta8  1  0.33295240  0.66437343  0.31033438  1
  Ta  Ta9  1  0.33137355  0.66627940  0.81069662  1
  Si  Si0  1  0.71274238  0.71280677  0.25106187  1
  Si  Si1  1  0.99951114  0.28680106  0.25096580  1
  Si  Si2  1  0.99770021  0.71036549  0.74920415  1
  P  P0  1  0.28557666  0.00004047  0.25087162  1
  P  P1  1  0.28677958  0.28538126  0.74957157  1
  P  P2  1  0.71422208  0.00092348  0.74956000  1
  P  P3  1  0.95312713  0.33337242  0.58049162  1
  P  P4  1  0.38310855  0.04806868  0.58074604  1
  P  P5  1  0.66496723  0.61850127  0.58038984  1
  P  P6  1  0.95053462  0.62035900  0.08103495  1
  P  P7  1  0.66917748  0.05014069  0.08123505  1
  P  P8  1  0.38041302  0.32962427  0.08113734  1
  P  P9  1  0.61855259  0.66074207  0.91712124  1
  P  P10  1  0.04189954  0.38012087  0.91724373  1
  P  P11  1  0.33953097  0.95817753  0.91717566  1
  P  P12  1  0.61864560  0.95873597  0.41675064  1
  P  P13  1  0.33849536  0.37926923  0.41686383  1
  P  P14  1  0.04136894  0.66188920  0.41655799  1
  O  O0  1  0.20324320  0.03414034  0.30524332  1
  O  O1  1  0.83900594  0.80276407  0.30772408  1
  O  O2  1  0.96747688  0.16195769  0.30768692  1
  O  O3  1  0.19985342  0.17013856  0.80510790  1
  O  O4  1  0.96804631  0.80474289  0.80717182  1
  O  O5  1  0.83046931  0.03256984  0.80511864  1
  O  O6  1  0.79973627  0.97152172  0.69525091  1
  O  O7  1  0.17083084  0.20223773  0.69519681  1
  O  O8  1  0.02938864  0.83657393  0.69305744  1
  O  O9  1  0.80447355  0.83282383  0.19259603  1
  O  O10  1  0.03209998  0.19797692  0.19254618  1
  O  O11  1  0.17276165  0.97041580  0.19488670  1
  O  O12  1  0.86772404  0.36309637  0.63849347  1
  O  O13  1  0.49397647  0.13115836  0.63882385  1
  O  O14  1  0.63668731  0.50499881  0.63850663  1
  O  O15  1  0.86954747  0.50624388  0.13805500  1
  O  O16  1  0.63651626  0.12901888  0.13813550  1
  O  O17  1  0.49236346  0.36253830  0.13812320  1
  O  O18  1  0.45672129  0.29883631  0.02714857  1
  O  O19  1  0.84206872  0.54398826  0.02736485  1
  O  O20  1  0.70212563  0.15789534  0.02722707  1
  O  O21  1  0.45856992  0.16070269  0.52835725  1
  O  O22  1  0.70306543  0.54246446  0.52849487  1
  O  O23  1  0.83957997  0.29756495  0.52851529  1
  O  O24  1  0.53328249  0.69862107  0.97144845  1
  O  O25  1  0.16544061  0.46701304  0.97139021  1
  O  O26  1  0.30065444  0.83461200  0.97140678  1
  O  O27  1  0.53138134  0.83487691  0.47165182  1
  O  O28  1  0.30342645  0.46850736  0.47150748  1
  O  O29  1  0.16504941  0.69590945  0.47152370  1
  O  O30  1  0.13807683  0.64290070  0.36214916  1
  O  O31  1  0.50445034  0.86315485  0.36219921  1
  O  O32  1  0.35829204  0.49673345  0.36226037  1
  O  O33  1  0.13949185  0.49457890  0.86162178  1
  O  O34  1  0.35632138  0.86134439  0.86169563  1
  O  O35  1  0.50696624  0.64467733  0.86156965  1
  O  O36  1  0.03499564  0.83451010  0.40767255  1
  O  O37  1  0.79985147  0.96685280  0.40842065  1
  O  O38  1  0.16820146  0.19909563  0.40725723  1
  O  O39  1  0.03153323  0.19693728  0.90805757  1
  O  O40  1  0.16617413  0.97031521  0.90826581  1
  O  O41  1  0.80312458  0.83640873  0.90872394  1
  O  O42  1  0.97910971  0.17484057  0.59644025  1
  O  O43  1  0.19640769  0.02334861  0.59496689  1
  O  O44  1  0.82435885  0.80529866  0.59545282  1
  O  O45  1  0.98295281  0.80964480  0.09233040  1
  O  O46  1  0.82898879  0.01950168  0.09170438  1
  O  O47  1  0.19151575  0.17044650  0.09180137  1
  O  O48  1  0.69022383  0.16322240  0.74195255  1
  O  O49  1  0.47142022  0.30556934  0.74194436  1
  O  O50  1  0.82478835  0.51512869  0.74158259  1
  O  O51  1  0.68844447  0.51740469  0.24051879  1
  O  O52  1  0.82535124  0.30576398  0.24048730  1
  O  O53  1  0.47051805  0.16348499  0.24063671  1
  O  O54  1  0.64283876  0.50466712  0.92176050  1
  O  O55  1  0.86268746  0.35913597  0.92151391  1
  O  O56  1  0.49641905  0.13804343  0.92144890  1
  O  O57  1  0.64138457  0.13838243  0.42260537  1
  O  O58  1  0.49792330  0.36048938  0.42244079  1
  O  O59  1  0.86262187  0.50336294  0.42262137  1
  O  O60  1  0.35687082  0.49597055  0.07367772  1
  O  O61  1  0.13946776  0.64231297  0.07380891  1
  O  O62  1  0.50379203  0.86021001  0.07368709  1
  O  O63  1  0.35588669  0.85918657  0.57474700  1
  O  O64  1  0.50218908  0.64340696  0.57482545  1
  O  O65  1  0.14060725  0.49727652  0.57479057  1
  O  O66  1  0.30773831  0.83916924  0.25980485  1
  O  O67  1  0.52170641  0.69325246  0.26055086  1
  O  O68  1  0.16776191  0.48022172  0.26049384  1
  O  O69  1  0.30961686  0.46931762  0.76051101  1
  O  O70  1  0.16965946  0.69041059  0.76079579  1
  O  O71  1  0.53192270  0.83767023  0.76051570  1
loop_
_geom_bond_atom_site_label_1
_geom_bond_atom_site_label_2
_geom_bond_distance
_geom_bond_site_symmetry_2
Na0 O46 2.592231 1_455
Na0 O47 2.594380 1_555
Na0 O45 2.607361 1_445
Na0 O41 2.645323 1_444
Na0 O40 2.651055 1_544
Na0 O39 2.653115 1_554
Na1 O56 2.490135 1_555
Na1 O55 2.490840 1_555
Na1 O54 2.495222 1_555
Na1 O50 2.642470 1_555
Na1 O49 2.702652 1_555
Na1 O48 2.705774 1_555
Na2 O57 2.492925 1_555
Na2 O58 2.494283 1_555
Na2 O59 2.496070 1_555
Na2 O51 2.693281 1_555
Na2 O52 2.694827 1_555
Na2 O53 2.750788 1_555
Mg0 O18 2.011590 1_556
Mg0 O20 2.016147 1_556
Mg0 O19 2.018728 1_556
Mg0 O54 2.090383 1_555
Mg0 O55 2.095110 1_555
Mg0 O56 2.095570 1_555
Mg1 O21 2.025826 1_555
Mg1 O23 2.031643 1_555
Mg1 O22 2.035310 1_555
Mg1 O57 2.057166 1_555
Mg1 O59 2.057991 1_555
Mg1 O58 2.059175 1_555
O0 P0 1.531503 1_555
O0 Ta0 2.079455 1_445
O1 Si0 1.620465 1_555
O1 Ta0 1.944218 1_555
O2 Si1 1.617851 1_555
O2 Ta0 1.942446 1_545
O3 P1 1.552863 1_555
O3 Ta1 2.013413 1_445
O4 Si2 1.642122 1_555
O4 Ta1 1.905831 1_555
O5 P2 1.555298 1_555
O5 Ta1 2.012456 1_545
O6 P2 1.528851 1_565
O6 Ta2 2.063410 1_655
O7 P1 1.531193 1_555
O7 Ta2 2.060970 1_545
O8 Si2 1.615172 1_455
O8 Ta2 1.928591 1_555
O9 Si0 1.630516 1_555
O9 Ta3 1.896784 1_565
O10 Si1 1.632981 1_455
O10 Ta3 1.897397 1_455
O11 P0 1.548958 1_565
O11 Ta3 2.001419 1_465
O12 P3 1.597608 1_555
O12 Ta4 1.941802 1_555
O13 P4 1.581876 1_555
O13 Ta4 1.979695 1_555
O14 P5 1.592354 1_555
O14 Ta4 1.951054 1_555
O15 P6 1.568514 1_555
O15 Ta5 1.996494 1_555
O16 P7 1.556887 1_555
O16 Ta5 2.033437 1_555
O17 P8 1.559496 1_555
O17 Ta5 2.022964 1_555
O18 P8 1.482869 1_555
O19 P6 1.482373 1_555
O20 P7 1.482391 1_555
O21 P4 1.471462 1_555
O22 P5 1.471131 1_555
O23 P3 1.471496 1_555
O24 P9 1.560235 1_555
O24 Ta6 2.029212 1_556
O25 P10 1.560930 1_555
O25 Ta6 2.030949 1_556
O26 P11 1.557821 1_555
O26 Ta6 2.040006 1_556
O27 P12 1.573908 1_555
O27 Ta7 1.977516 1_555
O28 P13 1.575996 1_555
O28 Ta7 1.982257 1_555
O29 P14 1.579148 1_555
O29 Ta7 1.967802 1_555
O30 P14 1.551922 1_555
O30 Ta8 2.002382 1_555
O31 P12 1.548140 1_555
O31 Ta8 2.015967 1_555
O32 P13 1.561823 1_555
O32 Ta8 1.978751 1_555
O33 P10 1.570041 1_555
O33 Ta9 1.971917 1_555
O34 P11 1.565758 1_555
O34 Ta9 1.985030 1_555
O35 P9 1.557012 1_555
O35 Ta9 2.006225 1_555
O36 P14 1.554865 1_555
O36 Ta0 1.984298 1_455
O37 P12 1.565318 1_555
O37 Ta0 1.948758 1_555
O38 P13 1.553358 1_555
O38 Ta0 1.993095 1_445
O39 P10 1.576651 1_555
O39 Ta1 2.027518 1_445
O40 P11 1.588280 1_555
O40 Ta1 1.992114 1_455
O41 P9 1.591200 1_555
O41 Ta1 1.984587 1_555
O42 P3 1.558621 1_555
O42 Ta2 1.958355 1_645
O43 P4 1.572821 1_555
O43 Ta2 1.922118 1_545
O44 P5 1.569479 1_555
O44 Ta2 1.930730 1_655
O45 P6 1.558764 1_555
O45 Ta3 2.044975 1_565
O46 P7 1.570603 1_555
O46 Ta3 2.008812 1_555
O47 P8 1.560362 1_555
O47 Ta3 2.034632 1_455
O48 P2 1.548294 1_555
O48 Ta4 2.065563 1_555
O49 P1 1.547169 1_555
O49 Ta4 2.071041 1_555
O50 Si2 1.631683 1_555
O50 Ta4 1.960039 1_555
O51 Si0 1.635069 1_555
O51 Ta5 1.927097 1_555
O52 Si1 1.633427 1_555
O52 Ta5 1.929052 1_555
O53 P0 1.552441 1_555
O53 Ta5 2.020346 1_555
O54 P9 1.489831 1_555
O55 P10 1.490464 1_655
O56 P11 1.489361 1_545
O57 P12 1.491471 1_545
O58 P13 1.491947 1_555
O59 P14 1.492052 1_655
O60 P8 1.580593 1_555
O60 Ta6 1.945039 1_555
O61 P6 1.577110 1_455
O61 Ta6 1.950929 1_555
O62 P7 1.577816 1_565
O62 Ta6 1.951538 1_555
O63 P4 1.556596 1_565
O63 Ta7 2.002020 1_555
O64 P5 1.552676 1_555
O64 Ta7 2.005821 1_555
O65 P3 1.555348 1_455
O65 Ta7 1.997802 1_555
O66 P0 1.530043 1_565
O66 Ta8 2.010471 1_555
O67 Si0 1.610001 1_555
O67 Ta8 1.911603 1_555
O68 Si1 1.611343 1_455
O68 Ta8 1.909474 1_555
O69 P1 1.542814 1_555
O69 Ta9 1.997101 1_555
O70 Si2 1.623280 1_455
O70 Ta9 1.905827 1_555
O71 P2 1.540901 1_565
O71 Ta9 1.998353 1_555
