# generated using pymatgen
data_Na6Y4Si3(SO8)3
_symmetry_space_group_name_H-M   'P 1'
_cell_length_a   9.45324918
_cell_length_b   9.45461140
_cell_length_c   23.50228275
_cell_angle_alpha   90.04086542
_cell_angle_beta   89.97736883
_cell_angle_gamma   119.85173183
_symmetry_Int_Tables_number   1
_chemical_formula_structural   Na6Y4Si3(SO8)3
_chemical_formula_sum   'Na18 Y12 Si9 S9 O72'
_cell_volume   1821.84857295
_cell_formula_units_Z   3
loop_
 _symmetry_equiv_pos_site_id
 _symmetry_equiv_pos_as_xyz
  1  'x, y, z'
loop_
 _atom_site_type_symbol
 _atom_site_label
 _atom_site_symmetry_multiplicity
 _atom_site_fract_x
 _atom_site_fract_y
 _atom_site_fract_z
 _atom_site_occupancy
  Na  Na0  1  0.63570657  0.01521132  0.26067514  1
  Na  Na1  1  0.34045765  0.33908092  0.25496041  1
  Na  Na2  1  0.65739602  0.65856277  0.73369223  1
  Na  Na3  1  0.97984769  0.36310613  0.74447382  1
  Na  Na4  1  0.00892610  0.67581206  0.59397315  1
  Na  Na5  1  0.68460031  0.97233448  0.58282326  1
  Na  Na6  1  0.32190666  0.97213198  0.10060942  1
  Na  Na7  1  0.01491902  0.31772039  0.08133371  1
  Na  Na8  1  0.97190495  0.64750554  0.89478979  1
  Na  Na9  1  0.71489178  0.04855687  0.90657105  1
  Na  Na10  1  0.94902710  0.28622064  0.42437115  1
  Na  Na11  1  0.35131895  0.02886199  0.41078481  1
  Na  Na12  1  0.96107062  0.99251915  0.50799692  1
  Na  Na13  1  0.98341198  0.02228320  0.99814934  1
  Na  Na14  1  0.67303210  0.32438313  0.81932300  1
  Na  Na15  1  0.67525684  0.31978708  0.33339685  1
  Na  Na16  1  0.32591753  0.67832104  0.17653650  1
  Na  Na17  1  0.33277201  0.66491719  0.66356678  1
  Y  Y0  1  0.99001170  0.99691355  0.34888901  1
  Y  Y1  1  0.00287352  0.00853332  0.84627520  1
  Y  Y2  1  0.99551651  0.99893050  0.65072076  1
  Y  Y3  1  0.99429372  0.00058842  0.15265858  1
  Y  Y4  1  0.67232185  0.33718422  0.68151074  1
  Y  Y5  1  0.67213607  0.32407272  0.18640693  1
  Y  Y6  1  0.67351316  0.32847335  0.98258171  1
  Y  Y7  1  0.67110004  0.33918279  0.48746385  1
  Y  Y8  1  0.33703529  0.65905276  0.01643654  1
  Y  Y9  1  0.35164205  0.66327887  0.51997276  1
  Y  Y10  1  0.33034101  0.67943238  0.31482855  1
  Y  Y11  1  0.32100739  0.66699893  0.81197330  1
  Si  Si0  1  0.30041929  0.00212283  0.24824830  1
  Si  Si1  1  0.00660742  0.30488236  0.24852217  1
  Si  Si2  1  0.99471561  0.69596981  0.75190015  1
  Si  Si3  1  0.69588005  0.99963565  0.75203361  1
  Si  Si4  1  0.97298959  0.33608479  0.58167845  1
  Si  Si5  1  0.67030458  0.63824205  0.58736546  1
  Si  Si6  1  0.66454820  0.02591752  0.08225250  1
  Si  Si7  1  0.03301903  0.36276998  0.92051477  1
  Si  Si8  1  0.63620065  0.97467176  0.41587718  1
  S  S0  1  0.69660501  0.69813866  0.24988581  1
  S  S1  1  0.30205573  0.30056873  0.75083439  1
  S  S2  1  0.36569834  0.03267363  0.58046143  1
  S  S3  1  0.96788066  0.63558786  0.08115780  1
  S  S4  1  0.36822400  0.33165547  0.08441921  1
  S  S5  1  0.63592060  0.66840752  0.91563374  1
  S  S6  1  0.33088100  0.96179413  0.92019914  1
  S  S7  1  0.33226686  0.36460225  0.41280989  1
  S  S8  1  0.03716941  0.66716312  0.41858344  1
  O  O0  1  0.20383982  0.01306937  0.30461271  1
  O  O1  1  0.79533487  0.77306025  0.30116400  1
  O  O2  1  0.97666802  0.18231810  0.30242663  1
  O  O3  1  0.22341293  0.20522268  0.80305648  1
  O  O4  1  0.99090381  0.78772162  0.81180947  1
  O  O5  1  0.80755750  0.02711337  0.81033721  1
  O  O6  1  0.79284811  0.98105502  0.69721684  1
  O  O7  1  0.20121030  0.22064641  0.70060764  1
  O  O8  1  0.01386585  0.80751754  0.69667459  1
  O  O9  1  0.77768858  0.80104700  0.19922675  1
  O  O10  1  0.02444113  0.21764112  0.19002003  1
  O  O11  1  0.19946502  0.98471996  0.18906022  1
  O  O12  1  0.87917341  0.35724553  0.63758844  1
  O  O13  1  0.47232425  0.11985754  0.62920855  1
  O  O14  1  0.65052181  0.53884685  0.64619187  1
  O  O15  1  0.87902453  0.53453963  0.13088871  1
  O  O16  1  0.64140258  0.12110298  0.13733339  1
  O  O17  1  0.46051766  0.35035259  0.13711249  1
  O  O18  1  0.45954414  0.32528870  0.03424378  1
  O  O19  1  0.87406210  0.55984324  0.02848246  1
  O  O20  1  0.68661607  0.14113477  0.02606928  1
  O  O21  1  0.43871053  0.12320447  0.52667386  1
  O  O22  1  0.67733031  0.53275967  0.53332233  1
  O  O23  1  0.85888988  0.30800868  0.52418986  1
  O  O24  1  0.55123496  0.68826562  0.96616509  1
  O  O25  1  0.12698069  0.44764089  0.98088284  1
  O  O26  1  0.31513853  0.86515536  0.97245293  1
  O  O27  1  0.53597065  0.87044958  0.47181223  1
  O  O28  1  0.31080826  0.44958816  0.46198764  1
  O  O29  1  0.13329243  0.68357341  0.47006668  1
  O  O30  1  0.11886935  0.64317493  0.36799286  1
  O  O31  1  0.53074579  0.88401536  0.35767709  1
  O  O32  1  0.34829187  0.45635442  0.35969736  1
  O  O33  1  0.12969037  0.48330073  0.86715683  1
  O  O34  1  0.35943002  0.88295882  0.87060681  1
  O  O35  1  0.54291463  0.65174376  0.86392817  1
  O  O36  1  0.02706063  0.81774482  0.41218618  1
  O  O37  1  0.82340220  0.00194979  0.41552201  1
  O  O38  1  0.18256596  0.19848985  0.41087822  1
  O  O39  1  0.00227784  0.17527457  0.91730144  1
  O  O40  1  0.17900782  0.97022731  0.91515325  1
  O  O41  1  0.80216161  0.81796871  0.91453999  1
  O  O42  1  0.98784953  0.17136952  0.58585861  1
  O  O43  1  0.20029771  0.00992323  0.58642218  1
  O  O44  1  0.84268945  0.81529120  0.58567180  1
  O  O45  1  0.99868530  0.80497021  0.08498005  1
  O  O46  1  0.83522090  0.01834287  0.08477405  1
  O  O47  1  0.20663846  0.17606550  0.08462282  1
  O  O48  1  0.67806197  0.16280221  0.74728388  1
  O  O49  1  0.46756852  0.32301077  0.74717509  1
  O  O50  1  0.82260207  0.51808247  0.75049071  1
  O  O51  1  0.67010999  0.53166581  0.24315830  1
  O  O52  1  0.84189821  0.32232237  0.24656949  1
  O  O53  1  0.47840196  0.17690543  0.24744957  1
  O  O54  1  0.65899228  0.52459069  0.92258394  1
  O  O55  1  0.84771971  0.34963992  0.91907978  1
  O  O56  1  0.47518336  0.12854535  0.92452616  1
  O  O57  1  0.64921770  0.15827491  0.41524863  1
  O  O58  1  0.47527987  0.34040140  0.41832869  1
  O  O59  1  0.87147264  0.52002735  0.42061115  1
  O  O60  1  0.33511666  0.47018324  0.08066724  1
  O  O61  1  0.13127035  0.64352982  0.07991639  1
  O  O62  1  0.49319037  0.84897815  0.07884957  1
  O  O63  1  0.35138502  0.86778760  0.57831341  1
  O  O64  1  0.52101956  0.68072958  0.58340198  1
  O  O65  1  0.14503864  0.51047003  0.57700647  1
  O  O66  1  0.34253963  0.85239815  0.25057850  1
  O  O67  1  0.53366438  0.68639289  0.25439151  1
  O  O68  1  0.17876651  0.47805447  0.25394567  1
  O  O69  1  0.31582225  0.46506293  0.75518334  1
  O  O70  1  0.14390002  0.65214153  0.75233441  1
  O  O71  1  0.52435792  0.82530140  0.75692868  1
loop_
_geom_bond_atom_site_label_1
_geom_bond_atom_site_label_2
_geom_bond_distance
_geom_bond_site_symmetry_2
Na0 O66 2.420632 1_545
Na0 O31 2.549011 1_545
Na0 O52 2.589743 1_555
Na0 O53 2.628528 1_555
Na0 O67 2.762479 1_545
Na0 O2 2.962892 1_555
Na0 O16 3.059198 1_555
Na1 O68 2.462270 1_555
Na1 O53 2.464262 1_555
Na1 O32 2.684890 1_555
Na1 O51 2.730357 1_555
Na1 O67 2.854506 1_555
Na1 O0 2.927691 1_555
Na1 O17 2.974597 1_555
Na1 O10 3.026326 1_555
Na2 O14 2.331937 1_555
Na2 O71 2.517347 1_555
Na2 O50 2.534791 1_555
Na2 O49 2.778295 1_555
Na2 O6 2.790574 1_555
Na2 O69 2.854400 1_555
Na3 O70 2.384844 1_655
Na3 O48 2.520148 1_555
Na3 O50 2.558199 1_555
Na3 O12 2.677385 1_555
Na3 O69 2.834132 1_655
Na4 O65 2.501893 1_555
Na4 O44 2.512027 1_455
Na4 O8 2.704943 1_555
Na4 O43 2.755785 1_565
Na4 O12 2.820024 1_455
Na4 O63 2.839139 1_555
Na5 O64 2.397573 1_555
Na5 O42 2.528597 1_565
Na5 O44 2.579084 1_555
Na5 O63 2.794827 1_555
Na5 O6 2.863543 1_555
Na5 O27 2.891525 1_555
Na6 O11 2.410432 1_555
Na6 O62 2.472740 1_555
Na6 O47 2.671902 1_565
Na6 O45 2.676088 1_455
Na6 O61 2.749767 1_555
Na6 O16 2.759751 1_565
Na7 O46 2.473353 1_455
Na7 O60 2.626142 1_555
Na7 O25 2.628935 1_554
Na7 O61 2.706833 1_555
Na7 O47 2.738802 1_555
Na7 O10 2.741656 1_555
Na8 O4 2.315054 1_555
Na8 O55 2.519040 1_555
Na8 O54 2.665449 1_555
Na8 O33 2.712916 1_655
Na8 O40 2.724646 1_655
Na8 O41 2.821454 1_555
Na9 O39 2.374759 1_655
Na9 O5 2.469494 1_555
Na9 O55 2.491408 1_555
Na9 O41 2.694403 1_545
Na9 O56 2.754935 1_555
Na9 O20 2.992316 1_556
Na9 O34 3.036453 1_545
Na10 O37 2.345009 1_555
Na10 O57 2.475657 1_555
Na10 O23 2.538607 1_555
Na10 O59 2.654346 1_555
Na10 O38 2.735794 1_655
Na11 O57 2.451207 1_555
Na11 O58 2.577555 1_555
Na11 O36 2.700054 1_545
Na11 O38 2.768372 1_555
Na11 O0 2.826200 1_555
Na11 O21 2.856772 1_555
Na11 O31 2.935750 1_545
Na12 O44 2.351307 1_555
Na12 O42 2.416997 1_565
Na12 O37 2.557968 1_565
Na12 O43 2.858501 1_665
Na13 O39 2.341229 1_655
Na13 O46 2.460604 1_556
Na13 O41 2.689019 1_545
Na13 O47 2.764437 1_656
Na13 O40 2.892689 1_645
Na13 O45 2.950989 1_546
Na14 O48 2.295904 1_555
Na14 O50 2.322644 1_555
Na14 O49 2.573979 1_555
Na14 O55 2.808996 1_555
Na15 O57 2.392212 1_555
Na15 O52 2.570274 1_555
Na15 O53 2.620039 1_555
Na15 O59 2.779882 1_555
Na15 O58 2.821234 1_555
Na15 O51 2.935356 1_555
Na16 O66 2.345266 1_555
Na16 O68 2.492154 1_555
Na16 O67 2.657848 1_555
Na16 O62 2.799513 1_555
Na16 O61 2.837282 1_555
Na16 O60 3.020032 1_555
Na17 O64 2.543958 1_555
Na17 O65 2.615192 1_555
Na17 O70 2.708794 1_555
Na17 O63 2.719146 1_555
Na17 O71 2.767397 1_555
Na17 O69 2.817169 1_555
O0 Si0 1.640727 1_555
O0 Y0 2.209819 1_445
O1 S0 1.471993 1_555
O1 Y0 2.290197 1_555
O2 Si1 1.644143 1_655
O2 Y0 2.122271 1_545
O3 S1 1.485048 1_555
O3 Y1 2.231101 1_555
O4 Si2 1.663019 1_555
O4 Y1 2.188579 1_665
O5 Si3 1.669508 1_545
O5 Y1 2.116051 1_655
O6 Si3 1.640108 1_555
O6 Y2 2.137648 1_555
O7 S1 1.468241 1_555
O7 Y2 2.343148 1_445
O8 Si2 1.625224 1_455
O8 Y2 2.187949 1_455
O9 S0 1.486678 1_555
O9 Y3 2.259489 1_565
O10 Si1 1.654038 1_555
O10 Y3 2.116357 1_455
O11 Si0 1.648419 1_565
O11 Y3 2.192579 1_465
O12 Si4 1.651826 1_555
O12 Y4 2.134172 1_555
O13 S2 1.476630 1_555
O13 Y4 2.332021 1_555
O14 Si5 1.629798 1_555
O14 Y4 2.181818 1_555
O15 S3 1.478612 1_555
O15 Y5 2.369509 1_555
O16 Si6 1.651577 1_555
O16 Y5 2.130550 1_555
O17 S4 1.474154 1_555
O17 Y5 2.429593 1_555
O18 S4 1.479962 1_555
O18 Y6 2.346048 1_554
O19 S3 1.483025 1_555
O19 Y6 2.326552 1_554
O20 Si6 1.658107 1_555
O20 Y6 2.101959 1_554
O21 S2 1.489888 1_555
O21 Y7 2.319550 1_555
O22 Si5 1.635947 1_555
O22 Y7 2.098718 1_555
O23 Si4 1.665828 1_555
O23 Y7 2.122679 1_555
O24 S5 1.495024 1_555
O24 Y8 2.239237 1_556
O25 Si7 1.653976 1_555
O25 Y8 2.164294 1_556
O26 S6 1.493735 1_555
O26 Y8 2.305021 1_556
O27 Si8 1.633496 1_555
O27 Y9 2.181260 1_555
O28 S7 1.477626 1_555
O28 Y9 2.303942 1_555
O29 S8 1.474465 1_555
O29 Y9 2.463657 1_555
O30 S8 1.494960 1_555
O30 Y10 2.234171 1_555
O31 Si8 1.657770 1_555
O31 Y10 2.166857 1_555
O32 S7 1.484658 1_555
O32 Y10 2.439014 1_555
O33 Si7 1.634245 1_555
O33 Y11 2.200855 1_555
O34 S6 1.478387 1_555
O34 Y11 2.336230 1_555
O35 S5 1.461920 1_555
O35 Y11 2.493150 1_555
O36 S8 1.481347 1_555
O36 Y0 2.408291 1_455
O37 Si8 1.656480 1_545
O37 Y0 2.237843 1_545
O38 S7 1.502886 1_555
O38 Y0 2.369102 1_445
O39 Si7 1.649118 1_555
O39 Y1 2.297144 1_555
O40 S6 1.481805 1_555
O40 Y1 2.475339 1_565
O41 S5 1.502545 1_555
O41 Y1 2.453318 1_665
O42 Si4 1.634821 1_555
O42 Y2 2.260169 1_545
O43 S2 1.475030 1_555
O43 Y2 2.416514 1_445
O44 Si5 1.656400 1_555
O44 Y2 2.222563 1_555
O45 S3 1.480896 1_555
O45 Y3 2.454496 1_565
O46 Si6 1.651316 1_555
O46 Y3 2.255761 1_555
O47 S4 1.503438 1_555
O47 Y3 2.454506 1_455
O48 Si3 1.636956 1_545
O48 Y4 2.281123 1_555
O49 S1 1.473065 1_555
O49 Y4 2.426072 1_555
O50 Si2 1.659148 1_555
O50 Y4 2.269510 1_555
O51 S0 1.473851 1_555
O51 Y5 2.380181 1_555
O52 Si1 1.645999 1_655
O52 Y5 2.145509 1_555
O53 Si0 1.671557 1_555
O53 Y5 2.193685 1_555
O54 S5 1.489529 1_555
O54 Y6 2.388002 1_555
O55 Si7 1.693664 1_655
O55 Y6 2.156348 1_555
O56 S6 1.488502 1_545
O56 Y6 2.328112 1_555
O57 Si8 1.678119 1_545
O57 Y7 2.343668 1_555
O58 S7 1.484938 1_555
O58 Y7 2.467906 1_555
O59 S8 1.490569 1_655
O59 Y7 2.399442 1_555
O60 S4 1.493106 1_555
O60 Y8 2.332249 1_555
O61 S3 1.508865 1_455
O61 Y8 2.396829 1_555
O62 Si6 1.652626 1_565
O62 Y8 2.216819 1_555
O63 S2 1.497008 1_565
O63 Y9 2.370556 1_555
O64 Si5 1.651096 1_555
O64 Y9 2.133491 1_555
O65 Si4 1.645070 1_455
O65 Y9 2.211375 1_555
O66 Si0 1.651267 1_565
O66 Y10 2.187099 1_555
O67 S0 1.491887 1_555
O67 Y10 2.363955 1_555
O68 Si1 1.640965 1_555
O68 Y10 2.237730 1_555
O69 S1 1.498138 1_555
O69 Y11 2.309158 1_555
O70 Si2 1.656044 1_455
O70 Y11 2.134217 1_555
O71 Si3 1.642750 1_555
O71 Y11 2.178435 1_555
