# generated using pymatgen
data_CCl3F
_symmetry_space_group_name_H-M   'P 1'
_cell_length_a   5.96979399
_cell_length_b   9.72306833
_cell_length_c   15.91834851
_cell_angle_alpha   90.00000000
_cell_angle_beta   90.00000000
_cell_angle_gamma   90.00000000
_symmetry_Int_Tables_number   1
_chemical_formula_structural   CCl3F
_chemical_formula_sum   'C8 Cl24 F8'
_cell_volume   923.97600064
_cell_formula_units_Z   8
loop_
 _symmetry_equiv_pos_site_id
 _symmetry_equiv_pos_as_xyz
  1  'x, y, z'
loop_
 _atom_site_type_symbol
 _atom_site_label
 _atom_site_symmetry_multiplicity
 _atom_site_fract_x
 _atom_site_fract_y
 _atom_site_fract_z
 _atom_site_occupancy
  C  C0  1  0.09897335  0.41185677  0.36111176  1
  C  C1  1  0.59897335  0.08814323  0.63888824  1
  C  C2  1  0.90102665  0.91185677  0.13888824  1
  C  C3  1  0.40102665  0.58814323  0.86111176  1
  C  C4  1  0.90102665  0.58814323  0.63888824  1
  C  C5  1  0.40102665  0.91185677  0.36111176  1
  C  C6  1  0.09897335  0.08814323  0.86111176  1
  C  C7  1  0.59897335  0.41185677  0.13888824  1
  Cl  Cl0  1  0.93947798  0.32101319  0.43616873  1
  Cl  Cl1  1  0.43947798  0.17898681  0.56383127  1
  Cl  Cl2  1  0.06052202  0.82101319  0.06383127  1
  Cl  Cl3  1  0.56052202  0.67898681  0.93616873  1
  Cl  Cl4  1  0.06052202  0.67898681  0.56383127  1
  Cl  Cl5  1  0.56052202  0.82101319  0.43616873  1
  Cl  Cl6  1  0.93947798  0.17898681  0.93616873  1
  Cl  Cl7  1  0.43947798  0.32101319  0.06383127  1
  Cl  Cl8  1  0.37208517  0.44131777  0.39874755  1
  Cl  Cl9  1  0.87208517  0.05868223  0.60125245  1
  Cl  Cl10  1  0.62791483  0.94131777  0.10125245  1
  Cl  Cl11  1  0.12791483  0.55868223  0.89874755  1
  Cl  Cl12  1  0.62791483  0.55868223  0.60125245  1
  Cl  Cl13  1  0.12791483  0.94131777  0.39874755  1
  Cl  Cl14  1  0.37208517  0.05868223  0.89874755  1
  Cl  Cl15  1  0.87208517  0.44131777  0.10125245  1
  Cl  Cl16  1  0.96727078  0.56712337  0.33355253  1
  Cl  Cl17  1  0.46727078  0.93287663  0.66644747  1
  Cl  Cl18  1  0.03272922  0.06712337  0.16644747  1
  Cl  Cl19  1  0.53272922  0.43287663  0.83355253  1
  Cl  Cl20  1  0.03272922  0.43287663  0.66644747  1
  Cl  Cl21  1  0.53272922  0.06712337  0.33355253  1
  Cl  Cl22  1  0.96727078  0.93287663  0.83355253  1
  Cl  Cl23  1  0.46727078  0.56712337  0.16644747  1
  F  F0  1  0.11409850  0.33236717  0.29106109  1
  F  F1  1  0.61409850  0.16763283  0.70893891  1
  F  F2  1  0.88590150  0.83236717  0.20893891  1
  F  F3  1  0.38590150  0.66763283  0.79106109  1
  F  F4  1  0.88590150  0.66763283  0.70893891  1
  F  F5  1  0.38590150  0.83236717  0.29106109  1
  F  F6  1  0.11409850  0.16763283  0.79106109  1
  F  F7  1  0.61409850  0.33236717  0.20893891  1
loop_
_geom_bond_atom_site_label_1
_geom_bond_atom_site_label_2
_geom_bond_distance
_geom_bond_site_symmetry_2
C0 F0 1.359753 1_555
C0 Cl16 1.757760 1_455
C0 Cl8 1.760468 1_555
C0 Cl0 1.764734 1_455
C1 F1 1.359753 1_555
C1 Cl17 1.757760 1_545
C1 Cl9 1.760468 1_555
C1 Cl1 1.764734 1_555
C2 F2 1.359753 1_555
C2 Cl18 1.757760 1_665
C2 Cl10 1.760468 1_555
C2 Cl2 1.764734 1_655
C3 F3 1.359753 1_555
C3 Cl19 1.757760 1_555
C3 Cl11 1.760468 1_555
C3 Cl3 1.764734 1_555
C4 F4 1.359753 1_555
C4 Cl20 1.757760 1_655
C4 Cl12 1.760468 1_555
C4 Cl4 1.764734 1_655
C5 F5 1.359753 1_555
C5 Cl21 1.757760 1_565
C5 Cl13 1.760468 1_555
C5 Cl5 1.764734 1_555
C6 F6 1.359753 1_555
C6 Cl22 1.757760 1_445
C6 Cl14 1.760468 1_555
C6 Cl6 1.764734 1_455
C7 F7 1.359753 1_555
C7 Cl23 1.757760 1_555
C7 Cl15 1.760468 1_555
C7 Cl7 1.764734 1_555
