# generated using pymatgen
data_Sr9Cr5O18
_symmetry_space_group_name_H-M   'P 1'
_cell_length_a   15.46083889
_cell_length_b   15.46083889
_cell_length_c   10.94101500
_cell_angle_alpha   90.00000000
_cell_angle_beta   90.00000000
_cell_angle_gamma   159.63767251
_symmetry_Int_Tables_number   1
_chemical_formula_structural   Sr9Cr5O18
_chemical_formula_sum   'Sr18 Cr10 O36'
_cell_volume   910.01317161
_cell_formula_units_Z   2
loop_
 _symmetry_equiv_pos_site_id
 _symmetry_equiv_pos_as_xyz
  1  'x, y, z'
loop_
 _atom_site_type_symbol
 _atom_site_label
 _atom_site_symmetry_multiplicity
 _atom_site_fract_x
 _atom_site_fract_y
 _atom_site_fract_z
 _atom_site_occupancy
  Sr  Sr0  1  0.20506200  0.79525900  0.74912100  1
  Sr  Sr1  1  0.79493800  0.20474100  0.24912100  1
  Sr  Sr2  1  0.20474100  0.79493800  0.24912100  1
  Sr  Sr3  1  0.79525900  0.20506200  0.74912100  1
  Sr  Sr4  1  0.70577400  0.29232800  0.99883300  1
  Sr  Sr5  1  0.29422600  0.70767200  0.49883300  1
  Sr  Sr6  1  0.70767200  0.29422600  0.49883300  1
  Sr  Sr7  1  0.29232800  0.70577400  0.99883300  1
  Sr  Sr8  1  0.07756600  0.91005500  0.74761800  1
  Sr  Sr9  1  0.92243400  0.08994500  0.24761800  1
  Sr  Sr10  1  0.08994500  0.92243400  0.24761800  1
  Sr  Sr11  1  0.91005500  0.07756600  0.74761800  1
  Sr  Sr12  1  0.58335000  0.41500200  0.00180500  1
  Sr  Sr13  1  0.41665000  0.58499800  0.50180500  1
  Sr  Sr14  1  0.58499800  0.41665000  0.50180500  1
  Sr  Sr15  1  0.41500200  0.58335000  0.00180500  1
  Sr  Sr16  1  0.99551900  0.99551900  0.50052000  1
  Sr  Sr17  1  0.00448100  0.00448100  0.00052000  1
  Cr  Cr0  1  0.65095300  0.34874600  0.74889000  1
  Cr  Cr1  1  0.34904700  0.65125400  0.24889000  1
  Cr  Cr2  1  0.65125400  0.34904700  0.24889000  1
  Cr  Cr3  1  0.34874600  0.65095300  0.74889000  1
  Cr  Cr4  1  0.14426200  0.85358900  0.99865800  1
  Cr  Cr5  1  0.85573800  0.14641100  0.49865800  1
  Cr  Cr6  1  0.14641100  0.85573800  0.49865800  1
  Cr  Cr7  1  0.85358900  0.14426200  0.99865800  1
  Cr  Cr8  1  0.55928900  0.55928900  0.27975300  1
  Cr  Cr9  1  0.44071100  0.44071100  0.77975300  1
  O  O0  1  0.88581500  0.59820400  0.62804700  1
  O  O1  1  0.11418500  0.40179600  0.12804700  1
  O  O2  1  0.40179600  0.11418500  0.12804700  1
  O  O3  1  0.59820400  0.88581500  0.62804700  1
  O  O4  1  0.40138000  0.11589500  0.62858400  1
  O  O5  1  0.59862000  0.88410500  0.12858400  1
  O  O6  1  0.88410500  0.59862000  0.12858400  1
  O  O7  1  0.11589500  0.40138000  0.62858400  1
  O  O8  1  0.88320000  0.59778900  0.86928500  1
  O  O9  1  0.11680000  0.40221100  0.36928500  1
  O  O10  1  0.40221100  0.11680000  0.36928500  1
  O  O11  1  0.59778900  0.88320000  0.86928500  1
  O  O12  1  0.40009200  0.11636300  0.86904700  1
  O  O13  1  0.59990800  0.88363700  0.36904700  1
  O  O14  1  0.88363700  0.59990800  0.36904700  1
  O  O15  1  0.07434600  0.91866300  0.99960100  1
  O  O16  1  0.11636300  0.40009200  0.86904700  1
  O  O17  1  0.28860800  0.71526800  0.24969200  1
  O  O18  1  0.71526800  0.28860800  0.24969200  1
  O  O19  1  0.28473200  0.71139200  0.74969200  1
  O  O20  1  0.21065100  0.78635200  0.99797900  1
  O  O21  1  0.78934900  0.21364800  0.49797900  1
  O  O22  1  0.21364800  0.78934900  0.49797900  1
  O  O23  1  0.78635200  0.21065100  0.99797900  1
  O  O24  1  0.59910800  0.49373000  0.72506800  1
  O  O25  1  0.40089200  0.50627000  0.22506800  1
  O  O26  1  0.50627000  0.40089200  0.22506800  1
  O  O27  1  0.49373000  0.59910800  0.72506800  1
  O  O28  1  0.48497700  0.48497700  0.94603300  1
  O  O29  1  0.51502300  0.51502300  0.44603300  1
  O  O30  1  0.10655900  0.10655900  0.75923400  1
  O  O31  1  0.89344100  0.89344100  0.25923400  1
  O  O32  1  0.91866300  0.07434600  0.99960100  1
  O  O33  1  0.08133700  0.92565400  0.49960100  1
  O  O34  1  0.92565400  0.08133700  0.49960100  1
  O  O35  1  0.71139200  0.28473200  0.74969200  1
loop_
_geom_bond_atom_site_label_1
_geom_bond_atom_site_label_2
_geom_bond_distance
_geom_bond_site_symmetry_2
Cr0 O8 1.878959 1_555
Cr0 O4 1.880295 1_555
Cr0 O0 1.883954 1_555
Cr0 O12 1.884529 1_555
Cr0 O35 1.893895 1_555
Cr1 O9 1.878959 1_555
Cr1 O5 1.880295 1_555
Cr1 O1 1.883954 1_555
Cr1 O13 1.884529 1_555
Cr1 O17 1.893895 1_555
Cr2 O10 1.878959 1_555
Cr2 O6 1.880295 1_555
Cr2 O2 1.883954 1_555
Cr2 O14 1.884529 1_555
Cr2 O18 1.893895 1_555
Cr3 O11 1.878959 1_555
Cr3 O7 1.880295 1_555
Cr3 O3 1.883954 1_555
Cr3 O16 1.884529 1_555
Cr3 O19 1.893895 1_555
Cr4 O8 2.001296 1_455
Cr4 O6 2.002196 1_456
Cr4 O2 2.002808 1_566
Cr4 O12 2.007683 1_565
Cr4 O20 2.033454 1_555
Cr4 O15 2.054264 1_555
Cr5 O9 2.001296 1_655
Cr5 O7 2.002196 1_655
Cr5 O3 2.002808 1_545
Cr5 O13 2.007683 1_545
Cr5 O21 2.033454 1_555
Cr5 O34 2.054264 1_555
Cr6 O10 2.001296 1_565
Cr6 O4 2.002196 1_565
Cr6 O0 2.002808 1_455
Cr6 O14 2.007683 1_455
Cr6 O22 2.033454 1_555
Cr6 O33 2.054264 1_555
Cr7 O11 2.001296 1_545
Cr7 O5 2.002196 1_546
Cr7 O1 2.002808 1_656
Cr7 O16 2.007683 1_655
Cr7 O23 2.033454 1_555
Cr7 O32 2.054264 1_555
Cr8 O26 1.806449 1_555
Cr8 O25 1.806449 1_555
Cr8 O29 1.835290 1_555
Cr8 O31 1.840138 1_555
Cr9 O24 1.806449 1_555
Cr9 O27 1.806449 1_555
Cr9 O28 1.835290 1_555
Cr9 O30 1.840138 1_555
O0 Sr14 2.634260 1_555
O0 Sr8 2.635482 1_655
O0 Sr0 2.683874 1_655
O0 Sr6 2.720554 1_555
O1 Sr15 2.634260 1_555
O1 Sr9 2.635482 1_455
O1 Sr1 2.683874 1_455
O1 Sr7 2.720554 1_554
O2 Sr12 2.634260 1_555
O2 Sr10 2.635482 1_545
O2 Sr2 2.683874 1_545
O2 Sr4 2.720554 1_554
O3 Sr13 2.634260 1_555
O3 Sr11 2.635482 1_565
O3 Sr3 2.683874 1_565
O3 Sr5 2.720554 1_555
O4 Sr14 2.617950 1_555
O4 Sr8 2.648445 1_545
O4 Sr0 2.704448 1_545
O4 Sr6 2.749741 1_555
O5 Sr15 2.617950 1_555
O5 Sr9 2.648445 1_565
O5 Sr1 2.704448 1_565
O5 Sr7 2.749741 1_554
O6 Sr12 2.617950 1_555
O6 Sr10 2.648445 1_655
O6 Sr2 2.704448 1_655
O6 Sr4 2.749741 1_554
O7 Sr13 2.617950 1_555
O7 Sr11 2.648445 1_455
O7 Sr3 2.704448 1_455
O7 Sr5 2.749741 1_555
O8 Sr8 2.628289 1_655
O8 Sr12 2.648643 1_556
O8 Sr0 2.706651 1_655
O8 Sr4 2.747110 1_555
O9 Sr9 2.628289 1_455
O9 Sr13 2.648643 1_555
O9 Sr1 2.706651 1_455
O9 Sr5 2.747110 1_555
O10 Sr10 2.628289 1_545
O10 Sr14 2.648643 1_555
O10 Sr2 2.706651 1_545
O10 Sr6 2.747110 1_555
O11 Sr11 2.628289 1_565
O11 Sr15 2.648643 1_556
O11 Sr3 2.706651 1_565
O11 Sr7 2.747110 1_555
O12 Sr12 2.631919 1_556
O12 Sr8 2.642251 1_545
O12 Sr0 2.718813 1_545
O12 Sr4 2.765043 1_555
O13 Sr13 2.631919 1_555
O13 Sr9 2.642251 1_565
O13 Sr1 2.718813 1_565
O13 Sr5 2.765043 1_555
O14 Sr14 2.631919 1_555
O14 Sr10 2.642251 1_655
O14 Sr2 2.718813 1_655
O14 Sr6 2.765043 1_555
O15 Sr17 2.369511 1_566
O15 Sr10 2.720036 1_556
O15 Sr12 2.725205 1_456
O15 Sr12 2.754335 1_566
O15 Sr8 2.762858 1_555
O16 Sr15 2.631919 1_556
O16 Sr11 2.642251 1_455
O16 Sr3 2.718813 1_455
O16 Sr7 2.765043 1_555
O17 Sr2 2.488640 1_555
O17 Sr5 2.733267 1_555
O17 Sr1 2.733476 1_565
O17 Sr7 2.752053 1_554
O17 Sr1 2.756316 1_455
O18 Sr1 2.488640 1_555
O18 Sr6 2.733267 1_555
O18 Sr2 2.733476 1_655
O18 Sr4 2.752053 1_554
O18 Sr2 2.756316 1_545
O19 Sr0 2.488640 1_555
O19 Sr7 2.733267 1_555
O19 Sr3 2.733476 1_455
O19 Sr5 2.752053 1_555
O19 Sr3 2.756316 1_565
O20 Sr7 2.469117 1_555
O20 Sr0 2.731695 1_555
O20 Sr4 2.734880 1_455
O20 Sr4 2.740876 1_565
O20 Sr2 2.756598 1_556
O21 Sr6 2.469117 1_555
O21 Sr1 2.731695 1_555
O21 Sr5 2.734880 1_655
O21 Sr5 2.740876 1_545
O21 Sr3 2.756598 1_555
O22 Sr5 2.469117 1_555
O22 Sr2 2.731695 1_555
O22 Sr6 2.734880 1_565
O22 Sr6 2.740876 1_455
O22 Sr0 2.756598 1_555
O23 Sr4 2.469117 1_555
O23 Sr3 2.731695 1_555
O23 Sr7 2.734880 1_545
O23 Sr7 2.740876 1_655
O23 Sr1 2.756598 1_556
O24 Sr8 2.633342 1_655
O24 Sr14 2.635759 1_555
O24 Sr8 3.174553 1_545
O24 Sr12 3.186279 1_556
O25 Sr9 2.633342 1_455
O25 Sr15 2.635759 1_555
O25 Sr9 3.174553 1_565
O25 Sr13 3.186279 1_555
O26 Sr10 2.633342 1_545
O26 Sr12 2.635759 1_555
O26 Sr10 3.174553 1_655
O26 Sr14 3.186279 1_555
O27 Sr11 2.633342 1_565
O27 Sr13 2.635759 1_555
O27 Sr11 3.174553 1_455
O27 Sr15 3.186279 1_556
O28 Sr15 2.634630 1_556
O28 Sr12 2.634630 1_556
O28 Sr17 2.693082 1_556
O28 Sr17 2.901385 1_666
O29 Sr14 2.634630 1_555
O29 Sr13 2.634630 1_555
O29 Sr16 2.693082 1_555
O29 Sr16 2.901385 1_445
O30 Sr8 2.625592 1_545
O30 Sr11 2.625592 1_455
O30 Sr17 2.698228 1_556
O30 Sr16 2.894928 1_445
O31 Sr9 2.625592 1_565
O31 Sr10 2.625592 1_655
O31 Sr16 2.698228 1_555
O31 Sr17 2.894928 1_665
O32 Sr17 2.369511 1_656
O32 Sr9 2.720036 1_556
O32 Sr15 2.725205 1_546
O32 Sr15 2.754335 1_656
O32 Sr11 2.762858 1_555
O33 Sr16 2.369511 1_455
O33 Sr8 2.720036 1_555
O33 Sr14 2.725205 1_565
O33 Sr14 2.754335 1_455
O33 Sr10 2.762858 1_555
O34 Sr16 2.369511 1_545
O34 Sr11 2.720036 1_555
O34 Sr13 2.725205 1_655
O34 Sr13 2.754335 1_545
O34 Sr9 2.762858 1_555
O35 Sr3 2.488640 1_555
O35 Sr4 2.733267 1_555
O35 Sr0 2.733476 1_545
O35 Sr6 2.752053 1_555
O35 Sr0 2.756316 1_655
