# generated using pymatgen
data_DyCoSn
_symmetry_space_group_name_H-M   'P 1'
_cell_length_a   4.56923824
_cell_length_b   7.34203161
_cell_length_c   7.52647596
_cell_angle_alpha   90.00020609
_cell_angle_beta   90.00000000
_cell_angle_gamma   90.00000000
_symmetry_Int_Tables_number   1
_chemical_formula_structural   DyCoSn
_chemical_formula_sum   'Dy4 Co4 Sn4'
_cell_volume   252.49438898
_cell_formula_units_Z   4
loop_
 _symmetry_equiv_pos_site_id
 _symmetry_equiv_pos_as_xyz
  1  'x, y, z'
loop_
 _atom_site_type_symbol
 _atom_site_label
 _atom_site_symmetry_multiplicity
 _atom_site_fract_x
 _atom_site_fract_y
 _atom_site_fract_z
 _atom_site_occupancy
  Dy  Dy0  1  0.25000000  0.48142711  0.28554414  1
  Dy  Dy1  1  0.75000000  0.51857289  0.71445586  1
  Dy  Dy2  1  0.25000000  0.98142387  0.21449981  1
  Dy  Dy3  1  0.75000000  0.01857613  0.78550019  1
  Co  Co0  1  0.75000000  0.34342607  0.06715535  1
  Co  Co1  1  0.25000000  0.15660299  0.56707492  1
  Co  Co2  1  0.75000000  0.84339701  0.43292508  1
  Co  Co3  1  0.25000000  0.65657393  0.93284465  1
  Sn  Sn0  1  0.25000000  0.78852651  0.59967633  1
  Sn  Sn1  1  0.75000000  0.71160349  0.09992290  1
  Sn  Sn2  1  0.25000000  0.28839651  0.90007710  1
  Sn  Sn3  1  0.75000000  0.21147349  0.40032367  1
loop_
_geom_bond_atom_site_label_1
_geom_bond_atom_site_label_2
_geom_bond_distance
_geom_bond_site_symmetry_2
Dy0 Sn3 3.145497 1_455
Dy0 Sn3 3.145497 1_555
Dy0 Sn1 3.166590 1_555
Dy0 Sn1 3.166590 1_455
Dy0 Sn2 3.228861 1_554
Dy0 Sn0 3.267069 1_555
Dy0 Dy2 3.709732 1_555
Dy0 Dy2 3.709776 1_545
Dy0 Dy1 3.964227 1_455
Dy0 Dy1 3.964227 1_555
Dy1 Sn0 3.145497 1_655
Dy1 Sn0 3.145497 1_555
Dy1 Sn2 3.166590 1_655
Dy1 Sn2 3.166590 1_555
Dy1 Sn1 3.228861 1_556
Dy1 Sn3 3.267069 1_555
Dy1 Dy3 3.709732 1_555
Dy1 Dy3 3.709776 1_565
Dy2 Sn1 3.144458 1_455
Dy2 Sn1 3.144458 1_555
Dy2 Sn3 3.166761 1_565
Dy2 Sn3 3.166761 1_465
Dy2 Sn0 3.226476 1_555
Dy2 Sn2 3.268021 1_564
Dy2 Dy3 3.964770 1_464
Dy2 Dy3 3.964770 1_564
Dy3 Sn2 3.144458 1_655
Dy3 Sn2 3.144458 1_555
Dy3 Sn0 3.166761 1_645
Dy3 Sn0 3.166761 1_545
Dy3 Sn3 3.226476 1_555
Dy3 Sn1 3.268021 1_546
Co0 Sn2 2.638949 1_654
Co0 Sn2 2.638949 1_554
Co0 Sn3 2.688227 1_555
Co0 Sn1 2.714396 1_555
Co0 Dy1 2.949655 1_554
Co0 Dy0 2.991288 1_655
Co0 Dy0 2.991288 1_555
Co0 Dy3 3.190975 1_554
Co0 Dy2 3.676061 1_545
Co0 Dy2 3.676061 1_645
Co1 Sn3 2.637600 1_555
Co1 Sn3 2.637600 1_455
Co1 Sn2 2.686633 1_555
Co1 Sn0 2.713547 1_545
Co1 Dy2 2.948908 1_545
Co1 Dy3 2.991507 1_555
Co1 Dy3 2.991507 1_455
Co1 Dy0 3.190223 1_555
Co1 Dy1 3.675966 1_455
Co1 Dy1 3.675966 1_555
Co2 Sn0 2.637600 1_555
Co2 Sn0 2.637600 1_655
Co2 Sn1 2.686633 1_555
Co2 Sn3 2.713547 1_565
Co2 Dy3 2.948908 1_565
Co2 Dy2 2.991507 1_555
Co2 Dy2 2.991507 1_655
Co2 Dy1 3.190223 1_555
Co2 Dy0 3.675966 1_655
Co2 Dy0 3.675966 1_555
Co3 Sn1 2.638949 1_556
Co3 Sn1 2.638949 1_456
Co3 Sn0 2.688227 1_555
Co3 Sn2 2.714396 1_555
Co3 Dy0 2.949655 1_556
Co3 Dy1 2.991288 1_455
Co3 Dy1 2.991288 1_555
Co3 Dy2 3.190975 1_556
Co3 Dy3 3.676061 1_565
Co3 Dy3 3.676061 1_465
