# generated using pymatgen
data_MgNb2PdS6
_symmetry_space_group_name_H-M   'P 1'
_cell_length_a   3.34494491
_cell_length_b   6.70654021
_cell_length_c   9.46632846
_cell_angle_alpha   82.78532639
_cell_angle_beta   79.78603563
_cell_angle_gamma   75.40855402
_symmetry_Int_Tables_number   1
_chemical_formula_structural   MgNb2PdS6
_chemical_formula_sum   'Mg1 Nb2 Pd1 S6'
_cell_volume   201.52092886
_cell_formula_units_Z   1
loop_
 _symmetry_equiv_pos_site_id
 _symmetry_equiv_pos_as_xyz
  1  'x, y, z'
loop_
 _atom_site_type_symbol
 _atom_site_label
 _atom_site_symmetry_multiplicity
 _atom_site_fract_x
 _atom_site_fract_y
 _atom_site_fract_z
 _atom_site_occupancy
  Mg  Mg0  1  0.56174100  0.54383400  0.34027100  1
  Nb  Nb0  1  0.31749500  0.07017300  0.29557700  1
  Nb  Nb1  1  0.68010000  0.93042300  0.70945600  1
  Pd  Pd0  1  0.00435900  0.99817000  0.99388800  1
  S  S0  1  0.01619000  0.19520200  0.76937900  1
  S  S1  1  0.99031000  0.80032600  0.22248200  1
  S  S2  1  0.33700900  0.79993600  0.52764600  1
  S  S3  1  0.66085500  0.20302100  0.47378000  1
  S  S4  1  0.78477900  0.28496500  0.14542500  1
  S  S5  1  0.21859000  0.71394900  0.85066500  1
loop_
_geom_bond_atom_site_label_1
_geom_bond_atom_site_label_2
_geom_bond_distance
_geom_bond_site_symmetry_2
Mg0 S3 2.443919 1_555
Mg0 S2 2.510596 1_555
Mg0 S1 2.539909 1_555
Mg0 S1 2.544252 1_455
Mg0 S4 2.576135 1_555
Nb0 S4 2.522153 1_455
Nb0 S4 2.524036 1_555
Nb0 S1 2.555184 1_545
Nb0 S1 2.555917 1_445
Nb0 S3 2.557113 1_555
Nb0 S3 2.557591 1_455
Nb0 S2 2.665748 1_545
Nb1 S5 2.487483 1_555
Nb1 S5 2.487536 1_655
Nb1 S0 2.494775 1_665
Nb1 S0 2.495213 1_565
Nb1 S2 2.573792 1_655
Nb1 S2 2.574831 1_555
Nb1 S3 2.700167 1_565
Pd0 S0 2.357033 1_565
Pd0 S5 2.366726 1_555
Pd0 S1 2.391562 1_456
Pd0 S4 2.429875 1_466
