# generated using pymatgen
data_MgV2Ag2(HgO4)2
_symmetry_space_group_name_H-M   'P 1'
_cell_length_a   6.53129775
_cell_length_b   6.14540628
_cell_length_c   7.40962873
_cell_angle_alpha   94.20468352
_cell_angle_beta   97.59511933
_cell_angle_gamma   117.97687729
_symmetry_Int_Tables_number   1
_chemical_formula_structural   MgV2Ag2(HgO4)2
_chemical_formula_sum   'Mg1 V2 Ag2 Hg2 O8'
_cell_volume   257.21449907
_cell_formula_units_Z   1
loop_
 _symmetry_equiv_pos_site_id
 _symmetry_equiv_pos_as_xyz
  1  'x, y, z'
loop_
 _atom_site_type_symbol
 _atom_site_label
 _atom_site_symmetry_multiplicity
 _atom_site_fract_x
 _atom_site_fract_y
 _atom_site_fract_z
 _atom_site_occupancy
  Mg  Mg0  1  0.64650627  0.67306331  0.00889304  1
  V  V0  1  0.27234646  0.59832341  0.74804799  1
  V  V1  1  0.72642740  0.38032437  0.25740579  1
  Ag  Ag0  1  0.26117124  0.77344039  0.28189639  1
  Ag  Ag1  1  0.57555699  0.21514172  0.70416718  1
  Hg  Hg0  1  0.10907569  0.03737399  0.00424883  1
  Hg  Hg1  1  0.90005949  0.98704504  0.50626268  1
  O  O0  1  0.34636991  0.69186817  0.98710478  1
  O  O1  1  0.59938878  0.32229700  0.02215259  1
  O  O2  1  0.54288584  0.17096221  0.38272848  1
  O  O3  1  0.23011291  0.81258429  0.63427451  1
  O  O4  1  0.01391787  0.28913622  0.70474856  1
  O  O5  1  0.75092216  0.69571611  0.29147869  1
  O  O6  1  0.98651462  0.37443375  0.28344035  1
  O  O7  1  0.53596238  0.60329002  0.72018714  1
loop_
_geom_bond_atom_site_label_1
_geom_bond_atom_site_label_2
_geom_bond_distance
_geom_bond_site_symmetry_2
Mg0 O0 2.003432 1_554
Mg0 O1 2.041479 1_555
Mg0 O5 2.087919 1_555
Mg0 O7 2.109048 1_554
Ag0 O2 2.250176 1_565
Ag0 O6 2.261250 1_455
Ag0 O0 2.398863 1_554
Ag0 O3 2.647636 1_555
Ag1 O2 2.347001 1_555
Ag1 O1 2.364042 1_556
Ag1 O3 2.396910 1_545
Ag1 O7 2.513187 1_555
Ag1 O4 2.679347 1_655
Hg0 Mg0 2.798884 1_445
Hg1 O4 2.043946 1_665
Hg1 O5 2.055017 1_555
O0 V0 1.750810 1_555
O1 V1 1.761550 1_555
O2 V1 1.725422 1_555
O3 V0 1.721218 1_555
O4 V0 1.822257 1_555
O5 V1 1.863501 1_555
O6 V1 1.701830 1_555
O7 V0 1.747444 1_555
