# generated using pymatgen
data_PtBr3
_symmetry_space_group_name_H-M   'P 1'
_cell_length_a   13.44335469
_cell_length_b   13.44335487
_cell_length_c   13.44335429
_cell_angle_alpha   115.01137900
_cell_angle_beta   115.01137522
_cell_angle_gamma   115.01137408
_symmetry_Int_Tables_number   1
_chemical_formula_structural   PtBr3
_chemical_formula_sum   'Pt12 Br36'
_cell_volume   1358.29774441
_cell_formula_units_Z   12
loop_
 _symmetry_equiv_pos_site_id
 _symmetry_equiv_pos_as_xyz
  1  'x, y, z'
loop_
 _atom_site_type_symbol
 _atom_site_label
 _atom_site_symmetry_multiplicity
 _atom_site_fract_x
 _atom_site_fract_y
 _atom_site_fract_z
 _atom_site_occupancy
  Pt  Pt0  1  0.23141905  0.80280285  0.47719684  1
  Pt  Pt1  1  0.80280285  0.47719684  0.23141905  1
  Pt  Pt2  1  0.47719684  0.23141905  0.80280285  1
  Pt  Pt3  1  0.76858095  0.19719715  0.52280316  1
  Pt  Pt4  1  0.19719715  0.52280316  0.76858095  1
  Pt  Pt5  1  0.52280316  0.76858095  0.19719715  1
  Pt  Pt6  1  0.75611010  0.93577233  0.83430734  1
  Pt  Pt7  1  0.93577233  0.83430734  0.75611010  1
  Pt  Pt8  1  0.83430734  0.75611010  0.93577233  1
  Pt  Pt9  1  0.24388990  0.06422767  0.16569266  1
  Pt  Pt10  1  0.06422767  0.16569266  0.24388990  1
  Pt  Pt11  1  0.16569266  0.24388990  0.06422767  1
  Br  Br0  1  0.76381926  0.83086933  0.34831743  1
  Br  Br1  1  0.83086933  0.34831743  0.76381926  1
  Br  Br2  1  0.34831743  0.76381926  0.83086933  1
  Br  Br3  1  0.23618074  0.16913067  0.65168257  1
  Br  Br4  1  0.16913067  0.65168257  0.23618074  1
  Br  Br5  1  0.65168257  0.23618074  0.16913067  1
  Br  Br6  1  0.55425898  0.39997058  0.05298440  1
  Br  Br7  1  0.39997058  0.05298440  0.55425898  1
  Br  Br8  1  0.05298440  0.55425898  0.39997058  1
  Br  Br9  1  0.44574102  0.60002942  0.94701460  1
  Br  Br10  1  0.60002942  0.94701460  0.44574102  1
  Br  Br11  1  0.94701460  0.44574102  0.60002942  1
  Br  Br12  1  0.69805055  0.77508645  0.59817218  1
  Br  Br13  1  0.59817218  0.69805055  0.77508645  1
  Br  Br14  1  0.77508645  0.59817218  0.69805055  1
  Br  Br15  1  0.30194945  0.22491355  0.40182782  1
  Br  Br16  1  0.40182782  0.30194945  0.22491355  1
  Br  Br17  1  0.22491355  0.40182782  0.30194945  1
  Br  Br18  1  0.17689519  0.90084474  0.92347966  1
  Br  Br19  1  0.92347966  0.17689519  0.90084474  1
  Br  Br20  1  0.90084474  0.92347966  0.17689519  1
  Br  Br21  1  0.82310481  0.09915526  0.07652034  1
  Br  Br22  1  0.07652034  0.82310481  0.09915526  1
  Br  Br23  1  0.09915526  0.07652034  0.82310481  1
  Br  Br24  1  0.31216227  0.97460923  0.73270185  1
  Br  Br25  1  0.73270185  0.31216227  0.97460923  1
  Br  Br26  1  0.97460923  0.73270185  0.31216227  1
  Br  Br27  1  0.68783773  0.02539077  0.26729815  1
  Br  Br28  1  0.26729815  0.68783773  0.02539077  1
  Br  Br29  1  0.02539077  0.26729815  0.68783773  1
  Br  Br30  1  0.37069174  0.53181182  0.14671754  1
  Br  Br31  1  0.14671754  0.37069174  0.53181182  1
  Br  Br32  1  0.53181182  0.14671754  0.37069174  1
  Br  Br33  1  0.62930826  0.46818818  0.85328246  1
  Br  Br34  1  0.85328246  0.62930826  0.46818818  1
  Br  Br35  1  0.46818818  0.85328246  0.62930826  1
loop_
_geom_bond_atom_site_label_1
_geom_bond_atom_site_label_2
_geom_bond_distance
_geom_bond_site_symmetry_2
Br0 Pt5 2.455138 1_555
Br1 Pt3 2.455138 1_555
Br2 Pt4 2.455138 1_555
Br3 Pt2 2.455138 1_555
Br4 Pt0 2.455138 1_555
Br5 Pt1 2.455138 1_555
Br6 Pt2 2.478664 1_554
Br6 Pt1 2.485858 1_555
Br7 Pt0 2.478664 1_545
Br7 Pt2 2.485857 1_555
Br8 Pt1 2.478664 1_455
Br8 Pt0 2.485858 1_555
Br9 Pt5 2.478674 1_556
Br9 Pt4 2.485855 1_555
Br10 Pt3 2.478675 1_565
Br10 Pt5 2.485855 1_555
Br11 Pt4 2.478674 1_655
Br11 Pt3 2.485855 1_555
Br12 Pt6 2.456267 1_555
Br12 Pt7 2.456920 1_555
Br13 Pt8 2.456267 1_555
Br13 Pt6 2.456920 1_555
Br14 Pt7 2.456267 1_555
Br14 Pt8 2.456920 1_555
Br15 Pt9 2.456267 1_555
Br15 Pt10 2.456920 1_555
Br16 Pt11 2.456267 1_555
Br16 Pt9 2.456920 1_555
Br17 Pt10 2.456267 1_555
Br17 Pt11 2.456920 1_555
Br18 Pt9 2.457194 1_566
Br18 Pt7 2.459483 1_455
Br19 Pt11 2.457194 1_656
Br19 Pt6 2.459483 1_545
Br20 Pt10 2.457195 1_665
Br20 Pt8 2.459483 1_554
Br21 Pt6 2.457194 1_544
Br21 Pt10 2.459483 1_655
Br22 Pt8 2.457194 1_454
Br22 Pt9 2.459483 1_565
Br23 Pt7 2.457195 1_445
Br23 Pt11 2.459483 1_556
Br24 Pt0 2.515921 1_555
Br24 Pt2 2.594868 1_565
Br25 Pt2 2.515921 1_555
Br25 Pt1 2.594867 1_556
Br26 Pt1 2.515921 1_555
Br26 Pt0 2.594868 1_655
Br27 Pt3 2.515921 1_555
Br27 Pt5 2.594868 1_545
Br28 Pt5 2.515921 1_555
Br28 Pt4 2.594867 1_554
Br29 Pt4 2.515921 1_555
Br29 Pt3 2.594868 1_455
Br30 Pt5 2.503923 1_555
Br30 Pt11 2.927912 1_555
Br31 Pt4 2.503923 1_555
Br31 Pt10 2.927912 1_555
Br32 Pt3 2.503923 1_555
Br32 Pt9 2.927912 1_555
Br33 Pt2 2.503923 1_555
Br33 Pt8 2.927912 1_555
Br34 Pt1 2.503923 1_555
Br34 Pt7 2.927912 1_555
Br35 Pt0 2.503923 1_555
Br35 Pt6 2.927912 1_555
