# generated using pymatgen
data_Sr8MgMn6O20
_symmetry_space_group_name_H-M   'P 1'
_cell_length_a   5.75819848
_cell_length_b   7.04975018
_cell_length_c   13.62265391
_cell_angle_alpha   87.85363856
_cell_angle_beta   95.00139172
_cell_angle_gamma   117.59691481
_symmetry_Int_Tables_number   1
_chemical_formula_structural   Sr8MgMn6O20
_chemical_formula_sum   'Sr8 Mg1 Mn6 O20'
_cell_volume   488.21229323
_cell_formula_units_Z   1
loop_
 _symmetry_equiv_pos_site_id
 _symmetry_equiv_pos_as_xyz
  1  'x, y, z'
loop_
 _atom_site_type_symbol
 _atom_site_label
 _atom_site_symmetry_multiplicity
 _atom_site_fract_x
 _atom_site_fract_y
 _atom_site_fract_z
 _atom_site_occupancy
  Sr  Sr0  1  0.30783300  0.45064600  0.11224500  1
  Sr  Sr1  1  0.76272500  0.51290800  0.89436900  1
  Sr  Sr2  1  0.68205400  0.50525900  0.45707200  1
  Sr  Sr3  1  0.20888300  0.50973600  0.65798100  1
  Sr  Sr4  1  0.89977000  0.93427300  0.64920400  1
  Sr  Sr5  1  0.96972700  0.20805100  0.40142400  1
  Sr  Sr6  1  0.59975800  0.04759800  0.12161000  1
  Sr  Sr7  1  0.46878200  0.92870800  0.86424900  1
  Mg  Mg0  1  0.14392000  0.95132200  0.28786800  1
  Mn  Mn0  1  0.56116800  0.24054000  0.65975400  1
  Mn  Mn1  1  0.44512300  0.76571900  0.34268200  1
  Mn  Mn2  1  0.93844800  0.70649500  0.13427800  1
  Mn  Mn3  1  0.11689300  0.24727400  0.84992100  1
  Mn  Mn4  1  0.42703500  0.98111500  0.50007400  1
  Mn  Mn5  1  0.03576700  0.98578800  0.99543800  1
  O  O0  1  0.29416000  0.20836700  0.74396400  1
  O  O1  1  0.24928300  0.75634500  0.22079400  1
  O  O2  1  0.77364700  0.89201800  0.28452300  1
  O  O3  1  0.83222300  0.24063700  0.76579100  1
  O  O4  1  0.14654400  0.73915600  0.42374600  1
  O  O5  1  0.26638600  0.15687200  0.52476300  1
  O  O6  1  0.36208900  0.20756300  0.95475800  1
  O  O7  1  0.16839200  0.78131000  0.00860500  1
  O  O8  1  0.77187300  0.22505200  0.55206600  1
  O  O9  1  0.62246400  0.82538900  0.47484500  1
  O  O10  1  0.70170400  0.75942900  0.03901700  1
  O  O11  1  0.91774300  0.20689700  0.97073700  1
  O  O12  1  0.70117300  0.54112100  0.64570400  1
  O  O13  1  0.35341600  0.48225500  0.33000100  1
  O  O14  1  0.12504100  0.04834300  0.13837000  1
  O  O15  1  0.92841800  0.91952600  0.85811700  1
  O  O16  1  0.39710700  0.90598500  0.64060700  1
  O  O17  1  0.73971000  0.41996000  0.14445900  1
  O  O18  1  0.30167200  0.54520800  0.84042400  1
  O  O19  1  0.49335800  0.08905800  0.36471100  1
loop_
_geom_bond_atom_site_label_1
_geom_bond_atom_site_label_2
_geom_bond_distance
_geom_bond_site_symmetry_2
Mg0 O2 1.970117 1_455
Mg0 O19 1.996505 1_565
Mg0 O1 2.013880 1_555
Mg0 O14 2.133814 1_565
Mg0 O4 2.339306 1_555
Mn0 O12 1.894885 1_555
Mn0 O0 1.922560 1_555
Mn0 O8 2.020180 1_555
Mn0 O3 2.031905 1_555
Mn0 O16 2.112330 1_545
Mn0 O5 2.284774 1_555
Mn1 O13 1.826022 1_555
Mn1 O1 1.909395 1_555
Mn1 O2 1.909709 1_555
Mn1 O9 1.949202 1_555
Mn1 O4 2.056146 1_555
Mn1 O19 2.193915 1_565
Mn2 O17 1.809473 1_555
Mn2 O1 1.948475 1_655
Mn2 O10 1.951477 1_555
Mn2 O14 2.136811 1_665
Mn2 O7 2.154728 1_655
Mn3 O18 1.869084 1_555
Mn3 O3 1.899475 1_455
Mn3 O0 1.935596 1_555
Mn3 O6 2.023886 1_555
Mn3 O11 2.023952 1_455
Mn3 O15 2.051204 1_445
Mn4 O5 1.910877 1_565
Mn4 O9 1.957036 1_555
Mn4 O16 1.967812 1_555
Mn4 O19 1.968172 1_565
Mn4 O4 1.971525 1_555
Mn4 O8 2.020914 1_565
Mn5 O7 1.915738 1_556
Mn5 O6 1.917568 1_565
Mn5 O15 1.922510 1_455
Mn5 O10 1.970614 1_456
Mn5 O11 1.976652 1_465
Mn5 O14 1.982358 1_566
O0 Sr4 2.483448 1_445
O0 Sr3 2.608987 1_555
O0 Sr7 2.981675 1_545
O1 Sr6 2.557879 1_565
O1 Sr0 2.818432 1_555
O2 Sr5 2.529086 1_565
O2 Sr6 2.752922 1_565
O3 Sr3 2.644714 1_655
O3 Sr7 2.649350 1_545
O3 Sr1 2.828097 1_555
O3 Sr4 2.912281 1_545
O4 Sr2 2.479562 1_455
O5 Sr5 2.428262 1_455
O5 Sr4 2.673630 1_445
O5 Sr2 2.716625 1_555
O6 Sr1 2.495956 1_555
O6 Sr7 2.682324 1_545
O6 Sr0 2.919806 1_556
O6 Sr6 3.001091 1_556
O7 Sr7 2.591058 1_554
O7 Sr1 2.636326 1_454
O7 Sr6 2.700602 1_565
O7 Sr0 3.059737 1_555
O8 Sr5 2.464996 1_555
O8 Sr2 2.546108 1_555
O8 Sr3 2.710471 1_655
O8 Sr4 2.742481 1_545
O9 Sr2 2.458161 1_555
O9 Sr4 2.668394 1_555
O9 Sr5 2.724898 1_565
O10 Sr0 2.556403 1_555
O10 Sr6 2.669995 1_565
O10 Sr1 2.823053 1_554
O10 Sr7 3.099123 1_554
O11 Sr6 2.723266 1_556
O11 Sr7 2.737827 1_545
O11 Sr0 2.762495 1_656
O11 Sr1 2.826148 1_555
O12 Sr4 2.460842 1_555
O12 Sr2 2.579299 1_555
O12 Sr3 2.758852 1_555
O12 Sr3 3.022420 1_655
O13 Sr2 2.401955 1_555
O13 Sr5 2.416961 1_455
O13 Sr0 2.962723 1_555
O14 Sr0 2.549929 1_555
O14 Sr6 2.765225 1_555
O14 Sr6 3.010952 1_455
O15 Sr1 2.610269 1_555
O15 Sr7 2.685841 1_555
O15 Sr4 2.837132 1_555
O15 Sr7 3.075910 1_655
O16 Sr3 2.494838 1_555
O16 Sr4 2.799837 1_555
O16 Sr4 2.973884 1_455
O16 Sr7 3.038720 1_555
O17 Sr6 2.386368 1_555
O17 Sr0 2.593213 1_555
O17 Sr0 3.244801 1_655
O18 Sr7 2.437535 1_555
O18 Sr3 2.493239 1_555
O18 Sr1 2.801325 1_555
O18 Sr1 3.154861 1_455
O19 Sr5 2.477569 1_555
O19 Sr2 2.908112 1_555
