# generated using pymatgen
data_TiGaPt
_symmetry_space_group_name_H-M   'P 1'
_cell_length_a   4.38450109
_cell_length_b   4.38450160
_cell_length_c   5.48023362
_cell_angle_alpha   90.00000000
_cell_angle_beta   90.00000000
_cell_angle_gamma   119.99999625
_symmetry_Int_Tables_number   1
_chemical_formula_structural   TiGaPt
_chemical_formula_sum   'Ti2 Ga2 Pt2'
_cell_volume   91.23681916
_cell_formula_units_Z   2
loop_
 _symmetry_equiv_pos_site_id
 _symmetry_equiv_pos_as_xyz
  1  'x, y, z'
loop_
 _atom_site_type_symbol
 _atom_site_label
 _atom_site_symmetry_multiplicity
 _atom_site_fract_x
 _atom_site_fract_y
 _atom_site_fract_z
 _atom_site_occupancy
  Ti  Ti0  1  0.00000000  0.00000000  0.00000000  1
  Ti  Ti1  1  0.00000000  0.00000000  0.50000000  1
  Ga  Ga0  1  0.33333300  0.66666700  0.24982485  1
  Ga  Ga1  1  0.66666700  0.33333300  0.75017515  1
  Pt  Pt0  1  0.33333300  0.66666700  0.75006358  1
  Pt  Pt1  1  0.66666700  0.33333300  0.24993642  1
loop_
_geom_bond_atom_site_label_1
_geom_bond_atom_site_label_2
_geom_bond_distance
_geom_bond_site_symmetry_2
Ti0 Ti1 2.740117 1_555
Ti0 Ti1 2.740117 1_554
Ga0 Pt1 2.531391 1_455
Ga0 Pt1 2.531391 1_565
Ga0 Pt1 2.531398 1_555
Ga0 Pt0 2.738809 1_554
Ga0 Pt0 2.741425 1_555
Ga0 Ti0 2.877910 1_565
Ga0 Ti0 2.877914 1_665
Ga0 Ti0 2.877914 1_555
Ga0 Ti1 2.878824 1_565
Ga0 Ti1 2.878828 1_665
Ga0 Ti1 2.878828 1_555
Ga1 Pt0 2.531391 1_655
Ga1 Pt0 2.531391 1_545
Ga1 Pt0 2.531398 1_555
Ga1 Pt1 2.738809 1_556
Ga1 Pt1 2.741425 1_555
Ga1 Ti0 2.877910 1_656
Ga1 Ti0 2.877914 1_556
Ga1 Ti0 2.877914 1_666
Ga1 Ti1 2.878824 1_655
Ga1 Ti1 2.878828 1_555
Ga1 Ti1 2.878828 1_665
Pt0 Ti0 2.878201 1_566
Pt0 Ti0 2.878205 1_666
Pt0 Ti0 2.878205 1_556
Pt0 Ti1 2.878533 1_565
Pt0 Ti1 2.878536 1_665
Pt0 Ti1 2.878537 1_555
Pt1 Ti0 2.878201 1_655
Pt1 Ti0 2.878205 1_555
Pt1 Ti0 2.878205 1_665
Pt1 Ti1 2.878533 1_655
Pt1 Ti1 2.878536 1_555
Pt1 Ti1 2.878537 1_665
