# generated using pymatgen
data_Ba3MgNb2CoO9
_symmetry_space_group_name_H-M   'P 1'
_cell_length_a   6.19243940
_cell_length_b   5.91650530
_cell_length_c   7.49076760
_cell_angle_alpha   90.06144669
_cell_angle_beta   84.97021090
_cell_angle_gamma   118.48260183
_symmetry_Int_Tables_number   1
_chemical_formula_structural   Ba3MgNb2CoO9
_chemical_formula_sum   'Ba3 Mg1 Nb2 Co1 O9'
_cell_volume   240.03647989
_cell_formula_units_Z   1
loop_
 _symmetry_equiv_pos_site_id
 _symmetry_equiv_pos_as_xyz
  1  'x, y, z'
loop_
 _atom_site_type_symbol
 _atom_site_label
 _atom_site_symmetry_multiplicity
 _atom_site_fract_x
 _atom_site_fract_y
 _atom_site_fract_z
 _atom_site_occupancy
  Ba  Ba0  1  0.66854500  0.33575700  0.34417100  1
  Ba  Ba1  1  0.07367500  0.03826900  0.05412000  1
  Ba  Ba2  1  0.22826000  0.61557100  0.63106800  1
  Mg  Mg0  1  0.67579000  0.83650600  0.82010700  1
  Nb  Nb0  1  0.33786800  0.66966300  0.17738000  1
  Nb  Nb1  1  0.65737200  0.32758200  0.82981800  1
  Co  Co0  1  0.00128400  0.00097400  0.49014600  1
  O  O0  1  0.50928000  0.52001000  0.99184300  1
  O  O1  1  0.17261700  0.34404700  0.32479000  1
  O  O2  1  0.82582300  0.66545800  0.67429500  1
  O  O3  1  0.99957300  0.50006000  0.00346300  1
  O  O4  1  0.17275200  0.83051500  0.32426900  1
  O  O5  1  0.37768700  0.18681200  0.69146400  1
  O  O6  1  0.82861900  0.15919500  0.67652900  1
  O  O7  1  0.62816900  0.81473900  0.30832500  1
  O  O8  1  0.50935300  0.98817500  0.99154400  1
loop_
_geom_bond_atom_site_label_1
_geom_bond_atom_site_label_2
_geom_bond_distance
_geom_bond_site_symmetry_2
Ba0 O5 2.908233 1_555
Ba0 O3 2.974539 1_555
Ba0 O7 2.975703 1_555
Ba0 O7 2.985290 1_545
Ba0 O2 3.077137 1_555
Ba0 O1 3.088911 1_655
Ba0 O4 3.088950 1_655
Ba0 O1 3.110692 1_555
Ba0 O6 3.114154 1_555
Ba0 O4 3.116051 1_545
Ba0 O0 3.257990 1_554
Ba0 O8 3.269476 1_544
Ba1 O1 2.629063 1_555
Ba1 O4 2.631476 1_545
Ba1 O0 2.840219 1_554
Ba1 O8 2.850769 1_544
Ba1 Mg0 2.918226 1_444
Ba1 O7 2.930898 1_445
Ba1 O3 3.007981 1_455
Ba1 O3 3.021374 1_445
Ba1 O5 3.037526 1_554
Ba2 O2 2.638602 1_455
Ba2 O6 2.648018 1_455
Ba2 O1 2.750610 1_555
Ba2 O4 2.752937 1_555
Ba2 Mg0 2.936495 1_555
Ba2 O3 2.939772 1_456
Ba2 O7 3.088523 1_555
Ba2 O5 3.093690 1_565
Ba2 O5 3.132204 1_555
Mg0 O2 1.948535 1_555
Mg0 O6 1.949353 1_565
Mg0 O0 2.038517 1_555
Mg0 O8 2.040636 1_555
Nb0 O7 1.940664 1_555
Nb0 O4 1.972411 1_555
Nb0 O1 1.975857 1_555
Nb0 O8 2.110565 1_554
Nb0 O0 2.115972 1_554
Nb0 O3 2.358688 1_455
Nb1 O5 1.924686 1_555
Nb1 O6 2.056023 1_555
Nb1 O2 2.060221 1_555
Nb1 O8 2.096473 1_545
Nb1 O0 2.099499 1_555
Nb1 O3 2.375216 1_556
Co0 O4 2.115608 1_545
Co0 O1 2.121531 1_555
Co0 O6 2.158442 1_455
Co0 O2 2.170205 1_445
Co0 O7 2.554965 1_445
Co0 O5 2.661649 1_555
