# generated using pymatgen
data_Na7CaNb3(SiO4)6
_symmetry_space_group_name_H-M   'P 1'
_cell_length_a   9.21426059
_cell_length_b   9.21426026
_cell_length_c   22.64433916
_cell_angle_alpha   90.00000000
_cell_angle_beta   90.00000000
_cell_angle_gamma   120.00000115
_symmetry_Int_Tables_number   1
_chemical_formula_structural   Na7CaNb3(SiO4)6
_chemical_formula_sum   'Na21 Ca3 Nb9 Si18 O72'
_cell_volume   1664.98851840
_cell_formula_units_Z   3
loop_
 _symmetry_equiv_pos_site_id
 _symmetry_equiv_pos_as_xyz
  1  'x, y, z'
loop_
 _atom_site_type_symbol
 _atom_site_label
 _atom_site_symmetry_multiplicity
 _atom_site_fract_x
 _atom_site_fract_y
 _atom_site_fract_z
 _atom_site_occupancy
  Na  Na0  1  0.64504434  0.02277376  0.24344076  1
  Na  Na1  1  0.37772942  0.35495566  0.24344076  1
  Na  Na2  1  0.97722624  0.62227058  0.24344076  1
  Na  Na3  1  0.62867599  0.61138247  0.74633599  1
  Na  Na4  1  0.98270648  0.37132401  0.74633599  1
  Na  Na5  1  0.38861753  0.01729352  0.74633599  1
  Na  Na6  1  0.31247232  0.33680277  0.58564950  1
  Na  Na7  1  0.02433144  0.68752768  0.58564950  1
  Na  Na8  1  0.66319723  0.97566856  0.58564950  1
  Na  Na9  1  0.31504256  0.97727675  0.08563786  1
  Na  Na10  1  0.66223519  0.68495744  0.08563786  1
  Na  Na11  1  0.02272325  0.33776481  0.08563786  1
  Na  Na12  1  0.96463820  0.28253219  0.40704159  1
  Na  Na13  1  0.31789299  0.03536180  0.40704159  1
  Na  Na14  1  0.71746781  0.68210701  0.40704159  1
  Na  Na15  1  -0.00000000  -0.00000000  0.49462882  1
  Na  Na16  1  -0.00000000  -0.00000000  0.99887454  1
  Na  Na17  1  0.66666700  0.33333300  0.83292256  1
  Na  Na18  1  0.66666700  0.33333300  0.31921994  1
  Na  Na19  1  0.33333300  0.66666700  0.16583535  1
  Na  Na20  1  0.33333300  0.66666700  0.66944455  1
  Ca  Ca0  1  -0.00000000  -0.00000000  0.35329423  1
  Ca  Ca1  1  0.66666700  0.33333300  0.68508691  1
  Ca  Ca2  1  0.66666700  0.33333300  0.17640951  1
  Nb  Nb0  1  -0.00000000  -0.00000000  0.85850647  1
  Nb  Nb1  1  -0.00000000  -0.00000000  0.64765411  1
  Nb  Nb2  1  -0.00000000  -0.00000000  0.14986091  1
  Nb  Nb3  1  0.66666700  0.33333300  0.97878261  1
  Nb  Nb4  1  0.66666700  0.33333300  0.48065778  1
  Nb  Nb5  1  0.33333300  0.66666700  0.01437865  1
  Nb  Nb6  1  0.33333300  0.66666700  0.51868791  1
  Nb  Nb7  1  0.33333300  0.66666700  0.31034471  1
  Nb  Nb8  1  0.33333300  0.66666700  0.81481595  1
  Si  Si0  1  0.29614697  0.99688600  0.25347327  1
  Si  Si1  1  0.70073903  0.70385303  0.25347327  1
  Si  Si2  1  0.00311400  0.29926097  0.25347327  1
  Si  Si3  1  0.28254827  0.29139074  0.75311954  1
  Si  Si4  1  0.00884247  0.71745173  0.75311954  1
  Si  Si5  1  0.70860926  0.99115753  0.75311954  1
  Si  Si6  1  0.96572511  0.33401447  0.58482665  1
  Si  Si7  1  0.36829036  0.03427489  0.58482665  1
  Si  Si8  1  0.66598553  0.63170964  0.58482665  1
  Si  Si9  1  0.96815943  0.63363945  0.08250497  1
  Si  Si10  1  0.66548101  0.03184057  0.08250497  1
  Si  Si11  1  0.36636055  0.33451899  0.08250497  1
  Si  Si12  1  0.62582600  0.66212237  0.91542683  1
  Si  Si13  1  0.03629537  0.37417400  0.91542683  1
  Si  Si14  1  0.33787763  0.96370463  0.91542683  1
  Si  Si15  1  0.61734055  0.96140168  0.41739918  1
  Si  Si16  1  0.34406013  0.38265945  0.41739918  1
  Si  Si17  1  0.03859832  0.65593987  0.41739918  1
  O  O0  1  0.22397469  0.02421821  0.31359007  1
  O  O1  1  0.80024352  0.77602531  0.31359007  1
  O  O2  1  0.97578179  0.19975648  0.31359007  1
  O  O3  1  0.17459931  0.17241015  0.80797580  1
  O  O4  1  0.99781084  0.82540069  0.80797580  1
  O  O5  1  0.82758985  0.00218916  0.80797580  1
  O  O6  1  0.80457802  0.97255759  0.69177398  1
  O  O7  1  0.16797957  0.19542198  0.69177398  1
  O  O8  1  0.02744241  0.83202043  0.69177398  1
  O  O9  1  0.80752743  0.83193003  0.19492120  1
  O  O10  1  0.02440260  0.19247257  0.19492120  1
  O  O11  1  0.16806997  0.97559740  0.19492120  1
  O  O12  1  0.91019825  0.38894251  0.64360933  1
  O  O13  1  0.47874526  0.08980175  0.64360933  1
  O  O14  1  0.61105749  0.52125474  0.64360933  1
  O  O15  1  0.92043104  0.52879887  0.14253886  1
  O  O16  1  0.60836883  0.07956896  0.14253886  1
  O  O17  1  0.47120113  0.39163117  0.14253886  1
  O  O18  1  0.47398656  0.30467856  0.02932894  1
  O  O19  1  0.83069300  0.52601344  0.02932894  1
  O  O20  1  0.69532144  0.16930700  0.02932894  1
  O  O21  1  0.47182438  0.16633057  0.52894871  1
  O  O22  1  0.69450719  0.52817562  0.52894871  1
  O  O23  1  0.83366943  0.30549281  0.52894871  1
  O  O24  1  0.52639929  0.68332506  0.97172321  1
  O  O25  1  0.15692477  0.47360071  0.97172321  1
  O  O26  1  0.31667494  0.84307523  0.97172321  1
  O  O27  1  0.50901202  0.84891199  0.47473046  1
  O  O28  1  0.33989897  0.49098798  0.47473046  1
  O  O29  1  0.15108801  0.66010103  0.47473046  1
  O  O30  1  0.13509787  0.63440499  0.35888879  1
  O  O31  1  0.49930612  0.86490213  0.35888879  1
  O  O32  1  0.36559501  0.50069388  0.35888879  1
  O  O33  1  0.13652981  0.49583868  0.85707304  1
  O  O34  1  0.35930786  0.86347019  0.85707304  1
  O  O35  1  0.50416132  0.64069214  0.85707304  1
  O  O36  1  0.01980520  0.81882342  0.42253304  1
  O  O37  1  0.79901822  0.98019480  0.42253304  1
  O  O38  1  0.18117658  0.20098178  0.42253304  1
  O  O39  1  0.01869595  0.18866662  0.91061862  1
  O  O40  1  0.16997067  0.98130405  0.91061862  1
  O  O41  1  0.81133338  0.83002933  0.91061862  1
  O  O42  1  0.97193694  0.15744899  0.58808200  1
  O  O43  1  0.18551205  0.02806306  0.58808200  1
  O  O44  1  0.84255101  0.81448795  0.58808200  1
  O  O45  1  0.97700707  0.81785438  0.08780947  1
  O  O46  1  0.84084731  0.02299293  0.08780947  1
  O  O47  1  0.18214562  0.15915269  0.08780947  1
  O  O48  1  0.69146539  0.15587323  0.75289361  1
  O  O49  1  0.46440885  0.30853461  0.75289361  1
  O  O50  1  0.84412677  0.53559115  0.75289361  1
  O  O51  1  0.66892438  0.51789314  0.24482781  1
  O  O52  1  0.84896976  0.33107562  0.24482781  1
  O  O53  1  0.48210686  0.15103024  0.24482781  1
  O  O54  1  0.64028370  0.49343255  0.92343687  1
  O  O55  1  0.85314984  0.35971630  0.92343687  1
  O  O56  1  0.50656745  0.14685016  0.92343687  1
  O  O57  1  0.62549929  0.14504689  0.42330958  1
  O  O58  1  0.51954860  0.37450071  0.42330958  1
  O  O59  1  0.85495311  0.48045140  0.42330958  1
  O  O60  1  0.33001433  0.49077810  0.06885152  1
  O  O61  1  0.16076277  0.66998567  0.06885152  1
  O  O62  1  0.50922190  0.83923723  0.06885152  1
  O  O63  1  0.32713873  0.83991019  0.57320983  1
  O  O64  1  0.51277047  0.67286127  0.57320983  1
  O  O65  1  0.16008981  0.48722953  0.57320983  1
  O  O66  1  0.29084710  0.81175004  0.25378956  1
  O  O67  1  0.52090194  0.70915290  0.25378956  1
  O  O68  1  0.18824996  0.47909806  0.25378956  1
  O  O69  1  0.29097160  0.47579962  0.75421071  1
  O  O70  1  0.18482702  0.70902840  0.75421071  1
  O  O71  1  0.52420038  0.81517298  0.75421071  1
loop_
_geom_bond_atom_site_label_1
_geom_bond_atom_site_label_2
_geom_bond_distance
_geom_bond_site_symmetry_2
Na0 O53 2.329363 1_555
Na0 O16 2.405305 1_555
Na0 O52 2.502764 1_555
Na0 O67 2.531534 1_545
Na0 O66 2.853290 1_545
Na1 O51 2.329371 1_555
Na1 O17 2.405308 1_555
Na1 O53 2.502771 1_555
Na1 O68 2.531542 1_555
Na1 O67 2.853291 1_555
Na2 O52 2.329372 1_555
Na2 O15 2.405308 1_555
Na2 O51 2.502763 1_555
Na2 O66 2.531535 1_655
Na2 O68 2.853283 1_655
Na3 O50 2.416041 1_555
Na3 O49 2.424108 1_555
Na3 O14 2.447918 1_555
Na3 O71 2.508435 1_555
Na3 O69 2.718044 1_555
Na3 O35 2.826129 1_555
Na4 O48 2.416035 1_555
Na4 O50 2.424101 1_555
Na4 O12 2.447915 1_555
Na4 O69 2.508427 1_655
Na4 O70 2.718043 1_655
Na4 O33 2.826126 1_655
Na5 O49 2.416032 1_555
Na5 O48 2.424109 1_555
Na5 O13 2.447917 1_555
Na5 O70 2.508428 1_545
Na5 O71 2.718035 1_545
Na5 O34 2.826124 1_545
Na6 O65 2.432733 1_555
Na6 O43 2.477200 1_555
Na6 O64 2.712772 1_555
Na6 O42 2.719246 1_455
Na6 O14 2.739436 1_555
Na6 O7 2.740481 1_555
Na6 O28 2.834044 1_555
Na6 O21 2.928855 1_555
Na7 O63 2.432717 1_555
Na7 O44 2.477208 1_455
Na7 O65 2.712757 1_555
Na7 O43 2.719246 1_565
Na7 O12 2.739436 1_455
Na7 O8 2.740483 1_555
Na7 O29 2.834036 1_555
Na7 O22 2.928855 1_455
Na8 O64 2.432717 1_555
Na8 O42 2.477201 1_565
Na8 O63 2.712774 1_555
Na8 O44 2.719238 1_555
Na8 O13 2.739436 1_565
Na8 O6 2.740478 1_555
Na8 O27 2.834041 1_555
Na8 O23 2.928855 1_565
Na9 O61 2.481410 1_555
Na9 O47 2.522414 1_565
Na9 O62 2.690608 1_555
Na9 O45 2.699347 1_455
Na9 O16 2.702986 1_565
Na9 O11 2.817294 1_555
Na9 O26 2.863889 1_554
Na9 O18 2.907473 1_565
Na10 O62 2.481426 1_555
Na10 O45 2.522406 1_555
Na10 O60 2.690622 1_555
Na10 O46 2.699346 1_565
Na10 O17 2.702986 1_555
Na10 O9 2.817292 1_555
Na10 O24 2.863897 1_554
Na10 O19 2.907473 1_555
Na11 O60 2.481410 1_555
Na11 O46 2.522407 1_455
Na11 O61 2.690624 1_555
Na11 O47 2.699338 1_555
Na11 O15 2.702986 1_455
Na11 O10 2.817290 1_555
Na11 O25 2.863893 1_554
Na11 O20 2.907473 1_455
Na12 O2 2.269070 1_555
Na12 O37 2.441590 1_545
Na12 O38 2.483538 1_655
Na12 O59 2.515172 1_555
Na12 O57 2.747165 1_555
Na13 O0 2.269067 1_555
Na13 O38 2.441583 1_555
Na13 O36 2.483532 1_545
Na13 O57 2.515189 1_555
Na13 O58 2.747167 1_555
Na14 O1 2.269068 1_555
Na14 O36 2.441591 1_655
Na14 O37 2.483529 1_555
Na14 O58 2.515186 1_555
Na14 O59 2.747182 1_555
Na15 O38 2.406270 1_555
Na15 O36 2.406270 1_545
Na15 O37 2.406270 1_445
Na15 O44 2.650471 1_445
Na15 O42 2.650471 1_455
Na15 O43 2.650471 1_555
Na16 O45 2.561603 1_446
Na16 O47 2.561603 1_556
Na16 O46 2.561603 1_456
Na16 O39 2.597365 1_555
Na16 O41 2.597365 1_445
Na16 O40 2.597365 1_545
Na17 O50 2.526593 1_555
Na17 O49 2.526593 1_555
Na17 O48 2.526593 1_555
Na17 O56 2.606712 1_555
Na17 O55 2.606712 1_555
Na17 O54 2.606712 1_555
Na18 O51 2.386377 1_555
Na18 O53 2.386377 1_555
Na18 O52 2.386377 1_555
Na18 O57 2.837493 1_555
Na18 O59 2.837493 1_555
Na18 O58 2.837493 1_555
Na19 O68 2.535832 1_555
Na19 O66 2.535832 1_555
Na19 O67 2.535832 1_555
Na19 O60 2.720479 1_555
Na19 O62 2.720479 1_555
Na19 O61 2.720479 1_555
Na20 O69 2.498659 1_555
Na20 O71 2.498659 1_555
Na20 O70 2.498659 1_555
Na20 O63 2.718705 1_555
Na20 O65 2.718705 1_555
Na20 O64 2.718705 1_555
Ca0 O1 2.157941 1_445
Ca0 O2 2.157941 1_455
Ca0 O0 2.157941 1_555
Ca0 O38 2.362855 1_555
Ca0 O36 2.362855 1_545
Ca0 O37 2.362855 1_445
Ca1 O13 2.242825 1_555
Ca1 O14 2.242825 1_555
Ca1 O12 2.242825 1_555
Ca1 O50 2.336057 1_555
Ca1 O49 2.336057 1_555
Ca1 O48 2.336057 1_555
Ca2 O16 2.255697 1_555
Ca2 O15 2.255697 1_555
Ca2 O17 2.255697 1_555
Ca2 O51 2.292889 1_555
Ca2 O53 2.292889 1_555
Ca2 O52 2.292889 1_555
Nb0 O4 1.966081 1_445
Nb0 O3 1.966081 1_555
Nb0 O5 1.966081 1_455
Nb0 O39 2.035884 1_555
Nb0 O41 2.035884 1_445
Nb0 O40 2.035884 1_545
Nb1 O7 1.961927 1_555
Nb1 O8 1.961927 1_545
Nb1 O6 1.961928 1_445
Nb1 O44 2.089612 1_445
Nb1 O42 2.089612 1_455
Nb1 O43 2.089612 1_555
Nb2 O10 1.959131 1_555
Nb2 O9 1.959131 1_445
Nb2 O11 1.959131 1_545
Nb2 O45 2.116712 1_445
Nb2 O47 2.116712 1_555
Nb2 O46 2.116712 1_455
Nb3 O19 2.015715 1_556
Nb3 O20 2.015715 1_556
Nb3 O18 2.015715 1_556
Nb3 O56 2.040739 1_555
Nb3 O55 2.040739 1_555
Nb3 O54 2.040739 1_555
Nb4 O22 2.006052 1_555
Nb4 O21 2.006052 1_555
Nb4 O23 2.006052 1_555
Nb4 O57 2.045022 1_555
Nb4 O59 2.045022 1_555
Nb4 O58 2.045022 1_555
Nb5 O25 1.961679 1_554
Nb5 O26 1.961679 1_554
Nb5 O24 1.961679 1_554
Nb5 O60 2.024729 1_555
Nb5 O62 2.024729 1_555
Nb5 O61 2.024729 1_555
Nb6 O27 1.926850 1_555
Nb6 O28 1.926850 1_555
Nb6 O29 1.926850 1_555
Nb6 O63 2.041283 1_555
Nb6 O65 2.041283 1_555
Nb6 O64 2.041283 1_555
Nb7 O31 2.022414 1_555
Nb7 O32 2.022414 1_555
Nb7 O30 2.022414 1_555
Nb7 O68 2.025781 1_555
Nb7 O66 2.025781 1_555
Nb7 O67 2.025781 1_555
Nb8 O35 1.956348 1_555
Nb8 O33 1.956348 1_555
Nb8 O34 1.956348 1_555
Nb8 O69 2.107677 1_555
Nb8 O71 2.107677 1_555
Nb8 O70 2.107677 1_555
O0 Si0 1.589435 1_545
O1 Si1 1.589435 1_555
O2 Si2 1.589435 1_655
O3 Si3 1.625985 1_555
O4 Si4 1.625985 1_655
O5 Si5 1.625985 1_545
O6 Si5 1.700753 1_555
O7 Si3 1.700753 1_555
O8 Si4 1.700753 1_555
O9 Si1 1.719780 1_555
O10 Si2 1.719780 1_555
O11 Si0 1.719780 1_555
O12 Si6 1.596464 1_555
O13 Si7 1.596464 1_555
O14 Si8 1.596464 1_555
O15 Si9 1.596816 1_555
O16 Si10 1.596816 1_555
O17 Si11 1.596816 1_555
O18 Si11 1.667836 1_555
O19 Si9 1.667836 1_555
O20 Si10 1.667836 1_555
O21 Si7 1.682531 1_555
O22 Si8 1.682531 1_555
O23 Si6 1.682531 1_555
O24 Si12 1.637551 1_555
O25 Si13 1.637551 1_555
O26 Si14 1.637551 1_555
O27 Si15 1.649690 1_555
O28 Si16 1.649690 1_555
O29 Si17 1.649690 1_555
O30 Si17 1.661889 1_555
O31 Si15 1.661889 1_555
O32 Si16 1.661889 1_555
O33 Si13 1.679414 1_555
O34 Si14 1.679414 1_555
O35 Si12 1.679414 1_555
O36 Si17 1.598734 1_555
O37 Si15 1.598743 1_555
O38 Si16 1.598739 1_555
O39 Si13 1.637899 1_555
O40 Si14 1.637890 1_555
O41 Si12 1.637895 1_555
O42 Si6 1.657921 1_555
O43 Si7 1.657930 1_555
O44 Si8 1.657925 1_555
O45 Si9 1.662491 1_555
O46 Si10 1.662482 1_555
O47 Si11 1.662487 1_555
O48 Si5 1.602575 1_545
O49 Si3 1.602585 1_555
O50 Si4 1.602581 1_655
O51 Si1 1.599369 1_555
O52 Si2 1.599360 1_655
O53 Si0 1.599366 1_545
O54 Si12 1.635152 1_555
O55 Si13 1.635134 1_655
O56 Si14 1.635142 1_545
O57 Si15 1.661247 1_545
O58 Si16 1.661265 1_555
O59 Si17 1.661255 1_655
O60 Si11 1.662229 1_555
O61 Si9 1.662211 1_455
O62 Si10 1.662217 1_565
O63 Si7 1.655690 1_565
O64 Si8 1.655708 1_555
O65 Si6 1.655696 1_455
O66 Si0 1.682021 1_555
O67 Si1 1.682030 1_555
O68 Si2 1.682025 1_555
O69 Si3 1.661928 1_555
O70 Si4 1.661919 1_555
O71 Si5 1.661923 1_555
