# generated using pymatgen
data_Na6Ta4Al4Si7S5O48
_symmetry_space_group_name_H-M   'P 1'
_cell_length_a   17.48080553
_cell_length_b   8.70992921
_cell_length_c   22.33614507
_cell_angle_alpha   89.85772329
_cell_angle_beta   90.34410400
_cell_angle_gamma   119.87788859
_symmetry_Int_Tables_number   1
_chemical_formula_structural   Na6Ta4Al4Si7S5O48
_chemical_formula_sum   'Na18 Ta12 Al12 Si21 S15 O144'
_cell_volume   2948.76448935
_cell_formula_units_Z   3
loop_
 _symmetry_equiv_pos_site_id
 _symmetry_equiv_pos_as_xyz
  1  'x, y, z'
loop_
 _atom_site_type_symbol
 _atom_site_label
 _atom_site_symmetry_multiplicity
 _atom_site_fract_x
 _atom_site_fract_y
 _atom_site_fract_z
 _atom_site_occupancy
  Na  Na0  1  0.99975698  0.61876464  0.25231332  1
  Na  Na1  1  0.50086989  0.64632896  0.25679358  1
  Na  Na2  1  0.99977304  0.35627574  0.75087550  1
  Na  Na3  1  0.49981301  0.37990330  0.74894851  1
  Na  Na4  1  0.33386455  0.97156212  0.58079891  1
  Na  Na5  1  0.83236331  0.69433395  0.08329637  1
  Na  Na6  1  0.99985750  0.98251186  0.50064024  1
  Na  Na7  1  0.50254033  0.00701058  0.49889234  1
  Na  Na8  1  0.99700238  0.99713796  0.00217066  1
  Na  Na9  1  0.50161942  0.01921917  0.00213688  1
  Na  Na10  1  0.33210921  0.35175069  0.82365955  1
  Na  Na11  1  0.82921503  0.33302679  0.83242627  1
  Na  Na12  1  0.33104469  0.32889643  0.33398707  1
  Na  Na13  1  0.82810133  0.31117750  0.32646503  1
  Na  Na14  1  0.17016620  0.66151591  0.17493162  1
  Na  Na15  1  0.66967762  0.66992485  0.16876414  1
  Na  Na16  1  0.16918091  0.66915229  0.66457210  1
  Na  Na17  1  0.66980594  0.67785069  0.66979965  1
  Ta  Ta0  1  0.99603499  0.00738825  0.35691317  1
  Ta  Ta1  1  0.50011266  0.98464163  0.35695622  1
  Ta  Ta2  1  0.99563360  0.01438214  0.85306461  1
  Ta  Ta3  1  0.49685464  0.98542487  0.85609879  1
  Ta  Ta4  1  0.99816419  0.00391146  0.64461593  1
  Ta  Ta5  1  0.49895073  0.99402367  0.14723673  1
  Ta  Ta6  1  0.34188490  0.33211232  0.97404492  1
  Ta  Ta7  1  0.83541183  0.35487711  0.97961972  1
  Ta  Ta8  1  0.33581820  0.31374902  0.47950709  1
  Ta  Ta9  1  0.83652634  0.35464992  0.47043059  1
  Ta  Ta10  1  0.16745360  0.66485227  0.02615533  1
  Ta  Ta11  1  0.66568656  0.65187015  0.52237811  1
  Al  Al0  1  0.50619328  0.99846829  0.64594764  1
  Al  Al1  1  0.00120811  0.00381383  0.15023003  1
  Al  Al2  1  0.33316998  0.34009898  0.68579335  1
  Al  Al3  1  0.82428810  0.32053179  0.68496231  1
  Al  Al4  1  0.32612659  0.32475534  0.18875779  1
  Al  Al5  1  0.83312498  0.32729958  0.18704638  1
  Al  Al6  1  0.67108123  0.63865640  0.01636814  1
  Al  Al7  1  0.17023978  0.70344451  0.51648988  1
  Al  Al8  1  0.16628288  0.65751197  0.31170987  1
  Al  Al9  1  0.66718742  0.68622827  0.31960528  1
  Al  Al10  1  0.16591352  0.63741704  0.81379735  1
  Al  Al11  1  0.66559370  0.67284684  0.81106225  1
  Si  Si0  1  0.65358384  0.00235813  0.25050800  1
  Si  Si1  1  0.34648529  0.69470294  0.24918222  1
  Si  Si2  1  0.00097219  0.29400684  0.24382065  1
  Si  Si3  1  0.15267291  0.29674009  0.74909054  1
  Si  Si4  1  0.50103262  0.70790492  0.74386755  1
  Si  Si5  1  0.84416533  0.99767824  0.74698078  1
  Si  Si6  1  0.47886548  0.32648723  0.59310537  1
  Si  Si7  1  0.19132978  0.04579456  0.58756981  1
  Si  Si8  1  0.83192386  0.61242073  0.58943117  1
  Si  Si9  1  0.97797762  0.63233961  0.09199723  1
  Si  Si10  1  0.33343806  0.05213162  0.08953323  1
  Si  Si11  1  0.69046147  0.33556988  0.08754971  1
  Si  Si12  1  0.30573083  0.66384143  0.91616944  1
  Si  Si13  1  0.80438709  0.67107077  0.91384442  1
  Si  Si14  1  0.02360222  0.38690806  0.91445374  1
  Si  Si15  1  0.53478637  0.39289637  0.91253965  1
  Si  Si16  1  0.30306183  0.93440611  0.41368107  1
  Si  Si17  1  0.80533732  0.94864537  0.41724973  1
  Si  Si18  1  0.66370739  0.38728438  0.40890232  1
  Si  Si19  1  0.03438587  0.67423150  0.41233012  1
  Si  Si20  1  0.52321822  0.65839847  0.41575800  1
  S  S0  1  0.14549727  0.00528575  0.24752601  1
  S  S1  1  0.85383195  0.71268110  0.24808274  1
  S  S2  1  0.49864683  0.29105584  0.24925665  1
  S  S3  1  0.64544499  0.28594527  0.74775553  1
  S  S4  1  0.00167904  0.70998354  0.75051396  1
  S  S5  1  0.35117246  0.99146302  0.74964676  1
  S  S6  1  0.97928651  0.34227093  0.58371462  1
  S  S7  1  0.68887870  0.04916629  0.58519098  1
  S  S8  1  0.33231109  0.62076239  0.58440684  1
  S  S9  1  0.47977798  0.61843841  0.08424246  1
  S  S10  1  0.83185261  0.04349840  0.08426083  1
  S  S11  1  0.18900380  0.32468048  0.08552669  1
  S  S12  1  0.16601922  0.94798521  0.91458521  1
  S  S13  1  0.66804817  0.94666611  0.91788594  1
  S  S14  1  0.16798150  0.38894839  0.41834452  1
  O  O0  1  0.10501996  0.03195542  0.30202861  1
  O  O1  1  0.59957148  0.02726656  0.30675003  1
  O  O2  1  0.41766877  0.79003163  0.30475455  1
  O  O3  1  0.91316762  0.80093688  0.30228509  1
  O  O4  1  0.48323522  0.18125074  0.30222504  1
  O  O5  1  0.98905126  0.16795289  0.30459966  1
  O  O6  1  0.09998282  0.16770432  0.80763220  1
  O  O7  1  0.60414979  0.17752342  0.80279538  1
  O  O8  1  0.48880490  0.80887032  0.80518843  1
  O  O9  1  0.98640658  0.79174551  0.80414425  1
  O  O10  1  0.41174603  0.02221166  0.80386289  1
  O  O11  1  0.91582779  0.04577168  0.80524083  1
  O  O12  1  0.39151035  0.96451797  0.69606864  1
  O  O13  1  0.89865832  0.97145434  0.69189952  1
  O  O14  1  0.08023974  0.19656595  0.69438198  1
  O  O15  1  0.58801370  0.20223944  0.69486423  1
  O  O16  1  0.01379372  0.81989651  0.69655330  1
  O  O17  1  0.51410394  0.84185265  0.69003828  1
  O  O18  1  0.39776132  0.82565828  0.19081368  1
  O  O19  1  0.89765923  0.82135740  0.19397550  1
  O  O20  1  0.01490703  0.18916240  0.18908196  1
  O  O21  1  0.51094261  0.20341100  0.19479645  1
  O  O22  1  0.08833391  0.97507220  0.19405847  1
  O  O23  1  0.58143687  0.96161281  0.19366480  1
  O  O24  1  0.43126133  0.35590795  0.64907003  1
  O  O25  1  0.93869028  0.36081592  0.63941097  1
  O  O26  1  0.25773365  0.14132658  0.64237347  1
  O  O27  1  0.74321577  0.12879283  0.63988703  1
  O  O28  1  0.32011849  0.51326421  0.63808161  1
  O  O29  1  0.82135417  0.49070915  0.64595972  1
  O  O30  1  0.43838516  0.51470787  0.13772124  1
  O  O31  1  0.93301699  0.50644712  0.14782926  1
  O  O32  1  0.32037457  0.15264840  0.14418851  1
  O  O33  1  0.82019101  0.12679989  0.13723232  1
  O  O34  1  0.24398179  0.35775499  0.13878751  1
  O  O35  1  0.75880911  0.37555753  0.14130452  1
  O  O36  1  0.23039472  0.30687875  0.03018028  1
  O  O37  1  0.73394091  0.30230435  0.02570757  1
  O  O38  1  0.42245550  0.53487670  0.02918013  1
  O  O39  1  0.91589143  0.54221958  0.02945986  1
  O  O40  1  0.34375831  0.16672523  0.02746800  1
  O  O41  1  0.84802798  0.15353556  0.02902951  1
  O  O42  1  0.23311695  0.16551735  0.52610414  1
  O  O43  1  0.73021991  0.15558801  0.53145002  1
  O  O44  1  0.34801327  0.54267328  0.52981675  1
  O  O45  1  0.84564455  0.52358706  0.52846796  1
  O  O46  1  0.41594329  0.28948278  0.53066329  1
  O  O47  1  0.92297550  0.31015219  0.53066310  1
  O  O48  1  0.26577324  0.70112618  0.97666996  1
  O  O49  1  0.77236601  0.70679283  0.97792836  1
  O  O50  1  0.08501446  0.48020190  0.97367547  1
  O  O51  1  0.58289148  0.47426089  0.97507148  1
  O  O52  1  0.15515568  0.84719650  0.97062927  1
  O  O53  1  0.65228716  0.84102890  0.97212881  1
  O  O54  1  0.27099406  0.83696806  0.47834294  1
  O  O55  1  0.76627750  0.83093746  0.47762836  1
  O  O56  1  0.15210362  0.46278622  0.47191112  1
  O  O57  1  0.65130787  0.46552250  0.47338836  1
  O  O58  1  0.08353070  0.69481655  0.47496253  1
  O  O59  1  0.58402367  0.69316035  0.47537873  1
  O  O60  1  0.06857152  0.63547754  0.35112733  1
  O  O61  1  0.56070616  0.62694273  0.35424671  1
  O  O62  1  0.24197662  0.84678856  0.35671839  1
  O  O63  1  0.75203917  0.87543487  0.35640965  1
  O  O64  1  0.17855904  0.48611625  0.36247016  1
  O  O65  1  0.68247831  0.51308141  0.35274375  1
  O  O66  1  0.06385650  0.50028970  0.85414603  1
  O  O67  1  0.56795746  0.50088479  0.85159214  1
  O  O68  1  0.18163347  0.87138887  0.86145509  1
  O  O69  1  0.67850311  0.87078516  0.86274502  1
  O  O70  1  0.25068118  0.63977491  0.85689215  1
  O  O71  1  0.74380662  0.64094126  0.85699974  1
  O  O72  1  0.01786165  0.84501706  0.40433193  1
  O  O73  1  0.51360149  0.83708265  0.41352479  1
  O  O74  1  0.40494845  0.97596628  0.40512025  1
  O  O75  1  0.90675390  0.97472038  0.41080208  1
  O  O76  1  0.08845774  0.20208875  0.41134618  1
  O  O77  1  0.57791978  0.19065423  0.40654490  1
  O  O78  1  0.01750925  0.19032681  0.91205300  1
  O  O79  1  0.51639686  0.18858758  0.90547687  1
  O  O80  1  0.08682096  0.96705285  0.91051470  1
  O  O81  1  0.58871890  0.97518932  0.91139680  1
  O  O82  1  0.40732150  0.83499119  0.91081880  1
  O  O83  1  0.90893336  0.83311094  0.90556672  1
  O  O84  1  0.48553364  0.14484792  0.59796056  1
  O  O85  1  0.98554524  0.17390571  0.58773116  1
  O  O86  1  0.09253131  0.02393132  0.59341996  1
  O  O87  1  0.60078076  0.03456666  0.59102335  1
  O  O88  1  0.41094309  0.80388168  0.59042197  1
  O  O89  1  0.91988909  0.81033237  0.59251603  1
  O  O90  1  0.48402603  0.79534668  0.08630383  1
  O  O91  1  0.98598267  0.82786542  0.09677055  1
  O  O92  1  0.41977485  0.02751957  0.09082328  1
  O  O93  1  0.91040274  0.01709346  0.08968302  1
  O  O94  1  0.10039471  0.16886388  0.09001667  1
  O  O95  1  0.59199392  0.15980343  0.09225198  1
  O  O96  1  0.34759607  0.15676930  0.74810902  1
  O  O97  1  0.84616606  0.18639557  0.73757273  1
  O  O98  1  0.24584666  0.31009565  0.74030470  1
  O  O99  1  0.73320022  0.29851644  0.74282516  1
  O  O100  1  0.41335511  0.51251809  0.74096985  1
  O  O101  1  0.92403024  0.53008782  0.74428055  1
  O  O102  1  0.34654985  0.50799621  0.23729868  1
  O  O103  1  0.84948368  0.53972481  0.24598888  1
  O  O104  1  0.42009307  0.31430895  0.24148674  1
  O  O105  1  0.91342091  0.31440807  0.24068010  1
  O  O106  1  0.23326517  0.16760424  0.24205872  1
  O  O107  1  0.74545894  0.17816903  0.23946660  1
  O  O108  1  0.31710616  0.48966924  0.92683451  1
  O  O109  1  0.81648888  0.49126718  0.92113745  1
  O  O110  1  0.42999804  0.35869836  0.92224680  1
  O  O111  1  0.92269353  0.34701906  0.92413592  1
  O  O112  1  0.24534587  0.13140940  0.92231674  1
  O  O113  1  0.74686364  0.12761043  0.92335809  1
  O  O114  1  0.31530484  0.13929309  0.42151439  1
  O  O115  1  0.82244804  0.14799673  0.42886356  1
  O  O116  1  0.24681325  0.36594546  0.42355200  1
  O  O117  1  0.75025545  0.36030518  0.42072571  1
  O  O118  1  0.42215652  0.49371444  0.42539601  1
  O  O119  1  0.93135872  0.50256765  0.42136848  1
  O  O120  1  0.18015190  0.48945306  0.08050687  1
  O  O121  1  0.68220397  0.51484017  0.07837274  1
  O  O122  1  0.07380412  0.64946647  0.07668456  1
  O  O123  1  0.56848825  0.64427476  0.07613280  1
  O  O124  1  0.24638848  0.85580652  0.07946053  1
  O  O125  1  0.75156170  0.86518558  0.07733787  1
  O  O126  1  0.18261080  0.84991407  0.57897488  1
  O  O127  1  0.67924510  0.87039657  0.58140347  1
  O  O128  1  0.25214337  0.63865406  0.57819915  1
  O  O129  1  0.74730568  0.64193636  0.58269359  1
  O  O130  1  0.06884574  0.49309383  0.57784864  1
  O  O131  1  0.57379332  0.50358042  0.58150153  1
  O  O132  1  0.15384579  0.84601282  0.25196409  1
  O  O133  1  0.65269484  0.81371091  0.25621205  1
  O  O134  1  0.25321612  0.68132771  0.25826228  1
  O  O135  1  0.76761069  0.69894855  0.25360928  1
  O  O136  1  0.08669820  0.48904838  0.25474192  1
  O  O137  1  0.57852512  0.46718082  0.25187007  1
  O  O138  1  0.15164109  0.48396827  0.75445850  1
  O  O139  1  0.65370255  0.46163170  0.75318930  1
  O  O140  1  0.08294635  0.69697444  0.75598583  1
  O  O141  1  0.58679168  0.68475014  0.75504932  1
  O  O142  1  0.26305208  0.83584007  0.75895617  1
  O  O143  1  0.75279513  0.82488663  0.75856997  1
loop_
_geom_bond_atom_site_label_1
_geom_bond_atom_site_label_2
_geom_bond_distance
_geom_bond_site_symmetry_2
Na0 O136 2.301890 1_655
Na0 O105 2.320630 1_555
Na0 O103 2.364055 1_555
Na0 O132 2.421075 1_655
Na0 O60 2.476869 1_655
Na0 O31 2.570244 1_555
Na1 O133 2.305382 1_555
Na1 O102 2.380919 1_555
Na1 O61 2.451027 1_555
Na1 O137 2.530329 1_555
Na1 O104 2.530696 1_555
Na1 O2 2.582366 1_555
Na1 O23 2.768430 1_555
Na1 O30 2.883326 1_555
Na2 O138 2.312442 1_655
Na2 O97 2.349887 1_555
Na2 O101 2.461761 1_555
Na2 O140 2.575638 1_655
Na2 O66 2.594683 1_655
Na2 O11 2.644464 1_555
Na2 O25 2.711071 1_555
Na2 O14 2.735947 1_655
Na3 O141 2.314633 1_555
Na3 O100 2.320589 1_555
Na3 O96 2.388524 1_555
Na3 O139 2.416982 1_555
Na3 O24 2.485416 1_555
Na3 O67 2.552307 1_555
Na4 O126 2.307167 1_555
Na4 O84 2.336269 1_565
Na4 O88 2.439310 1_555
Na4 O128 2.514905 1_555
Na4 O54 2.553182 1_555
Na4 O46 2.650647 1_565
Na4 O12 2.770893 1_555
Na4 O26 2.800296 1_565
Na5 O121 2.292423 1_555
Na5 O91 2.352638 1_555
Na5 O93 2.441940 1_565
Na5 O125 2.513598 1_555
Na5 O49 2.594854 1_554
Na5 O39 2.699961 1_555
Na5 O19 2.712917 1_555
Na5 O35 2.736131 1_555
Na6 O89 2.518929 1_555
Na6 O86 2.535803 1_665
Na6 O75 2.555670 1_555
Na6 O72 2.560692 1_655
Na6 O85 2.657659 1_565
Na6 O76 2.664851 1_665
Na7 O73 2.483415 1_545
Na7 O77 2.542799 1_555
Na7 O87 2.605936 1_555
Na7 O84 2.608236 1_555
Na7 O74 2.621215 1_545
Na7 O88 2.659436 1_545
Na8 O91 2.526269 1_555
Na8 O78 2.530301 1_664
Na8 O93 2.538126 1_565
Na8 O94 2.575351 1_665
Na8 O83 2.617480 1_554
Na8 O80 2.678854 1_654
Na9 O95 2.468476 1_555
Na9 O92 2.472645 1_555
Na9 O79 2.552539 1_554
Na9 O82 2.606330 1_544
Na9 O90 2.611950 1_545
Na9 O81 2.682500 1_544
Na10 O98 2.301405 1_555
Na10 O100 2.329470 1_555
Na10 O96 2.506570 1_555
Na10 O108 2.675363 1_555
Na10 O110 2.762803 1_555
Na10 O112 2.821097 1_555
Na11 O109 2.489908 1_555
Na11 O99 2.524442 1_555
Na11 O97 2.570148 1_555
Na11 O111 2.577556 1_555
Na11 O101 2.599525 1_555
Na11 O113 2.617184 1_555
Na12 O114 2.482492 1_555
Na12 O118 2.542379 1_555
Na12 O106 2.586717 1_555
Na12 O102 2.596154 1_555
Na12 O116 2.605055 1_555
Na12 O104 2.635341 1_555
Na13 O107 2.348451 1_555
Na13 O105 2.426712 1_555
Na13 O103 2.565622 1_555
Na13 O117 2.662089 1_555
Na13 O115 2.666027 1_555
Na13 O119 2.739375 1_555
Na14 O134 2.306810 1_555
Na14 O136 2.323266 1_555
Na14 O132 2.469935 1_555
Na14 O124 2.637459 1_555
Na14 O120 2.646778 1_555
Na14 O122 2.728512 1_555
Na15 O133 2.421006 1_555
Na15 O135 2.473533 1_555
Na15 O121 2.502485 1_555
Na15 O137 2.513744 1_555
Na15 O125 2.589206 1_555
Na15 O123 2.650340 1_555
Na16 O126 2.410708 1_555
Na16 O138 2.495015 1_555
Na16 O128 2.513110 1_555
Na16 O130 2.544467 1_555
Na16 O142 2.616295 1_555
Na16 O140 2.627466 1_555
Na17 O143 2.408978 1_555
Na17 O141 2.419895 1_555
Na17 O129 2.485062 1_555
Na17 O131 2.539210 1_555
Na17 O127 2.539666 1_555
Na17 O139 2.560444 1_555
Al0 O17 1.740521 1_555
Al0 O84 1.830875 1_565
Al0 O87 1.960186 1_565
Al0 O15 1.962463 1_565
Al0 O88 2.087367 1_555
Al0 O12 2.189624 1_555
Al1 O20 1.742390 1_555
Al1 O91 1.855831 1_445
Al1 O22 1.923898 1_545
Al1 O19 1.975933 1_445
Al1 O94 2.101619 1_555
Al1 O93 2.125646 1_455
Al2 O26 1.842624 1_555
Al2 O24 1.847466 1_555
Al2 O98 1.871959 1_555
Al2 O100 1.905290 1_555
Al2 O28 1.947957 1_555
Al2 O96 2.221852 1_555
Al3 O29 1.739933 1_555
Al3 O97 1.823478 1_555
Al3 O27 1.855889 1_555
Al3 O99 1.990434 1_555
Al3 O25 2.116893 1_555
Al3 O101 2.222735 1_555
Al4 O32 1.761902 1_555
Al4 O102 1.812870 1_555
Al4 O106 1.930649 1_555
Al4 O34 1.944408 1_555
Al4 O104 2.053948 1_555
Al4 O30 2.161132 1_555
Al5 O35 1.853146 1_555
Al5 O107 1.854018 1_555
Al5 O31 1.883661 1_555
Al5 O105 1.885232 1_555
Al5 O33 1.987979 1_555
Al5 O103 2.172276 1_555
Al6 O51 1.751551 1_554
Al6 O49 1.786913 1_554
Al6 O121 1.821303 1_555
Al6 O53 2.180754 1_554
Al6 O125 2.225208 1_555
Al6 O123 2.262126 1_555
Al7 O58 1.741686 1_555
Al7 O54 1.775650 1_555
Al7 O126 1.830993 1_555
Al7 O56 2.197762 1_555
Al7 O128 2.246239 1_555
Al7 O130 2.271114 1_555
Al8 O62 1.816107 1_555
Al8 O60 1.849361 1_555
Al8 O134 1.866572 1_555
Al8 O136 1.913577 1_555
Al8 O64 1.966714 1_555
Al8 O132 2.205675 1_555
Al9 O63 1.774384 1_555
Al9 O65 1.813113 1_555
Al9 O61 1.840589 1_555
Al9 O133 1.889492 1_555
Al9 O135 2.259079 1_555
Al9 O137 2.317599 1_555
Al10 O70 1.753672 1_555
Al10 O138 1.810482 1_555
Al10 O66 1.820047 1_555
Al10 O142 2.112197 1_555
Al10 O140 2.182596 1_555
Al10 O68 2.193382 1_555
Al11 O71 1.832926 1_555
Al11 O67 1.854945 1_555
Al11 O143 1.858650 1_555
Al11 O141 1.895929 1_555
Al11 O69 1.993731 1_555
Al11 O139 2.173970 1_555
O0 S0 1.487326 1_555
O0 Ta0 2.190620 1_455
O1 Si0 1.654189 1_555
O1 Ta1 1.948450 1_545
O2 Si1 1.654011 1_555
O2 Ta1 1.966083 1_555
O3 S1 1.525662 1_555
O3 Ta0 2.053085 1_565
O4 S2 1.458945 1_555
O4 Ta1 2.236656 1_545
O5 Si2 1.691123 1_655
O5 Ta0 1.869852 1_555
O6 Si3 1.672457 1_555
O6 Ta2 1.931078 1_455
O7 S3 1.499992 1_555
O7 Ta3 2.150630 1_545
O8 Si4 1.700534 1_555
O8 Ta3 1.862478 1_555
O9 S4 1.486899 1_655
O9 Ta2 2.162655 1_565
O10 S5 1.537232 1_545
O10 Ta3 2.032153 1_545
O11 Si5 1.702492 1_545
O11 Ta2 1.876878 1_555
O12 S5 1.469989 1_555
O13 Si5 1.644832 1_555
O13 Ta4 1.936920 1_565
O14 Si3 1.656433 1_555
O14 Ta4 1.923877 1_455
O15 S3 1.481862 1_555
O16 S4 1.486394 1_555
O16 Ta4 2.100597 1_465
O17 Si4 1.609253 1_555
O18 Si1 1.670983 1_555
O18 Ta5 1.912064 1_555
O19 S1 1.492131 1_555
O20 Si2 1.618293 1_555
O21 S2 1.509927 1_555
O21 Ta5 2.030896 1_545
O22 S0 1.489719 1_565
O23 Si0 1.692822 1_565
O23 Ta5 1.902731 1_555
O24 Si6 1.596020 1_555
O25 S6 1.484300 1_555
O26 Si7 1.601221 1_555
O27 S7 1.486510 1_555
O28 S8 1.469044 1_555
O29 Si8 1.597871 1_555
O30 S9 1.456159 1_555
O31 Si9 1.587958 1_555
O32 Si10 1.586445 1_555
O33 S10 1.456850 1_555
O34 S11 1.460823 1_555
O35 Si11 1.600207 1_555
O36 S11 1.482998 1_555
O36 Ta6 2.240540 1_554
O37 Si11 1.674416 1_555
O37 Ta7 1.904232 1_554
O38 S9 1.519686 1_555
O38 Ta6 2.032500 1_554
O39 Si9 1.698143 1_555
O39 Ta7 1.893191 1_554
O40 Si10 1.663523 1_555
O40 Ta6 1.880962 1_554
O41 S10 1.499579 1_555
O41 Ta7 2.171354 1_554
O42 Si7 1.658878 1_555
O42 Ta8 1.918258 1_555
O43 S7 1.469637 1_555
O43 Ta9 2.263996 1_555
O44 S8 1.489584 1_555
O44 Ta8 2.206502 1_555
O45 Si8 1.644513 1_555
O45 Ta9 1.909007 1_555
O46 Si6 1.699871 1_555
O46 Ta8 1.893839 1_555
O47 S6 1.471275 1_555
O47 Ta9 2.190996 1_555
O48 Si12 1.630646 1_555
O48 Ta10 1.937928 1_556
O49 Si13 1.626147 1_555
O50 Si14 1.637589 1_555
O50 Ta10 1.928042 1_556
O51 Si15 1.599144 1_555
O52 S12 1.484936 1_555
O52 Ta10 2.105703 1_556
O53 S13 1.461611 1_555
O54 Si16 1.627925 1_555
O55 Si17 1.625685 1_555
O55 Ta11 1.950539 1_555
O56 S14 1.451841 1_555
O57 Si18 1.655839 1_555
O57 Ta11 1.869218 1_555
O58 Si19 1.600200 1_555
O59 Si20 1.630726 1_555
O59 Ta11 1.939292 1_555
O60 Si19 1.597783 1_555
O61 Si20 1.607402 1_555
O62 Si16 1.586838 1_555
O63 Si17 1.586994 1_555
O64 S14 1.466158 1_555
O65 Si18 1.587937 1_555
O66 Si14 1.611633 1_555
O67 Si15 1.591815 1_555
O68 S12 1.455042 1_555
O69 S13 1.454039 1_555
O70 Si12 1.583708 1_555
O71 Si13 1.584638 1_555
O72 Si19 1.659595 1_555
O72 Ta0 1.947505 1_465
O73 Si20 1.647143 1_555
O73 Ta1 1.895835 1_555
O74 Si16 1.643527 1_555
O74 Ta1 1.956092 1_555
O75 Si17 1.678408 1_555
O75 Ta0 1.882555 1_565
O76 S14 1.533069 1_555
O76 Ta0 2.054567 1_455
O77 Si18 1.620326 1_555
O77 Ta1 1.963854 1_545
O78 Si14 1.662700 1_555
O78 Ta2 1.910707 1_455
O79 Si15 1.650984 1_555
O79 Ta3 1.966538 1_545
O80 S12 1.476495 1_555
O80 Ta2 2.232710 1_465
O81 S13 1.531804 1_555
O81 Ta3 2.056838 1_555
O82 Si12 1.659631 1_555
O82 Ta3 1.905810 1_555
O83 Si13 1.673029 1_555
O83 Ta2 1.947591 1_565
O84 Si6 1.646514 1_555
O85 S6 1.526292 1_555
O85 Ta4 2.041577 1_555
O86 Si7 1.646527 1_555
O86 Ta4 1.947910 1_455
O87 S7 1.487290 1_555
O88 S8 1.505298 1_555
O89 Si8 1.642916 1_555
O89 Ta4 1.939429 1_565
O90 S9 1.506051 1_555
O90 Ta5 2.114837 1_555
O91 Si9 1.641494 1_555
O92 Si10 1.626765 1_555
O92 Ta5 1.991987 1_545
O93 S10 1.505162 1_555
O94 S11 1.469004 1_555
O95 Si11 1.641198 1_555
O95 Ta5 1.978392 1_545
O96 S5 1.472257 1_545
O97 Si5 1.639597 1_545
O98 Si3 1.587399 1_555
O99 S3 1.487277 1_555
O100 Si4 1.627912 1_555
O101 S4 1.482152 1_655
O102 Si1 1.648929 1_555
O103 S1 1.470898 1_555
O104 S2 1.493593 1_555
O105 Si2 1.627397 1_655
O106 S0 1.485911 1_555
O107 Si0 1.593023 1_555
O108 Si12 1.641902 1_555
O108 Ta6 1.939684 1_555
O109 Si13 1.688870 1_555
O109 Ta7 1.898839 1_555
O110 Si15 1.718142 1_555
O110 Ta6 1.851867 1_555
O111 Si14 1.634830 1_655
O111 Ta7 1.998909 1_555
O112 S12 1.515382 1_545
O112 Ta6 2.070317 1_555
O113 S13 1.494176 1_545
O113 Ta7 2.197682 1_555
O114 Si16 1.697535 1_545
O114 Ta8 1.891212 1_555
O115 Si17 1.629568 1_545
O115 Ta9 1.930433 1_555
O116 S14 1.491880 1_555
O116 Ta8 2.206365 1_555
O117 Si18 1.662232 1_555
O117 Ta9 1.887578 1_555
O118 Si20 1.644133 1_555
O118 Ta8 1.962441 1_555
O119 Si19 1.685204 1_655
O119 Ta9 1.869710 1_555
O120 S11 1.521985 1_555
O120 Ta10 2.045094 1_555
O121 Si11 1.650313 1_555
O122 Si9 1.644063 1_455
O122 Ta10 1.942839 1_555
O123 S9 1.464138 1_555
O124 Si10 1.641812 1_565
O124 Ta10 1.947159 1_555
O125 S10 1.494240 1_565
O126 Si7 1.647143 1_565
O127 S7 1.482978 1_565
O127 Ta11 2.230773 1_555
O128 S8 1.490825 1_555
O129 Si8 1.628727 1_555
O129 Ta11 1.989338 1_555
O130 S6 1.465077 1_455
O131 Si6 1.628829 1_555
O131 Ta11 1.985569 1_555
O132 S0 1.468487 1_565
O133 Si0 1.640064 1_565
O134 Si1 1.589840 1_555
O135 S1 1.457325 1_555
O136 Si2 1.628626 1_555
O137 S2 1.473695 1_555
O138 Si3 1.644485 1_555
O139 S3 1.468936 1_555
O140 S4 1.484638 1_555
O141 Si4 1.626943 1_555
O142 S5 1.474986 1_555
O143 Si5 1.578369 1_555
