# generated using pymatgen
data_Li2CoP2O7
_symmetry_space_group_name_H-M   'P 1'
_cell_length_a   13.40636100
_cell_length_b   5.08447300
_cell_length_c   9.36191658
_cell_angle_alpha   59.68378415
_cell_angle_beta   90.00000000
_cell_angle_gamma   90.00000000
_symmetry_Int_Tables_number   1
_chemical_formula_structural   Li2CoP2O7
_chemical_formula_sum   'Li8 Co4 P8 O28'
_cell_volume   550.88326598
_cell_formula_units_Z   4
loop_
 _symmetry_equiv_pos_site_id
 _symmetry_equiv_pos_as_xyz
  1  'x, y, z'
loop_
 _atom_site_type_symbol
 _atom_site_label
 _atom_site_symmetry_multiplicity
 _atom_site_fract_x
 _atom_site_fract_y
 _atom_site_fract_z
 _atom_site_occupancy
  Li  Li0  1  0.30154200  0.57581800  0.16493700  1
  Li  Li1  1  0.69845800  0.42418200  0.83506300  1
  Li  Li2  1  0.61049000  0.03381500  0.63686200  1
  Li  Li3  1  0.88951000  0.03381500  0.13686200  1
  Li  Li4  1  0.80154200  0.42418200  0.33506300  1
  Li  Li5  1  0.38951000  0.96618500  0.36313800  1
  Li  Li6  1  0.19845800  0.57581800  0.66493700  1
  Li  Li7  1  0.11049000  0.96618500  0.86313800  1
  Co  Co0  1  0.33989100  0.96185300  0.73694500  1
  Co  Co1  1  0.66010900  0.03814700  0.26305500  1
  Co  Co2  1  0.16010900  0.96185300  0.23694500  1
  Co  Co3  1  0.83989100  0.03814700  0.76305500  1
  P  P0  1  0.47139000  0.47370400  0.72477200  1
  P  P1  1  0.82125200  0.73256200  0.53315800  1
  P  P2  1  0.67874800  0.73256200  0.03315800  1
  P  P3  1  0.97139000  0.52629600  0.77522800  1
  P  P4  1  0.02861000  0.47370400  0.22477200  1
  P  P5  1  0.17874800  0.26743800  0.46684200  1
  P  P6  1  0.32125200  0.26743800  0.96684200  1
  P  P7  1  0.52861000  0.52629600  0.27522800  1
  O  O0  1  0.57436100  0.59691700  0.71889600  1
  O  O1  1  0.42563900  0.40308300  0.28110400  1
  O  O2  1  0.76935300  0.79879300  0.65793800  1
  O  O3  1  0.21092900  0.57205600  0.45129600  1
  O  O4  1  0.10713800  0.72808200  0.12776800  1
  O  O5  1  0.73064700  0.79879300  0.15793800  1
  O  O6  1  0.78907100  0.42794400  0.54870400  1
  O  O7  1  0.23064700  0.20120700  0.34206200  1
  O  O8  1  0.19129700  0.00057000  0.64519100  1
  O  O9  1  0.89286200  0.27191800  0.87223200  1
  O  O10  1  0.28907100  0.57205600  0.95129600  1
  O  O11  1  0.71092900  0.42794400  0.04870400  1
  O  O12  1  0.92563900  0.59691700  0.21889600  1
  O  O13  1  0.69129700  0.99943000  0.85480900  1
  O  O14  1  0.39286200  0.72808200  0.62776800  1
  O  O15  1  0.07436100  0.40308300  0.78110400  1
  O  O16  1  0.43851600  0.30442300  0.92222200  1
  O  O17  1  0.06148400  0.30442300  0.42222200  1
  O  O18  1  0.60713800  0.27191800  0.37223200  1
  O  O19  1  0.80870300  0.99943000  0.35480900  1
  O  O20  1  0.46490700  0.21894200  0.68132600  1
  O  O21  1  0.96490700  0.78105800  0.81867400  1
  O  O22  1  0.26935300  0.20120700  0.84206200  1
  O  O23  1  0.93851600  0.69557700  0.57777800  1
  O  O24  1  0.53509300  0.78105800  0.31867400  1
  O  O25  1  0.56148400  0.69557700  0.07777800  1
  O  O26  1  0.30870300  0.00057000  0.14519100  1
  O  O27  1  0.03509300  0.21894200  0.18132600  1
loop_
_geom_bond_atom_site_label_1
_geom_bond_atom_site_label_2
_geom_bond_distance
_geom_bond_site_symmetry_2
Li0 O1 1.938478 1_555
Li0 O10 2.016754 1_554
Li0 O7 2.022962 1_555
Li0 O26 2.074703 1_565
Li1 O0 1.938478 1_555
Li1 O11 2.016754 1_556
Li1 O2 2.022962 1_555
Li1 O13 2.074703 1_545
Li2 O0 2.009158 1_545
Li2 O18 2.139505 1_555
Li2 O13 2.237694 1_545
Li2 O20 2.294367 1_555
Li2 O2 2.400995 1_545
Li3 O12 2.009158 1_545
Li3 O9 2.139505 1_554
Li3 O19 2.237694 1_545
Li3 O27 2.294367 1_655
Li3 O5 2.400995 1_545
Li4 O12 1.938478 1_555
Li4 O6 2.016754 1_555
Li4 O5 2.022962 1_555
Li4 O19 2.074703 1_545
Li5 O1 2.009158 1_565
Li5 O14 2.139505 1_555
Li5 O26 2.237694 1_565
Li5 O24 2.294367 1_555
Li5 O7 2.400995 1_565
Li6 O15 1.938478 1_555
Li6 O3 2.016754 1_555
Li6 O22 2.022962 1_555
Li6 O8 2.074703 1_565
Li7 O15 2.009158 1_565
Li7 O4 2.139505 1_556
Li7 O8 2.237694 1_565
Li7 O21 2.294367 1_455
Li7 O22 2.400995 1_565
Co0 O20 2.025259 1_565
Co0 O14 2.046524 1_555
Co0 O10 2.098575 1_555
Co0 O22 2.133739 1_565
Co0 O8 2.138783 1_565
Co1 O24 2.025259 1_545
Co1 O18 2.046524 1_555
Co1 O11 2.098575 1_555
Co1 O5 2.133739 1_545
Co1 O19 2.138783 1_545
Co2 O27 2.025259 1_565
Co2 O4 2.046524 1_555
Co2 O3 2.098575 1_555
Co2 O7 2.133739 1_565
Co2 O26 2.138783 1_565
Co3 O21 2.025259 1_545
Co3 O9 2.046524 1_555
Co3 O6 2.098575 1_555
Co3 O2 2.133739 1_545
Co3 O13 2.138783 1_545
O0 P0 1.505454 1_555
O1 P7 1.505454 1_555
O2 P1 1.535998 1_555
O3 P5 1.542270 1_555
O4 P4 1.555668 1_555
O5 P2 1.535998 1_555
O6 P1 1.542270 1_555
O7 P5 1.535998 1_555
O8 P5 1.539513 1_555
O9 P3 1.555668 1_555
O10 P6 1.542270 1_555
O11 P2 1.542270 1_555
O12 P4 1.505454 1_655
O13 P2 1.539513 1_556
O14 P0 1.555668 1_555
O15 P3 1.505454 1_455
O16 P6 1.613073 1_555
O16 P0 1.657055 1_555
O17 P5 1.613073 1_555
O17 P4 1.657055 1_555
O18 P7 1.555668 1_555
O19 P1 1.539513 1_555
O20 P0 1.543619 1_555
O21 P3 1.543619 1_555
O22 P6 1.535998 1_555
O23 P1 1.613073 1_555
O23 P3 1.657055 1_555
O24 P7 1.543619 1_555
O25 P2 1.613073 1_555
O25 P7 1.657055 1_555
O26 P6 1.539513 1_554
O27 P4 1.543619 1_555
