# generated using pymatgen
data_Na3Ca2P(SO6)2
_symmetry_space_group_name_H-M   'P 1'
_cell_length_a   9.40064337
_cell_length_b   9.41235270
_cell_length_c   23.24708381
_cell_angle_alpha   90.17120415
_cell_angle_beta   90.00000000
_cell_angle_gamma   119.95885609
_symmetry_Int_Tables_number   1
_chemical_formula_structural   Na3Ca2P(SO6)2
_chemical_formula_sum   'Na18 Ca12 P6 S12 O72'
_cell_volume   1782.10055867
_cell_formula_units_Z   6
loop_
 _symmetry_equiv_pos_site_id
 _symmetry_equiv_pos_as_xyz
  1  'x, y, z'
loop_
 _atom_site_type_symbol
 _atom_site_label
 _atom_site_symmetry_multiplicity
 _atom_site_fract_x
 _atom_site_fract_y
 _atom_site_fract_z
 _atom_site_occupancy
  Na  Na0  1  0.62411987  0.99408395  0.25664233  1
  Na  Na1  1  0.01247457  0.65024525  0.24231818  1
  Na  Na2  1  0.63777068  0.65024525  0.74231818  1
  Na  Na3  1  0.36996408  0.99408395  0.75664233  1
  Na  Na4  1  0.31849370  0.34495550  0.58490577  1
  Na  Na5  1  0.66004605  0.95511358  0.58316058  1
  Na  Na6  1  0.29506852  0.95511358  0.08316058  1
  Na  Na7  1  0.02646281  0.34495550  0.08490577  1
  Na  Na8  1  0.98329438  0.67701784  0.92494364  1
  Na  Na9  1  0.68345933  0.02656451  0.90716130  1
  Na  Na10  1  0.34310417  0.02656451  0.40716130  1
  Na  Na11  1  0.69372246  0.67701784  0.42494364  1
  Na  Na12  1  0.97493436  0.98720271  0.50002272  1
  Na  Na13  1  0.01226835  0.98720271  0.00002272  1
  Na  Na14  1  0.65669249  0.31013580  0.83336463  1
  Na  Na15  1  0.65344432  0.31013580  0.33336463  1
  Na  Na16  1  0.33384179  0.66245039  0.16670182  1
  Na  Na17  1  0.32860760  0.66245039  0.66670182  1
  Ca  Ca0  1  0.00717024  0.01359525  0.34786893  1
  Ca  Ca1  1  0.00642501  0.01359525  0.84786893  1
  Ca  Ca2  1  0.98915043  0.99098859  0.65181807  1
  Ca  Ca3  1  0.00183816  0.99098859  0.15181807  1
  Ca  Ca4  1  0.68178330  0.33863751  0.68149182  1
  Ca  Ca5  1  0.65685520  0.33863751  0.18149182  1
  Ca  Ca6  1  0.65852914  0.33894431  0.98537701  1
  Ca  Ca7  1  0.68041617  0.33894431  0.48537701  1
  Ca  Ca8  1  0.33716274  0.66787348  0.01422885  1
  Ca  Ca9  1  0.33070974  0.66787348  0.51422885  1
  Ca  Ca10  1  0.33113324  0.66177411  0.31924811  1
  Ca  Ca11  1  0.33063988  0.66177411  0.81924811  1
  P  P0  1  0.30873695  0.99563678  0.25122696  1
  P  P1  1  0.68689983  0.99563678  0.75122696  1
  P  P2  1  0.66136262  0.63847056  0.58298798  1
  P  P3  1  0.97710894  0.63847056  0.08298798  1
  P  P4  1  0.33330178  0.97085892  0.91659242  1
  P  P5  1  0.63755614  0.97085892  0.41659242  1
  S  S0  1  0.69990251  0.70016648  0.25314680  1
  S  S1  1  0.99598783  0.30573575  0.24589231  1
  S  S2  1  0.30974792  0.30573575  0.74589231  1
  S  S3  1  0.00026398  0.70016648  0.75314680  1
  S  S4  1  0.97623673  0.33032737  0.58376659  1
  S  S5  1  0.36565050  0.03493889  0.58325840  1
  S  S6  1  0.66928939  0.03493889  0.08325840  1
  S  S7  1  0.35409164  0.33032737  0.08376659  1
  S  S8  1  0.64334992  0.66975863  0.91384804  1
  S  S9  1  0.02394180  0.36043738  0.91951195  1
  S  S10  1  0.33649457  0.36043738  0.41951195  1
  S  S11  1  0.02640771  0.66975863  0.41384804  1
  O  O0  1  0.22439997  0.00600842  0.30702009  1
  O  O1  1  0.79223746  0.77877276  0.30688967  1
  O  O2  1  0.98180955  0.20115278  0.29542932  1
  O  O3  1  0.21934323  0.20115278  0.79542932  1
  O  O4  1  0.98653530  0.77877276  0.80688967  1
  O  O5  1  0.78160845  0.00600842  0.80702009  1
  O  O6  1  0.77726540  0.98320374  0.69738359  1
  O  O7  1  0.22162748  0.22998799  0.69140253  1
  O  O8  1  0.02177612  0.80721487  0.70329956  1
  O  O9  1  0.78543875  0.80721487  0.20329956  1
  O  O10  1  0.00836051  0.22998799  0.19140253  1
  O  O11  1  0.20593834  0.98320374  0.19738359  1
  O  O12  1  0.89652472  0.34409813  0.63605126  1
  O  O13  1  0.46706858  0.11707822  0.63512672  1
  O  O14  1  0.65219639  0.53955737  0.63757179  1
  O  O15  1  0.88736198  0.53955737  0.13757179  1
  O  O16  1  0.65001064  0.11707822  0.13512672  1
  O  O17  1  0.44757442  0.34409813  0.13605126  1
  O  O18  1  0.43710138  0.31302750  0.03235259  1
  O  O19  1  0.88238901  0.55105544  0.02760197  1
  O  O20  1  0.68281755  0.13197674  0.03095159  1
  O  O21  1  0.44916020  0.13197674  0.53095159  1
  O  O22  1  0.66866743  0.55105544  0.52760197  1
  O  O23  1  0.87592711  0.31302750  0.53235259  1
  O  O24  1  0.55000227  0.67750453  0.96372656  1
  O  O25  1  0.11382162  0.43489457  0.97383419  1
  O  O26  1  0.31700053  0.86714552  0.97091060  1
  O  O27  1  0.55014399  0.86714552  0.47091060  1
  O  O28  1  0.32107196  0.43489457  0.47383419  1
  O  O29  1  0.12750125  0.67750453  0.46372656  1
  O  O30  1  0.10024417  0.65328514  0.35971894  1
  O  O31  1  0.53423870  0.88343147  0.36189167  1
  O  O32  1  0.34343678  0.46069766  0.36988529  1
  O  O33  1  0.11725988  0.46069766  0.86988529  1
  O  O34  1  0.34919177  0.88343147  0.86189167  1
  O  O35  1  0.55303996  0.65328514  0.85971894  1
  O  O36  1  0.01964861  0.82616135  0.41422317  1
  O  O37  1  0.80831743  0.98141528  0.41447209  1
  O  O38  1  0.19674399  0.18906107  0.41580234  1
  O  O39  1  0.99231708  0.18906107  0.91580234  1
  O  O40  1  0.17309785  0.98141528  0.91447209  1
  O  O41  1  0.80651273  0.82616135  0.91422317  1
  O  O42  1  0.99299905  0.17943548  0.58539917  1
  O  O43  1  0.20358126  0.02610192  0.58705357  1
  O  O44  1  0.81001152  0.81741431  0.58334584  1
  O  O45  1  0.00740280  0.81741431  0.08334584  1
  O  O46  1  0.82252066  0.02610192  0.08705357  1
  O  O47  1  0.18643644  0.17943548  0.08539917  1
  O  O48  1  0.65614938  0.14387075  0.74942974  1
  O  O49  1  0.47635731  0.32035315  0.74619264  1
  O  O50  1  0.84596881  0.53981981  0.74784735  1
  O  O51  1  0.69385200  0.53981981  0.24784735  1
  O  O52  1  0.84399683  0.32035315  0.24619264  1
  O  O53  1  0.48772237  0.14387075  0.24942974  1
  O  O54  1  0.67600419  0.53086113  0.91763608  1
  O  O55  1  0.86020039  0.35259701  0.91916204  1
  O  O56  1  0.49433179  0.14053685  0.91882401  1
  O  O57  1  0.64620607  0.14053685  0.41882401  1
  O  O58  1  0.49239762  0.35259701  0.41916204  1
  O  O59  1  0.85485794  0.53086113  0.41763608  1
  O  O60  1  0.33001501  0.47477721  0.08027494  1
  O  O61  1  0.15107458  0.65059711  0.08366159  1
  O  O62  1  0.52076598  0.86895399  0.08017564  1
  O  O63  1  0.34818701  0.86895399  0.58017564  1
  O  O64  1  0.49952152  0.65059711  0.58366159  1
  O  O65  1  0.14476120  0.47477721  0.58027494  1
  O  O66  1  0.31995276  0.83346935  0.25051004  1
  O  O67  1  0.53258904  0.67957581  0.25466303  1
  O  O68  1  0.14047288  0.47369202  0.25079358  1
  O  O69  1  0.33321814  0.47369202  0.75079358  1
  O  O70  1  0.14698577  0.67957581  0.75466303  1
  O  O71  1  0.51351559  0.83346935  0.75051004  1
loop_
_geom_bond_atom_site_label_1
_geom_bond_atom_site_label_2
_geom_bond_distance
_geom_bond_site_symmetry_2
Na0 O53 2.338115 1_565
Na0 O66 2.482566 1_555
Na0 O31 2.630875 1_555
Na0 O67 2.638340 1_555
Na0 O52 2.725246 1_565
Na1 O68 2.499444 1_555
Na1 O66 2.526804 1_555
Na1 O51 2.638157 1_455
Na1 O15 2.675668 1_455
Na1 O52 2.692198 1_455
Na1 O30 2.847142 1_555
Na1 O11 2.923578 1_555
Na2 O69 2.499452 1_555
Na2 O71 2.526811 1_555
Na2 O50 2.638166 1_555
Na2 O14 2.675671 1_555
Na2 O49 2.692198 1_555
Na2 O35 2.847145 1_555
Na2 O6 2.923578 1_555
Na3 O48 2.338123 1_565
Na3 O71 2.482558 1_555
Na3 O34 2.630874 1_555
Na3 O70 2.638342 1_555
Na3 O49 2.725244 1_565
Na4 O65 2.483140 1_555
Na4 O64 2.506751 1_555
Na4 O43 2.634261 1_555
Na4 O42 2.651227 1_455
Na4 O7 2.676063 1_555
Na4 O28 2.716059 1_555
Na5 O44 2.343547 1_555
Na5 O64 2.484528 1_555
Na5 O63 2.623421 1_555
Na5 O42 2.767017 1_565
Na5 O27 2.774002 1_555
Na5 O6 2.835469 1_555
Na6 O45 2.343555 1_555
Na6 O61 2.484527 1_555
Na6 O62 2.623403 1_555
Na6 O47 2.767024 1_565
Na6 O26 2.773998 1_554
Na6 O11 2.835472 1_555
Na7 O60 2.483123 1_555
Na7 O61 2.506753 1_555
Na7 O46 2.634262 1_455
Na7 O47 2.651219 1_555
Na7 O10 2.676062 1_555
Na7 O25 2.716056 1_554
Na8 O54 2.509118 1_555
Na8 O40 2.519937 1_655
Na8 O19 2.625745 1_556
Na8 O41 2.669573 1_555
Na8 O55 2.673913 1_555
Na8 O4 2.904578 1_555
Na8 O26 2.926966 1_655
Na9 O56 2.507678 1_555
Na9 O39 2.524411 1_555
Na9 O5 2.546349 1_555
Na9 O41 2.665375 1_545
Na9 O55 2.675454 1_555
Na9 O34 2.925772 1_545
Na9 O20 3.042185 1_556
Na10 O57 2.507695 1_555
Na10 O38 2.524403 1_555
Na10 O0 2.546345 1_555
Na10 O36 2.665367 1_545
Na10 O58 2.675454 1_555
Na10 O31 2.925772 1_545
Na10 O21 3.042188 1_555
Na11 O59 2.509135 1_555
Na11 O37 2.519935 1_555
Na11 O22 2.625748 1_555
Na11 O36 2.669581 1_655
Na11 O58 2.673911 1_555
Na11 O1 2.904579 1_555
Na11 O27 2.926966 1_555
Na12 O44 2.500716 1_555
Na12 O37 2.515106 1_555
Na12 O42 2.629360 1_565
Na12 O36 2.659125 1_655
Na12 O38 2.802937 1_665
Na12 O43 2.838496 1_665
Na13 O45 2.500716 1_555
Na13 O40 2.515106 1_554
Na13 O47 2.629360 1_565
Na13 O41 2.659125 1_454
Na13 O39 2.802937 1_464
Na13 O46 2.838496 1_465
Na14 O48 2.496036 1_555
Na14 O56 2.531848 1_555
Na14 O55 2.651317 1_555
Na14 O49 2.674669 1_555
Na14 O54 2.790353 1_555
Na14 O50 2.824131 1_555
Na15 O53 2.496036 1_555
Na15 O57 2.531848 1_555
Na15 O58 2.651317 1_555
Na15 O52 2.674669 1_555
Na15 O59 2.790353 1_555
Na15 O51 2.824131 1_555
Na16 O61 2.549175 1_555
Na16 O66 2.568108 1_555
Na16 O60 2.659647 1_555
Na16 O68 2.660386 1_555
Na16 O67 2.719438 1_555
Na16 O62 2.742973 1_555
Na17 O64 2.549175 1_555
Na17 O71 2.568108 1_555
Na17 O65 2.659647 1_555
Na17 O69 2.660386 1_555
Na17 O70 2.719438 1_555
Na17 O63 2.742973 1_555
Ca0 O2 2.256693 1_455
Ca0 O0 2.285231 1_555
Ca0 O1 2.324284 1_445
Ca0 O37 2.328265 1_445
Ca0 O38 2.332897 1_555
Ca0 O36 2.393435 1_545
Ca1 O3 2.256693 1_555
Ca1 O5 2.285231 1_455
Ca1 O4 2.324284 1_445
Ca1 O40 2.328265 1_545
Ca1 O39 2.332897 1_455
Ca1 O41 2.393435 1_445
Ca2 O6 2.224769 1_555
Ca2 O8 2.249583 1_655
Ca2 O44 2.296830 1_555
Ca2 O42 2.341746 1_565
Ca2 O7 2.400188 1_665
Ca2 O43 2.403540 1_665
Ca3 O11 2.224769 1_555
Ca3 O9 2.249583 1_455
Ca3 O45 2.296830 1_555
Ca3 O47 2.341746 1_565
Ca3 O10 2.400188 1_565
Ca3 O46 2.403540 1_465
Ca4 O12 2.256195 1_555
Ca4 O14 2.287590 1_555
Ca4 O13 2.316750 1_555
Ca4 O50 2.326153 1_555
Ca4 O48 2.342906 1_555
Ca4 O49 2.385551 1_555
Ca5 O17 2.256195 1_555
Ca5 O15 2.287590 1_555
Ca5 O16 2.316750 1_555
Ca5 O51 2.326153 1_555
Ca5 O53 2.342906 1_555
Ca5 O52 2.385551 1_555
Ca6 O18 2.253758 1_556
Ca6 O19 2.273794 1_556
Ca6 O56 2.316793 1_555
Ca6 O20 2.329399 1_556
Ca6 O54 2.343198 1_555
Ca6 O55 2.395421 1_555
Ca7 O23 2.253758 1_555
Ca7 O22 2.273794 1_555
Ca7 O57 2.316793 1_555
Ca7 O21 2.329399 1_555
Ca7 O59 2.343198 1_555
Ca7 O58 2.395421 1_555
Ca8 O26 2.221331 1_554
Ca8 O24 2.282404 1_554
Ca8 O61 2.325826 1_555
Ca8 O25 2.342653 1_554
Ca8 O60 2.357940 1_555
Ca8 O62 2.373074 1_555
Ca9 O27 2.221331 1_555
Ca9 O29 2.282404 1_555
Ca9 O64 2.325826 1_555
Ca9 O28 2.342653 1_555
Ca9 O65 2.357940 1_555
Ca9 O63 2.373074 1_555
Ca10 O31 2.233859 1_555
Ca10 O32 2.283196 1_555
Ca10 O66 2.315434 1_555
Ca10 O30 2.330210 1_555
Ca10 O67 2.356572 1_555
Ca10 O68 2.386001 1_555
Ca11 O34 2.233859 1_555
Ca11 O33 2.283196 1_555
Ca11 O71 2.315434 1_555
Ca11 O35 2.330210 1_555
Ca11 O70 2.356572 1_555
Ca11 O69 2.386001 1_555
O0 P0 1.548199 1_545
O1 S0 1.488227 1_555
O2 S1 1.479409 1_555
O3 S2 1.479409 1_555
O4 S3 1.488227 1_655
O5 P1 1.548199 1_545
O6 P1 1.549356 1_555
O7 S2 1.484545 1_555
O8 S3 1.484050 1_555
O9 S0 1.484050 1_555
O10 S1 1.484545 1_455
O11 P0 1.549356 1_555
O12 S4 1.466881 1_555
O13 S5 1.489584 1_555
O14 P2 1.552829 1_555
O15 P3 1.552829 1_555
O16 S6 1.489584 1_555
O17 S7 1.466881 1_555
O18 S7 1.479784 1_555
O19 P3 1.545834 1_555
O20 S6 1.489841 1_555
O21 S5 1.489841 1_555
O22 P2 1.545834 1_555
O23 S4 1.479784 1_555
O24 S8 1.477591 1_555
O25 S9 1.484286 1_555
O26 P4 1.558491 1_555
O27 P5 1.558491 1_555
O28 S10 1.484286 1_555
O29 S11 1.477591 1_555
O30 S11 1.481751 1_555
O31 P5 1.559820 1_555
O32 S10 1.473351 1_555
O33 S9 1.473351 1_555
O34 P4 1.559820 1_555
O35 S8 1.481751 1_555
O36 S11 1.504855 1_555
O37 P5 1.558817 1_555
O38 S10 1.489285 1_555
O39 S9 1.489288 1_655
O40 P4 1.558807 1_555
O41 S8 1.504860 1_555
O42 S4 1.505728 1_555
O43 S5 1.486405 1_555
O44 P2 1.561674 1_555
O45 P3 1.561677 1_455
O46 S6 1.486396 1_555
O47 S7 1.505733 1_555
O48 P1 1.560496 1_545
O49 S2 1.502280 1_555
O50 S3 1.486390 1_655
O51 S0 1.486394 1_555
O52 S1 1.502271 1_555
O53 P0 1.560502 1_545
O54 S8 1.487503 1_555
O55 S9 1.503803 1_655
O56 P4 1.558769 1_545
O57 P5 1.558760 1_545
O58 S10 1.503822 1_555
O59 S11 1.487491 1_655
O60 S7 1.488076 1_555
O61 P3 1.581559 1_455
O62 S6 1.488653 1_565
O63 S5 1.488645 1_565
O64 P2 1.581578 1_555
O65 S4 1.488064 1_455
O66 P0 1.581709 1_555
O67 S0 1.486023 1_555
O68 S1 1.487059 1_455
O69 S2 1.487063 1_555
O70 S3 1.486014 1_555
O71 P1 1.581714 1_555
