# generated using pymatgen
data_LiNiPO4
_symmetry_space_group_name_H-M   'P 1'
_cell_length_a   7.39177531
_cell_length_b   7.39177531
_cell_length_c   9.46528600
_cell_angle_alpha   90.00000000
_cell_angle_beta   90.00000000
_cell_angle_gamma   119.99999384
_symmetry_Int_Tables_number   1
_chemical_formula_structural   LiNiPO4
_chemical_formula_sum   'Li6 Ni6 P6 O24'
_cell_volume   447.88025201
_cell_formula_units_Z   6
loop_
 _symmetry_equiv_pos_site_id
 _symmetry_equiv_pos_as_xyz
  1  'x, y, z'
loop_
 _atom_site_type_symbol
 _atom_site_label
 _atom_site_symmetry_multiplicity
 _atom_site_fract_x
 _atom_site_fract_y
 _atom_site_fract_z
 _atom_site_occupancy
  Li  Li0  1  0.20875800  0.94993300  0.25113600  1
  Li  Li1  1  0.05006700  0.25882500  0.25113600  1
  Li  Li2  1  0.25882500  0.05006700  0.75113600  1
  Li  Li3  1  0.74117500  0.79124200  0.25113600  1
  Li  Li4  1  0.79124200  0.74117500  0.75113600  1
  Li  Li5  1  0.94993300  0.20875800  0.75113600  1
  Ni  Ni0  1  0.06248800  0.59230900  0.47554400  1
  Ni  Ni1  1  0.52982000  0.93751200  0.47554400  1
  Ni  Ni2  1  0.40769100  0.47018000  0.47554400  1
  Ni  Ni3  1  0.47018000  0.40769100  0.97554400  1
  Ni  Ni4  1  0.59230900  0.06248800  0.97554400  1
  Ni  Ni5  1  0.93751200  0.52982000  0.97554400  1
  P  P0  1  0.00000000  0.00000000  0.00077000  1
  P  P1  1  0.66666700  0.33333300  0.67177400  1
  P  P2  1  0.66666700  0.33333300  0.27632500  1
  P  P3  1  0.33333300  0.66666700  0.77632500  1
  P  P4  1  0.00000000  0.00000000  0.50077000  1
  P  P5  1  0.33333300  0.66666700  0.17177400  1
  O  O0  1  0.87480100  0.10193900  0.94153700  1
  O  O1  1  0.88880900  0.39404000  0.32467400  1
  O  O2  1  0.70780800  0.15807600  0.62320700  1
  O  O3  1  0.84192400  0.54973100  0.62320700  1
  O  O4  1  0.89806100  0.77286200  0.94153700  1
  O  O5  1  0.66666700  0.33333300  0.84248900  1
  O  O6  1  0.00000000  0.00000000  0.16323700  1
  O  O7  1  0.00000000  0.00000000  0.66323700  1
  O  O8  1  0.10193900  0.87480100  0.44153700  1
  O  O9  1  0.15807600  0.70780800  0.12320700  1
  O  O10  1  0.11119100  0.50523100  0.82467400  1
  O  O11  1  0.39404000  0.88880900  0.82467400  1
  O  O12  1  0.33333300  0.66666700  0.34248900  1
  O  O13  1  0.33333300  0.66666700  0.60701100  1
  O  O14  1  0.12519900  0.22713800  0.44153700  1
  O  O15  1  0.29219200  0.45026900  0.12320700  1
  O  O16  1  0.54973100  0.84192400  0.12320700  1
  O  O17  1  0.22713800  0.12519900  0.94153700  1
  O  O18  1  0.49476900  0.60596000  0.82467400  1
  O  O19  1  0.45026900  0.29219200  0.62320700  1
  O  O20  1  0.77286200  0.89806100  0.44153700  1
  O  O21  1  0.60596000  0.49476900  0.32467400  1
  O  O22  1  0.50523100  0.11119100  0.32467400  1
  O  O23  1  0.66666700  0.33333300  0.10701100  1
loop_
_geom_bond_atom_site_label_1
_geom_bond_atom_site_label_2
_geom_bond_distance
_geom_bond_site_symmetry_2
Li0 O8 1.934241 1_555
Li0 O6 1.944576 1_565
Li0 O22 2.023769 1_565
Li0 O9 2.034514 1_555
Li1 O14 1.934241 1_555
Li1 O6 1.944576 1_555
Li1 O1 2.023769 1_455
Li1 O15 2.034516 1_555
Li2 O17 1.934241 1_555
Li2 O7 1.944576 1_555
Li2 O11 2.023769 1_545
Li2 O19 2.034516 1_555
Li3 O20 1.934241 1_555
Li3 O6 1.944576 1_665
Li3 O21 2.023769 1_555
Li3 O16 2.034520 1_555
Li4 O4 1.934241 1_555
Li4 O7 1.944576 1_665
Li4 O18 2.023769 1_555
Li4 O3 2.034520 1_555
Li5 O0 1.934241 1_555
Li5 O7 1.944576 1_655
Li5 O10 2.023769 1_655
Li5 O2 2.034514 1_555
Ni0 O8 1.984934 1_555
Ni0 O1 1.988412 1_455
Ni0 O3 2.048779 1_455
Ni0 O13 2.181349 1_555
Ni0 O12 2.189958 1_555
Ni1 O20 1.984941 1_555
Ni1 O22 1.988409 1_565
Ni1 O2 2.048783 1_565
Ni1 O13 2.181349 1_555
Ni1 O12 2.189958 1_555
Ni2 O14 1.984936 1_555
Ni2 O21 1.988414 1_555
Ni2 O19 2.048790 1_555
Ni2 O13 2.181349 1_555
Ni2 O12 2.189958 1_555
Ni3 O17 1.984936 1_555
Ni3 O18 1.988414 1_555
Ni3 O15 2.048790 1_556
Ni3 O23 2.181349 1_556
Ni3 O5 2.189958 1_555
Ni4 O0 1.984934 1_555
Ni4 O11 1.988412 1_545
Ni4 O16 2.048779 1_546
Ni4 O23 2.181349 1_556
Ni4 O5 2.189958 1_555
Ni5 O4 1.984941 1_555
Ni5 O10 1.988409 1_655
Ni5 O9 2.048783 1_656
Ni5 O23 2.181349 1_556
Ni5 O5 2.189958 1_555
O0 P0 1.560734 1_656
O1 P2 1.539547 1_555
O2 P1 1.541421 1_555
O3 P1 1.541421 1_555
O4 P0 1.560734 1_666
O5 P1 1.615866 1_555
O6 P0 1.537797 1_555
O7 P4 1.537797 1_555
O8 P4 1.560734 1_565
O9 P5 1.541421 1_555
O10 P3 1.539549 1_555
O11 P3 1.539547 1_555
O12 P5 1.615866 1_555
O13 P3 1.602605 1_555
O14 P4 1.560734 1_555
O15 P5 1.541421 1_555
O16 P5 1.541421 1_555
O17 P0 1.560734 1_556
O18 P3 1.539554 1_555
O19 P1 1.541421 1_555
O20 P4 1.560734 1_665
O21 P2 1.539554 1_555
O22 P2 1.539549 1_555
O23 P2 1.602605 1_555
