# generated using pymatgen
data_MgZn2CoWO6
_symmetry_space_group_name_H-M   'P 1'
_cell_length_a   5.41619017
_cell_length_b   6.01653030
_cell_length_c   8.12467283
_cell_angle_alpha   99.16386947
_cell_angle_beta   131.83263367
_cell_angle_gamma   116.38321735
_symmetry_Int_Tables_number   1
_chemical_formula_structural   MgZn2CoWO6
_chemical_formula_sum   'Mg1 Zn2 Co1 W1 O6'
_cell_volume   129.14465996
_cell_formula_units_Z   1
loop_
 _symmetry_equiv_pos_site_id
 _symmetry_equiv_pos_as_xyz
  1  'x, y, z'
loop_
 _atom_site_type_symbol
 _atom_site_label
 _atom_site_symmetry_multiplicity
 _atom_site_fract_x
 _atom_site_fract_y
 _atom_site_fract_z
 _atom_site_occupancy
  Mg  Mg0  1  0.99702849  0.27220076  0.35959833  1
  Zn  Zn0  1  0.99776886  0.63908303  0.18248106  1
  Zn  Zn1  1  0.00326728  0.50157504  0.74721189  1
  Co  Co0  1  0.00177395  0.83079457  0.57045024  1
  W  W0  1  0.01605508  0.01431831  0.00065506  1
  O  O0  1  0.72459942  0.83757779  0.09331785  1
  O  O1  1  0.37970582  0.16144303  0.96493706  1
  O  O2  1  0.24875616  0.42396394  0.21719210  1
  O  O3  1  0.35753748  0.78368321  0.58352164  1
  O  O4  1  0.58858303  0.11076534  0.36861011  1
  O  O5  1  0.69518243  0.53516997  0.78436567  1
loop_
_geom_bond_atom_site_label_1
_geom_bond_atom_site_label_2
_geom_bond_distance
_geom_bond_site_symmetry_2
Mg0 O4 2.042482 1_555
Mg0 O0 2.050922 1_545
Mg0 O5 2.061140 1_655
Mg0 O3 2.174964 1_655
Mg0 O1 2.223332 1_554
Mg0 O2 2.316366 1_655
Co0 O1 2.004691 1_565
Co0 O3 2.006620 1_555
Co0 O2 2.034334 1_455
O0 Zn1 1.942475 1_554
O0 W0 2.130226 1_665
O0 Zn0 2.134542 1_555
O1 W0 2.010436 1_556
O1 Zn0 2.128025 1_556
O2 W0 1.912725 1_555
O2 Zn0 2.184303 1_455
O3 W0 2.027804 1_666
O3 Zn0 2.071671 1_455
O4 Zn1 1.955035 1_655
O4 W0 2.090973 1_555
O4 Zn0 2.165071 1_445
O5 Zn1 1.966867 1_655
O5 W0 2.068562 1_666
O5 Zn0 2.216595 1_556
