# generated using pymatgen
data_Na3Ta8Zn4P15(SO24)3
_symmetry_space_group_name_H-M   'P 1'
_cell_length_a   8.74830707
_cell_length_b   8.74213218
_cell_length_c   22.62861968
_cell_angle_alpha   89.82200473
_cell_angle_beta   90.21021262
_cell_angle_gamma   119.79800354
_symmetry_Int_Tables_number   1
_chemical_formula_structural   Na3Ta8Zn4P15(SO24)3
_chemical_formula_sum   'Na3 Ta8 Zn4 P15 S3 O72'
_cell_volume   1501.78262419
_cell_formula_units_Z   1
loop_
 _symmetry_equiv_pos_site_id
 _symmetry_equiv_pos_as_xyz
  1  'x, y, z'
loop_
 _atom_site_type_symbol
 _atom_site_label
 _atom_site_symmetry_multiplicity
 _atom_site_fract_x
 _atom_site_fract_y
 _atom_site_fract_z
 _atom_site_occupancy
  Na  Na0  1  0.99955793  0.99475392  0.99004480  1
  Na  Na1  1  0.66138086  0.33287734  0.84313943  1
  Na  Na2  1  0.66006404  0.33487732  0.34080940  1
  Ta  Ta0  1  0.00421446  0.00532637  0.35712806  1
  Ta  Ta1  1  0.00204032  0.00107719  0.64637016  1
  Ta  Ta2  1  0.00013381  0.99826017  0.14619102  1
  Ta  Ta3  1  0.66446625  0.33192941  0.68616922  1
  Ta  Ta4  1  0.66625589  0.33464887  0.18755917  1
  Ta  Ta5  1  0.33914163  0.67397900  0.02337490  1
  Ta  Ta6  1  0.33091889  0.65878170  0.52305693  1
  Ta  Ta7  1  0.34054332  0.67267504  0.81004706  1
  Zn  Zn0  1  0.99855080  0.99003461  0.85331556  1
  Zn  Zn1  1  0.65658473  0.33181921  0.97981421  1
  Zn  Zn2  1  0.65818510  0.33377557  0.48482695  1
  Zn  Zn3  1  0.33591267  0.65957206  0.30660023  1
  P  P0  1  0.28912340  0.99937514  0.25150681  1
  P  P1  1  0.71421315  0.71344086  0.25138547  1
  P  P2  1  0.99811486  0.28720276  0.25042578  1
  P  P3  1  0.28634940  0.28416843  0.75287026  1
  P  P4  1  0.99621280  0.70983362  0.75192894  1
  P  P5  1  0.71895375  0.00486496  0.75238787  1
  P  P6  1  0.94877745  0.32953354  0.58077600  1
  P  P7  1  0.37760464  0.04478808  0.58107040  1
  P  P8  1  0.67159232  0.62357291  0.58139173  1
  P  P9  1  0.95066751  0.61821593  0.08082024  1
  P  P10  1  0.67083703  0.05208028  0.08128758  1
  P  P11  1  0.37755333  0.33075964  0.08154395  1
  P  P12  1  0.62567767  0.66744694  0.91700584  1
  P  P13  1  0.33396336  0.95910731  0.91636013  1
  P  P14  1  0.34240484  0.38349897  0.41394492  1
  S  S0  1  0.04741385  0.38084797  0.91661210  1
  S  S1  1  0.61941520  0.95592156  0.41499497  1
  S  S2  1  0.04396415  0.66322478  0.41484228  1
  O  O0  1  0.19964913  0.03572022  0.30604449  1
  O  O1  1  0.83706368  0.80050930  0.30604202  1
  O  O2  1  0.96328230  0.16372742  0.30568437  1
  O  O3  1  0.21795862  0.17278529  0.80680415  1
  O  O4  1  0.95080320  0.77520024  0.80595715  1
  O  O5  1  0.82823097  0.04590696  0.80675887  1
  O  O6  1  0.80313544  0.97492311  0.69649649  1
  O  O7  1  0.17200492  0.19872664  0.69654781  1
  O  O8  1  0.02722577  0.82738592  0.69633653  1
  O  O9  1  0.81264868  0.82474793  0.19598493  1
  O  O10  1  0.01358283  0.18813155  0.19603931  1
  O  O11  1  0.17577164  0.98345424  0.19627307  1
  O  O12  1  0.86485394  0.36361632  0.63613169  1
  O  O13  1  0.49727031  0.13025836  0.63651253  1
  O  O14  1  0.63395617  0.50249746  0.63644241  1
  O  O15  1  0.86371868  0.50309019  0.13772545  1
  O  O16  1  0.64025099  0.13713604  0.13768790  1
  O  O17  1  0.49527930  0.36156043  0.13792993  1
  O  O18  1  0.44399154  0.28515395  0.02790870  1
  O  O19  1  0.83862060  0.54897536  0.02710623  1
  O  O20  1  0.71150216  0.16218548  0.02718317  1
  O  O21  1  0.44502606  0.15509021  0.52695016  1
  O  O22  1  0.71241635  0.55597531  0.52704326  1
  O  O23  1  0.84125514  0.29294675  0.52613415  1
  O  O24  1  0.51889367  0.67770909  0.97231341  1
  O  O25  1  0.15579317  0.47446076  0.97073208  1
  O  O26  1  0.31851514  0.84053393  0.97224028  1
  O  O27  1  0.53622479  0.84420626  0.46957939  1
  O  O28  1  0.31108800  0.47191145  0.47118815  1
  O  O29  1  0.15638036  0.69384987  0.46971326  1
  O  O30  1  0.12722058  0.64311285  0.36283511  1
  O  O31  1  0.51370088  0.87667411  0.36286016  1
  O  O32  1  0.36364488  0.49373495  0.36066524  1
  O  O33  1  0.14110072  0.48897215  0.86258113  1
  O  O34  1  0.34400193  0.85228873  0.86107864  1
  O  O35  1  0.50740907  0.65226806  0.86111314  1
  O  O36  1  0.03275792  0.83187860  0.40973128  1
  O  O37  1  0.79703026  0.96229921  0.40927178  1
  O  O38  1  0.16408324  0.19786069  0.40761524  1
  O  O39  1  0.03971000  0.21082551  0.91455751  1
  O  O40  1  0.16497401  0.96617902  0.91523288  1
  O  O41  1  0.79718394  0.83974863  0.91567175  1
  O  O42  1  0.98208155  0.17567908  0.59652750  1
  O  O43  1  0.19256550  0.01578976  0.59733916  1
  O  O44  1  0.82486708  0.80849534  0.59743968  1
  O  O45  1  0.98334163  0.80819059  0.09453761  1
  O  O46  1  0.82633668  0.01720234  0.09473335  1
  O  O47  1  0.18966726  0.17401995  0.09549997  1
  O  O48  1  0.68547170  0.16165475  0.73827949  1
  O  O49  1  0.47554263  0.31488564  0.73818823  1
  O  O50  1  0.83830451  0.52187245  0.73711423  1
  O  O51  1  0.70396996  0.52958402  0.24254560  1
  O  O52  1  0.82355044  0.29436042  0.24231807  1
  O  O53  1  0.47008636  0.17338486  0.24253913  1
  O  O54  1  0.63276881  0.49832857  0.91803202  1
  O  O55  1  0.87772071  0.37298231  0.91867070  1
  O  O56  1  0.50625301  0.13051970  0.91764809  1
  O  O57  1  0.65375884  0.13549484  0.42295056  1
  O  O58  1  0.49416590  0.34912323  0.42229814  1
  O  O59  1  0.86744984  0.51444552  0.42273902  1
  O  O60  1  0.35689299  0.49633461  0.07466944  1
  O  O61  1  0.13684793  0.63835200  0.07427334  1
  O  O62  1  0.50431915  0.86473558  0.07524450  1
  O  O63  1  0.35705770  0.85819301  0.57206552  1
  O  O64  1  0.50378776  0.64403732  0.57319727  1
  O  O65  1  0.13699155  0.49740037  0.57295205  1
  O  O66  1  0.30680045  0.84061906  0.25895141  1
  O  O67  1  0.53822900  0.69801383  0.25541092  1
  O  O68  1  0.15489785  0.46428455  0.25594407  1
  O  O69  1  0.30745080  0.47116776  0.75924196  1
  O  O70  1  0.16146461  0.68803286  0.75876035  1
  O  O71  1  0.53069140  0.83899165  0.75824706  1
loop_
_geom_bond_atom_site_label_1
_geom_bond_atom_site_label_2
_geom_bond_distance
_geom_bond_site_symmetry_2
Na0 O40 2.324285 1_655
Na0 O41 2.326136 1_555
Na0 O39 2.436018 1_665
Na0 O45 2.831906 1_556
Na0 O46 2.876055 1_566
Na0 O47 2.884461 1_666
Na1 O54 2.324855 1_555
Na1 O56 2.329395 1_555
Na1 O55 2.438572 1_555
Na1 O49 2.833348 1_555
Na1 O48 2.873083 1_555
Na1 O50 2.888359 1_555
Na2 O58 2.392242 1_555
Na2 O59 2.521068 1_555
Na2 O57 2.526098 1_555
Na2 O51 2.705935 1_555
Na2 O53 2.713048 1_555
Na2 O52 2.769479 1_555
O0 P0 1.579048 1_545
O0 Ta0 1.972577 1_555
O1 P1 1.564337 1_555
O1 Ta0 2.019614 1_665
O2 P2 1.577687 1_555
O2 Ta0 1.969945 1_655
O3 P3 1.488139 1_555
O3 Zn0 2.073882 1_445
O4 P4 1.487481 1_555
O4 Zn0 2.019836 1_555
O5 P5 1.486470 1_555
O5 Zn0 2.068144 1_545
O6 P5 1.552718 1_565
O6 Ta1 1.996051 1_665
O7 P3 1.561044 1_555
O7 Ta1 1.982929 1_555
O8 P4 1.558706 1_455
O8 Ta1 1.988118 1_565
O9 P1 1.558058 1_555
O9 Ta2 1.947021 1_655
O10 P2 1.551566 1_455
O10 Ta2 1.964175 1_545
O11 P0 1.555533 1_555
O11 Ta2 1.961124 1_555
O12 P6 1.556715 1_555
O12 Ta3 1.990467 1_555
O13 P7 1.564276 1_555
O13 Ta3 1.986857 1_555
O14 P8 1.558527 1_555
O14 Ta3 1.985908 1_555
O15 P9 1.577314 1_555
O15 Ta4 1.974818 1_555
O16 P10 1.568273 1_555
O16 Ta4 1.981552 1_555
O17 P11 1.574195 1_555
O17 Ta4 1.972216 1_555
O18 P11 1.486040 1_555
O18 Zn1 2.016885 1_554
O19 P9 1.486852 1_555
O19 Zn1 2.068967 1_554
O20 P10 1.485778 1_555
O20 Zn1 2.067221 1_554
O21 P7 1.486679 1_555
O21 Zn2 1.983620 1_555
O22 P8 1.485514 1_555
O22 Zn2 2.000809 1_555
O23 P6 1.486896 1_555
O23 Zn2 2.030068 1_555
O24 P12 1.593628 1_555
O24 Ta5 1.941933 1_556
O25 S0 1.514930 1_555
O25 Ta5 2.062133 1_556
O26 P13 1.595489 1_555
O26 Ta5 1.934077 1_556
O27 S1 1.517164 1_555
O27 Ta6 2.104296 1_555
O28 P14 1.603007 1_555
O28 Ta6 1.950703 1_555
O29 S2 1.520519 1_555
O29 Ta6 2.081336 1_555
O30 S2 1.442650 1_555
O30 Zn3 2.174399 1_555
O31 S1 1.444756 1_555
O31 Zn3 2.169927 1_555
O32 P14 1.494414 1_555
O32 Zn3 1.998455 1_555
O33 S0 1.513365 1_555
O33 Ta7 2.062762 1_555
O34 P13 1.591907 1_555
O34 Ta7 1.940041 1_555
O35 P12 1.594600 1_555
O35 Ta7 1.934763 1_555
O36 S2 1.529491 1_555
O36 Ta0 2.035032 1_565
O37 S1 1.532841 1_555
O37 Ta0 2.038203 1_665
O38 P14 1.603574 1_555
O38 Ta0 1.937740 1_555
O39 S0 1.454926 1_555
O39 Zn0 2.257866 1_445
O40 P13 1.510167 1_555
O40 Zn0 2.100305 1_455
O41 P12 1.508252 1_555
O41 Zn0 2.127642 1_555
O42 P6 1.551368 1_555
O42 Ta1 1.971091 1_655
O43 P7 1.554403 1_555
O43 Ta1 1.955834 1_555
O44 P8 1.545617 1_555
O44 Ta1 1.966782 1_665
O45 P9 1.570665 1_555
O45 Ta2 1.979127 1_655
O46 P10 1.563571 1_555
O46 Ta2 1.982686 1_645
O47 P11 1.562573 1_555
O47 Ta2 1.974036 1_545
O48 P5 1.569109 1_555
O48 Ta3 1.974699 1_555
O49 P3 1.575962 1_555
O49 Ta3 1.976831 1_555
O50 P4 1.569948 1_555
O50 Ta3 1.971865 1_555
O51 P1 1.578029 1_555
O51 Ta4 2.003128 1_555
O52 P2 1.569264 1_555
O52 Ta4 2.004864 1_555
O53 P0 1.571126 1_545
O53 Ta4 2.020066 1_555
O54 P12 1.510347 1_555
O54 Zn1 2.098451 1_555
O55 S0 1.452499 1_655
O55 Zn1 2.260755 1_555
O56 P13 1.507746 1_545
O56 Zn1 2.122954 1_555
O57 S1 1.455919 1_545
O57 Zn2 2.216896 1_555
O58 P14 1.510976 1_555
O58 Zn2 2.062580 1_555
O59 S2 1.453468 1_655
O59 Zn2 2.225157 1_555
O60 P11 1.552571 1_555
O60 Ta5 2.002586 1_555
O61 P9 1.556423 1_455
O61 Ta5 2.005093 1_555
O62 P10 1.565836 1_565
O62 Ta5 1.962499 1_555
O63 P7 1.563696 1_565
O63 Ta6 1.983719 1_555
O64 P8 1.574882 1_555
O64 Ta6 1.941976 1_555
O65 P6 1.579569 1_455
O65 Ta6 1.941313 1_555
O66 P0 1.479911 1_555
O66 Zn3 2.029903 1_555
O67 P1 1.480314 1_555
O67 Zn3 2.002196 1_555
O68 P2 1.477490 1_455
O68 Zn3 2.011997 1_555
O69 P3 1.558423 1_555
O69 Ta7 2.003003 1_555
O70 P4 1.556345 1_455
O70 Ta7 2.003493 1_555
O71 P5 1.568314 1_565
O71 Ta7 1.963413 1_555
