# generated using pymatgen
data_Rb3Mo2Br9
_symmetry_space_group_name_H-M   'P 1'
_cell_length_a   7.71210711
_cell_length_b   7.71210711
_cell_length_c   18.79970600
_cell_angle_alpha   90.00000000
_cell_angle_beta   90.00000000
_cell_angle_gamma   120.00000956
_symmetry_Int_Tables_number   1
_chemical_formula_structural   Rb3Mo2Br9
_chemical_formula_sum   'Rb6 Mo4 Br18'
_cell_volume   968.33973537
_cell_formula_units_Z   2
loop_
 _symmetry_equiv_pos_site_id
 _symmetry_equiv_pos_as_xyz
  1  'x, y, z'
loop_
 _atom_site_type_symbol
 _atom_site_label
 _atom_site_symmetry_multiplicity
 _atom_site_fract_x
 _atom_site_fract_y
 _atom_site_fract_z
 _atom_site_occupancy
  Rb  Rb0  1  0.00000000  0.00000000  0.25000000  1
  Rb  Rb1  1  0.00000000  0.00000000  0.75000000  1
  Rb  Rb2  1  0.33333300  0.66666700  0.06325900  1
  Rb  Rb3  1  0.66666700  0.33333300  0.56325900  1
  Rb  Rb4  1  0.33333300  0.66666700  0.43674100  1
  Rb  Rb5  1  0.66666700  0.33333300  0.93674100  1
  Mo  Mo0  1  0.33333300  0.66666700  0.82600400  1
  Mo  Mo1  1  0.66666700  0.33333300  0.32600400  1
  Mo  Mo2  1  0.66666700  0.33333300  0.17399600  1
  Mo  Mo3  1  0.33333300  0.66666700  0.67399600  1
  Br  Br0  1  0.82441000  0.17559000  0.40553100  1
  Br  Br1  1  0.82441000  0.64881900  0.40553100  1
  Br  Br2  1  0.35118100  0.17559000  0.40553100  1
  Br  Br3  1  0.64881900  0.82441000  0.90553100  1
  Br  Br4  1  0.17559000  0.35118100  0.59446900  1
  Br  Br5  1  0.17559000  0.82441000  0.90553100  1
  Br  Br6  1  0.17559000  0.35118100  0.90553100  1
  Br  Br7  1  0.82441000  0.17559000  0.09446900  1
  Br  Br8  1  0.35118100  0.17559000  0.09446900  1
  Br  Br9  1  0.64881900  0.82441000  0.59446900  1
  Br  Br10  1  0.50171600  0.00343200  0.25000000  1
  Br  Br11  1  0.49828400  0.50171600  0.75000000  1
  Br  Br12  1  0.00343200  0.50171600  0.75000000  1
  Br  Br13  1  0.99656800  0.49828400  0.25000000  1
  Br  Br14  1  0.50171600  0.49828400  0.25000000  1
  Br  Br15  1  0.49828400  0.99656800  0.75000000  1
  Br  Br16  1  0.82441000  0.64881900  0.09446900  1
  Br  Br17  1  0.17559000  0.82441000  0.59446900  1
loop_
_geom_bond_atom_site_label_1
_geom_bond_atom_site_label_2
_geom_bond_distance
_geom_bond_site_symmetry_2
Br0 Mo1 2.583625 1_555
Br0 Rb3 3.637649 1_555
Br0 Rb0 3.748430 1_655
Br0 Rb4 3.902258 1_655
Br0 Rb4 3.902258 1_545
Br1 Mo1 2.583625 1_555
Br1 Rb3 3.637649 1_555
Br1 Rb0 3.748434 1_665
Br1 Rb4 3.902251 1_655
Br1 Rb4 3.902266 1_555
Br2 Mo1 2.583625 1_555
Br2 Rb3 3.637649 1_555
Br2 Rb0 3.748434 1_555
Br2 Rb4 3.902251 1_545
Br2 Rb4 3.902266 1_555
Br3 Mo0 2.583625 1_555
Br3 Rb2 3.637649 1_556
Br3 Rb1 3.748434 1_665
Br3 Rb5 3.902251 1_565
Br3 Rb5 3.902266 1_555
Br4 Mo3 2.583625 1_555
Br4 Rb4 3.637649 1_555
Br4 Rb1 3.748434 1_555
Br4 Rb3 3.902251 1_455
Br4 Rb3 3.902266 1_555
Br5 Mo0 2.583625 1_555
Br5 Rb2 3.637649 1_556
Br5 Rb1 3.748430 1_565
Br5 Rb5 3.902258 1_565
Br5 Rb5 3.902258 1_455
Br6 Mo0 2.583625 1_555
Br6 Rb2 3.637649 1_556
Br6 Rb1 3.748434 1_555
Br6 Rb5 3.902251 1_455
Br6 Rb5 3.902266 1_555
Br7 Mo2 2.583625 1_555
Br7 Rb5 3.637649 1_554
Br7 Rb0 3.748430 1_655
Br7 Rb2 3.902258 1_655
Br7 Rb2 3.902258 1_545
Br8 Mo2 2.583625 1_555
Br8 Rb5 3.637649 1_554
Br8 Rb0 3.748434 1_555
Br8 Rb2 3.902251 1_545
Br8 Rb2 3.902266 1_555
Br9 Mo3 2.583625 1_555
Br9 Rb4 3.637649 1_555
Br9 Rb1 3.748434 1_665
Br9 Rb3 3.902251 1_565
Br9 Rb3 3.902266 1_555
Br10 Mo1 2.626110 1_555
Br10 Mo2 2.626110 1_555
Br10 Rb0 3.856122 1_555
Br10 Rb0 3.856122 1_655
Br11 Mo0 2.626116 1_555
Br11 Mo3 2.626116 1_555
Br11 Rb1 3.856121 1_555
Br11 Rb1 3.856121 1_665
Br12 Mo0 2.626110 1_555
Br12 Mo3 2.626110 1_555
Br12 Rb1 3.856122 1_555
Br12 Rb1 3.856122 1_565
Br13 Mo1 2.626110 1_555
Br13 Mo2 2.626110 1_555
Br13 Rb0 3.856122 1_665
Br13 Rb0 3.856122 1_655
Br14 Mo1 2.626116 1_555
Br14 Mo2 2.626116 1_555
Br14 Rb0 3.856121 1_555
Br14 Rb0 3.856121 1_665
Br15 Mo0 2.626110 1_555
Br15 Mo3 2.626110 1_555
Br15 Rb1 3.856122 1_665
Br15 Rb1 3.856122 1_565
Br16 Mo2 2.583625 1_555
Br16 Rb5 3.637649 1_554
Br16 Rb0 3.748434 1_665
Br16 Rb2 3.902251 1_655
Br16 Rb2 3.902266 1_555
Br17 Mo3 2.583625 1_555
Br17 Rb4 3.637649 1_555
Br17 Rb1 3.748430 1_565
Br17 Rb3 3.902258 1_565
Br17 Rb3 3.902258 1_455
