# generated using pymatgen
data_Na2Sc4Ga4SiS11O48
_symmetry_space_group_name_H-M   'P 1'
_cell_length_a   17.33190844
_cell_length_b   8.67642896
_cell_length_c   22.60753868
_cell_angle_alpha   89.95100679
_cell_angle_beta   89.98500056
_cell_angle_gamma   119.99382822
_symmetry_Int_Tables_number   1
_chemical_formula_structural   Na2Sc4Ga4SiS11O48
_chemical_formula_sum   'Na6 Sc12 Ga12 Si3 S33 O144'
_cell_volume   2944.40824564
_cell_formula_units_Z   3
loop_
 _symmetry_equiv_pos_site_id
 _symmetry_equiv_pos_as_xyz
  1  'x, y, z'
loop_
 _atom_site_type_symbol
 _atom_site_label
 _atom_site_symmetry_multiplicity
 _atom_site_fract_x
 _atom_site_fract_y
 _atom_site_fract_z
 _atom_site_occupancy
  Na  Na0  1  0.00116272  0.99135166  0.49753876  1
  Na  Na1  1  0.50117486  0.01128010  0.99788704  1
  Na  Na2  1  0.33803529  0.33421624  0.83532703  1
  Na  Na3  1  0.83861995  0.34471900  0.83131214  1
  Na  Na4  1  0.33170331  0.33108195  0.33397967  1
  Na  Na5  1  0.84064081  0.34432129  0.33431478  1
  Sc  Sc0  1  0.99785945  0.98832264  0.85393013  1
  Sc  Sc1  1  0.50053367  0.00842425  0.85557834  1
  Sc  Sc2  1  0.00025193  0.99204678  0.65008386  1
  Sc  Sc3  1  0.50091712  0.00041203  0.64288095  1
  Sc  Sc4  1  0.33484430  0.33608142  0.68533528  1
  Sc  Sc5  1  0.83676618  0.34166378  0.68651986  1
  Sc  Sc6  1  0.33725419  0.33319349  0.98005918  1
  Sc  Sc7  1  0.83838351  0.34276502  0.47744902  1
  Sc  Sc8  1  0.66319364  0.65515009  0.02160272  1
  Sc  Sc9  1  0.16165385  0.67134044  0.51795483  1
  Sc  Sc10  1  0.16081503  0.66619594  0.80944129  1
  Sc  Sc11  1  0.66312700  0.65900565  0.81436803  1
  Ga  Ga0  1  0.00250755  0.99322333  0.35117446  1
  Ga  Ga1  1  0.49952660  0.99954562  0.35312564  1
  Ga  Ga2  1  0.99932535  0.00026281  0.14672220  1
  Ga  Ga3  1  0.49973274  0.99968773  0.15177113  1
  Ga  Ga4  1  0.32860271  0.32998850  0.18170747  1
  Ga  Ga5  1  0.83823228  0.33688044  0.18339689  1
  Ga  Ga6  1  0.83522918  0.33555911  0.98384823  1
  Ga  Ga7  1  0.33408485  0.33467285  0.48263009  1
  Ga  Ga8  1  0.16440953  0.66286226  0.01928710  1
  Ga  Ga9  1  0.66606497  0.66864785  0.51887090  1
  Ga  Ga10  1  0.16292706  0.66447629  0.31555218  1
  Ga  Ga11  1  0.66525795  0.66412049  0.31327881  1
  Si  Si0  1  0.99742598  0.70368766  0.75019249  1
  Si  Si1  1  0.51956277  0.37320988  0.91748005  1
  Si  Si2  1  0.02175856  0.67317355  0.41164297  1
  S  S0  1  0.14698263  0.00287949  0.24782341  1
  S  S1  1  0.64547287  0.00044924  0.25137204  1
  S  S2  1  0.35371801  0.70894597  0.25144626  1
  S  S3  1  0.85340988  0.70755199  0.24876651  1
  S  S4  1  0.00025614  0.28623680  0.25010266  1
  S  S5  1  0.49951366  0.29065063  0.25024886  1
  S  S6  1  0.14806403  0.29175532  0.75088003  1
  S  S7  1  0.64499899  0.28980202  0.74894587  1
  S  S8  1  0.50007696  0.70998611  0.75008151  1
  S  S9  1  0.35531359  0.00145828  0.74914017  1
  S  S10  1  0.85276694  -0.00009741  0.75111728  1
  S  S11  1  0.48095077  0.34071447  0.57877659  1
  S  S12  1  0.98043457  0.33021807  0.58213508  1
  S  S13  1  0.18997773  0.04829656  0.58033459  1
  S  S14  1  0.68796004  0.03354149  0.58056150  1
  S  S15  1  0.33317489  0.62096427  0.58015174  1
  S  S16  1  0.82828543  0.62819168  0.58025876  1
  S  S17  1  0.47686400  0.63016728  0.08846306  1
  S  S18  1  0.97948667  0.62710646  0.08403521  1
  S  S19  1  0.33308368  0.03507863  0.08611093  1
  S  S20  1  0.83735528  0.05093252  0.08567493  1
  S  S21  1  0.18436582  0.33312535  0.08504483  1
  S  S22  1  0.68899582  0.32451283  0.08657234  1
  S  S23  1  0.30821023  0.66480274  0.91943004  1
  S  S24  1  0.81300578  0.65845504  0.91999080  1
  S  S25  1  0.01891808  0.37714648  0.92119828  1
  S  S26  1  0.16580630  0.95193318  0.92009303  1
  S  S27  1  0.67271088  0.96798842  0.91933626  1
  S  S28  1  0.31633188  0.96458224  0.41404216  1
  S  S29  1  0.80846328  0.94756053  0.41430061  1
  S  S30  1  0.16959980  0.37520704  0.41448917  1
  S  S31  1  0.66134367  0.37584947  0.41396425  1
  S  S32  1  0.52140749  0.66731030  0.41529688  1
  O  O0  1  0.10905655  0.04153958  0.30094390  1
  O  O1  1  0.60483879  0.03554607  0.30411242  1
  O  O2  1  0.41284290  0.78865628  0.30396836  1
  O  O3  1  0.91006251  0.78584612  0.30181397  1
  O  O4  1  0.48229070  0.17570217  0.30296270  1
  O  O5  1  0.98237759  0.17168701  0.30359500  1
  O  O6  1  0.10658202  0.18267061  0.80376239  1
  O  O7  1  0.60369358  0.18085455  0.80232921  1
  O  O8  1  0.48517235  0.78845784  0.80348439  1
  O  O9  1  0.98228947  0.79554014  0.80818895  1
  O  O10  1  0.41064219  0.03208483  0.80226005  1
  O  O11  1  0.90927363  0.03425950  0.80399583  1
  O  O12  1  0.39824527  0.98249673  0.69554678  1
  O  O13  1  0.89538415  0.97987165  0.69745761  1
  O  O14  1  0.09522408  0.21328450  0.69696573  1
  O  O15  1  0.59012620  0.20463951  0.69599562  1
  O  O16  1  0.01203580  0.82007300  0.69082884  1
  O  O17  1  0.50749482  0.81440819  0.69667327  1
  O  O18  1  0.39367286  0.82067127  0.19781494  1
  O  O19  1  0.89359815  0.81793840  0.19529494  1
  O  O20  1  0.01185714  0.20232858  0.19643549  1
  O  O21  1  0.51606866  0.21155198  0.19656653  1
  O  O22  1  0.09073621  0.97280133  0.19484354  1
  O  O23  1  0.58959404  0.96808215  0.19770233  1
  O  O24  1  0.44095996  0.37163179  0.63191916  1
  O  O25  1  0.93818057  0.35305113  0.63515266  1
  O  O26  1  0.24252951  0.13498292  0.63373782  1
  O  O27  1  0.74231634  0.11265198  0.63352189  1
  O  O28  1  0.31960827  0.51087931  0.63340456  1
  O  O29  1  0.81599603  0.52215669  0.63366225  1
  O  O30  1  0.43457616  0.51541052  0.14152841  1
  O  O31  1  0.94079187  0.51233359  0.13766741  1
  O  O32  1  0.31801069  0.11773527  0.13962021  1
  O  O33  1  0.82015542  0.13052223  0.13941493  1
  O  O34  1  0.24224408  0.37032242  0.13900751  1
  O  O35  1  0.74378690  0.34994906  0.14008550  1
  O  O36  1  0.22481771  0.29869969  0.03365245  1
  O  O37  1  0.72795622  0.29233254  0.03261581  1
  O  O38  1  0.42210784  0.55258570  0.03530210  1
  O  O39  1  0.92092613  0.54739444  0.03172550  1
  O  O40  1  0.35095895  0.14865246  0.03373753  1
  O  O41  1  0.85441574  0.16579217  0.03265672  1
  O  O42  1  0.23199976  0.15794230  0.52614471  1
  O  O43  1  0.72831567  0.14579404  0.52794844  1
  O  O44  1  0.35083366  0.54035374  0.52690847  1
  O  O45  1  0.84334455  0.54432947  0.52781493  1
  O  O46  1  0.42340843  0.30597287  0.52577015  1
  O  O47  1  0.92479601  0.30550741  0.52905740  1
  O  O48  1  0.26823114  0.69418141  0.97384769  1
  O  O49  1  0.77045168  0.68199275  0.97291523  1
  O  O50  1  0.07403775  0.45982992  0.97512021  1
  O  O51  1  0.57744026  0.46410360  0.97685086  1
  O  O52  1  0.15372349  0.84400443  0.97439776  1
  O  O53  1  0.66046791  0.86040173  0.97250277  1
  O  O54  1  0.27773797  0.85625621  0.46710833  1
  O  O55  1  0.76906303  0.83675513  0.46795885  1
  O  O56  1  0.15700725  0.45519607  0.46789434  1
  O  O57  1  0.64742508  0.45716606  0.46739073  1
  O  O58  1  0.07959139  0.70353308  0.47141327  1
  O  O59  1  0.57686514  0.69814973  0.46839499  1
  O  O60  1  0.06619100  0.63531984  0.35394280  1
  O  O61  1  0.56018510  0.63111564  0.36170597  1
  O  O62  1  0.26054602  0.88608380  0.36047792  1
  O  O63  1  0.75338023  0.86523116  0.36045065  1
  O  O64  1  0.18862446  0.48790760  0.36081683  1
  O  O65  1  0.67923512  0.48992513  0.36031592  1
  O  O66  1  0.05806880  0.48798170  0.86837769  1
  O  O67  1  0.56461493  0.49209149  0.85917271  1
  O  O68  1  0.18190184  0.87338423  0.86745847  1
  O  O69  1  0.68775640  0.89200346  0.86545147  1
  O  O70  1  0.25700207  0.64404583  0.86611144  1
  O  O71  1  0.75935484  0.62895886  0.86620649  1
  O  O72  1  0.01170045  0.85164755  0.40637595  1
  O  O73  1  0.51287010  0.82745662  0.40658169  1
  O  O74  1  0.40603982  0.98394608  0.40572332  1
  O  O75  1  0.89871966  0.97207658  0.40779920  1
  O  O76  1  0.08757653  0.19991846  0.40669918  1
  O  O77  1  0.58039747  0.19961144  0.40580472  1
  O  O78  1  0.00905736  0.20165287  0.91415902  1
  O  O79  1  0.50897884  0.17662049  0.91390216  1
  O  O80  1  0.08698391  0.97028177  0.91435545  1
  O  O81  1  0.59180477  0.98318274  0.91341322  1
  O  O82  1  0.39901791  0.82056244  0.91531957  1
  O  O83  1  0.90070919  0.81742435  0.91470288  1
  O  O84  1  0.48978164  0.18267119  0.58703488  1
  O  O85  1  0.98901032  0.17056426  0.58638897  1
  O  O86  1  0.10119907  0.03106687  0.58385928  1
  O  O87  1  0.59852185  0.01326985  0.58854833  1
  O  O88  1  0.41289108  0.79676249  0.58779150  1
  O  O89  1  0.90710306  0.80792928  0.58498605  1
  O  O90  1  0.48480117  0.80933672  0.09563170  1
  O  O91  1  0.98782284  0.80376211  0.09349400  1
  O  O92  1  0.41489397  0.01904522  0.09418848  1
  O  O93  1  0.91834522  0.03605989  0.09379415  1
  O  O94  1  0.09592528  0.17364305  0.09506988  1
  O  O95  1  0.59816208  0.16282518  0.09298567  1
  O  O96  1  0.34589289  0.16190708  0.74359718  1
  O  O97  1  0.83996529  0.15493362  0.74505101  1
  O  O98  1  0.23741035  0.30679788  0.74500217  1
  O  O99  1  0.73197750  0.30119198  0.74321803  1
  O  O100  1  0.42063544  0.52864800  0.74457163  1
  O  O101  1  0.90914464  0.50798851  0.74538189  1
  O  O102  1  0.34481058  0.52951125  0.24373148  1
  O  O103  1  0.84396815  0.52628044  0.24146365  1
  O  O104  1  0.41912318  0.30923018  0.24249716  1
  O  O105  1  0.91898045  0.30697501  0.24373673  1
  O  O106  1  0.23766052  0.16836474  0.24069491  1
  O  O107  1  0.73512855  0.16016042  0.24402551  1
  O  O108  1  0.31486802  0.50255764  0.92574897  1
  O  O109  1  0.82185041  0.49546195  0.92660115  1
  O  O110  1  0.42136741  0.35425638  0.92192938  1
  O  O111  1  0.92893268  0.36154005  0.92819225  1
  O  O112  1  0.24514906  0.13090564  0.92625833  1
  O  O113  1  0.75235051  0.14990555  0.92600053  1
  O  O114  1  0.32634759  0.14591813  0.42128941  1
  O  O115  1  0.81421704  0.12183450  0.42025376  1
  O  O116  1  0.24906659  0.34988498  0.42139526  1
  O  O117  1  0.73938841  0.35288827  0.42012631  1
  O  O118  1  0.43131243  0.50691104  0.42245745  1
  O  O119  1  0.92276453  0.49595195  0.41775916  1
  O  O120  1  0.17523057  0.49250146  0.07654076  1
  O  O121  1  0.68118074  0.48367213  0.08092848  1
  O  O122  1  0.06793365  0.64545504  0.07501061  1
  O  O123  1  0.56560253  0.65199454  0.08226790  1
  O  O124  1  0.25420117  0.85837618  0.07761659  1
  O  O125  1  0.75916828  0.87602617  0.07774520  1
  O  O126  1  0.18452151  0.87531329  0.57602151  1
  O  O127  1  0.67774852  0.85413025  0.57237300  1
  O  O128  1  0.25450472  0.63722094  0.57231559  1
  O  O129  1  0.74679886  0.64087184  0.57240762  1
  O  O130  1  0.06885791  0.48858099  0.57604561  1
  O  O131  1  0.56910923  0.50027492  0.57046740  1
  O  O132  1  0.15900981  0.84853490  0.25556450  1
  O  O133  1  0.65353610  0.83975653  0.25995133  1
  O  O134  1  0.26547323  0.69180386  0.26049219  1
  O  O135  1  0.76420169  0.68788950  0.25730103  1
  O  O136  1  0.08096394  0.46109322  0.25644172  1
  O  O137  1  0.57941419  0.46818028  0.25847801  1
  O  O138  1  0.16076910  0.46968982  0.75767279  1
  O  O139  1  0.65580071  0.46713807  0.75453957  1
  O  O140  1  0.08461592  0.68559800  0.75694105  1
  O  O141  1  0.58091374  0.69778345  0.75428288  1
  O  O142  1  0.26873616  0.84315036  0.75569945  1
  O  O143  1  0.76642417  0.83850532  0.75832279  1
loop_
_geom_bond_atom_site_label_1
_geom_bond_atom_site_label_2
_geom_bond_distance
_geom_bond_site_symmetry_2
Na0 O72 2.444509 1_555
Na0 O86 2.517695 1_565
Na0 O89 2.549070 1_455
Na0 O85 2.613338 1_465
Na0 O75 2.646141 1_455
Na0 O76 2.649080 1_565
Na1 O79 2.341475 1_555
Na1 O82 2.536770 1_545
Na1 O81 2.560474 1_545
Na1 O95 2.640776 1_556
Na1 O92 2.660829 1_556
Na1 O90 2.743999 1_546
Na2 O110 2.387565 1_555
Na2 O100 2.585151 1_555
Na2 O96 2.600570 1_555
Na2 O98 2.618386 1_555
Na2 O108 2.657905 1_555
Na2 O112 2.661251 1_555
Na3 O101 2.353217 1_555
Na3 O97 2.561050 1_555
Na3 O109 2.611601 1_555
Na3 O99 2.613551 1_555
Na3 O111 2.653760 1_555
Na3 O113 2.672166 1_555
Na4 O116 2.493235 1_555
Na4 O114 2.516178 1_555
Na4 O118 2.585089 1_555
Na4 O102 2.604074 1_555
Na4 O106 2.608388 1_555
Na4 O104 2.625891 1_555
Na5 O119 2.334305 1_555
Na5 O105 2.565420 1_555
Na5 O103 2.608717 1_555
Na5 O115 2.611533 1_555
Na5 O117 2.641519 1_555
Na5 O107 2.673948 1_555
Ga0 O72 1.812423 1_555
Ga0 O0 2.024764 1_565
Ga0 O3 2.042529 1_455
Ga0 O5 2.052770 1_465
Ga0 O76 2.080130 1_565
Ga0 O75 2.139317 1_455
Ga1 O74 1.958858 1_555
Ga1 O77 1.991975 1_565
Ga1 O1 2.021209 1_565
Ga1 O73 2.021309 1_555
Ga1 O2 2.023885 1_555
Ga1 O4 2.040853 1_565
Ga2 O94 1.976751 1_655
Ga2 O93 1.983499 1_555
Ga2 O20 2.001707 1_655
Ga2 O91 2.014544 1_545
Ga2 O22 2.031816 1_645
Ga2 O19 2.040571 1_545
Ga3 O21 1.991932 1_565
Ga3 O90 1.995463 1_555
Ga3 O23 2.001633 1_555
Ga3 O18 2.004172 1_555
Ga3 O92 2.032872 1_565
Ga3 O95 2.064313 1_565
Ga4 O34 1.954103 1_555
Ga4 O30 1.956820 1_555
Ga4 O32 1.998898 1_555
Ga4 O106 2.003764 1_555
Ga4 O102 2.135443 1_555
Ga4 O104 2.160046 1_555
Ga5 O33 1.932592 1_555
Ga5 O31 1.958773 1_555
Ga5 O35 1.958914 1_555
Ga5 O105 2.061628 1_555
Ga5 O103 2.067388 1_555
Ga5 O107 2.163028 1_555
Ga6 O111 1.975850 1_555
Ga6 O109 1.993071 1_555
Ga6 O41 1.996233 1_556
Ga6 O39 2.007642 1_556
Ga6 O113 2.014842 1_555
Ga6 O37 2.028308 1_556
Ga7 O42 1.932236 1_555
Ga7 O44 1.938115 1_555
Ga7 O46 1.948275 1_555
Ga7 O116 2.073738 1_555
Ga7 O118 2.097863 1_555
Ga7 O114 2.099431 1_555
Ga8 O50 1.949026 1_554
Ga8 O52 1.955183 1_554
Ga8 O48 1.968944 1_554
Ga8 O122 2.037613 1_555
Ga8 O120 2.041917 1_555
Ga8 O124 2.098556 1_555
Ga9 O127 1.942055 1_555
Ga9 O129 1.954097 1_555
Ga9 O131 1.964757 1_555
Ga9 O55 2.007924 1_555
Ga9 O59 2.038117 1_555
Ga9 O57 2.058384 1_555
Ga10 O60 1.789730 1_555
Ga10 O64 2.066952 1_555
Ga10 O134 2.083638 1_555
Ga10 O62 2.083954 1_555
Ga10 O136 2.101544 1_555
Ga10 O132 2.121057 1_555
Ga11 O65 1.958892 1_555
Ga11 O63 1.963222 1_555
Ga11 O61 2.018440 1_555
Ga11 O137 2.028396 1_555
Ga11 O133 2.030648 1_555
Ga11 O135 2.056628 1_555
O0 S0 1.485779 1_555
O1 S1 1.491634 1_555
O2 S2 1.493916 1_555
O3 S3 1.482890 1_555
O4 S5 1.484635 1_555
O5 S4 1.495371 1_655
O6 S6 1.469452 1_555
O6 Sc0 2.121157 1_445
O7 S7 1.477696 1_555
O7 Sc1 2.050762 1_555
O8 S8 1.471386 1_555
O8 Sc1 2.143906 1_565
O9 Si0 1.622878 1_555
O9 Sc0 1.868633 1_555
O10 S9 1.476061 1_555
O10 Sc1 2.059805 1_555
O11 S10 1.478670 1_555
O11 Sc0 2.098227 1_545
O12 S9 1.473433 1_565
O12 Sc3 2.080969 1_565
O13 S10 1.475017 1_565
O13 Sc2 2.066047 1_655
O14 S6 1.471905 1_555
O14 Sc2 2.088736 1_545
O15 S7 1.477488 1_555
O15 Sc3 2.058582 1_555
O16 Si0 1.620749 1_455
O16 Sc2 1.849073 1_555
O17 S8 1.475417 1_555
O17 Sc3 2.068115 1_565
O18 S2 1.488528 1_555
O19 S3 1.481351 1_555
O20 S4 1.479946 1_555
O21 S5 1.491421 1_555
O22 S0 1.483182 1_565
O23 S1 1.489394 1_565
O24 S11 1.477091 1_555
O24 Sc4 2.089754 1_555
O25 S12 1.468745 1_555
O25 Sc5 2.067118 1_555
O26 S13 1.473128 1_555
O26 Sc4 2.044101 1_555
O27 S14 1.465500 1_555
O27 Sc5 2.194653 1_555
O28 S15 1.479980 1_555
O28 Sc4 2.036110 1_555
O29 S16 1.466781 1_555
O29 Sc5 2.137920 1_555
O30 S17 1.495211 1_555
O31 S18 1.497115 1_555
O32 S19 1.494864 1_555
O33 S20 1.499617 1_555
O34 S21 1.508769 1_555
O35 S22 1.485142 1_555
O36 S21 1.462949 1_555
O36 Sc6 2.184075 1_554
O37 S22 1.486795 1_555
O38 S17 1.470189 1_555
O38 Sc6 2.133584 1_554
O39 S18 1.485668 1_555
O40 S19 1.470217 1_555
O40 Sc6 2.114207 1_554
O41 S20 1.490103 1_555
O42 S13 1.497047 1_555
O43 S14 1.472781 1_555
O43 Sc7 2.144587 1_555
O44 S15 1.499003 1_555
O45 S16 1.481371 1_555
O45 Sc7 2.053177 1_555
O46 S11 1.490709 1_555
O47 S12 1.486645 1_555
O47 Sc7 2.047728 1_555
O48 S23 1.495092 1_555
O49 S24 1.472352 1_555
O49 Sc8 2.070565 1_556
O50 S25 1.493405 1_555
O51 Si1 1.625222 1_555
O51 Sc8 1.876355 1_556
O52 S26 1.493263 1_555
O53 S27 1.470039 1_555
O53 Sc8 2.118157 1_556
O54 S28 1.462587 1_555
O54 Sc9 2.170650 1_555
O55 S29 1.484368 1_555
O56 S30 1.462789 1_555
O56 Sc9 2.158005 1_555
O57 S31 1.478625 1_555
O58 Si2 1.623987 1_555
O58 Sc9 1.898825 1_555
O59 S32 1.476648 1_555
O60 Si2 1.629608 1_555
O61 S32 1.493134 1_555
O62 S28 1.486190 1_555
O63 S29 1.491329 1_555
O64 S30 1.487490 1_555
O65 S31 1.495897 1_555
O66 S25 1.468466 1_555
O66 Sc10 2.140006 1_555
O67 Si1 1.613420 1_555
O67 Sc11 1.887572 1_555
O68 S26 1.466134 1_555
O68 Sc10 2.105446 1_555
O69 S27 1.469612 1_555
O69 Sc11 2.178122 1_555
O70 S23 1.454052 1_555
O70 Sc10 2.186002 1_555
O71 S24 1.473717 1_555
O71 Sc11 2.158291 1_555
O72 Si2 1.646835 1_555
O73 S32 1.482070 1_555
O74 S28 1.489849 1_555
O75 S29 1.476845 1_555
O76 S30 1.484578 1_555
O77 S31 1.481972 1_555
O78 S25 1.453708 1_555
O78 Sc0 2.227773 1_445
O79 Si1 1.623883 1_555
O79 Sc1 1.918209 1_555
O80 S26 1.458089 1_555
O80 Sc0 2.125845 1_455
O81 S27 1.478693 1_555
O81 Sc1 2.146374 1_565
O82 S23 1.478244 1_555
O82 Sc1 2.168938 1_565
O83 S24 1.459703 1_555
O83 Sc0 2.102512 1_555
O84 S11 1.465616 1_555
O84 Sc3 2.105662 1_555
O85 S12 1.468272 1_555
O85 Sc2 2.192864 1_645
O86 S13 1.471815 1_555
O86 Sc2 2.196089 1_545
O87 S14 1.481101 1_555
O87 Sc3 2.047679 1_555
O88 S15 1.469301 1_555
O88 Sc3 2.076141 1_565
O89 S16 1.476461 1_555
O89 Sc2 2.179677 1_655
O90 S17 1.499482 1_555
O91 S18 1.481574 1_555
O92 S19 1.503505 1_555
O93 S20 1.483895 1_555
O94 S21 1.481327 1_555
O95 S22 1.502975 1_555
O96 S9 1.485713 1_555
O96 Sc4 2.083602 1_555
O97 S10 1.474947 1_555
O97 Sc5 2.113085 1_555
O98 S6 1.493475 1_555
O98 Sc4 2.074884 1_555
O99 S7 1.466297 1_555
O99 Sc5 2.103627 1_555
O100 S8 1.490397 1_555
O100 Sc4 2.077716 1_555
O101 Si0 1.624481 1_555
O101 Sc5 1.902952 1_555
O102 S2 1.496067 1_555
O103 S3 1.506929 1_555
O104 S5 1.490868 1_555
O105 S4 1.513572 1_655
O106 S0 1.516863 1_555
O107 S1 1.486278 1_555
O108 S23 1.475614 1_555
O108 Sc6 2.093955 1_555
O109 S24 1.504057 1_555
O110 Si1 1.629026 1_555
O110 Sc6 1.902095 1_555
O111 S25 1.504804 1_655
O112 S26 1.478944 1_545
O112 Sc6 2.076445 1_555
O113 S27 1.497172 1_545
O114 S28 1.503260 1_545
O115 S29 1.471062 1_545
O115 Sc7 2.173394 1_555
O116 S30 1.507393 1_555
O117 S31 1.469108 1_555
O117 Sc7 2.186930 1_555
O118 S32 1.492679 1_555
O119 Si2 1.639841 1_655
O119 Sc7 1.943926 1_555
O120 S21 1.480768 1_555
O121 S22 1.458879 1_555
O121 Sc8 2.137797 1_555
O122 S18 1.474008 1_455
O123 S17 1.459306 1_555
O123 Sc8 2.166824 1_555
O124 S19 1.470220 1_565
O125 S20 1.454645 1_565
O125 Sc8 2.206503 1_555
O126 S13 1.459257 1_565
O126 Sc9 2.077347 1_555
O127 S14 1.487887 1_565
O128 S15 1.450101 1_555
O128 Sc9 2.159747 1_555
O129 S16 1.481114 1_555
O130 S12 1.466218 1_455
O130 Sc9 2.066732 1_555
O131 S11 1.473436 1_555
O132 S0 1.464974 1_565
O133 S1 1.481693 1_565
O134 S2 1.474961 1_555
O135 S3 1.480868 1_555
O136 S4 1.468877 1_555
O137 S5 1.480843 1_555
O138 S6 1.454658 1_555
O138 Sc10 2.068507 1_555
O139 S7 1.459729 1_555
O139 Sc11 2.099878 1_555
O140 Si0 1.602735 1_455
O140 Sc10 1.844998 1_555
O141 S8 1.459983 1_555
O141 Sc11 2.113841 1_555
O142 S9 1.448834 1_565
O142 Sc10 2.111028 1_555
O143 S10 1.459882 1_565
O143 Sc11 2.108059 1_555
