# generated using pymatgen
data_K4MgV2O7
_symmetry_space_group_name_H-M   'P 1'
_cell_length_a   6.34869301
_cell_length_b   5.84458135
_cell_length_c   7.61436285
_cell_angle_alpha   76.10697475
_cell_angle_beta   90.94241127
_cell_angle_gamma   69.84000272
_symmetry_Int_Tables_number   1
_chemical_formula_structural   K4MgV2O7
_chemical_formula_sum   'K4 Mg1 V2 O7'
_cell_volume   255.93558949
_cell_formula_units_Z   1
loop_
 _symmetry_equiv_pos_site_id
 _symmetry_equiv_pos_as_xyz
  1  'x, y, z'
loop_
 _atom_site_type_symbol
 _atom_site_label
 _atom_site_symmetry_multiplicity
 _atom_site_fract_x
 _atom_site_fract_y
 _atom_site_fract_z
 _atom_site_occupancy
  K  K0  1  0.69607906  0.67724516  0.31162403  1
  K  K1  1  0.18548068  0.41186585  0.74800914  1
  K  K2  1  0.10523159  0.98713296  0.42063315  1
  K  K3  1  0.05743458  0.93650043  0.98138198  1
  Mg  Mg0  1  0.62950441  0.10354863  0.62310722  1
  V  V0  1  0.59779329  0.64518077  0.81373718  1
  V  V1  1  0.38690546  0.34926639  0.21772429  1
  O  O0  1  0.83117122  0.76694742  0.78367740  1
  O  O1  1  0.67001713  0.37964963  0.71314647  1
  O  O2  1  0.29246862  0.15211209  0.12446182  1
  O  O3  1  0.66369337  0.16499530  0.36385362  1
  O  O4  1  0.38590756  0.95175899  0.68860373  1
  O  O5  1  0.48013421  0.56525982  0.02796095  1
  O  O6  1  0.19526182  0.53353658  0.34279302  1
loop_
_geom_bond_atom_site_label_1
_geom_bond_atom_site_label_2
_geom_bond_distance
_geom_bond_site_symmetry_2
K0 O5 2.858869 1_555
K0 O3 2.910329 1_565
K0 O6 2.974915 1_655
K0 O3 3.003165 1_555
K0 O2 3.062383 1_565
K0 O1 3.171951 1_555
K1 O0 2.552156 1_455
K1 O4 2.701785 1_545
K1 O2 2.849222 1_556
K1 O6 3.002116 1_555
K1 O1 3.036508 1_555
K2 O4 2.608681 1_555
K2 O3 2.619379 1_465
K2 O2 2.694904 1_565
K2 O6 2.725339 1_555
K3 O2 2.627430 1_566
K3 O0 2.634036 1_455
K3 O5 2.760593 1_556
K3 O6 3.045219 1_556
K3 O4 3.084193 1_555
K3 O1 3.135724 1_465
Mg0 O3 1.949447 1_555
Mg0 O1 1.987906 1_555
Mg0 O0 2.015341 1_545
Mg0 O4 2.045990 1_545
O0 V0 1.847672 1_555
O1 V0 1.815829 1_555
O2 V1 1.745466 1_555
O3 V1 1.881909 1_555
O4 V0 1.845151 1_555
O5 V0 1.830737 1_554
O5 V1 1.923272 1_555
O6 V1 1.781731 1_555
