# generated using pymatgen
data_La2Ge2O7
_symmetry_space_group_name_H-M   'P 1'
_cell_length_a   7.03316911
_cell_length_b   7.07560851
_cell_length_c   12.79144042
_cell_angle_alpha   93.97541632
_cell_angle_beta   90.14510685
_cell_angle_gamma   90.94262550
_symmetry_Int_Tables_number   1
_chemical_formula_structural   La2Ge2O7
_chemical_formula_sum   'La8 Ge8 O28'
_cell_volume   634.93075778
_cell_formula_units_Z   4
loop_
 _symmetry_equiv_pos_site_id
 _symmetry_equiv_pos_as_xyz
  1  'x, y, z'
loop_
 _atom_site_type_symbol
 _atom_site_label
 _atom_site_symmetry_multiplicity
 _atom_site_fract_x
 _atom_site_fract_y
 _atom_site_fract_z
 _atom_site_occupancy
  La  La0  1  0.33357947  0.82815474  0.10699808  1
  La  La1  1  0.66642053  0.17184526  0.89300192  1
  La  La2  1  0.63302235  0.76213852  0.37146904  1
  La  La3  1  0.36697765  0.23786148  0.62853096  1
  La  La4  1  0.11914403  0.08580189  0.36140285  1
  La  La5  1  0.88085597  0.91419811  0.63859715  1
  La  La6  1  0.05005802  0.33171131  0.11747341  1
  La  La7  1  0.94994198  0.66828869  0.88252659  1
  Ge  Ge0  1  0.85229314  0.37888698  0.61462571  1
  Ge  Ge1  1  0.14770686  0.62111302  0.38537429  1
  Ge  Ge2  1  0.62485120  0.26562779  0.40235828  1
  Ge  Ge3  1  0.37514880  0.73437221  0.59764172  1
  Ge  Ge4  1  0.51065178  0.32693449  0.17231191  1
  Ge  Ge5  1  0.48934822  0.67306551  0.82768809  1
  Ge  Ge6  1  0.84410755  0.85152417  0.11686473  1
  Ge  Ge7  1  0.15589245  0.14847583  0.88313527  1
  O  O0  1  0.00371446  0.01203306  0.18361697  1
  O  O1  1  0.99628554  0.98796694  0.81638303  1
  O  O2  1  0.00596888  0.66678238  0.07968119  1
  O  O3  1  0.99403112  0.33321762  0.92031881  1
  O  O4  1  0.65179986  0.78461457  0.19155804  1
  O  O5  1  0.34820014  0.21538543  0.80844196  1
  O  O6  1  0.75210243  0.90246816  0.99505643  1
  O  O7  1  0.24789757  0.09753184  0.00494357  1
  O  O8  1  0.92716046  0.58622191  0.68391325  1
  O  O9  1  0.07283954  0.41377809  0.31608675  1
  O  O10  1  0.03453796  0.22882844  0.56693274  1
  O  O11  1  0.96546204  0.77117156  0.43306726  1
  O  O12  1  0.70819280  0.22205141  0.68382641  1
  O  O13  1  0.29180720  0.77794859  0.31617359  1
  O  O14  1  0.70096567  0.43400434  0.50624811  1
  O  O15  1  0.29903433  0.56599566  0.49375189  1
  O  O16  1  0.64553464  0.50926474  0.87389589  1
  O  O17  1  0.35446536  0.49073526  0.12610411  1
  O  O18  1  0.62727953  0.86403170  0.78761090  1
  O  O19  1  0.37272047  0.13596830  0.21238910  1
  O  O20  1  0.29841256  0.71945782  0.91062070  1
  O  O21  1  0.70158744  0.28054218  0.08937930  1
  O  O22  1  0.39468575  0.57766898  0.69967894  1
  O  O23  1  0.60531425  0.42233102  0.30032106  1
  O  O24  1  0.58526493  0.83609022  0.55479775  1
  O  O25  1  0.41473507  0.16390978  0.44520225  1
  O  O26  1  0.22221466  0.91910387  0.62072130  1
  O  O27  1  0.77778534  0.08089613  0.37927870  1
loop_
_geom_bond_atom_site_label_1
_geom_bond_atom_site_label_2
_geom_bond_distance
_geom_bond_site_symmetry_2
La0 O17 2.423525 1_555
La0 O7 2.465552 1_565
La0 O19 2.491584 1_565
La0 O4 2.516063 1_555
La0 O2 2.566890 1_555
La0 O20 2.585593 1_554
La0 O13 2.739340 1_555
La0 O0 2.823061 1_565
La0 O6 3.326570 1_554
La1 O16 2.423525 1_555
La1 O6 2.465552 1_545
La1 O18 2.491584 1_545
La1 O5 2.516063 1_555
La1 O3 2.566890 1_555
La1 O21 2.585593 1_556
La1 O12 2.739340 1_555
La1 O1 2.823061 1_545
La1 O7 3.326570 1_556
La2 O4 2.321724 1_555
La2 O24 2.392792 1_555
La2 O27 2.454818 1_565
La2 O11 2.463822 1_555
La2 O13 2.506623 1_555
La2 O23 2.515430 1_555
La3 O5 2.321724 1_555
La3 O25 2.392792 1_555
La3 O26 2.454818 1_545
La3 O10 2.463822 1_555
La3 O12 2.506623 1_555
La3 O22 2.515430 1_555
La4 O25 2.375964 1_555
La4 O27 2.412184 1_455
La4 O0 2.432147 1_555
La4 O9 2.457197 1_555
La4 O13 2.543626 1_545
La4 O19 2.651433 1_555
La4 O11 2.678318 1_445
La4 O10 2.819365 1_555
La5 O24 2.375964 1_555
La5 O26 2.412184 1_655
La5 O1 2.432147 1_555
La5 O8 2.457197 1_555
La5 O12 2.543626 1_565
La5 O18 2.651433 1_555
La5 O10 2.678318 1_665
La5 O11 2.819365 1_555
La6 O17 2.400879 1_555
La6 O2 2.476496 1_555
La6 O0 2.486130 1_555
La6 O21 2.493031 1_455
La6 O7 2.551245 1_555
La6 O3 2.552284 1_454
La6 O9 2.570521 1_555
La7 O16 2.400879 1_555
La7 O3 2.476496 1_555
La7 O1 2.486130 1_555
La7 O20 2.493031 1_655
La7 O6 2.551245 1_555
La7 O2 2.552284 1_656
La7 O8 2.570521 1_555
Ge0 O8 1.734028 1_555
Ge0 O10 1.761059 1_655
Ge0 O12 1.773661 1_555
Ge0 O14 1.813241 1_555
Ge1 O9 1.734028 1_555
Ge1 O11 1.761059 1_455
Ge1 O13 1.773661 1_555
Ge1 O15 1.813241 1_555
Ge2 O27 1.716665 1_555
Ge2 O25 1.739533 1_555
Ge2 O23 1.776675 1_555
Ge2 O14 1.796606 1_555
Ge3 O26 1.716665 1_555
Ge3 O24 1.739533 1_555
Ge3 O22 1.776675 1_555
Ge3 O15 1.796606 1_555
Ge4 O21 1.734899 1_555
Ge4 O17 1.741514 1_555
Ge4 O19 1.756437 1_555
Ge4 O23 1.845660 1_555
Ge5 O20 1.734899 1_555
Ge5 O16 1.741514 1_555
Ge5 O18 1.756437 1_555
Ge5 O22 1.845660 1_555
Ge6 O4 1.736240 1_555
Ge6 O6 1.748366 1_554
Ge6 O0 1.760035 1_665
Ge6 O2 1.787831 1_655
Ge7 O5 1.736240 1_555
Ge7 O7 1.748366 1_556
Ge7 O1 1.760035 1_445
Ge7 O3 1.787831 1_455
