# generated using pymatgen
data_MgFe(SbO3)4
_symmetry_space_group_name_H-M   'P 1'
_cell_length_a   5.47765375
_cell_length_b   11.00661345
_cell_length_c   9.65643813
_cell_angle_alpha   28.62104798
_cell_angle_beta   52.15790476
_cell_angle_gamma   57.51017168
_symmetry_Int_Tables_number   1
_chemical_formula_structural   MgFe(SbO3)4
_chemical_formula_sum   'Mg1 Fe1 Sb4 O12'
_cell_volume   220.22951969
_cell_formula_units_Z   1
loop_
 _symmetry_equiv_pos_site_id
 _symmetry_equiv_pos_as_xyz
  1  'x, y, z'
loop_
 _atom_site_type_symbol
 _atom_site_label
 _atom_site_symmetry_multiplicity
 _atom_site_fract_x
 _atom_site_fract_y
 _atom_site_fract_z
 _atom_site_occupancy
  Mg  Mg0  1  0.69307900  0.50289700  0.69480200  1
  Fe  Fe0  1  0.27328200  0.00081500  0.27056900  1
  Sb  Sb0  1  0.01167400  0.00042200  0.97155600  1
  Sb  Sb1  1  0.95736100  0.49866000  0.00401400  1
  Sb  Sb2  1  0.47978700  0.99472900  0.50361200  1
  Sb  Sb3  1  0.48970100  0.50705300  0.46692400  1
  O  O0  1  0.35302400  0.29549100  0.11987100  1
  O  O1  1  0.23025500  0.13027000  0.60506800  1
  O  O2  1  0.10502500  0.31295200  0.74425700  1
  O  O3  1  0.85908900  0.19176400  0.22653300  1
  O  O4  1  0.36713000  0.83173700  0.10360200  1
  O  O5  1  0.73716800  0.36774300  0.37139300  1
  O  O6  1  0.25675200  0.60782800  0.62952500  1
  O  O7  1  0.62133100  0.21021200  0.84834100  1
  O  O8  1  0.12669200  0.82445800  0.69504100  1
  O  O9  1  0.84458400  0.67587100  0.27634200  1
  O  O10  1  0.72753400  0.87996500  0.35522800  1
  O  O11  1  0.60440500  0.67308900  0.86706900  1
loop_
_geom_bond_atom_site_label_1
_geom_bond_atom_site_label_2
_geom_bond_distance
_geom_bond_site_symmetry_2
Mg0 O2 2.047434 1_655
Mg0 O10 2.050009 1_555
Mg0 O0 2.065352 1_556
Mg0 O9 2.172158 1_555
Mg0 O7 2.233929 1_555
Mg0 O6 2.246886 1_555
Fe0 O3 2.058530 1_455
Fe0 O7 2.062959 1_554
Fe0 O6 2.108603 1_545
Fe0 O8 2.209383 1_545
Fe0 O0 2.298672 1_555
Fe0 O10 2.379091 1_545
O0 Sb2 2.079374 1_545
O0 Sb1 2.079832 1_455
O1 Sb0 1.939105 1_555
O1 Sb2 1.945756 1_545
O2 Sb3 2.010945 1_555
O2 Sb0 2.041869 1_555
O3 Sb2 2.002901 1_545
O3 Sb1 2.026963 1_555
O4 Sb3 1.957464 1_555
O4 Sb0 1.967337 1_564
O5 Sb3 1.937948 1_555
O5 Sb1 1.938801 1_555
O6 Sb3 2.098252 1_555
O6 Sb1 2.102936 1_456
O7 Sb0 2.076860 1_655
O7 Sb3 2.088375 1_555
O8 Sb1 2.003877 1_456
O8 Sb2 2.023724 1_555
O9 Sb0 2.002509 1_664
O9 Sb3 2.026272 1_555
O10 Sb0 2.103462 1_664
O10 Sb2 2.107238 1_555
O11 Sb2 1.961326 1_555
O11 Sb1 1.965893 1_556
