# generated using pymatgen
data_Na3Nb4Zn8P3(S5O24)3
_symmetry_space_group_name_H-M   'P 1'
_cell_length_a   8.73888712
_cell_length_b   8.72970303
_cell_length_c   22.67971368
_cell_angle_alpha   90.11858853
_cell_angle_beta   89.90343699
_cell_angle_gamma   120.03992254
_symmetry_Int_Tables_number   1
_chemical_formula_structural   Na3Nb4Zn8P3(S5O24)3
_chemical_formula_sum   'Na3 Nb4 Zn8 P3 S15 O72'
_cell_volume   1497.77954680
_cell_formula_units_Z   1
loop_
 _symmetry_equiv_pos_site_id
 _symmetry_equiv_pos_as_xyz
  1  'x, y, z'
loop_
 _atom_site_type_symbol
 _atom_site_label
 _atom_site_symmetry_multiplicity
 _atom_site_fract_x
 _atom_site_fract_y
 _atom_site_fract_z
 _atom_site_occupancy
  Na  Na0  1  0.99516118  0.99638601  0.00160493  1
  Na  Na1  1  0.66739226  0.33317802  0.83382078  1
  Na  Na2  1  0.66473633  0.33354666  0.33753137  1
  Nb  Nb0  1  0.00519753  0.00018199  0.64715232  1
  Nb  Nb1  1  0.67287463  0.33147069  0.18648467  1
  Nb  Nb2  1  0.33264305  0.67099040  0.02365773  1
  Nb  Nb3  1  0.33352548  0.67175681  0.51935940  1
  Zn  Zn0  1  0.00151488  0.00010885  0.35352459  1
  Zn  Zn1  1  0.99763623  0.00007536  0.85256865  1
  Zn  Zn2  1  0.99362133  0.99294531  0.14853381  1
  Zn  Zn3  1  0.66138245  0.32522934  0.68361319  1
  Zn  Zn4  1  0.67363951  0.33519949  0.98306576  1
  Zn  Zn5  1  0.65841698  0.32786406  0.48333780  1
  Zn  Zn6  1  0.33421332  0.66691159  0.31242067  1
  Zn  Zn7  1  0.33463669  0.66701055  0.81212943  1
  P  P0  1  0.38323241  0.04980311  0.58348250  1
  P  P1  1  0.95207467  0.62739372  0.08096794  1
  P  P2  1  0.67569167  0.04809943  0.08087068  1
  S  S0  1  0.28660615  0.99624455  0.25022368  1
  S  S1  1  0.70773636  0.71180960  0.25072333  1
  S  S2  1  0.00659187  0.29040594  0.25053567  1
  S  S3  1  0.29400743  0.29310096  0.75241385  1
  S  S4  1  0.99768913  0.70476284  0.75202152  1
  S  S5  1  0.70845770  0.00124588  0.75185442  1
  S  S6  1  0.95508342  0.33337612  0.58342194  1
  S  S7  1  0.66626494  0.62150163  0.58350380  1
  S  S8  1  0.37537311  0.32920021  0.08180607  1
  S  S9  1  0.62334471  0.66462737  0.91549874  1
  S  S10  1  0.04268855  0.37618230  0.91507686  1
  S  S11  1  0.33432982  0.95942846  0.91521302  1
  S  S12  1  0.62700238  0.96055271  0.41426868  1
  S  S13  1  0.33403273  0.37492241  0.41464853  1
  S  S14  1  0.03821050  0.66453905  0.41459885  1
  O  O0  1  0.21923943  0.03933721  0.30322208  1
  O  O1  1  0.81900992  0.77933302  0.30341245  1
  O  O2  1  0.96140948  0.17994354  0.30319405  1
  O  O3  1  0.21082036  0.17853168  0.80342763  1
  O  O4  1  0.96699084  0.78792701  0.80329539  1
  O  O5  1  0.82091773  0.03150207  0.80349691  1
  O  O6  1  0.80282304  0.97922297  0.69699340  1
  O  O7  1  0.17662413  0.19780089  0.69711115  1
  O  O8  1  0.02079198  0.82306715  0.69676856  1
  O  O9  1  0.78557915  0.81308377  0.19715698  1
  O  O10  1  0.02728255  0.21207284  0.19657632  1
  O  O11  1  0.18589445  0.97440421  0.19661767  1
  O  O12  1  0.88694011  0.37117534  0.63630908  1
  O  O13  1  0.48930153  0.11659037  0.63893560  1
  O  O14  1  0.63193407  0.51690634  0.63637167  1
  O  O15  1  0.86501680  0.50366373  0.13722761  1
  O  O16  1  0.63699026  0.13284945  0.13750007  1
  O  O17  1  0.48946949  0.36423656  0.13576857  1
  O  O18  1  0.45325809  0.30285054  0.02928785  1
  O  O19  1  0.84280163  0.54468468  0.02726655  1
  O  O20  1  0.69614760  0.15458648  0.02705740  1
  O  O21  1  0.44998750  0.15621103  0.52778024  1
  O  O22  1  0.70439671  0.55332586  0.53033207  1
  O  O23  1  0.85011053  0.29845810  0.53028129  1
  O  O24  1  0.53221746  0.68880200  0.97023942  1
  O  O25  1  0.15659898  0.46718861  0.96983077  1
  O  O26  1  0.31029177  0.84341072  0.97029947  1
  O  O27  1  0.53170940  0.84362744  0.46972742  1
  O  O28  1  0.31257940  0.46924590  0.46980725  1
  O  O29  1  0.15615917  0.68753672  0.47002618  1
  O  O30  1  0.12159634  0.63383914  0.36357949  1
  O  O31  1  0.51215920  0.87699517  0.36352202  1
  O  O32  1  0.36376540  0.48778662  0.36332593  1
  O  O33  1  0.12531115  0.48437398  0.86288166  1
  O  O34  1  0.36077010  0.87659393  0.86333626  1
  O  O35  1  0.51610447  0.63943760  0.86315634  1
  O  O36  1  0.03046875  0.82671024  0.41200131  1
  O  O37  1  0.79661906  0.96796295  0.41167257  1
  O  O38  1  0.17262775  0.20358209  0.41165716  1
  O  O39  1  0.03140011  0.20127814  0.91326341  1
  O  O40  1  0.17036169  0.96879245  0.91354086  1
  O  O41  1  0.79826153  0.82816696  0.91350331  1
  O  O42  1  0.98062449  0.17608993  0.59349412  1
  O  O43  1  0.18967370  0.01742070  0.59592983  1
  O  O44  1  0.82259823  0.80569615  0.59361329  1
  O  O45  1  0.98697475  0.81254022  0.09140870  1
  O  O46  1  0.82976833  0.01975393  0.09134784  1
  O  O47  1  0.19844303  0.17987533  0.09114548  1
  O  O48  1  0.69499350  0.16131529  0.74334832  1
  O  O49  1  0.46775663  0.30901607  0.74297824  1
  O  O50  1  0.83876731  0.53202095  0.74154684  1
  O  O51  1  0.68740533  0.52434344  0.24104932  1
  O  O52  1  0.83649044  0.30996494  0.24196170  1
  O  O53  1  0.47376646  0.16506844  0.24096481  1
  O  O54  1  0.63945818  0.50603620  0.92321697  1
  O  O55  1  0.86708083  0.35834038  0.92201790  1
  O  O56  1  0.49140759  0.13451000  0.92358158  1
  O  O57  1  0.64299028  0.13469983  0.42375462  1
  O  O58  1  0.49398423  0.36125010  0.42329367  1
  O  O59  1  0.86530386  0.50561376  0.42509561  1
  O  O60  1  0.36274929  0.49589709  0.07491043  1
  O  O61  1  0.13773797  0.63608388  0.07306862  1
  O  O62  1  0.50034528  0.86070559  0.07318153  1
  O  O63  1  0.35079148  0.85622915  0.57078480  1
  O  O64  1  0.50961555  0.64738373  0.57326303  1
  O  O65  1  0.13901110  0.48923205  0.57312412  1
  O  O66  1  0.31664845  0.84741832  0.25775672  1
  O  O67  1  0.52949800  0.68309664  0.25821132  1
  O  O68  1  0.15348957  0.47020389  0.25774529  1
  O  O69  1  0.30118394  0.46269737  0.75473013  1
  O  O70  1  0.15963866  0.69718840  0.75462156  1
  O  O71  1  0.53738908  0.83982733  0.75482303  1
loop_
_geom_bond_atom_site_label_1
_geom_bond_atom_site_label_2
_geom_bond_distance
_geom_bond_site_symmetry_2
Na0 O46 2.560632 1_565
Na0 O41 2.565014 1_554
Na0 O45 2.574337 1_555
Na0 O40 2.597729 1_654
Na0 O39 2.599880 1_664
Na0 O47 2.644857 1_665
Na1 O55 2.592446 1_555
Na1 O54 2.608031 1_555
Na1 O56 2.617424 1_555
Na1 O48 2.620547 1_555
Na1 O49 2.640976 1_555
Na1 O50 2.652793 1_555
Na2 O58 2.533368 1_555
Na2 O57 2.560458 1_555
Na2 O59 2.575991 1_555
Na2 O51 2.699053 1_555
Na2 O53 2.699319 1_555
Na2 O52 2.699957 1_555
Nb0 O43 1.929418 1_555
Nb0 O8 1.973353 1_545
Nb0 O7 1.978458 1_555
Nb0 O6 2.027086 1_445
Nb0 O44 2.046647 1_445
Nb0 O42 2.055238 1_455
Nb1 O16 1.946227 1_555
Nb1 O15 1.949500 1_555
Nb1 O52 1.984567 1_555
Nb1 O53 2.033215 1_555
Nb1 O51 2.039686 1_555
Nb1 O17 2.107188 1_555
Nb2 O62 1.928718 1_555
Nb2 O61 1.930042 1_555
Nb2 O26 2.017639 1_554
Nb2 O60 2.041507 1_555
Nb2 O24 2.062965 1_554
Nb2 O25 2.068657 1_554
Nb3 O63 1.930271 1_555
Nb3 O29 1.973205 1_555
Nb3 O27 1.979007 1_555
Nb3 O28 2.022450 1_555
Nb3 O65 2.050483 1_555
Nb3 O64 2.059868 1_555
O0 S0 1.466406 1_545
O0 Zn0 2.093060 1_555
O1 S1 1.465645 1_555
O1 Zn0 2.114090 1_665
O2 S2 1.460839 1_655
O2 Zn0 2.109516 1_655
O3 S3 1.463348 1_555
O3 Zn1 2.057719 1_455
O4 S4 1.463481 1_555
O4 Zn1 2.060650 1_565
O5 S5 1.466327 1_555
O5 Zn1 2.032256 1_555
O6 S5 1.555443 1_565
O7 S3 1.569431 1_555
O8 S4 1.572710 1_455
O9 S1 1.455955 1_555
O9 Zn2 2.032021 1_555
O10 S2 1.455176 1_555
O10 Zn2 2.088555 1_445
O11 S0 1.457285 1_555
O11 Zn2 2.077955 1_455
O12 S6 1.447380 1_555
O12 Zn3 2.097686 1_555
O13 P0 1.496878 1_555
O13 Zn3 1.964869 1_555
O14 S7 1.445840 1_555
O14 Zn3 2.110340 1_555
O15 P1 1.597881 1_555
O16 P2 1.598875 1_555
O17 S8 1.510880 1_555
O18 S8 1.444910 1_555
O18 Zn4 2.082699 1_554
O19 P1 1.492156 1_555
O19 Zn4 1.955838 1_554
O20 P2 1.491054 1_555
O20 Zn4 1.959026 1_554
O21 P0 1.502987 1_555
O21 Zn5 1.961228 1_555
O22 S7 1.453867 1_555
O22 Zn5 2.090990 1_555
O23 S6 1.452317 1_555
O23 Zn5 2.107927 1_555
O24 S9 1.543984 1_555
O25 S10 1.540274 1_555
O26 S11 1.556309 1_555
O27 S12 1.571029 1_555
O28 S13 1.558084 1_555
O29 S14 1.574519 1_555
O30 S14 1.460521 1_555
O30 Zn6 2.083004 1_555
O31 S12 1.459924 1_555
O31 Zn6 2.065608 1_555
O32 S13 1.463059 1_555
O32 Zn6 2.063391 1_555
O33 S10 1.460708 1_555
O33 Zn7 2.072099 1_555
O34 S11 1.457192 1_555
O34 Zn7 2.078966 1_555
O35 S9 1.460204 1_555
O35 Zn7 2.074026 1_555
O36 S14 1.452076 1_555
O36 Zn0 2.123011 1_565
O37 S12 1.452057 1_555
O37 Zn0 2.124743 1_665
O38 S13 1.455673 1_555
O38 Zn0 2.113535 1_555
O39 S10 1.480432 1_555
O39 Zn1 2.130607 1_455
O40 S11 1.476072 1_555
O40 Zn1 2.164829 1_465
O41 S9 1.480511 1_555
O41 Zn1 2.140155 1_565
O42 S6 1.515126 1_555
O43 P0 1.593963 1_555
O44 S7 1.518115 1_555
O45 P1 1.505507 1_555
O45 Zn2 2.015535 1_555
O46 P2 1.505173 1_555
O46 Zn2 2.032296 1_545
O47 S8 1.454944 1_555
O47 Zn2 2.153438 1_445
O48 S5 1.472915 1_555
O48 Zn3 2.097473 1_555
O49 S3 1.469142 1_555
O49 Zn3 2.109318 1_555
O50 S4 1.470385 1_555
O50 Zn3 2.140908 1_555
O51 S1 1.570174 1_555
O52 S2 1.591185 1_655
O53 S0 1.574155 1_545
O54 S9 1.470868 1_555
O54 Zn4 2.147448 1_555
O55 S10 1.471075 1_655
O55 Zn4 2.113482 1_555
O56 S11 1.468143 1_545
O56 Zn4 2.151639 1_555
O57 S12 1.470735 1_545
O57 Zn5 2.109819 1_555
O58 S13 1.474647 1_555
O58 Zn5 2.105183 1_555
O59 S14 1.471706 1_655
O59 Zn5 2.147779 1_555
O60 S8 1.521843 1_555
O61 P1 1.595672 1_455
O62 P2 1.595168 1_565
O63 P0 1.592950 1_565
O64 S7 1.513261 1_555
O65 S6 1.516485 1_455
O66 S0 1.458982 1_555
O66 Zn6 2.072323 1_555
O67 S1 1.458147 1_555
O67 Zn6 2.048447 1_555
O68 S2 1.456219 1_555
O68 Zn6 2.064750 1_555
O69 S3 1.450992 1_555
O69 Zn7 2.104989 1_555
O70 S4 1.450792 1_455
O70 Zn7 2.126202 1_555
O71 S5 1.454646 1_565
O71 Zn7 2.104436 1_555
