# generated using pymatgen
data_Na2YNbSi(PO6)2
_symmetry_space_group_name_H-M   'P 1'
_cell_length_a   9.12910962
_cell_length_b   9.12910929
_cell_length_c   22.80906518
_cell_angle_alpha   90.33108613
_cell_angle_beta   89.66891386
_cell_angle_gamma   119.46685413
_symmetry_Int_Tables_number   1
_chemical_formula_structural   Na2YNbSi(PO6)2
_chemical_formula_sum   'Na12 Y6 Nb6 Si6 P12 O72'
_cell_volume   1654.98255229
_cell_formula_units_Z   6
loop_
 _symmetry_equiv_pos_site_id
 _symmetry_equiv_pos_as_xyz
  1  'x, y, z'
loop_
 _atom_site_type_symbol
 _atom_site_label
 _atom_site_symmetry_multiplicity
 _atom_site_fract_x
 _atom_site_fract_y
 _atom_site_fract_z
 _atom_site_occupancy
  Na  Na0  1  0.98506191  0.64424746  0.24134154  1
  Na  Na1  1  0.35575254  0.01493809  0.74134154  1
  Na  Na2  1  0.64709674  0.96894557  0.58394888  1
  Na  Na3  1  0.03105443  0.35290326  0.08394888  1
  Na  Na4  1  -0.00000629  0.68927448  0.91600723  1
  Na  Na5  1  0.31072552  0.00000629  0.41600723  1
  Na  Na6  1  0.99132564  0.98235844  0.49837485  1
  Na  Na7  1  0.01764156  0.00867436  0.99837485  1
  Na  Na8  1  0.67759814  0.31902928  0.83263823  1
  Na  Na9  1  0.68097072  0.32240186  0.33263823  1
  Na  Na10  1  0.36614358  0.69620695  0.16470224  1
  Na  Na11  1  0.30379305  0.63385642  0.66470224  1
  Y  Y0  1  0.98917604  0.00474539  0.35419593  1
  Y  Y1  1  0.99525461  0.01082396  0.85419593  1
  Y  Y2  1  0.67464805  0.34142855  0.68755540  1
  Y  Y3  1  0.65857145  0.32535195  0.18755540  1
  Y  Y4  1  0.33987010  0.67507217  0.02091200  1
  Y  Y5  1  0.32492783  0.66012990  0.52091200  1
  Nb  Nb0  1  0.00149723  0.99903454  0.64736722  1
  Nb  Nb1  1  0.00096546  0.99850277  0.14736722  1
  Nb  Nb2  1  0.66060996  0.33072478  0.98067659  1
  Nb  Nb3  1  0.66927522  0.33939004  0.48067659  1
  Nb  Nb4  1  0.32509213  0.65245473  0.31386162  1
  Nb  Nb5  1  0.34754527  0.67490787  0.81386162  1
  Si  Si0  1  0.00993781  0.30371509  0.24870834  1
  Si  Si1  1  0.69628491  0.99006219  0.74870834  1
  Si  Si2  1  0.36791099  0.04512815  0.58565429  1
  Si  Si3  1  0.95487185  0.63208901  0.08565429  1
  Si  Si4  1  0.34444700  0.97026888  0.91683548  1
  Si  Si5  1  0.02973112  0.65555300  0.41683548  1
  P  P0  1  0.28511176  0.98438986  0.25346132  1
  P  P1  1  0.69951744  0.71952198  0.24890872  1
  P  P2  1  0.28047802  0.30048256  0.74890872  1
  P  P3  1  0.01561014  0.71488824  0.75346132  1
  P  P4  1  0.95347461  0.31368899  0.58253132  1
  P  P5  1  0.68581201  0.63750693  0.58357161  1
  P  P6  1  0.68631101  0.04652539  0.08253132  1
  P  P7  1  0.36249307  0.31418799  0.08357161  1
  P  P8  1  0.62151085  0.64738050  0.91612292  1
  P  P9  1  0.03526126  0.38487381  0.91994130  1
  P  P10  1  0.61512619  0.96473874  0.41994130  1
  P  P11  1  0.35261950  0.37848915  0.41612292  1
  O  O0  1  0.20646254  0.99295617  0.31102731  1
  O  O1  1  0.81326020  0.79192446  0.30167061  1
  O  O2  1  0.99260925  0.19923059  0.30566366  1
  O  O3  1  0.20807554  0.18673980  0.80167061  1
  O  O4  1  0.00704383  0.79353746  0.81102731  1
  O  O5  1  0.80076941  0.00739075  0.80566366  1
  O  O6  1  0.79704666  0.97268206  0.68819848  1
  O  O7  1  0.16276280  0.19879272  0.69420195  1
  O  O8  1  0.03012397  0.83794260  0.70071322  1
  O  O9  1  0.80120728  0.83723720  0.19420195  1
  O  O10  1  0.02731794  0.20295334  0.18819848  1
  O  O11  1  0.16205740  0.96987603  0.20071322  1
  O  O12  1  0.87643063  0.33379914  0.63871931  1
  O  O13  1  0.47338017  0.13242328  0.64339584  1
  O  O14  1  0.66434323  0.53984320  0.63863195  1
  O  O15  1  0.86757672  0.52661983  0.14339584  1
  O  O16  1  0.66620086  0.12356937  0.13871931  1
  O  O17  1  0.46015680  0.33565677  0.13863195  1
  O  O18  1  0.46431383  0.30072473  0.02855945  1
  O  O19  1  0.82793783  0.52455298  0.02723702  1
  O  O20  1  0.69715950  0.16440796  0.02924475  1
  O  O21  1  0.47544702  0.17206217  0.52723702  1
  O  O22  1  0.69927527  0.53568617  0.52855945  1
  O  O23  1  0.83559204  0.30284050  0.52924475  1
  O  O24  1  0.54338683  0.66950209  0.97097471  1
  O  O25  1  0.11996340  0.45602094  0.97848836  1
  O  O26  1  0.30669741  0.84442733  0.96965009  1
  O  O27  1  0.54397906  0.88003660  0.47848836  1
  O  O28  1  0.33049791  0.45661317  0.47097471  1
  O  O29  1  0.15557267  0.69330259  0.46965009  1
  O  O30  1  0.13564833  0.63407390  0.35672839  1
  O  O31  1  0.49482001  0.85820797  0.36820479  1
  O  O32  1  0.36428009  0.49224786  0.36113913  1
  O  O33  1  0.14179203  0.50517999  0.86820479  1
  O  O34  1  0.36592610  0.86435167  0.85672839  1
  O  O35  1  0.50775214  0.63571991  0.86113913  1
  O  O36  1  0.00400489  0.81724055  0.41247623  1
  O  O37  1  0.79605881  0.00148477  0.41432143  1
  O  O38  1  0.21274565  0.19578860  0.40946613  1
  O  O39  1  0.99851523  0.20394119  0.91432143  1
  O  O40  1  0.18275945  0.99599511  0.91247623  1
  O  O41  1  0.80421140  0.78725435  0.90946613  1
  O  O42  1  0.94549217  0.13709705  0.58271005  1
  O  O43  1  0.17955012  0.03323205  0.59085438  1
  O  O44  1  0.85668077  0.80938351  0.58630644  1
  O  O45  1  0.96676795  0.82044988  0.09085438  1
  O  O46  1  0.86290295  0.05450783  0.08271005  1
  O  O47  1  0.19061649  0.14331923  0.08630644  1
  O  O48  1  0.64385147  0.13520529  0.74756648  1
  O  O49  1  0.46005741  0.33393004  0.74017119  1
  O  O50  1  0.86855947  0.53814910  0.74712973  1
  O  O51  1  0.66606996  0.53994259  0.24017119  1
  O  O52  1  0.86479471  0.35614853  0.24756648  1
  O  O53  1  0.46185090  0.13144053  0.24712973  1
  O  O54  1  0.62367071  0.47625186  0.91849686  1
  O  O55  1  0.86189173  0.38724659  0.91975182  1
  O  O56  1  0.52360833  0.14934796  0.92419391  1
  O  O57  1  0.61275341  0.13810827  0.41975182  1
  O  O58  1  0.52374814  0.37632929  0.41849686  1
  O  O59  1  0.85065204  0.47639167  0.42419391  1
  O  O60  1  0.32136768  0.45605335  0.07649513  1
  O  O61  1  0.13904066  0.65031857  0.08202593  1
  O  O62  1  0.54666503  0.86502713  0.07736056  1
  O  O63  1  0.34968143  0.86095934  0.58202593  1
  O  O64  1  0.54394665  0.67863232  0.57649513  1
  O  O65  1  0.13497287  0.45333497  0.57736056  1
  O  O66  1  0.28651443  0.81237377  0.25110500  1
  O  O67  1  0.53178332  0.72392036  0.25539204  1
  O  O68  1  0.19618556  0.48834480  0.25441063  1
  O  O69  1  0.27607964  0.46821668  0.75539204  1
  O  O70  1  0.18762623  0.71348557  0.75110500  1
  O  O71  1  0.51165520  0.80381444  0.75441063  1
loop_
_geom_bond_atom_site_label_1
_geom_bond_atom_site_label_2
_geom_bond_distance
_geom_bond_site_symmetry_2
Na0 O52 2.303148 1_555
Na0 O66 2.413776 1_655
Na0 O15 2.482194 1_555
Na0 O51 2.580753 1_555
Na0 O11 2.755972 1_655
Na0 O1 2.864404 1_555
Na0 O68 2.922262 1_655
Na0 O30 2.999242 1_655
Na1 O48 2.303148 1_555
Na1 O70 2.413776 1_545
Na1 O13 2.482194 1_555
Na1 O49 2.580753 1_555
Na1 O8 2.755972 1_545
Na1 O3 2.864404 1_555
Na1 O71 2.922262 1_545
Na1 O34 2.999242 1_545
Na2 O64 2.341156 1_555
Na2 O42 2.379791 1_565
Na2 O63 2.390236 1_555
Na2 O27 2.565750 1_555
Na2 O6 2.742247 1_555
Na3 O60 2.341156 1_555
Na3 O46 2.379791 1_455
Na3 O61 2.390236 1_555
Na3 O25 2.565750 1_554
Na3 O10 2.742247 1_555
Na4 O41 2.365234 1_455
Na4 O55 2.404297 1_455
Na4 O40 2.456718 1_555
Na4 O4 2.570605 1_555
Na4 O26 2.731427 1_555
Na4 O33 2.791399 1_555
Na4 O19 2.973093 1_456
Na5 O38 2.365234 1_555
Na5 O57 2.404297 1_555
Na5 O36 2.456718 1_545
Na5 O0 2.570605 1_545
Na5 O29 2.731427 1_545
Na5 O31 2.791399 1_545
Na5 O21 2.973093 1_555
Na6 O44 2.474979 1_555
Na6 O36 2.501844 1_655
Na6 O42 2.532126 1_565
Na6 O43 2.619770 1_665
Na6 O37 2.689491 1_565
Na6 O38 2.849250 1_665
Na7 O47 2.474979 1_556
Na7 O40 2.501844 1_545
Na7 O46 2.532126 1_456
Na7 O45 2.619770 1_446
Na7 O39 2.689491 1_455
Na7 O41 2.849250 1_445
Na8 O48 2.477278 1_555
Na8 O55 2.481939 1_555
Na8 O56 2.568616 1_555
Na8 O54 2.605606 1_555
Na8 O50 2.723862 1_555
Na8 O49 2.954364 1_555
Na9 O52 2.477278 1_555
Na9 O57 2.481939 1_555
Na9 O59 2.568616 1_555
Na9 O58 2.605606 1_555
Na9 O53 2.723862 1_555
Na9 O51 2.954364 1_555
Na10 O66 2.500956 1_555
Na10 O67 2.506631 1_555
Na10 O62 2.560985 1_555
Na10 O61 2.685431 1_555
Na10 O68 2.703060 1_555
Na10 O60 2.845755 1_555
Na11 O70 2.500956 1_555
Na11 O69 2.506630 1_555
Na11 O65 2.560985 1_555
Na11 O63 2.685431 1_555
Na11 O71 2.703060 1_555
Na11 O64 2.845756 1_555
Nb0 O43 1.970358 1_565
Nb0 O6 1.987364 1_455
Nb0 O7 1.997110 1_565
Nb0 O8 2.028311 1_555
Nb0 O44 2.103941 1_455
Nb0 O42 2.165436 1_465
Nb1 O45 1.970358 1_455
Nb1 O10 1.987364 1_565
Nb1 O9 1.997110 1_455
Nb1 O11 2.028311 1_555
Nb1 O47 2.103941 1_565
Nb1 O46 2.165436 1_465
Nb2 O56 1.980462 1_555
Nb2 O19 1.982437 1_556
Nb2 O18 1.994269 1_556
Nb2 O20 2.041074 1_556
Nb2 O54 2.087644 1_555
Nb2 O55 2.149367 1_555
Nb3 O59 1.980462 1_555
Nb3 O21 1.982437 1_555
Nb3 O22 1.994269 1_555
Nb3 O23 2.041074 1_555
Nb3 O58 2.087644 1_555
Nb3 O57 2.149367 1_555
Nb4 O30 1.916247 1_555
Nb4 O68 1.930956 1_555
Nb4 O32 1.991817 1_555
Nb4 O67 2.129429 1_555
Nb4 O31 2.144134 1_555
Nb4 O66 2.200040 1_555
Nb5 O34 1.916247 1_555
Nb5 O71 1.930956 1_555
Nb5 O35 1.991817 1_555
Nb5 O69 2.129429 1_555
Nb5 O33 2.144134 1_555
Nb5 O70 2.200041 1_555
O0 P0 1.512889 1_555
O0 Y0 2.258789 1_465
O1 P1 1.514395 1_555
O1 Y0 2.171348 1_565
O2 Si0 1.576706 1_655
O2 Y0 2.084769 1_555
O3 P2 1.514395 1_555
O3 Y1 2.171348 1_455
O4 P3 1.512889 1_555
O4 Y1 2.258789 1_465
O5 Si1 1.576706 1_545
O5 Y1 2.084769 1_555
O6 Si1 1.703700 1_555
O7 P2 1.610680 1_555
O8 P3 1.610715 1_555
O9 P1 1.610680 1_555
O10 Si0 1.703700 1_555
O11 P0 1.610715 1_555
O12 P4 1.511550 1_555
O12 Y2 2.177285 1_555
O13 Si2 1.595097 1_555
O13 Y2 2.140365 1_555
O14 P5 1.499577 1_555
O14 Y2 2.174232 1_555
O15 Si3 1.595097 1_555
O15 Y3 2.140365 1_555
O16 P6 1.511550 1_555
O16 Y3 2.177285 1_555
O17 P7 1.499577 1_555
O17 Y3 2.174232 1_555
O18 P7 1.597103 1_555
O19 Si3 1.722055 1_555
O20 P6 1.598137 1_555
O21 Si2 1.722055 1_555
O22 P5 1.597103 1_555
O23 P4 1.598137 1_555
O24 P8 1.497735 1_555
O24 Y4 2.195375 1_556
O25 P9 1.520157 1_555
O25 Y4 2.239631 1_556
O26 Si4 1.584748 1_555
O26 Y4 2.082007 1_556
O27 P10 1.520157 1_555
O27 Y5 2.239631 1_555
O28 P11 1.497735 1_555
O28 Y5 2.195375 1_555
O29 Si5 1.584748 1_555
O29 Y5 2.082007 1_555
O30 Si5 1.738136 1_555
O31 P10 1.579701 1_555
O32 P11 1.602320 1_555
O33 P9 1.579701 1_555
O34 Si4 1.738136 1_555
O35 P8 1.602320 1_555
O36 Si5 1.608364 1_555
O36 Y0 2.229769 1_465
O37 P10 1.519922 1_545
O37 Y0 2.216003 1_555
O38 P11 1.529515 1_555
O38 Y0 2.301932 1_455
O39 P9 1.519922 1_655
O39 Y1 2.216003 1_555
O40 Si4 1.608364 1_555
O40 Y1 2.229769 1_465
O41 P8 1.529515 1_555
O41 Y1 2.301932 1_565
O42 P4 1.577584 1_555
O43 Si2 1.672374 1_555
O44 P5 1.578321 1_555
O45 Si3 1.672374 1_555
O46 P6 1.577584 1_555
O47 P7 1.578321 1_555
O48 Si1 1.615564 1_545
O48 Y2 2.236415 1_555
O49 P2 1.524802 1_555
O49 Y2 2.263752 1_555
O50 P3 1.514878 1_655
O50 Y2 2.253265 1_555
O51 P1 1.524801 1_555
O51 Y3 2.263752 1_555
O52 Si0 1.615564 1_655
O52 Y3 2.236415 1_555
O53 P0 1.514878 1_545
O53 Y3 2.253265 1_555
O54 P8 1.573292 1_555
O55 P9 1.593508 1_655
O56 Si4 1.656891 1_545
O57 P10 1.593508 1_545
O58 P11 1.573292 1_555
O59 Si5 1.656891 1_655
O60 P7 1.525055 1_555
O60 Y4 2.308286 1_555
O61 Si3 1.607662 1_455
O61 Y4 2.218557 1_555
O62 P6 1.518491 1_565
O62 Y4 2.238380 1_555
O63 Si2 1.607662 1_565
O63 Y5 2.218557 1_555
O64 P5 1.525055 1_555
O64 Y5 2.308286 1_555
O65 P4 1.518491 1_455
O65 Y5 2.238380 1_555
O66 P0 1.577296 1_555
O67 P1 1.557579 1_555
O68 Si0 1.711518 1_555
O69 P2 1.557579 1_555
O70 P3 1.577296 1_555
O71 Si1 1.711518 1_555
