# generated using pymatgen
data_KCr3H6(SO7)2
_symmetry_space_group_name_H-M   'P 1'
_cell_length_a   7.23522805
_cell_length_b   10.31913962
_cell_length_c   7.35942375
_cell_angle_alpha   90.00063034
_cell_angle_beta   89.99902840
_cell_angle_gamma   91.39302390
_symmetry_Int_Tables_number   1
_chemical_formula_structural   KCr3H6(SO7)2
_chemical_formula_sum   'K2 Cr6 H12 S4 O28'
_cell_volume   549.30196361
_cell_formula_units_Z   2
loop_
 _symmetry_equiv_pos_site_id
 _symmetry_equiv_pos_as_xyz
  1  'x, y, z'
loop_
 _atom_site_type_symbol
 _atom_site_label
 _atom_site_symmetry_multiplicity
 _atom_site_fract_x
 _atom_site_fract_y
 _atom_site_fract_z
 _atom_site_occupancy
  K  K0  1  0.99990300  0.00009500  0.00002500  1
  K  K1  1  0.50006200  0.49992500  0.49999300  1
  Cr  Cr0  1  0.49980700  0.99982600  0.99997800  1
  Cr  Cr1  1  0.00019600  0.50014600  0.50003200  1
  Cr  Cr2  1  0.74997300  0.74998600  0.25000500  1
  Cr  Cr3  1  0.25000600  0.24999900  0.24999000  1
  Cr  Cr4  1  0.75003500  0.75001500  0.74998900  1
  Cr  Cr5  1  0.25002000  0.24999800  0.75000200  1
  H  H0  1  0.18103600  0.48835300  0.79577800  1
  H  H1  1  0.68076800  0.98839800  0.29585900  1
  H  H2  1  0.18103400  0.48837200  0.20426300  1
  H  H3  1  0.68098700  0.98840400  0.70435200  1
  H  H4  1  0.97673000  0.69265400  0.00002300  1
  H  H5  1  0.47681700  0.19242400  0.49999700  1
  H  H6  1  0.02319500  0.30757700  0.99999700  1
  H  H7  1  0.52328500  0.80734200  0.49999000  1
  H  H8  1  0.81922100  0.51158400  0.20413700  1
  H  H9  1  0.31895000  0.01165200  0.70422800  1
  H  H10  1  0.81899000  0.51161300  0.79564700  1
  H  H11  1  0.31894600  0.01162900  0.29574700  1
  S  S0  1  0.39141600  0.69561400  0.99995800  1
  S  S1  1  0.89139800  0.19573200  0.50004100  1
  S  S2  1  0.60861100  0.30427700  0.99995900  1
  S  S3  1  0.10858100  0.80438400  0.50002000  1
  O  O0  1  0.77592300  0.38795500  0.99994900  1
  O  O1  1  0.27591400  0.88801900  0.49999900  1
  O  O2  1  0.22407400  0.61198600  0.99997700  1
  O  O3  1  0.72408000  0.11205900  0.50005500  1
  O  O4  1  0.49657600  0.33157700  0.83350900  1
  O  O5  1  0.99653300  0.83150500  0.33353100  1
  O  O6  1  0.49657200  0.33154000  0.16642700  1
  O  O7  1  0.99656300  0.83156200  0.66652900  1
  O  O8  1  0.66288900  0.16498800  0.99993600  1
  O  O9  1  0.16316500  0.66513300  0.50005600  1
  O  O10  1  0.33683100  0.83486100  0.99994700  1
  O  O11  1  0.83708600  0.33501400  0.50006800  1
  O  O12  1  0.50342000  0.66847200  0.16647100  1
  O  O13  1  0.00343700  0.16844700  0.66648800  1
  O  O14  1  0.50348300  0.66846700  0.83347000  1
  O  O15  1  0.00343200  0.16847500  0.33357300  1
  O  O16  1  0.83417600  0.57103500  0.69211100  1
  O  O17  1  0.33403400  0.07092200  0.19207000  1
  O  O18  1  0.83323700  0.57061400  0.30822400  1
  O  O19  1  0.33406000  0.07101800  0.80783200  1
  O  O20  1  0.14130300  0.26256400  0.00000700  1
  O  O21  1  0.64200600  0.76310700  0.49995300  1
  O  O22  1  0.85800900  0.73689200  0.00006100  1
  O  O23  1  0.35870400  0.23743200  0.49997000  1
  O  O24  1  0.16597200  0.42905200  0.30791200  1
  O  O25  1  0.66583700  0.92898100  0.80788500  1
  O  O26  1  0.16596000  0.42896700  0.69218700  1
  O  O27  1  0.66675800  0.92935700  0.19179200  1
loop_
_geom_bond_atom_site_label_1
_geom_bond_atom_site_label_2
_geom_bond_distance
_geom_bond_site_symmetry_2
K0 O20 2.871873 1_655
K0 O27 2.872086 1_545
K0 O17 2.879282 1_655
K0 O25 2.879926 1_544
K0 O22 2.880142 1_545
K0 O19 2.880173 1_654
K0 O13 3.006971 1_654
K0 O8 3.007105 1_554
K0 O15 3.007174 1_655
K0 O7 3.007781 1_544
K0 O5 3.008211 1_545
K0 O10 3.008654 1_644
K1 O23 2.872003 1_555
K1 O18 2.872156 1_555
K1 O24 2.879276 1_555
K1 O26 2.879929 1_555
K1 O21 2.880060 1_555
K1 O16 2.880127 1_555
K1 O4 3.006823 1_555
K1 O11 3.007273 1_555
K1 O6 3.007313 1_555
K1 O14 3.007717 1_555
K1 O12 3.008051 1_555
K1 O9 3.008312 1_555
Cr0 O17 2.004502 1_566
Cr0 O25 2.004653 1_555
Cr0 O19 2.005085 1_565
Cr0 O27 2.005841 1_556
Cr0 O10 2.047109 1_555
Cr0 O8 2.049198 1_565
Cr1 O24 2.004653 1_555
Cr1 O16 2.004709 1_455
Cr1 O26 2.005155 1_555
Cr1 O18 2.005841 1_455
Cr1 O9 2.047267 1_555
Cr1 O11 2.049057 1_455
Cr2 O21 2.004321 1_555
Cr2 O22 2.004468 1_555
Cr2 O27 2.006559 1_555
Cr2 O18 2.006693 1_555
Cr2 O12 2.048103 1_555
Cr2 O5 2.048149 1_555
Cr3 O24 2.004961 1_555
Cr3 O17 2.005174 1_555
Cr3 O23 2.006208 1_555
Cr3 O20 2.006241 1_555
Cr3 O6 2.048344 1_555
Cr3 O15 2.048369 1_555
Cr4 O16 2.004445 1_555
Cr4 O25 2.004473 1_555
Cr4 O21 2.005095 1_555
Cr4 O22 2.005207 1_556
Cr4 O7 2.047904 1_555
Cr4 O14 2.048104 1_555
Cr5 O26 2.004063 1_555
Cr5 O19 2.004144 1_555
Cr5 O20 2.006403 1_556
Cr5 O23 2.006491 1_555
Cr5 O4 2.048323 1_555
Cr5 O13 2.048394 1_555
H0 O26 0.982541 1_555
H1 O27 0.982352 1_555
H2 O24 0.982448 1_555
H3 O25 0.982507 1_555
H4 O22 0.982492 1_555
H5 O23 0.982499 1_555
H6 O20 0.982492 1_556
H7 O21 0.982477 1_555
H8 O18 0.982400 1_555
H9 O19 0.982511 1_555
H10 O16 0.982542 1_555
H11 O17 0.982453 1_555
O0 S2 1.469759 1_555
O1 S3 1.469630 1_555
O2 S0 1.469642 1_555
O3 S1 1.469765 1_555
O4 S2 1.499381 1_555
O5 S3 1.499296 1_655
O6 S2 1.499401 1_554
O7 S3 1.499389 1_655
O8 S2 1.499207 1_555
O9 S3 1.499462 1_555
O10 S0 1.499424 1_555
O11 S1 1.499208 1_555
O12 S0 1.499311 1_554
O13 S1 1.499347 1_455
O14 S0 1.499391 1_555
O15 S1 1.499368 1_455
