# generated using pymatgen
data_Na4HfZnSi2SO12
_symmetry_space_group_name_H-M   'P 1'
_cell_length_a   9.20322552
_cell_length_b   9.22568747
_cell_length_c   22.39860596
_cell_angle_alpha   89.20733602
_cell_angle_beta   90.00000000
_cell_angle_gamma   119.91949281
_symmetry_Int_Tables_number   1
_chemical_formula_structural   Na4HfZnSi2SO12
_chemical_formula_sum   'Na24 Hf6 Zn6 Si12 S6 O72'
_cell_volume   1648.11245914
_cell_formula_units_Z   6
loop_
 _symmetry_equiv_pos_site_id
 _symmetry_equiv_pos_as_xyz
  1  'x, y, z'
loop_
 _atom_site_type_symbol
 _atom_site_label
 _atom_site_symmetry_multiplicity
 _atom_site_fract_x
 _atom_site_fract_y
 _atom_site_fract_z
 _atom_site_occupancy
  Na  Na0  1  0.64480669  0.02668963  0.25434902  1
  Na  Na1  1  0.36326156  0.34823722  0.24193629  1
  Na  Na2  1  0.99072848  0.61802529  0.23961049  1
  Na  Na3  1  0.62729681  0.61802529  0.73961049  1
  Na  Na4  1  0.98497566  0.34823722  0.74193629  1
  Na  Na5  1  0.38188293  0.02668963  0.75434902  1
  Na  Na6  1  0.31147369  0.36002263  0.58768202  1
  Na  Na7  1  0.02992856  0.68157022  0.57526929  1
  Na  Na8  1  0.65739548  0.95135829  0.57294349  1
  Na  Na9  1  0.29396381  0.95135829  0.07294349  1
  Na  Na10  1  0.65164266  0.68157022  0.07526929  1
  Na  Na11  1  0.04854993  0.36002263  0.08768202  1
  Na  Na12  1  0.97813969  0.69335663  0.92101602  1
  Na  Na13  1  0.69659456  0.01490422  0.90860329  1
  Na  Na14  1  0.32406148  0.28469229  0.90627749  1
  Na  Na15  1  0.96062981  0.28469229  0.40627749  1
  Na  Na16  1  0.31830866  0.01490422  0.40860329  1
  Na  Na17  1  0.71521593  0.69335663  0.42101602  1
  Na  Na18  1  0.98118450  0.98571607  0.49299255  1
  Na  Na19  1  0.00453156  0.98571607  0.99299255  1
  Na  Na20  1  0.64785150  0.31904907  0.82632555  1
  Na  Na21  1  0.67119856  0.31904907  0.32632555  1
  Na  Na22  1  0.31451750  0.65238307  0.15965955  1
  Na  Na23  1  0.33786456  0.65238307  0.65965955  1
  Hf  Hf0  1  0.98865565  0.00691108  0.64793961  1
  Hf  Hf1  1  0.01825543  0.00691108  0.14793961  1
  Hf  Hf2  1  0.65532265  0.34024408  0.98127261  1
  Hf  Hf3  1  0.68492243  0.34024408  0.48127261  1
  Hf  Hf4  1  0.32198865  0.67357808  0.31460661  1
  Hf  Hf5  1  0.35158843  0.67357808  0.81460661  1
  Zn  Zn0  1  0.00205123  0.00285324  0.34817986  1
  Zn  Zn1  1  0.00080201  0.00285324  0.84817986  1
  Zn  Zn2  1  0.66871823  0.33618624  0.68151286  1
  Zn  Zn3  1  0.66746901  0.33618624  0.18151286  1
  Zn  Zn4  1  0.33538423  0.66952024  0.01484686  1
  Zn  Zn5  1  0.33413501  0.66952024  0.51484686  1
  Si  Si0  1  0.30061818  0.00509106  0.25323938  1
  Si  Si1  1  0.00033713  0.29460532  0.25215074  1
  Si  Si2  1  0.29426818  0.29460532  0.75215074  1
  Si  Si3  1  0.70447288  0.00509106  0.75323938  1
  Si  Si4  1  0.96728518  0.33842406  0.58657238  1
  Si  Si5  1  0.66700413  0.62793832  0.58548374  1
  Si  Si6  1  0.96093518  0.62793832  0.08548374  1
  Si  Si7  1  0.37113988  0.33842406  0.08657238  1
  Si  Si8  1  0.63395118  0.67175806  0.91990638  1
  Si  Si9  1  0.33367013  0.96127232  0.91881774  1
  Si  Si10  1  0.62760118  0.96127232  0.41881774  1
  Si  Si11  1  0.03780588  0.67175806  0.41990638  1
  S  S0  1  0.70326272  0.70775394  0.25195616  1
  S  S1  1  0.00449122  0.70775394  0.75195616  1
  S  S2  1  0.36992972  0.04108694  0.58528916  1
  S  S3  1  0.67115822  0.04108694  0.08528916  1
  S  S4  1  0.03659572  0.37442094  0.91862316  1
  S  S5  1  0.33782422  0.37442094  0.41862316  1
  O  O0  1  0.21425065  0.02936485  0.31195115  1
  O  O1  1  0.80041112  0.78571227  0.30586371  1
  O  O2  1  0.97069117  0.18135664  0.31158495  1
  O  O3  1  0.21066547  0.18135664  0.81158495  1
  O  O4  1  0.98530116  0.78571227  0.80586371  1
  O  O5  1  0.81511420  0.02936485  0.81195115  1
  O  O6  1  0.79345081  0.96929442  0.69449066  1
  O  O7  1  0.17530066  0.19671593  0.69286542  1
  O  O8  1  0.02698599  0.81321895  0.69714245  1
  O  O9  1  0.78623296  0.81321895  0.19714245  1
  O  O10  1  0.02141527  0.19671593  0.19286542  1
  O  O11  1  0.17584362  0.96929442  0.19449066  1
  O  O12  1  0.88091765  0.36269785  0.64528415  1
  O  O13  1  0.46707812  0.11904527  0.63919671  1
  O  O14  1  0.63735817  0.51468964  0.64491795  1
  O  O15  1  0.87733247  0.51468964  0.14491795  1
  O  O16  1  0.65196816  0.11904527  0.13919671  1
  O  O17  1  0.48178120  0.36269785  0.14528415  1
  O  O18  1  0.46011781  0.30262742  0.02782366  1
  O  O19  1  0.84196766  0.53004893  0.02619842  1
  O  O20  1  0.69365299  0.14655195  0.03047545  1
  O  O21  1  0.45289996  0.14655195  0.53047545  1
  O  O22  1  0.68808227  0.53004893  0.52619842  1
  O  O23  1  0.84251062  0.30262742  0.52782366  1
  O  O24  1  0.54758365  0.69603185  0.97861815  1
  O  O25  1  0.13374412  0.45237927  0.97253071  1
  O  O26  1  0.30402417  0.84802364  0.97825195  1
  O  O27  1  0.54399847  0.84802364  0.47825195  1
  O  O28  1  0.31863416  0.45237927  0.47253071  1
  O  O29  1  0.14844720  0.69603185  0.47861815  1
  O  O30  1  0.12678381  0.63596142  0.36115766  1
  O  O31  1  0.50863366  0.86338293  0.35953242  1
  O  O32  1  0.36031899  0.47988595  0.36380945  1
  O  O33  1  0.11956596  0.47988595  0.86380945  1
  O  O34  1  0.35474827  0.86338293  0.85953242  1
  O  O35  1  0.50917662  0.63596142  0.86115766  1
  O  O36  1  0.01123070  0.83250201  0.41216174  1
  O  O37  1  0.81764411  0.99093681  0.41408234  1
  O  O38  1  0.18923515  0.20563603  0.41457915  1
  O  O39  1  0.01640088  0.20563603  0.91457915  1
  O  O40  1  0.17329270  0.99093681  0.91408234  1
  O  O41  1  0.82127130  0.83250201  0.91216174  1
  O  O42  1  0.98019923  0.16314057  0.58692222  1
  O  O43  1  0.19855842  0.02490457  0.58792235  1
  O  O44  1  0.84867257  0.81133412  0.58807978  1
  O  O45  1  0.96266155  0.81133412  0.08807978  1
  O  O46  1  0.82634615  0.02490457  0.08792235  1
  O  O47  1  0.18294133  0.16314057  0.08692222  1
  O  O48  1  0.67789770  0.16583501  0.74549474  1
  O  O49  1  0.48431111  0.32426981  0.74741534  1
  O  O50  1  0.85590215  0.53896903  0.74791215  1
  O  O51  1  0.68306788  0.53896903  0.24791215  1
  O  O52  1  0.83995970  0.32426981  0.24741534  1
  O  O53  1  0.48793830  0.16583501  0.24549474  1
  O  O54  1  0.64686623  0.49647357  0.92025522  1
  O  O55  1  0.86522542  0.35823757  0.92125535  1
  O  O56  1  0.51533957  0.14466712  0.92141278  1
  O  O57  1  0.62932855  0.14466712  0.42141278  1
  O  O58  1  0.49301315  0.35823757  0.42125535  1
  O  O59  1  0.84960833  0.49647357  0.42025522  1
  O  O60  1  0.34456370  0.49916901  0.07882874  1
  O  O61  1  0.15097711  0.65760381  0.08074934  1
  O  O62  1  0.52256815  0.87230303  0.08124615  1
  O  O63  1  0.34973388  0.87230303  0.58124615  1
  O  O64  1  0.50662570  0.65760381  0.58074934  1
  O  O65  1  0.15460430  0.49916901  0.57882874  1
  O  O66  1  0.31353223  0.82980757  0.25358922  1
  O  O67  1  0.53189142  0.69157157  0.25458935  1
  O  O68  1  0.18200557  0.47800112  0.25474678  1
  O  O69  1  0.29599455  0.47800112  0.75474678  1
  O  O70  1  0.15967915  0.69157157  0.75458935  1
  O  O71  1  0.51627433  0.82980757  0.75358922  1
loop_
_geom_bond_atom_site_label_1
_geom_bond_atom_site_label_2
_geom_bond_distance
_geom_bond_site_symmetry_2
Na0 O53 2.369227 1_555
Na0 O52 2.419998 1_555
Na0 O66 2.659179 1_545
Na0 O16 2.695558 1_555
Na0 O31 2.722000 1_545
Na0 O67 2.726358 1_545
Na0 O2 2.907955 1_555
Na1 O17 2.396056 1_555
Na1 O53 2.465193 1_555
Na1 O68 2.509959 1_555
Na1 O51 2.572359 1_555
Na1 O67 2.764581 1_555
Na1 O10 2.952180 1_555
Na1 O0 2.973577 1_555
Na1 O32 3.008680 1_555
Na2 O52 2.352899 1_555
Na2 O15 2.357964 1_555
Na2 O51 2.553408 1_555
Na2 O66 2.639680 1_655
Na2 O68 2.671900 1_655
Na2 O30 2.968664 1_655
Na2 O11 2.971148 1_655
Na3 O49 2.352899 1_555
Na3 O14 2.357966 1_555
Na3 O50 2.553417 1_555
Na3 O71 2.639687 1_555
Na3 O69 2.671908 1_555
Na3 O35 2.968667 1_555
Na3 O6 2.971148 1_555
Na4 O12 2.396052 1_555
Na4 O48 2.465186 1_555
Na4 O69 2.509950 1_655
Na4 O50 2.572351 1_555
Na4 O70 2.764581 1_655
Na4 O7 2.952180 1_655
Na4 O5 2.973577 1_555
Na4 O33 3.008678 1_655
Na5 O48 2.369235 1_555
Na5 O49 2.419996 1_555
Na5 O71 2.659172 1_545
Na5 O13 2.695560 1_555
Na5 O34 2.721999 1_545
Na5 O70 2.726360 1_545
Na5 O3 2.907955 1_555
Na6 O65 2.369241 1_555
Na6 O64 2.420002 1_555
Na6 O42 2.659179 1_455
Na6 O28 2.695541 1_555
Na6 O7 2.722000 1_555
Na6 O43 2.726358 1_555
Na6 O14 2.907955 1_555
Na7 O29 2.396030 1_555
Na7 O65 2.465178 1_555
Na7 O44 2.509959 1_455
Na7 O63 2.572354 1_555
Na7 O43 2.764581 1_565
Na7 O22 2.952180 1_455
Na7 O12 2.973577 1_455
Na7 O8 3.008680 1_555
Na8 O64 2.352892 1_555
Na8 O27 2.357944 1_555
Na8 O63 2.553421 1_555
Na8 O42 2.639680 1_565
Na8 O44 2.671900 1_555
Na8 O6 2.968664 1_555
Na8 O23 2.971148 1_565
Na9 O61 2.352892 1_555
Na9 O26 2.357939 1_554
Na9 O62 2.553403 1_555
Na9 O47 2.639687 1_565
Na9 O45 2.671908 1_455
Na9 O11 2.968667 1_555
Na9 O18 2.971148 1_565
Na10 O24 2.396038 1_554
Na10 O60 2.465192 1_555
Na10 O45 2.509950 1_555
Na10 O62 2.572369 1_555
Na10 O46 2.764581 1_565
Na10 O19 2.952180 1_555
Na10 O17 2.973577 1_555
Na10 O9 3.008678 1_555
Na11 O60 2.369225 1_555
Na11 O61 2.420006 1_555
Na11 O47 2.659172 1_555
Na11 O25 2.695539 1_554
Na11 O10 2.721999 1_555
Na11 O46 2.726360 1_455
Na11 O15 2.907955 1_455
Na12 O41 2.369227 1_555
Na12 O40 2.419998 1_655
Na12 O54 2.659173 1_555
Na12 O4 2.695558 1_555
Na12 O19 2.721982 1_556
Na12 O55 2.726369 1_555
Na12 O26 2.907955 1_655
Na13 O5 2.396056 1_555
Na13 O41 2.465193 1_545
Na13 O56 2.509940 1_555
Na13 O39 2.572359 1_655
Na13 O55 2.764571 1_555
Na13 O34 2.952180 1_545
Na13 O24 2.973577 1_545
Na13 O20 3.008654 1_556
Na14 O40 2.352899 1_545
Na14 O3 2.357964 1_555
Na14 O39 2.553408 1_555
Na14 O54 2.639682 1_555
Na14 O56 2.671913 1_555
Na14 O18 2.968648 1_556
Na14 O35 2.971148 1_555
Na15 O37 2.352899 1_545
Na15 O2 2.357966 1_555
Na15 O38 2.553417 1_655
Na15 O59 2.639668 1_555
Na15 O57 2.671896 1_555
Na15 O23 2.968641 1_555
Na15 O30 2.971148 1_655
Na16 O0 2.396052 1_555
Na16 O36 2.465186 1_545
Na16 O57 2.509957 1_555
Na16 O38 2.572351 1_555
Na16 O58 2.764571 1_555
Na16 O31 2.952180 1_545
Na16 O29 2.973577 1_545
Na16 O21 3.008658 1_555
Na17 O36 2.369235 1_655
Na17 O37 2.419996 1_555
Na17 O59 2.659188 1_555
Na17 O1 2.695560 1_555
Na17 O22 2.721986 1_555
Na17 O58 2.726365 1_555
Na17 O27 2.907955 1_555
Na18 O37 2.337003 1_555
Na18 O36 2.411034 1_655
Na18 O44 2.561175 1_555
Na18 O38 2.625548 1_665
Na18 O42 2.686236 1_565
Na18 O43 2.820241 1_665
Na19 O40 2.337004 1_555
Na19 O41 2.411034 1_455
Na19 O45 2.561175 1_456
Na19 O39 2.625548 1_565
Na19 O47 2.686236 1_566
Na19 O46 2.820241 1_466
Na20 O49 2.337003 1_555
Na20 O48 2.411034 1_555
Na20 O56 2.561175 1_555
Na20 O50 2.625548 1_555
Na20 O54 2.686236 1_555
Na20 O55 2.820241 1_555
Na21 O52 2.337004 1_555
Na21 O53 2.411034 1_555
Na21 O57 2.561175 1_555
Na21 O51 2.625548 1_555
Na21 O59 2.686236 1_555
Na21 O58 2.820241 1_555
Na22 O61 2.337003 1_555
Na22 O60 2.411034 1_555
Na22 O68 2.561175 1_555
Na22 O62 2.625548 1_555
Na22 O66 2.686236 1_555
Na22 O67 2.820241 1_555
Na23 O64 2.337004 1_555
Na23 O65 2.411034 1_555
Na23 O69 2.561175 1_555
Na23 O63 2.625548 1_555
Na23 O71 2.686236 1_555
Na23 O70 2.820241 1_555
Hf0 O6 1.950160 1_545
Hf0 O42 2.002187 1_555
Hf0 O7 2.019325 1_655
Hf0 O44 2.112128 1_545
Hf0 O8 2.259761 1_645
Hf0 O43 2.289196 1_655
Hf1 O11 1.950160 1_545
Hf1 O47 2.002187 1_555
Hf1 O10 2.019325 1_555
Hf1 O45 2.112128 1_445
Hf1 O9 2.259761 1_445
Hf1 O46 2.289196 1_455
Hf2 O18 1.950160 1_556
Hf2 O54 2.002187 1_555
Hf2 O19 2.019325 1_556
Hf2 O56 2.112128 1_555
Hf2 O20 2.259761 1_556
Hf2 O55 2.289196 1_555
Hf3 O23 1.950160 1_555
Hf3 O59 2.002187 1_555
Hf3 O22 2.019325 1_555
Hf3 O57 2.112128 1_555
Hf3 O21 2.259761 1_555
Hf3 O58 2.289196 1_555
Hf4 O30 1.950160 1_555
Hf4 O66 2.002187 1_555
Hf4 O31 2.019325 1_555
Hf4 O68 2.112128 1_555
Hf4 O32 2.259761 1_555
Hf4 O67 2.289196 1_555
Hf5 O35 1.950160 1_555
Hf5 O71 2.002187 1_555
Hf5 O34 2.019325 1_555
Hf5 O69 2.112128 1_555
Hf5 O33 2.259761 1_555
Hf5 O70 2.289196 1_555
O0 Si0 1.611539 1_555
O0 Zn0 2.012515 1_555
O1 S0 1.468725 1_555
O1 Zn0 2.167782 1_665
O2 Si1 1.617220 1_655
O2 Zn0 1.975844 1_655
O3 Si2 1.617220 1_555
O3 Zn1 1.975844 1_555
O4 S1 1.468725 1_655
O4 Zn1 2.167782 1_665
O5 Si3 1.611539 1_555
O5 Zn1 2.012515 1_655
O6 Si3 1.671227 1_565
O7 Si2 1.680625 1_555
O8 S1 1.504308 1_555
O9 S0 1.504308 1_555
O10 Si1 1.680625 1_555
O11 Si0 1.671227 1_565
O12 Si4 1.611539 1_555
O12 Zn2 2.012515 1_555
O13 S2 1.468725 1_555
O13 Zn2 2.167782 1_555
O14 Si5 1.617220 1_555
O14 Zn2 1.975844 1_555
O15 Si6 1.617220 1_555
O15 Zn3 1.975844 1_555
O16 S3 1.468725 1_555
O16 Zn3 2.167782 1_555
O17 Si7 1.611539 1_555
O17 Zn3 2.012515 1_555
O18 Si7 1.671227 1_555
O19 Si6 1.680625 1_555
O20 S3 1.504308 1_555
O21 S2 1.504308 1_555
O22 Si5 1.680625 1_555
O23 Si4 1.671227 1_555
O24 Si8 1.611539 1_555
O24 Zn4 2.012515 1_556
O25 S4 1.468725 1_555
O25 Zn4 2.167782 1_556
O26 Si9 1.617220 1_555
O26 Zn4 1.975844 1_556
O27 Si10 1.617220 1_555
O27 Zn5 1.975844 1_555
O28 S5 1.468725 1_555
O28 Zn5 2.167782 1_555
O29 Si11 1.611539 1_555
O29 Zn5 2.012515 1_555
O30 Si11 1.671227 1_555
O31 Si10 1.680625 1_555
O32 S5 1.504308 1_555
O33 S4 1.504308 1_555
O34 Si9 1.680625 1_555
O35 Si8 1.671227 1_555
O36 Si11 1.625983 1_555
O36 Zn0 2.144996 1_565
O37 Si10 1.633058 1_555
O37 Zn0 2.209230 1_665
O38 S5 1.477387 1_555
O38 Zn0 2.354044 1_555
O39 S4 1.477391 1_555
O39 Zn1 2.354044 1_555
O40 Si9 1.633049 1_555
O40 Zn1 2.209230 1_565
O41 Si8 1.625989 1_555
O41 Zn1 2.144996 1_665
O42 Si4 1.679467 1_555
O43 S2 1.509337 1_555
O44 Si5 1.685890 1_555
O45 Si6 1.685895 1_555
O46 S3 1.509327 1_555
O47 Si7 1.679472 1_555
O48 Si3 1.625983 1_555
O48 Zn2 2.144996 1_555
O49 Si2 1.633058 1_555
O49 Zn2 2.209230 1_555
O50 S1 1.477387 1_655
O50 Zn2 2.354044 1_555
O51 S0 1.477391 1_555
O51 Zn3 2.354044 1_555
O52 Si1 1.633049 1_655
O52 Zn3 2.209230 1_555
O53 Si0 1.625989 1_555
O53 Zn3 2.144996 1_555
O54 Si8 1.679482 1_555
O55 S4 1.509323 1_655
O56 Si9 1.685889 1_545
O57 Si10 1.685880 1_545
O58 S5 1.509341 1_555
O59 Si11 1.679472 1_655
O60 Si7 1.625996 1_555
O60 Zn4 2.144996 1_555
O61 Si6 1.633044 1_455
O61 Zn4 2.209230 1_555
O62 S3 1.477383 1_565
O62 Zn4 2.354044 1_555
O63 S2 1.477376 1_565
O63 Zn5 2.354044 1_555
O64 Si5 1.633062 1_555
O64 Zn5 2.209230 1_555
O65 Si4 1.625984 1_455
O65 Zn5 2.144996 1_555
O66 Si0 1.679467 1_565
O67 S0 1.509337 1_555
O68 Si1 1.685890 1_555
O69 Si2 1.685895 1_555
O70 S1 1.509327 1_555
O71 Si3 1.679472 1_565
