# generated using pymatgen
data_MgV2(OF3)2
_symmetry_space_group_name_H-M   'P 1'
_cell_length_a   5.39609910
_cell_length_b   5.02389617
_cell_length_c   6.08084243
_cell_angle_alpha   89.85730639
_cell_angle_beta   116.74300014
_cell_angle_gamma   90.10854798
_symmetry_Int_Tables_number   1
_chemical_formula_structural   MgV2(OF3)2
_chemical_formula_sum   'Mg1 V2 O2 F6'
_cell_volume   147.21456137
_cell_formula_units_Z   1
loop_
 _symmetry_equiv_pos_site_id
 _symmetry_equiv_pos_as_xyz
  1  'x, y, z'
loop_
 _atom_site_type_symbol
 _atom_site_label
 _atom_site_symmetry_multiplicity
 _atom_site_fract_x
 _atom_site_fract_y
 _atom_site_fract_z
 _atom_site_occupancy
  Mg  Mg0  1  0.74406100  0.48662400  0.66538000  1
  V  V0  1  0.05544800  0.98546900  0.04243900  1
  V  V1  1  0.46519800  0.49171600  0.99981600  1
  O  O0  1  0.35150600  0.80773900  0.10288100  1
  O  O1  1  0.15424300  0.32012000  0.90455100  1
  F  F0  1  0.12086600  0.14831200  0.32707300  1
  F  F1  1  0.84433800  0.69215200  0.10009100  1
  F  F2  1  0.40539400  0.62280600  0.68563100  1
  F  F3  1  0.64068600  0.37333700  0.33675300  1
  F  F4  1  0.87492000  0.85117500  0.70186600  1
  F  F5  1  0.67667300  0.22054800  0.89542300  1
loop_
_geom_bond_atom_site_label_1
_geom_bond_atom_site_label_2
_geom_bond_distance
_geom_bond_site_symmetry_2
Mg0 O1 2.194956 1_655
O0 V0 1.720429 1_555
O0 V1 1.909062 1_554
O1 V1 1.736798 1_555
O1 V0 2.050786 1_546
F0 V0 1.801587 1_545
F1 V0 1.985592 1_655
F1 V1 2.108067 1_554
F2 V1 1.904622 1_555
F2 Mg0 2.007641 1_555
F3 Mg0 1.905165 1_555
F3 V1 1.923069 1_554
F4 Mg0 1.938618 1_555
F4 V0 1.970254 1_656
F5 V1 2.055047 1_555
F5 Mg0 2.079069 1_555
F5 V0 2.175082 1_646
