# generated using pymatgen
data_NaAlH24(SO10)2
_symmetry_space_group_name_H-M   'P 1'
_cell_length_a   12.27966000
_cell_length_b   12.27966000
_cell_length_c   12.27966000
_cell_angle_alpha   90.00000000
_cell_angle_beta   90.00000000
_cell_angle_gamma   90.00000000
_symmetry_Int_Tables_number   1
_chemical_formula_structural   NaAlH24(SO10)2
_chemical_formula_sum   'Na4 Al4 H96 S8 O80'
_cell_volume   1851.65054189
_cell_formula_units_Z   4
loop_
 _symmetry_equiv_pos_site_id
 _symmetry_equiv_pos_as_xyz
  1  'x, y, z'
loop_
 _atom_site_type_symbol
 _atom_site_label
 _atom_site_symmetry_multiplicity
 _atom_site_fract_x
 _atom_site_fract_y
 _atom_site_fract_z
 _atom_site_occupancy
  Na  Na0  1  0.50000000  0.50000000  0.50000000  1
  Na  Na1  1  0.00000000  0.50000000  0.00000000  1
  Na  Na2  1  0.00000000  0.00000000  0.50000000  1
  Na  Na3  1  0.50000000  0.00000000  0.00000000  1
  Al  Al0  1  0.00000000  0.00000000  0.00000000  1
  Al  Al1  1  0.50000000  0.00000000  0.50000000  1
  Al  Al2  1  0.50000000  0.50000000  0.00000000  1
  Al  Al3  1  0.00000000  0.50000000  0.50000000  1
  H  H0  1  0.09042900  0.34304100  0.38822100  1
  H  H1  1  0.59042900  0.15695900  0.61177900  1
  H  H2  1  0.90957100  0.84304100  0.11177900  1
  H  H3  1  0.15695900  0.61177900  0.59042900  1
  H  H4  1  0.11177900  0.90957100  0.84304100  1
  H  H5  1  0.61177900  0.59042900  0.15695900  1
  H  H6  1  0.34304100  0.38822100  0.09042900  1
  H  H7  1  0.38822100  0.09042900  0.34304100  1
  H  H8  1  0.84304100  0.11177900  0.90957100  1
  H  H9  1  0.65695900  0.88822100  0.40957100  1
  H  H10  1  0.88822100  0.40957100  0.65695900  1
  H  H11  1  0.40957100  0.65695900  0.88822100  1
  H  H12  1  0.90957100  0.65695900  0.61177900  1
  H  H13  1  0.40957100  0.84304100  0.38822100  1
  H  H14  1  0.09042900  0.15695900  0.88822100  1
  H  H15  1  0.84304100  0.38822100  0.40957100  1
  H  H16  1  0.88822100  0.09042900  0.15695900  1
  H  H17  1  0.38822100  0.40957100  0.84304100  1
  H  H18  1  0.65695900  0.61177900  0.90957100  1
  H  H19  1  0.61177900  0.90957100  0.65695900  1
  H  H20  1  0.15695900  0.88822100  0.09042900  1
  H  H21  1  0.34304100  0.11177900  0.59042900  1
  H  H22  1  0.11177900  0.59042900  0.34304100  1
  H  H23  1  0.59042900  0.34304100  0.11177900  1
  H  H24  1  0.05136400  0.20711800  0.00699400  1
  H  H25  1  0.55136400  0.29288200  0.99300600  1
  H  H26  1  0.94863600  0.70711800  0.49300600  1
  H  H27  1  0.29288200  0.99300600  0.55136400  1
  H  H28  1  0.49300600  0.94863600  0.70711800  1
  H  H29  1  0.99300600  0.55136400  0.29288200  1
  H  H30  1  0.20711800  0.00699400  0.05136400  1
  H  H31  1  0.00699400  0.05136400  0.20711800  1
  H  H32  1  0.70711800  0.49300600  0.94863600  1
  H  H33  1  0.79288200  0.50699400  0.44863600  1
  H  H34  1  0.50699400  0.44863600  0.79288200  1
  H  H35  1  0.44863600  0.79288200  0.50699400  1
  H  H36  1  0.94863600  0.79288200  0.99300600  1
  H  H37  1  0.44863600  0.70711800  0.00699400  1
  H  H38  1  0.05136400  0.29288200  0.50699400  1
  H  H39  1  0.70711800  0.00699400  0.44863600  1
  H  H40  1  0.50699400  0.05136400  0.29288200  1
  H  H41  1  0.00699400  0.44863600  0.70711800  1
  H  H42  1  0.79288200  0.99300600  0.94863600  1
  H  H43  1  0.99300600  0.94863600  0.79288200  1
  H  H44  1  0.29288200  0.50699400  0.05136400  1
  H  H45  1  0.20711800  0.49300600  0.55136400  1
  H  H46  1  0.49300600  0.55136400  0.20711800  1
  H  H47  1  0.58835500  0.31388500  0.35749700  1
  H  H48  1  0.96512400  0.30825700  0.11293200  1
  H  H49  1  0.46512400  0.19174300  0.88706800  1
  H  H50  1  0.03487600  0.80825700  0.38706800  1
  H  H51  1  0.19174300  0.88706800  0.46512400  1
  H  H52  1  0.38706800  0.03487600  0.80825700  1
  H  H53  1  0.88706800  0.46512400  0.19174300  1
  H  H54  1  0.30825700  0.11293200  0.96512400  1
  H  H55  1  0.11293200  0.96512400  0.30825700  1
  H  H56  1  0.80825700  0.38706800  0.03487600  1
  H  H57  1  0.69174300  0.61293200  0.53487600  1
  H  H58  1  0.61293200  0.53487600  0.69174300  1
  H  H59  1  0.53487600  0.69174300  0.61293200  1
  H  H60  1  0.03487600  0.69174300  0.88706800  1
  H  H61  1  0.53487600  0.80825700  0.11293200  1
  H  H62  1  0.96512400  0.19174300  0.61293200  1
  H  H63  1  0.80825700  0.11293200  0.53487600  1
  H  H64  1  0.61293200  0.96512400  0.19174300  1
  H  H65  1  0.11293200  0.53487600  0.80825700  1
  H  H66  1  0.69174300  0.88706800  0.03487600  1
  H  H67  1  0.88706800  0.03487600  0.69174300  1
  H  H68  1  0.19174300  0.61293200  0.96512400  1
  H  H69  1  0.30825700  0.38706800  0.46512400  1
  H  H70  1  0.38706800  0.46512400  0.30825700  1
  H  H71  1  0.46512400  0.30825700  0.38706800  1
  H  H72  1  0.08835500  0.31388500  0.14250300  1
  H  H73  1  0.58835500  0.18611500  0.85749700  1
  H  H74  1  0.91164500  0.81388500  0.35749700  1
  H  H75  1  0.18611500  0.85749700  0.58835500  1
  H  H76  1  0.35749700  0.91164500  0.81388500  1
  H  H77  1  0.85749700  0.58835500  0.18611500  1
  H  H78  1  0.31388500  0.14250300  0.08835500  1
  H  H79  1  0.14250300  0.08835500  0.31388500  1
  H  H80  1  0.81388500  0.35749700  0.91164500  1
  H  H81  1  0.68611500  0.64250300  0.41164500  1
  H  H82  1  0.64250300  0.41164500  0.68611500  1
  H  H83  1  0.41164500  0.68611500  0.64250300  1
  H  H84  1  0.91164500  0.68611500  0.85749700  1
  H  H85  1  0.41164500  0.81388500  0.14250300  1
  H  H86  1  0.08835500  0.18611500  0.64250300  1
  H  H87  1  0.81388500  0.14250300  0.41164500  1
  H  H88  1  0.64250300  0.08835500  0.18611500  1
  H  H89  1  0.14250300  0.41164500  0.81388500  1
  H  H90  1  0.68611500  0.85749700  0.91164500  1
  H  H91  1  0.85749700  0.91164500  0.68611500  1
  H  H92  1  0.18611500  0.64250300  0.08835500  1
  H  H93  1  0.31388500  0.35749700  0.58835500  1
  H  H94  1  0.35749700  0.58835500  0.31388500  1
  H  H95  1  0.55136400  0.20711800  0.49300600  1
  S  S0  1  0.26578900  0.26578900  0.26578900  1
  S  S1  1  0.23421100  0.73421100  0.76578900  1
  S  S2  1  0.76578900  0.23421100  0.73421100  1
  S  S3  1  0.73421100  0.76578900  0.23421100  1
  S  S4  1  0.73421100  0.73421100  0.73421100  1
  S  S5  1  0.76578900  0.26578900  0.23421100  1
  S  S6  1  0.23421100  0.76578900  0.26578900  1
  S  S7  1  0.26578900  0.23421100  0.76578900  1
  O  O0  1  0.63889500  0.96012900  0.44307600  1
  O  O1  1  0.13889500  0.53987100  0.55692400  1
  O  O2  1  0.36110500  0.46012900  0.05692400  1
  O  O3  1  0.53987100  0.55692400  0.13889500  1
  O  O4  1  0.05692400  0.36110500  0.46012900  1
  O  O5  1  0.55692400  0.13889500  0.53987100  1
  O  O6  1  0.96012900  0.44307600  0.63889500  1
  O  O7  1  0.44307600  0.63889500  0.96012900  1
  O  O8  1  0.46012900  0.05692400  0.36110500  1
  O  O9  1  0.03987100  0.94307600  0.86110500  1
  O  O10  1  0.94307600  0.86110500  0.03987100  1
  O  O11  1  0.86110500  0.03987100  0.94307600  1
  O  O12  1  0.36110500  0.03987100  0.55692400  1
  O  O13  1  0.86110500  0.46012900  0.44307600  1
  O  O14  1  0.63889500  0.53987100  0.94307600  1
  O  O15  1  0.46012900  0.44307600  0.86110500  1
  O  O16  1  0.94307600  0.63889500  0.53987100  1
  O  O17  1  0.44307600  0.86110500  0.46012900  1
  O  O18  1  0.03987100  0.55692400  0.36110500  1
  O  O19  1  0.55692400  0.36110500  0.03987100  1
  O  O20  1  0.53987100  0.94307600  0.63889500  1
  O  O21  1  0.96012900  0.05692400  0.13889500  1
  O  O22  1  0.05692400  0.13889500  0.96012900  1
  O  O23  1  0.13889500  0.96012900  0.05692400  1
  O  O24  1  0.57877100  0.03812900  0.18474400  1
  O  O25  1  0.07877100  0.46187100  0.81525600  1
  O  O26  1  0.42122900  0.53812900  0.31525600  1
  O  O27  1  0.46187100  0.81525600  0.07877100  1
  O  O28  1  0.31525600  0.42122900  0.53812900  1
  O  O29  1  0.81525600  0.07877100  0.46187100  1
  O  O30  1  0.03812900  0.18474400  0.57877100  1
  O  O31  1  0.18474400  0.57877100  0.03812900  1
  O  O32  1  0.53812900  0.31525600  0.42122900  1
  O  O33  1  0.96187100  0.68474400  0.92122900  1
  O  O34  1  0.68474400  0.92122900  0.96187100  1
  O  O35  1  0.92122900  0.96187100  0.68474400  1
  O  O36  1  0.42122900  0.96187100  0.81525600  1
  O  O37  1  0.92122900  0.53812900  0.18474400  1
  O  O38  1  0.57877100  0.46187100  0.68474400  1
  O  O39  1  0.53812900  0.18474400  0.92122900  1
  O  O40  1  0.68474400  0.57877100  0.46187100  1
  O  O41  1  0.18474400  0.92122900  0.53812900  1
  O  O42  1  0.96187100  0.81525600  0.42122900  1
  O  O43  1  0.81525600  0.42122900  0.96187100  1
  O  O44  1  0.46187100  0.68474400  0.57877100  1
  O  O45  1  0.03812900  0.31525600  0.07877100  1
  O  O46  1  0.31525600  0.07877100  0.03812900  1
  O  O47  1  0.07877100  0.03812900  0.31525600  1
  O  O48  1  0.80777200  0.26927800  0.34800400  1
  O  O49  1  0.30777200  0.23072200  0.65199600  1
  O  O50  1  0.19222800  0.76927800  0.15199600  1
  O  O51  1  0.23072200  0.65199600  0.30777200  1
  O  O52  1  0.15199600  0.19222800  0.76927800  1
  O  O53  1  0.65199600  0.30777200  0.23072200  1
  O  O54  1  0.26927800  0.34800400  0.80777200  1
  O  O55  1  0.34800400  0.80777200  0.26927800  1
  O  O56  1  0.76927800  0.15199600  0.19222800  1
  O  O57  1  0.73072200  0.84800400  0.69222800  1
  O  O58  1  0.84800400  0.69222800  0.73072200  1
  O  O59  1  0.69222800  0.73072200  0.84800400  1
  O  O60  1  0.19222800  0.73072200  0.65199600  1
  O  O61  1  0.69222800  0.76927800  0.34800400  1
  O  O62  1  0.80777200  0.23072200  0.84800400  1
  O  O63  1  0.76927800  0.34800400  0.69222800  1
  O  O64  1  0.84800400  0.80777200  0.23072200  1
  O  O65  1  0.34800400  0.69222800  0.76927800  1
  O  O66  1  0.73072200  0.65199600  0.19222800  1
  O  O67  1  0.65199600  0.19222800  0.73072200  1
  O  O68  1  0.23072200  0.84800400  0.80777200  1
  O  O69  1  0.26927800  0.15199600  0.30777200  1
  O  O70  1  0.15199600  0.30777200  0.26927800  1
  O  O71  1  0.30777200  0.26927800  0.15199600  1
  O  O72  1  0.33651400  0.33651400  0.33651400  1
  O  O73  1  0.16348600  0.83651400  0.33651400  1
  O  O74  1  0.83651400  0.33651400  0.16348600  1
  O  O75  1  0.66348600  0.66348600  0.66348600  1
  O  O76  1  0.66348600  0.83651400  0.16348600  1
  O  O77  1  0.83651400  0.16348600  0.66348600  1
  O  O78  1  0.16348600  0.66348600  0.83651400  1
  O  O79  1  0.33651400  0.16348600  0.83651400  1
loop_
_geom_bond_atom_site_label_1
_geom_bond_atom_site_label_2
_geom_bond_distance
_geom_bond_site_symmetry_2
Na0 O38 2.510253 1_555
Na0 O44 2.510253 1_555
Na0 O40 2.510253 1_555
Na0 O28 2.510253 1_555
Na0 O32 2.510253 1_555
Na0 O26 2.510253 1_555
Na1 O31 2.510253 1_555
Na1 O45 2.510253 1_555
Na1 O37 2.510253 1_455
Na1 O25 2.510253 1_554
Na1 O33 2.510253 1_454
Na1 O43 2.510253 1_454
Na2 O30 2.510253 1_555
Na2 O47 2.510253 1_555
Na2 O41 2.510253 1_545
Na2 O29 2.510253 1_455
Na2 O35 2.510253 1_445
Na2 O42 2.510253 1_445
Na3 O24 2.510253 1_555
Na3 O46 2.510253 1_555
Na3 O39 2.510253 1_554
Na3 O27 2.510253 1_545
Na3 O34 2.510253 1_544
Na3 O36 2.510253 1_544
Al0 O23 1.907180 1_545
Al0 O22 1.907180 1_554
Al0 O21 1.907180 1_455
Al0 O9 1.907180 1_544
Al0 O10 1.907180 1_445
Al0 O11 1.907180 1_454
Al1 O8 1.907180 1_555
Al1 O5 1.907180 1_555
Al1 O12 1.907180 1_555
Al1 O0 1.907180 1_545
Al1 O20 1.907180 1_545
Al1 O17 1.907180 1_545
Al2 O2 1.907180 1_555
Al2 O19 1.907180 1_555
Al2 O3 1.907180 1_555
Al2 O14 1.907180 1_554
Al2 O7 1.907180 1_554
Al2 O15 1.907180 1_554
Al3 O4 1.907180 1_555
Al3 O1 1.907180 1_555
Al3 O18 1.907180 1_555
Al3 O16 1.907180 1_455
Al3 O6 1.907180 1_455
Al3 O13 1.907180 1_455
H0 O4 0.999089 1_555
H0 O70 1.700715 1_555
H1 O5 0.999089 1_555
H1 O67 1.700715 1_555
H2 O10 0.999089 1_555
H2 O64 1.700715 1_555
H3 O1 0.999089 1_555
H3 O60 1.700715 1_555
H4 O9 0.999089 1_555
H4 O68 1.700715 1_555
H5 O3 0.999089 1_555
H5 O66 1.700715 1_555
H6 O2 0.999089 1_555
H6 O71 1.700715 1_555
H7 O8 0.999089 1_555
H7 O69 1.700715 1_555
H8 O11 0.999089 1_555
H8 O62 1.700715 1_555
H9 O0 0.999089 1_555
H9 O61 1.700715 1_555
H10 O6 0.999089 1_555
H10 O63 1.700715 1_555
H11 O7 0.999089 1_555
H11 O65 1.700715 1_555
H12 O16 0.999089 1_555
H12 O58 1.700715 1_555
H13 O17 0.999089 1_555
H13 O55 1.700715 1_555
H14 O22 0.999089 1_555
H14 O52 1.700715 1_555
H15 O13 0.999089 1_555
H15 O48 1.700715 1_555
H16 O21 0.999089 1_555
H16 O56 1.700715 1_555
H17 O15 0.999089 1_555
H17 O54 1.700715 1_555
H18 O14 0.999089 1_555
H18 O59 1.700715 1_555
H19 O20 0.999089 1_555
H19 O57 1.700715 1_555
H20 O23 0.999089 1_555
H20 O50 1.700715 1_555
H21 O12 0.999089 1_555
H21 O49 1.700715 1_555
H22 O18 0.999089 1_555
H22 O51 1.700715 1_555
H23 O19 0.999089 1_555
H23 O53 1.700715 1_555
H24 O22 1.018666 1_554
H24 O45 1.602057 1_555
H25 O19 1.018666 1_556
H25 O39 1.602057 1_555
H26 O16 1.018666 1_555
H26 O42 1.602057 1_555
H27 O12 1.018666 1_565
H27 O41 1.602057 1_555
H28 O20 1.018666 1_555
H28 O36 1.602057 1_555
H29 O18 1.018666 1_655
H29 O37 1.602057 1_555
H30 O23 1.018666 1_545
H30 O46 1.602057 1_555
H31 O21 1.018666 1_455
H31 O47 1.602057 1_555
H32 O14 1.018666 1_555
H32 O43 1.602057 1_555
H33 O13 1.018666 1_555
H33 O40 1.602057 1_555
H34 O15 1.018666 1_555
H34 O38 1.602057 1_555
H35 O17 1.018666 1_555
H35 O44 1.602057 1_555
H36 O10 1.018666 1_556
H36 O33 1.602057 1_555
H37 O7 1.018666 1_554
H37 O27 1.602057 1_555
H38 O4 1.018666 1_555
H38 O30 1.602057 1_555
H39 O0 1.018666 1_545
H39 O29 1.602057 1_555
H40 O8 1.018666 1_555
H40 O24 1.602057 1_555
H41 O6 1.018666 1_455
H41 O25 1.602057 1_555
H42 O11 1.018666 1_565
H42 O34 1.602057 1_555
H43 O9 1.018666 1_655
H43 O35 1.602057 1_555
H44 O2 1.018666 1_555
H44 O31 1.602057 1_555
H45 O1 1.018666 1_555
H45 O28 1.602057 1_555
H46 O3 1.018666 1_555
H46 O26 1.602057 1_555
H47 O32 0.996568 1_555
H47 O53 1.743515 1_555
H48 O45 0.993491 1_655
H49 O39 0.993491 1_555
H50 O42 0.993491 1_455
H51 O41 0.993491 1_555
H52 O36 0.993491 1_545
H53 O37 0.993491 1_555
H54 O46 0.993491 1_556
H55 O47 0.993491 1_565
H56 O43 0.993491 1_554
H57 O40 0.993491 1_555
H58 O38 0.993491 1_555
H59 O44 0.993491 1_555
H60 O33 0.993491 1_455
H61 O27 0.993491 1_555
H62 O30 0.993491 1_655
H63 O29 0.993491 1_555
H64 O24 0.993491 1_565
H65 O25 0.993491 1_555
H66 O34 0.993491 1_554
H67 O35 0.993491 1_545
H68 O31 0.993491 1_556
H69 O28 0.993491 1_555
H70 O26 0.993491 1_555
H71 O32 0.993491 1_555
H72 O45 0.996568 1_555
H72 O70 1.743515 1_555
H73 O39 0.996568 1_555
H73 O67 1.743515 1_555
H74 O42 0.996568 1_555
H74 O64 1.743515 1_555
H75 O41 0.996568 1_555
H75 O60 1.743515 1_555
H76 O36 0.996568 1_555
H76 O68 1.743515 1_555
H77 O37 0.996568 1_555
H77 O66 1.743515 1_555
H78 O46 0.996568 1_555
H78 O71 1.743515 1_555
H79 O47 0.996568 1_555
H79 O69 1.743515 1_555
H80 O43 0.996568 1_555
H80 O62 1.743515 1_555
H81 O40 0.996568 1_555
H81 O61 1.743515 1_555
H82 O38 0.996568 1_555
H82 O63 1.743515 1_555
H83 O44 0.996568 1_555
H83 O65 1.743515 1_555
H84 O33 0.996568 1_555
H84 O58 1.743515 1_555
H85 O27 0.996568 1_555
H85 O55 1.743515 1_555
H86 O30 0.996568 1_555
H86 O52 1.743515 1_555
H87 O29 0.996568 1_555
H87 O48 1.743515 1_555
H88 O24 0.996568 1_555
H88 O56 1.743515 1_555
H89 O25 0.996568 1_555
H89 O54 1.743515 1_555
H90 O34 0.996568 1_555
H90 O59 1.743515 1_555
H91 O35 0.996568 1_555
H91 O57 1.743515 1_555
H92 O31 0.996568 1_555
H92 O50 1.743515 1_555
H93 O28 0.996568 1_555
H93 O49 1.743515 1_555
H94 O26 0.996568 1_555
H94 O51 1.743515 1_555
H95 O5 1.018666 1_555
H95 O32 1.602057 1_555
O48 S5 1.490024 1_555
O49 S7 1.490024 1_555
O50 S6 1.490024 1_555
O51 S6 1.490024 1_555
O52 S7 1.490024 1_555
O53 S5 1.490024 1_555
O54 S7 1.490024 1_555
O55 S6 1.490024 1_555
O56 S5 1.490024 1_555
O57 S4 1.490024 1_555
O58 S4 1.490024 1_555
O59 S4 1.490024 1_555
O60 S1 1.490024 1_555
O61 S3 1.490024 1_555
O62 S2 1.490024 1_555
O63 S2 1.490024 1_555
O64 S3 1.490024 1_555
O65 S1 1.490024 1_555
O66 S3 1.490024 1_555
O67 S2 1.490024 1_555
O68 S1 1.490024 1_555
O69 S0 1.490024 1_555
O70 S0 1.490024 1_555
O71 S0 1.490024 1_555
O72 S0 1.504250 1_555
O73 S6 1.504250 1_555
O74 S5 1.504250 1_555
O75 S4 1.504250 1_555
O76 S3 1.504250 1_555
O77 S2 1.504250 1_555
O78 S1 1.504250 1_555
O79 S7 1.504250 1_555
