# generated using pymatgen
data_Li(NiO2)2
_symmetry_space_group_name_H-M   'P 1'
_cell_length_a   5.75783617
_cell_length_b   5.75783617
_cell_length_c   5.75783617
_cell_angle_alpha   60.00000000
_cell_angle_beta   60.00000000
_cell_angle_gamma   60.00000000
_symmetry_Int_Tables_number   1
_chemical_formula_structural   Li(NiO2)2
_chemical_formula_sum   'Li2 Ni4 O8'
_cell_volume   134.97797632
_cell_formula_units_Z   2
loop_
 _symmetry_equiv_pos_site_id
 _symmetry_equiv_pos_as_xyz
  1  'x, y, z'
loop_
 _atom_site_type_symbol
 _atom_site_label
 _atom_site_symmetry_multiplicity
 _atom_site_fract_x
 _atom_site_fract_y
 _atom_site_fract_z
 _atom_site_occupancy
  Li  Li0  1  0.75000000  0.75000000  0.75000000  1
  Li  Li1  1  0.50000000  0.50000000  0.50000000  1
  Ni  Ni0  1  0.12500000  0.12500000  0.12500000  1
  Ni  Ni1  1  0.12500000  0.12500000  0.62500000  1
  Ni  Ni2  1  0.12500000  0.62500000  0.12500000  1
  Ni  Ni3  1  0.62500000  0.12500000  0.12500000  1
  O  O0  1  0.91486600  0.36171100  0.36171100  1
  O  O1  1  0.36171100  0.36171100  0.36171100  1
  O  O2  1  0.33513400  0.88828900  0.88828900  1
  O  O3  1  0.88828900  0.88828900  0.33513400  1
  O  O4  1  0.88828900  0.88828900  0.88828900  1
  O  O5  1  0.88828900  0.33513400  0.88828900  1
  O  O6  1  0.36171100  0.36171100  0.91486600  1
  O  O7  1  0.36171100  0.91486600  0.36171100  1
loop_
_geom_bond_atom_site_label_1
_geom_bond_atom_site_label_2
_geom_bond_distance
_geom_bond_site_symmetry_2
Li0 O5 1.950390 1_555
Li0 O3 1.950390 1_555
Li0 O2 1.950390 1_555
Li0 O4 1.950395 1_555
Li1 O6 1.950390 1_555
Li1 O7 1.950390 1_555
Li1 O0 1.950390 1_555
Li1 O1 1.950395 1_555
Ni0 O0 1.933558 1_455
Ni0 O5 1.933558 1_454
Ni0 O7 1.933558 1_545
Ni0 O2 1.933558 1_544
Ni0 O6 1.933558 1_554
Ni0 O3 1.933558 1_445
Ni1 O4 1.933558 1_445
Ni1 O1 1.933558 1_555
Ni1 O2 1.933562 1_545
Ni1 O5 1.933562 1_455
Ni1 O0 1.933562 1_455
Ni1 O7 1.933562 1_545
Ni2 O4 1.933558 1_454
Ni2 O1 1.933558 1_555
Ni2 O3 1.933562 1_455
Ni2 O2 1.933562 1_554
Ni2 O0 1.933562 1_455
Ni2 O6 1.933562 1_554
Ni3 O4 1.933558 1_544
Ni3 O1 1.933558 1_555
Ni3 O3 1.933562 1_545
Ni3 O5 1.933562 1_554
Ni3 O7 1.933562 1_545
Ni3 O6 1.933562 1_554
