# generated using pymatgen
data_K3PSe16
_symmetry_space_group_name_H-M   'P 1'
_cell_length_a   11.76736128
_cell_length_b   11.76737028
_cell_length_c   11.76754777
_cell_angle_alpha   59.99991444
_cell_angle_beta   59.99992438
_cell_angle_gamma   59.99968967
_symmetry_Int_Tables_number   1
_chemical_formula_structural   K3PSe16
_chemical_formula_sum   'K6 P2 Se32'
_cell_volume   1152.20016038
_cell_formula_units_Z   2
loop_
 _symmetry_equiv_pos_site_id
 _symmetry_equiv_pos_as_xyz
  1  'x, y, z'
loop_
 _atom_site_type_symbol
 _atom_site_label
 _atom_site_symmetry_multiplicity
 _atom_site_fract_x
 _atom_site_fract_y
 _atom_site_fract_z
 _atom_site_occupancy
  K  K0  1  0.25049084  0.24983243  0.25062035  1
  K  K1  1  0.62505758  0.62497527  0.12496330  1
  K  K2  1  0.12492540  0.62502351  0.62504662  1
  K  K3  1  0.62495644  0.12496771  0.62503197  1
  K  K4  1  0.62494563  0.62503358  0.62497197  1
  K  K5  1  0.99985657  0.00010749  0.99998092  1
  P  P0  1  0.50001132  0.50014128  0.49975496  1
  P  P1  1  0.74998714  0.75000057  0.75000140  1
  Se  Se0  1  0.57155882  0.15652308  0.31878937  1
  Se  Se1  1  0.31871177  0.15654675  0.95321216  1
  Se  Se2  1  0.15657753  0.57141134  0.95326979  1
  Se  Se3  1  0.15656682  0.31872958  0.57151601  1
  Se  Se4  1  0.95324081  0.31879588  0.15654645  1
  Se  Se5  1  0.31871787  0.57148738  0.15665601  1
  Se  Se6  1  0.95323483  0.15657967  0.57147191  1
  Se  Se7  1  0.15653584  0.95322161  0.31871826  1
  Se  Se8  1  0.67791963  0.93140149  0.29698009  1
  Se  Se9  1  0.29690637  0.67786837  0.93155650  1
  Se  Se10  1  0.93144300  0.29693604  0.67795071  1
  Se  Se11  1  0.67794839  0.09359553  0.93148462  1
  Se  Se12  1  0.57142372  0.95318687  0.15663512  1
  Se  Se13  1  0.93143819  0.09374296  0.29690499  1
  Se  Se14  1  0.09359173  0.67798479  0.29692804  1
  Se  Se15  1  0.09364539  0.93146000  0.67795391  1
  Se  Se16  1  0.29685563  0.93149307  0.09365898  1
  Se  Se17  1  0.93147550  0.67791684  0.09365472  1
  Se  Se18  1  0.29691145  0.09365664  0.67795372  1
  Se  Se19  1  0.09365849  0.29692093  0.93148517  1
  Se  Se20  1  0.42356696  0.42337795  0.72926166  1
  Se  Se21  1  0.72957099  0.42395489  0.42318517  1
  Se  Se22  1  0.42295729  0.72969518  0.42352357  1
  Se  Se23  1  0.42395633  0.42319586  0.42318580  1
  Se  Se24  1  0.82652989  0.82653093  0.52041105  1
  Se  Se25  1  0.52040896  0.82653008  0.82653171  1
  Se  Se26  1  0.82653160  0.52040951  0.82653174  1
  Se  Se27  1  0.82652986  0.82653015  0.82652829  1
  Se  Se28  1  0.31872675  0.95317258  0.57150776  1
  Se  Se29  1  0.95315384  0.57149370  0.31873861  1
  Se  Se30  1  0.57153534  0.31866260  0.95322420  1
  Se  Se31  1  0.67794047  0.29690597  0.09366941  1
loop_
_geom_bond_atom_site_label_1
_geom_bond_atom_site_label_2
_geom_bond_distance
_geom_bond_site_symmetry_2
K0 Se0 3.758302 1_555
K0 Se3 3.758996 1_555
K0 Se28 3.759897 1_545
K0 Se5 3.762919 1_555
K0 Se12 3.764511 1_545
K0 Se30 3.765608 1_554
K0 Se6 3.766085 1_455
K0 Se29 3.767943 1_455
K0 Se7 3.771329 1_545
K0 Se2 3.772065 1_554
K0 Se1 3.774761 1_554
K0 Se4 3.775477 1_455
K1 Se21 3.539625 1_555
K1 Se23 3.540477 1_555
K1 Se26 3.541986 1_554
K1 Se27 3.542157 1_554
K1 Se25 3.542481 1_554
K1 Se22 3.544171 1_555
K1 P0 3.601058 1_555
K1 P1 3.602693 1_554
K1 Se17 3.770079 1_555
K1 Se4 3.770309 1_555
K1 Se31 3.770479 1_555
K1 Se5 3.770901 1_555
K1 Se12 3.770991 1_555
K1 Se16 3.771579 1_555
K2 Se22 3.538676 1_555
K2 Se27 3.541763 1_455
K2 Se26 3.541867 1_455
K2 Se20 3.541900 1_555
K2 Se24 3.542009 1_455
K2 Se23 3.548359 1_555
K2 P1 3.602401 1_455
K2 P0 3.603821 1_555
K2 Se15 3.770219 1_555
K2 Se19 3.770494 1_555
K2 Se3 3.770954 1_555
K2 Se14 3.770992 1_555
K2 Se2 3.771161 1_555
K2 Se7 3.771184 1_555
K3 Se20 3.539728 1_555
K3 Se23 3.540282 1_555
K3 Se25 3.541899 1_545
K3 Se24 3.542327 1_545
K3 Se27 3.542408 1_545
K3 Se21 3.547670 1_555
K3 P1 3.602681 1_545
K3 P0 3.604665 1_555
K3 Se0 3.769942 1_555
K3 Se18 3.770115 1_555
K3 Se11 3.770546 1_555
K3 Se1 3.770631 1_555
K3 Se13 3.770810 1_555
K3 Se6 3.771734 1_555
K4 Se21 3.540463 1_555
K4 Se25 3.542661 1_555
K4 Se24 3.542787 1_555
K4 Se26 3.543202 1_555
K4 Se20 3.543355 1_555
K4 Se22 3.545905 1_555
K4 P1 3.603393 1_555
K4 P0 3.603448 1_555
K4 Se8 3.769525 1_555
K4 Se28 3.770122 1_555
K4 Se29 3.770746 1_555
K4 Se10 3.770869 1_555
K4 Se9 3.770908 1_555
K4 Se30 3.771640 1_555
K5 Se31 3.769210 1_556
K5 Se11 3.769381 1_555
K5 Se10 3.769768 1_555
K5 Se8 3.770548 1_546
K5 Se19 3.770607 1_655
K5 Se15 3.770678 1_645
K5 Se13 3.771006 1_556
K5 Se18 3.771066 1_655
K5 Se17 3.771121 1_546
K5 Se16 3.771226 1_646
K5 Se14 3.771342 1_646
K5 Se9 3.772177 1_645
P0 Se20 2.205138 1_555
P0 Se22 2.205558 1_555
P0 Se21 2.205609 1_555
P0 Se23 2.205728 1_555
P1 Se25 2.205784 1_555
P1 Se26 2.205909 1_555
P1 Se24 2.205940 1_555
P1 Se27 2.206006 1_555
Se0 Se31 2.385227 1_555
Se0 Se8 2.386016 1_545
Se1 Se19 2.384854 1_555
Se1 Se16 2.385420 1_546
Se2 Se9 2.384954 1_555
Se5 Se9 2.385810 1_554
Se10 Se6 2.385007 1_555
Se10 Se3 2.385893 1_655
Se11 Se30 2.385057 1_555
Se11 Se12 2.386060 1_546
Se12 Se8 2.385095 1_555
Se13 Se4 2.385127 1_555
Se13 Se7 2.385748 1_645
Se14 Se5 2.385154 1_555
Se14 Se29 2.385864 1_455
Se15 Se28 2.385050 1_555
Se15 Se6 2.385705 1_465
Se16 Se7 2.384903 1_555
Se17 Se29 2.384976 1_555
Se17 Se2 2.385573 1_654
Se18 Se3 2.384954 1_555
Se18 Se28 2.385907 1_545
Se19 Se4 2.385564 1_456
Se30 Se31 2.385454 1_556
