# generated using pymatgen
data_MgFe2Mo2(ClO4)2
_symmetry_space_group_name_H-M   'P 1'
_cell_length_a   5.73656805
_cell_length_b   6.86169520
_cell_length_c   6.72707785
_cell_angle_alpha   88.32803125
_cell_angle_beta   89.86251603
_cell_angle_gamma   89.97362641
_symmetry_Int_Tables_number   1
_chemical_formula_structural   MgFe2Mo2(ClO4)2
_chemical_formula_sum   'Mg1 Fe2 Mo2 Cl2 O8'
_cell_volume   264.68163228
_cell_formula_units_Z   1
loop_
 _symmetry_equiv_pos_site_id
 _symmetry_equiv_pos_as_xyz
  1  'x, y, z'
loop_
 _atom_site_type_symbol
 _atom_site_label
 _atom_site_symmetry_multiplicity
 _atom_site_fract_x
 _atom_site_fract_y
 _atom_site_fract_z
 _atom_site_occupancy
  Mg  Mg0  1  0.50599800  0.74959000  0.25205400  1
  Fe  Fe0  1  0.26941600  0.24998600  0.24954100  1
  Fe  Fe1  1  0.73744700  0.75012400  0.75043500  1
  Mo  Mo0  1  0.99915700  0.24992400  0.75005200  1
  Mo  Mo1  1  0.00793700  0.75018000  0.24946200  1
  Cl  Cl0  1  0.66382800  0.25009700  0.25026400  1
  Cl  Cl1  1  0.31304900  0.74997100  0.74815300  1
  O  O0  1  0.23666600  0.94693400  0.26026100  1
  O  O1  1  0.23657800  0.55298100  0.23897600  1
  O  O2  1  0.17213100  0.24856800  0.52163600  1
  O  O3  1  0.17222100  0.25116400  0.97779300  1
  O  O4  1  0.77834700  0.77552200  0.44385400  1
  O  O5  1  0.81487200  0.04447000  0.76154600  1
  O  O6  1  0.77723900  0.72470900  0.05692400  1
  O  O7  1  0.81511300  0.45577900  0.73905000  1
loop_
_geom_bond_atom_site_label_1
_geom_bond_atom_site_label_2
_geom_bond_distance
_geom_bond_site_symmetry_2
Mg0 O4 2.039774 1_555
Mg0 O6 2.043613 1_555
Mg0 O0 2.055688 1_555
Mg0 O1 2.055710 1_555
Fe0 O2 1.912065 1_555
Fe0 O3 1.912279 1_554
Fe0 O1 2.086649 1_555
Fe0 O0 2.087140 1_545
Fe1 O7 2.071621 1_555
Fe1 O5 2.071688 1_565
Fe1 O6 2.077180 1_556
Fe1 O4 2.077410 1_555
Mo0 O5 1.762278 1_555
Mo0 O7 1.763023 1_555
Mo0 O2 1.827365 1_655
Mo0 O3 1.827813 1_655
Mo1 O4 1.865403 1_455
Mo1 O6 1.865801 1_455
Mo1 O0 1.886114 1_555
Mo1 O1 1.886725 1_555
Cl0 Fe0 2.262589 1_555
Cl1 Fe1 2.434674 1_555
