# generated using pymatgen
data_Sn2SI2
_symmetry_space_group_name_H-M   'P 1'
_cell_length_a   4.42992600
_cell_length_b   18.45662900
_cell_length_c   26.53676400
_cell_angle_alpha   90.00000000
_cell_angle_beta   90.00000000
_cell_angle_gamma   90.00000000
_symmetry_Int_Tables_number   1
_chemical_formula_structural   Sn2SI2
_chemical_formula_sum   'Sn24 S12 I24'
_cell_volume   2169.68564782
_cell_formula_units_Z   12
loop_
 _symmetry_equiv_pos_site_id
 _symmetry_equiv_pos_as_xyz
  1  'x, y, z'
loop_
 _atom_site_type_symbol
 _atom_site_label
 _atom_site_symmetry_multiplicity
 _atom_site_fract_x
 _atom_site_fract_y
 _atom_site_fract_z
 _atom_site_occupancy
  Sn  Sn0  1  0.75000000  0.98632900  0.43578200  1
  Sn  Sn1  1  0.25000000  0.01367100  0.56421800  1
  Sn  Sn2  1  0.75000000  0.48632900  0.06421800  1
  Sn  Sn3  1  0.25000000  0.51367100  0.93578200  1
  Sn  Sn4  1  0.75000000  0.16342000  0.34026000  1
  Sn  Sn5  1  0.25000000  0.83658000  0.65974000  1
  Sn  Sn6  1  0.75000000  0.66342000  0.15974000  1
  Sn  Sn7  1  0.25000000  0.33658000  0.84026000  1
  Sn  Sn8  1  0.75000000  0.30908200  0.44998600  1
  Sn  Sn9  1  0.25000000  0.69091800  0.55001400  1
  Sn  Sn10  1  0.75000000  0.80908200  0.05001400  1
  Sn  Sn11  1  0.25000000  0.19091800  0.94998600  1
  Sn  Sn12  1  0.75000000  0.46455100  0.56113400  1
  Sn  Sn13  1  0.25000000  0.03544900  0.06113400  1
  Sn  Sn14  1  0.75000000  0.96455100  0.93886600  1
  Sn  Sn15  1  0.25000000  0.68106500  0.31541200  1
  Sn  Sn16  1  0.75000000  0.31893500  0.68458800  1
  Sn  Sn17  1  0.25000000  0.18106500  0.18458800  1
  Sn  Sn18  1  0.75000000  0.81893500  0.81541200  1
  Sn  Sn19  1  0.25000000  0.99687900  0.27667400  1
  Sn  Sn20  1  0.75000000  0.00312100  0.72332600  1
  Sn  Sn21  1  0.25000000  0.49687900  0.22332600  1
  Sn  Sn22  1  0.75000000  0.50312100  0.77667400  1
  Sn  Sn23  1  0.25000000  0.53544900  0.43886600  1
  S  S0  1  0.75000000  0.94991100  0.03803800  1
  S  S1  1  0.25000000  0.55008900  0.53803800  1
  S  S2  1  0.75000000  0.44991100  0.46196200  1
  S  S3  1  0.25000000  0.48128000  0.83923300  1
  S  S4  1  0.75000000  0.51872000  0.16076700  1
  S  S5  1  0.25000000  0.98128000  0.66076700  1
  S  S6  1  0.75000000  0.01872000  0.33923300  1
  S  S7  1  0.25000000  0.63892900  0.22101700  1
  S  S8  1  0.75000000  0.36107100  0.77898300  1
  S  S9  1  0.25000000  0.13892900  0.27898300  1
  S  S10  1  0.75000000  0.86107100  0.72101700  1
  S  S11  1  0.25000000  0.05008900  0.96196200  1
  I  I0  1  0.75000000  0.54267400  0.31803400  1
  I  I1  1  0.25000000  0.45732600  0.68196600  1
  I  I2  1  0.75000000  0.04267400  0.18196600  1
  I  I3  1  0.25000000  0.95732600  0.81803400  1
  I  I4  1  0.75000000  0.62469200  0.91534500  1
  I  I5  1  0.25000000  0.37530800  0.08465500  1
  I  I6  1  0.75000000  0.12469200  0.58465500  1
  I  I7  1  0.25000000  0.87530800  0.41534500  1
  I  I8  1  0.75000000  0.67697900  0.45601800  1
  I  I9  1  0.25000000  0.32302100  0.54398200  1
  I  I10  1  0.75000000  0.17697900  0.04398200  1
  I  I11  1  0.25000000  0.82302100  0.95601800  1
  I  I12  1  0.75000000  0.78888800  0.28222000  1
  I  I13  1  0.25000000  0.21111200  0.71778000  1
  I  I14  1  0.75000000  0.28888800  0.21778000  1
  I  I15  1  0.25000000  0.71111200  0.78222000  1
  I  I16  1  0.75000000  0.16301700  0.86844500  1
  I  I17  1  0.25000000  0.83698300  0.13155500  1
  I  I18  1  0.75000000  0.66301700  0.63155500  1
  I  I19  1  0.25000000  0.33698300  0.36844500  1
  I  I20  1  0.75000000  0.37464400  0.93577500  1
  I  I21  1  0.25000000  0.62535600  0.06422500  1
  I  I22  1  0.75000000  0.87464400  0.56422500  1
  I  I23  1  0.25000000  0.12535600  0.43577500  1
loop_
_geom_bond_atom_site_label_1
_geom_bond_atom_site_label_2
_geom_bond_distance
_geom_bond_site_symmetry_2
S0 Sn10 2.618585 1_555
S0 Sn14 2.645539 1_554
S0 Sn13 2.788212 1_665
S0 Sn13 2.788212 1_565
S1 Sn9 2.618585 1_555
S1 Sn23 2.645539 1_555
S1 Sn12 2.788212 1_555
S1 Sn12 2.788212 1_455
S2 Sn8 2.618585 1_555
S2 Sn12 2.645539 1_555
S2 Sn23 2.788212 1_655
S2 Sn23 2.788212 1_555
S3 Sn3 2.630921 1_555
S3 Sn7 2.670813 1_555
S3 Sn22 2.797237 1_455
S3 Sn22 2.797237 1_555
S4 Sn2 2.630921 1_555
S4 Sn6 2.670813 1_555
S4 Sn21 2.797237 1_655
S4 Sn21 2.797237 1_555
S5 Sn1 2.630921 1_565
S5 Sn5 2.670813 1_555
S5 Sn20 2.797237 1_565
S5 Sn20 2.797237 1_465
S6 Sn0 2.630921 1_545
S6 Sn4 2.670813 1_555
S6 Sn19 2.797237 1_545
S6 Sn19 2.797237 1_645
S7 Sn21 2.622480 1_555
S7 Sn15 2.622883 1_555
S7 Sn6 2.784702 1_555
S7 Sn6 2.784702 1_455
S8 Sn22 2.622480 1_555
S8 Sn16 2.622883 1_555
S8 Sn7 2.784702 1_655
S8 Sn7 2.784702 1_555
S9 Sn19 2.622480 1_545
S9 Sn17 2.622883 1_555
S9 Sn4 2.784702 1_555
S9 Sn4 2.784702 1_455
S10 Sn20 2.622480 1_565
S10 Sn18 2.622883 1_555
S10 Sn5 2.784702 1_555
S10 Sn5 2.784702 1_655
S11 Sn11 2.618585 1_555
S11 Sn13 2.645539 1_556
S11 Sn14 2.788212 1_545
S11 Sn14 2.788212 1_445
I0 Sn15 3.381568 1_655
I0 Sn15 3.381568 1_555
I0 Sn21 3.454975 1_555
I0 Sn21 3.454975 1_655
I1 Sn16 3.381568 1_555
I1 Sn16 3.381568 1_455
I1 Sn22 3.454975 1_455
I1 Sn22 3.454975 1_555
I2 Sn17 3.381568 1_555
I2 Sn17 3.381568 1_655
I2 Sn19 3.454975 1_645
I2 Sn19 3.454975 1_545
I3 Sn18 3.381568 1_455
I3 Sn18 3.381568 1_555
I3 Sn20 3.454975 1_465
I3 Sn20 3.454975 1_565
I4 Sn3 3.065760 1_655
I4 Sn3 3.065760 1_555
I5 Sn2 3.065760 1_455
I5 Sn2 3.065760 1_555
I6 Sn1 3.065760 1_555
I6 Sn1 3.065760 1_655
I7 Sn0 3.065760 1_455
I7 Sn0 3.065760 1_555
I8 Sn9 3.345748 1_655
I8 Sn9 3.345748 1_555
I8 Sn23 3.454945 1_555
I8 Sn23 3.454945 1_655
I9 Sn8 3.345748 1_555
I9 Sn8 3.345748 1_455
I9 Sn12 3.454945 1_555
I9 Sn12 3.454945 1_455
I10 Sn11 3.345748 1_554
I10 Sn11 3.345748 1_654
I10 Sn13 3.454945 1_555
I10 Sn13 3.454945 1_655
I11 Sn10 3.345748 1_556
I11 Sn10 3.345748 1_456
I11 Sn14 3.454945 1_455
I11 Sn14 3.454945 1_555
I12 Sn15 3.105186 1_555
I12 Sn15 3.105186 1_655
I13 Sn16 3.105186 1_555
I13 Sn16 3.105186 1_455
I14 Sn17 3.105186 1_555
I14 Sn17 3.105186 1_655
I15 Sn18 3.105186 1_555
I15 Sn18 3.105186 1_455
I16 Sn11 3.139016 1_555
I16 Sn11 3.139016 1_655
I17 Sn10 3.139016 1_555
I17 Sn10 3.139016 1_455
I18 Sn9 3.139016 1_655
I18 Sn9 3.139016 1_555
I19 Sn8 3.139016 1_455
I19 Sn8 3.139016 1_555
I20 Sn3 3.389729 1_655
I20 Sn3 3.389729 1_555
I20 Sn7 3.438620 1_655
I20 Sn7 3.438620 1_555
I21 Sn2 3.389729 1_555
I21 Sn2 3.389729 1_455
I21 Sn6 3.438620 1_555
I21 Sn6 3.438620 1_455
I22 Sn1 3.389729 1_565
I22 Sn1 3.389729 1_665
I22 Sn5 3.438620 1_555
I22 Sn5 3.438620 1_655
I23 Sn0 3.389729 1_445
I23 Sn0 3.389729 1_545
I23 Sn4 3.438620 1_455
I23 Sn4 3.438620 1_555
