# generated using pymatgen
data_Na15Ca4Ta8Si9(PO8)9
_symmetry_space_group_name_H-M   'P 1'
_cell_length_a   9.09969190
_cell_length_b   9.13610054
_cell_length_c   22.67250760
_cell_angle_alpha   89.97202206
_cell_angle_beta   89.96788341
_cell_angle_gamma   120.08557685
_symmetry_Int_Tables_number   1
_chemical_formula_structural   Na15Ca4Ta8Si9(PO8)9
_chemical_formula_sum   'Na15 Ca4 Ta8 Si9 P9 O72'
_cell_volume   1630.95641554
_cell_formula_units_Z   1
loop_
 _symmetry_equiv_pos_site_id
 _symmetry_equiv_pos_as_xyz
  1  'x, y, z'
loop_
 _atom_site_type_symbol
 _atom_site_label
 _atom_site_symmetry_multiplicity
 _atom_site_fract_x
 _atom_site_fract_y
 _atom_site_fract_z
 _atom_site_occupancy
  Na  Na0  1  0.64628948  0.01660914  0.24075835  1
  Na  Na1  1  0.98469043  0.62891879  0.24065034  1
  Na  Na2  1  0.64313941  0.62764661  0.74101561  1
  Na  Na3  1  0.36594303  0.01781159  0.74163959  1
  Na  Na4  1  0.31931958  0.34097691  0.58753253  1
  Na  Na5  1  0.96241435  0.68264567  0.91428886  1
  Na  Na6  1  0.71118764  0.02802225  0.91359829  1
  Na  Na7  1  0.96212096  0.28588164  0.41407411  1
  Na  Na8  1  0.70920768  0.67885245  0.41268652  1
  Na  Na9  1  0.01216414  0.99288420  0.49510217  1
  Na  Na10  1  0.01270341  0.00605768  0.99625060  1
  Na  Na11  1  0.66679399  0.33252812  0.82708155  1
  Na  Na12  1  0.63860221  0.32223463  0.32754738  1
  Na  Na13  1  0.33262000  0.66080333  0.16254171  1
  Na  Na14  1  0.31742163  0.66704707  0.66346702  1
  Ca  Ca0  1  0.01404912  0.00381690  0.35623738  1
  Ca  Ca1  1  0.00918427  0.00943625  0.85647821  1
  Ca  Ca2  1  0.67432936  0.33226634  0.67821521  1
  Ca  Ca3  1  0.66152182  0.33211969  0.17719572  1
  Ta  Ta0  1  0.99748108  -0.00013030  0.64431110  1
  Ta  Ta1  1  0.00018584  0.99814043  0.14426007  1
  Ta  Ta2  1  0.66183377  0.33352140  0.98396982  1
  Ta  Ta3  1  0.66524387  0.33341680  0.48312699  1
  Ta  Ta4  1  0.33850269  0.67271443  0.02103243  1
  Ta  Ta5  1  0.33014738  0.66742219  0.52028168  1
  Ta  Ta6  1  0.32910811  0.66027782  0.31308375  1
  Ta  Ta7  1  0.33460972  0.66421383  0.81360562  1
  Si  Si0  1  0.96353486  0.33290964  0.58268634  1
  Si  Si1  1  0.36847605  0.03249474  0.58610011  1
  Si  Si2  1  0.66748347  0.63271977  0.58406857  1
  Si  Si3  1  0.96604749  0.63187026  0.08551329  1
  Si  Si4  1  0.66973013  0.03548567  0.08530290  1
  Si  Si5  1  0.61491925  0.65167031  0.91788004  1
  Si  Si6  1  0.34396563  0.96123530  0.91779504  1
  Si  Si7  1  0.34241587  0.38130744  0.41918364  1
  Si  Si8  1  0.03547586  0.65600894  0.41778822  1
  P  P0  1  0.29324256  0.99291024  0.25044693  1
  P  P1  1  0.70352864  0.71138791  0.25219765  1
  P  P2  1  0.00806426  0.29608032  0.25186410  1
  P  P3  1  0.29090129  0.30008611  0.74934466  1
  P  P4  1  0.00632881  0.71079443  0.75284973  1
  P  P5  1  0.70094585  0.99254429  0.75353635  1
  P  P6  1  0.36538938  0.33327788  0.08270694  1
  P  P7  1  0.04228381  0.38845899  0.91958505  1
  P  P8  1  0.60845137  0.95792111  0.41644440  1
  O  O0  1  0.21335690  0.00616522  0.30630916  1
  O  O1  1  0.79581808  0.78628719  0.30951681  1
  O  O2  1  0.98280853  0.20214096  0.30950885  1
  O  O3  1  0.21114234  0.19257762  0.80294244  1
  O  O4  1  0.98944988  0.78566670  0.81027416  1
  O  O5  1  0.78739177  0.00341947  0.81141952  1
  O  O6  1  0.80361494  0.97457956  0.69969900  1
  O  O7  1  0.18217136  0.20827169  0.69223002  1
  O  O8  1  0.02986290  0.83564636  0.69927943  1
  O  O9  1  0.80871649  0.83580398  0.19838850  1
  O  O10  1  0.02731479  0.19724945  0.19800379  1
  O  O11  1  0.17572631  0.97369392  0.19543378  1
  O  O12  1  0.91018142  0.38653020  0.64070222  1
  O  O13  1  0.45884942  0.08662677  0.64794214  1
  O  O14  1  0.60414516  0.52016938  0.64203060  1
  O  O15  1  0.91057064  0.53923885  0.14688337  1
  O  O16  1  0.62546534  0.08676339  0.14618396  1
  O  O17  1  0.46734408  0.37869500  0.13787316  1
  O  O18  1  0.46365255  0.30382682  0.02943589  1
  O  O19  1  0.83004125  0.52598840  0.02952359  1
  O  O20  1  0.69241613  0.16663642  0.02905601  1
  O  O21  1  0.47538617  0.17386604  0.53190554  1
  O  O22  1  0.69842619  0.52895358  0.52773555  1
  O  O23  1  0.83652288  0.30133669  0.52456259  1
  O  O24  1  0.50155205  0.65906077  0.97094372  1
  O  O25  1  0.15039138  0.48261208  0.97236496  1
  O  O26  1  0.33483147  0.83764641  0.97113904  1
  O  O27  1  0.51304920  0.84519674  0.46874518  1
  O  O28  1  0.34374105  0.49515494  0.47372989  1
  O  O29  1  0.15823223  0.66562751  0.47100344  1
  O  O30  1  0.13789487  0.63905890  0.35733995  1
  O  O31  1  0.50394495  0.86886167  0.35838664  1
  O  O32  1  0.36652495  0.50693868  0.35970879  1
  O  O33  1  0.13474719  0.49841562  0.86235312  1
  O  O34  1  0.36578092  0.86136187  0.85740885  1
  O  O35  1  0.49888677  0.63303528  0.85666320  1
  O  O36  1  0.99627974  0.80666462  0.42118001  1
  O  O37  1  0.78458126  0.97633859  0.41511900  1
  O  O38  1  0.16756754  0.20757032  0.42219019  1
  O  O39  1  0.00822708  0.20865999  0.91800338  1
  O  O40  1  0.17306859  0.96713213  0.92079704  1
  O  O41  1  0.79718752  0.82095890  0.91955919  1
  O  O42  1  0.98030419  0.15910497  0.59163413  1
  O  O43  1  0.18210420  0.02840166  0.59065691  1
  O  O44  1  0.84242410  0.81809528  0.59317971  1
  O  O45  1  0.98252782  0.82319725  0.09147097  1
  O  O46  1  0.84815469  0.02585558  0.09139836  1
  O  O47  1  0.18966775  0.16498965  0.08867969  1
  O  O48  1  0.65903978  0.13298344  0.74784329  1
  O  O49  1  0.47328471  0.33399870  0.74495729  1
  O  O50  1  0.85057200  0.53737892  0.74532953  1
  O  O51  1  0.67962435  0.53647445  0.24389533  1
  O  O52  1  0.85989357  0.32884673  0.24468198  1
  O  O53  1  0.47592181  0.13627052  0.24577304  1
  O  O54  1  0.63519743  0.48229386  0.92405942  1
  O  O55  1  0.86750287  0.38507587  0.92299296  1
  O  O56  1  0.52493887  0.14269176  0.92388106  1
  O  O57  1  0.62316825  0.13442147  0.42217317  1
  O  O58  1  0.52038221  0.37370676  0.42271412  1
  O  O59  1  0.85371443  0.47199352  0.42180442  1
  O  O60  1  0.32884158  0.47626221  0.06735961  1
  O  O61  1  0.15427253  0.66096559  0.06897613  1
  O  O62  1  0.51571553  0.84168069  0.06976319  1
  O  O63  1  0.33463567  0.84533813  0.56919778  1
  O  O64  1  0.51402633  0.66861708  0.56717402  1
  O  O65  1  0.16237919  0.48146358  0.56901792  1
  O  O66  1  0.29565619  0.81698471  0.25242205  1
  O  O67  1  0.52810877  0.71150699  0.25309044  1
  O  O68  1  0.17897301  0.47750561  0.25510646  1
  O  O69  1  0.29829026  0.47780026  0.75432942  1
  O  O70  1  0.17913732  0.70578869  0.75430039  1
  O  O71  1  0.52207572  0.81397915  0.75333593  1
loop_
_geom_bond_atom_site_label_1
_geom_bond_atom_site_label_2
_geom_bond_distance
_geom_bond_site_symmetry_2
Na0 O16 2.272740 1_555
Na0 O53 2.304485 1_555
Na0 O67 2.449088 1_545
Na0 O52 2.522871 1_555
Na0 O66 2.782242 1_545
Na1 O15 2.257224 1_555
Na1 O52 2.385802 1_555
Na1 O51 2.464555 1_555
Na1 O66 2.481399 1_655
Na1 O68 2.756566 1_655
Na1 O11 2.915438 1_655
Na1 O30 2.970937 1_655
Na2 O49 2.331659 1_555
Na2 O14 2.404248 1_555
Na2 O50 2.411108 1_555
Na2 O71 2.463737 1_555
Na2 O69 2.739329 1_555
Na2 O6 2.900250 1_555
Na2 O35 2.943049 1_555
Na3 O13 2.255367 1_555
Na3 O48 2.329648 1_555
Na3 O70 2.497728 1_545
Na3 O49 2.544760 1_555
Na3 O8 2.819026 1_545
Na3 O71 2.865198 1_545
Na3 O3 2.953028 1_555
Na3 O34 2.987759 1_545
Na4 O65 2.387665 1_555
Na4 O43 2.478705 1_555
Na4 O14 2.583778 1_555
Na4 O64 2.644405 1_555
Na4 O7 2.671896 1_555
Na4 O42 2.673338 1_455
Na4 O21 2.848178 1_555
Na4 O28 2.893589 1_555
Na5 O40 2.336058 1_655
Na5 O41 2.403412 1_555
Na5 O55 2.412681 1_555
Na5 O4 2.504573 1_555
Na5 O54 2.607685 1_555
Na5 O19 2.930826 1_556
Na6 O39 2.359605 1_655
Na6 O41 2.386114 1_545
Na6 O56 2.409186 1_555
Na6 O5 2.460328 1_555
Na6 O55 2.838798 1_555
Na7 O38 2.319923 1_655
Na7 O59 2.361512 1_555
Na7 O37 2.455100 1_545
Na7 O2 2.527234 1_555
Na7 O57 2.679903 1_555
Na7 O23 2.785745 1_555
Na8 O36 2.273125 1_555
Na8 O58 2.443866 1_555
Na8 O37 2.447754 1_555
Na8 O1 2.505222 1_555
Na8 O59 2.799110 1_555
Na9 O36 2.341126 1_455
Na9 O38 2.406851 1_565
Na9 O43 2.586809 1_565
Na9 O37 2.700135 1_455
Na9 O44 2.720339 1_455
Na9 O42 2.761201 1_465
Na10 O40 2.387596 1_545
Na10 O41 2.531966 1_445
Na10 O39 2.578294 1_555
Na10 O47 2.599138 1_556
Na10 O45 2.657646 1_446
Na10 O46 2.682671 1_456
Na11 O48 2.535827 1_555
Na11 O50 2.567118 1_555
Na11 O49 2.568100 1_555
Na11 O54 2.680656 1_555
Na11 O56 2.690626 1_555
Na11 O55 2.724196 1_555
Na12 O53 2.449482 1_555
Na12 O58 2.557250 1_555
Na12 O51 2.613537 1_555
Na12 O57 2.705769 1_555
Na12 O52 2.731670 1_555
Na12 O59 2.755539 1_555
Na13 O67 2.602412 1_555
Na13 O66 2.604820 1_555
Na13 O68 2.609496 1_555
Na13 O61 2.672133 1_555
Na13 O62 2.676531 1_555
Na13 O60 2.728789 1_555
Na14 O70 2.528689 1_555
Na14 O71 2.631026 1_555
Na14 O69 2.637791 1_555
Na14 O63 2.643171 1_555
Na14 O65 2.656964 1_555
Na14 O64 2.817289 1_555
Ca0 O0 2.128340 1_555
Ca0 O2 2.236326 1_455
Ca0 O38 2.247350 1_555
Ca0 O1 2.250081 1_445
Ca0 O36 2.267955 1_445
Ca0 O37 2.382505 1_445
Ca1 O3 2.136085 1_555
Ca1 O4 2.223366 1_445
Ca1 O5 2.238553 1_455
Ca1 O40 2.253808 1_545
Ca1 O39 2.297201 1_555
Ca1 O41 2.322957 1_445
Ca2 O12 2.122744 1_555
Ca2 O13 2.223386 1_555
Ca2 O14 2.264159 1_555
Ca2 O50 2.321957 1_555
Ca2 O48 2.359934 1_555
Ca2 O49 2.379679 1_555
Ca3 O17 2.203011 1_555
Ca3 O15 2.210536 1_555
Ca3 O16 2.211608 1_555
Ca3 O53 2.331527 1_555
Ca3 O51 2.344020 1_555
Ca3 O52 2.378588 1_555
O0 P0 1.494855 1_545
O1 P1 1.512726 1_555
O2 P2 1.516025 1_655
O3 P3 1.500442 1_555
O4 P4 1.514124 1_655
O5 P5 1.507934 1_545
O6 P5 1.594477 1_555
O6 Ta0 2.081124 1_565
O7 P3 1.590540 1_555
O7 Ta0 2.103786 1_455
O8 P4 1.604868 1_555
O8 Ta0 2.081569 1_465
O9 P1 1.613418 1_555
O9 Ta1 2.036289 1_655
O10 P2 1.580059 1_555
O10 Ta1 2.099291 1_545
O11 P0 1.594855 1_555
O11 Ta1 2.075359 1_555
O12 Si0 1.563409 1_555
O13 Si1 1.575123 1_555
O14 Si2 1.587499 1_555
O15 Si3 1.573790 1_555
O16 Si4 1.573599 1_555
O17 P6 1.487665 1_555
O18 P6 1.603434 1_555
O18 Ta2 1.973715 1_554
O19 Si3 1.697515 1_555
O19 Ta2 1.951062 1_554
O20 Si4 1.689621 1_555
O20 Ta2 1.967540 1_554
O21 Si1 1.691667 1_555
O21 Ta3 1.950406 1_555
O22 Si2 1.696376 1_555
O22 Ta3 1.940813 1_555
O23 Si0 1.680317 1_555
O23 Ta3 1.963927 1_555
O24 Si5 1.607704 1_555
O24 Ta4 1.921041 1_556
O25 P7 1.514461 1_555
O25 Ta4 2.046318 1_556
O26 Si6 1.627585 1_555
O26 Ta4 1.897405 1_556
O27 P8 1.523696 1_555
O27 Ta5 2.014715 1_555
O28 Si7 1.612490 1_555
O28 Ta5 1.950112 1_555
O29 Si8 1.616913 1_555
O29 Ta5 1.916265 1_555
O30 Si8 1.707147 1_555
O30 Ta6 1.931734 1_555
O31 P8 1.589263 1_555
O31 Ta6 2.044928 1_555
O32 Si7 1.711587 1_555
O32 Ta6 1.916550 1_555
O33 P7 1.597162 1_555
O33 Ta7 2.014386 1_555
O34 Si6 1.711417 1_555
O34 Ta7 1.949564 1_555
O35 Si5 1.700543 1_555
O35 Ta7 1.922777 1_555
O36 Si8 1.587416 1_655
O37 P8 1.525619 1_555
O38 Si7 1.588512 1_555
O39 P7 1.511737 1_555
O40 Si6 1.584230 1_555
O41 Si5 1.603966 1_555
O42 Si0 1.681818 1_555
O42 Ta0 1.947750 1_555
O43 Si1 1.680612 1_555
O43 Ta0 1.982055 1_455
O44 Si2 1.656146 1_555
O44 Ta0 1.935758 1_565
O45 Si3 1.683335 1_555
O45 Ta1 1.938416 1_655
O46 Si4 1.675232 1_555
O46 Ta1 1.940927 1_645
O47 P6 1.572831 1_555
O47 Ta1 2.060374 1_545
O48 P5 1.516169 1_545
O49 P3 1.531184 1_555
O50 P4 1.515664 1_655
O51 P1 1.512704 1_555
O52 P2 1.529357 1_655
O53 P0 1.518818 1_545
O54 Si5 1.653586 1_555
O54 Ta2 2.019918 1_555
O55 P7 1.577035 1_655
O55 Ta2 2.179091 1_555
O56 Si6 1.656096 1_545
O56 Ta2 2.067410 1_555
O57 P8 1.555236 1_545
O57 Ta3 2.160298 1_555
O58 Si7 1.657316 1_555
O58 Ta3 2.058458 1_555
O59 Si8 1.667979 1_655
O59 Ta3 2.072658 1_555
O60 P6 1.540587 1_555
O60 Ta4 2.042588 1_555
O61 Si3 1.639391 1_455
O61 Ta4 1.954731 1_555
O62 Si4 1.654279 1_565
O62 Ta4 1.926653 1_555
O63 Si1 1.624269 1_565
O63 Ta5 1.951673 1_555
O64 Si2 1.632139 1_555
O64 Ta5 1.978351 1_555
O65 Si0 1.657982 1_455
O65 Ta5 1.958030 1_555
O66 P0 1.618993 1_555
O66 Ta6 2.114113 1_555
O67 P1 1.596929 1_555
O67 Ta6 2.120199 1_555
O68 P2 1.608494 1_555
O68 Ta6 2.024754 1_555
O69 P3 1.595041 1_555
O69 Ta7 2.062605 1_555
O70 P4 1.596277 1_555
O70 Ta7 2.119936 1_555
O71 P5 1.627432 1_555
O71 Ta7 2.074812 1_555
