# generated using pymatgen
data_Na2Y3TaP4(SO12)2
_symmetry_space_group_name_H-M   'P 1'
_cell_length_a   9.04943843
_cell_length_b   9.04430838
_cell_length_c   23.89902870
_cell_angle_alpha   90.18262865
_cell_angle_beta   89.91478789
_cell_angle_gamma   120.04070419
_symmetry_Int_Tables_number   1
_chemical_formula_structural   Na2Y3TaP4(SO12)2
_chemical_formula_sum   'Na6 Y9 Ta3 P12 S6 O72'
_cell_volume   1693.27457408
_cell_formula_units_Z   3
loop_
 _symmetry_equiv_pos_site_id
 _symmetry_equiv_pos_as_xyz
  1  'x, y, z'
loop_
 _atom_site_type_symbol
 _atom_site_label
 _atom_site_symmetry_multiplicity
 _atom_site_fract_x
 _atom_site_fract_y
 _atom_site_fract_z
 _atom_site_occupancy
  Na  Na0  1  0.99133627  0.98918643  0.49923535  1
  Na  Na1  1  0.00760735  0.99983556  0.99773398  1
  Na  Na2  1  0.66724690  0.33090263  0.83046761  1
  Na  Na3  1  0.68493277  0.34208547  0.33032733  1
  Na  Na4  1  0.32702622  0.65031671  0.15977063  1
  Na  Na5  1  0.33413318  0.66637084  0.67252181  1
  Y  Y0  1  0.98952079  0.99430041  0.35082069  1
  Y  Y1  1  0.00119133  0.00111938  0.85196538  1
  Y  Y2  1  0.99941307  0.99921851  0.65874275  1
  Y  Y3  1  0.99661930  0.00124617  0.14561818  1
  Y  Y4  1  0.66665799  0.33328068  0.68983152  1
  Y  Y5  1  0.67371367  0.34441608  0.18605338  1
  Y  Y6  1  0.67436564  0.33245787  0.47582624  1
  Y  Y7  1  0.32947191  0.66202070  0.01829168  1
  Y  Y8  1  0.33357634  0.67204228  0.51858464  1
  Ta  Ta0  1  0.66494402  0.34247921  0.97723140  1
  Ta  Ta1  1  0.33250995  0.66788884  0.31480124  1
  Ta  Ta2  1  0.33197250  0.66717714  0.81877357  1
  P  P0  1  0.69379323  0.70258790  0.25197614  1
  P  P1  1  0.00718096  0.30249128  0.25271824  1
  P  P2  1  0.29748448  0.30875237  0.75346229  1
  P  P3  1  0.01095733  0.70290697  0.75341955  1
  P  P4  1  0.69144454  0.98885833  0.75366274  1
  P  P5  1  0.95225385  0.62339625  0.08014602  1
  P  P6  1  0.37824554  0.32919704  0.08103756  1
  P  P7  1  0.62002570  0.66118363  0.91708428  1
  P  P8  1  0.03473142  0.37960582  0.91698512  1
  P  P9  1  0.34406196  0.96358836  0.91801069  1
  P  P10  1  0.61892315  0.95500934  0.41474795  1
  P  P11  1  0.04595427  0.66767857  0.41436020  1
  S  S0  1  0.29659605  0.99128292  0.25258544  1
  S  S1  1  0.96247916  0.32866260  0.58325285  1
  S  S2  1  0.36851762  0.04071509  0.58286610  1
  S  S3  1  0.66943774  0.63013956  0.58274998  1
  S  S4  1  0.66803420  0.05126523  0.08001385  1
  S  S5  1  0.33497959  0.38127677  0.41383006  1
  O  O0  1  0.21742058  0.01589468  0.30216796  1
  O  O1  1  0.80443414  0.78513464  0.30317794  1
  O  O2  1  0.98835771  0.19636100  0.30406135  1
  O  O3  1  0.21302266  0.19502626  0.80312711  1
  O  O4  1  0.98186678  0.78740524  0.80322674  1
  O  O5  1  0.80589910  0.01851938  0.80319147  1
  O  O6  1  0.76058785  0.95169303  0.69935635  1
  O  O7  1  0.19094967  0.23860886  0.69932052  1
  O  O8  1  0.04783956  0.80918673  0.69934876  1
  O  O9  1  0.76740152  0.81064901  0.19909109  1
  O  O10  1  0.04395116  0.23124976  0.19938311  1
  O  O11  1  0.19282303  0.95873279  0.20194174  1
  O  O12  1  0.87862783  0.34788314  0.63312105  1
  O  O13  1  0.46982958  0.12543068  0.63300296  1
  O  O14  1  0.65319501  0.52951494  0.63291339  1
  O  O15  1  0.87178748  0.52189404  0.13327092  1
  O  O16  1  0.65137306  0.12759015  0.13219836  1
  O  O17  1  0.47730920  0.34160616  0.13385103  1
  O  O18  1  0.48432350  0.32139629  0.02739135  1
  O  O19  1  0.83772276  0.51539948  0.02719764  1
  O  O20  1  0.68017427  0.15606942  0.02973525  1
  O  O21  1  0.45496643  0.13912428  0.53169213  1
  O  O22  1  0.68264989  0.54365396  0.53145146  1
  O  O23  1  0.86256396  0.31415136  0.53191516  1
  O  O24  1  0.54206283  0.68394178  0.96958716  1
  O  O25  1  0.13934563  0.45800188  0.96902409  1
  O  O26  1  0.32091847  0.85998871  0.96980902  1
  O  O27  1  0.53794365  0.85444256  0.46794718  1
  O  O28  1  0.31562006  0.45785083  0.46541016  1
  O  O29  1  0.14250364  0.67957434  0.46785977  1
  O  O30  1  0.15093148  0.65584401  0.36256077  1
  O  O31  1  0.50507966  0.84785064  0.36293272  1
  O  O32  1  0.34796400  0.48861142  0.36390667  1
  O  O33  1  0.13124065  0.49919855  0.86513828  1
  O  O34  1  0.36734178  0.86813207  0.86567099  1
  O  O35  1  0.50138169  0.63453550  0.86535666  1
  O  O36  1  0.03319987  0.82863523  0.40909602  1
  O  O37  1  0.79762115  0.97794306  0.41046167  1
  O  O38  1  0.18518725  0.21055985  0.40829191  1
  O  O39  1  0.00370764  0.20036730  0.90834715  1
  O  O40  1  0.19575935  0.99435406  0.90920348  1
  O  O41  1  0.80027251  0.80638372  0.90882121  1
  O  O42  1  0.97860682  0.17367143  0.58652842  1
  O  O43  1  0.19645900  0.02245231  0.58622105  1
  O  O44  1  0.82385250  0.80254704  0.58603437  1
  O  O45  1  0.95641958  0.79557301  0.08074865  1
  O  O46  1  0.82664871  0.04027942  0.08147708  1
  O  O47  1  0.20300673  0.16389647  0.08051536  1
  O  O48  1  0.65995573  0.13963978  0.74621293  1
  O  O49  1  0.47981790  0.34072147  0.74603019  1
  O  O50  1  0.86056940  0.52054185  0.74591136  1
  O  O51  1  0.65778512  0.51859004  0.24770757  1
  O  O52  1  0.85463951  0.33100968  0.24822004  1
  O  O53  1  0.47098865  0.13523416  0.24692719  1
  O  O54  1  0.62987996  0.48905759  0.92458855  1
  O  O55  1  0.85565746  0.37027834  0.92454748  1
  O  O56  1  0.51390671  0.14414076  0.92581457  1
  O  O57  1  0.62278295  0.12718603  0.41382407  1
  O  O58  1  0.49395430  0.37281396  0.41498034  1
  O  O59  1  0.87037079  0.50255322  0.41329242  1
  O  O60  1  0.36390660  0.48980702  0.07686472  1
  O  O61  1  0.12967788  0.64439410  0.07578975  1
  O  O62  1  0.51763297  0.87933277  0.07610233  1
  O  O63  1  0.35098038  0.86781185  0.58027388  1
  O  O64  1  0.51402004  0.64658210  0.57963188  1
  O  O65  1  0.13486870  0.48278866  0.57952531  1
  O  O66  1  0.31257084  0.83188895  0.26125929  1
  O  O67  1  0.51235958  0.68634958  0.26470840  1
  O  O68  1  0.17076443  0.48692666  0.26511578  1
  O  O69  1  0.31333484  0.48868388  0.76577572  1
  O  O70  1  0.17485825  0.68670250  0.76543010  1
  O  O71  1  0.51122567  0.82521165  0.76587500  1
loop_
_geom_bond_atom_site_label_1
_geom_bond_atom_site_label_2
_geom_bond_distance
_geom_bond_site_symmetry_2
Na0 O44 2.627005 1_555
Na0 O43 2.702999 1_665
Na0 O42 2.705391 1_565
Na0 O37 2.723198 1_555
Na0 O36 2.724191 1_655
Na0 O38 2.882666 1_665
Na1 O47 2.570444 1_566
Na1 O45 2.593736 1_456
Na1 O46 2.721450 1_466
Na1 O40 2.729699 1_555
Na1 O41 2.792536 1_455
Na1 O39 2.818378 1_565
Na2 O48 2.629680 1_555
Na2 O50 2.663333 1_555
Na2 O49 2.668160 1_555
Na2 O55 2.736351 1_555
Na2 O56 2.763970 1_555
Na2 O54 2.771589 1_555
Na3 O52 2.522486 1_555
Na3 O59 2.531186 1_555
Na3 O51 2.630913 1_555
Na3 O57 2.646292 1_555
Na3 O53 2.753606 1_555
Na3 O58 2.761165 1_555
Na4 O60 2.570883 1_555
Na4 O61 2.671099 1_555
Na4 O62 2.775401 1_555
Na4 O68 2.905652 1_555
Na4 O67 2.944274 1_555
Na4 O66 2.964055 1_555
Na5 O71 2.700887 1_555
Na5 O70 2.700889 1_555
Na5 O69 2.702554 1_555
Na5 O64 2.808691 1_555
Na5 O65 2.817584 1_555
Na5 O63 2.819480 1_555
O0 S0 1.456899 1_545
O0 Y0 2.287907 1_445
O1 P0 1.518760 1_555
O1 Y0 2.121337 1_555
O2 P1 1.516314 1_655
O2 Y0 2.149648 1_545
O3 P2 1.506301 1_555
O3 Y1 2.180157 1_555
O4 P3 1.504981 1_655
O4 Y1 2.184322 1_665
O5 P4 1.506415 1_545
O5 Y1 2.189191 1_655
O6 P4 1.547368 1_555
O6 Y2 2.205472 1_555
O7 P2 1.546705 1_555
O7 Y2 2.206064 1_445
O8 P3 1.546175 1_555
O8 Y2 2.203129 1_455
O9 P0 1.532937 1_555
O9 Y3 2.309427 1_565
O10 P1 1.535840 1_555
O10 Y3 2.292231 1_455
O11 S0 1.468936 1_555
O11 Y3 2.409614 1_465
O12 S1 1.467807 1_555
O12 Y4 2.296439 1_555
O13 S2 1.468820 1_555
O13 Y4 2.278043 1_555
O14 S3 1.469559 1_555
O14 Y4 2.290749 1_555
O15 P5 1.523268 1_555
O15 Y5 2.122773 1_555
O16 S4 1.467250 1_555
O16 Y5 2.265142 1_555
O17 P6 1.520232 1_555
O17 Y5 2.162697 1_555
O18 P6 1.622901 1_555
O18 Ta0 1.956689 1_554
O19 P5 1.616157 1_555
O19 Ta0 1.965179 1_554
O20 S4 1.502338 1_555
O20 Ta0 2.163924 1_554
O21 S2 1.485558 1_555
O21 Y6 2.305019 1_555
O22 S3 1.488712 1_555
O22 Y6 2.293948 1_555
O23 S1 1.491159 1_555
O23 Y6 2.239491 1_555
O24 P7 1.501894 1_555
O24 Y7 2.169843 1_556
O25 P8 1.507158 1_555
O25 Y7 2.136573 1_556
O26 P9 1.504800 1_555
O26 Y7 2.169478 1_556
O27 P10 1.522511 1_555
O27 Y8 2.134877 1_555
O28 S5 1.464688 1_555
O28 Y8 2.250317 1_555
O29 P11 1.522522 1_555
O29 Y8 2.142134 1_555
O30 P11 1.594969 1_555
O30 Ta1 1.957222 1_555
O31 P10 1.590779 1_555
O31 Ta1 1.964591 1_555
O32 S5 1.507479 1_555
O32 Ta1 2.065322 1_555
O33 P8 1.589822 1_555
O33 Ta2 2.019225 1_555
O34 P9 1.590231 1_555
O34 Ta2 2.016824 1_555
O35 P7 1.575465 1_555
O35 Ta2 2.034001 1_555
O36 P11 1.522423 1_555
O36 Y0 2.224594 1_455
O37 P10 1.527217 1_555
O37 Y0 2.192264 1_555
O38 S5 1.463786 1_555
O38 Y0 2.317319 1_445
O39 P8 1.513845 1_555
O39 Y1 2.237663 1_555
O40 P9 1.515898 1_555
O40 Y1 2.256265 1_565
O41 P7 1.510025 1_555
O41 Y1 2.248523 1_665
O42 S1 1.482568 1_555
O42 Y2 2.412314 1_545
O43 S2 1.483334 1_555
O43 Y2 2.417797 1_445
O44 S3 1.485993 1_555
O44 Y2 2.422098 1_555
O45 P5 1.538715 1_555
O45 Y3 2.302569 1_565
O46 S4 1.488070 1_555
O46 Y3 2.322596 1_555
O47 P6 1.541511 1_555
O47 Y3 2.308284 1_455
O48 P4 1.537332 1_545
O48 Y4 2.189748 1_555
O49 P2 1.536062 1_555
O49 Y4 2.184908 1_555
O50 P3 1.534972 1_655
O50 Y4 2.181945 1_555
O51 P0 1.530364 1_555
O51 Y5 2.210281 1_555
O52 P1 1.529946 1_655
O52 Y5 2.260509 1_555
O53 S0 1.465334 1_545
O53 Y5 2.365573 1_555
O54 P7 1.613829 1_555
O54 Ta0 1.968251 1_555
O55 P8 1.590035 1_655
O55 Ta0 2.046507 1_555
O56 P9 1.596776 1_545
O56 Ta0 2.032752 1_555
O57 P10 1.540259 1_545
O57 Y6 2.230960 1_555
O58 S5 1.478734 1_555
O58 Y6 2.349536 1_555
O59 P11 1.542631 1_655
O59 Y6 2.240766 1_555
O60 P6 1.525297 1_555
O60 Y7 2.232437 1_555
O61 P5 1.522876 1_455
O61 Y7 2.210897 1_555
O62 S4 1.469575 1_565
O62 Y7 2.304364 1_555
O63 S2 1.491775 1_565
O63 Y8 2.244610 1_555
O64 S3 1.488470 1_555
O64 Y8 2.287734 1_555
O65 S1 1.485880 1_455
O65 Y8 2.282735 1_555
O66 S0 1.533870 1_555
O66 Ta1 2.037344 1_555
O67 P0 1.602272 1_555
O67 Ta1 1.957901 1_555
O68 P1 1.608569 1_555
O68 Ta1 1.955855 1_555
O69 P2 1.587081 1_555
O69 Ta2 1.988422 1_555
O70 P3 1.588385 1_555
O70 Ta2 1.983977 1_555
O71 P4 1.587486 1_555
O71 Ta2 1.989110 1_555
