# generated using pymatgen
data_Na6CaTi7Si6(SO8)6
_symmetry_space_group_name_H-M   'P 1'
_cell_length_a   17.69493620
_cell_length_b   8.80076166
_cell_length_c   22.57413222
_cell_angle_alpha   89.92603106
_cell_angle_beta   90.05876946
_cell_angle_gamma   119.87658360
_symmetry_Int_Tables_number   1
_chemical_formula_structural   Na6CaTi7Si6(SO8)6
_chemical_formula_sum   'Na18 Ca3 Ti21 Si18 S18 O144'
_cell_volume   3048.24107052
_cell_formula_units_Z   3
loop_
 _symmetry_equiv_pos_site_id
 _symmetry_equiv_pos_as_xyz
  1  'x, y, z'
loop_
 _atom_site_type_symbol
 _atom_site_label
 _atom_site_symmetry_multiplicity
 _atom_site_fract_x
 _atom_site_fract_y
 _atom_site_fract_z
 _atom_site_occupancy
  Na  Na0  1  0.68875329  0.38309480  0.25221517  1
  Na  Na1  1  0.99681638  0.64691260  0.25199343  1
  Na  Na2  1  0.99564838  0.36386123  0.75432081  1
  Na  Na3  1  0.49202207  0.35848862  0.75115377  1
  Na  Na4  1  0.19336482  0.01155823  0.75324642  1
  Na  Na5  1  0.68829748  0.00995193  0.74976402  1
  Na  Na6  1  0.99796456  0.99815462  0.49385640  1
  Na  Na7  1  0.50461977  0.00045077  0.50031462  1
  Na  Na8  1  0.00631960  0.00891565  0.99975532  1
  Na  Na9  1  0.50145793  0.99489922  0.99739822  1
  Na  Na10  1  0.33229982  0.33891801  0.82940627  1
  Na  Na11  1  0.82772599  0.33603234  0.82975224  1
  Na  Na12  1  0.33350110  0.32878548  0.32693148  1
  Na  Na13  1  0.83335654  0.33205523  0.33476799  1
  Na  Na14  1  0.17599854  0.67066620  0.16429294  1
  Na  Na15  1  0.66402326  0.67032321  0.17146261  1
  Na  Na16  1  0.17827359  0.66752767  0.66757055  1
  Na  Na17  1  0.67170777  0.66141199  0.66251048  1
  Ca  Ca0  1  0.33266472  0.33991566  0.68520132  1
  Ca  Ca1  1  0.83049233  0.33505616  0.68294242  1
  Ca  Ca2  1  0.83271526  0.32917553  0.18391167  1
  Ti  Ti0  1  0.00387341  0.98966612  0.35913864  1
  Ti  Ti1  1  0.50049654  0.01177006  0.35827690  1
  Ti  Ti2  1  0.00786456  0.02053570  0.86007741  1
  Ti  Ti3  1  0.50406317  0.99954235  0.85252703  1
  Ti  Ti4  1  0.99675673  0.00815972  0.65041088  1
  Ti  Ti5  1  0.50096311  0.00488803  0.65585542  1
  Ti  Ti6  1  0.00665424  0.99367024  0.15060077  1
  Ti  Ti7  1  0.49769221  0.00014577  0.14532947  1
  Ti  Ti8  1  0.33402091  0.33936949  0.18754856  1
  Ti  Ti9  1  0.32354423  0.33119826  0.98394898  1
  Ti  Ti10  1  0.83176415  0.32179931  0.97297998  1
  Ti  Ti11  1  0.33586133  0.35060769  0.47488195  1
  Ti  Ti12  1  0.83001941  0.32743396  0.47110158  1
  Ti  Ti13  1  0.16162708  0.65454729  0.01722134  1
  Ti  Ti14  1  0.65463447  0.66855760  0.01960942  1
  Ti  Ti15  1  0.16201027  0.65764816  0.51363007  1
  Ti  Ti16  1  0.66606249  0.67061229  0.50907175  1
  Ti  Ti17  1  0.16282540  0.66150981  0.31556770  1
  Ti  Ti18  1  0.66714348  0.66247701  0.31566174  1
  Ti  Ti19  1  0.17083337  0.67123266  0.81594274  1
  Ti  Ti20  1  0.67086656  0.68190573  0.80788200  1
  Si  Si0  1  0.14925793  0.00479363  0.25319464  1
  Si  Si1  1  0.85494700  0.72465186  0.25199558  1
  Si  Si2  1  0.49749477  0.28751967  0.24968449  1
  Si  Si3  1  0.14188772  0.29359771  0.75299113  1
  Si  Si4  1  0.64419477  0.29471711  0.75437757  1
  Si  Si5  1  0.50114104  0.71512041  0.75354237  1
  Si  Si6  1  0.35446644  0.98471078  0.75474137  1
  Si  Si7  1  0.85903911  0.99251575  0.75509128  1
  Si  Si8  1  0.47284937  0.61852013  0.08370357  1
  Si  Si9  1  0.18625218  0.33567311  0.08637664  1
  Si  Si10  1  0.02193019  0.38127073  0.91575098  1
  Si  Si11  1  0.16961540  0.95787613  0.91781028  1
  Si  Si12  1  0.66201927  0.95309616  0.91583880  1
  Si  Si13  1  0.81205471  0.95132208  0.41387518  1
  Si  Si14  1  0.16665691  0.37702073  0.41470902  1
  Si  Si15  1  0.66548396  0.37897232  0.41574363  1
  Si  Si16  1  0.02086308  0.66134920  0.41679297  1
  Si  Si17  1  0.52326218  0.66996805  0.41339059  1
  S  S0  1  0.63549134  0.98828914  0.25145075  1
  S  S1  1  0.35691525  0.71624909  0.25044829  1
  S  S2  1  0.00658197  0.28888695  0.25281630  1
  S  S3  1  0.00356337  0.72387223  0.75248157  1
  S  S4  1  0.48526214  0.33407567  0.58051276  1
  S  S5  1  0.98537229  0.33436202  0.58174373  1
  S  S6  1  0.18181131  0.02780946  0.58082355  1
  S  S7  1  0.68128310  0.02771852  0.58066195  1
  S  S8  1  0.33346513  0.63952978  0.57876176  1
  S  S9  1  0.83347785  0.63934797  0.57959568  1
  S  S10  1  0.98305646  0.63289558  0.08062026  1
  S  S11  1  0.33348416  0.04588306  0.08418028  1
  S  S12  1  0.83206224  0.02876622  0.07777829  1
  S  S13  1  0.68266889  0.33408900  0.08016677  1
  S  S14  1  0.31079281  0.66635035  0.91857062  1
  S  S15  1  0.80853061  0.66289186  0.91871877  1
  S  S16  1  0.52118839  0.37974510  0.91690714  1
  S  S17  1  0.30941971  0.95631406  0.41690005  1
  O  O0  1  0.10093127  0.02759377  0.31049327  1
  O  O1  1  0.59112526  0.00714912  0.30409411  1
  O  O2  1  0.40790539  0.79596635  0.30418531  1
  O  O3  1  0.92156346  0.82884753  0.30656970  1
  O  O4  1  0.48771567  0.16051788  0.30715508  1
  O  O5  1  0.99833810  0.18974317  0.30592087  1
  O  O6  1  0.09177174  0.17069704  0.81090642  1
  O  O7  1  0.59374897  0.16749377  0.81071021  1
  O  O8  1  0.49332492  0.81487771  0.81149991  1
  O  O9  1  0.99472215  0.80508175  0.80574106  1
  O  O10  1  0.41523863  0.01075178  0.81201864  1
  O  O11  1  0.91858500  0.00403104  0.81057133  1
  O  O12  1  0.40229745  0.95967934  0.69421208  1
  O  O13  1  0.90274567  0.96775207  0.69204727  1
  O  O14  1  0.07759605  0.18869752  0.69356666  1
  O  O15  1  0.58136136  0.20387357  0.69411369  1
  O  O16  1  0.01212188  0.82611140  0.69699560  1
  O  O17  1  0.51975301  0.84259602  0.69421386  1
  O  O18  1  0.40027199  0.82185140  0.19602552  1
  O  O19  1  0.90625572  0.83894047  0.19102846  1
  O  O20  1  0.01518124  0.20818141  0.19736745  1
  O  O21  1  0.51053766  0.17931844  0.19267312  1
  O  O22  1  0.08215283  0.96060510  0.19454850  1
  O  O23  1  0.58707946  0.97633223  0.19554341  1
  O  O24  1  0.45289867  0.35779364  0.63780262  1
  O  O25  1  0.95546974  0.36302452  0.63907346  1
  O  O26  1  0.22687139  0.08870267  0.63796455  1
  O  O27  1  0.72574590  0.09028563  0.63834472  1
  O  O28  1  0.31517168  0.54241228  0.63387126  1
  O  O29  1  0.82015833  0.54642177  0.63609073  1
  O  O30  1  0.43012673  0.49679334  0.14201367  1
  O  O31  1  0.95279610  0.54301420  0.13814015  1
  O  O32  1  0.32099875  0.12585535  0.13767756  1
  O  O33  1  0.81358539  0.09029131  0.13348950  1
  O  O34  1  0.25142776  0.35913793  0.14138263  1
  O  O35  1  0.72746136  0.36398308  0.13770335  1
  O  O36  1  0.23177756  0.30157808  0.02651443  1
  O  O37  1  0.73196405  0.31058546  0.03173295  1
  O  O38  1  0.41277107  0.52232712  0.02548305  1
  O  O39  1  0.92477576  0.53216595  0.03154474  1
  O  O40  1  0.34849237  0.15415548  0.03043660  1
  O  O41  1  0.84040343  0.15000203  0.02794247  1
  O  O42  1  0.23111749  0.14743958  0.53123900  1
  O  O43  1  0.73344146  0.14758231  0.53179849  1
  O  O44  1  0.34161962  0.53676229  0.52812230  1
  O  O45  1  0.84313288  0.54143558  0.52945553  1
  O  O46  1  0.42552479  0.31910372  0.53107477  1
  O  O47  1  0.92783039  0.31741490  0.53258389  1
  O  O48  1  0.26752961  0.68485315  0.97168468  1
  O  O49  1  0.76517695  0.68337750  0.97104333  1
  O  O50  1  0.08415601  0.47264569  0.97373262  1
  O  O51  1  0.57775633  0.47028383  0.96979227  1
  O  O52  1  0.16073702  0.83034282  0.97351478  1
  O  O53  1  0.65268660  0.82923519  0.97308580  1
  O  O54  1  0.26876281  0.84815343  0.46998202  1
  O  O55  1  0.76373211  0.82980482  0.47193072  1
  O  O56  1  0.15866970  0.48255248  0.47225028  1
  O  O57  1  0.64922426  0.46930309  0.47277692  1
  O  O58  1  0.08449296  0.68899632  0.47305703  1
  O  O59  1  0.58336729  0.70421576  0.47211097  1
  O  O60  1  0.06740365  0.63339088  0.35712765  1
  O  O61  1  0.56628188  0.62767672  0.35697346  1
  O  O62  1  0.25616965  0.87784327  0.36300017  1
  O  O63  1  0.74656600  0.86148525  0.35743501  1
  O  O64  1  0.18624149  0.50951725  0.35800241  1
  O  O65  1  0.68441934  0.49264125  0.35498250  1
  O  O66  1  0.06543772  0.49696327  0.85617595  1
  O  O67  1  0.56350249  0.48282020  0.86278527  1
  O  O68  1  0.18349597  0.86543876  0.85709910  1
  O  O69  1  0.68156288  0.86855256  0.85736392  1
  O  O70  1  0.25699554  0.64105743  0.86410133  1
  O  O71  1  0.75614657  0.63238626  0.86418208  1
  O  O72  1  0.01399732  0.83655238  0.41321899  1
  O  O73  1  0.50500662  0.83289034  0.40444748  1
  O  O74  1  0.39636585  0.97030949  0.41133345  1
  O  O75  1  0.90872176  0.97933718  0.40767362  1
  O  O76  1  0.08076014  0.19023935  0.41020049  1
  O  O77  1  0.57867636  0.18228829  0.40892149  1
  O  O78  1  0.00883958  0.18426426  0.91337716  1
  O  O79  1  0.51380025  0.20462605  0.91593613  1
  O  O80  1  0.08002187  0.96773767  0.91194500  1
  O  O81  1  0.57719581  0.97607441  0.91531177  1
  O  O82  1  0.39690058  0.82439966  0.91473912  1
  O  O83  1  0.89717998  0.81474026  0.91390163  1
  O  O84  1  0.49120134  0.16983953  0.58105751  1
  O  O85  1  0.99342814  0.17131364  0.58400898  1
  O  O86  1  0.09287906  0.00828398  0.58363476  1
  O  O87  1  0.59429294  0.01643984  0.58184823  1
  O  O88  1  0.41478025  0.81142061  0.58040530  1
  O  O89  1  0.91546174  0.81591879  0.58261947  1
  O  O90  1  0.48703051  0.81693371  0.09406529  1
  O  O91  1  0.98993969  0.80947442  0.08260306  1
  O  O92  1  0.41346964  0.02622972  0.09026596  1
  O  O93  1  0.91224964  0.01892973  0.07976204  1
  O  O94  1  0.08877405  0.16370842  0.09487488  1
  O  O95  1  0.59426247  0.17090367  0.08328395  1
  O  O96  1  0.34354599  0.15410711  0.75027505  1
  O  O97  1  0.85095464  0.16655119  0.75248734  1
  O  O98  1  0.23244893  0.29952141  0.75122674  1
  O  O99  1  0.73644373  0.30477765  0.75252702  1
  O  O100  1  0.42390643  0.51952903  0.75305375  1
  O  O101  1  0.92992383  0.54400169  0.74803590  1
  O  O102  1  0.34799277  0.53956700  0.24502793  1
  O  O103  1  0.84482547  0.52858222  0.25177870  1
  O  O104  1  0.41094403  0.30371810  0.24244375  1
  O  O105  1  0.93133664  0.32020580  0.24951585  1
  O  O106  1  0.24298532  0.17560372  0.24159736  1
  O  O107  1  0.72232248  0.15035224  0.24965249  1
  O  O108  1  0.31855157  0.50569686  0.92230520  1
  O  O109  1  0.81726204  0.50036733  0.92632027  1
  O  O110  1  0.43520299  0.36590321  0.92356502  1
  O  O111  1  0.92539760  0.36542177  0.92683824  1
  O  O112  1  0.25666783  0.15207182  0.92679177  1
  O  O113  1  0.75101649  0.14830890  0.92705382  1
  O  O114  1  0.31993187  0.13339689  0.42432901  1
  O  O115  1  0.81907897  0.14417352  0.42756658  1
  O  O116  1  0.25425975  0.35796050  0.42758303  1
  O  O117  1  0.75049676  0.35306312  0.42656993  1
  O  O118  1  0.42592743  0.49235494  0.42789594  1
  O  O119  1  0.92584989  0.48706924  0.42624001  1
  O  O120  1  0.18032792  0.51440861  0.07667064  1
  O  O121  1  0.67090821  0.48687594  0.06927629  1
  O  O122  1  0.07246014  0.65836914  0.07239751  1
  O  O123  1  0.57220753  0.64332872  0.07392697  1
  O  O124  1  0.25715401  0.86846957  0.07791367  1
  O  O125  1  0.75591684  0.84937910  0.06720755  1
  O  O126  1  0.17246457  0.85052144  0.57109544  1
  O  O127  1  0.67021898  0.84982954  0.57276794  1
  O  O128  1  0.25834171  0.66868502  0.56808109  1
  O  O129  1  0.75693606  0.66485244  0.57191729  1
  O  O130  1  0.07578697  0.48840128  0.57319168  1
  O  O131  1  0.57365191  0.48904240  0.57229657  1
  O  O132  1  0.15358574  0.82051519  0.25910609  1
  O  O133  1  0.64256953  0.83005007  0.25408823  1
  O  O134  1  0.26992104  0.70290893  0.25351008  1
  O  O135  1  0.75808075  0.70476161  0.25402954  1
  O  O136  1  0.08798186  0.46975660  0.25496314  1
  O  O137  1  0.58831183  0.47358288  0.25406269  1
  O  O138  1  0.14137851  0.47768987  0.75523855  1
  O  O139  1  0.64319533  0.47769477  0.76085397  1
  O  O140  1  0.08713787  0.71667196  0.75346547  1
  O  O141  1  0.59410574  0.71190673  0.75816251  1
  O  O142  1  0.25695710  0.80876170  0.75811296  1
  O  O143  1  0.76199507  0.81727653  0.75689232  1
loop_
_geom_bond_atom_site_label_1
_geom_bond_atom_site_label_2
_geom_bond_distance
_geom_bond_site_symmetry_2
Na0 O137 2.281465 1_555
Na0 O103 2.396580 1_555
Na0 O107 2.400898 1_555
Na0 O135 2.461910 1_555
Na0 O65 2.529232 1_555
Na0 O35 2.701705 1_555
Na1 O103 2.351045 1_555
Na1 O132 2.415069 1_655
Na1 O105 2.508795 1_555
Na1 O31 2.709396 1_555
Na1 O60 2.710746 1_655
Na1 O22 2.724884 1_655
Na1 O136 2.746423 1_655
Na1 O3 2.826188 1_555
Na2 O138 2.253869 1_655
Na2 O97 2.267824 1_555
Na2 O101 2.392083 1_555
Na2 O66 2.596900 1_655
Na2 O140 2.693370 1_655
Na2 O25 2.695352 1_555
Na3 O100 2.272753 1_555
Na3 O96 2.330289 1_555
Na3 O139 2.346852 1_555
Na3 O24 2.649332 1_555
Na3 O141 2.713943 1_555
Na3 O67 2.787326 1_555
Na3 O15 2.856652 1_555
Na3 O10 2.991656 1_555
Na4 O98 2.270824 1_555
Na4 O96 2.306320 1_555
Na4 O140 2.325600 1_545
Na4 O142 2.542387 1_545
Na4 O68 2.636221 1_545
Na4 O26 2.680013 1_555
Na5 O99 2.293501 1_555
Na5 O141 2.310410 1_545
Na5 O97 2.497041 1_555
Na5 O27 2.607151 1_555
Na5 O143 2.608406 1_545
Na5 O69 2.703285 1_545
Na5 O17 2.873551 1_545
Na5 O7 2.989122 1_555
Na6 O72 2.413812 1_655
Na6 O75 2.457659 1_555
Na6 O76 2.469910 1_665
Na6 O89 2.526569 1_555
Na6 O85 2.569187 1_565
Na6 O86 2.603919 1_665
Na7 O87 2.386937 1_555
Na7 O88 2.434522 1_545
Na7 O84 2.441617 1_555
Na7 O77 2.538195 1_555
Na7 O73 2.622289 1_545
Na7 O74 2.694754 1_545
Na8 O78 2.471734 1_555
Na8 O91 2.479589 1_446
Na8 O93 2.488614 1_456
Na8 O80 2.497890 1_545
Na8 O94 2.572192 1_556
Na8 O83 2.668144 1_445
Na9 O81 2.341865 1_555
Na9 O95 2.514361 1_566
Na9 O82 2.527986 1_555
Na9 O79 2.535085 1_565
Na9 O90 2.621852 1_556
Na9 O92 2.707569 1_566
Na10 O100 2.357243 1_555
Na10 O98 2.396143 1_555
Na10 O96 2.491316 1_555
Na10 O108 2.641246 1_555
Na10 O112 2.670623 1_555
Na10 O110 2.729920 1_555
Na11 O99 2.297071 1_555
Na11 O97 2.460665 1_555
Na11 O101 2.593001 1_555
Na11 O109 2.674675 1_555
Na11 O113 2.675653 1_555
Na11 O111 2.721303 1_555
Na12 O104 2.423161 1_555
Na12 O106 2.437779 1_555
Na12 O102 2.538418 1_555
Na12 O114 2.725560 1_555
Na12 O116 2.749776 1_555
Na12 O118 2.756269 1_555
Na13 O103 2.486975 1_555
Na13 O119 2.565056 1_555
Na13 O117 2.599200 1_555
Na13 O115 2.600431 1_555
Na13 O105 2.628295 1_555
Na13 O107 2.641831 1_555
Na14 O120 2.433469 1_555
Na14 O124 2.530088 1_555
Na14 O134 2.534477 1_555
Na14 O136 2.644822 1_555
Na14 O132 2.647181 1_555
Na14 O122 2.732572 1_555
Na15 O135 2.414223 1_555
Na15 O137 2.440370 1_555
Na15 O133 2.477702 1_555
Na15 O123 2.674570 1_555
Na15 O125 2.848078 1_555
Na15 O121 2.854592 1_555
Na16 O142 2.436731 1_555
Na16 O138 2.457950 1_555
Na16 O128 2.653965 1_555
Na16 O140 2.692742 1_555
Na16 O130 2.732327 1_555
Na16 O126 2.739093 1_555
Na17 O129 2.533430 1_555
Na17 O143 2.605895 1_555
Na17 O131 2.614874 1_555
Na17 O127 2.624734 1_555
Na17 O139 2.641509 1_555
Na17 O141 2.713296 1_555
Ca0 O98 2.206468 1_555
Ca0 O100 2.215875 1_555
Ca0 O28 2.271112 1_555
Ca0 O96 2.275071 1_555
Ca0 O24 2.316626 1_555
Ca0 O26 2.325528 1_555
Ca1 O99 2.206908 1_555
Ca1 O29 2.223893 1_555
Ca1 O27 2.261272 1_555
Ca1 O97 2.307101 1_555
Ca1 O25 2.322377 1_555
Ca1 O101 2.326945 1_555
Ca2 O103 2.259304 1_555
Ca2 O33 2.264175 1_555
Ca2 O31 2.267114 1_555
Ca2 O35 2.283479 1_555
Ca2 O105 2.318723 1_555
Ca2 O107 2.330685 1_555
O0 Si0 1.618168 1_555
O0 Ti0 1.923193 1_545
O1 S0 1.479306 1_545
O1 Ti1 2.034350 1_555
O2 S1 1.465309 1_555
O2 Ti1 2.164313 1_565
O3 Si1 1.634371 1_555
O3 Ti0 1.865425 1_655
O4 Si2 1.663240 1_555
O4 Ti1 1.840429 1_555
O5 S2 1.445875 1_655
O5 Ti0 2.172434 1_645
O6 Si3 1.645814 1_555
O6 Ti2 1.796597 1_555
O7 Si4 1.634165 1_555
O7 Ti3 1.804689 1_545
O8 Si5 1.620485 1_555
O8 Ti3 1.797491 1_555
O9 S3 1.447333 1_655
O9 Ti2 2.172589 1_665
O10 Si6 1.622687 1_545
O10 Ti3 1.862152 1_545
O11 Si7 1.606316 1_545
O11 Ti2 1.879886 1_655
O12 Si6 1.679527 1_555
O12 Ti5 1.807292 1_565
O13 Si7 1.685822 1_555
O13 Ti4 1.786102 1_565
O14 Si3 1.702863 1_555
O14 Ti4 1.804602 1_455
O15 Si4 1.685285 1_555
O15 Ti5 1.831912 1_555
O16 S3 1.504374 1_555
O16 Ti4 2.043471 1_465
O17 Si5 1.670242 1_555
O17 Ti5 1.835673 1_565
O18 S1 1.500098 1_555
O18 Ti7 2.011982 1_565
O19 Si1 1.679085 1_555
O19 Ti6 1.852911 1_655
O20 S2 1.484848 1_555
O20 Ti6 2.102941 1_545
O21 Si2 1.684963 1_555
O21 Ti7 1.824040 1_555
O22 Si0 1.688765 1_565
O22 Ti6 1.799303 1_555
O23 S0 1.498675 1_555
O23 Ti7 2.038766 1_565
O24 S4 1.471520 1_555
O25 S5 1.467548 1_555
O26 S6 1.469958 1_555
O27 S7 1.478483 1_555
O28 S8 1.451003 1_555
O29 S9 1.468581 1_555
O30 Si8 1.625841 1_555
O30 Ti8 1.876351 1_555
O31 S10 1.474867 1_555
O32 S11 1.469780 1_555
O32 Ti8 2.103576 1_555
O33 S12 1.469929 1_555
O34 Si9 1.635542 1_555
O34 Ti8 1.871364 1_555
O35 S13 1.474936 1_555
O36 Si9 1.676064 1_555
O36 Ti9 1.791319 1_554
O37 S13 1.476944 1_555
O37 Ti10 2.172151 1_554
O38 Si8 1.636320 1_555
O38 Ti9 1.885859 1_554
O39 S10 1.471764 1_555
O39 Ti10 2.202356 1_554
O40 S11 1.481880 1_555
O40 Ti9 2.098563 1_554
O41 S12 1.505383 1_555
O41 Ti10 2.018367 1_554
O42 S6 1.485391 1_555
O42 Ti11 2.224442 1_555
O43 S7 1.486759 1_555
O43 Ti12 2.146524 1_555
O44 S8 1.509508 1_555
O44 Ti11 1.994341 1_555
O45 S9 1.484060 1_555
O45 Ti12 2.215083 1_555
O46 S4 1.496466 1_555
O46 Ti11 2.153244 1_555
O47 S5 1.461956 1_555
O47 Ti12 2.253085 1_555
O48 S14 1.475384 1_555
O48 Ti13 2.035870 1_556
O49 S15 1.468468 1_555
O49 Ti14 2.189733 1_556
O50 Si10 1.640079 1_555
O50 Ti13 1.794638 1_556
O51 S16 1.505817 1_555
O51 Ti14 1.948629 1_556
O52 Si11 1.639142 1_555
O52 Ti13 1.840551 1_556
O53 Si12 1.644088 1_555
O53 Ti14 1.774389 1_556
O54 S17 1.475165 1_555
O54 Ti15 2.048019 1_555
O55 Si13 1.637085 1_555
O55 Ti16 1.800095 1_555
O56 Si14 1.644412 1_555
O56 Ti15 1.778629 1_555
O57 Si15 1.613581 1_555
O57 Ti16 1.837455 1_555
O58 Si16 1.632492 1_555
O58 Ti15 1.780515 1_555
O59 Si17 1.630302 1_555
O59 Ti16 1.831068 1_555
O60 Si16 1.660686 1_555
O60 Ti17 1.838140 1_555
O61 Si17 1.620327 1_555
O61 Ti18 1.899184 1_555
O62 S17 1.482149 1_555
O62 Ti17 2.090019 1_555
O63 Si13 1.636476 1_555
O63 Ti18 1.865780 1_555
O64 Si14 1.647101 1_555
O64 Ti17 1.851128 1_555
O65 Si15 1.630290 1_555
O65 Ti18 1.888558 1_555
O66 Si10 1.629623 1_555
O66 Ti19 1.950765 1_555
O67 S16 1.482747 1_555
O67 Ti20 2.213190 1_555
O68 Si11 1.674232 1_555
O68 Ti19 1.859233 1_555
O69 Si12 1.635688 1_555
O69 Ti20 1.917380 1_555
O70 S14 1.501614 1_555
O70 Ti19 1.994025 1_555
O71 S15 1.482403 1_555
O71 Ti20 2.175353 1_555
O72 Si16 1.607817 1_555
O72 Ti0 1.890526 1_555
O73 Si17 1.631431 1_555
O73 Ti1 1.921402 1_565
O74 S17 1.486449 1_555
O74 Ti1 2.072761 1_565
O75 Si13 1.608259 1_555
O75 Ti0 1.973469 1_655
O76 Si14 1.591744 1_555
O76 Ti0 1.976108 1_545
O77 Si15 1.652484 1_555
O77 Ti1 1.845473 1_555
O78 Si10 1.631782 1_555
O78 Ti2 1.871881 1_555
O79 S16 1.480595 1_555
O79 Ti3 2.243344 1_545
O80 Si11 1.635549 1_555
O80 Ti2 1.950310 1_565
O81 Si12 1.611282 1_555
O81 Ti3 1.996953 1_555
O82 S14 1.467080 1_555
O82 Ti3 2.243174 1_555
O83 S15 1.473051 1_555
O83 Ti2 2.248940 1_665
O84 S4 1.500558 1_555
O84 Ti5 2.287179 1_555
O85 S5 1.511819 1_555
O85 Ti4 2.095383 1_555
O86 S6 1.496898 1_555
O86 Ti4 2.273474 1_455
O87 S7 1.492590 1_555
O87 Ti5 2.316612 1_555
O88 S8 1.480430 1_555
O88 Ti5 2.353919 1_565
O89 S9 1.509349 1_555
O89 Ti4 2.202528 1_565
O90 Si8 1.652650 1_555
O90 Ti7 1.917282 1_565
O91 S10 1.497811 1_555
O91 Ti6 2.144609 1_655
O92 S11 1.515058 1_555
O92 Ti7 2.038408 1_555
O93 S12 1.464596 1_555
O93 Ti6 2.400145 1_645
O94 Si9 1.643667 1_555
O94 Ti6 1.940588 1_545
O95 S13 1.508768 1_555
O95 Ti7 2.140383 1_555
O96 Si6 1.598943 1_545
O97 Si7 1.608694 1_545
O98 Si3 1.577696 1_555
O99 Si4 1.590679 1_555
O100 Si5 1.577097 1_555
O101 S3 1.469356 1_655
O102 S1 1.487817 1_555
O102 Ti8 2.102448 1_555
O103 Si1 1.643713 1_555
O104 Si2 1.615396 1_555
O104 Ti8 1.976824 1_555
O105 S2 1.489858 1_655
O106 Si0 1.610893 1_555
O106 Ti8 1.961445 1_555
O107 S0 1.487745 1_545
O108 S14 1.489311 1_555
O108 Ti9 2.105247 1_555
O109 S15 1.522716 1_555
O109 Ti10 2.010463 1_555
O110 S16 1.472472 1_555
O110 Ti9 2.293114 1_555
O111 Si10 1.662304 1_655
O111 Ti10 1.829277 1_555
O112 Si11 1.646898 1_545
O112 Ti9 1.921960 1_555
O113 Si12 1.673485 1_545
O113 Ti10 1.809761 1_555
O114 S17 1.484363 1_545
O114 Ti11 2.122312 1_555
O115 Si13 1.668144 1_545
O115 Ti12 1.815811 1_555
O116 Si14 1.665381 1_555
O116 Ti11 1.821794 1_555
O117 Si15 1.647866 1_555
O117 Ti12 1.831452 1_555
O118 Si17 1.683651 1_555
O118 Ti11 1.800138 1_555
O119 Si16 1.629552 1_655
O119 Ti12 1.871155 1_555
O120 Si9 1.642162 1_555
O120 Ti13 1.957809 1_555
O121 S13 1.479740 1_555
O121 Ti14 2.085667 1_555
O122 S10 1.494849 1_455
O122 Ti13 2.024601 1_555
O123 Si8 1.675012 1_555
O123 Ti14 1.833157 1_555
O124 S11 1.476938 1_565
O124 Ti13 2.260590 1_555
O125 S12 1.498633 1_565
O125 Ti14 2.014444 1_555
O126 S6 1.501247 1_565
O126 Ti15 2.071392 1_555
O127 S7 1.488740 1_565
O127 Ti16 2.109670 1_555
O128 S8 1.493323 1_555
O128 Ti15 2.063244 1_555
O129 S9 1.489000 1_555
O129 Ti16 2.162694 1_555
O130 S5 1.507935 1_455
O130 Ti15 2.022179 1_555
O131 S4 1.488452 1_555
O131 Ti16 2.158713 1_555
O132 Si0 1.666443 1_565
O132 Ti17 1.957651 1_555
O133 S0 1.460198 1_555
O133 Ti18 2.219999 1_555
O134 S1 1.486044 1_555
O134 Ti17 2.236679 1_555
O135 Si1 1.634598 1_555
O135 Ti18 2.017463 1_555
O136 S2 1.525337 1_555
O136 Ti17 2.061345 1_555
O137 Si2 1.628520 1_555
O137 Ti18 2.082006 1_555
O138 Si3 1.625516 1_555
O138 Ti19 2.042280 1_555
O139 Si4 1.626000 1_555
O139 Ti20 1.929743 1_555
O140 S3 1.511550 1_555
O140 Ti19 2.219613 1_555
O141 Si5 1.662441 1_555
O141 Ti20 1.878231 1_555
O142 Si6 1.648887 1_555
O142 Ti19 1.911539 1_555
O143 Si7 1.640257 1_555
O143 Ti20 1.852244 1_555
