# generated using pymatgen
data_LaYbS3
_symmetry_space_group_name_H-M   'P 1'
_cell_length_a   7.16716400
_cell_length_b   7.76352900
_cell_length_c   8.96841000
_cell_angle_alpha   90.00000000
_cell_angle_beta   90.00000000
_cell_angle_gamma   90.00000000
_symmetry_Int_Tables_number   1
_chemical_formula_structural   LaYbS3
_chemical_formula_sum   'La4 Yb4 S12'
_cell_volume   499.02462394
_cell_formula_units_Z   4
loop_
 _symmetry_equiv_pos_site_id
 _symmetry_equiv_pos_as_xyz
  1  'x, y, z'
loop_
 _atom_site_type_symbol
 _atom_site_label
 _atom_site_symmetry_multiplicity
 _atom_site_fract_x
 _atom_site_fract_y
 _atom_site_fract_z
 _atom_site_occupancy
  La  La0  1  0.52101500  0.40239300  0.75000000  1
  La  La1  1  0.47898500  0.59760700  0.25000000  1
  La  La2  1  0.02101500  0.09760700  0.25000000  1
  La  La3  1  0.97898500  0.90239300  0.75000000  1
  Yb  Yb0  1  0.00000000  0.50000000  0.00000000  1
  Yb  Yb1  1  0.00000000  0.50000000  0.50000000  1
  Yb  Yb2  1  0.50000000  0.00000000  0.50000000  1
  Yb  Yb3  1  0.50000000  0.00000000  0.00000000  1
  S  S0  1  0.81515200  0.19236700  0.58357800  1
  S  S1  1  0.18484800  0.80763300  0.08357800  1
  S  S2  1  0.31515200  0.30763300  0.08357800  1
  S  S3  1  0.68484800  0.69236700  0.58357800  1
  S  S4  1  0.81515200  0.19236700  0.91642200  1
  S  S5  1  0.18484800  0.80763300  0.41642200  1
  S  S6  1  0.31515200  0.30763300  0.41642200  1
  S  S7  1  0.68484800  0.69236700  0.91642200  1
  S  S8  1  0.81320700  0.41083100  0.25000000  1
  S  S9  1  0.18679300  0.58916900  0.75000000  1
  S  S10  1  0.31320700  0.08916900  0.75000000  1
  S  S11  1  0.68679300  0.91083100  0.25000000  1
loop_
_geom_bond_atom_site_label_1
_geom_bond_atom_site_label_2
_geom_bond_distance
_geom_bond_site_symmetry_2
La0 S9 2.800120 1_555
La0 S10 2.851592 1_555
La0 S7 2.945244 1_555
La0 S3 2.945244 1_555
La0 S0 3.054595 1_555
La0 S4 3.054595 1_555
La0 S2 3.415879 1_556
La0 S6 3.415879 1_555
La1 S8 2.800120 1_555
La1 S11 2.851592 1_555
La1 S6 2.945244 1_555
La1 S2 2.945244 1_555
La1 S1 3.054595 1_555
La1 S5 3.054595 1_555
La1 S3 3.415879 1_555
La1 S7 3.415879 1_554
La2 S11 2.800120 1_445
La2 S8 2.851592 1_455
La2 S1 2.945244 1_545
La2 S5 2.945244 1_545
La2 S6 3.054595 1_555
La2 S2 3.054595 1_555
La2 S0 3.415879 1_455
La2 S4 3.415879 1_454
La3 S10 2.800120 1_665
La3 S9 2.851592 1_655
La3 S0 2.945244 1_565
La3 S4 2.945244 1_565
La3 S7 3.054595 1_555
La3 S3 3.054595 1_555
La3 S1 3.415879 1_656
La3 S5 3.415879 1_655
S0 Yb2 2.809655 1_555
S0 Yb1 2.832154 1_655
S1 Yb3 2.809655 1_565
S1 Yb0 2.832154 1_555
S2 Yb0 2.809655 1_555
S2 Yb3 2.832154 1_555
S3 Yb1 2.809655 1_655
S3 Yb2 2.832154 1_565
S4 Yb3 2.809655 1_556
S4 Yb0 2.832154 1_656
S5 Yb2 2.809655 1_565
S5 Yb1 2.832154 1_555
S6 Yb1 2.809655 1_555
S6 Yb2 2.832154 1_555
S7 Yb0 2.809655 1_656
S7 Yb3 2.832154 1_566
S8 Yb0 2.701588 1_655
S8 Yb1 2.701588 1_655
S9 Yb1 2.701588 1_555
S9 Yb0 2.701588 1_556
S10 Yb2 2.701588 1_555
S10 Yb3 2.701588 1_556
S11 Yb2 2.701588 1_565
S11 Yb3 2.701588 1_565
