# generated using pymatgen
data_Na3HfZn(PO4)3
_symmetry_space_group_name_H-M   'P 1'
_cell_length_a   15.65474295
_cell_length_b   9.05694637
_cell_length_c   8.91433788
_cell_angle_alpha   90.00000000
_cell_angle_beta   124.81111168
_cell_angle_gamma   90.00000000
_symmetry_Int_Tables_number   1
_chemical_formula_structural   Na3HfZn(PO4)3
_chemical_formula_sum   'Na12 Hf4 Zn4 P12 O48'
_cell_volume   1037.72040684
_cell_formula_units_Z   4
loop_
 _symmetry_equiv_pos_site_id
 _symmetry_equiv_pos_as_xyz
  1  'x, y, z'
loop_
 _atom_site_type_symbol
 _atom_site_label
 _atom_site_symmetry_multiplicity
 _atom_site_fract_x
 _atom_site_fract_y
 _atom_site_fract_z
 _atom_site_occupancy
  Na  Na0  1  0.24918242  0.72596448  0.97831028  1
  Na  Na1  1  0.74918242  0.77403552  0.47831028  1
  Na  Na2  1  0.74918242  0.22596448  0.97831028  1
  Na  Na3  1  0.24918242  0.27403552  0.47831028  1
  Na  Na4  1  0.50319625  0.10947655  0.74582359  1
  Na  Na5  1  0.50319625  0.89052345  0.24582359  1
  Na  Na6  1  0.00319625  0.60947655  0.74582359  1
  Na  Na7  1  0.00319625  0.39052345  0.24582359  1
  Na  Na8  1  0.18356559  0.94190759  0.28894467  1
  Na  Na9  1  0.18356559  0.05809241  0.78894467  1
  Na  Na10  1  0.68356559  0.44190759  0.28894467  1
  Na  Na11  1  0.68356559  0.55809241  0.78894467  1
  Hf  Hf0  1  0.89437806  0.75750560  0.94056055  1
  Hf  Hf1  1  0.89437806  0.24249440  0.44056055  1
  Hf  Hf2  1  0.39437806  0.25750560  0.94056055  1
  Hf  Hf3  1  0.39437806  0.74249440  0.44056055  1
  Zn  Zn0  1  0.09779085  0.75047581  0.54867505  1
  Zn  Zn1  1  0.09779085  0.24952419  0.04867505  1
  Zn  Zn2  1  0.59779085  0.25047581  0.54867505  1
  Zn  Zn3  1  0.59779085  0.74952419  0.04867505  1
  P  P0  1  0.00237503  0.95037127  0.76028861  1
  P  P1  1  0.00237503  0.04962873  0.26028861  1
  P  P2  1  0.50237503  0.45037127  0.76028861  1
  P  P3  1  0.50237503  0.54962873  0.26028861  1
  P  P4  1  0.35199444  0.89971541  0.76085933  1
  P  P5  1  0.64555258  0.89401892  0.74677658  1
  P  P6  1  0.64555258  0.10598108  0.24677658  1
  P  P7  1  0.35199444  0.10028459  0.26085933  1
  P  P8  1  0.85199444  0.39971541  0.76085933  1
  P  P9  1  0.14555258  0.39401892  0.74677658  1
  P  P10  1  0.14555258  0.60598108  0.24677658  1
  P  P11  1  0.85199444  0.60028459  0.26085933  1
  O  O0  1  0.15248461  0.56201747  0.73971429  1
  O  O1  1  0.84711816  0.57483152  0.75601808  1
  O  O2  1  0.84711816  0.42516848  0.25601808  1
  O  O3  1  0.15248461  0.43798253  0.23971429  1
  O  O4  1  0.65248461  0.06201747  0.73971429  1
  O  O5  1  0.34711816  0.07483152  0.75601808  1
  O  O6  1  0.34711816  0.92516848  0.25601808  1
  O  O7  1  0.65248461  0.93798253  0.23971429  1
  O  O8  1  0.44251800  0.55825633  0.59319105  1
  O  O9  1  0.56815073  0.53911054  0.93669221  1
  O  O10  1  0.56815073  0.46088946  0.43669221  1
  O  O11  1  0.44251800  0.44174367  0.09319105  1
  O  O12  1  0.94251800  0.05825633  0.59319105  1
  O  O13  1  0.06815073  0.03911054  0.93669221  1
  O  O14  1  0.06815073  0.96088946  0.43669221  1
  O  O15  1  0.94251800  0.94174367  0.09319105  1
  O  O16  1  0.25650258  0.84299165  0.74950026  1
  O  O17  1  0.73715851  0.81590596  0.75189712  1
  O  O18  1  0.73715851  0.18409404  0.25189712  1
  O  O19  1  0.25650258  0.15700835  0.24950026  1
  O  O20  1  0.75650258  0.34299165  0.74950026  1
  O  O21  1  0.23715851  0.31590596  0.75189712  1
  O  O22  1  0.23715851  0.68409404  0.25189712  1
  O  O23  1  0.75650258  0.65700835  0.24950026  1
  O  O24  1  0.35098611  0.85808199  0.58736777  1
  O  O25  1  0.64765736  0.84600683  0.91231085  1
  O  O26  1  0.64765736  0.15399317  0.41231085  1
  O  O27  1  0.35098611  0.14191801  0.08736777  1
  O  O28  1  0.85098611  0.35808199  0.58736777  1
  O  O29  1  0.14765736  0.34600683  0.91231085  1
  O  O30  1  0.14765736  0.65399317  0.41231085  1
  O  O31  1  0.85098611  0.64191801  0.08736777  1
  O  O32  1  0.45352423  0.84861412  0.93443870  1
  O  O33  1  0.54242275  0.83357012  0.56846610  1
  O  O34  1  0.54242275  0.16642988  0.06846610  1
  O  O35  1  0.45352423  0.15138588  0.43443870  1
  O  O36  1  0.95352423  0.34861412  0.93443870  1
  O  O37  1  0.04242275  0.33357012  0.56846610  1
  O  O38  1  0.04242275  0.66642988  0.06846610  1
  O  O39  1  0.95352423  0.65138588  0.43443870  1
  O  O40  1  0.07567660  0.84607265  0.74690985  1
  O  O41  1  0.91776511  0.85229323  0.75325505  1
  O  O42  1  0.91776511  0.14770677  0.25325505  1
  O  O43  1  0.07567660  0.15392735  0.24690985  1
  O  O44  1  0.57567660  0.34607265  0.74690985  1
  O  O45  1  0.41776511  0.35229323  0.75325505  1
  O  O46  1  0.41776511  0.64770677  0.25325505  1
  O  O47  1  0.57567660  0.65392735  0.24690985  1
loop_
_geom_bond_atom_site_label_1
_geom_bond_atom_site_label_2
_geom_bond_distance
_geom_bond_site_symmetry_2
Na0 O0 2.311725 1_555
Na0 O16 2.358759 1_555
Na0 O46 2.467643 1_556
Na0 O40 2.533574 1_555
Na0 O22 2.579020 1_556
Na0 O6 2.720422 1_556
Na1 O7 2.311725 1_555
Na1 O23 2.358759 1_555
Na1 O41 2.467643 1_555
Na1 O47 2.533574 1_555
Na1 O17 2.579020 1_555
Na1 O1 2.720422 1_555
Na2 O4 2.311725 1_555
Na2 O20 2.358759 1_555
Na2 O42 2.467643 1_556
Na2 O44 2.533574 1_555
Na2 O18 2.579020 1_556
Na2 O2 2.720422 1_556
Na3 O3 2.311725 1_555
Na3 O19 2.358759 1_555
Na3 O45 2.467643 1_555
Na3 O43 2.533574 1_555
Na3 O21 2.579020 1_555
Na3 O5 2.720422 1_555
Na4 O4 2.407269 1_555
Na4 O44 2.422140 1_555
Na4 O35 2.447312 1_555
Na4 O5 2.516000 1_555
Na4 O45 2.594335 1_555
Na4 O34 2.626565 1_556
Na5 O7 2.407269 1_555
Na5 O47 2.422140 1_555
Na5 O32 2.447312 1_554
Na5 O6 2.516000 1_555
Na5 O46 2.594335 1_555
Na5 O33 2.626565 1_555
Na6 O0 2.407269 1_555
Na6 O40 2.422140 1_555
Na6 O39 2.447312 1_455
Na6 O1 2.516000 1_455
Na6 O41 2.594335 1_455
Na6 O38 2.626565 1_556
Na7 O3 2.407269 1_555
Na7 O43 2.422140 1_555
Na7 O36 2.447312 1_454
Na7 O2 2.516000 1_455
Na7 O42 2.594335 1_455
Na7 O37 2.626565 1_555
Na8 O19 2.383500 1_565
Na8 O43 2.440865 1_565
Na8 O24 2.561629 1_555
Na8 O22 2.565454 1_555
Na8 O13 2.724344 1_564
Na8 O6 2.742753 1_555
Na8 O14 2.783110 1_555
Na9 O16 2.383500 1_545
Na9 O40 2.440865 1_545
Na9 O27 2.561629 1_556
Na9 O21 2.565454 1_555
Na9 O14 2.724344 1_545
Na9 O5 2.742753 1_555
Na9 O13 2.783110 1_555
Na10 O23 2.383500 1_555
Na10 O47 2.440865 1_555
Na10 O28 2.561629 1_555
Na10 O18 2.565454 1_555
Na10 O9 2.724344 1_554
Na10 O2 2.742753 1_555
Na10 O10 2.783110 1_555
Na11 O20 2.383500 1_555
Na11 O44 2.440865 1_555
Na11 O31 2.561629 1_556
Na11 O17 2.565454 1_555
Na11 O10 2.724344 1_555
Na11 O1 2.742753 1_555
Na11 O9 2.783110 1_555
Hf0 O15 2.008183 1_556
Hf0 O31 2.070031 1_556
Hf0 O38 2.081981 1_656
Hf0 O41 2.087322 1_555
Hf0 O17 2.107097 1_555
Hf0 O1 2.145062 1_555
Hf1 O12 2.008183 1_555
Hf1 O28 2.070031 1_555
Hf1 O37 2.081981 1_655
Hf1 O42 2.087322 1_555
Hf1 O18 2.107097 1_555
Hf1 O2 2.145062 1_555
Hf2 O11 2.008183 1_556
Hf2 O27 2.070031 1_556
Hf2 O34 2.081981 1_556
Hf2 O45 2.087322 1_555
Hf2 O21 2.107097 1_555
Hf2 O5 2.145062 1_555
Hf3 O8 2.008183 1_555
Hf3 O24 2.070031 1_555
Hf3 O33 2.081981 1_555
Hf3 O46 2.087322 1_555
Hf3 O22 2.107097 1_555
Hf3 O6 2.145062 1_555
O0 P9 1.529270 1_555
O0 Zn0 2.209486 1_555
O1 P8 1.587255 1_555
O2 P11 1.587255 1_555
O3 P10 1.529270 1_555
O3 Zn1 2.209486 1_555
O4 P5 1.529270 1_545
O4 Zn2 2.209486 1_555
O5 P4 1.587255 1_545
O6 P7 1.587255 1_565
O7 P6 1.529270 1_565
O7 Zn3 2.209486 1_555
O8 P2 1.567789 1_555
O9 P2 1.526534 1_555
O9 Zn3 2.077179 1_556
O10 P3 1.526534 1_555
O10 Zn2 2.077179 1_555
O11 P3 1.567789 1_555
O12 P0 1.567789 1_645
O13 P0 1.526534 1_545
O13 Zn1 2.077179 1_556
O14 P1 1.526534 1_565
O14 Zn0 2.077179 1_555
O15 P1 1.567789 1_665
O16 P4 1.528426 1_555
O16 Zn0 2.236456 1_555
O17 P5 1.576198 1_555
O18 P6 1.576198 1_555
O19 P7 1.528426 1_555
O19 Zn1 2.236456 1_555
O20 P8 1.528426 1_555
O20 Zn2 2.236456 1_555
O21 P9 1.576198 1_555
O22 P10 1.576198 1_555
O23 P11 1.528426 1_555
O23 Zn3 2.236456 1_555
O24 P4 1.583166 1_555
O25 P5 1.520572 1_555
O25 Zn3 1.983467 1_556
O26 P6 1.520572 1_555
O26 Zn2 1.983467 1_555
O27 P7 1.583166 1_555
O28 P8 1.583166 1_555
O29 P9 1.520572 1_555
O29 Zn1 1.983467 1_556
O30 P10 1.520572 1_555
O30 Zn0 1.983467 1_555
O31 P11 1.583166 1_555
O32 P4 1.525370 1_555
O32 Zn3 2.077785 1_556
O33 P5 1.582037 1_555
O34 P6 1.582037 1_555
O35 P7 1.525370 1_555
O35 Zn2 2.077785 1_555
O36 P8 1.525370 1_555
O36 Zn1 2.077785 1_656
O37 P9 1.582037 1_555
O38 P10 1.582037 1_555
O39 P11 1.525370 1_555
O39 Zn0 2.077785 1_655
O40 P0 1.542593 1_555
O40 Zn0 2.165808 1_555
O41 P0 1.566075 1_655
O42 P1 1.566075 1_655
O43 P1 1.542593 1_555
O43 Zn1 2.165808 1_555
O44 P2 1.542593 1_555
O44 Zn2 2.165808 1_555
O45 P2 1.566075 1_555
O46 P3 1.566075 1_555
O47 P3 1.542593 1_555
O47 Zn3 2.165808 1_555
