# generated using pymatgen
data_Na7Ca3GeP5SO24
_symmetry_space_group_name_H-M   'P 1'
_cell_length_a   9.27441150
_cell_length_b   9.26946241
_cell_length_c   22.53469228
_cell_angle_alpha   90.29253822
_cell_angle_beta   90.14407588
_cell_angle_gamma   120.00026673
_symmetry_Int_Tables_number   1
_chemical_formula_structural   Na7Ca3GeP5SO24
_chemical_formula_sum   'Na21 Ca9 Ge3 P15 S3 O72'
_cell_volume   1677.67915814
_cell_formula_units_Z   3
loop_
 _symmetry_equiv_pos_site_id
 _symmetry_equiv_pos_as_xyz
  1  'x, y, z'
loop_
 _atom_site_type_symbol
 _atom_site_label
 _atom_site_symmetry_multiplicity
 _atom_site_fract_x
 _atom_site_fract_y
 _atom_site_fract_z
 _atom_site_occupancy
  Na  Na0  1  0.62353672  0.00007439  0.25129675  1
  Na  Na1  1  0.36515001  0.35161490  0.25337174  1
  Na  Na2  1  0.01194043  0.64756277  0.25043981  1
  Na  Na3  1  0.65005247  0.64759087  0.75302940  1
  Na  Na4  1  0.99629418  0.35359899  0.75319662  1
  Na  Na5  1  0.29586520  0.34356558  0.58493034  1
  Na  Na6  1  0.02909941  0.69353160  0.58696984  1
  Na  Na7  1  0.67042541  0.95806614  0.58364034  1
  Na  Na8  1  0.29696570  0.96073371  0.07808427  1
  Na  Na9  1  0.66201460  0.70054429  0.07305172  1
  Na  Na10  1  0.03998680  0.33799224  0.07387450  1
  Na  Na11  1  0.97376767  0.67018983  0.90989297  1
  Na  Na12  1  0.32768175  0.29892490  0.91010373  1
  Na  Na13  1  0.33536795  0.02039252  0.41512565  1
  Na  Na14  1  0.69003357  0.67123918  0.42148703  1
  Na  Na15  1  0.99353136  0.01282607  0.49709746  1
  Na  Na16  1  0.98436181  0.00087116  0.99325629  1
  Na  Na17  1  0.65446745  0.30764753  0.83155302  1
  Na  Na18  1  0.66719418  0.32140751  0.33986180  1
  Na  Na19  1  0.33168174  0.67641117  0.16069007  1
  Na  Na20  1  0.33328461  0.67285887  0.67496877  1
  Ca  Ca0  1  0.00631747  0.00954047  0.35361648  1
  Ca  Ca1  1  0.99744838  0.00107802  0.84944338  1
  Ca  Ca2  1  0.99723335  0.99774164  0.65806859  1
  Ca  Ca3  1  0.00506301  0.99915670  0.14416434  1
  Ca  Ca4  1  0.66187399  0.33054960  0.68839696  1
  Ca  Ca5  1  0.66337109  0.33055702  0.18058042  1
  Ca  Ca6  1  0.33693979  0.66953532  0.01110257  1
  Ca  Ca7  1  0.32860828  0.66087908  0.51204851  1
  Ca  Ca8  1  0.33080899  0.66730138  0.32850107  1
  Ge  Ge0  1  0.66688758  0.32728511  0.98063242  1
  Ge  Ge1  1  0.68681402  0.34672859  0.48086466  1
  Ge  Ge2  1  0.33723753  0.68057292  0.81849042  1
  P  P0  1  0.30510594  0.99565280  0.25029760  1
  P  P1  1  0.30625862  0.32644896  0.75652889  1
  P  P2  1  0.01682202  0.69527727  0.75474870  1
  P  P3  1  0.67875030  0.98379533  0.75254942  1
  P  P4  1  0.95227821  0.33022461  0.58110142  1
  P  P5  1  0.67079125  0.62342693  0.57999406  1
  P  P6  1  0.95280537  0.62091153  0.07941972  1
  P  P7  1  0.66985455  0.04629713  0.07986185  1
  P  P8  1  0.37752014  0.33246540  0.07868549  1
  P  P9  1  0.62971320  0.65056194  0.91886848  1
  P  P10  1  0.02307662  0.37195636  0.91940137  1
  P  P11  1  0.34911085  0.97326416  0.91884725  1
  P  P12  1  0.64241871  0.99147176  0.42222578  1
  P  P13  1  0.35375588  0.35773716  0.42185896  1
  P  P14  1  0.01267040  0.65692000  0.41919034  1
  S  S0  1  0.69462109  0.69903294  0.25055384  1
  S  S1  1  0.00340529  0.30588132  0.24829929  1
  S  S2  1  0.37305108  0.04394016  0.57907956  1
  O  O0  1  0.21547620  0.00945166  0.30532368  1
  O  O1  1  0.79147035  0.78601021  0.30360194  1
  O  O2  1  0.98388624  0.19963913  0.29896946  1
  O  O3  1  0.22149189  0.21951087  0.80995268  1
  O  O4  1  0.98763418  0.77882913  0.80738038  1
  O  O5  1  0.80111740  0.01063650  0.80132896  1
  O  O6  1  0.73537416  0.94092818  0.69316120  1
  O  O7  1  0.20235704  0.25558145  0.69863594  1
  O  O8  1  0.04229786  0.79001454  0.69591144  1
  O  O9  1  0.77466926  0.79582379  0.19627676  1
  O  O10  1  0.01545613  0.22802381  0.19253561  1
  O  O11  1  0.20503908  0.98038778  0.19333171  1
  O  O12  1  0.87555134  0.34656037  0.63789269  1
  O  O13  1  0.47256468  0.12367792  0.63117479  1
  O  O14  1  0.64945678  0.52412275  0.63541352  1
  O  O15  1  0.88184108  0.53293161  0.13800141  1
  O  O16  1  0.65365252  0.11471339  0.13943288  1
  O  O17  1  0.46652684  0.35136380  0.13749721  1
  O  O18  1  0.47679212  0.31225662  0.02429781  1
  O  O19  1  0.83454976  0.52023832  0.02457134  1
  O  O20  1  0.68872408  0.16880347  0.02735540  1
  O  O21  1  0.45395881  0.14239478  0.52400424  1
  O  O22  1  0.68873021  0.52651201  0.52326667  1
  O  O23  1  0.83296388  0.31047793  0.52616479  1
  O  O24  1  0.55913735  0.67307246  0.97642469  1
  O  O25  1  0.11945112  0.44640929  0.97670819  1
  O  O26  1  0.31915925  0.87898238  0.97630789  1
  O  O27  1  0.55535454  0.88133482  0.47560529  1
  O  O28  1  0.33353622  0.44278656  0.47593902  1
  O  O29  1  0.12353643  0.68710177  0.47297041  1
  O  O30  1  0.08476886  0.63095898  0.36150071  1
  O  O31  1  0.53416013  0.92101310  0.36525143  1
  O  O32  1  0.38393800  0.46151539  0.36471601  1
  O  O33  1  0.11121731  0.49450535  0.86528712  1
  O  O34  1  0.37089479  0.87372765  0.86493772  1
  O  O35  1  0.51034439  0.62628632  0.86428220  1
  O  O36  1  0.97931984  0.80353436  0.41545274  1
  O  O37  1  0.81291243  0.00647251  0.41619689  1
  O  O38  1  0.20860587  0.17841455  0.41748336  1
  O  O39  1  0.00742733  0.20210892  0.91135400  1
  O  O40  1  0.20063792  -0.00006456  0.90891977  1
  O  O41  1  0.80858506  0.79183807  0.91166065  1
  O  O42  1  0.96764886  0.17113660  0.57884989  1
  O  O43  1  0.20537356  0.03050656  0.58221820  1
  O  O44  1  0.83319094  0.79525028  0.57930651  1
  O  O45  1  0.96183230  0.79235629  0.07649992  1
  O  O46  1  0.83031718  0.03397011  0.07662110  1
  O  O47  1  0.20447703  0.17184046  0.07592064  1
  O  O48  1  0.65665677  0.13573271  0.74915437  1
  O  O49  1  0.48624714  0.36338758  0.75167095  1
  O  O50  1  0.86803013  0.51556368  0.75086963  1
  O  O51  1  0.68192359  0.53258928  0.24911212  1
  O  O52  1  0.85708500  0.33126160  0.24844895  1
  O  O53  1  0.48094924  0.15472472  0.25112745  1
  O  O54  1  0.63289898  0.47765520  0.92081406  1
  O  O55  1  0.84550725  0.36299218  0.92281128  1
  O  O56  1  0.51199916  0.15289157  0.92199168  1
  O  O57  1  0.65113958  0.16692888  0.42905326  1
  O  O58  1  0.52125755  0.34780316  0.42710246  1
  O  O59  1  0.83560134  0.49260114  0.42504643  1
  O  O60  1  0.35633743  0.48672671  0.07462471  1
  O  O61  1  0.12912984  0.64404182  0.07564381  1
  O  O62  1  0.51504304  0.87150406  0.07506566  1
  O  O63  1  0.34961772  0.87312861  0.57575749  1
  O  O64  1  0.51850392  0.64733221  0.57432054  1
  O  O65  1  0.12590810  0.48684085  0.57552270  1
  O  O66  1  0.32298904  0.83694250  0.25183728  1
  O  O67  1  0.52381227  0.67669790  0.25293947  1
  O  O68  1  0.15873349  0.47126564  0.25316701  1
  O  O69  1  0.31152612  0.50266104  0.76415545  1
  O  O70  1  0.18120503  0.68209788  0.76335703  1
  O  O71  1  0.50520763  0.81551101  0.76383136  1
loop_
_geom_bond_atom_site_label_1
_geom_bond_atom_site_label_2
_geom_bond_distance
_geom_bond_site_symmetry_2
Na0 O53 2.387374 1_555
Na0 O66 2.416964 1_545
Na0 O67 2.659109 1_545
Na0 O31 2.690893 1_545
Na0 O16 2.701080 1_555
Na0 O52 2.733743 1_555
Na1 O53 2.538946 1_555
Na1 O51 2.555218 1_555
Na1 O67 2.609953 1_555
Na1 O68 2.649205 1_555
Na1 O32 2.675438 1_555
Na1 O17 2.777917 1_555
Na2 O66 2.517827 1_555
Na2 O52 2.539372 1_455
Na2 O68 2.598694 1_555
Na2 O30 2.615898 1_555
Na2 O51 2.691081 1_455
Na2 O15 2.771267 1_455
Na3 O49 2.290359 1_555
Na3 O71 2.524952 1_555
Na3 O69 2.741250 1_555
Na3 O6 2.780439 1_555
Na3 O35 2.787232 1_555
Na3 O50 2.839196 1_555
Na3 O14 2.880507 1_555
Na3 O4 2.989830 1_555
Na4 O50 2.336291 1_555
Na4 O69 2.543774 1_655
Na4 O70 2.652240 1_655
Na4 O48 2.764799 1_555
Na4 O7 2.779630 1_655
Na4 O33 2.789788 1_655
Na4 O12 2.814283 1_555
Na4 O5 2.974907 1_555
Na5 O65 2.527436 1_555
Na5 O64 2.538588 1_555
Na5 O43 2.586799 1_555
Na5 O28 2.589665 1_555
Na5 O42 2.640026 1_455
Na5 O7 2.703322 1_555
Na6 O44 2.435845 1_455
Na6 O65 2.501940 1_555
Na6 O8 2.590036 1_555
Na6 O63 2.594430 1_555
Na6 O43 2.708986 1_565
Na6 O29 2.726184 1_555
Na7 O42 2.463824 1_565
Na7 O64 2.501926 1_555
Na7 O6 2.563476 1_555
Na7 O27 2.604224 1_555
Na7 O44 2.616013 1_555
Na7 O63 2.675299 1_555
Na8 O26 2.453031 1_554
Na8 O47 2.499345 1_565
Na8 O62 2.540157 1_555
Na8 O61 2.544001 1_555
Na8 O45 2.691778 1_455
Na8 O11 2.768833 1_555
Na9 O24 2.336120 1_554
Na9 O45 2.468604 1_555
Na9 O60 2.519701 1_555
Na9 O62 2.555580 1_555
Na9 O46 2.677260 1_565
Na9 O9 2.935996 1_555
Na10 O25 2.374331 1_554
Na10 O46 2.499858 1_455
Na10 O61 2.527140 1_555
Na10 O60 2.542377 1_555
Na10 O47 2.655447 1_555
Na10 O10 2.835497 1_555
Na11 O41 2.312438 1_555
Na11 O55 2.496243 1_555
Na11 O4 2.502578 1_555
Na11 O40 2.709214 1_665
Na11 O33 2.711665 1_655
Na11 O54 2.757929 1_555
Na11 O19 2.921677 1_556
Na12 O40 2.409068 1_555
Na12 O3 2.419124 1_555
Na12 O54 2.473590 1_555
Na12 O39 2.638793 1_555
Na12 O56 2.672396 1_555
Na12 O35 2.836233 1_555
Na12 O18 2.890967 1_556
Na13 O38 2.291753 1_555
Na13 O57 2.556019 1_555
Na13 O58 2.648173 1_555
Na13 O31 2.684987 1_545
Na13 O21 2.687519 1_555
Na13 O0 2.690710 1_555
Na13 O36 2.882239 1_445
Na13 O29 3.014603 1_545
Na14 O36 2.331088 1_555
Na14 O58 2.601267 1_555
Na14 O59 2.609095 1_555
Na14 O22 2.660019 1_555
Na14 O37 2.726210 1_565
Na14 O32 2.812913 1_555
Na14 O1 2.848585 1_555
Na15 O42 2.435541 1_555
Na15 O37 2.453164 1_555
Na15 O38 2.556929 1_655
Na15 O44 2.600712 1_545
Na15 O36 2.621582 1_545
Na15 O43 2.687409 1_655
Na16 O46 2.471907 1_556
Na16 O39 2.563172 1_655
Na16 O41 2.565680 1_545
Na16 O47 2.620032 1_656
Na16 O45 2.633149 1_546
Na16 O40 2.769790 1_655
Na17 O48 2.447444 1_555
Na17 O56 2.470849 1_555
Na17 O55 2.587168 1_555
Na17 O49 2.596711 1_555
Na17 O54 2.618074 1_555
Na17 O50 2.679507 1_555
Na18 O57 2.435158 1_555
Na18 O58 2.469073 1_555
Na18 O59 2.473423 1_555
Na18 O53 2.579047 1_555
Na18 O52 2.685637 1_555
Na18 O51 2.794206 1_555
Na19 O66 2.555222 1_555
Na19 O61 2.589263 1_555
Na19 O62 2.619561 1_555
Na19 O60 2.697179 1_555
Na19 O67 2.733716 1_555
Na19 O68 2.745679 1_555
Na20 O70 2.469242 1_555
Na20 O71 2.479786 1_555
Na20 O69 2.506991 1_555
Na20 O63 2.868859 1_555
Na20 O65 2.883882 1_555
Na20 O64 2.927726 1_555
Ca0 O0 2.226980 1_555
Ca0 O2 2.247722 1_455
Ca0 O38 2.251245 1_555
Ca0 O37 2.273566 1_455
Ca0 O36 2.280715 1_445
Ca0 O1 2.317335 1_445
Ca1 O5 2.156694 1_555
Ca1 O4 2.223284 1_545
Ca1 O3 2.242679 1_655
Ca1 O39 2.286428 1_655
Ca1 O40 2.314103 1_655
Ca1 O41 2.332047 1_545
Ca2 O8 2.330081 1_655
Ca2 O6 2.352804 1_555
Ca2 O7 2.364152 1_665
Ca2 O44 2.466710 1_555
Ca2 O43 2.485115 1_665
Ca2 O42 2.512628 1_565
Ca3 O11 2.238736 1_555
Ca3 O45 2.314924 1_455
Ca3 O47 2.329521 1_565
Ca3 O10 2.338693 1_565
Ca3 O9 2.346295 1_455
Ca3 O46 2.358597 1_465
Ca4 O14 2.210480 1_555
Ca4 O12 2.227893 1_555
Ca4 O13 2.240330 1_555
Ca4 O48 2.253042 1_555
Ca4 O50 2.293796 1_555
Ca4 O49 2.298236 1_555
Ca5 O17 2.158183 1_555
Ca5 O16 2.161302 1_555
Ca5 O15 2.184555 1_555
Ca5 O53 2.308383 1_555
Ca5 O52 2.353965 1_555
Ca5 O51 2.359791 1_555
Ca6 O26 2.178603 1_554
Ca6 O25 2.179661 1_554
Ca6 O24 2.190716 1_554
Ca6 O62 2.275743 1_555
Ca6 O60 2.298087 1_555
Ca6 O61 2.334068 1_555
Ca7 O28 2.197015 1_555
Ca7 O29 2.215385 1_555
Ca7 O27 2.236318 1_555
Ca7 O65 2.277480 1_555
Ca7 O64 2.301567 1_555
Ca7 O63 2.357181 1_555
Ca8 O30 2.261819 1_555
Ca8 O31 2.304430 1_555
Ca8 O32 2.345474 1_555
Ca8 O66 2.367214 1_555
Ca8 O68 2.405354 1_555
Ca8 O67 2.443762 1_555
Ge0 O20 1.902604 1_556
Ge0 O19 1.946867 1_556
Ge0 O18 1.964792 1_556
Ge0 O55 2.004634 1_555
Ge0 O56 2.017280 1_555
Ge0 O54 2.077423 1_555
Ge1 O23 1.855873 1_555
Ge1 O59 1.864107 1_555
Ge1 O22 1.909076 1_555
Ge1 O57 1.917581 1_555
Ge1 O58 1.957422 1_555
Ge1 O21 2.266119 1_555
Ge2 O71 1.893491 1_555
Ge2 O70 1.910370 1_555
Ge2 O34 1.954219 1_555
Ge2 O69 1.964794 1_555
Ge2 O35 2.168045 1_555
Ge2 O33 2.212496 1_555
O0 P0 1.534548 1_545
O1 S0 1.465068 1_555
O2 S1 1.463097 1_655
O3 P1 1.512495 1_555
O4 P2 1.510522 1_655
O5 P3 1.505570 1_545
O6 P3 1.559323 1_555
O7 P1 1.553702 1_555
O8 P2 1.546263 1_555
O9 S0 1.483855 1_555
O10 S1 1.478016 1_555
O11 P0 1.545982 1_555
O12 P4 1.509130 1_555
O13 S2 1.442147 1_555
O14 P5 1.508961 1_555
O15 P6 1.523018 1_555
O16 P7 1.521335 1_555
O17 P8 1.521862 1_555
O18 P8 1.600212 1_555
O19 P6 1.599781 1_555
O20 P7 1.592537 1_555
O21 S2 1.505894 1_555
O22 P5 1.614824 1_555
O23 P4 1.605878 1_555
O24 P9 1.514034 1_555
O25 P10 1.520238 1_555
O26 P11 1.512677 1_555
O27 P12 1.527833 1_555
O28 P13 1.510309 1_555
O29 P14 1.518832 1_555
O30 P14 1.535307 1_555
O31 P12 1.553139 1_555
O32 P13 1.551480 1_555
O33 P10 1.592561 1_555
O34 P11 1.595030 1_555
O35 P9 1.590775 1_555
O36 P14 1.539852 1_655
O37 P12 1.522984 1_545
O38 P13 1.531307 1_555
O39 P10 1.516943 1_555
O40 P11 1.531910 1_545
O41 P9 1.524604 1_555
O42 P4 1.551455 1_555
O43 S2 1.498623 1_555
O44 P5 1.551438 1_555
O45 P6 1.550788 1_555
O46 P7 1.550364 1_555
O47 P8 1.550925 1_555
O48 P3 1.523474 1_545
O49 P1 1.531494 1_555
O50 P2 1.544688 1_655
O51 S0 1.487638 1_555
O52 S1 1.488683 1_655
O53 P0 1.558535 1_545
O54 P9 1.618542 1_555
O55 P10 1.608971 1_655
O56 P11 1.594510 1_545
O57 P12 1.594116 1_545
O58 P13 1.605608 1_555
O59 P14 1.592496 1_655
O60 P8 1.540716 1_555
O61 P6 1.541979 1_455
O62 P7 1.539296 1_565
O63 S2 1.488077 1_565
O64 P5 1.540325 1_555
O65 P4 1.543238 1_455
O66 P0 1.561254 1_555
O67 S0 1.492600 1_555
O68 S1 1.492142 1_555
O69 P1 1.617772 1_555
O70 P2 1.600572 1_555
O71 P3 1.607439 1_555
