# generated using pymatgen
data_YbMgTiO3
_symmetry_space_group_name_H-M   'P 1'
_cell_length_a   3.84075261
_cell_length_b   7.10592898
_cell_length_c   3.84075261
_cell_angle_alpha   90.00000000
_cell_angle_beta   90.00000000
_cell_angle_gamma   90.00000000
_symmetry_Int_Tables_number   1
_chemical_formula_structural   YbMgTiO3
_chemical_formula_sum   'Yb1 Mg1 Ti1 O3'
_cell_volume   104.82226281
_cell_formula_units_Z   1
loop_
 _symmetry_equiv_pos_site_id
 _symmetry_equiv_pos_as_xyz
  1  'x, y, z'
loop_
 _atom_site_type_symbol
 _atom_site_label
 _atom_site_symmetry_multiplicity
 _atom_site_fract_x
 _atom_site_fract_y
 _atom_site_fract_z
 _atom_site_occupancy
  Yb  Yb0  1  0.00000000  0.00000000  0.00000000  1
  Mg  Mg0  1  0.00000000  0.50000000  0.00000000  1
  Ti  Ti0  1  0.50000100  0.50000100  0.50000100  1
  O  O0  1  0.50000100  0.50000100  0.00000000  1
  O  O1  1  0.50000100  0.00000000  0.50000100  1
  O  O2  1  0.00000000  0.50000100  0.50000100  1
loop_
_geom_bond_atom_site_label_1
_geom_bond_atom_site_label_2
_geom_bond_distance
_geom_bond_site_symmetry_2
Mg0 O2 1.920372 1_554
Mg0 O0 1.920372 1_455
Mg0 O2 1.920380 1_555
Mg0 O0 1.920380 1_555
O0 Ti0 1.920372 1_554
O0 Ti0 1.920380 1_555
O1 Yb0 2.715817 1_656
O1 Yb0 2.715822 1_556
O1 Yb0 2.715822 1_655
O1 Yb0 2.715828 1_555
O2 Ti0 1.920372 1_455
O2 Ti0 1.920380 1_555
