# generated using pymatgen
data_HoGeIr
_symmetry_space_group_name_H-M   'P 1'
_cell_length_a   4.27355762
_cell_length_b   6.83114920
_cell_length_c   7.56356651
_cell_angle_alpha   90.00000000
_cell_angle_beta   90.00000000
_cell_angle_gamma   90.00000000
_symmetry_Int_Tables_number   1
_chemical_formula_structural   HoGeIr
_chemical_formula_sum   'Ho4 Ge4 Ir4'
_cell_volume   220.80553969
_cell_formula_units_Z   4
loop_
 _symmetry_equiv_pos_site_id
 _symmetry_equiv_pos_as_xyz
  1  'x, y, z'
loop_
 _atom_site_type_symbol
 _atom_site_label
 _atom_site_symmetry_multiplicity
 _atom_site_fract_x
 _atom_site_fract_y
 _atom_site_fract_z
 _atom_site_occupancy
  Ho  Ho0  1  0.75000000  0.49570092  0.19235134  1
  Ho  Ho1  1  0.25000000  0.00429908  0.69235134  1
  Ho  Ho2  1  0.75000000  0.99570092  0.30764866  1
  Ho  Ho3  1  0.25000000  0.50429908  0.80764866  1
  Ge  Ge0  1  0.25000000  0.79177285  0.11095953  1
  Ge  Ge1  1  0.25000000  0.29177285  0.38904047  1
  Ge  Ge2  1  0.75000000  0.20822715  0.88904047  1
  Ge  Ge3  1  0.75000000  0.70822715  0.61095953  1
  Ir  Ir0  1  0.25000000  0.65968802  0.43500050  1
  Ir  Ir1  1  0.25000000  0.15968702  0.06499950  1
  Ir  Ir2  1  0.75000000  0.84031198  0.93500050  1
  Ir  Ir3  1  0.75000000  0.34031298  0.56499950  1
loop_
_geom_bond_atom_site_label_1
_geom_bond_atom_site_label_2
_geom_bond_distance
_geom_bond_site_symmetry_2
Ho0 Ir3 3.011803 1_555
Ho0 Ir0 3.031339 1_555
Ho0 Ir0 3.031339 1_655
Ho0 Ir2 3.054597 1_554
Ho0 Ir1 3.280598 1_655
Ho0 Ir1 3.280598 1_555
Ho1 Ir1 3.011803 1_556
Ho1 Ir2 3.031339 1_445
Ho1 Ir2 3.031339 1_545
Ho1 Ir0 3.054597 1_545
Ho1 Ir3 3.280598 1_455
Ho1 Ir3 3.280598 1_555
Ho2 Ir2 3.011805 1_554
Ho2 Ir1 3.031337 1_665
Ho2 Ir1 3.031337 1_565
Ho2 Ir3 3.054602 1_565
Ho2 Ir0 3.280594 1_555
Ho2 Ir0 3.280594 1_655
Ho3 Ir0 3.011805 1_555
Ho3 Ir3 3.031337 1_555
Ho3 Ir3 3.031337 1_455
Ho3 Ir1 3.054602 1_556
Ho3 Ir2 3.280594 1_555
Ho3 Ir2 3.280594 1_455
Ge0 Ir1 2.537203 1_565
Ge0 Ir2 2.539095 1_454
Ge0 Ir2 2.539095 1_554
Ge0 Ir0 2.611717 1_555
Ge0 Ho2 2.952899 1_555
Ge0 Ho2 2.952899 1_455
Ge0 Ho0 3.005887 1_555
Ge0 Ho0 3.005887 1_455
Ge0 Ho3 3.019829 1_554
Ge1 Ir0 2.537210 1_555
Ge1 Ir3 2.539096 1_555
Ge1 Ir3 2.539096 1_455
Ge1 Ir1 2.611720 1_555
Ge1 Ho0 2.952899 1_455
Ge1 Ho0 2.952899 1_555
Ge1 Ho2 3.005887 1_445
Ge1 Ho2 3.005887 1_545
Ge1 Ho1 3.019829 1_555
Ge2 Ir2 2.537210 1_545
Ge2 Ir1 2.539096 1_656
Ge2 Ir1 2.539096 1_556
Ge2 Ir3 2.611720 1_555
Ge2 Ho1 2.952899 1_555
Ge2 Ho1 2.952899 1_655
Ge2 Ho3 3.005887 1_655
Ge2 Ho3 3.005887 1_555
Ge2 Ho0 3.019829 1_556
Ge3 Ir3 2.537203 1_555
Ge3 Ir0 2.539095 1_555
Ge3 Ir0 2.539095 1_655
Ge3 Ir2 2.611717 1_555
Ge3 Ho3 2.952899 1_655
Ge3 Ho3 2.952899 1_555
Ge3 Ho1 3.005887 1_565
Ge3 Ho1 3.005887 1_665
Ge3 Ho2 3.019829 1_555
