# generated using pymatgen
data_KVBP2HO9
_symmetry_space_group_name_H-M   'P 1'
_cell_length_a   5.24627341
_cell_length_b   12.12852198
_cell_length_c   11.51195566
_cell_angle_alpha   88.19170448
_cell_angle_beta   85.50203262
_cell_angle_gamma   80.75811830
_symmetry_Int_Tables_number   1
_chemical_formula_structural   KVBP2HO9
_chemical_formula_sum   'K4 V4 B4 P8 H4 O36'
_cell_volume   720.63142613
_cell_formula_units_Z   4
loop_
 _symmetry_equiv_pos_site_id
 _symmetry_equiv_pos_as_xyz
  1  'x, y, z'
loop_
 _atom_site_type_symbol
 _atom_site_label
 _atom_site_symmetry_multiplicity
 _atom_site_fract_x
 _atom_site_fract_y
 _atom_site_fract_z
 _atom_site_occupancy
  K  K0  1  0.27822700  0.78152400  0.10690300  1
  K  K1  1  0.27890500  0.28125400  0.60691700  1
  K  K2  1  0.72095400  0.21871000  0.89327300  1
  K  K3  1  0.72168100  0.71853800  0.39329900  1
  V  V0  1  0.26736800  0.00078300  0.80484500  1
  V  V1  1  0.73271900  0.49924900  0.69506700  1
  V  V2  1  0.26644500  0.50039500  0.30485400  1
  V  V3  1  0.73345400  0.99956800  0.19509100  1
  B  B0  1  0.87486600  0.64395800  0.91107100  1
  B  B1  1  0.87602200  0.14325900  0.41087800  1
  B  B2  1  0.12386000  0.35663100  0.08902100  1
  B  B3  1  0.12520700  0.85609000  0.58908100  1
  P  P0  1  0.78347700  0.87478300  0.93869900  1
  P  P1  1  0.78288600  0.37400200  0.43863200  1
  P  P2  1  0.21718900  0.12591900  0.06124400  1
  P  P3  1  0.21648200  0.62530300  0.56134800  1
  P  P4  1  0.19726200  0.44280000  0.86075600  1
  P  P5  1  0.19866800  0.94220500  0.36067100  1
  P  P6  1  0.80127800  0.55770800  0.13945400  1
  P  P7  1  0.80273800  0.05727700  0.63920100  1
  H  H0  1  0.52958000  0.66493800  0.83147200  1
  H  H1  1  0.53114700  0.16497100  0.33067500  1
  H  H2  1  0.46902500  0.33500800  0.16875700  1
  H  H3  1  0.47058600  0.83516500  0.66864200  1
  O  O0  1  0.44606600  0.42573600  0.78099600  1
  O  O1  1  0.44763600  0.92544900  0.28096800  1
  O  O2  1  0.55228100  0.57449100  0.21911000  1
  O  O3  1  0.55392800  0.07436300  0.71896600  1
  O  O4  1  0.70554400  0.62465500  0.81895800  1
  O  O5  1  0.70626700  0.12366200  0.31896300  1
  O  O6  1  0.29370600  0.37601200  0.18094900  1
  O  O7  1  0.29460300  0.87542500  0.68116900  1
  O  O8  1  0.94172100  0.75669300  0.90520200  1
  O  O9  1  0.94166800  0.25609600  0.40447100  1
  O  O10  1  0.05794300  0.24380800  0.09516100  1
  O  O11  1  0.05837200  0.74335700  0.59510300  1
  O  O12  1  0.75789600  0.87841800  0.07335600  1
  O  O13  1  0.75780200  0.37732100  0.57331300  1
  O  O14  1  0.24161400  0.12253500  0.92656100  1
  O  O15  1  0.24232000  0.62178900  0.42670700  1
  O  O16  1  0.02521000  0.60024400  0.19399300  1
  O  O17  1  0.02697700  0.09990100  0.69344400  1
  O  O18  1  0.97305400  0.40020500  0.80643400  1
  O  O19  1  0.97456300  0.89970500  0.30626100  1
  O  O20  1  0.26768400  0.37397200  0.97436300  1
  O  O21  1  0.26918600  0.87336600  0.47434400  1
  O  O22  1  0.73096300  0.62664500  0.02581600  1
  O  O23  1  0.73215300  0.12606000  0.52555400  1
  O  O24  1  0.51185100  0.88692100  0.89214800  1
  O  O25  1  0.51107000  0.38599800  0.39222200  1
  O  O26  1  0.48937100  0.11422000  0.10729000  1
  O  O27  1  0.48798500  0.61306200  0.60807500  1
  O  O28  1  0.12335300  0.56892300  0.89397300  1
  O  O29  1  0.12449800  0.06835500  0.39397200  1
  O  O30  1  0.87542800  0.43159600  0.10612100  1
  O  O31  1  0.87669000  0.93113300  0.60608800  1
  O  O32  1  0.05763200  0.53905600  0.61514100  1
  O  O33  1  0.05963900  0.03940700  0.11569900  1
  O  O34  1  0.94111300  0.46040200  0.38454300  1
  O  O35  1  0.94218700  0.96098500  0.88471100  1
loop_
_geom_bond_atom_site_label_1
_geom_bond_atom_site_label_2
_geom_bond_distance
_geom_bond_site_symmetry_2
K0 O12 2.843989 1_455
K0 O16 2.861961 1_555
K0 O22 2.893306 1_555
K0 O12 2.937971 1_555
K0 O19 2.959765 1_455
K0 O1 2.975023 1_555
K0 O2 2.994631 1_555
K0 O24 3.012783 1_554
K0 O8 3.075185 1_454
K0 O33 3.155593 1_565
K1 O13 2.845249 1_455
K1 O17 2.857631 1_555
K1 O23 2.898065 1_555
K1 O13 2.928975 1_555
K1 O18 2.969679 1_455
K1 O0 2.974339 1_555
K1 O3 2.994472 1_555
K1 O25 3.005447 1_555
K1 O9 3.085413 1_455
K1 O32 3.157329 1_555
K2 O14 2.842753 1_655
K2 O18 2.860606 1_555
K2 O20 2.897704 1_555
K2 O14 2.931602 1_555
K2 O17 2.971995 1_655
K2 O3 2.974828 1_555
K2 O0 2.996587 1_555
K2 O26 2.996710 1_556
K2 O10 3.079253 1_656
K2 O35 3.156543 1_545
K3 O15 2.844687 1_655
K3 O19 2.860252 1_555
K3 O21 2.891970 1_555
K3 O15 2.935479 1_555
K3 O16 2.959613 1_655
K3 O2 2.976994 1_555
K3 O1 2.994139 1_555
K3 O27 3.013570 1_555
K3 O11 3.076737 1_655
K3 O34 3.159338 1_555
B0 O8 1.463424 1_555
B0 O28 1.468467 1_655
B0 O4 1.482757 1_555
B0 O22 1.495302 1_556
B1 O9 1.462192 1_555
B1 O29 1.467474 1_655
B1 O5 1.483549 1_555
B1 O23 1.494286 1_555
B2 O10 1.462566 1_555
B2 O30 1.467836 1_455
B2 O6 1.483260 1_555
B2 O20 1.494337 1_554
B3 O11 1.463357 1_555
B3 O31 1.468549 1_455
B3 O7 1.482908 1_555
B3 O21 1.495320 1_555
H0 O4 0.974876 1_555
H1 O5 0.974803 1_555
H2 O6 0.974800 1_555
H3 O7 0.974876 1_555
O0 P4 1.525432 1_555
O0 V1 2.043718 1_555
O1 P5 1.525696 1_555
O1 V3 2.044085 1_555
O2 P6 1.525529 1_555
O2 V2 2.043376 1_555
O3 P7 1.525492 1_555
O3 V0 2.043544 1_555
O4 V1 2.098385 1_555
O5 V3 2.086552 1_545
O6 V2 2.089345 1_555
O7 V0 2.096200 1_565
O8 P0 1.578605 1_555
O9 P1 1.579563 1_555
O10 P2 1.579616 1_555
O11 P3 1.578680 1_555
O12 P0 1.546852 1_554
O12 V3 2.044673 1_555
O13 P1 1.546946 1_555
O13 V1 2.051370 1_555
O14 P2 1.547000 1_556
O14 V0 2.049134 1_555
O15 P3 1.546607 1_555
O15 V2 2.047967 1_555
O16 P6 1.539913 1_455
O16 V2 2.088189 1_555
O17 P7 1.540158 1_455
O17 V0 2.085606 1_555
O18 P4 1.540287 1_655
O18 V1 2.084777 1_555
O19 P5 1.539769 1_655
O19 V3 2.090177 1_555
O20 P4 1.565765 1_555
O21 P5 1.566572 1_555
O22 P6 1.566563 1_555
O23 P7 1.566079 1_555
O24 P0 1.544980 1_555
O24 V0 2.026810 1_565
O25 P1 1.545348 1_555
O25 V2 2.031286 1_555
O26 P2 1.545648 1_555
O26 V3 2.034058 1_545
O27 P3 1.545142 1_555
O27 V1 2.025342 1_555
O28 P4 1.568328 1_555
O29 P5 1.568982 1_545
O30 P6 1.568634 1_555
O31 P7 1.568279 1_565
O32 P3 1.526562 1_555
O32 V1 1.993890 1_455
O33 P2 1.527386 1_555
O33 V3 1.997397 1_445
O34 P1 1.527104 1_555
O34 V2 1.995548 1_655
O35 P0 1.526457 1_555
O35 V0 1.994790 1_665
