# generated using pymatgen
data_MgAlCrO4
_symmetry_space_group_name_H-M   'P 1'
_cell_length_a   5.10731515
_cell_length_b   5.95725362
_cell_length_c   5.17567672
_cell_angle_alpha   103.52530315
_cell_angle_beta   74.80882583
_cell_angle_gamma   150.48540446
_symmetry_Int_Tables_number   1
_chemical_formula_structural   MgAlCrO4
_chemical_formula_sum   'Mg1 Al1 Cr1 O4'
_cell_volume   74.86181384
_cell_formula_units_Z   1
loop_
 _symmetry_equiv_pos_site_id
 _symmetry_equiv_pos_as_xyz
  1  'x, y, z'
loop_
 _atom_site_type_symbol
 _atom_site_label
 _atom_site_symmetry_multiplicity
 _atom_site_fract_x
 _atom_site_fract_y
 _atom_site_fract_z
 _atom_site_occupancy
  Mg  Mg0  1  0.80216680  0.01168131  0.80100922  1
  Al  Al0  1  0.46130044  0.98942300  0.46918506  1
  Cr  Cr0  1  0.61200990  0.51991432  0.08142394  1
  O  O0  1  0.18786568  0.99645918  0.80109367  1
  O  O1  1  0.14272437  0.50115328  0.64349592  1
  O  O2  1  0.81310880  0.00275235  0.19304031  1
  O  O3  1  0.79811601  0.47451856  0.32149089  1
loop_
_geom_bond_atom_site_label_1
_geom_bond_atom_site_label_2
_geom_bond_distance
_geom_bond_site_symmetry_2
Mg0 O1 1.925887 1_545
Mg0 O1 1.932366 1_655
Mg0 O0 2.049402 1_645
Mg0 O2 2.058636 1_556
Al0 O3 1.893851 1_565
Al0 O3 1.908716 1_455
Al0 O0 1.927163 1_555
Al0 O2 1.932976 1_565
Al0 O1 2.028049 1_665
Al0 O1 2.035466 1_555
Cr0 O3 1.934920 1_555
Cr0 O0 1.993196 1_654
Cr0 O2 2.013491 1_565
Cr0 O2 2.047495 1_455
Cr0 O0 2.072616 1_544
