# generated using pymatgen
data_Na8NbGa3Si5SO24
_symmetry_space_group_name_H-M   'P 1'
_cell_length_a   9.03031055
_cell_length_b   9.02807378
_cell_length_c   22.05644590
_cell_angle_alpha   89.68960131
_cell_angle_beta   90.00738759
_cell_angle_gamma   120.07323955
_symmetry_Int_Tables_number   1
_chemical_formula_structural   Na8NbGa3Si5SO24
_chemical_formula_sum   'Na24 Nb3 Ga9 Si15 S3 O72'
_cell_volume   1556.08978196
_cell_formula_units_Z   3
loop_
 _symmetry_equiv_pos_site_id
 _symmetry_equiv_pos_as_xyz
  1  'x, y, z'
loop_
 _atom_site_type_symbol
 _atom_site_label
 _atom_site_symmetry_multiplicity
 _atom_site_fract_x
 _atom_site_fract_y
 _atom_site_fract_z
 _atom_site_occupancy
  Na  Na0  1  0.62220935  0.99873982  0.25113529  1
  Na  Na1  1  0.36747153  0.36235622  0.25301265  1
  Na  Na2  1  0.00733603  0.63825832  0.24954504  1
  Na  Na3  1  0.63665645  0.62232634  0.74669800  1
  Na  Na4  1  0.99555798  0.36511780  0.74189407  1
  Na  Na5  1  0.36152542  0.00662353  0.74465524  1
  Na  Na6  1  0.29757837  0.33817113  0.58245183  1
  Na  Na7  1  0.03951103  0.70300892  0.58276090  1
  Na  Na8  1  0.66426665  0.96151309  0.58032537  1
  Na  Na9  1  0.29816958  0.95862015  0.08352707  1
  Na  Na10  1  0.66177581  0.70139195  0.08163704  1
  Na  Na11  1  0.03903637  0.33695008  0.08194388  1
  Na  Na12  1  0.96913217  0.67447731  0.91529902  1
  Na  Na13  1  0.70284930  0.02781717  0.91763440  1
  Na  Na14  1  0.32530971  0.29520771  0.91466469  1
  Na  Na15  1  0.97291160  0.30108092  0.41865306  1
  Na  Na16  1  0.33012673  0.02923314  0.41686357  1
  Na  Na17  1  0.69986749  0.67302134  0.41858354  1
  Na  Na18  1  0.00018936  0.00080924  0.50166721  1
  Na  Na19  1  0.99951249  0.99886048  0.99966831  1
  Na  Na20  1  0.66502525  0.33927647  0.82971367  1
  Na  Na21  1  0.66009252  0.32773916  0.33420923  1
  Na  Na22  1  0.33231247  0.67228070  0.16346858  1
  Na  Na23  1  0.32876223  0.66263629  0.65816425  1
  Nb  Nb0  1  0.66633773  0.33282250  0.98173320  1
  Nb  Nb1  1  0.66751732  0.33461125  0.48136903  1
  Nb  Nb2  1  0.32295559  0.65769766  0.81447564  1
  Ga  Ga0  1  0.01833894  0.00577355  0.35850078  1
  Ga  Ga1  1  0.01326662  0.99483348  0.85359205  1
  Ga  Ga2  1  0.01878799  0.00568842  0.64285394  1
  Ga  Ga3  1  0.01150860  0.99397444  0.14216361  1
  Ga  Ga4  1  0.66454603  0.34502076  0.67898966  1
  Ga  Ga5  1  0.64871446  0.31828959  0.17624096  1
  Ga  Ga6  1  0.33420926  0.66661923  0.01933115  1
  Ga  Ga7  1  0.33452381  0.66718074  0.51789693  1
  Ga  Ga8  1  0.33072188  0.68199220  0.32598070  1
  Si  Si0  1  0.29255291  0.99957875  0.24975475  1
  Si  Si1  1  0.28992247  0.28418430  0.74906434  1
  Si  Si2  1  0.99433060  0.71003264  0.74910950  1
  Si  Si3  1  0.96025310  0.33245808  0.58713989  1
  Si  Si4  1  0.37682177  0.03883647  0.58653761  1
  Si  Si5  1  0.66604888  0.63256660  0.58520963  1
  Si  Si6  1  0.95811185  0.62245253  0.08777226  1
  Si  Si7  1  0.66826029  0.03514822  0.08640080  1
  Si  Si8  1  0.37141931  0.33726187  0.08547121  1
  Si  Si9  1  0.62804285  0.67306451  0.91797488  1
  Si  Si10  1  0.04025868  0.36786301  0.91986879  1
  Si  Si11  1  0.33187413  0.95458352  0.91868181  1
  Si  Si12  1  0.62914859  0.95646450  0.41551713  1
  Si  Si13  1  0.33213093  0.38359730  0.41498304  1
  Si  Si14  1  0.04510399  0.66767035  0.41665730  1
  S  S0  1  0.70938125  0.70915744  0.24950240  1
  S  S1  1  0.99977078  0.29053798  0.24941846  1
  S  S2  1  0.71081727  -0.00071697  0.75045122  1
  O  O0  1  0.20508097  0.03801937  0.30852379  1
  O  O1  1  0.81520779  0.79054372  0.30426909  1
  O  O2  1  0.96963223  0.18176872  0.30433057  1
  O  O3  1  0.20509780  0.17318196  0.81092353  1
  O  O4  1  0.96029212  0.78998089  0.81038014  1
  O  O5  1  0.81363659  0.02497643  0.80612177  1
  O  O6  1  0.78471131  0.96870433  0.69651425  1
  O  O7  1  0.16329381  0.20913015  0.69101204  1
  O  O8  1  0.03969199  0.83527622  0.69066103  1
  O  O9  1  0.78887883  0.81853694  0.19437891  1
  O  O10  1  0.02373304  0.20853277  0.19445254  1
  O  O11  1  0.16788852  0.96168583  0.19026572  1
  O  O12  1  0.87084402  0.36757497  0.64554593  1
  O  O13  1  0.49997065  0.12653989  0.64526767  1
  O  O14  1  0.62434046  0.50948576  0.64444290  1
  O  O15  1  0.86572143  0.49661337  0.14599062  1
  O  O16  1  0.62826278  0.11946406  0.14441206  1
  O  O17  1  0.49538312  0.37802112  0.14387188  1
  O  O18  1  0.46567087  0.29903113  0.02638682  1
  O  O19  1  0.83193159  0.52994633  0.02689801  1
  O  O20  1  0.70395037  0.16578784  0.02628416  1
  O  O21  1  0.47003849  0.16672518  0.52625117  1
  O  O22  1  0.70120038  0.53660366  0.52611830  1
  O  O23  1  0.83382030  0.30127344  0.52660998  1
  O  O24  1  0.54163239  0.70553143  0.97650340  1
  O  O25  1  0.16411120  0.45643643  0.97671095  1
  O  O26  1  0.29622151  0.83309614  0.97696756  1
  O  O27  1  0.54673090  0.83664099  0.47484240  1
  O  O28  1  0.29570207  0.46311366  0.47487814  1
  O  O29  1  0.16691388  0.70734666  0.47512085  1
  O  O30  1  0.11418055  0.61927505  0.35528534  1
  O  O31  1  0.51001342  0.88534734  0.35471135  1
  O  O32  1  0.37213226  0.50341784  0.35352455  1
  O  O33  1  0.12881640  0.49724725  0.85927261  1
  O  O34  1  0.36930936  0.86773670  0.85815924  1
  O  O35  1  0.50040277  0.63426104  0.85810093  1
  O  O36  1  0.01676841  0.83304910  0.41025680  1
  O  O37  1  0.82122457  0.98153410  0.40588214  1
  O  O38  1  0.16364000  0.19011680  0.41090945  1
  O  O39  1  0.01494308  0.17984002  0.90881278  1
  O  O40  1  0.16543730  0.97810443  0.91304259  1
  O  O41  1  0.81641174  0.84079100  0.90960357  1
  O  O42  1  0.96855244  0.15570697  0.58934826  1
  O  O43  1  0.19193032  0.03063418  0.58587089  1
  O  O44  1  0.84063028  0.81822499  0.58978563  1
  O  O45  1  0.96697027  0.80818455  0.08784255  1
  O  O46  1  0.84358919  0.02474115  0.09205234  1
  O  O47  1  0.18529374  0.16210800  0.08814000  1
  O  O48  1  0.68795751  0.15155277  0.74701000  1
  O  O49  1  0.48226817  0.30687317  0.74537265  1
  O  O50  1  0.83143464  0.51322639  0.74573400  1
  O  O51  1  0.69603323  0.53766834  0.24568107  1
  O  O52  1  0.84620450  0.31158774  0.24585908  1
  O  O53  1  0.48687176  0.17608809  0.24443276  1
  O  O54  1  0.64156470  0.49616433  0.92173433  1
  O  O55  1  0.85330364  0.35949952  0.92144869  1
  O  O56  1  0.50682453  0.14579259  0.92162158  1
  O  O57  1  0.64677434  0.14905570  0.42212849  1
  O  O58  1  0.50398221  0.35981099  0.42078408  1
  O  O59  1  0.85147623  0.49518771  0.42193411  1
  O  O60  1  0.35582256  0.50720452  0.07796759  1
  O  O61  1  0.14482321  0.64037141  0.07970307  1
  O  O62  1  0.49654587  0.85083808  0.07820073  1
  O  O63  1  0.35907937  0.85213429  0.57884349  1
  O  O64  1  0.49394401  0.64503986  0.57751810  1
  O  O65  1  0.14613920  0.50377464  0.57890591  1
  O  O66  1  0.31133781  0.82470754  0.25526935  1
  O  O67  1  0.53535545  0.68770451  0.25281640  1
  O  O68  1  0.15725516  0.46172774  0.25297354  1
  O  O69  1  0.31443196  0.48327762  0.75611314  1
  O  O70  1  0.17386360  0.69430455  0.75611919  1
  O  O71  1  0.53400505  0.84175580  0.75547284  1
loop_
_geom_bond_atom_site_label_1
_geom_bond_atom_site_label_2
_geom_bond_distance
_geom_bond_site_symmetry_2
Na0 O66 2.436328 1_555
Na0 O53 2.457143 1_565
Na0 O31 2.495856 1_555
Na0 O67 2.508640 1_555
Na0 O52 2.520544 1_565
Na0 O16 2.577678 1_565
Na1 O53 2.418055 1_555
Na1 O68 2.472907 1_555
Na1 O67 2.542230 1_555
Na1 O32 2.552501 1_555
Na1 O51 2.573972 1_555
Na1 O17 2.642426 1_555
Na1 O0 2.807439 1_555
Na2 O66 2.399303 1_555
Na2 O51 2.485319 1_455
Na2 O52 2.554099 1_455
Na2 O68 2.557260 1_555
Na2 O30 2.561350 1_555
Na2 O15 2.622872 1_455
Na2 O11 2.837934 1_555
Na2 O1 2.960804 1_455
Na3 O50 2.408503 1_555
Na3 O14 2.459313 1_555
Na3 O49 2.465136 1_555
Na3 O69 2.534233 1_555
Na3 O71 2.581826 1_555
Na3 O35 2.774823 1_555
Na3 O4 2.897192 1_555
Na3 O6 2.926487 1_555
Na4 O12 2.410141 1_555
Na4 O50 2.445214 1_555
Na4 O48 2.464992 1_555
Na4 O69 2.540249 1_655
Na4 O70 2.595668 1_655
Na4 O7 2.773528 1_655
Na4 O33 2.857925 1_655
Na5 O49 2.361189 1_555
Na5 O70 2.467720 1_545
Na5 O13 2.481740 1_555
Na5 O48 2.557206 1_555
Na5 O71 2.649116 1_545
Na5 O8 2.787643 1_545
Na5 O34 2.810502 1_545
Na5 O3 2.923370 1_555
Na6 O64 2.429978 1_555
Na6 O43 2.442883 1_555
Na6 O65 2.481809 1_555
Na6 O42 2.580097 1_455
Na6 O28 2.625351 1_555
Na6 O7 2.667541 1_555
Na6 O14 2.901141 1_555
Na6 O21 2.965619 1_555
Na7 O65 2.430465 1_555
Na7 O44 2.491084 1_455
Na7 O63 2.500577 1_555
Na7 O43 2.563187 1_565
Na7 O29 2.629889 1_555
Na7 O8 2.668080 1_555
Na7 O22 2.927570 1_455
Na7 O12 2.956475 1_455
Na8 O42 2.416451 1_565
Na8 O63 2.417486 1_555
Na8 O64 2.475973 1_555
Na8 O44 2.513006 1_555
Na8 O27 2.576628 1_555
Na8 O6 2.772187 1_555
Na8 O23 2.900174 1_565
Na8 O13 2.951557 1_565
Na9 O62 2.432708 1_555
Na9 O61 2.488962 1_555
Na9 O47 2.510586 1_565
Na9 O45 2.593530 1_455
Na9 O26 2.611022 1_554
Na9 O11 2.638472 1_555
Na9 O16 2.911950 1_565
Na9 O18 2.936132 1_565
Na10 O60 2.420846 1_555
Na10 O45 2.425310 1_555
Na10 O62 2.463505 1_555
Na10 O46 2.544391 1_565
Na10 O24 2.568015 1_554
Na10 O9 2.725930 1_555
Na10 O17 2.868053 1_555
Na10 O19 2.935775 1_555
Na11 O61 2.407231 1_555
Na11 O46 2.473264 1_455
Na11 O60 2.479025 1_555
Na11 O47 2.518272 1_555
Na11 O25 2.564986 1_554
Na11 O10 2.707325 1_555
Na11 O20 2.895621 1_455
Na11 O15 2.967570 1_455
Na12 O40 2.405715 1_655
Na12 O55 2.492723 1_555
Na12 O41 2.499087 1_555
Na12 O4 2.550729 1_555
Na12 O54 2.566483 1_555
Na12 O19 2.764464 1_556
Na12 O26 2.899340 1_655
Na12 O33 2.915617 1_655
Na13 O41 2.381741 1_545
Na13 O39 2.446430 1_655
Na13 O56 2.483193 1_555
Na13 O55 2.597121 1_555
Na13 O5 2.660465 1_555
Na13 O20 2.704520 1_556
Na13 O24 2.825870 1_545
Na13 O34 2.922054 1_545
Na14 O39 2.456094 1_555
Na14 O40 2.477950 1_545
Na14 O54 2.506407 1_555
Na14 O3 2.540841 1_555
Na14 O56 2.596842 1_555
Na14 O18 2.763381 1_556
Na14 O25 2.873360 1_555
Na14 O35 2.921432 1_555
Na15 O38 2.393820 1_655
Na15 O59 2.491194 1_555
Na15 O37 2.515261 1_545
Na15 O57 2.551698 1_555
Na15 O23 2.692674 1_555
Na15 O2 2.741677 1_555
Na15 O28 2.814196 1_655
Na15 O30 2.849095 1_655
Na16 O36 2.478968 1_545
Na16 O57 2.502243 1_555
Na16 O38 2.563904 1_555
Na16 O58 2.585780 1_555
Na16 O0 2.660555 1_555
Na16 O21 2.723621 1_555
Na16 O29 2.817050 1_545
Na16 O31 2.887933 1_545
Na17 O37 2.443303 1_555
Na17 O58 2.472397 1_555
Na17 O36 2.482758 1_655
Na17 O59 2.580511 1_555
Na17 O22 2.669411 1_555
Na17 O1 2.726175 1_555
Na17 O27 2.775191 1_555
Na17 O32 2.940012 1_555
Na18 O43 2.461134 1_555
Na18 O44 2.481213 1_445
Na18 O42 2.491418 1_455
Na18 O38 2.557779 1_555
Na18 O36 2.577152 1_545
Na18 O37 2.612804 1_445
Na19 O40 2.493349 1_655
Na19 O45 2.507762 1_556
Na19 O47 2.519287 1_666
Na19 O41 2.526203 1_555
Na19 O39 2.537966 1_665
Na19 O46 2.554378 1_566
Na20 O50 2.399893 1_555
Na20 O49 2.406464 1_555
Na20 O54 2.550005 1_555
Na20 O48 2.574496 1_555
Na20 O56 2.581268 1_555
Na20 O55 2.590368 1_555
Na21 O53 2.474778 1_555
Na21 O58 2.476540 1_555
Na21 O57 2.479706 1_555
Na21 O59 2.535435 1_555
Na21 O51 2.617944 1_555
Na21 O52 2.625408 1_555
Na22 O61 2.424702 1_555
Na22 O62 2.430438 1_555
Na22 O60 2.483990 1_555
Na22 O66 2.514141 1_555
Na22 O68 2.637843 1_555
Na22 O67 2.647841 1_555
Na23 O65 2.342789 1_555
Na23 O63 2.358167 1_555
Na23 O64 2.378126 1_555
Na23 O69 2.656740 1_555
Na23 O70 2.667308 1_555
Na23 O71 2.772988 1_555
Nb0 O19 1.935805 1_556
Nb0 O18 1.946770 1_556
Nb0 O20 1.962701 1_556
Nb0 O55 2.065465 1_555
Nb0 O56 2.066404 1_555
Nb0 O54 2.070112 1_555
Nb1 O21 1.932028 1_555
Nb1 O23 1.947039 1_555
Nb1 O22 1.963606 1_555
Nb1 O59 2.036207 1_555
Nb1 O57 2.063462 1_555
Nb1 O58 2.085953 1_555
Nb2 O33 1.894169 1_555
Nb2 O35 1.968635 1_555
Nb2 O34 1.980783 1_555
Nb2 O70 2.004863 1_555
Nb2 O69 2.010736 1_555
Nb2 O71 2.211414 1_555
Ga0 O0 1.910125 1_555
Ga0 O38 1.912996 1_555
Ga0 O36 1.921856 1_545
Ga0 O37 1.978907 1_445
Ga0 O2 2.196657 1_455
Ga0 O1 2.241356 1_445
Ga1 O3 1.915122 1_565
Ga1 O4 1.920916 1_455
Ga1 O40 1.958547 1_555
Ga1 O41 2.030928 1_455
Ga1 O39 2.066428 1_565
Ga1 O5 2.215449 1_465
Ga2 O43 1.928609 1_555
Ga2 O8 1.946255 1_545
Ga2 O7 1.955314 1_555
Ga2 O42 2.007781 1_455
Ga2 O44 2.028504 1_445
Ga2 O6 2.295517 1_445
Ga3 O11 1.900955 1_555
Ga3 O45 1.938102 1_455
Ga3 O47 1.944278 1_565
Ga3 O46 2.004125 1_465
Ga3 O9 2.160169 1_455
Ga3 O10 2.214572 1_565
Ga4 O14 1.856076 1_555
Ga4 O12 1.916943 1_555
Ga4 O13 1.931381 1_555
Ga4 O49 2.097338 1_555
Ga4 O50 2.115301 1_555
Ga4 O48 2.384937 1_555
Ga5 O16 1.852134 1_555
Ga5 O17 1.860544 1_555
Ga5 O15 1.924594 1_555
Ga5 O53 2.036064 1_555
Ga5 O51 2.373934 1_555
Ga5 O52 2.376645 1_555
Ga6 O26 1.936773 1_554
Ga6 O24 1.965096 1_554
Ga6 O25 1.985344 1_554
Ga6 O60 2.010809 1_555
Ga6 O62 2.044617 1_555
Ga6 O61 2.084497 1_555
Ga7 O28 1.946521 1_555
Ga7 O29 1.964319 1_555
Ga7 O27 1.990246 1_555
Ga7 O64 2.031456 1_555
Ga7 O63 2.073047 1_555
Ga7 O65 2.084457 1_555
Ga8 O31 1.851160 1_555
Ga8 O30 1.857099 1_555
Ga8 O32 1.923951 1_555
Ga8 O66 2.080241 1_555
Ga8 O68 2.431732 1_555
Ga8 O67 2.434325 1_555
O0 Si0 1.644531 1_545
O1 S0 1.489259 1_555
O2 S1 1.491518 1_555
O3 Si1 1.633622 1_555
O4 Si2 1.635478 1_555
O5 S2 1.486797 1_555
O6 S2 1.457791 1_565
O7 Si1 1.624406 1_555
O8 Si2 1.621232 1_455
O9 S0 1.498490 1_555
O10 S1 1.495021 1_455
O11 Si0 1.650613 1_555
O12 Si3 1.634981 1_555
O13 Si4 1.633984 1_555
O14 Si5 1.627396 1_555
O15 Si6 1.634068 1_555
O16 Si7 1.622744 1_555
O17 Si8 1.624713 1_555
O18 Si8 1.685651 1_555
O19 Si6 1.690153 1_555
O20 Si7 1.689759 1_555
O21 Si4 1.679099 1_555
O22 Si5 1.684638 1_555
O23 Si3 1.687234 1_555
O24 Si9 1.610867 1_555
O25 Si10 1.605099 1_555
O26 Si11 1.609427 1_555
O27 Si12 1.616897 1_555
O28 Si13 1.617365 1_555
O29 Si14 1.615805 1_555
O30 Si14 1.640772 1_555
O31 Si12 1.638608 1_555
O32 Si13 1.652518 1_555
O33 Si10 1.684475 1_555
O34 Si11 1.669765 1_555
O35 Si9 1.671890 1_555
O36 Si14 1.641706 1_555
O37 Si12 1.646521 1_555
O38 Si13 1.646912 1_555
O39 Si10 1.615159 1_555
O40 Si11 1.624508 1_555
O41 Si9 1.623610 1_555
O42 Si3 1.635033 1_555
O43 Si4 1.633845 1_555
O44 Si5 1.630498 1_555
O45 Si6 1.638189 1_555
O46 Si7 1.637081 1_555
O47 Si8 1.632269 1_555
O48 S2 1.490455 1_555
O49 Si1 1.645853 1_555
O50 Si2 1.645695 1_555
O51 S0 1.494319 1_555
O52 S1 1.493080 1_555
O53 Si0 1.681632 1_545
O54 Si9 1.663255 1_555
O55 Si10 1.652082 1_655
O56 Si11 1.657713 1_545
O57 Si12 1.671871 1_545
O58 Si13 1.674644 1_555
O59 Si14 1.662825 1_655
O60 Si8 1.617089 1_555
O61 Si6 1.620819 1_455
O62 Si7 1.619641 1_565
O63 Si4 1.621117 1_565
O64 Si5 1.622344 1_555
O65 Si3 1.624167 1_455
O66 Si0 1.674018 1_555
O67 S0 1.485707 1_555
O68 S1 1.488529 1_455
O69 Si1 1.705352 1_555
O70 Si2 1.703788 1_455
O71 S2 1.518803 1_565
