# generated using pymatgen
data_InCuSe2
_symmetry_space_group_name_H-M   'P 1'
_cell_length_a   5.80599578
_cell_length_b   5.80599565
_cell_length_c   7.12968660
_cell_angle_alpha   114.02720886
_cell_angle_beta   114.02720473
_cell_angle_gamma   90.00000418
_symmetry_Int_Tables_number   1
_chemical_formula_structural   InCuSe2
_chemical_formula_sum   'In2 Cu2 Se4'
_cell_volume   196.49434117
_cell_formula_units_Z   2
loop_
 _symmetry_equiv_pos_site_id
 _symmetry_equiv_pos_as_xyz
  1  'x, y, z'
loop_
 _atom_site_type_symbol
 _atom_site_label
 _atom_site_symmetry_multiplicity
 _atom_site_fract_x
 _atom_site_fract_y
 _atom_site_fract_z
 _atom_site_occupancy
  In  In0  1  0.50000000  0.50000000  -0.00000000  1
  In  In1  1  0.75000000  0.25000000  0.50000000  1
  Cu  Cu0  1  0.00000000  0.00000000  -0.00000000  1
  Cu  Cu1  1  0.25000000  0.75000000  0.50000000  1
  Se  Se0  1  0.34516103  0.37500000  0.25000000  1
  Se  Se1  1  0.90483897  0.87500000  0.25000000  1
  Se  Se2  1  0.12500000  0.65483897  0.75000000  1
  Se  Se3  1  0.62500000  0.09516103  0.75000000  1
loop_
_geom_bond_atom_site_label_1
_geom_bond_atom_site_label_2
_geom_bond_distance
_geom_bond_site_symmetry_2
In0 Se0 2.621115 1_555
In0 Se3 2.621115 1_554
In0 Se1 2.621115 1_555
In0 Se2 2.621115 1_554
In1 Se3 2.621115 1_555
In1 Se1 2.621115 1_545
In1 Se2 2.621115 1_655
In1 Se0 2.621115 1_555
Cu0 Se1 2.421649 1_445
Cu0 Se2 2.421649 1_544
Cu0 Se0 2.421649 1_555
Cu0 Se3 2.421649 1_454
Cu1 Se2 2.421649 1_555
Cu1 Se0 2.421649 1_555
Cu1 Se3 2.421649 1_565
Cu1 Se1 2.421649 1_455
