# generated using pymatgen
data_La(NiAs)2
_symmetry_space_group_name_H-M   'P 1'
_cell_length_a   4.24853131
_cell_length_b   4.24853131
_cell_length_c   9.42247310
_cell_angle_alpha   90.00000000
_cell_angle_beta   90.00000000
_cell_angle_gamma   90.00000000
_symmetry_Int_Tables_number   1
_chemical_formula_structural   La(NiAs)2
_chemical_formula_sum   'La2 Ni4 As4'
_cell_volume   170.07581181
_cell_formula_units_Z   2
loop_
 _symmetry_equiv_pos_site_id
 _symmetry_equiv_pos_as_xyz
  1  'x, y, z'
loop_
 _atom_site_type_symbol
 _atom_site_label
 _atom_site_symmetry_multiplicity
 _atom_site_fract_x
 _atom_site_fract_y
 _atom_site_fract_z
 _atom_site_occupancy
  La  La0  1  0.75000000  0.75000000  0.74734212  1
  La  La1  1  0.25000000  0.25000000  0.25265788  1
  Ni  Ni0  1  0.25000000  0.25000000  0.88544158  1
  Ni  Ni1  1  0.75000000  0.75000000  0.11455842  1
  Ni  Ni2  1  0.75000000  0.25000000  0.50000000  1
  Ni  Ni3  1  0.25000000  0.75000000  0.50000000  1
  As  As0  1  0.25000000  0.25000000  0.62793158  1
  As  As1  1  0.75000000  0.75000000  0.37206842  1
  As  As2  1  0.75000000  0.25000000  -0.00000000  1
  As  As3  1  0.25000000  0.75000000  -0.00000000  1
loop_
_geom_bond_atom_site_label_1
_geom_bond_atom_site_label_2
_geom_bond_distance
_geom_bond_site_symmetry_2
La0 Ni3 3.153424 1_655
La0 Ni2 3.153424 1_555
La0 Ni2 3.153424 1_565
La0 Ni3 3.153424 1_555
La0 Ni0 3.273871 1_655
La0 Ni0 3.273871 1_665
La0 Ni0 3.273871 1_555
La0 Ni0 3.273871 1_565
La1 Ni3 3.153424 1_545
La1 Ni2 3.153424 1_555
La1 Ni2 3.153424 1_455
La1 Ni3 3.153424 1_555
La1 Ni1 3.273871 1_545
La1 Ni1 3.273871 1_555
La1 Ni1 3.273871 1_455
La1 Ni1 3.273871 1_445
As0 Ni0 2.426381 1_555
As0 Ni3 2.442452 1_555
As0 Ni3 2.442452 1_545
As0 Ni2 2.442452 1_455
As0 Ni2 2.442452 1_555
As0 La0 3.207952 1_455
As0 La0 3.207952 1_545
As0 La0 3.207952 1_555
As0 La0 3.207952 1_445
As1 Ni1 2.426381 1_555
As1 Ni3 2.442452 1_655
As1 Ni2 2.442452 1_555
As1 Ni2 2.442452 1_565
As1 Ni3 2.442452 1_555
As1 La1 3.207952 1_555
As1 La1 3.207952 1_565
As1 La1 3.207952 1_655
As1 La1 3.207952 1_665
As2 Ni1 2.382784 1_545
As2 Ni1 2.382784 1_555
As2 Ni0 2.382784 1_654
As2 Ni0 2.382784 1_554
As2 La0 3.190620 1_554
As2 La0 3.190620 1_544
As2 La1 3.190620 1_555
As2 La1 3.190620 1_655
As3 Ni1 2.382784 1_455
As3 Ni1 2.382784 1_555
As3 Ni0 2.382784 1_564
As3 Ni0 2.382784 1_554
As3 La0 3.190620 1_454
As3 La0 3.190620 1_554
As3 La1 3.190620 1_565
As3 La1 3.190620 1_555
