# generated using pymatgen
data_Sr2MgZrCrO6
_symmetry_space_group_name_H-M   'P 1'
_cell_length_a   5.78821517
_cell_length_b   6.40461853
_cell_length_c   5.85455835
_cell_angle_alpha   91.74881454
_cell_angle_beta   117.12505118
_cell_angle_gamma   115.48193645
_symmetry_Int_Tables_number   1
_chemical_formula_structural   Sr2MgZrCrO6
_chemical_formula_sum   'Sr2 Mg1 Zr1 Cr1 O6'
_cell_volume   167.29045311
_cell_formula_units_Z   1
loop_
 _symmetry_equiv_pos_site_id
 _symmetry_equiv_pos_as_xyz
  1  'x, y, z'
loop_
 _atom_site_type_symbol
 _atom_site_label
 _atom_site_symmetry_multiplicity
 _atom_site_fract_x
 _atom_site_fract_y
 _atom_site_fract_z
 _atom_site_occupancy
  Sr  Sr0  1  0.44998400  0.26637600  0.75955000  1
  Sr  Sr1  1  0.63521600  0.88445100  0.39007100  1
  Mg  Mg0  1  0.14769500  0.35594600  0.10083000  1
  Zr  Zr0  1  0.01398400  0.55862500  0.52452100  1
  Cr  Cr0  1  0.91597800  0.83322900  0.99976500  1
  O  O0  1  0.99899200  0.11166800  0.26648400  1
  O  O1  1  0.07188600  0.84925900  0.73588500  1
  O  O2  1  0.56748900  0.45053000  0.23028200  1
  O  O3  1  0.47246100  0.67052100  0.71937200  1
  O  O4  1  0.08812500  0.62436300  0.19920300  1
  O  O5  1  0.89860600  0.28788900  0.70499000  1
loop_
_geom_bond_atom_site_label_1
_geom_bond_atom_site_label_2
_geom_bond_distance
_geom_bond_site_symmetry_2
Mg0 O0 1.955558 1_455
Mg0 O2 1.967676 1_555
Mg0 O5 1.997542 1_454
Mg0 O4 2.009131 1_555
Cr0 O3 2.030266 1_555
Cr0 O0 2.063473 1_566
Cr0 O4 2.080145 1_656
Cr0 O1 2.100688 1_655
O0 Sr1 2.427299 1_545
O0 Sr0 2.618691 1_655
O1 Zr0 2.013167 1_555
O1 Sr1 2.527849 1_455
O1 Sr0 2.572118 1_565
O2 Zr0 2.110447 1_655
O2 Sr0 2.617429 1_554
O2 Sr1 2.705863 1_555
O3 Zr0 2.100131 1_555
O3 Sr0 2.558779 1_555
O3 Sr1 2.681109 1_555
O4 Zr0 2.151207 1_555
O4 Sr1 2.484378 1_555
O5 Zr0 2.080335 1_655
O5 Sr1 2.481226 1_545
O5 Sr0 2.704655 1_555
