# generated using pymatgen
data_MgNb4O10
_symmetry_space_group_name_H-M   'P 1'
_cell_length_a   7.35601217
_cell_length_b   3.97370300
_cell_length_c   6.89395100
_cell_angle_alpha   90.00000000
_cell_angle_beta   91.05570416
_cell_angle_gamma   90.00000000
_symmetry_Int_Tables_number   1
_chemical_formula_structural   MgNb4O10
_chemical_formula_sum   'Mg1 Nb4 O10'
_cell_volume   201.48017065
_cell_formula_units_Z   1
loop_
 _symmetry_equiv_pos_site_id
 _symmetry_equiv_pos_as_xyz
  1  'x, y, z'
loop_
 _atom_site_type_symbol
 _atom_site_label
 _atom_site_symmetry_multiplicity
 _atom_site_fract_x
 _atom_site_fract_y
 _atom_site_fract_z
 _atom_site_occupancy
  Mg  Mg0  1  0.41768600  0.75000000  0.98591700  1
  Nb  Nb0  1  0.08413000  0.25000000  0.81564900  1
  Nb  Nb1  1  0.27552100  0.25000000  0.29945700  1
  Nb  Nb2  1  0.73008200  0.75000000  0.70658700  1
  Nb  Nb3  1  0.90637600  0.75000000  0.18313100  1
  O  O0  1  0.03433900  0.75000000  0.85638400  1
  O  O1  1  0.17359400  0.25000000  0.56667800  1
  O  O2  1  0.20981800  0.75000000  0.24177200  1
  O  O3  1  0.31228900  0.25000000  0.98592900  1
  O  O4  1  0.51249700  0.25000000  0.33768700  1
  O  O5  1  0.48588200  0.75000000  0.70133400  1
  O  O6  1  0.69372500  0.75000000  0.02081400  1
  O  O7  1  0.80738100  0.25000000  0.74088800  1
  O  O8  1  0.82548400  0.75000000  0.43615700  1
  O  O9  1  0.97286200  0.25000000  0.14939500  1
loop_
_geom_bond_atom_site_label_1
_geom_bond_atom_site_label_2
_geom_bond_distance
_geom_bond_site_symmetry_2
Mg0 O5 2.033956 1_555
Mg0 O6 2.040342 1_556
Mg0 O3 2.132762 1_555
Mg0 O3 2.132762 1_565
Mg0 O2 2.355555 1_556
Nb0 O1 1.849520 1_555
Nb0 O3 2.030338 1_555
Nb0 O0 2.040681 1_555
Nb0 O0 2.040681 1_545
Nb0 O7 2.090772 1_455
Nb0 O9 2.456243 1_456
Nb1 O4 1.758202 1_555
Nb1 O1 2.001698 1_555
Nb1 O2 2.081402 1_555
Nb1 O2 2.081402 1_545
Nb1 O3 2.183242 1_554
Nb1 O9 2.437633 1_455
Nb2 O5 1.796036 1_555
Nb2 O8 2.004104 1_555
Nb2 O7 2.078909 1_555
Nb2 O7 2.078909 1_565
Nb2 O6 2.187597 1_556
Nb2 O0 2.447542 1_655
Nb3 O8 1.853396 1_555
Nb3 O6 1.906461 1_555
Nb3 O9 2.060352 1_555
Nb3 O9 2.060352 1_565
Nb3 O2 2.261096 1_655
Nb3 O0 2.457291 1_654
