# generated using pymatgen
data_LiFe2(PO4)3
_symmetry_space_group_name_H-M   'P 1'
_cell_length_a   8.25495100
_cell_length_b   8.26716591
_cell_length_c   8.85897085
_cell_angle_alpha   90.27412932
_cell_angle_beta   117.62484482
_cell_angle_gamma   119.54726847
_symmetry_Int_Tables_number   1
_chemical_formula_structural   LiFe2(PO4)3
_chemical_formula_sum   'Li2 Fe4 P6 O24'
_cell_volume   444.11034579
_cell_formula_units_Z   2
loop_
 _symmetry_equiv_pos_site_id
 _symmetry_equiv_pos_as_xyz
  1  'x, y, z'
loop_
 _atom_site_type_symbol
 _atom_site_label
 _atom_site_symmetry_multiplicity
 _atom_site_fract_x
 _atom_site_fract_y
 _atom_site_fract_z
 _atom_site_occupancy
  Li  Li0  1  0.83114200  0.06047200  0.12048900  1
  Li  Li1  1  0.16885800  0.93952800  0.87951100  1
  Fe  Fe0  1  0.29978600  0.64722100  0.95460500  1
  Fe  Fe1  1  0.70647000  0.85345400  0.57061300  1
  Fe  Fe2  1  0.29353000  0.14654600  0.42938700  1
  Fe  Fe3  1  0.70021400  0.35277900  0.04539500  1
  P  P0  1  0.20863500  0.47092600  0.24722200  1
  P  P1  1  0.77772600  0.74156400  0.24689900  1
  P  P2  1  0.22227400  0.25843600  0.75310100  1
  P  P3  1  0.79136500  0.52907400  0.75277800  1
  P  P4  1  0.50900000  0.04234800  0.24815200  1
  P  P5  1  0.49100000  0.95765200  0.75184800  1
  O  O0  1  0.62303300  0.88288300  0.74243200  1
  O  O1  1  0.35775600  0.98765500  0.58006200  1
  O  O2  1  0.39921900  0.62664500  0.42520500  1
  O  O3  1  0.32306300  0.81941900  0.80318700  1
  O  O4  1  0.67693700  0.18058100  0.19681300  1
  O  O5  1  0.37696700  0.11711700  0.25756800  1
  O  O6  1  0.64224400  0.01234500  0.41993800  1
  O  O7  1  0.14145600  0.26383900  0.25432000  1
  O  O8  1  0.27594200  0.49600100  0.10403400  1
  O  O9  1  0.01021100  0.48917100  0.18662400  1
  O  O10  1  0.70984700  0.52932800  0.18910900  1
  O  O11  1  0.61018300  0.78256200  0.09565700  1
  O  O12  1  0.21708500  0.23446200  0.58043400  1
  O  O13  1  0.72405800  0.50399900  0.89596600  1
  O  O14  1  0.01062500  0.10034200  0.74078000  1
  O  O15  1  0.60078100  0.37335500  0.57479500  1
  O  O16  1  0.31583200  0.84376000  0.08807100  1
  O  O17  1  0.98937500  0.89965800  0.25922000  1
  O  O18  1  0.68416800  0.15624000  0.91192900  1
  O  O19  1  0.78291500  0.76553800  0.41956600  1
  O  O20  1  0.38981700  0.21743800  0.90434300  1
  O  O21  1  0.29015300  0.47067200  0.81089100  1
  O  O22  1  0.98978900  0.51082900  0.81337600  1
  O  O23  1  0.85854400  0.73616100  0.74568000  1
loop_
_geom_bond_atom_site_label_1
_geom_bond_atom_site_label_2
_geom_bond_distance
_geom_bond_site_symmetry_2
Li0 O7 1.926398 1_655
Li0 O11 2.035648 1_545
Li0 O18 2.096459 1_554
Li0 O4 2.258758 1_555
Li0 O17 2.285564 1_545
Li1 O23 1.926398 1_455
Li1 O20 2.035648 1_565
Li1 O16 2.096459 1_556
Li1 O3 2.258758 1_555
Li1 O14 2.285564 1_565
Fe0 O8 1.835438 1_556
Fe0 O21 1.879210 1_555
Fe0 O22 1.885949 1_455
Fe0 O11 1.889067 1_556
Fe0 O16 1.918254 1_556
Fe0 O3 1.962247 1_555
Fe1 O6 1.958496 1_565
Fe1 O2 1.965882 1_555
Fe1 O19 1.985748 1_555
Fe1 O0 1.996116 1_555
Fe1 O14 2.036825 1_665
Fe1 O23 2.081108 1_555
Fe2 O1 1.958496 1_545
Fe2 O15 1.965882 1_555
Fe2 O12 1.985748 1_555
Fe2 O5 1.996116 1_555
Fe2 O17 2.036825 1_445
Fe2 O7 2.081108 1_555
Fe3 O13 1.835438 1_554
Fe3 O10 1.879210 1_555
Fe3 O9 1.885949 1_655
Fe3 O20 1.889067 1_554
Fe3 O18 1.918254 1_554
Fe3 O4 1.962247 1_555
O0 P5 1.524884 1_555
O1 P5 1.519126 1_555
O2 P0 1.516949 1_555
O3 P5 1.569025 1_555
O4 P4 1.569025 1_555
O5 P4 1.524884 1_555
O6 P4 1.519126 1_555
O7 P0 1.529537 1_555
O8 P0 1.582179 1_555
O9 P0 1.556573 1_555
O10 P1 1.552534 1_555
O11 P1 1.603474 1_555
O12 P2 1.519511 1_555
O13 P3 1.582179 1_555
O14 P2 1.530449 1_555
O15 P3 1.516949 1_555
O16 P4 1.596196 1_565
O17 P1 1.530449 1_555
O18 P5 1.596196 1_545
O19 P1 1.519511 1_555
O20 P2 1.603474 1_555
O21 P2 1.552534 1_555
O22 P3 1.556573 1_555
O23 P3 1.529537 1_555
