# generated using pymatgen
data_MgV4ZnO10
_symmetry_space_group_name_H-M   'P 1'
_cell_length_a   3.80121000
_cell_length_b   5.61508905
_cell_length_c   11.41046500
_cell_angle_alpha   90.00000000
_cell_angle_beta   90.00000000
_cell_angle_gamma   109.78439924
_symmetry_Int_Tables_number   1
_chemical_formula_structural   MgV4ZnO10
_chemical_formula_sum   'Mg1 V4 Zn1 O10'
_cell_volume   229.17065236
_cell_formula_units_Z   1
loop_
 _symmetry_equiv_pos_site_id
 _symmetry_equiv_pos_as_xyz
  1  'x, y, z'
loop_
 _atom_site_type_symbol
 _atom_site_label
 _atom_site_symmetry_multiplicity
 _atom_site_fract_x
 _atom_site_fract_y
 _atom_site_fract_z
 _atom_site_occupancy
  Mg  Mg0  1  0.54270900  0.08541800  0.75000000  1
  V  V0  1  0.20532300  0.41064700  0.59373700  1
  V  V1  1  0.79895700  0.59791300  0.40134400  1
  V  V2  1  0.79895700  0.59791300  0.09865600  1
  V  V3  1  0.20532300  0.41064700  0.90626300  1
  Zn  Zn0  1  0.86637900  0.73275600  0.75000000  1
  O  O0  1  0.74976300  0.49952400  0.25000000  1
  O  O1  1  0.32191400  0.64382900  0.75000000  1
  O  O2  1  0.24995300  0.49990400  0.06540800  1
  O  O3  1  0.75397300  0.50794500  0.91110700  1
  O  O4  1  0.75397300  0.50794500  0.58889300  1
  O  O5  1  0.24995300  0.49990400  0.43459100  1
  O  O6  1  0.04283500  0.08566900  0.64416400  1
  O  O7  1  0.95153900  0.90307800  0.39872500  1
  O  O8  1  0.04283500  0.08566900  0.85583600  1
  O  O9  1  0.95153900  0.90307800  0.10127600  1
loop_
_geom_bond_atom_site_label_1
_geom_bond_atom_site_label_2
_geom_bond_distance
_geom_bond_site_symmetry_2
Mg0 O8 2.251818 1_555
Mg0 O6 2.251818 1_555
Mg0 O8 2.251821 1_655
Mg0 O6 2.251821 1_655
Mg0 O1 2.333200 1_545
O0 V1 1.803455 1_555
O0 V2 1.803455 1_555
O1 Zn0 1.957816 1_455
O1 Zn0 1.957827 1_555
O1 V3 2.167293 1_555
O1 V0 2.167293 1_555
O2 V3 1.876158 1_554
O2 V2 2.006086 1_555
O2 V2 2.006090 1_455
O3 V3 1.969677 1_655
O3 V3 1.969684 1_555
O3 Zn0 2.188673 1_555
O3 V2 2.192181 1_556
O4 V0 1.969677 1_655
O4 V0 1.969684 1_555
O4 Zn0 2.188673 1_555
O4 V1 2.192181 1_555
O5 V0 1.876169 1_555
O5 V1 2.006084 1_555
O5 V1 2.006087 1_455
O6 V0 1.810913 1_555
O6 Zn0 2.221570 1_445
O7 V1 1.612661 1_555
O8 V3 1.810913 1_555
O8 Zn0 2.221570 1_445
O9 V2 1.612661 1_555
