# generated using pymatgen
data_Na3ZrTiSi2PO12
_symmetry_space_group_name_H-M   'P 1'
_cell_length_a   15.70059751
_cell_length_b   9.08334196
_cell_length_c   9.04476510
_cell_angle_alpha   89.98724374
_cell_angle_beta   125.00184299
_cell_angle_gamma   90.24312572
_symmetry_Int_Tables_number   1
_chemical_formula_structural   Na3ZrTiSi2PO12
_chemical_formula_sum   'Na12 Zr4 Ti4 Si8 P4 O48'
_cell_volume   1056.59458867
_cell_formula_units_Z   4
loop_
 _symmetry_equiv_pos_site_id
 _symmetry_equiv_pos_as_xyz
  1  'x, y, z'
loop_
 _atom_site_type_symbol
 _atom_site_label
 _atom_site_symmetry_multiplicity
 _atom_site_fract_x
 _atom_site_fract_y
 _atom_site_fract_z
 _atom_site_occupancy
  Na  Na0  1  0.24526251  0.77404294  0.99803809  1
  Na  Na1  1  0.73879474  0.72441603  0.48621077  1
  Na  Na2  1  0.73695043  0.27697262  0.98574004  1
  Na  Na3  1  0.24510584  0.22906605  0.49850278  1
  Na  Na4  1  0.50297481  0.11745848  0.75070566  1
  Na  Na5  1  0.50139515  0.87526098  0.25425480  1
  Na  Na6  1  0.00159660  0.61041123  0.74696109  1
  Na  Na7  1  0.00296052  0.40113883  0.25570434  1
  Na  Na8  1  0.80602622  0.93442410  0.21109093  1
  Na  Na9  1  0.80686267  0.06386013  0.71135398  1
  Na  Na10  1  0.31694477  0.43999322  0.23203838  1
  Na  Na11  1  0.30920646  0.56771761  0.70668860  1
  Zr  Zr0  1  0.89387280  0.74501814  0.93140066  1
  Zr  Zr1  1  0.89270236  0.25497580  0.43125949  1
  Zr  Zr2  1  0.10654066  0.25016249  0.06339359  1
  Zr  Zr3  1  0.39375053  0.24475639  0.93417624  1
  Ti  Ti0  1  0.10593095  0.74514532  0.56055745  1
  Ti  Ti1  1  0.60607751  0.24590157  0.55725949  1
  Ti  Ti2  1  0.39528300  0.75845723  0.43902930  1
  Ti  Ti3  1  0.60498047  0.75399742  0.05699122  1
  Si  Si0  1  0.35507349  0.89032809  0.75275210  1
  Si  Si1  1  0.64297899  0.89895314  0.74279730  1
  Si  Si2  1  0.64464396  0.09822927  0.24229252  1
  Si  Si3  1  0.35847916  0.10210696  0.26378894  1
  Si  Si4  1  0.84976485  0.39121765  0.75676689  1
  Si  Si5  1  0.14841332  0.40239322  0.74153974  1
  Si  Si6  1  0.15043046  0.60873690  0.24796051  1
  Si  Si7  1  0.85233891  0.60947989  0.25724660  1
  P  P0  1  0.00419152  0.95513326  0.74291617  1
  P  P1  1  0.00559724  0.03570426  0.25437132  1
  P  P2  1  0.50621509  0.46864265  0.74711890  1
  P  P3  1  0.50433744  0.53858962  0.25416992  1
  O  O0  1  0.15122523  0.58455258  0.73848429  1
  O  O1  1  0.84546113  0.57122211  0.74680907  1
  O  O2  1  0.84559274  0.42895188  0.24799839  1
  O  O3  1  0.15444203  0.42678420  0.25304649  1
  O  O4  1  0.64735429  0.08092595  0.73983272  1
  O  O5  1  0.35136592  0.07049637  0.74683637  1
  O  O6  1  0.35371460  0.92104879  0.26612548  1
  O  O7  1  0.64573135  0.91602095  0.23987198  1
  O  O8  1  0.43784204  0.56078047  0.57336812  1
  O  O9  1  0.56705156  0.57265470  0.91504736  1
  O  O10  1  0.56463699  0.42948090  0.41510563  1
  O  O11  1  0.43276255  0.44735266  0.07858665  1
  O  O12  1  0.93977326  0.04852323  0.57071207  1
  O  O13  1  0.06276509  0.05781008  0.91048484  1
  O  O14  1  0.06026883  0.92845579  0.41600433  1
  O  O15  1  0.94163339  0.94944903  0.07413241  1
  O  O16  1  0.25504553  0.81434946  0.73434081  1
  O  O17  1  0.74453042  0.84226299  0.75123023  1
  O  O18  1  0.74671433  0.15450359  0.25203247  1
  O  O19  1  0.26271741  0.18382467  0.25280222  1
  O  O20  1  0.75009059  0.31119813  0.73616995  1
  O  O21  1  0.24823267  0.34285120  0.74683144  1
  O  O22  1  0.25530139  0.66678649  0.26692022  1
  O  O23  1  0.75336361  0.68925040  0.23854023  1
  O  O24  1  0.36047226  0.83727243  0.58239757  1
  O  O25  1  0.64458698  0.85938244  0.92499966  1
  O  O26  1  0.64401477  0.14303514  0.42094410  1
  O  O27  1  0.35686676  0.14474247  0.08581770  1
  O  O28  1  0.85628685  0.33555511  0.59139372  1
  O  O29  1  0.15147532  0.36243382  0.92258099  1
  O  O30  1  0.14248887  0.65086961  0.41944952  1
  O  O31  1  0.85649350  0.65947520  0.08760285  1
  O  O32  1  0.46375346  0.82631199  0.93458077  1
  O  O33  1  0.53567411  0.83096067  0.56587644  1
  O  O34  1  0.54201490  0.16486420  0.06026969  1
  O  O35  1  0.46768594  0.16982784  0.44088549  1
  O  O36  1  0.95703889  0.33416694  0.94432857  1
  O  O37  1  0.04103741  0.33980963  0.56254224  1
  O  O38  1  0.04475569  0.66527391  0.06109943  1
  O  O39  1  0.96407636  0.66721166  0.44043895  1
  O  O40  1  0.08288208  0.85306533  0.74481566  1
  O  O41  1  0.92335418  0.85888019  0.74844664  1
  O  O42  1  0.92536083  0.13338866  0.25741273  1
  O  O43  1  0.08598830  0.13888008  0.25971199  1
  O  O44  1  0.58133264  0.36453733  0.74079679  1
  O  O45  1  0.42947086  0.37032019  0.76260873  1
  O  O46  1  0.42958216  0.63819971  0.27104323  1
  O  O47  1  0.58000647  0.63930735  0.24356500  1
loop_
_geom_bond_atom_site_label_1
_geom_bond_atom_site_label_2
_geom_bond_distance
_geom_bond_site_symmetry_2
Na0 O40 2.361516 1_555
Na0 O6 2.409886 1_556
Na0 O16 2.503128 1_555
Na0 O22 2.539490 1_556
Na0 O0 2.580227 1_555
Na0 O46 2.797461 1_556
Na1 O47 2.310222 1_555
Na1 O23 2.400265 1_555
Na1 O1 2.405519 1_555
Na1 O7 2.532467 1_555
Na1 O17 2.579233 1_555
Na1 O41 2.756942 1_555
Na2 O44 2.305738 1_555
Na2 O20 2.401671 1_555
Na2 O2 2.404518 1_556
Na2 O4 2.547165 1_555
Na2 O18 2.576586 1_556
Na2 O42 2.860431 1_556
Na3 O43 2.317427 1_555
Na3 O5 2.371295 1_555
Na3 O19 2.426992 1_555
Na3 O21 2.447364 1_555
Na3 O3 2.564171 1_555
Na3 O45 2.787250 1_555
Na4 O4 2.349577 1_555
Na4 O5 2.396889 1_555
Na4 O34 2.535782 1_556
Na4 O35 2.570283 1_555
Na4 O44 2.580977 1_555
Na4 O45 2.604612 1_555
Na5 O7 2.370772 1_555
Na5 O6 2.419618 1_555
Na5 O46 2.471180 1_555
Na5 O47 2.507122 1_555
Na5 O33 2.580090 1_555
Na5 O32 2.635342 1_554
Na6 O0 2.406531 1_555
Na6 O1 2.474854 1_455
Na6 O39 2.535322 1_455
Na6 O40 2.547894 1_555
Na6 O38 2.563113 1_556
Na6 O41 2.577883 1_455
Na7 O3 2.402557 1_555
Na7 O2 2.445630 1_455
Na7 O37 2.543355 1_555
Na7 O36 2.547378 1_454
Na7 O43 2.710640 1_555
Na7 O42 2.719563 1_455
Na7 O30 2.894025 1_555
Na7 O31 3.023144 1_455
Na8 O18 2.326431 1_565
Na8 O23 2.434016 1_555
Na8 O42 2.454233 1_565
Na8 O25 2.459042 1_554
Na8 O7 2.679107 1_555
Na8 O12 2.865475 1_565
Na9 O17 2.351015 1_545
Na9 O20 2.477720 1_555
Na9 O41 2.499822 1_545
Na9 O26 2.502834 1_555
Na9 O4 2.665641 1_555
Na9 O15 2.894131 1_546
Na9 O28 2.969577 1_555
Na9 O12 3.006667 1_555
Na10 O22 2.376453 1_555
Na10 O46 2.398091 1_555
Na10 O19 2.518112 1_555
Na10 O29 2.592928 1_554
Na10 O3 2.667142 1_555
Na10 O8 2.756620 1_555
Na10 O11 2.851617 1_555
Na11 O21 2.366874 1_555
Na11 O45 2.443126 1_555
Na11 O16 2.462672 1_555
Na11 O30 2.527085 1_555
Na11 O0 2.660834 1_555
Na11 O8 2.886535 1_555
Na11 O11 2.967109 1_556
Na11 O24 2.987761 1_555
O0 Si5 1.655665 1_555
O0 Ti0 1.979468 1_555
O1 Si4 1.637049 1_555
O1 Zr0 2.095837 1_555
O2 Si7 1.641821 1_555
O2 Zr1 2.096219 1_555
O3 Si6 1.653830 1_555
O3 Zr2 2.143109 1_555
O4 Si1 1.654907 1_545
O4 Ti1 2.042525 1_555
O5 Si0 1.637583 1_545
O5 Zr3 2.125587 1_555
O6 Si3 1.646678 1_565
O6 Ti2 1.972069 1_555
O7 Si2 1.655500 1_565
O7 Ti3 2.022468 1_555
O8 P2 1.547324 1_555
O8 Ti2 2.055411 1_555
O9 P2 1.562231 1_555
O9 Ti3 1.957470 1_556
O10 P3 1.556838 1_555
O10 Ti1 1.976267 1_555
O11 P3 1.554688 1_555
O11 Zr3 2.131066 1_554
O12 P0 1.538824 1_645
O12 Zr1 2.143618 1_555
O13 P0 1.551458 1_545
O13 Zr2 2.082849 1_556
O14 P1 1.545937 1_565
O14 Ti0 1.982348 1_555
O15 P1 1.547815 1_665
O15 Zr0 2.134418 1_554
O16 Si0 1.631354 1_555
O16 Ti0 2.028114 1_555
O17 Si1 1.637248 1_555
O17 Zr0 2.137096 1_555
O18 Si2 1.633514 1_555
O18 Zr1 2.105886 1_555
O19 Si3 1.630779 1_555
O19 Zr2 2.122159 1_555
O20 Si4 1.633405 1_555
O20 Ti1 1.968356 1_555
O21 Si5 1.634661 1_555
O21 Zr3 2.111975 1_555
O22 Si6 1.639289 1_555
O22 Ti2 2.001765 1_555
O23 Si7 1.635955 1_555
O23 Ti3 2.022948 1_555
O24 Si0 1.662546 1_555
O24 Ti2 1.819215 1_555
O25 Si1 1.672646 1_555
O25 Ti3 1.890596 1_556
O26 Si2 1.671940 1_555
O26 Ti1 1.896234 1_555
O27 Si3 1.641596 1_555
O27 Zr3 1.986958 1_554
O28 Si4 1.637043 1_555
O28 Zr1 1.978493 1_555
O29 Si5 1.650744 1_555
O29 Zr2 2.045469 1_556
O30 Si6 1.670447 1_555
O30 Ti0 1.880623 1_555
O31 Si7 1.636792 1_555
O31 Zr0 1.972577 1_554
O32 Si0 1.656223 1_555
O32 Ti3 1.941543 1_556
O33 Si1 1.636850 1_555
O33 Ti2 1.922358 1_555
O34 Si2 1.624109 1_555
O34 Zr3 2.052914 1_554
O35 Si3 1.650687 1_555
O35 Ti1 1.915839 1_555
O36 Si4 1.646929 1_555
O36 Zr2 2.089632 1_656
O37 Si5 1.627121 1_555
O37 Zr1 2.059224 1_455
O38 Si6 1.631842 1_555
O38 Zr0 2.082991 1_454
O39 Si7 1.660117 1_555
O39 Ti0 1.962891 1_655
O40 P0 1.540012 1_555
O40 Ti0 2.136581 1_555
O41 P0 1.562419 1_655
O41 Zr0 2.212711 1_555
O42 P1 1.557019 1_655
O42 Zr1 2.210348 1_555
O43 P1 1.547190 1_555
O43 Zr2 2.220940 1_555
O44 P2 1.541199 1_555
O44 Ti1 2.193670 1_555
O45 P2 1.566391 1_555
O45 Zr3 2.239551 1_555
O46 P3 1.560156 1_555
O46 Ti2 2.176273 1_555
O47 P3 1.542429 1_555
O47 Ti3 2.200359 1_555
