# generated using pymatgen
data_Ba6MgNb2Ir(ClO6)2
_symmetry_space_group_name_H-M   'P 1'
_cell_length_a   6.00661978
_cell_length_b   6.01908447
_cell_length_c   16.08636839
_cell_angle_alpha   82.53158903
_cell_angle_beta   97.46481099
_cell_angle_gamma   120.05597229
_symmetry_Int_Tables_number   1
_chemical_formula_structural   Ba6MgNb2Ir(ClO6)2
_chemical_formula_sum   'Ba6 Mg1 Nb2 Ir1 Cl2 O12'
_cell_volume   497.69326740
_cell_formula_units_Z   1
loop_
 _symmetry_equiv_pos_site_id
 _symmetry_equiv_pos_as_xyz
  1  'x, y, z'
loop_
 _atom_site_type_symbol
 _atom_site_label
 _atom_site_symmetry_multiplicity
 _atom_site_fract_x
 _atom_site_fract_y
 _atom_site_fract_z
 _atom_site_occupancy
  Ba  Ba0  1  0.28303900  0.71846200  0.37533500  1
  Ba  Ba1  1  0.38417000  0.62071600  0.77220700  1
  Ba  Ba2  1  0.68248800  0.31796800  0.64085700  1
  Ba  Ba3  1  0.72618900  0.27181500  0.89655800  1
  Ba  Ba4  1  0.40092600  0.59866000  0.01499100  1
  Ba  Ba5  1  0.58596800  0.41443600  0.23652000  1
  Mg  Mg0  1  0.19275600  0.80793300  0.17544700  1
  Nb  Nb0  1  0.05550500  0.94653000  0.81388000  1
  Nb  Nb1  1  0.90544700  0.09476700  0.17581700  1
  Ir  Ir0  1  0.03768200  0.96132300  0.01222400  1
  Cl  Cl0  1  0.66518900  0.33531700  0.43141500  1
  Cl  Cl1  1  0.32717200  0.67479500  0.57399500  1
  O  O0  1  0.22308700  0.21590000  0.91312900  1
  O  O1  1  0.34808700  0.16058200  0.74902300  1
  O  O2  1  0.08984000  0.42837000  0.22717700  1
  O  O3  1  0.85026200  0.64930600  0.75030000  1
  O  O4  1  0.85764200  0.12554000  0.76445600  1
  O  O5  1  0.83537500  0.74761700  0.11622800  1
  O  O6  1  0.08318500  0.91696300  0.27086300  1
  O  O7  1  0.25150400  0.16474100  0.11617200  1
  O  O8  1  0.79290000  0.20485200  0.07479500  1
  O  O9  1  0.78659000  0.77018900  0.91388700  1
  O  O10  1  0.57153700  0.90984100  0.22749700  1
  O  O11  1  0.24054600  0.77671100  0.88223000  1
loop_
_geom_bond_atom_site_label_1
_geom_bond_atom_site_label_2
_geom_bond_distance
_geom_bond_site_symmetry_2
Ba0 O6 2.466469 1_555
Ba0 O10 2.888720 1_555
Ba0 O2 2.899864 1_555
Ba0 Cl1 3.159634 1_555
Ba0 Cl0 3.414843 1_455
Ba0 Cl0 3.415263 1_565
Ba1 O11 2.529513 1_555
Ba1 O1 2.739141 1_555
Ba1 O3 2.783841 1_555
Ba1 O4 2.945176 1_565
Ba1 O9 2.961386 1_555
Ba1 O0 2.963895 1_555
Ba1 O4 3.074611 1_455
Ba1 Cl1 3.154037 1_555
Ba1 O3 3.268322 1_455
Ba1 O1 3.333878 1_565
Ba2 O4 2.545588 1_555
Ba2 O3 2.555592 1_555
Ba2 O1 2.556004 1_555
Ba2 Cl0 3.346848 1_555
Ba2 Cl1 3.592851 1_545
Ba2 Cl1 3.593839 1_655
Ba2 Cl1 3.703975 1_555
Ba3 O4 2.744658 1_555
Ba3 O8 2.847212 1_556
Ba3 O9 2.882499 1_555
Ba3 O0 2.912675 1_555
Ba3 O3 2.936538 1_555
Ba3 O1 2.954353 1_555
Ba3 O11 2.956237 1_545
Ba3 O11 3.071140 1_655
Ba3 O0 3.141463 1_655
Ba3 O9 3.190280 1_545
Ba4 O11 2.557762 1_554
Ba4 O0 2.682393 1_554
Ba4 O5 2.682820 1_555
Ba4 O7 2.683763 1_555
Ba4 O9 2.687777 1_554
Ba5 O5 2.597220 1_555
Ba5 O7 2.600795 1_555
Ba5 O2 3.006832 1_555
Ba5 O2 3.008385 1_655
Ba5 O10 3.010539 1_555
Ba5 O10 3.016750 1_545
Ba5 O6 3.054631 1_655
Ba5 O6 3.055653 1_545
Ba5 Cl0 3.119877 1_555
Mg0 O6 2.043707 1_555
Mg0 O5 2.103641 1_455
Mg0 O7 2.107626 1_565
Mg0 O10 2.119999 1_555
Mg0 O2 2.125762 1_555
Nb0 O1 1.922475 1_565
Nb0 O3 1.924904 1_455
Nb0 O11 2.004345 1_555
Nb0 O4 2.005015 1_465
Nb0 O0 2.193530 1_565
Nb0 O9 2.199478 1_455
Nb1 O8 1.849396 1_555
Nb1 O2 1.976631 1_655
Nb1 O10 1.977180 1_545
Nb1 O6 2.217615 1_645
Nb1 O7 2.225959 1_655
Nb1 O5 2.235402 1_545
Ir0 O9 2.053223 1_454
Ir0 O0 2.060642 1_564
Ir0 O5 2.081686 1_455
Ir0 O7 2.084167 1_565
