# generated using pymatgen
data_MgMn2(FeO2)4
_symmetry_space_group_name_H-M   'P 1'
_cell_length_a   6.76794168
_cell_length_b   6.76794192
_cell_length_c   6.03165876
_cell_angle_alpha   63.53958046
_cell_angle_beta   63.53824242
_cell_angle_gamma   52.99478223
_symmetry_Int_Tables_number   1
_chemical_formula_structural   MgMn2(FeO2)4
_chemical_formula_sum   'Mg1 Mn2 Fe4 O8'
_cell_volume   191.34093734
_cell_formula_units_Z   1
loop_
 _symmetry_equiv_pos_site_id
 _symmetry_equiv_pos_as_xyz
  1  'x, y, z'
loop_
 _atom_site_type_symbol
 _atom_site_label
 _atom_site_symmetry_multiplicity
 _atom_site_fract_x
 _atom_site_fract_y
 _atom_site_fract_z
 _atom_site_occupancy
  Mg  Mg0  1  0.74612100  0.74626100  0.75384400  1
  Mn  Mn0  1  0.18460900  0.66643400  0.57448200  1
  Mn  Mn1  1  0.66653900  0.18462200  0.57443600  1
  Fe  Fe0  1  0.99445500  0.99448400  0.00553800  1
  Fe  Fe1  1  0.25524000  0.25520700  0.24475500  1
  Fe  Fe2  1  0.58263100  0.58259100  0.18125700  1
  Fe  Fe3  1  0.58262600  0.58265900  0.65346500  1
  O  O0  1  0.37399600  0.37394400  0.37327200  1
  O  O1  1  0.39007700  0.87222800  0.36883800  1
  O  O2  1  0.37399300  0.37396100  0.87873600  1
  O  O3  1  0.87226900  0.39008200  0.36884600  1
  O  O4  1  0.37128600  0.83682600  0.89592600  1
  O  O5  1  0.83681000  0.37134600  0.89591700  1
  O  O6  1  0.88467900  0.88468400  0.38134900  1
  O  O7  1  0.88466800  0.88467100  0.84934100  1
loop_
_geom_bond_atom_site_label_1
_geom_bond_atom_site_label_2
_geom_bond_distance
_geom_bond_site_symmetry_2
Mg0 O7 2.026839 1_555
Mg0 O6 2.027091 1_555
Mg0 O4 2.050506 1_555
Mg0 O5 2.050787 1_555
Mn0 O6 2.150344 1_455
Mn0 O7 2.150463 1_455
Mn0 O1 2.160307 1_555
Mn0 O2 2.175724 1_555
Mn0 O0 2.175940 1_555
Mn1 O6 2.150256 1_545
Mn1 O7 2.150376 1_545
Mn1 O3 2.159928 1_555
Mn1 O2 2.175823 1_555
Mn1 O0 2.176163 1_555
Fe0 O7 1.976024 1_554
Fe0 O6 1.976114 1_555
Fe0 O4 1.982464 1_654
Fe0 O5 1.982668 1_564
Fe1 O0 1.944360 1_555
Fe1 O2 1.944454 1_554
Fe1 O3 2.035530 1_455
Fe1 O1 2.035642 1_545
Fe2 O1 2.099593 1_555
Fe2 O3 2.099723 1_555
Fe2 O5 2.135185 1_554
Fe2 O4 2.135582 1_554
Fe2 O0 2.194219 1_555
Fe3 O1 2.099397 1_555
Fe3 O3 2.099487 1_555
Fe3 O4 2.135295 1_555
Fe3 O5 2.135403 1_555
Fe3 O2 2.194475 1_555
