# generated using pymatgen
data_Be2CoH20N2(O3F4)2
_symmetry_space_group_name_H-M   'P 1'
_cell_length_a   12.63762500
_cell_length_b   6.20046500
_cell_length_c   9.35490069
_cell_angle_alpha   73.25252942
_cell_angle_beta   90.00000000
_cell_angle_gamma   90.00000000
_symmetry_Int_Tables_number   1
_chemical_formula_structural   Be2CoH20N2(O3F4)2
_chemical_formula_sum   'Be4 Co2 H40 N4 O12 F16'
_cell_volume   701.94942845
_cell_formula_units_Z   2
loop_
 _symmetry_equiv_pos_site_id
 _symmetry_equiv_pos_as_xyz
  1  'x, y, z'
loop_
 _atom_site_type_symbol
 _atom_site_label
 _atom_site_symmetry_multiplicity
 _atom_site_fract_x
 _atom_site_fract_y
 _atom_site_fract_z
 _atom_site_occupancy
  Be  Be0  1  0.35463800  0.25386700  0.90159700  1
  Be  Be1  1  0.64536200  0.74613300  0.09840300  1
  Be  Be2  1  0.14536200  0.25386700  0.40159700  1
  Be  Be3  1  0.85463800  0.74613300  0.59840300  1
  Co  Co0  1  0.50000000  0.00000000  0.50000000  1
  Co  Co1  1  0.00000000  0.00000000  0.00000000  1
  H  H0  1  0.35792100  0.33752700  0.46421000  1
  H  H1  1  0.85792100  0.66247300  0.03579000  1
  H  H2  1  0.64207900  0.66247300  0.53579000  1
  H  H3  1  0.14207900  0.33752700  0.96421000  1
  H  H4  1  0.43567300  0.33507200  0.60008100  1
  H  H5  1  0.93567300  0.66492800  0.89991900  1
  H  H6  1  0.56432700  0.66492800  0.39991900  1
  H  H7  1  0.06432700  0.33507200  0.10008100  1
  H  H8  1  0.68388200  0.01376900  0.64232100  1
  H  H9  1  0.18388200  0.98623100  0.85767900  1
  H  H10  1  0.31611800  0.98623100  0.35767900  1
  H  H11  1  0.81611800  0.01376900  0.14232100  1
  H  H12  1  0.59831900  0.93442100  0.77029400  1
  H  H13  1  0.09831900  0.06557900  0.72970600  1
  H  H14  1  0.40168100  0.06557900  0.22970600  1
  H  H15  1  0.90168100  0.93442100  0.27029400  1
  H  H16  1  0.62987400  0.10623500  0.25342600  1
  H  H17  1  0.12987400  0.89376500  0.24657400  1
  H  H18  1  0.37012600  0.89376500  0.74657400  1
  H  H19  1  0.87012600  0.10623500  0.75342600  1
  H  H20  1  0.59159700  0.33414100  0.28452800  1
  H  H21  1  0.09159700  0.66585900  0.21547200  1
  H  H22  1  0.40840300  0.66585900  0.71547200  1
  H  H23  1  0.90840300  0.33414100  0.78452800  1
  H  H24  1  0.93268300  0.35198100  0.33015900  1
  H  H25  1  0.43268300  0.64801900  0.16984100  1
  H  H26  1  0.06731700  0.64801900  0.66984100  1
  H  H27  1  0.56731700  0.35198100  0.83015900  1
  H  H28  1  0.86228100  0.50572300  0.41625400  1
  H  H29  1  0.36228100  0.49427700  0.08374600  1
  H  H30  1  0.13771900  0.49427700  0.58374600  1
  H  H31  1  0.63771900  0.50572300  0.91625400  1
  H  H32  1  0.80402500  0.41098000  0.28405800  1
  H  H33  1  0.30402500  0.58902000  0.21594200  1
  H  H34  1  0.19597500  0.58902000  0.71594200  1
  H  H35  1  0.69597500  0.41098000  0.78405800  1
  H  H36  1  0.83670400  0.22509300  0.45315900  1
  H  H37  1  0.33670400  0.77490700  0.04684100  1
  H  H38  1  0.66329600  0.22509300  0.95315900  1
  H  H39  1  0.16329600  0.77490700  0.54684100  1
  N  N0  1  0.14214100  0.62899600  0.62853900  1
  N  N1  1  0.35785900  0.62899600  0.12853900  1
  N  N2  1  0.64214100  0.37100400  0.87146100  1
  N  N3  1  0.85785900  0.37100400  0.37146100  1
  O  O0  1  0.60883000  0.03167400  0.66629400  1
  O  O1  1  0.10883000  0.96832600  0.83370600  1
  O  O2  1  0.39117000  0.96832600  0.33370600  1
  O  O3  1  0.89117000  0.03167400  0.16629400  1
  O  O4  1  0.61145900  0.17567500  0.33277600  1
  O  O5  1  0.11145900  0.82432500  0.16722400  1
  O  O6  1  0.38854100  0.82432500  0.66722400  1
  O  O7  1  0.88854100  0.17567500  0.83277600  1
  O  O8  1  0.43048400  0.29796200  0.50440200  1
  O  O9  1  0.06951600  0.29796200  0.00440200  1
  O  O10  1  0.93048400  0.70203800  0.99559800  1
  O  O11  1  0.56951600  0.70203800  0.49559800  1
  F  F0  1  0.06509500  0.37410700  0.27363000  1
  F  F1  1  0.56509500  0.62589300  0.22637000  1
  F  F2  1  0.43490500  0.37410700  0.77363000  1
  F  F3  1  0.93490500  0.62589300  0.72637000  1
  F  F4  1  0.59197200  0.77024700  0.94473900  1
  F  F5  1  0.09197200  0.22975300  0.55526100  1
  F  F6  1  0.40802800  0.22975300  0.05526100  1
  F  F7  1  0.90802800  0.77024700  0.44473900  1
  F  F8  1  0.74340000  0.58602900  0.11403500  1
  F  F9  1  0.24340000  0.41397100  0.38596500  1
  F  F10  1  0.25660000  0.41397100  0.88596500  1
  F  F11  1  0.75660000  0.58602900  0.61403500  1
  F  F12  1  0.32023100  0.01778500  0.88448900  1
  F  F13  1  0.67976900  0.98221500  0.11551100  1
  F  F14  1  0.17976900  0.01778500  0.38448900  1
  F  F15  1  0.82023100  0.98221500  0.61551100  1
loop_
_geom_bond_atom_site_label_1
_geom_bond_atom_site_label_2
_geom_bond_distance
_geom_bond_site_symmetry_2
Be0 F6 1.555692 1_556
Be0 F10 1.567882 1_555
Be0 F12 1.578754 1_555
Be0 F2 1.582260 1_555
Be1 F4 1.555692 1_554
Be1 F8 1.567882 1_555
Be1 F13 1.578754 1_555
Be1 F1 1.582260 1_555
Be2 F5 1.555692 1_555
Be2 F9 1.567882 1_555
Be2 F14 1.578754 1_555
Be2 F0 1.582260 1_555
Be3 F7 1.555692 1_555
Be3 F11 1.567882 1_555
Be3 F15 1.578754 1_555
Be3 F3 1.582260 1_555
Co0 O8 2.056843 1_555
Co0 O11 2.056843 1_545
Co0 O0 2.127517 1_555
Co0 O2 2.127517 1_545
Co0 O6 2.153089 1_545
Co0 O4 2.153089 1_555
Co1 O9 2.056843 1_555
Co1 O10 2.056843 1_444
Co1 O3 2.127517 1_455
Co1 O1 2.127517 1_544
Co1 O5 2.153089 1_545
Co1 O7 2.153089 1_454
H0 O8 0.994650 1_555
H1 O10 0.994650 1_554
H2 O11 0.994650 1_555
H3 O9 0.994650 1_556
H4 O8 0.988476 1_555
H5 O10 0.988476 1_555
H6 O11 0.988476 1_555
H7 O9 0.988476 1_555
H8 O0 0.988221 1_555
H9 O1 0.988221 1_555
H10 O2 0.988221 1_555
H11 O3 0.988221 1_555
H12 O0 0.994845 1_565
H13 O1 0.994845 1_545
H14 O2 0.994845 1_545
H15 O3 0.994845 1_565
H16 O4 0.987300 1_555
H17 O5 0.987300 1_555
H18 O6 0.987300 1_555
H19 O7 0.987300 1_555
H20 O4 0.988217 1_555
H21 O5 0.988217 1_555
H22 O6 0.988217 1_555
H23 O7 0.988217 1_555
H24 N3 1.040970 1_555
H25 N1 1.040970 1_555
H26 N0 1.040970 1_555
H27 N2 1.040970 1_555
H28 N3 1.038362 1_555
H29 N1 1.038362 1_555
H30 N0 1.038362 1_555
H31 N2 1.038362 1_555
H32 N3 1.037323 1_555
H33 N1 1.037323 1_555
H34 N0 1.037323 1_555
H35 N2 1.037323 1_555
H36 N3 1.037119 1_555
H37 N1 1.037119 1_555
H38 N2 1.037119 1_555
H39 N0 1.037119 1_555
