# generated using pymatgen
data_NaSc2Ti2P3(SO8)3
_symmetry_space_group_name_H-M   'P 1'
_cell_length_a   8.70907509
_cell_length_b   8.71706824
_cell_length_c   22.67419844
_cell_angle_alpha   90.29581047
_cell_angle_beta   89.99826246
_cell_angle_gamma   120.10501308
_symmetry_Int_Tables_number   1
_chemical_formula_structural   NaSc2Ti2P3(SO8)3
_chemical_formula_sum   'Na3 Sc6 Ti6 P9 S9 O72'
_cell_volume   1489.14446393
_cell_formula_units_Z   3
loop_
 _symmetry_equiv_pos_site_id
 _symmetry_equiv_pos_as_xyz
  1  'x, y, z'
loop_
 _atom_site_type_symbol
 _atom_site_label
 _atom_site_symmetry_multiplicity
 _atom_site_fract_x
 _atom_site_fract_y
 _atom_site_fract_z
 _atom_site_occupancy
  Na  Na0  1  0.67536758  0.33443350  0.83417681  1
  Na  Na1  1  0.66428541  0.33894797  0.33147645  1
  Na  Na2  1  0.34256300  0.67387151  0.16871036  1
  Sc  Sc0  1  0.67177252  0.33332259  0.68817006  1
  Sc  Sc1  1  0.65328299  0.32805361  0.18702695  1
  Sc  Sc2  1  0.66487704  0.32237729  0.98382525  1
  Sc  Sc3  1  0.66384553  0.33513444  0.48009519  1
  Sc  Sc4  1  0.33598963  0.66672403  0.31063063  1
  Sc  Sc5  1  0.32679087  0.66765761  0.80749813  1
  Ti  Ti0  1  0.01026469  0.99159990  0.35595776  1
  Ti  Ti1  1  0.99133835  0.00164405  0.85669434  1
  Ti  Ti2  1  0.99328469  0.98911305  0.64866078  1
  Ti  Ti3  1  0.99586395  0.99791142  0.14479408  1
  Ti  Ti4  1  0.33183442  0.65412853  0.02103411  1
  Ti  Ti5  1  0.32179831  0.65737742  0.51535942  1
  P  P0  1  0.28223046  0.99867550  0.24911361  1
  P  P1  1  0.72064840  0.71839681  0.25010989  1
  P  P2  1  0.99573010  0.71809851  0.75183612  1
  P  P3  1  0.71809108  0.00101655  0.75073943  1
  P  P4  1  0.66379397  0.03504522  0.08398629  1
  P  P5  1  0.36966846  0.32930164  0.08347667  1
  P  P6  1  0.04585298  0.37896373  0.91496501  1
  P  P7  1  0.32831810  0.37427554  0.41464750  1
  P  P8  1  0.04410908  0.66546668  0.41518437  1
  S  S0  1  0.99782995  0.28108412  0.25035930  1
  S  S1  1  0.28240485  0.27932405  0.75035004  1
  S  S2  1  0.96393907  0.33209762  0.58336445  1
  S  S3  1  0.36975882  0.03539974  0.58371030  1
  S  S4  1  0.66342401  0.62906718  0.58366767  1
  S  S5  1  0.96316460  0.62858434  0.08363773  1
  S  S6  1  0.62260631  0.66707699  0.91586951  1
  S  S7  1  0.32860868  0.95359512  0.91591416  1
  S  S8  1  0.62527454  0.95408568  0.41705048  1
  O  O0  1  0.19192692  0.02109140  0.30629126  1
  O  O1  1  0.83320831  0.81545871  0.30615540  1
  O  O2  1  0.97738859  0.17731143  0.30384445  1
  O  O3  1  0.20095139  0.17112653  0.80364806  1
  O  O4  1  0.97353407  0.81330044  0.80600054  1
  O  O5  1  0.83757900  0.03052942  0.80605875  1
  O  O6  1  0.81449150  0.98322785  0.69503506  1
  O  O7  1  0.17565690  0.19521384  0.69617762  1
  O  O8  1  0.01737094  0.83087411  0.69500535  1
  O  O9  1  0.81267204  0.83124847  0.19467152  1
  O  O10  1  0.01985275  0.19791091  0.19605263  1
  O  O11  1  0.16921002  0.98236979  0.19469844  1
  O  O12  1  0.88581135  0.36921436  0.63581271  1
  O  O13  1  0.48422223  0.11740474  0.63618165  1
  O  O14  1  0.63184601  0.51724913  0.63602809  1
  O  O15  1  0.88752822  0.51684898  0.13594576  1
  O  O16  1  0.62533331  0.11508620  0.13828435  1
  O  O17  1  0.48957197  0.37674572  0.13785645  1
  O  O18  1  0.45128675  0.29993234  0.02816770  1
  O  O19  1  0.85449916  0.55016110  0.03026073  1
  O  O20  1  0.70169434  0.15003489  0.02901374  1
  O  O21  1  0.44893281  0.14967383  0.53164638  1
  O  O22  1  0.70135623  0.55171295  0.53146869  1
  O  O23  1  0.85039775  0.29796329  0.53113909  1
  O  O24  1  0.54087335  0.69574846  0.96974779  1
  O  O25  1  0.16487824  0.47093574  0.97077928  1
  O  O26  1  0.30492876  0.84599066  0.96910340  1
  O  O27  1  0.53673443  0.84225660  0.47030494  1
  O  O28  1  0.30513168  0.47158784  0.47090085  1
  O  O29  1  0.16377626  0.69387485  0.47162117  1
  O  O30  1  0.12903680  0.63657717  0.36133561  1
  O  O31  1  0.51414433  0.87833704  0.36404365  1
  O  O32  1  0.36556154  0.49272390  0.36150824  1
  O  O33  1  0.13288831  0.49180983  0.86083321  1
  O  O34  1  0.36165855  0.87567967  0.86298534  1
  O  O35  1  0.51456268  0.63993154  0.86322457  1
  O  O36  1  0.03070490  0.83552438  0.40906734  1
  O  O37  1  0.79989157  0.97008297  0.41033640  1
  O  O38  1  0.15768694  0.19383020  0.40725176  1
  O  O39  1  0.03281748  0.19428463  0.90609920  1
  O  O40  1  0.16763503  0.96931516  0.90779697  1
  O  O41  1  0.80065466  0.83127470  0.90941732  1
  O  O42  1  0.98738764  0.17799994  0.59381433  1
  O  O43  1  0.19226542  0.01646222  0.59410643  1
  O  O44  1  0.82421304  0.80820639  0.59348358  1
  O  O45  1  0.98480792  0.80661078  0.09193669  1
  O  O46  1  0.82543198  0.01095641  0.09596822  1
  O  O47  1  0.18396951  0.17125655  0.09559212  1
  O  O48  1  0.70359564  0.16890413  0.74471583  1
  O  O49  1  0.45986639  0.29596383  0.74439372  1
  O  O50  1  0.82678352  0.53617671  0.74503387  1
  O  O51  1  0.70946964  0.53733068  0.24634590  1
  O  O52  1  0.83896874  0.30034677  0.24530954  1
  O  O53  1  0.46575488  0.16772376  0.24743379  1
  O  O54  1  0.64775143  0.51308087  0.92314905  1
  O  O55  1  0.85976049  0.35252789  0.92324327  1
  O  O56  1  0.48545316  0.13504329  0.92189474  1
  O  O57  1  0.64508611  0.13228864  0.42555933  1
  O  O58  1  0.48806849  0.34893681  0.42576954  1
  O  O59  1  0.85972535  0.50492632  0.42541289  1
  O  O60  1  0.34659842  0.49679085  0.07246348  1
  O  O61  1  0.14529117  0.65216270  0.07486389  1
  O  O62  1  0.49911017  0.84681360  0.07128204  1
  O  O63  1  0.35058406  0.85867302  0.57307897  1
  O  O64  1  0.50925956  0.65254180  0.57306151  1
  O  O65  1  0.14210338  0.49284510  0.57326519  1
  O  O66  1  0.29595498  0.83070247  0.25313494  1
  O  O67  1  0.53696986  0.70256078  0.25347896  1
  O  O68  1  0.16032399  0.45915850  0.25327161  1
  O  O69  1  0.29975864  0.45479731  0.75553875  1
  O  O70  1  0.16241327  0.70505809  0.75566843  1
  O  O71  1  0.54143963  0.83317908  0.75716810  1
loop_
_geom_bond_atom_site_label_1
_geom_bond_atom_site_label_2
_geom_bond_distance
_geom_bond_site_symmetry_2
Na0 O55 2.534758 1_555
Na0 O48 2.565682 1_555
Na0 O50 2.574336 1_555
Na0 O56 2.619940 1_555
Na0 O54 2.626030 1_555
Na0 O49 2.672269 1_555
Na1 O51 2.494608 1_555
Na1 O53 2.496106 1_555
Na1 O52 2.598353 1_555
Na1 O59 2.650478 1_555
Na1 O58 2.658178 1_555
Na1 O57 2.749816 1_555
Na2 O67 2.488760 1_555
Na2 O66 2.495546 1_555
Na2 O68 2.599087 1_555
Na2 O62 2.642725 1_555
Na2 O60 2.676970 1_555
Na2 O61 2.680554 1_555
O0 P0 1.577653 1_545
O0 Ti0 1.852629 1_545
O1 P1 1.564823 1_555
O1 Ti0 1.901980 1_655
O2 S0 1.473250 1_555
O2 Ti0 2.140955 1_645
O3 S1 1.481135 1_555
O3 Ti1 2.067505 1_455
O4 P2 1.544273 1_555
O4 Ti1 1.940598 1_565
O5 P3 1.565438 1_555
O5 Ti1 1.875128 1_555
O6 P3 1.566115 1_565
O6 Ti2 1.858289 1_555
O7 S1 1.489163 1_555
O7 Ti2 2.007181 1_445
O8 P2 1.577853 1_455
O8 Ti2 1.831987 1_455
O9 P1 1.553043 1_555
O9 Ti3 1.904392 1_555
O10 S0 1.486259 1_455
O10 Ti3 2.011876 1_445
O11 P0 1.539247 1_555
O11 Ti3 1.945443 1_455
O12 S2 1.482812 1_555
O12 Sc0 2.097777 1_555
O13 S3 1.482117 1_555
O13 Sc0 2.119722 1_555
O14 S4 1.475891 1_555
O14 Sc0 2.160586 1_555
O15 S5 1.468858 1_555
O15 Sc1 2.205282 1_555
O16 P4 1.529815 1_555
O16 Sc1 2.062192 1_555
O17 P5 1.530817 1_555
O17 Sc1 2.016945 1_555
O18 P5 1.524050 1_555
O18 Sc2 2.036229 1_554
O19 S5 1.473178 1_555
O19 Sc2 2.113636 1_554
O20 P4 1.532425 1_555
O20 Sc2 1.977060 1_554
O21 S3 1.477966 1_555
O21 Sc3 2.113530 1_555
O22 S4 1.476434 1_555
O22 Sc3 2.094394 1_555
O23 S2 1.473046 1_555
O23 Sc3 2.148548 1_555
O24 S6 1.495606 1_555
O24 Ti4 2.034673 1_556
O25 P6 1.573150 1_555
O25 Ti4 1.901247 1_556
O26 S7 1.481374 1_555
O26 Ti4 2.156862 1_556
O27 S8 1.503650 1_555
O27 Ti5 2.033576 1_555
O28 P7 1.596215 1_555
O28 Ti5 1.845941 1_555
O29 P8 1.588370 1_555
O29 Ti5 1.849682 1_555
O30 P8 1.511589 1_555
O30 Sc4 2.041379 1_555
O31 S8 1.472424 1_555
O31 Sc4 2.093490 1_555
O32 P7 1.516550 1_555
O32 Sc4 2.026745 1_555
O33 P6 1.520892 1_555
O33 Sc5 2.021424 1_555
O34 S7 1.473810 1_555
O34 Sc5 2.094607 1_555
O35 S6 1.462895 1_555
O35 Sc5 2.174631 1_555
O36 P8 1.551166 1_555
O36 Ti0 1.895452 1_555
O37 S8 1.463822 1_555
O37 Ti0 2.137699 1_655
O38 P7 1.537213 1_555
O38 Ti0 1.953756 1_545
O39 P6 1.567886 1_555
O39 Ti1 1.891388 1_455
O40 S7 1.486964 1_555
O40 Ti1 2.053526 1_465
O41 S6 1.500069 1_555
O41 Ti1 1.984092 1_565
O42 S2 1.476728 1_555
O42 Ti2 2.089557 1_545
O43 S3 1.488863 1_555
O43 Ti2 2.044134 1_445
O44 S4 1.500577 1_555
O44 Ti2 1.967378 1_555
O45 S5 1.477422 1_555
O45 Ti3 2.011166 1_555
O46 P4 1.548134 1_555
O46 Ti3 1.900646 1_545
O47 P5 1.535501 1_555
O47 Ti3 1.935373 1_445
O48 P3 1.537463 1_555
O48 Sc0 2.047522 1_555
O49 S1 1.484328 1_555
O49 Sc0 2.130343 1_555
O50 P2 1.536329 1_555
O50 Sc0 2.047818 1_555
O51 P1 1.533773 1_555
O51 Sc1 2.110851 1_555
O52 S0 1.479436 1_555
O52 Sc1 2.194344 1_555
O53 P0 1.537990 1_545
O53 Sc1 2.055838 1_555
O54 S6 1.474591 1_555
O54 Sc2 2.225057 1_555
O55 P6 1.529951 1_655
O55 Sc2 2.095889 1_555
O56 S7 1.488764 1_545
O56 Sc2 2.120594 1_555
O57 S8 1.485967 1_545
O57 Sc3 2.090455 1_555
O58 P7 1.535225 1_555
O58 Sc3 2.015370 1_555
O59 P8 1.529645 1_655
O59 Sc3 2.030773 1_555
O60 P5 1.591355 1_555
O60 Ti4 1.857654 1_555
O61 S5 1.507006 1_455
O61 Ti4 2.025237 1_555
O62 P4 1.570567 1_565
O62 Ti4 1.940940 1_555
O63 S3 1.482345 1_565
O63 Ti5 2.095154 1_555
O64 S4 1.475975 1_555
O64 Ti5 2.109198 1_555
O65 S2 1.498563 1_455
O65 Ti5 1.999431 1_555
O66 P0 1.530859 1_555
O66 Sc4 2.093698 1_555
O67 P1 1.537014 1_555
O67 Sc4 2.072705 1_555
O68 S0 1.487243 1_455
O68 Sc4 2.122439 1_555
O69 S1 1.463772 1_555
O69 Sc5 2.103711 1_555
O70 P2 1.514407 1_455
O70 Sc5 2.002263 1_555
O71 P3 1.507595 1_565
O71 Sc5 2.046910 1_555
