# generated using pymatgen
data_MgZn(NiO2)4
_symmetry_space_group_name_H-M   'P 1'
_cell_length_a   2.90305481
_cell_length_b   7.93966076
_cell_length_c   7.74400859
_cell_angle_alpha   65.68808709
_cell_angle_beta   79.19649257
_cell_angle_gamma   79.47217147
_symmetry_Int_Tables_number   1
_chemical_formula_structural   MgZn(NiO2)4
_chemical_formula_sum   'Mg1 Zn1 Ni4 O8'
_cell_volume   158.66695172
_cell_formula_units_Z   1
loop_
 _symmetry_equiv_pos_site_id
 _symmetry_equiv_pos_as_xyz
  1  'x, y, z'
loop_
 _atom_site_type_symbol
 _atom_site_label
 _atom_site_symmetry_multiplicity
 _atom_site_fract_x
 _atom_site_fract_y
 _atom_site_fract_z
 _atom_site_occupancy
  Mg  Mg0  1  0.49835516  0.43679292  0.56654288  1
  Zn  Zn0  1  0.34381581  0.17500064  0.13714668  1
  Ni  Ni0  1  0.68339001  0.09690968  0.53620418  1
  Ni  Ni1  1  0.13258951  0.53258544  0.20272498  1
  Ni  Ni2  1  0.80902428  0.51653308  0.86573476  1
  Ni  Ni3  1  0.37575220  0.80347907  0.44519738  1
  O  O0  1  0.89400597  0.61546687  0.59669509  1
  O  O1  1  0.39489441  0.34939349  0.86107859  1
  O  O2  1  0.53442522  0.64477587  0.28688422  1
  O  O3  1  0.10920628  0.28681427  0.49478149  1
  O  O4  1  0.22170191  0.92655655  0.62981744  1
  O  O5  1  0.73495939  0.39835649  0.13208433  1
  O  O6  1  0.84369254  0.01351636  0.29878193  1
  O  O7  1  0.22167030  0.66140927  0.89548907  1
loop_
_geom_bond_atom_site_label_1
_geom_bond_atom_site_label_2
_geom_bond_distance
_geom_bond_site_symmetry_2
Mg0 O3 2.067577 1_555
Mg0 O3 2.067677 1_655
Mg0 O1 2.071297 1_555
Mg0 O0 2.086808 1_455
Mg0 O0 2.086857 1_555
Mg0 O2 2.112216 1_555
Ni0 O4 1.908415 1_645
Ni0 O4 1.908449 1_545
Ni0 O3 2.009622 1_555
Ni0 O3 2.009628 1_655
Ni0 O6 2.145797 1_555
Ni1 O2 1.929192 1_555
Ni1 O2 1.929286 1_455
Ni1 O5 1.983288 1_555
Ni1 O5 1.983400 1_455
Ni1 O7 2.153141 1_554
Ni1 O3 2.298794 1_555
Ni2 O5 1.869463 1_556
Ni2 O0 1.883932 1_555
Ni2 O7 1.906963 1_655
Ni2 O7 1.907320 1_555
Ni2 O1 1.961212 1_555
Ni2 O1 1.961303 1_655
Ni3 O4 1.987444 1_555
Ni3 O2 2.037429 1_555
Ni3 O0 2.065520 1_455
Ni3 O0 2.065735 1_555
Ni3 O6 2.146035 1_565
Ni3 O6 2.147257 1_465
O1 Zn0 2.007099 1_556
O5 Zn0 2.256964 1_655
O5 Zn0 2.257805 1_555
O6 Zn0 1.999026 1_655
O6 Zn0 1.999028 1_555
