# generated using pymatgen
data_YN
_symmetry_space_group_name_H-M   'P 1'
_cell_length_a   3.46250654
_cell_length_b   3.46250607
_cell_length_c   3.46250559
_cell_angle_alpha   59.99999490
_cell_angle_beta   59.99999929
_cell_angle_gamma   59.99999508
_symmetry_Int_Tables_number   1
_chemical_formula_structural   YN
_chemical_formula_sum   'Y1 N1'
_cell_volume   29.35327724
_cell_formula_units_Z   1
loop_
 _symmetry_equiv_pos_site_id
 _symmetry_equiv_pos_as_xyz
  1  'x, y, z'
loop_
 _atom_site_type_symbol
 _atom_site_label
 _atom_site_symmetry_multiplicity
 _atom_site_fract_x
 _atom_site_fract_y
 _atom_site_fract_z
 _atom_site_occupancy
  Y  Y0  1  -0.00000000  -0.00000000  0.00000000  1
  N  N0  1  0.50000000  0.50000000  0.50000000  1
loop_
_geom_bond_atom_site_label_1
_geom_bond_atom_site_label_2
_geom_bond_distance
_geom_bond_site_symmetry_2
N0 Y0 2.448361 1_566
N0 Y0 2.448361 1_655
N0 Y0 2.448361 1_656
N0 Y0 2.448361 1_565
N0 Y0 2.448362 1_556
N0 Y0 2.448362 1_665
