# generated using pymatgen
data_Ti3Pt
_symmetry_space_group_name_H-M   'P 1'
_cell_length_a   5.02576360
_cell_length_b   5.02576360
_cell_length_c   5.02576360
_cell_angle_alpha   90.00000000
_cell_angle_beta   90.00000000
_cell_angle_gamma   90.00000000
_symmetry_Int_Tables_number   1
_chemical_formula_structural   Ti3Pt
_chemical_formula_sum   'Ti6 Pt2'
_cell_volume   126.94224355
_cell_formula_units_Z   2
loop_
 _symmetry_equiv_pos_site_id
 _symmetry_equiv_pos_as_xyz
  1  'x, y, z'
loop_
 _atom_site_type_symbol
 _atom_site_label
 _atom_site_symmetry_multiplicity
 _atom_site_fract_x
 _atom_site_fract_y
 _atom_site_fract_z
 _atom_site_occupancy
  Ti  Ti0  1  0.00000000  0.25000000  0.50000000  1
  Ti  Ti1  1  0.00000000  0.75000000  0.50000000  1
  Ti  Ti2  1  0.25000000  0.50000000  0.00000000  1
  Ti  Ti3  1  0.75000000  0.50000000  0.00000000  1
  Ti  Ti4  1  0.50000000  -0.00000000  0.25000000  1
  Ti  Ti5  1  0.50000000  -0.00000000  0.75000000  1
  Pt  Pt0  1  0.50000000  0.50000000  0.50000000  1
  Pt  Pt1  1  0.00000000  -0.00000000  0.00000000  1
loop_
_geom_bond_atom_site_label_1
_geom_bond_atom_site_label_2
_geom_bond_distance
_geom_bond_site_symmetry_2
Ti0 Ti1 2.512882 1_545
Ti0 Ti1 2.512882 1_555
Ti2 Ti3 2.512882 1_455
Ti2 Ti3 2.512882 1_555
Ti4 Ti5 2.512882 1_555
Ti4 Ti5 2.512882 1_554
Pt0 Ti0 2.809487 1_555
Pt0 Ti4 2.809487 1_555
Pt0 Ti3 2.809487 1_556
Pt0 Ti0 2.809487 1_655
Pt0 Ti3 2.809487 1_555
Pt0 Ti2 2.809487 1_555
Pt0 Ti1 2.809487 1_555
Pt0 Ti4 2.809487 1_565
Pt0 Ti5 2.809487 1_555
Pt0 Ti2 2.809487 1_556
Pt0 Ti1 2.809487 1_655
Pt0 Ti5 2.809487 1_565
Pt1 Ti0 2.809487 1_555
Pt1 Ti2 2.809487 1_545
Pt1 Ti4 2.809487 1_455
Pt1 Ti0 2.809487 1_554
Pt1 Ti4 2.809487 1_555
Pt1 Ti5 2.809487 1_554
Pt1 Ti1 2.809487 1_545
Pt1 Ti2 2.809487 1_555
Pt1 Ti3 2.809487 1_445
Pt1 Ti1 2.809487 1_544
Pt1 Ti5 2.809487 1_454
Pt1 Ti3 2.809487 1_455
