# generated using pymatgen
data_Na3HoCl6
_symmetry_space_group_name_H-M   'P 1'
_cell_length_a   6.80506730
_cell_length_b   7.23486830
_cell_length_c   10.07975215
_cell_angle_alpha   90.00000000
_cell_angle_beta   90.84850233
_cell_angle_gamma   90.00000000
_symmetry_Int_Tables_number   1
_chemical_formula_structural   Na3HoCl6
_chemical_formula_sum   'Na6 Ho2 Cl12'
_cell_volume   496.20973848
_cell_formula_units_Z   2
loop_
 _symmetry_equiv_pos_site_id
 _symmetry_equiv_pos_as_xyz
  1  'x, y, z'
loop_
 _atom_site_type_symbol
 _atom_site_label
 _atom_site_symmetry_multiplicity
 _atom_site_fract_x
 _atom_site_fract_y
 _atom_site_fract_z
 _atom_site_occupancy
  Na  Na0  1  0.00000000  0.50000000  0.50000000  1
  Na  Na1  1  0.50000000  -0.00000000  -0.00000000  1
  Na  Na2  1  0.97513876  0.92180787  0.26003248  1
  Na  Na3  1  0.52486124  0.42180787  0.23996752  1
  Na  Na4  1  0.02486124  0.07819213  0.73996752  1
  Na  Na5  1  0.47513876  0.57819213  0.76003248  1
  Ho  Ho0  1  0.00000000  0.50000000  -0.00000000  1
  Ho  Ho1  1  0.50000000  -0.00000000  0.50000000  1
  Cl  Cl0  1  0.13998492  0.56475125  0.24039492  1
  Cl  Cl1  1  0.36001508  0.06475125  0.25960508  1
  Cl  Cl2  1  0.86001508  0.43524875  0.75960508  1
  Cl  Cl3  1  0.63998492  0.93524875  0.74039492  1
  Cl  Cl4  1  0.16896691  0.80595925  0.92066471  1
  Cl  Cl5  1  0.33103309  0.30595925  0.57933529  1
  Cl  Cl6  1  0.83103309  0.19404075  0.07933529  1
  Cl  Cl7  1  0.66896691  0.69404075  0.42066471  1
  Cl  Cl8  1  0.31628310  0.32043295  0.93534934  1
  Cl  Cl9  1  0.18371690  0.82043295  0.56465066  1
  Cl  Cl10  1  0.68371690  0.67956705  0.06465066  1
  Cl  Cl11  1  0.81628310  0.17956705  0.43534934  1
loop_
_geom_bond_atom_site_label_1
_geom_bond_atom_site_label_2
_geom_bond_distance
_geom_bond_site_symmetry_2
Cl0 Ho0 2.632503 1_555
Cl0 Na3 2.815956 1_555
Cl0 Na2 2.824427 1_455
Cl0 Na0 2.836927 1_555
Cl1 Ho1 2.632503 1_555
Cl1 Na2 2.815956 1_445
Cl1 Na3 2.824427 1_555
Cl1 Na1 2.836927 1_555
Cl2 Ho0 2.632503 1_656
Cl2 Na5 2.815956 1_555
Cl2 Na4 2.824427 1_655
Cl2 Na0 2.836927 1_655
Cl3 Ho1 2.632503 1_565
Cl3 Na4 2.815956 1_665
Cl3 Na5 2.824427 1_555
Cl3 Na1 2.836927 1_566
Cl4 Ho0 2.624642 1_556
Cl4 Na1 2.762539 1_566
Cl4 Na4 2.847000 1_565
Cl4 Na5 3.126983 1_555
Cl5 Ho1 2.624642 1_555
Cl5 Na0 2.762539 1_555
Cl5 Na5 2.847000 1_555
Cl5 Na4 3.126983 1_555
Cl6 Ho0 2.624642 1_655
Cl6 Na1 2.762539 1_555
Cl6 Na2 2.847000 1_545
Cl6 Na3 3.126983 1_555
Cl7 Ho1 2.624642 1_565
Cl7 Na0 2.762539 1_655
Cl7 Na3 2.847000 1_555
Cl7 Na2 3.126983 1_555
Cl8 Ho0 2.605090 1_556
Cl8 Na1 2.708878 1_556
Cl8 Na5 2.797444 1_555
Cl8 Na4 3.281352 1_555
Cl9 Ho1 2.605090 1_565
Cl9 Na0 2.708878 1_555
Cl9 Na4 2.797444 1_565
Cl9 Na5 3.281352 1_555
Cl10 Ho0 2.605090 1_655
Cl10 Na1 2.708878 1_565
Cl10 Na3 2.797444 1_555
Cl10 Na2 3.281352 1_555
Cl11 Ho1 2.605090 1_555
Cl11 Na0 2.708878 1_655
Cl11 Na2 2.797444 1_545
Cl11 Na3 3.281352 1_555
