# generated using pymatgen
data_La2Zr2SiS5O24
_symmetry_space_group_name_H-M   'P 1'
_cell_length_a   9.33780021
_cell_length_b   9.38770096
_cell_length_c   24.05295985
_cell_angle_alpha   90.17406877
_cell_angle_beta   90.04845172
_cell_angle_gamma   119.83200766
_symmetry_Int_Tables_number   1
_chemical_formula_structural   La2Zr2SiS5O24
_chemical_formula_sum   'La6 Zr6 Si3 S15 O72'
_cell_volume   1829.07731560
_cell_formula_units_Z   3
loop_
 _symmetry_equiv_pos_site_id
 _symmetry_equiv_pos_as_xyz
  1  'x, y, z'
loop_
 _atom_site_type_symbol
 _atom_site_label
 _atom_site_symmetry_multiplicity
 _atom_site_fract_x
 _atom_site_fract_y
 _atom_site_fract_z
 _atom_site_occupancy
  La  La0  1  0.99318886  0.00264796  0.36502021  1
  La  La1  1  0.00163692  0.00167484  0.86122742  1
  La  La2  1  0.67904896  0.33681295  0.68188917  1
  La  La3  1  0.65653498  0.33555260  0.18387379  1
  La  La4  1  0.65387768  0.32986171  0.98566581  1
  La  La5  1  0.33140948  0.66477216  0.80469257  1
  Zr  Zr0  1  0.00018140  0.00839612  0.63971229  1
  Zr  Zr1  1  0.00884787  0.00968409  0.14776728  1
  Zr  Zr2  1  0.67833379  0.32278100  0.47805157  1
  Zr  Zr3  1  0.33282323  0.66033155  0.02303188  1
  Zr  Zr4  1  0.33703709  0.66777031  0.52255746  1
  Zr  Zr5  1  0.34106451  0.67521938  0.31414863  1
  Si  Si0  1  0.96562602  0.33517197  0.58010164  1
  Si  Si1  1  0.35915197  0.33283510  0.08378449  1
  Si  Si2  1  0.60221141  0.94928181  0.41945228  1
  S  S0  1  0.27971407  0.98266683  0.25082652  1
  S  S1  1  0.70373660  0.71850459  0.25085528  1
  S  S2  1  0.01358995  0.29614139  0.24978183  1
  S  S3  1  0.27899709  0.27766233  0.74543678  1
  S  S4  1  0.99959580  0.72325591  0.74604139  1
  S  S5  1  0.72093708  0.99853447  0.74599599  1
  S  S6  1  0.36725319  0.03632190  0.57993035  1
  S  S7  1  0.66993524  0.63307517  0.58048289  1
  S  S8  1  0.97833218  0.64726129  0.08403153  1
  S  S9  1  0.66864099  0.02153133  0.08388655  1
  S  S10  1  0.61380142  0.66779636  0.91975037  1
  S  S11  1  0.05180854  0.38748148  0.92025353  1
  S  S12  1  0.33445195  0.94551904  0.91972012  1
  S  S13  1  0.35212473  0.40131158  0.41914793  1
  S  S14  1  0.05025749  0.65119311  0.41895832  1
  O  O0  1  0.20569502  0.01074928  0.30034195  1
  O  O1  1  0.80552351  0.79452022  0.30063445  1
  O  O2  1  0.98597473  0.19403324  0.29930432  1
  O  O3  1  0.20300946  0.18710730  0.79734298  1
  O  O4  1  0.98662663  0.80023644  0.79844804  1
  O  O5  1  0.81351476  0.01573397  0.79793707  1
  O  O6  1  0.81511784  0.98847326  0.69690625  1
  O  O7  1  0.17310934  0.18326472  0.69640820  1
  O  O8  1  0.00997892  0.82484465  0.69697350  1
  O  O9  1  0.78285169  0.82138134  0.20080521  1
  O  O10  1  0.03319165  0.20646332  0.20017859  1
  O  O11  1  0.17332033  0.96250267  0.20070504  1
  O  O12  1  0.89317669  0.37352193  0.63524034  1
  O  O13  1  0.46702271  0.09818299  0.63080996  1
  O  O14  1  0.63035331  0.53319432  0.63118034  1
  O  O15  1  0.91011912  0.53644606  0.13213016  1
  O  O16  1  0.62936280  0.09214382  0.13234243  1
  O  O17  1  0.47923430  0.37317436  0.13724156  1
  O  O18  1  0.43426064  0.28983990  0.02987005  1
  O  O19  1  0.87093327  0.57791548  0.03490393  1
  O  O20  1  0.71048072  0.12978991  0.03516138  1
  O  O21  1  0.45007163  0.15052887  0.53265711  1
  O  O22  1  0.69943021  0.55098413  0.53274165  1
  O  O23  1  0.83252809  0.30341265  0.52805729  1
  O  O24  1  0.51978344  0.67813983  0.96855774  1
  O  O25  1  0.15753370  0.48220849  0.96892026  1
  O  O26  1  0.32398603  0.84404448  0.96867921  1
  O  O27  1  0.50183796  0.83329749  0.47126306  1
  O  O28  1  0.32581577  0.48126237  0.46816382  1
  O  O29  1  0.15312939  0.67073707  0.46793721  1
  O  O30  1  0.12706903  0.62712217  0.36734604  1
  O  O31  1  0.48799570  0.85374561  0.36251120  1
  O  O32  1  0.36738891  0.49974637  0.36769776  1
  O  O33  1  0.12846384  0.47848898  0.86849642  1
  O  O34  1  0.34704629  0.86740289  0.86764173  1
  O  O35  1  0.52064912  0.65075752  0.86800678  1
  O  O36  1  0.03304024  0.79750946  0.41314426  1
  O  O37  1  0.78371533  0.97245561  0.41253340  1
  O  O38  1  0.20592134  0.23722917  0.41274936  1
  O  O39  1  0.04421327  0.22621005  0.91867809  1
  O  O40  1  0.18277761  0.95880907  0.91823155  1
  O  O41  1  0.77548989  0.82088957  0.91863657  1
  O  O42  1  0.98378830  0.16990194  0.59410778  1
  O  O43  1  0.19984778  0.01826608  0.59007639  1
  O  O44  1  0.81825852  0.79946362  0.59130915  1
  O  O45  1  0.99819549  0.81195332  0.09818933  1
  O  O46  1  0.81117184  0.99594422  0.09785155  1
  O  O47  1  0.17576279  0.17372154  0.10143005  1
  O  O48  1  0.69801548  0.14156174  0.74050157  1
  O  O49  1  0.44360791  0.29758363  0.73853314  1
  O  O50  1  0.85280058  0.55882683  0.74180581  1
  O  O51  1  0.67959704  0.55222750  0.24294886  1
  O  O52  1  0.87219198  0.31991160  0.23861456  1
  O  O53  1  0.44769377  0.11959628  0.24108465  1
  O  O54  1  0.63640738  0.52450692  0.92580737  1
  O  O55  1  0.88717370  0.36750359  0.92773669  1
  O  O56  1  0.48193330  0.10950235  0.92452878  1
  O  O57  1  0.61818117  0.13226584  0.43082203  1
  O  O58  1  0.50255921  0.38873509  0.42794123  1
  O  O59  1  0.88303711  0.50326807  0.42697994  1
  O  O60  1  0.33246205  0.48946660  0.06761091  1
  O  O61  1  0.14690496  0.67392371  0.07073767  1
  O  O62  1  0.52419244  0.85645341  0.07043456  1
  O  O63  1  0.33941481  0.86881728  0.56748589  1
  O  O64  1  0.52817063  0.66040231  0.56862120  1
  O  O65  1  0.14561495  0.48431902  0.56202973  1
  O  O66  1  0.28900861  0.82741141  0.25863081  1
  O  O67  1  0.53484741  0.70170515  0.25992978  1
  O  O68  1  0.16664039  0.45865662  0.25783764  1
  O  O69  1  0.28719770  0.43915655  0.74738535  1
  O  O70  1  0.15130492  0.70979933  0.74801332  1
  O  O71  1  0.55912307  0.84559708  0.74742211  1
loop_
_geom_bond_atom_site_label_1
_geom_bond_atom_site_label_2
_geom_bond_distance
_geom_bond_site_symmetry_2
La0 O37 2.160228 1_545
La0 O38 2.396256 1_655
La0 O1 2.420178 1_545
La0 O2 2.422506 1_555
La0 O36 2.431619 1_645
La0 O0 2.493872 1_655
La1 O40 2.362108 1_545
La1 O4 2.365262 1_445
La1 O5 2.376564 1_455
La1 O39 2.378721 1_555
La1 O3 2.385742 1_555
La1 O41 2.387454 1_445
La2 O12 2.167087 1_555
La2 O50 2.380482 1_555
La2 O48 2.391005 1_555
La2 O14 2.437196 1_555
La2 O13 2.452387 1_555
La2 O49 2.455178 1_555
La3 O17 2.169066 1_555
La3 O51 2.397709 1_555
La3 O53 2.427902 1_555
La3 O52 2.470083 1_555
La3 O16 2.495509 1_555
La3 O15 2.507784 1_555
La4 O18 2.171802 1_556
La4 O56 2.385942 1_555
La4 O54 2.398049 1_555
La4 O55 2.460551 1_555
La4 O19 2.493324 1_556
La4 O20 2.494911 1_556
La5 O70 2.360627 1_555
La5 O34 2.374479 1_555
La5 O69 2.380706 1_555
La5 O35 2.384757 1_555
La5 O71 2.393428 1_555
La5 O33 2.393475 1_555
O0 S0 1.465080 1_545
O1 S1 1.471159 1_555
O2 S2 1.471644 1_655
O3 S3 1.480780 1_555
O4 S4 1.485821 1_555
O5 S5 1.480642 1_545
O6 S5 1.503409 1_555
O6 Zr0 2.144246 1_665
O7 S3 1.507838 1_555
O7 Zr0 2.123059 1_555
O8 S4 1.492277 1_455
O8 Zr0 2.246229 1_565
O9 S1 1.492136 1_555
O9 Zr1 2.347869 1_665
O10 S2 1.520962 1_555
O10 Zr1 2.149654 1_555
O11 S0 1.511861 1_555
O11 Zr1 2.202981 1_565
O12 Si0 1.608466 1_555
O13 S6 1.469135 1_555
O14 S7 1.471633 1_555
O15 S8 1.475022 1_555
O16 S9 1.473184 1_555
O17 Si1 1.620539 1_555
O18 Si1 1.617561 1_555
O19 S8 1.472973 1_555
O20 S9 1.473778 1_555
O21 S6 1.491452 1_555
O21 Zr2 2.339136 1_555
O22 S7 1.481457 1_555
O22 Zr2 2.433364 1_555
O23 Si0 1.681380 1_555
O23 Zr2 1.952369 1_555
O24 S10 1.498074 1_555
O24 Zr3 2.123057 1_556
O25 S11 1.501319 1_555
O25 Zr3 2.104610 1_556
O26 S12 1.489354 1_555
O26 Zr3 2.201240 1_556
O27 Si2 1.616143 1_555
O27 Zr4 1.985133 1_555
O28 S13 1.480620 1_555
O28 Zr4 2.142803 1_555
O29 S14 1.471640 1_555
O29 Zr4 2.172528 1_555
O30 S14 1.505892 1_555
O30 Zr5 2.223577 1_555
O31 Si2 1.689985 1_555
O31 Zr5 1.934458 1_555
O32 S13 1.510601 1_555
O32 Zr5 2.201860 1_555
O33 S11 1.480412 1_555
O34 S12 1.483638 1_555
O35 S10 1.479774 1_555
O36 S14 1.467293 1_555
O37 Si2 1.606670 1_555
O38 S13 1.471793 1_555
O39 S11 1.480332 1_555
O40 S12 1.482738 1_555
O41 S10 1.478925 1_555
O42 Si0 1.677587 1_555
O42 Zr0 1.940662 1_655
O43 S6 1.506371 1_555
O43 Zr0 2.177769 1_555
O44 S7 1.506801 1_555
O44 Zr0 2.180845 1_665
O45 S8 1.500705 1_555
O45 Zr1 2.163379 1_665
O46 S9 1.503226 1_565
O46 Zr1 2.150292 1_665
O47 Si1 1.674508 1_555
O47 Zr1 1.915281 1_555
O48 S5 1.467334 1_545
O49 S3 1.462824 1_555
O50 S4 1.471639 1_555
O51 S1 1.473644 1_555
O52 S2 1.469067 1_655
O53 S0 1.471077 1_545
O54 S10 1.469313 1_555
O55 S11 1.464501 1_655
O56 S12 1.472806 1_545
O57 Si2 1.670353 1_545
O57 Zr2 1.947265 1_555
O58 S13 1.482088 1_555
O58 Zr2 2.354232 1_555
O59 S14 1.499540 1_655
O59 Zr2 2.197266 1_555
O60 Si1 1.656342 1_555
O60 Zr3 1.930733 1_555
O61 S8 1.500675 1_455
O61 Zr3 2.137701 1_555
O62 S9 1.497387 1_565
O62 Zr3 2.143245 1_555
O63 S6 1.490031 1_565
O63 Zr4 2.162489 1_555
O64 S7 1.495747 1_555
O64 Zr4 2.130192 1_555
O65 Si0 1.624125 1_455
O65 Zr4 2.003113 1_555
O66 S0 1.514774 1_555
O66 Zr5 2.182252 1_555
O67 S1 1.520839 1_555
O67 Zr5 2.143643 1_555
O68 S2 1.495344 1_555
O68 Zr5 2.303390 1_555
O69 S3 1.480053 1_555
O70 S4 1.484257 1_455
O71 S5 1.479062 1_555
