# generated using pymatgen
data_MgTi2Zn2O6
_symmetry_space_group_name_H-M   'P 1'
_cell_length_a   6.03703251
_cell_length_b   6.03703224
_cell_length_c   6.03703317
_cell_angle_alpha   50.76844087
_cell_angle_beta   50.76844294
_cell_angle_gamma   50.76843878
_symmetry_Int_Tables_number   1
_chemical_formula_structural   MgTi2Zn2O6
_chemical_formula_sum   'Mg1 Ti2 Zn2 O6'
_cell_volume   121.70418759
_cell_formula_units_Z   1
loop_
 _symmetry_equiv_pos_site_id
 _symmetry_equiv_pos_as_xyz
  1  'x, y, z'
loop_
 _atom_site_type_symbol
 _atom_site_label
 _atom_site_symmetry_multiplicity
 _atom_site_fract_x
 _atom_site_fract_y
 _atom_site_fract_z
 _atom_site_occupancy
  Mg  Mg0  1  0.00000000  0.00000000  0.00000000  1
  Ti  Ti0  1  0.17664300  0.17664300  0.17664300  1
  Ti  Ti1  1  0.82335700  0.82335700  0.82335700  1
  Zn  Zn0  1  0.38955700  0.38955700  0.38955700  1
  Zn  Zn1  1  0.61044300  0.61044300  0.61044300  1
  O  O0  1  0.79839300  0.41071300  0.05465200  1
  O  O1  1  0.41071300  0.05465200  0.79839300  1
  O  O2  1  0.05465200  0.79839300  0.41071300  1
  O  O3  1  0.20160700  0.58928700  0.94534800  1
  O  O4  1  0.94534800  0.20160700  0.58928700  1
  O  O5  1  0.58928700  0.94534800  0.20160700  1
loop_
_geom_bond_atom_site_label_1
_geom_bond_atom_site_label_2
_geom_bond_distance
_geom_bond_site_symmetry_2
Mg0 O0 2.108946 1_455
Mg0 O3 2.108946 1_544
Mg0 O1 2.108946 1_554
Mg0 O5 2.108946 1_445
Mg0 O2 2.108946 1_545
Mg0 O4 2.108946 1_454
O0 Zn0 1.988934 1_555
O0 Ti1 1.996750 1_554
O0 Ti0 2.117271 1_655
O1 Zn0 1.988934 1_555
O1 Ti1 1.996751 1_545
O1 Ti0 2.117272 1_556
O2 Zn0 1.988933 1_555
O2 Ti1 1.996751 1_455
O2 Ti0 2.117271 1_565
O3 Zn1 1.988934 1_555
O3 Ti0 1.996750 1_556
O3 Ti1 2.117271 1_455
O4 Zn1 1.988933 1_555
O4 Ti0 1.996751 1_655
O4 Ti1 2.117271 1_545
O5 Zn1 1.988934 1_555
O5 Ti0 1.996751 1_565
O5 Ti1 2.117272 1_554
