# generated using pymatgen
data_K4MgV4O10
_symmetry_space_group_name_H-M   'P 1'
_cell_length_a   6.22685020
_cell_length_b   6.44473312
_cell_length_c   8.70388712
_cell_angle_alpha   100.65283995
_cell_angle_beta   106.82210880
_cell_angle_gamma   106.44241191
_symmetry_Int_Tables_number   1
_chemical_formula_structural   K4MgV4O10
_chemical_formula_sum   'K4 Mg1 V4 O10'
_cell_volume   306.83344651
_cell_formula_units_Z   1
loop_
 _symmetry_equiv_pos_site_id
 _symmetry_equiv_pos_as_xyz
  1  'x, y, z'
loop_
 _atom_site_type_symbol
 _atom_site_label
 _atom_site_symmetry_multiplicity
 _atom_site_fract_x
 _atom_site_fract_y
 _atom_site_fract_z
 _atom_site_occupancy
  K  K0  1  0.59095725  0.13214922  0.22057733  1
  K  K1  1  0.40598198  0.79927519  0.77001667  1
  K  K2  1  0.07157713  0.57216129  0.22972188  1
  K  K3  1  0.82959205  0.47325536  0.78883008  1
  Mg  Mg0  1  0.14542274  0.17050198  0.74568209  1
  V  V0  1  0.97180274  0.02601151  0.00029432  1
  V  V1  1  0.49968657  0.57199644  0.07802951  1
  V  V2  1  0.23176143  0.12520692  0.45336164  1
  V  V3  1  0.68500490  0.82818279  0.50044614  1
  O  O0  1  0.28038725  0.24055470  0.98539487  1
  O  O1  1  0.28663889  0.70825578  0.02273524  1
  O  O2  1  0.79410832  0.18394323  0.97878809  1
  O  O3  1  0.77301118  0.74657077  0.02220669  1
  O  O4  1  0.14886467  0.14929234  0.24766927  1
  O  O5  1  0.89178244  0.88893476  0.74100447  1
  O  O6  1  0.62469044  0.58481026  0.32231299  1
  O  O7  1  0.37276258  0.34895415  0.64991237  1
  O  O8  1  0.94076953  0.07871754  0.49552416  1
  O  O9  1  0.40819592  0.93372376  0.48186719  1
loop_
_geom_bond_atom_site_label_1
_geom_bond_atom_site_label_2
_geom_bond_distance
_geom_bond_site_symmetry_2
K0 O0 2.724061 1_554
K0 O1 2.731436 1_545
K0 O2 2.775271 1_554
K0 O6 2.815871 1_555
K0 O4 2.860809 1_555
K0 O8 2.881383 1_555
K0 O9 3.138790 1_545
K1 O1 2.628900 1_556
K1 O2 2.773007 1_565
K1 O9 2.803187 1_555
K1 O3 2.822808 1_556
K1 O7 2.823415 1_555
K1 O5 3.009133 1_555
K2 O1 2.669094 1_555
K2 O9 2.705822 1_555
K2 O2 2.713599 1_454
K2 O3 2.823490 1_455
K2 O4 2.922244 1_555
K2 O6 3.130761 1_455
K2 O6 3.275444 1_555
K3 O7 2.560586 1_555
K3 O3 2.606845 1_556
K3 O2 2.716054 1_555
K3 O5 2.723653 1_555
K3 O1 2.757617 1_656
Mg0 O0 1.919729 1_555
Mg0 O5 2.025337 1_445
Mg0 O7 2.034022 1_555
Mg0 O8 2.050802 1_455
O0 V1 2.037709 1_556
O0 V0 2.080215 1_456
O1 V1 1.791339 1_555
O2 V0 1.698060 1_556
O3 V0 1.952843 1_565
O3 V1 1.998818 1_555
O4 V2 1.763238 1_555
O4 V0 1.995094 1_455
O5 V3 2.011526 1_555
O5 V0 2.117738 1_566
O6 V3 1.853497 1_555
O6 V1 2.018480 1_555
O7 V2 1.810731 1_555
O8 V2 1.904165 1_655
O8 V3 1.937682 1_545
O9 V2 1.874669 1_565
O9 V3 2.000699 1_555
