# generated using pymatgen
data_Na6Y2Nb6Si9(SO16)3
_symmetry_space_group_name_H-M   'P 1'
_cell_length_a   18.07804504
_cell_length_b   9.08821251
_cell_length_c   23.11738990
_cell_angle_alpha   90.08719877
_cell_angle_beta   89.64411470
_cell_angle_gamma   120.11724361
_symmetry_Int_Tables_number   1
_chemical_formula_structural   Na6Y2Nb6Si9(SO16)3
_chemical_formula_sum   'Na18 Y6 Nb18 Si27 S9 O144'
_cell_volume   3285.30694650
_cell_formula_units_Z   3
loop_
 _symmetry_equiv_pos_site_id
 _symmetry_equiv_pos_as_xyz
  1  'x, y, z'
loop_
 _atom_site_type_symbol
 _atom_site_label
 _atom_site_symmetry_multiplicity
 _atom_site_fract_x
 _atom_site_fract_y
 _atom_site_fract_z
 _atom_site_occupancy
  Na  Na0  1  0.32333128  0.01697433  0.25506596  1
  Na  Na1  1  0.68629685  0.37409806  0.24537451  1
  Na  Na2  1  0.49133189  0.61956563  0.24960118  1
  Na  Na3  1  0.82277632  0.63082187  0.75335071  1
  Na  Na4  1  0.99188959  0.36215820  0.74741289  1
  Na  Na5  1  0.18699474  0.00319151  0.74214372  1
  Na  Na6  1  0.00327189  0.01039282  0.50008294  1
  Na  Na7  1  0.50716430  0.99795545  0.49817401  1
  Na  Na8  1  0.00697924  0.01778980  0.99671878  1
  Na  Na9  1  0.50358306  0.99609612  0.99868904  1
  Na  Na10  1  0.34172221  0.33020917  0.83355128  1
  Na  Na11  1  0.82926246  0.32189803  0.82580669  1
  Na  Na12  1  0.32833867  0.34013158  0.33239694  1
  Na  Na13  1  0.84142906  0.35294531  0.33780265  1
  Na  Na14  1  0.16666932  0.65122082  0.16663843  1
  Na  Na15  1  0.67295569  0.67239819  0.16463794  1
  Na  Na16  1  0.17474634  0.67334680  0.66226883  1
  Na  Na17  1  0.65781952  0.67019843  0.66027756  1
  Y  Y0  1  0.50004015  0.00075714  0.35960340  1
  Y  Y1  1  0.99993380  0.00007636  0.85912695  1
  Y  Y2  1  0.33889686  0.33514512  0.68041508  1
  Y  Y3  1  0.82622025  0.31725989  0.68338834  1
  Y  Y4  1  0.32576116  0.33563764  0.18390228  1
  Y  Y5  1  0.83564806  0.33886818  0.18202681  1
  Nb  Nb0  1  0.00214122  0.98692095  0.36022549  1
  Nb  Nb1  1  0.50206323  0.01773111  0.85845856  1
  Nb  Nb2  1  0.99672668  0.98958667  0.64343721  1
  Nb  Nb3  1  0.49831470  0.01779518  0.63907316  1
  Nb  Nb4  1  0.99971398  0.99423113  0.14483398  1
  Nb  Nb5  1  0.49703816  0.00332015  0.14382819  1
  Nb  Nb6  1  0.33109449  0.34987769  0.97624822  1
  Nb  Nb7  1  0.82613945  0.30495686  0.97832083  1
  Nb  Nb8  1  0.33346517  0.34667371  0.48347713  1
  Nb  Nb9  1  0.83084308  0.31071114  0.47674027  1
  Nb  Nb10  1  0.16978237  0.65979740  0.01368429  1
  Nb  Nb11  1  0.65919034  0.66265671  0.02272766  1
  Nb  Nb12  1  0.15935205  0.65343413  0.52276175  1
  Nb  Nb13  1  0.66344776  0.67016014  0.51570691  1
  Nb  Nb14  1  0.16397666  0.65903072  0.31338352  1
  Nb  Nb15  1  0.66897716  0.65582564  0.31828489  1
  Nb  Nb16  1  0.16877359  0.68228121  0.81679050  1
  Nb  Nb17  1  0.66092929  0.66580167  0.81023247  1
  Si  Si0  1  0.14019226  0.98881592  0.25180782  1
  Si  Si1  1  0.35285924  0.71108646  0.25126142  1
  Si  Si2  1  0.85629384  0.71674247  0.25293880  1
  Si  Si3  1  0.50314933  0.29716698  0.24987470  1
  Si  Si4  1  0.63999870  0.28788333  0.75051654  1
  Si  Si5  1  0.00284574  0.71018417  0.75020888  1
  Si  Si6  1  0.35693691  0.99734184  0.75191052  1
  Si  Si7  1  0.85299668  0.99511343  0.75156436  1
  Si  Si8  1  0.48352327  0.34357856  0.57997834  1
  Si  Si9  1  0.97623884  0.32490951  0.58531385  1
  Si  Si10  1  0.18600309  0.03680539  0.58370690  1
  Si  Si11  1  0.68399458  0.03363148  0.58195867  1
  Si  Si12  1  0.33294717  0.63147648  0.58472548  1
  Si  Si13  1  0.47603374  0.62727987  0.08512932  1
  Si  Si14  1  0.83357869  0.03345194  0.08338067  1
  Si  Si15  1  0.18324345  0.33501041  0.08173927  1
  Si  Si16  1  0.68595936  0.33458352  0.08372848  1
  Si  Si17  1  0.31309799  0.67003570  0.91329606  1
  Si  Si18  1  0.01805860  0.38119518  0.91620664  1
  Si  Si19  1  0.52202109  0.38463602  0.91807704  1
  Si  Si20  1  0.17022620  0.96321924  0.92243819  1
  Si  Si21  1  0.66355230  0.94588258  0.91527990  1
  Si  Si22  1  0.81137442  0.95099020  0.41594713  1
  Si  Si23  1  0.16835450  0.37868677  0.41623906  1
  Si  Si24  1  0.67160577  0.37763030  0.42196154  1
  Si  Si25  1  0.02158665  0.65820075  0.41849951  1
  Si  Si26  1  0.51634624  0.65397524  0.41573792  1
  S  S0  1  0.64434079  0.99462896  0.24824487  1
  S  S1  1  0.00284609  0.28378708  0.25207073  1
  S  S2  1  0.14473243  0.29538214  0.74888180  1
  S  S3  1  0.50115474  0.72071681  0.75322114  1
  S  S4  1  0.83263523  0.63014157  0.58176390  1
  S  S5  1  0.98464482  0.63389985  0.07997710  1
  S  S6  1  0.33174361  0.03399725  0.08180638  1
  S  S7  1  0.80460599  0.65402855  0.91845086  1
  S  S8  1  0.30374183  0.95308598  0.41781160  1
  O  O0  1  0.09068661  0.01289928  0.30739562  1
  O  O1  1  0.60748876  0.02143824  0.30081805  1
  O  O2  1  0.41250448  0.79876228  0.30525284  1
  O  O3  1  0.91563846  0.82435657  0.30784463  1
  O  O4  1  0.49205587  0.18246959  0.30447770  1
  O  O5  1  0.99434085  0.18530965  0.30386774  1
  O  O6  1  0.10677265  0.19468063  0.80156946  1
  O  O7  1  0.59157188  0.16917236  0.80782494  1
  O  O8  1  0.49600842  0.80568538  0.80587463  1
  O  O9  1  0.99186935  0.80073948  0.80575343  1
  O  O10  1  0.41558918  0.00668299  0.80803088  1
  O  O11  1  0.91153863  0.02644843  0.80652162  1
  O  O12  1  0.40412048  0.97879093  0.69341739  1
  O  O13  1  0.90379776  0.96654766  0.69395348  1
  O  O14  1  0.09091346  0.20834874  0.69679766  1
  O  O15  1  0.58250353  0.19080079  0.69331259  1
  O  O16  1  0.01698726  0.83724544  0.69247846  1
  O  O17  1  0.51343421  0.81563284  0.69970442  1
  O  O18  1  0.40434180  0.84105517  0.19309298  1
  O  O19  1  0.90515217  0.83211956  0.19363626  1
  O  O20  1  0.01361588  0.20630142  0.19771809  1
  O  O21  1  0.51692056  0.19634532  0.19154799  1
  O  O22  1  0.08203880  0.97573138  0.19387567  1
  O  O23  1  0.59079691  0.97500172  0.19595416  1
  O  O24  1  0.45250539  0.38182786  0.63979548  1
  O  O25  1  0.94875970  0.37017013  0.64515879  1
  O  O26  1  0.23421930  0.09757431  0.64502189  1
  O  O27  1  0.73795635  0.09792786  0.63924531  1
  O  O28  1  0.30968724  0.51577218  0.64096215  1
  O  O29  1  0.82127656  0.54210023  0.63753334  1
  O  O30  1  0.44824974  0.52656997  0.14468230  1
  O  O31  1  0.95067605  0.53789003  0.13468515  1
  O  O32  1  0.31914196  0.09740324  0.13704558  1
  O  O33  1  0.81566246  0.11283259  0.13939495  1
  O  O34  1  0.23697944  0.38028223  0.13910803  1
  O  O35  1  0.73576608  0.37076079  0.14438763  1
  O  O36  1  0.23401173  0.30984859  0.02522891  1
  O  O37  1  0.74200447  0.31147858  0.02981180  1
  O  O38  1  0.41332040  0.52201092  0.02954707  1
  O  O39  1  0.92930636  0.54728463  0.03064357  1
  O  O40  1  0.34374106  0.14436519  0.03230971  1
  O  O41  1  0.84762773  0.16294976  0.02604822  1
  O  O42  1  0.23824116  0.17042572  0.52967374  1
  O  O43  1  0.73518117  0.16306371  0.52556283  1
  O  O44  1  0.34843865  0.53346950  0.52757085  1
  O  O45  1  0.84533913  0.54325143  0.53263779  1
  O  O46  1  0.41792112  0.31339414  0.52604283  1
  O  O47  1  0.91400289  0.30480567  0.52960090  1
  O  O48  1  0.26701149  0.68931809  0.97200608  1
  O  O49  1  0.75967711  0.67172715  0.96832348  1
  O  O50  1  0.08213441  0.49178161  0.97024745  1
  O  O51  1  0.58227311  0.47393793  0.97320032  1
  O  O52  1  0.16609047  0.84277509  0.97590174  1
  O  O53  1  0.65580824  0.83239843  0.97102806  1
  O  O54  1  0.25889160  0.84596971  0.46754147  1
  O  O55  1  0.76776703  0.84049267  0.47316799  1
  O  O56  1  0.15589664  0.47831118  0.47032844  1
  O  O57  1  0.66748837  0.49150725  0.47362929  1
  O  O58  1  0.08226823  0.69038851  0.47300486  1
  O  O59  1  0.57997452  0.67193557  0.46950184  1
  O  O60  1  0.07109597  0.63936397  0.36045745  1
  O  O61  1  0.56744365  0.63789743  0.35642034  1
  O  O62  1  0.25598949  0.86876311  0.36166162  1
  O  O63  1  0.74972529  0.85800979  0.35936063  1
  O  O64  1  0.18017967  0.50078443  0.35835135  1
  O  O65  1  0.68257821  0.49316965  0.36016153  1
  O  O66  1  0.06622455  0.49643792  0.85729750  1
  O  O67  1  0.57062421  0.50340249  0.86093199  1
  O  O68  1  0.18135084  0.86837613  0.86175901  1
  O  O69  1  0.68014328  0.85856864  0.85803760  1
  O  O70  1  0.24931898  0.63917440  0.85914712  1
  O  O71  1  0.75737662  0.63661438  0.86287700  1
  O  O72  1  0.01198606  0.82964345  0.41072259  1
  O  O73  1  0.50912016  0.82108540  0.41874747  1
  O  O74  1  0.38911598  0.97127107  0.41571398  1
  O  O75  1  0.90736370  0.98033103  0.40732855  1
  O  O76  1  0.08243482  0.19149145  0.40668703  1
  O  O77  1  0.58787856  0.19617838  0.42048707  1
  O  O78  1  0.00793148  0.19765187  0.92024017  1
  O  O79  1  0.51210063  0.19421323  0.91055893  1
  O  O80  1  0.08661661  0.97788647  0.92190645  1
  O  O81  1  0.58168937  0.97278350  0.90810282  1
  O  O82  1  0.40747666  0.83486659  0.90858473  1
  O  O83  1  0.89033040  0.80594333  0.91705431  1
  O  O84  1  0.48856781  0.16527778  0.58546349  1
  O  O85  1  0.98624460  0.15348858  0.59105651  1
  O  O86  1  0.08965870  0.01980789  0.58993497  1
  O  O87  1  0.58987251  0.01916337  0.58996797  1
  O  O88  1  0.41991174  0.81802031  0.59205648  1
  O  O89  1  0.91411402  0.80456596  0.58538413  1
  O  O90  1  0.48660678  0.81916838  0.09047579  1
  O  O91  1  0.99068914  0.80536523  0.08606809  1
  O  O92  1  0.41213600  0.01955399  0.08494307  1
  O  O93  1  0.92043745  0.01882854  0.09144697  1
  O  O94  1  0.08898102  0.15918369  0.09053536  1
  O  O95  1  0.59073382  0.15905280  0.08869471  1
  O  O96  1  0.33856717  0.15487370  0.75367365  1
  O  O97  1  0.84165033  0.15835296  0.74650750  1
  O  O98  1  0.23069807  0.31637170  0.74396913  1
  O  O99  1  0.73832305  0.33487428  0.75020323  1
  O  O100  1  0.42628825  0.54617047  0.75237976  1
  O  O101  1  0.92072568  0.52325365  0.74466416  1
  O  O102  1  0.34144405  0.52537766  0.24608273  1
  O  O103  1  0.84062883  0.52397631  0.25194153  1
  O  O104  1  0.42029065  0.31743565  0.24359482  1
  O  O105  1  0.92881849  0.30941416  0.24775942  1
  O  O106  1  0.23762486  0.14066629  0.24933541  1
  O  O107  1  0.73051688  0.14660435  0.24262901  1
  O  O108  1  0.31972780  0.49664481  0.92133435  1
  O  O109  1  0.81203382  0.49818829  0.92362131  1
  O  O110  1  0.42776386  0.36338927  0.92678192  1
  O  O111  1  0.92640723  0.37839119  0.92701274  1
  O  O112  1  0.25949446  0.14639973  0.92801732  1
  O  O113  1  0.75014916  0.13910203  0.92437122  1
  O  O114  1  0.30869612  0.11970357  0.41995236  1
  O  O115  1  0.81958429  0.14065181  0.42187061  1
  O  O116  1  0.25221500  0.35761495  0.42411189  1
  O  O117  1  0.76058909  0.37137062  0.42665064  1
  O  O118  1  0.42464719  0.47589131  0.42233927  1
  O  O119  1  0.92788914  0.49084906  0.42560601  1
  O  O120  1  0.16713862  0.49676439  0.07026512  1
  O  O121  1  0.67277466  0.49635045  0.06977268  1
  O  O122  1  0.07250526  0.66251168  0.07340713  1
  O  O123  1  0.57313910  0.65941191  0.07081921  1
  O  O124  1  0.25784174  0.85769183  0.07499968  1
  O  O125  1  0.75409702  0.84585610  0.06781196  1
  O  O126  1  0.17209326  0.84761440  0.56929247  1
  O  O127  1  0.67169458  0.84576361  0.56899934  1
  O  O128  1  0.25420874  0.66320515  0.56730350  1
  O  O129  1  0.76003990  0.65955948  0.57539160  1
  O  O130  1  0.07330329  0.48607265  0.57115747  1
  O  O131  1  0.58180944  0.49762073  0.57023383  1
  O  O132  1  0.14430010  0.81097107  0.25925669  1
  O  O133  1  0.64842051  0.83522100  0.25133227  1
  O  O134  1  0.26000131  0.71009404  0.25590461  1
  O  O135  1  0.76046667  0.69931880  0.25776717  1
  O  O136  1  0.08317839  0.45801341  0.25528232  1
  O  O137  1  0.59242270  0.48799291  0.25341236  1
  O  O138  1  0.14781088  0.46273356  0.75253470  1
  O  O139  1  0.64474007  0.47515763  0.76051365  1
  O  O140  1  0.09255029  0.69792389  0.75438123  1
  O  O141  1  0.58134371  0.70189392  0.75774347  1
  O  O142  1  0.26077908  0.82145646  0.75951472  1
  O  O143  1  0.76003684  0.81016957  0.75724023  1
loop_
_geom_bond_atom_site_label_1
_geom_bond_atom_site_label_2
_geom_bond_distance
_geom_bond_site_symmetry_2
Na0 O106 2.330839 1_555
Na0 O104 2.406724 1_555
Na0 O134 2.425928 1_545
Na0 O62 2.774163 1_545
Na0 O132 2.811659 1_545
Na0 O32 2.836894 1_555
Na0 O4 2.881817 1_555
Na0 O18 3.011665 1_545
Na1 O137 2.396732 1_555
Na1 O103 2.419392 1_555
Na1 O35 2.500382 1_555
Na1 O107 2.564236 1_555
Na1 O135 2.577016 1_555
Na1 O65 2.877339 1_555
Na1 O21 2.934455 1_555
Na2 O104 2.381249 1_555
Na2 O102 2.399278 1_555
Na2 O133 2.514605 1_555
Na2 O30 2.561319 1_555
Na2 O137 2.640605 1_555
Na2 O61 2.798168 1_555
Na3 O99 2.334573 1_555
Na3 O143 2.409312 1_555
Na3 O101 2.421511 1_555
Na3 O29 2.791366 1_555
Na3 O139 2.795089 1_555
Na3 O71 2.799339 1_555
Na3 O9 2.915426 1_555
Na3 O13 2.973751 1_555
Na4 O101 2.386238 1_555
Na4 O97 2.400015 1_555
Na4 O138 2.492605 1_655
Na4 O25 2.506275 1_555
Na4 O140 2.660572 1_655
Na4 O66 2.852230 1_655
Na4 O11 2.970903 1_555
Na4 O14 3.001336 1_655
Na5 O96 2.386826 1_555
Na5 O26 2.398481 1_555
Na5 O140 2.436161 1_545
Na5 O98 2.543711 1_555
Na5 O142 2.624499 1_545
Na6 O85 2.567935 1_455
Na6 O86 2.581942 1_555
Na6 O89 2.632797 1_445
Na6 O76 2.650887 1_555
Na6 O72 2.689983 1_545
Na6 O75 2.692138 1_445
Na7 O77 2.437039 1_565
Na7 O73 2.450250 1_555
Na7 O87 2.554365 1_565
Na7 O84 2.644361 1_565
Na7 O88 2.692992 1_555
Na7 O74 2.788674 1_555
Na8 O80 2.384613 1_545
Na8 O78 2.403799 1_555
Na8 O94 2.583080 1_556
Na8 O93 2.686167 1_456
Na8 O83 2.740147 1_445
Na8 O91 2.741204 1_446
Na9 O81 2.585754 1_555
Na9 O90 2.586332 1_556
Na9 O95 2.587398 1_566
Na9 O82 2.642974 1_555
Na9 O92 2.658162 1_566
Na9 O79 2.673089 1_565
Na10 O96 2.419377 1_555
Na10 O100 2.583590 1_555
Na10 O110 2.593156 1_555
Na10 O108 2.673646 1_555
Na10 O112 2.692225 1_555
Na10 O98 2.851395 1_555
Na11 O97 2.437329 1_555
Na11 O99 2.449939 1_555
Na11 O101 2.556714 1_555
Na11 O113 2.753875 1_555
Na11 O111 2.822082 1_555
Na11 O109 2.873682 1_555
Na12 O102 2.544803 1_555
Na12 O116 2.568373 1_555
Na12 O106 2.589931 1_555
Na12 O118 2.599658 1_555
Na12 O104 2.705647 1_555
Na12 O114 2.743284 1_555
Na13 O119 2.489906 1_555
Na13 O103 2.527518 1_555
Na13 O117 2.567043 1_555
Na13 O115 2.625375 1_555
Na13 O105 2.751210 1_555
Na13 O107 2.940504 1_555
Na14 O134 2.554506 1_555
Na14 O136 2.621737 1_555
Na14 O120 2.633680 1_555
Na14 O132 2.724819 1_555
Na14 O124 2.755084 1_555
Na14 O122 2.788382 1_555
Na15 O137 2.581611 1_555
Na15 O135 2.617240 1_555
Na15 O133 2.653612 1_555
Na15 O125 2.701194 1_555
Na15 O121 2.711724 1_555
Na15 O123 2.794299 1_555
Na16 O128 2.642866 1_555
Na16 O140 2.661688 1_555
Na16 O142 2.686622 1_555
Na16 O126 2.686695 1_555
Na16 O138 2.705444 1_555
Na16 O130 2.756990 1_555
Na17 O131 2.558098 1_555
Na17 O127 2.581354 1_555
Na17 O129 2.721896 1_555
Na17 O141 2.725817 1_555
Na17 O143 2.782284 1_555
Na17 O139 2.855242 1_555
Nb0 O72 1.923659 1_555
Nb0 O0 1.925342 1_565
Nb0 O3 1.947831 1_455
Nb0 O75 1.999761 1_455
Nb0 O76 2.005545 1_565
Nb0 O5 2.287504 1_465
Nb1 O7 1.905037 1_555
Nb1 O10 1.917728 1_555
Nb1 O79 1.939290 1_555
Nb1 O82 2.039128 1_545
Nb1 O81 2.041599 1_545
Nb1 O8 2.232999 1_545
Nb2 O13 1.962979 1_555
Nb2 O16 1.963453 1_655
Nb2 O86 1.984904 1_665
Nb2 O85 2.003158 1_565
Nb2 O89 2.087305 1_555
Nb2 O14 2.234956 1_665
Nb3 O84 1.899547 1_555
Nb3 O88 1.979225 1_545
Nb3 O12 1.993149 1_545
Nb3 O15 1.994235 1_555
Nb3 O87 1.996118 1_555
Nb3 O17 2.435469 1_545
Nb4 O22 1.949662 1_655
Nb4 O19 1.954318 1_555
Nb4 O93 1.992845 1_565
Nb4 O94 1.994998 1_665
Nb4 O91 2.129087 1_555
Nb4 O20 2.186998 1_665
Nb5 O18 1.944573 1_545
Nb5 O21 1.946745 1_555
Nb5 O90 2.009381 1_545
Nb5 O95 2.017310 1_555
Nb5 O92 2.117653 1_555
Nb5 O23 2.203481 1_545
Nb6 O108 1.927792 1_555
Nb6 O36 1.957178 1_556
Nb6 O38 1.964254 1_556
Nb6 O112 1.986922 1_555
Nb6 O110 2.033979 1_555
Nb6 O40 2.379055 1_556
Nb7 O41 1.883257 1_556
Nb7 O113 1.911075 1_555
Nb7 O37 1.949771 1_556
Nb7 O111 1.974746 1_555
Nb7 O109 2.282141 1_555
Nb7 O39 2.385294 1_556
Nb8 O44 1.879172 1_555
Nb8 O46 1.968210 1_555
Nb8 O42 1.970999 1_555
Nb8 O118 2.031580 1_555
Nb8 O116 2.054950 1_555
Nb8 O114 2.384124 1_555
Nb9 O43 1.927886 1_555
Nb9 O115 1.928888 1_555
Nb9 O47 1.964757 1_555
Nb9 O117 1.995154 1_555
Nb9 O119 2.062337 1_555
Nb9 O45 2.375905 1_555
Nb10 O50 1.854084 1_554
Nb10 O48 1.896404 1_554
Nb10 O52 1.910298 1_554
Nb10 O120 1.960250 1_555
Nb10 O124 2.219254 1_555
Nb10 O122 2.238892 1_555
Nb11 O123 1.894584 1_555
Nb11 O51 1.951027 1_554
Nb11 O121 1.976945 1_555
Nb11 O53 1.978152 1_554
Nb11 O125 1.988026 1_555
Nb11 O49 2.170315 1_554
Nb12 O130 1.895820 1_555
Nb12 O58 1.966860 1_555
Nb12 O128 1.969163 1_555
Nb12 O56 1.975217 1_555
Nb12 O126 1.978343 1_555
Nb12 O54 2.178966 1_555
Nb13 O59 1.860881 1_555
Nb13 O57 1.923812 1_555
Nb13 O127 1.960739 1_555
Nb13 O131 1.971391 1_555
Nb13 O55 1.992951 1_555
Nb13 O129 2.271865 1_555
Nb14 O64 1.914651 1_555
Nb14 O60 1.926727 1_555
Nb14 O132 2.025518 1_555
Nb14 O134 2.039416 1_555
Nb14 O62 2.116711 1_555
Nb14 O136 2.148045 1_555
Nb15 O65 1.885454 1_555
Nb15 O63 1.931079 1_555
Nb15 O61 1.962936 1_555
Nb15 O135 2.041051 1_555
Nb15 O137 2.095547 1_555
Nb15 O133 2.411370 1_555
Nb16 O68 1.898537 1_555
Nb16 O70 1.955466 1_555
Nb16 O142 1.996494 1_555
Nb16 O66 2.001851 1_555
Nb16 O140 2.054852 1_555
Nb16 O138 2.360182 1_555
Nb17 O67 1.944393 1_555
Nb17 O69 1.949189 1_555
Nb17 O139 1.974308 1_555
Nb17 O143 2.012666 1_555
Nb17 O141 2.036286 1_555
Nb17 O71 2.254554 1_555
O0 Si0 1.637573 1_545
O1 S0 1.460215 1_545
O1 Y0 2.292785 1_555
O2 Si1 1.583320 1_555
O2 Y0 2.134305 1_565
O3 Si2 1.636684 1_555
O4 Si3 1.584684 1_555
O4 Y0 2.149418 1_555
O5 S1 1.456471 1_655
O6 S2 1.467916 1_555
O6 Y1 2.275092 1_455
O7 Si4 1.651554 1_555
O8 S3 1.467788 1_555
O9 Si5 1.588381 1_655
O9 Y1 2.134476 1_565
O10 Si6 1.655607 1_545
O11 Si7 1.590089 1_545
O11 Y1 2.121172 1_555
O12 Si6 1.647354 1_555
O13 Si7 1.705161 1_555
O14 S2 1.503778 1_555
O15 Si4 1.643405 1_555
O16 Si5 1.698268 1_555
O17 S3 1.460012 1_555
O18 Si1 1.719212 1_555
O19 Si2 1.678977 1_555
O20 S1 1.498147 1_555
O21 Si3 1.714828 1_555
O22 Si0 1.674660 1_555
O23 S0 1.506866 1_555
O24 Si8 1.591216 1_555
O24 Y2 2.093500 1_555
O25 Si9 1.588940 1_555
O25 Y3 2.197196 1_555
O26 Si10 1.613630 1_555
O26 Y2 2.196764 1_555
O27 Si11 1.577515 1_555
O27 Y3 2.093547 1_555
O28 Si12 1.589439 1_555
O28 Y2 2.164694 1_555
O29 S4 1.476314 1_555
O29 Y3 2.344824 1_555
O30 Si13 1.587209 1_555
O30 Y4 2.204598 1_555
O31 S5 1.481193 1_555
O31 Y5 2.235338 1_555
O32 S6 1.463059 1_555
O32 Y4 2.368520 1_555
O33 Si14 1.590150 1_555
O33 Y5 2.138979 1_555
O34 Si15 1.576410 1_555
O34 Y4 2.118586 1_555
O35 Si16 1.613201 1_555
O35 Y5 2.155707 1_555
O36 Si15 1.672142 1_555
O37 Si16 1.679644 1_555
O38 Si13 1.666587 1_555
O39 S5 1.463652 1_555
O40 S6 1.464413 1_555
O41 Si14 1.704943 1_555
O42 Si10 1.663092 1_555
O43 Si11 1.684340 1_555
O44 Si12 1.691061 1_555
O45 S4 1.463593 1_555
O46 Si8 1.651430 1_555
O47 Si9 1.664036 1_555
O48 Si17 1.642759 1_555
O49 S7 1.460729 1_555
O50 Si18 1.660857 1_555
O51 Si19 1.611188 1_555
O52 Si20 1.628548 1_555
O53 Si21 1.612794 1_555
O54 S8 1.458236 1_555
O55 Si22 1.605102 1_555
O56 Si23 1.622247 1_555
O57 Si24 1.604907 1_555
O58 Si25 1.603325 1_555
O59 Si26 1.650228 1_555
O60 Si25 1.664005 1_555
O61 Si26 1.695326 1_555
O62 S8 1.537665 1_555
O63 Si22 1.654392 1_555
O64 Si23 1.682482 1_555
O65 Si24 1.724824 1_555
O66 Si18 1.668567 1_555
O67 Si19 1.649364 1_555
O68 Si20 1.708181 1_555
O69 Si21 1.643615 1_555
O70 Si17 1.633206 1_555
O71 S7 1.510616 1_555
O72 Si25 1.662157 1_555
O73 Si26 1.589692 1_555
O73 Y0 2.200285 1_565
O74 S8 1.467943 1_555
O74 Y0 2.281453 1_565
O75 Si22 1.628976 1_555
O76 Si23 1.645278 1_555
O77 Si24 1.583419 1_555
O77 Y0 2.201535 1_555
O78 Si18 1.586977 1_555
O78 Y1 2.230547 1_455
O79 Si19 1.656912 1_555
O80 Si20 1.582712 1_555
O80 Y1 2.224609 1_465
O81 Si21 1.625957 1_555
O82 Si17 1.612520 1_555
O83 S7 1.470095 1_555
O83 Y1 2.301760 1_565
O84 Si8 1.673103 1_555
O85 Si9 1.661672 1_555
O86 Si10 1.674849 1_555
O87 Si11 1.648773 1_555
O88 Si12 1.643848 1_555
O89 S4 1.532132 1_555
O90 Si13 1.660784 1_555
O91 S5 1.512862 1_555
O92 S6 1.525602 1_555
O93 Si14 1.652639 1_555
O94 Si15 1.662133 1_555
O95 Si16 1.662443 1_555
O96 Si6 1.624329 1_545
O96 Y2 2.356020 1_555
O97 Si7 1.600902 1_545
O97 Y3 2.169869 1_555
O98 S2 1.471344 1_555
O98 Y2 2.375678 1_555
O99 Si4 1.606249 1_555
O99 Y3 2.271642 1_555
O100 S3 1.481289 1_555
O100 Y2 2.433938 1_555
O101 Si5 1.605367 1_655
O101 Y3 2.289646 1_555
O102 Si1 1.598631 1_555
O102 Y4 2.151065 1_555
O103 Si2 1.628483 1_555
O103 Y5 2.300438 1_555
O104 Si3 1.605761 1_555
O104 Y4 2.272804 1_555
O105 S1 1.472982 1_655
O105 Y5 2.388145 1_555
O106 Si0 1.603082 1_545
O106 Y4 2.260862 1_555
O107 S0 1.479944 1_545
O107 Y5 2.295587 1_555
O108 Si17 1.650087 1_555
O109 S7 1.493259 1_555
O110 Si19 1.626964 1_555
O111 Si18 1.661566 1_655
O112 Si20 1.642641 1_545
O113 Si21 1.680103 1_545
O114 S8 1.472130 1_545
O115 Si22 1.659720 1_545
O116 Si23 1.631885 1_555
O117 Si24 1.642178 1_555
O118 Si26 1.641929 1_555
O119 Si25 1.619051 1_655
O120 Si15 1.657662 1_555
O121 Si16 1.635960 1_555
O122 S5 1.481947 1_455
O123 Si13 1.659829 1_555
O124 S6 1.493524 1_565
O125 Si14 1.626960 1_565
O126 Si10 1.641960 1_565
O127 Si11 1.634816 1_565
O128 Si12 1.640402 1_555
O129 S4 1.473147 1_555
O130 Si9 1.657282 1_455
O131 Si8 1.633228 1_555
O132 Si0 1.664039 1_555
O133 S0 1.488949 1_555
O134 Si1 1.676953 1_555
O135 Si2 1.661623 1_555
O136 S1 1.521530 1_555
O137 Si3 1.676719 1_555
O138 S2 1.496050 1_555
O139 Si4 1.676356 1_555
O140 Si5 1.683711 1_555
O141 S3 1.546774 1_555
O142 Si6 1.678212 1_555
O143 Si7 1.682200 1_555
