# generated using pymatgen
data_La3InN
_symmetry_space_group_name_H-M   'P 1'
_cell_length_a   5.13785256
_cell_length_b   5.13783273
_cell_length_c   5.13784525
_cell_angle_alpha   90.00000000
_cell_angle_beta   90.00000000
_cell_angle_gamma   90.00000000
_symmetry_Int_Tables_number   1
_chemical_formula_structural   La3InN
_chemical_formula_sum   'La3 In1 N1'
_cell_volume   135.62589515
_cell_formula_units_Z   1
loop_
 _symmetry_equiv_pos_site_id
 _symmetry_equiv_pos_as_xyz
  1  'x, y, z'
loop_
 _atom_site_type_symbol
 _atom_site_label
 _atom_site_symmetry_multiplicity
 _atom_site_fract_x
 _atom_site_fract_y
 _atom_site_fract_z
 _atom_site_occupancy
  La  La0  1  0.50000000  0.50000000  0.00000000  1
  La  La1  1  -0.00000000  0.50000000  0.50000000  1
  La  La2  1  0.50000000  -0.00000000  0.50000000  1
  In  In0  1  -0.00000000  -0.00000000  0.00000000  1
  N  N0  1  0.50000000  0.50000000  0.50000000  1
loop_
_geom_bond_atom_site_label_1
_geom_bond_atom_site_label_2
_geom_bond_distance
_geom_bond_site_symmetry_2
La0 N0 2.568923 1_555
La0 N0 2.568923 1_554
La1 N0 2.568926 1_555
La1 N0 2.568926 1_455
La2 N0 2.568916 1_555
La2 N0 2.568916 1_545
In0 La1 3.633001 1_554
In0 La1 3.633001 1_555
In0 La1 3.633001 1_545
In0 La1 3.633001 1_544
In0 La0 3.633003 1_445
In0 La0 3.633003 1_455
In0 La0 3.633003 1_545
In0 La0 3.633003 1_555
In0 La2 3.633008 1_555
In0 La2 3.633008 1_454
In0 La2 3.633008 1_455
In0 La2 3.633008 1_554
