# generated using pymatgen
data_Na6Ca4Hf4Si3(S3O16)3
_symmetry_space_group_name_H-M   'P 1'
_cell_length_a   18.24131189
_cell_length_b   9.07786623
_cell_length_c   23.48795725
_cell_angle_alpha   89.93062763
_cell_angle_beta   90.03534370
_cell_angle_gamma   119.88957720
_symmetry_Int_Tables_number   1
_chemical_formula_structural   Na6Ca4Hf4Si3(S3O16)3
_chemical_formula_sum   'Na18 Ca12 Hf12 Si9 S27 O144'
_cell_volume   3372.07768341
_cell_formula_units_Z   3
loop_
 _symmetry_equiv_pos_site_id
 _symmetry_equiv_pos_as_xyz
  1  'x, y, z'
loop_
 _atom_site_type_symbol
 _atom_site_label
 _atom_site_symmetry_multiplicity
 _atom_site_fract_x
 _atom_site_fract_y
 _atom_site_fract_z
 _atom_site_occupancy
  Na  Na0  1  0.99765247  0.62963265  0.25075455  1
  Na  Na1  1  0.49915613  0.61644529  0.24028916  1
  Na  Na2  1  0.00247910  0.37491917  0.73975182  1
  Na  Na3  1  0.49741618  0.36811630  0.74957487  1
  Na  Na4  1  0.67640708  0.33001249  0.91083430  1
  Na  Na5  1  0.17404660  0.02668631  0.41594709  1
  Na  Na6  1  0.99192929  0.01212951  0.50449306  1
  Na  Na7  1  0.50571278  0.01186075  0.49965621  1
  Na  Na8  1  0.00300519  0.99420944  0.99132809  1
  Na  Na9  1  0.49203056  0.97169887  0.99827687  1
  Na  Na10  1  0.30177381  0.29524942  0.83251409  1
  Na  Na11  1  0.83864214  0.36518249  0.83720460  1
  Na  Na12  1  0.33368596  0.30822006  0.34064812  1
  Na  Na13  1  0.81527786  0.32903662  0.34332633  1
  Na  Na14  1  0.17674252  0.64637412  0.16116551  1
  Na  Na15  1  0.66221003  0.66093375  0.16147319  1
  Na  Na16  1  0.16173262  0.64539346  0.67182284  1
  Na  Na17  1  0.67961565  0.71065627  0.66477849  1
  Ca  Ca0  1  0.99439955  0.00139469  0.35505883  1
  Ca  Ca1  1  0.49417031  0.98619010  0.85368817  1
  Ca  Ca2  1  0.31730364  0.32627262  0.68552942  1
  Ca  Ca3  1  0.83274595  0.32249223  0.67756661  1
  Ca  Ca4  1  0.33114712  0.34039150  0.17721920  1
  Ca  Ca5  1  0.82668467  0.32275827  0.18082247  1
  Ca  Ca6  1  0.83909696  0.34134009  0.98515332  1
  Ca  Ca7  1  0.33843311  0.33678167  0.48703767  1
  Ca  Ca8  1  0.17170073  0.66892477  0.31487413  1
  Ca  Ca9  1  0.67561420  0.66101004  0.31664529  1
  Ca  Ca10  1  0.17398102  0.68225914  0.81355174  1
  Ca  Ca11  1  0.67288312  0.67614580  0.81434583  1
  Hf  Hf0  1  0.50159042  0.01487342  0.36162160  1
  Hf  Hf1  1  0.00770246  0.99715827  0.85772448  1
  Hf  Hf2  1  0.00359039  0.01669284  0.64740487  1
  Hf  Hf3  1  0.50645025  0.99785134  0.64541761  1
  Hf  Hf4  1  0.00701771  0.01542755  0.14444837  1
  Hf  Hf5  1  0.49667590  0.99081601  0.14300406  1
  Hf  Hf6  1  0.32635795  0.33493745  0.98823262  1
  Hf  Hf7  1  0.82591074  0.31888845  0.48992170  1
  Hf  Hf8  1  0.16276661  0.66402303  0.01411931  1
  Hf  Hf9  1  0.67048250  0.67417440  0.01524933  1
  Hf  Hf10  1  0.17021610  0.66679896  0.51745175  1
  Hf  Hf11  1  0.66355462  0.65845117  0.51614454  1
  Si  Si0  1  0.14429506  0.29378626  0.75250882  1
  Si  Si1  1  0.98515282  0.33705362  0.58436586  1
  Si  Si2  1  0.68220748  0.02282468  0.58509093  1
  Si  Si3  1  0.48629709  0.62812517  0.08577036  1
  Si  Si4  1  0.18346659  0.34415366  0.08536002  1
  Si  Si5  1  0.81590305  0.66711537  0.91526539  1
  Si  Si6  1  0.17302362  0.97047417  0.91715563  1
  Si  Si7  1  0.31286873  0.96530627  0.41538504  1
  Si  Si8  1  0.67366592  0.37412550  0.41670897  1
  S  S0  1  0.14449655  -0.00125930  0.24967615  1
  S  S1  1  0.63839224  -0.00206991  0.24991937  1
  S  S2  1  0.36101067  0.71954881  0.25097539  1
  S  S3  1  0.85606328  0.71105159  0.24585443  1
  S  S4  1  0.99927141  0.29577265  0.24698846  1
  S  S5  1  0.49903443  0.28290647  0.25046169  1
  S  S6  1  0.64484316  0.29087861  0.74991007  1
  S  S7  1  0.99675860  0.71269893  0.74977803  1
  S  S8  1  0.50095740  0.70358326  0.74698099  1
  S  S9  1  0.35792922  0.00295572  0.74562703  1
  S  S10  1  0.85935493  0.00105426  0.75062635  1
  S  S11  1  0.48813641  0.33556464  0.58702628  1
  S  S12  1  0.17748894  0.02212173  0.58092499  1
  S  S13  1  0.33396704  0.64425542  0.58354378  1
  S  S14  1  0.83188100  0.63218562  0.58111253  1
  S  S15  1  0.98870076  0.64121822  0.08731288  1
  S  S16  1  0.33182452  0.03120852  0.08206237  1
  S  S17  1  0.83270372  0.02220368  0.08463975  1
  S  S18  1  0.67814523  0.33344308  0.08250691  1
  S  S19  1  0.31372205  0.66301338  0.92072075  1
  S  S20  1  0.02080939  0.36937427  0.91443670  1
  S  S21  1  0.51734201  0.37445521  0.91876752  1
  S  S22  1  0.66553163  0.96469331  0.91856841  1
  S  S23  1  0.81245807  0.96503518  0.42051901  1
  S  S24  1  0.16636026  0.36846630  0.41853504  1
  S  S25  1  0.01744366  0.65947093  0.41799575  1
  S  S26  1  0.52135994  0.67138874  0.41310468  1
  O  O0  1  0.10492328  0.00921148  0.30317723  1
  O  O1  1  0.59457818  0.00799081  0.30103400  1
  O  O2  1  0.41214294  0.81682425  0.30097768  1
  O  O3  1  0.90277399  0.78803951  0.29826549  1
  O  O4  1  0.49857971  0.18757510  0.30203740  1
  O  O5  1  0.99298620  0.20251947  0.29891248  1
  O  O6  1  0.08760923  0.17589057  0.80689777  1
  O  O7  1  0.60547707  0.20142673  0.80349355  1
  O  O8  1  0.49446352  0.78430493  0.79882700  1
  O  O9  1  0.99352987  0.80148841  0.80204872  1
  O  O10  1  0.40471115  0.01799171  0.79812390  1
  O  O11  1  0.90660597  0.00055018  0.80135057  1
  O  O12  1  0.40829417  0.99384503  0.69555161  1
  O  O13  1  0.90295722  0.99111317  0.69732695  1
  O  O14  1  0.08761798  0.18294211  0.69395965  1
  O  O15  1  0.58970221  0.18322150  0.70038597  1
  O  O16  1  -0.00303386  0.80920520  0.69819356  1
  O  O17  1  0.50403335  0.80983099  0.69576154  1
  O  O18  1  0.40651895  0.81866791  0.19763764  1
  O  O19  1  0.90621017  0.81649047  0.19559899  1
  O  O20  1  0.00185727  0.19693675  0.19600041  1
  O  O21  1  0.50156816  0.18942204  0.19891642  1
  O  O22  1  0.08942798  0.99591873  0.20030710  1
  O  O23  1  0.58868963  0.99257201  0.19755657  1
  O  O24  1  0.45316671  0.36614570  0.63896734  1
  O  O25  1  0.95848648  0.37662092  0.64532518  1
  O  O26  1  0.23217058  0.09821279  0.63026050  1
  O  O27  1  0.73366732  0.08756907  0.64272764  1
  O  O28  1  0.32017636  0.54009224  0.63404494  1
  O  O29  1  0.81326144  0.53366161  0.63327488  1
  O  O30  1  0.46014181  0.54060085  0.14751879  1
  O  O31  1  0.95315686  0.54044018  0.13992167  1
  O  O32  1  0.31519855  0.09351793  0.13459234  1
  O  O33  1  0.81765335  0.09691414  0.13555558  1
  O  O34  1  0.23418337  0.38042117  0.14358923  1
  O  O35  1  0.73160903  0.36401961  0.13256341  1
  O  O36  1  0.23144141  0.30772240  0.03185661  1
  O  O37  1  0.71025549  0.29374223  0.03105220  1
  O  O38  1  0.41901311  0.52426246  0.03551699  1
  O  O39  1  0.93417753  0.56654448  0.03787359  1
  O  O40  1  0.34806234  0.14432968  0.03291140  1
  O  O41  1  0.85005518  0.12695194  0.03390442  1
  O  O42  1  0.21026242  0.12518040  0.52872674  1
  O  O43  1  0.72921756  0.15475561  0.53074354  1
  O  O44  1  0.35176859  0.57701908  0.53200330  1
  O  O45  1  0.84366698  0.54379288  0.53141955  1
  O  O46  1  0.43522128  0.30241287  0.53667921  1
  O  O47  1  0.91773960  0.31137305  0.53331017  1
  O  O48  1  0.26301527  0.67238831  0.97008413  1
  O  O49  1  0.76520400  0.68772151  0.97266750  1
  O  O50  1  0.07532485  0.46242587  0.96598205  1
  O  O51  1  0.57850128  0.47812383  0.96538650  1
  O  O52  1  0.15828449  0.84405884  0.97301582  1
  O  O53  1  0.65942982  0.85680333  0.96966555  1
  O  O54  1  0.26450899  0.84247153  0.47168025  1
  O  O55  1  0.76209093  0.85282261  0.46858979  1
  O  O56  1  0.16084866  0.46364084  0.46861017  1
  O  O57  1  0.65673529  0.47110787  0.47063017  1
  O  O58  1  0.07803933  0.67800436  0.46389456  1
  O  O59  1  0.57579117  0.69085066  0.46347665  1
  O  O60  1  0.04747034  0.63388840  0.36244661  1
  O  O61  1  0.55830603  0.65170911  0.35986705  1
  O  O62  1  0.25370111  0.88462716  0.36043745  1
  O  O63  1  0.76876493  0.90125641  0.36614646  1
  O  O64  1  0.17001907  0.45538200  0.36547638  1
  O  O65  1  0.68903349  0.47326343  0.35775704  1
  O  O66  1  0.05854520  0.46574831  0.86234472  1
  O  O67  1  0.54768414  0.46155007  0.86384821  1
  O  O68  1  0.18963838  0.89917065  0.86005256  1
  O  O69  1  0.66894196  0.88300226  0.86630176  1
  O  O70  1  0.26993963  0.63981819  0.86699606  1
  O  O71  1  0.75074667  0.61856777  0.86286787  1
  O  O72  1  0.01689895  0.82228699  0.41824499  1
  O  O73  1  0.51664247  0.83281202  0.41012383  1
  O  O74  1  0.40745255  0.97803440  0.40883312  1
  O  O75  1  0.89607091  0.97645825  0.42172200  1
  O  O76  1  0.09013737  0.19517425  0.42036238  1
  O  O77  1  0.58616165  0.18248573  0.41177092  1
  O  O78  1  0.01592825  0.19992041  0.91406331  1
  O  O79  1  0.51714191  0.21095945  0.91952204  1
  O  O80  1  0.08641949  0.98694163  0.91330049  1
  O  O81  1  0.58914129  0.98438875  0.92103273  1
  O  O82  1  0.39744611  0.81827455  0.92293738  1
  O  O83  1  0.90739661  0.84194373  0.90896883  1
  O  O84  1  0.49973559  0.18165579  0.59467600  1
  O  O85  1  0.99158738  0.15916342  0.58776439  1
  O  O86  1  0.08972750  -0.00586216  0.59128592  1
  O  O87  1  0.58552957  0.00463629  0.58982637  1
  O  O88  1  0.40898532  0.82230781  0.59305883  1
  O  O89  1  0.90976764  0.80239683  0.58570019  1
  O  O90  1  0.49408087  0.82344355  0.09035632  1
  O  O91  1  0.99939119  0.81684852  0.09551299  1
  O  O92  1  0.41101289  0.01505280  0.08878281  1
  O  O93  1  0.90779239  -0.00327280  0.09457922  1
  O  O94  1  0.08698559  0.16889955  0.09082085  1
  O  O95  1  0.59062272  0.18413093  0.09399590  1
  O  O96  1  0.35507973  0.16245619  0.74024603  1
  O  O97  1  0.85771246  0.16151120  0.75030535  1
  O  O98  1  0.23504929  0.30615317  0.75337935  1
  O  O99  1  0.72973869  0.31722673  0.74446540  1
  O  O100  1  0.42726302  0.53222063  0.74169608  1
  O  O101  1  0.92133989  0.54163147  0.75026132  1
  O  O102  1  0.35864343  0.55597320  0.25044018  1
  O  O103  1  0.85020053  0.54178700  0.24142118  1
  O  O104  1  0.42196987  0.29713946  0.25122969  1
  O  O105  1  0.92418593  0.31745598  0.24259288  1
  O  O106  1  0.22962565  0.14283999  0.24445725  1
  O  O107  1  0.72347226  0.14800842  0.24731333  1
  O  O108  1  0.32513469  0.51147174  0.92992641  1
  O  O109  1  0.82476905  0.49901623  0.92368386  1
  O  O110  1  0.43348976  0.35081665  0.93114086  1
  O  O111  1  0.93555042  0.34499521  0.92282827  1
  O  O112  1  0.25533679  0.15963875  0.93092052  1
  O  O113  1  0.74106406  0.13388111  0.92417100  1
  O  O114  1  0.32413615  0.15261977  0.42291716  1
  O  O115  1  0.82399962  0.13862675  0.42876390  1
  O  O116  1  0.24186478  0.34909340  0.42333554  1
  O  O117  1  0.75530186  0.34749199  0.42876411  1
  O  O118  1  0.43566883  0.52732824  0.42098735  1
  O  O119  1  0.93289090  0.51529092  0.42886810  1
  O  O120  1  0.16591710  0.50215287  0.07103492  1
  O  O121  1  0.66687302  0.48460816  0.07462017  1
  O  O122  1  0.07477280  0.66461702  0.07794907  1
  O  O123  1  0.58190213  0.66563660  0.06983537  1
  O  O124  1  0.26047967  0.85519291  0.07088597  1
  O  O125  1  0.75715922  0.84895688  0.07722637  1
  O  O126  1  0.16664802  0.84774709  0.57245794  1
  O  O127  1  0.66519810  0.83123700  0.56888053  1
  O  O128  1  0.25791949  0.66509256  0.57593188  1
  O  O129  1  0.75862567  0.66108643  0.56936076  1
  O  O130  1  0.07958622  0.49287296  0.56639412  1
  O  O131  1  0.57492393  0.48451964  0.57687127  1
  O  O132  1  0.14161130  0.83302860  0.24559402  1
  O  O133  1  0.64116011  0.83831981  0.24927761  1
  O  O134  1  0.27744017  0.70304835  0.24953579  1
  O  O135  1  0.77280977  0.69754342  0.24364440  1
  O  O136  1  0.07545793  0.46412103  0.24489060  1
  O  O137  1  0.57427411  0.45417842  0.24968480  1
  O  O138  1  0.14352015  0.47006691  0.74897616  1
  O  O139  1  0.64136542  0.45027091  0.74573973  1
  O  O140  1  0.07387206  0.69923296  0.74906874  1
  O  O141  1  0.57858371  0.69155516  0.74499117  1
  O  O142  1  0.27438187  0.85213640  0.74333514  1
  O  O143  1  0.77390656  0.85267663  0.74862547  1
loop_
_geom_bond_atom_site_label_1
_geom_bond_atom_site_label_2
_geom_bond_distance
_geom_bond_site_symmetry_2
Na0 O132 2.342467 1_655
Na0 O103 2.404268 1_555
Na0 O105 2.465678 1_555
Na0 O136 2.533152 1_655
Na0 O31 2.727403 1_555
Na0 O60 2.769828 1_655
Na1 O30 2.289512 1_555
Na1 O102 2.350734 1_555
Na1 O133 2.368897 1_555
Na1 O137 2.471164 1_555
Na1 O104 2.526162 1_555
Na1 O61 2.968048 1_555
Na2 O138 2.279723 1_555
Na2 O25 2.360789 1_455
Na2 O97 2.385136 1_455
Na2 O140 2.567374 1_555
Na2 O101 2.603030 1_455
Na3 O96 2.333228 1_555
Na3 O139 2.346832 1_555
Na3 O100 2.406271 1_555
Na3 O141 2.547816 1_555
Na3 O24 2.717406 1_555
Na3 O67 2.826952 1_555
Na4 O109 2.372964 1_555
Na4 O71 2.534611 1_555
Na4 O79 2.553579 1_555
Na4 O113 2.598133 1_555
Na4 O81 2.730622 1_545
Na4 O7 2.809091 1_555
Na4 O37 2.942955 1_556
Na4 O51 3.006546 1_555
Na5 O114 2.389537 1_555
Na5 O72 2.522272 1_545
Na5 O116 2.553206 1_555
Na5 O76 2.650810 1_555
Na5 O62 2.710741 1_545
Na5 O42 2.769070 1_555
Na5 O0 2.903165 1_555
Na5 O58 2.970412 1_545
Na6 O85 2.371009 1_555
Na6 O75 2.524879 1_545
Na6 O89 2.580709 1_545
Na6 O76 2.627693 1_655
Na6 O86 2.765891 1_655
Na6 O72 2.841339 1_645
Na7 O77 2.558191 1_555
Na7 O87 2.588573 1_555
Na7 O74 2.702969 1_545
Na7 O73 2.726849 1_545
Na7 O84 2.746795 1_555
Na7 O88 2.802986 1_545
Na8 O80 2.404618 1_555
Na8 O83 2.508789 1_455
Na8 O78 2.527818 1_565
Na8 O94 2.811747 1_566
Na8 O91 2.910285 1_456
Na8 O93 2.990536 1_466
Na9 O82 2.378070 1_555
Na9 O81 2.498602 1_555
Na9 O90 2.556019 1_556
Na9 O79 2.710859 1_565
Na9 O92 2.728296 1_566
Na9 O95 2.925197 1_566
Na10 O98 2.250086 1_555
Na10 O112 2.555711 1_555
Na10 O96 2.876208 1_555
Na10 O108 2.906093 1_555
Na11 O109 2.445195 1_555
Na11 O101 2.568893 1_555
Na11 O111 2.742386 1_555
Na11 O99 2.831200 1_555
Na11 O113 2.831733 1_555
Na11 O97 2.890764 1_555
Na12 O114 2.346918 1_555
Na12 O104 2.679694 1_555
Na12 O118 2.700866 1_555
Na12 O116 2.709286 1_555
Na12 O106 2.850313 1_555
Na12 O102 2.953651 1_555
Na13 O117 2.332011 1_555
Na13 O115 2.702855 1_555
Na13 O107 2.802183 1_555
Na13 O119 2.808211 1_555
Na13 O103 2.937574 1_555
Na14 O120 2.446058 1_555
Na14 O136 2.639712 1_555
Na14 O134 2.646321 1_555
Na14 O124 2.744347 1_555
Na14 O122 2.758513 1_555
Na14 O132 2.882045 1_555
Na15 O123 2.615110 1_555
Na15 O121 2.621977 1_555
Na15 O125 2.622672 1_555
Na15 O135 2.689651 1_555
Na15 O137 2.717104 1_555
Na15 O133 2.760254 1_555
Na16 O138 2.322557 1_555
Na16 O142 2.593422 1_555
Na16 O140 2.624078 1_555
Na16 O128 2.806149 1_555
Na16 O130 2.868871 1_555
Na16 O126 2.941954 1_555
Na17 O143 2.508170 1_555
Na17 O127 2.573147 1_555
Na17 O141 2.580915 1_555
Na17 O129 2.820517 1_555
Na17 O139 2.835004 1_555
Na17 O131 2.867499 1_555
Ca0 O3 2.258617 1_545
Ca0 O5 2.261488 1_555
Ca0 O75 2.306081 1_545
Ca0 O0 2.326992 1_655
Ca0 O76 2.332040 1_655
Ca0 O72 2.381832 1_645
Ca1 O10 2.217101 1_565
Ca1 O8 2.243813 1_555
Ca1 O7 2.318099 1_565
Ca1 O82 2.323616 1_555
Ca1 O81 2.351234 1_555
Ca1 O79 2.425834 1_565
Ca2 O98 2.133893 1_555
Ca2 O28 2.263994 1_555
Ca2 O26 2.276547 1_555
Ca2 O96 2.313786 1_555
Ca2 O100 2.350356 1_555
Ca2 O24 2.564660 1_555
Ca3 O27 2.155224 1_555
Ca3 O25 2.225717 1_555
Ca3 O29 2.357357 1_555
Ca3 O99 2.432254 1_555
Ca3 O97 2.432740 1_555
Ca3 O101 2.507017 1_555
Ca4 O34 2.126645 1_555
Ca4 O30 2.250174 1_555
Ca4 O32 2.337692 1_555
Ca4 O106 2.413810 1_555
Ca4 O102 2.463339 1_555
Ca4 O104 2.562010 1_555
Ca5 O33 2.242605 1_555
Ca5 O35 2.253205 1_555
Ca5 O103 2.306368 1_555
Ca5 O105 2.313553 1_555
Ca5 O107 2.349710 1_555
Ca5 O31 2.367414 1_555
Ca6 O109 2.137528 1_555
Ca6 O111 2.276964 1_555
Ca6 O39 2.278273 1_556
Ca6 O113 2.333037 1_555
Ca6 O41 2.349643 1_556
Ca6 O37 2.421247 1_556
Ca7 O114 2.168457 1_555
Ca7 O46 2.262647 1_555
Ca7 O44 2.325346 1_555
Ca7 O118 2.341785 1_555
Ca7 O116 2.355157 1_555
Ca7 O42 2.374259 1_555
Ca8 O62 2.073854 1_555
Ca8 O64 2.259780 1_555
Ca8 O134 2.361890 1_555
Ca8 O60 2.401862 1_555
Ca8 O132 2.444667 1_555
Ca8 O136 2.447738 1_555
Ca9 O65 2.075731 1_555
Ca9 O63 2.303429 1_555
Ca9 O61 2.332193 1_555
Ca9 O135 2.368494 1_555
Ca9 O137 2.441405 1_555
Ca9 O133 2.547625 1_555
Ca10 O68 2.143859 1_555
Ca10 O138 2.293254 1_555
Ca10 O70 2.335894 1_555
Ca10 O66 2.341602 1_555
Ca10 O142 2.373821 1_555
Ca10 O140 2.434923 1_555
Ca11 O71 2.079878 1_555
Ca11 O69 2.271738 1_555
Ca11 O143 2.324018 1_555
Ca11 O141 2.422378 1_555
Ca11 O67 2.434388 1_555
Ca11 O139 2.442035 1_555
Hf0 O74 1.928568 1_545
Hf0 O77 1.935237 1_555
Hf0 O4 2.121304 1_555
Hf0 O73 2.133553 1_545
Hf0 O2 2.236772 1_545
Hf0 O1 2.239427 1_555
Hf1 O6 1.955177 1_565
Hf1 O80 1.975986 1_555
Hf1 O83 2.052075 1_455
Hf1 O9 2.116504 1_455
Hf1 O78 2.211779 1_565
Hf1 O11 2.282218 1_465
Hf2 O14 1.875939 1_555
Hf2 O85 1.990084 1_455
Hf2 O13 2.091822 1_445
Hf2 O86 2.138236 1_555
Hf2 O16 2.180208 1_545
Hf2 O89 2.345098 1_445
Hf3 O87 1.924350 1_565
Hf3 O17 2.057576 1_555
Hf3 O15 2.064155 1_565
Hf3 O88 2.095488 1_555
Hf3 O84 2.101949 1_565
Hf3 O12 2.128710 1_555
Hf4 O94 1.904725 1_555
Hf4 O22 2.067582 1_545
Hf4 O91 2.084457 1_445
Hf4 O20 2.085558 1_555
Hf4 O93 2.090107 1_455
Hf4 O19 2.184928 1_445
Hf5 O90 1.942348 1_555
Hf5 O18 2.056638 1_555
Hf5 O95 2.083672 1_565
Hf5 O23 2.104752 1_555
Hf5 O92 2.109878 1_565
Hf5 O21 2.197358 1_565
Hf6 O36 1.919356 1_556
Hf6 O112 1.992773 1_555
Hf6 O38 2.037423 1_556
Hf6 O108 2.115297 1_555
Hf6 O40 2.220328 1_556
Hf6 O110 2.315162 1_555
Hf7 O43 1.905194 1_555
Hf7 O47 1.990162 1_555
Hf7 O117 2.029763 1_555
Hf7 O45 2.137439 1_555
Hf7 O115 2.165922 1_555
Hf7 O119 2.360720 1_555
Hf8 O52 1.933671 1_554
Hf8 O120 2.007231 1_555
Hf8 O50 2.065234 1_554
Hf8 O48 2.069613 1_554
Hf8 O122 2.199035 1_555
Hf8 O124 2.210479 1_555
Hf9 O49 1.947035 1_554
Hf9 O123 2.034258 1_555
Hf9 O53 2.064976 1_554
Hf9 O51 2.093023 1_554
Hf9 O125 2.153815 1_555
Hf9 O121 2.188993 1_555
Hf10 O54 1.980345 1_555
Hf10 O130 1.985921 1_555
Hf10 O56 2.106483 1_555
Hf10 O128 2.113844 1_555
Hf10 O126 2.117419 1_555
Hf10 O58 2.141850 1_555
Hf11 O57 1.960616 1_555
Hf11 O127 1.988278 1_555
Hf11 O55 2.104405 1_555
Hf11 O129 2.127556 1_555
Hf11 O131 2.143485 1_555
Hf11 O59 2.155397 1_555
O0 S0 1.476159 1_555
O1 S1 1.470609 1_555
O2 S2 1.486390 1_555
O3 S3 1.461906 1_555
O4 S5 1.485538 1_555
O5 S4 1.455374 1_555
O6 Si0 1.655884 1_555
O7 S6 1.475301 1_555
O8 S8 1.456977 1_555
O9 S7 1.486694 1_555
O10 S9 1.466382 1_555
O11 S10 1.471405 1_555
O12 S9 1.520383 1_565
O13 S10 1.510306 1_565
O14 Si0 1.713860 1_555
O15 S6 1.530195 1_555
O16 S7 1.493202 1_455
O17 S8 1.524486 1_555
O18 S2 1.523922 1_555
O19 S3 1.507387 1_555
O20 S4 1.512064 1_455
O21 S5 1.493235 1_555
O22 S0 1.525559 1_565
O23 S1 1.513877 1_565
O24 S11 1.466501 1_555
O25 Si1 1.609953 1_555
O26 S12 1.458999 1_555
O27 Si2 1.584225 1_555
O28 S13 1.457730 1_555
O29 S14 1.453090 1_555
O30 Si3 1.607068 1_555
O31 S15 1.480301 1_555
O32 S16 1.451676 1_555
O33 S17 1.467475 1_555
O34 Si4 1.590850 1_555
O35 S18 1.462897 1_555
O36 Si4 1.656892 1_555
O37 S18 1.464897 1_555
O38 Si3 1.623620 1_555
O39 S15 1.457972 1_555
O40 S16 1.472896 1_555
O41 S17 1.456779 1_555
O42 S12 1.475298 1_555
O43 Si2 1.665310 1_555
O44 S13 1.464003 1_555
O45 S14 1.492292 1_555
O46 S11 1.459665 1_555
O47 Si1 1.648554 1_555
O48 S19 1.512323 1_555
O49 Si5 1.697836 1_555
O50 S20 1.527090 1_555
O51 S21 1.511242 1_555
O52 Si6 1.673309 1_555
O53 S22 1.516808 1_555
O54 Si7 1.669563 1_555
O55 S23 1.490747 1_555
O56 S24 1.493021 1_555
O57 Si8 1.657909 1_555
O58 S25 1.491961 1_555
O59 S26 1.497027 1_555
O60 S25 1.478061 1_555
O61 S26 1.473534 1_555
O62 Si7 1.606140 1_555
O63 S23 1.463578 1_555
O64 S24 1.457855 1_555
O65 Si8 1.597441 1_555
O66 S20 1.460993 1_555
O67 S21 1.468900 1_555
O68 Si6 1.583624 1_555
O69 S22 1.452302 1_555
O70 S19 1.451317 1_555
O71 Si5 1.612127 1_555
O72 S25 1.483018 1_555
O73 S26 1.511643 1_555
O74 Si7 1.677917 1_555
O75 S23 1.476527 1_555
O76 S24 1.493225 1_555
O77 Si8 1.679417 1_555
O78 S20 1.495938 1_555
O79 S21 1.482462 1_555
O80 Si6 1.661743 1_555
O81 S22 1.491804 1_555
O82 S19 1.475264 1_555
O83 Si5 1.638878 1_555
O84 S11 1.524170 1_555
O85 Si1 1.678249 1_555
O86 S12 1.510495 1_555
O87 Si2 1.691055 1_555
O88 S13 1.526805 1_555
O89 S14 1.493291 1_555
O90 Si3 1.710288 1_555
O91 S15 1.519176 1_555
O92 S16 1.530951 1_555
O93 S17 1.516346 1_555
O94 Si4 1.689408 1_555
O95 S18 1.517170 1_555
O96 S9 1.479770 1_555
O97 S10 1.471776 1_555
O98 Si0 1.602609 1_555
O99 S6 1.450086 1_555
O100 S8 1.469179 1_555
O101 S7 1.474807 1_555
O102 S2 1.463947 1_555
O103 S3 1.489932 1_555
O104 S5 1.474530 1_555
O105 S4 1.481163 1_555
O106 S0 1.453577 1_555
O107 S1 1.470053 1_555
O108 S19 1.505732 1_555
O109 Si5 1.624522 1_555
O110 S21 1.464027 1_555
O111 S20 1.470992 1_655
O112 Si6 1.654935 1_545
O113 S22 1.471653 1_545
O114 Si7 1.617803 1_545
O115 S23 1.495036 1_545
O116 S24 1.477082 1_555
O117 Si8 1.647525 1_555
O118 S26 1.466380 1_555
O119 S25 1.464535 1_655
O120 Si4 1.652034 1_555
O121 S18 1.496743 1_555
O122 S15 1.492155 1_455
O123 Si3 1.645012 1_555
O124 S16 1.497929 1_565
O125 S17 1.497688 1_565
O126 S12 1.507685 1_565
O127 Si2 1.652184 1_565
O128 S13 1.501074 1_555
O129 S14 1.509777 1_555
O130 Si1 1.648424 1_455
O131 S11 1.502576 1_555
O132 S0 1.482010 1_565
O133 S1 1.474826 1_565
O134 S2 1.455971 1_555
O135 S3 1.462311 1_555
O136 S4 1.467130 1_455
O137 S5 1.474637 1_555
O138 Si0 1.609383 1_555
O139 S6 1.482698 1_555
O140 S7 1.471495 1_455
O141 S8 1.474235 1_555
O142 S9 1.456190 1_565
O143 S10 1.467514 1_565
