# generated using pymatgen
data_LaInPd
_symmetry_space_group_name_H-M   'P 1'
_cell_length_a   8.15925962
_cell_length_b   8.15925962
_cell_length_c   4.03957300
_cell_angle_alpha   90.00000000
_cell_angle_beta   90.00000000
_cell_angle_gamma   119.99999694
_symmetry_Int_Tables_number   1
_chemical_formula_structural   LaInPd
_chemical_formula_sum   'La3 In3 Pd3'
_cell_volume   232.89899286
_cell_formula_units_Z   3
loop_
 _symmetry_equiv_pos_site_id
 _symmetry_equiv_pos_as_xyz
  1  'x, y, z'
loop_
 _atom_site_type_symbol
 _atom_site_label
 _atom_site_symmetry_multiplicity
 _atom_site_fract_x
 _atom_site_fract_y
 _atom_site_fract_z
 _atom_site_occupancy
  La  La0  1  0.00000000  0.72091500  0.50000000  1
  La  La1  1  0.27908500  0.27908500  0.50000000  1
  La  La2  1  0.72091500  0.00000000  0.50000000  1
  In  In0  1  0.38749700  0.00000000  0.00000000  1
  In  In1  1  0.61250300  0.61250300  0.00000000  1
  In  In2  1  0.00000000  0.38749700  0.00000000  1
  Pd  Pd0  1  0.66666700  0.33333300  0.50000000  1
  Pd  Pd1  1  0.33333300  0.66666700  0.50000000  1
  Pd  Pd2  1  0.00000000  0.00000000  0.00000000  1
loop_
_geom_bond_atom_site_label_1
_geom_bond_atom_site_label_2
_geom_bond_distance
_geom_bond_site_symmetry_2
La0 Pd1 2.965937 1_555
La0 Pd0 2.965942 1_455
La0 Pd2 3.043821 1_565
La0 Pd2 3.043821 1_566
La1 Pd1 2.965945 1_555
La1 Pd0 2.965945 1_555
La1 Pd2 3.043821 1_556
La1 Pd2 3.043821 1_555
La2 Pd0 2.965937 1_555
La2 Pd1 2.965942 1_545
La2 Pd2 3.043821 1_656
La2 Pd2 3.043821 1_655
In0 Pd2 3.161689 1_555
In0 Pd1 3.235727 1_545
In0 Pd1 3.235727 1_544
In0 Pd0 3.235729 1_555
In0 Pd0 3.235729 1_554
In0 La2 3.388267 1_555
In0 La2 3.388267 1_554
In0 La1 3.472975 1_555
In0 La1 3.472975 1_554
In0 La0 3.472975 1_545
In0 La0 3.472975 1_544
In1 Pd2 3.161689 1_665
In1 Pd0 3.235733 1_555
In1 Pd0 3.235733 1_554
In1 Pd1 3.235733 1_555
In1 Pd1 3.235733 1_554
In1 La1 3.388267 1_554
In1 La1 3.388267 1_555
In1 La2 3.472975 1_564
In1 La0 3.472975 1_655
In1 La0 3.472975 1_654
In1 La2 3.472975 1_565
In2 Pd2 3.161689 1_555
In2 Pd0 3.235727 1_455
In2 Pd0 3.235727 1_454
In2 Pd1 3.235729 1_554
In2 Pd1 3.235729 1_555
In2 La0 3.388267 1_554
In2 La0 3.388267 1_555
In2 La1 3.472975 1_555
In2 La1 3.472975 1_554
In2 La2 3.472975 1_455
In2 La2 3.472975 1_454
