# generated using pymatgen
data_Na10Al4Ga4Si5S7O48
_symmetry_space_group_name_H-M   'P 1'
_cell_length_a   17.34143476
_cell_length_b   8.70913937
_cell_length_c   21.89612026
_cell_angle_alpha   89.62889245
_cell_angle_beta   88.85065875
_cell_angle_gamma   120.05268462
_symmetry_Int_Tables_number   1
_chemical_formula_structural   Na10Al4Ga4Si5S7O48
_chemical_formula_sum   'Na30 Al12 Ga12 Si15 S21 O144'
_cell_volume   2861.28231743
_cell_formula_units_Z   3
loop_
 _symmetry_equiv_pos_site_id
 _symmetry_equiv_pos_as_xyz
  1  'x, y, z'
loop_
 _atom_site_type_symbol
 _atom_site_label
 _atom_site_symmetry_multiplicity
 _atom_site_fract_x
 _atom_site_fract_y
 _atom_site_fract_z
 _atom_site_occupancy
  Na  Na0  1  0.32141218  0.99980740  0.24900155  1
  Na  Na1  1  0.82279648  0.99873807  0.24943715  1
  Na  Na2  1  0.18195198  0.37132678  0.24386349  1
  Na  Na3  1  0.68396671  0.37448913  0.24409931  1
  Na  Na4  1  0.99652796  0.62683539  0.25582696  1
  Na  Na5  1  0.49719383  0.62967655  0.25594600  1
  Na  Na6  1  0.82202855  0.64383275  0.74774826  1
  Na  Na7  1  0.99662302  0.36396865  0.75667776  1
  Na  Na8  1  0.49714449  0.35960306  0.75548181  1
  Na  Na9  1  0.18169825  0.99155920  0.74669278  1
  Na  Na10  1  0.01717396  0.70420896  0.58471593  1
  Na  Na11  1  0.33086672  0.96955945  0.58841703  1
  Na  Na12  1  0.02016436  0.33229533  0.08345067  1
  Na  Na13  1  0.52042226  0.33104208  0.08382360  1
  Na  Na14  1  0.16287553  0.30105836  0.92243285  1
  Na  Na15  1  0.66386455  0.30190831  0.92337891  1
  Na  Na16  1  0.16308187  0.02658266  0.42192949  1
  Na  Na17  1  0.66426340  0.02524521  0.42330802  1
  Na  Na18  1  0.99686675  0.00054776  0.49994277  1
  Na  Na19  1  0.50765072  0.99500670  0.50100215  1
  Na  Na20  1  0.00015181  0.99786937  0.99993186  1
  Na  Na21  1  0.49960424  0.99664142  0.00066026  1
  Na  Na22  1  0.34115304  0.33556555  0.83610774  1
  Na  Na23  1  0.84213958  0.32584306  0.83464318  1
  Na  Na24  1  0.34534355  0.35584275  0.33532324  1
  Na  Na25  1  0.84556273  0.35638106  0.33599959  1
  Na  Na26  1  0.17336659  0.66196901  0.16406694  1
  Na  Na27  1  0.67366554  0.66309231  0.16509145  1
  Na  Na28  1  0.17028612  0.67037546  0.66933073  1
  Na  Na29  1  0.67553161  0.69926722  0.66461584  1
  Al  Al0  1  0.98687011  0.97672688  0.35029872  1
  Al  Al1  1  0.98875214  0.99845222  0.85069366  1
  Al  Al2  1  0.49209289  0.01035151  0.85353648  1
  Al  Al3  1  0.50311590  0.99640815  0.64890041  1
  Al  Al4  1  0.00187536  0.01263812  0.14852498  1
  Al  Al5  1  0.83534619  0.34822978  0.18686354  1
  Al  Al6  1  0.33451391  0.32962784  0.98164052  1
  Al  Al7  1  0.83785630  0.33363367  0.98291091  1
  Al  Al8  1  0.16534396  0.64522771  0.01678950  1
  Al  Al9  1  0.15978993  0.67470203  0.51661640  1
  Al  Al10  1  0.16202168  0.67099396  0.81336575  1
  Al  Al11  1  0.66427753  0.67931526  0.81687491  1
  Ga  Ga0  1  0.48839295  0.98010002  0.35107790  1
  Ga  Ga1  1  0.99822445  0.98754627  0.65111874  1
  Ga  Ga2  1  0.50259561  0.01301455  0.14895276  1
  Ga  Ga3  1  0.32943437  0.31380183  0.68291679  1
  Ga  Ga4  1  0.83142641  0.31297870  0.68832545  1
  Ga  Ga5  1  0.33390391  0.34887249  0.18512222  1
  Ga  Ga6  1  0.33669715  0.34520224  0.48278856  1
  Ga  Ga7  1  0.83272867  0.33823391  0.48336128  1
  Ga  Ga8  1  0.66565143  0.64409309  0.01797954  1
  Ga  Ga9  1  0.66339794  0.69315015  0.51980764  1
  Ga  Ga10  1  0.15691211  0.64196619  0.31392211  1
  Ga  Ga11  1  0.65994379  0.64588067  0.31468900  1
  Si  Si0  1  0.35451033  0.71179901  0.24924845  1
  Si  Si1  1  0.85718659  0.71359084  0.24849153  1
  Si  Si2  1  0.99699872  0.28203892  0.24930635  1
  Si  Si3  1  0.49822855  0.28792991  0.24985207  1
  Si  Si4  1  0.99947810  0.71058564  0.75208222  1
  Si  Si5  1  0.35541422  0.99240086  0.74877223  1
  Si  Si6  1  0.85078775  0.99256602  0.75127379  1
  Si  Si7  1  0.18493966  0.04248983  0.58101005  1
  Si  Si8  1  0.68673405  0.04713956  0.58412910  1
  Si  Si9  1  0.18820816  0.32878216  0.08155398  1
  Si  Si10  1  0.69188642  0.32850364  0.08275831  1
  Si  Si11  1  0.01852802  0.37164423  0.91645252  1
  Si  Si12  1  0.51732622  0.37472821  0.91564023  1
  Si  Si13  1  0.01652322  0.66710309  0.41701659  1
  Si  Si14  1  0.51741938  0.66594353  0.41556758  1
  S  S0  1  0.14203145  0.00024307  0.25004511  1
  S  S1  1  0.64766036  0.00367252  0.24920741  1
  S  S2  1  0.14739032  0.29507030  0.75120146  1
  S  S3  1  0.64200931  0.28275797  0.75135895  1
  S  S4  1  0.50008576  0.71793149  0.75179277  1
  S  S5  1  0.48233186  0.33562388  0.58397011  1
  S  S6  1  0.98202386  0.33213060  0.58221642  1
  S  S7  1  0.33281056  0.62314877  0.58422325  1
  S  S8  1  0.82948863  0.62381132  0.58347386  1
  S  S9  1  0.47869771  0.62696573  0.08073717  1
  S  S10  1  0.97839042  0.62731892  0.08231116  1
  S  S11  1  0.32770419  0.03608690  0.08089718  1
  S  S12  1  0.83067680  0.04243190  0.08346806  1
  S  S13  1  0.31208088  0.67115199  0.91530830  1
  S  S14  1  0.81388498  0.67067663  0.91591960  1
  S  S15  1  0.16712562  0.95049921  0.91781520  1
  S  S16  1  0.66560442  0.95312502  0.91672152  1
  S  S17  1  0.31095856  0.95308580  0.41778827  1
  S  S18  1  0.81449177  0.95624522  0.41545592  1
  S  S19  1  0.16576860  0.37938414  0.41845507  1
  S  S20  1  0.66658850  0.37802459  0.41826631  1
  O  O0  1  0.10340424  0.03154766  0.30639871  1
  O  O1  1  0.61125121  0.04051658  0.30535550  1
  O  O2  1  0.41815182  0.78204121  0.30746020  1
  O  O3  1  0.91906778  0.78810480  0.30739166  1
  O  O4  1  0.47959272  0.16018467  0.30937621  1
  O  O5  1  0.98193023  0.15530298  0.30838914  1
  O  O6  1  0.10766222  0.17941905  0.80642349  1
  O  O7  1  0.60243906  0.17371452  0.80791920  1
  O  O8  1  0.48852723  0.80130099  0.80672328  1
  O  O9  1  0.98472620  0.81342298  0.80847017  1
  O  O10  1  0.42193499  0.04056152  0.80501574  1
  O  O11  1  0.91657812  0.03961768  0.80798414  1
  O  O12  1  0.40287408  0.97201550  0.68646109  1
  O  O13  1  0.89410815  0.95131091  0.69064847  1
  O  O14  1  0.09278695  0.22022812  0.69661958  1
  O  O15  1  0.58561374  0.20038057  0.69789671  1
  O  O16  1  0.02604911  0.82980982  0.68862274  1
  O  O17  1  0.51479311  0.82486026  0.69538092  1
  O  O18  1  0.39901863  0.83949314  0.18905121  1
  O  O19  1  0.90450368  0.84382025  0.18954544  1
  O  O20  1  0.01972750  0.20702557  0.18779816  1
  O  O21  1  0.52329180  0.21849457  0.18778236  1
  O  O22  1  0.08714866  0.97120424  0.19609590  1
  O  O23  1  0.58986788  0.96566635  0.19624116  1
  O  O24  1  0.44429331  0.37117640  0.64090777  1
  O  O25  1  0.94772785  0.37775303  0.63839899  1
  O  O26  1  0.24713504  0.11898232  0.64138379  1
  O  O27  1  0.74973055  0.14091429  0.64118576  1
  O  O28  1  0.31835285  0.51294109  0.63989068  1
  O  O29  1  0.81853822  0.52350450  0.64089319  1
  O  O30  1  0.44430102  0.51611713  0.13850419  1
  O  O31  1  0.94063515  0.51085842  0.13865645  1
  O  O32  1  0.31500733  0.10863193  0.13913319  1
  O  O33  1  0.81958021  0.12277615  0.14007100  1
  O  O34  1  0.24463630  0.35916821  0.14374455  1
  O  O35  1  0.74941579  0.35240814  0.14315274  1
  O  O36  1  0.23772432  0.30703084  0.02076634  1
  O  O37  1  0.73960367  0.30998029  0.02031992  1
  O  O38  1  0.42307006  0.53463219  0.02859557  1
  O  O39  1  0.92291964  0.54041448  0.02912773  1
  O  O40  1  0.34644189  0.16127194  0.02881461  1
  O  O41  1  0.84905393  0.16182375  0.02949442  1
  O  O42  1  0.23510767  0.16477679  0.52046353  1
  O  O43  1  0.72867821  0.15894208  0.51924423  1
  O  O44  1  0.35109801  0.55013053  0.52886818  1
  O  O45  1  0.85033937  0.54453786  0.53022740  1
  O  O46  1  0.42371436  0.30092647  0.53168052  1
  O  O47  1  0.92693196  0.30675672  0.52887114  1
  O  O48  1  0.27303646  0.70350961  0.97136801  1
  O  O49  1  0.77458892  0.70458375  0.97148358  1
  O  O50  1  0.08288016  0.46112527  0.97559970  1
  O  O51  1  0.58092240  0.45316847  0.97540607  1
  O  O52  1  0.15672131  0.83898813  0.97196545  1
  O  O53  1  0.65197045  0.84563894  0.97238255  1
  O  O54  1  0.26676215  0.84075433  0.47363570  1
  O  O55  1  0.77429917  0.84396901  0.47106330  1
  O  O56  1  0.15689547  0.47356278  0.47171494  1
  O  O57  1  0.65671935  0.46730916  0.47194212  1
  O  O58  1  0.08135624  0.70441524  0.47541275  1
  O  O59  1  0.58308721  0.70918141  0.47258880  1
  O  O60  1  0.06259452  0.63946492  0.35493951  1
  O  O61  1  0.56163664  0.63910653  0.35278389  1
  O  O62  1  0.25866705  0.87445173  0.36254345  1
  O  O63  1  0.75954410  0.87781507  0.36056986  1
  O  O64  1  0.18340657  0.48307398  0.36022000  1
  O  O65  1  0.68277969  0.48109269  0.35989590  1
  O  O66  1  0.06895907  0.49546525  0.85612122  1
  O  O67  1  0.56806530  0.50058928  0.85498362  1
  O  O68  1  0.18249919  0.87620064  0.86070847  1
  O  O69  1  0.68173411  0.87329088  0.86174133  1
  O  O70  1  0.25565804  0.64112994  0.86218982  1
  O  O71  1  0.75613074  0.63868706  0.86209887  1
  O  O72  1  0.01370400  0.85330415  0.40932558  1
  O  O73  1  0.51387299  0.85214178  0.41069863  1
  O  O74  1  0.40072897  0.97304408  0.41628500  1
  O  O75  1  0.90397097  0.97695203  0.41008994  1
  O  O76  1  0.08534699  0.20293194  0.41466212  1
  O  O77  1  0.58637626  0.19951045  0.41421368  1
  O  O78  1  0.01355963  0.17658825  0.90865968  1
  O  O79  1  0.51273197  0.18059625  0.90891231  1
  O  O80  1  0.08761655  0.97121713  0.91347082  1
  O  O81  1  0.58474163  0.97166641  0.90912298  1
  O  O82  1  0.40349171  0.82708600  0.90802200  1
  O  O83  1  0.90320598  0.82706499  0.90991316  1
  O  O84  1  0.48728951  0.17069118  0.59106354  1
  O  O85  1  0.99103050  0.17535562  0.58981235  1
  O  O86  1  0.08578151  0.01922270  0.58648826  1
  O  O87  1  0.58653124  0.02285407  0.59352364  1
  O  O88  1  0.41126357  0.80553397  0.58947938  1
  O  O89  1  0.91025051  0.80385244  0.58541923  1
  O  O90  1  0.48494106  0.80003750  0.08634122  1
  O  O91  1  0.98630453  0.80162761  0.08967529  1
  O  O92  1  0.40963821  0.02114988  0.08284005  1
  O  O93  1  0.91179401  0.02456454  0.08661359  1
  O  O94  1  0.08705691  0.15143474  0.08821238  1
  O  O95  1  0.58916943  0.15246299  0.08595604  1
  O  O96  1  0.34552995  0.17596074  0.74457222  1
  O  O97  1  0.84391121  0.17166895  0.74674576  1
  O  O98  1  0.23780269  0.31282467  0.74444255  1
  O  O99  1  0.73301283  0.31346558  0.74600400  1
  O  O100  1  0.42037779  0.53677416  0.74612445  1
  O  O101  1  0.90907708  0.51515620  0.74327319  1
  O  O102  1  0.33946027  0.51096741  0.24480581  1
  O  O103  1  0.84254904  0.51275841  0.24165527  1
  O  O104  1  0.40778862  0.30319827  0.24151676  1
  O  O105  1  0.90851582  0.30385691  0.23991036  1
  O  O106  1  0.23294558  0.15798051  0.24472647  1
  O  O107  1  0.73787008  0.16201201  0.24101576  1
  O  O108  1  0.31942613  0.50807342  0.92221716  1
  O  O109  1  0.82010584  0.50701375  0.92204915  1
  O  O110  1  0.41956970  0.35622159  0.92584695  1
  O  O111  1  0.92016642  0.35309060  0.92719900  1
  O  O112  1  0.24680656  0.13408053  0.92189650  1
  O  O113  1  0.74412516  0.13504794  0.92042662  1
  O  O114  1  0.31819189  0.12964516  0.42246834  1
  O  O115  1  0.82137269  0.13260719  0.42080759  1
  O  O116  1  0.24448761  0.35393876  0.42199949  1
  O  O117  1  0.74586956  0.35367879  0.42018374  1
  O  O118  1  0.41979961  0.48632094  0.42401028  1
  O  O119  1  0.91944967  0.48756963  0.42575065  1
  O  O120  1  0.17570071  0.50602402  0.07545497  1
  O  O121  1  0.67774369  0.50506141  0.07980667  1
  O  O122  1  0.06897735  0.64649430  0.07473744  1
  O  O123  1  0.56997529  0.64908085  0.07478464  1
  O  O124  1  0.24776617  0.86111438  0.07208747  1
  O  O125  1  0.74976888  0.86752349  0.07640952  1
  O  O126  1  0.17733051  0.84363980  0.57519236  1
  O  O127  1  0.67880078  0.85096480  0.58022382  1
  O  O128  1  0.25226303  0.64156541  0.57709381  1
  O  O129  1  0.74801131  0.63468130  0.57544385  1
  O  O130  1  0.07357835  0.49490113  0.57327367  1
  O  O131  1  0.57235194  0.48932747  0.57674181  1
  O  O132  1  0.15371271  0.84299338  0.25439361  1
  O  O133  1  0.65975607  0.84757292  0.25487896  1
  O  O134  1  0.25627563  0.69747265  0.25827259  1
  O  O135  1  0.75802957  0.69599727  0.25755187  1
  O  O136  1  0.08401363  0.48343943  0.25306410  1
  O  O137  1  0.58515507  0.48765292  0.25365398  1
  O  O138  1  0.15780490  0.47280818  0.75829513  1
  O  O139  1  0.64964850  0.46226056  0.75603597  1
  O  O140  1  0.08592489  0.68259112  0.75816339  1
  O  O141  1  0.57995565  0.69380698  0.75591190  1
  O  O142  1  0.25555522  0.82298740  0.75976458  1
  O  O143  1  0.75272257  0.80954481  0.76169582  1
loop_
_geom_bond_atom_site_label_1
_geom_bond_atom_site_label_2
_geom_bond_distance
_geom_bond_site_symmetry_2
Na0 O134 2.292406 1_555
Na0 O104 2.296203 1_565
Na0 O132 2.518444 1_555
Na0 O106 2.526024 1_565
Na0 O32 2.604720 1_565
Na0 O62 2.687598 1_555
Na0 O18 2.705287 1_555
Na0 O4 2.748616 1_565
Na1 O135 2.294484 1_555
Na1 O105 2.310528 1_565
Na1 O133 2.449003 1_555
Na1 O107 2.515956 1_565
Na1 O63 2.633683 1_555
Na1 O33 2.633788 1_565
Na1 O19 2.722296 1_555
Na1 O5 2.745499 1_565
Na2 O136 2.351226 1_555
Na2 O102 2.369722 1_555
Na2 O106 2.425008 1_555
Na2 O34 2.453848 1_555
Na2 O134 2.487972 1_555
Na2 O64 2.729280 1_555
Na2 O20 2.756467 1_555
Na2 O0 2.884886 1_555
Na3 O137 2.372987 1_555
Na3 O103 2.385810 1_555
Na3 O135 2.449598 1_555
Na3 O107 2.456476 1_555
Na3 O35 2.516791 1_555
Na3 O65 2.709000 1_555
Na3 O21 2.738255 1_555
Na3 O1 2.838517 1_555
Na4 O103 2.365063 1_555
Na4 O136 2.399992 1_655
Na4 O132 2.414783 1_655
Na4 O60 2.451735 1_655
Na4 O105 2.469246 1_555
Na4 O3 2.627011 1_555
Na4 O31 2.773922 1_555
Na4 O22 2.884641 1_655
Na5 O137 2.397226 1_555
Na5 O61 2.399374 1_555
Na5 O102 2.409972 1_555
Na5 O133 2.487458 1_555
Na5 O104 2.490807 1_555
Na5 O2 2.586714 1_555
Na5 O30 2.766070 1_555
Na5 O23 2.830258 1_555
Na6 O101 2.287813 1_555
Na6 O143 2.312767 1_555
Na6 O99 2.493588 1_555
Na6 O29 2.559304 1_555
Na6 O139 2.590261 1_555
Na6 O13 2.614942 1_555
Na6 O71 2.722052 1_555
Na6 O9 2.812778 1_555
Na7 O97 2.334715 1_555
Na7 O140 2.408017 1_655
Na7 O138 2.462353 1_655
Na7 O101 2.477858 1_555
Na7 O66 2.515805 1_655
Na7 O11 2.671597 1_555
Na7 O25 2.761647 1_555
Na7 O14 2.846354 1_655
Na8 O96 2.312179 1_555
Na8 O139 2.329550 1_555
Na8 O100 2.501860 1_555
Na8 O141 2.519627 1_555
Na8 O67 2.529153 1_555
Na8 O10 2.621527 1_555
Na8 O24 2.706540 1_555
Na8 O15 2.818217 1_555
Na9 O140 2.358063 1_555
Na9 O142 2.402144 1_555
Na9 O98 2.459120 1_565
Na9 O96 2.465118 1_565
Na9 O26 2.537083 1_565
Na9 O68 2.687928 1_555
Na9 O16 2.690583 1_555
Na9 O6 2.846048 1_565
Na10 O86 2.382803 1_565
Na10 O89 2.408754 1_455
Na10 O126 2.413965 1_555
Na10 O130 2.474753 1_555
Na10 O16 2.504845 1_555
Na10 O58 2.618748 1_555
Na10 O25 2.717718 1_455
Na10 O45 2.803194 1_455
Na11 O126 2.342247 1_555
Na11 O84 2.382934 1_565
Na11 O88 2.445542 1_555
Na11 O128 2.490410 1_555
Na11 O12 2.499961 1_555
Na11 O26 2.644150 1_565
Na11 O46 2.771930 1_565
Na11 O54 2.776738 1_555
Na12 O120 2.342023 1_555
Na12 O93 2.380554 1_455
Na12 O94 2.381257 1_555
Na12 O122 2.430551 1_555
Na12 O20 2.523765 1_555
Na12 O50 2.580487 1_554
Na12 O31 2.808436 1_455
Na12 O41 2.855833 1_455
Na13 O121 2.365368 1_555
Na13 O95 2.387619 1_555
Na13 O92 2.405097 1_555
Na13 O123 2.460029 1_555
Na13 O21 2.483799 1_555
Na13 O51 2.572396 1_554
Na13 O30 2.804780 1_555
Na13 O40 2.905247 1_555
Na14 O78 2.279248 1_555
Na14 O108 2.391180 1_555
Na14 O80 2.501269 1_545
Na14 O112 2.520493 1_555
Na14 O36 2.523757 1_556
Na14 O50 2.667621 1_555
Na14 O6 2.758244 1_555
Na14 O70 2.862159 1_555
Na15 O79 2.312942 1_555
Na15 O109 2.383566 1_555
Na15 O113 2.465088 1_555
Na15 O37 2.501377 1_556
Na15 O81 2.515627 1_545
Na15 O51 2.636945 1_555
Na15 O7 2.779564 1_555
Na15 O71 2.850571 1_555
Na16 O72 2.276510 1_545
Na16 O114 2.371539 1_555
Na16 O116 2.467800 1_555
Na16 O76 2.506087 1_555
Na16 O42 2.509892 1_555
Na16 O58 2.675918 1_545
Na16 O0 2.760537 1_555
Na16 O62 2.886069 1_545
Na17 O73 2.290608 1_545
Na17 O115 2.396245 1_555
Na17 O43 2.416466 1_555
Na17 O117 2.475550 1_555
Na17 O77 2.495485 1_555
Na17 O59 2.596643 1_545
Na17 O1 2.783241 1_555
Na17 O63 2.884885 1_545
Na18 O86 2.421783 1_655
Na18 O89 2.441739 1_545
Na18 O72 2.459953 1_645
Na18 O76 2.466078 1_655
Na18 O75 2.511765 1_545
Na18 O85 2.526933 1_555
Na19 O73 2.372179 1_555
Na19 O87 2.412332 1_565
Na19 O77 2.462499 1_565
Na19 O88 2.517163 1_555
Na19 O74 2.588986 1_555
Na19 O84 2.628077 1_565
Na20 O94 2.434746 1_566
Na20 O78 2.459539 1_565
Na20 O80 2.486290 1_555
Na20 O93 2.500015 1_466
Na20 O91 2.523199 1_456
Na20 O83 2.567169 1_455
Na21 O95 2.404205 1_565
Na21 O92 2.437908 1_565
Na21 O90 2.453427 1_555
Na21 O79 2.495786 1_564
Na21 O81 2.540261 1_554
Na21 O82 2.604292 1_554
Na22 O110 2.368399 1_555
Na22 O96 2.467932 1_555
Na22 O112 2.498605 1_555
Na22 O100 2.505120 1_555
Na22 O108 2.555246 1_555
Na22 O98 2.659661 1_555
Na23 O97 2.362288 1_555
Na23 O111 2.406030 1_555
Na23 O101 2.452676 1_555
Na23 O113 2.486139 1_555
Na23 O109 2.629075 1_555
Na23 O99 2.702869 1_555
Na24 O118 2.321426 1_555
Na24 O102 2.423911 1_555
Na24 O104 2.453979 1_555
Na24 O116 2.549223 1_555
Na24 O114 2.594178 1_555
Na24 O106 2.745726 1_555
Na25 O119 2.339440 1_555
Na25 O103 2.482768 1_555
Na25 O117 2.493592 1_555
Na25 O105 2.499659 1_555
Na25 O115 2.554497 1_555
Na25 O107 2.777366 1_555
Na26 O120 2.386807 1_555
Na26 O136 2.458139 1_555
Na26 O134 2.469741 1_555
Na26 O124 2.517562 1_555
Na26 O122 2.649928 1_555
Na26 O132 2.658002 1_555
Na27 O121 2.347750 1_555
Na27 O137 2.438061 1_555
Na27 O135 2.455114 1_555
Na27 O125 2.486189 1_555
Na27 O133 2.629594 1_555
Na27 O123 2.661610 1_555
Na28 O140 2.445264 1_555
Na28 O142 2.461127 1_555
Na28 O126 2.511124 1_555
Na28 O138 2.523631 1_555
Na28 O128 2.532084 1_555
Na28 O130 2.681027 1_555
Na29 O127 2.247754 1_555
Na29 O143 2.466918 1_555
Na29 O129 2.516431 1_555
Na29 O141 2.555845 1_555
Na29 O131 2.674637 1_555
Na29 O139 2.729750 1_555
Al0 O3 1.758818 1_555
Al0 O5 1.840197 1_565
Al0 O72 1.884021 1_655
Al0 O75 1.925621 1_555
Al0 O0 2.045871 1_665
Al0 O76 2.355088 1_665
Al1 O11 1.749752 1_565
Al1 O9 1.834555 1_555
Al1 O78 1.892573 1_665
Al1 O83 1.946793 1_555
Al1 O6 2.078614 1_665
Al1 O80 2.320061 1_655
Al2 O10 1.745567 1_555
Al2 O79 1.818195 1_555
Al2 O82 1.943473 1_545
Al2 O7 1.965115 1_555
Al2 O8 2.069597 1_545
Al2 O81 2.188968 1_545
Al3 O87 1.791115 1_565
Al3 O12 1.820397 1_555
Al3 O17 1.897509 1_555
Al3 O15 1.973362 1_565
Al3 O84 2.095059 1_565
Al3 O88 2.110091 1_555
Al4 O20 1.790528 1_555
Al4 O19 1.804196 1_445
Al4 O94 1.870791 1_555
Al4 O22 1.998326 1_545
Al4 O93 2.129418 1_455
Al4 O91 2.158283 1_445
Al5 O35 1.802499 1_555
Al5 O103 1.832258 1_555
Al5 O105 1.911266 1_555
Al5 O31 1.940914 1_555
Al5 O107 2.010574 1_555
Al5 O33 2.116477 1_555
Al6 O36 1.788635 1_556
Al6 O110 1.817575 1_555
Al6 O40 1.884754 1_556
Al6 O38 1.985954 1_556
Al6 O112 2.106961 1_555
Al6 O108 2.138085 1_555
Al7 O37 1.790735 1_556
Al7 O111 1.799839 1_555
Al7 O41 1.896382 1_556
Al7 O39 1.966211 1_556
Al7 O109 2.146317 1_555
Al7 O113 2.193011 1_555
Al8 O50 1.789741 1_554
Al8 O120 1.832829 1_555
Al8 O48 1.924577 1_554
Al8 O52 2.017529 1_554
Al8 O122 2.082388 1_555
Al8 O124 2.109827 1_555
Al9 O58 1.769092 1_555
Al9 O126 1.869259 1_555
Al9 O54 1.908837 1_555
Al9 O130 1.944695 1_555
Al9 O56 1.993486 1_555
Al9 O128 2.225353 1_555
Al10 O66 1.807674 1_555
Al10 O140 1.846218 1_555
Al10 O142 1.874467 1_555
Al10 O68 1.948792 1_555
Al10 O70 2.082370 1_555
Al10 O138 2.083899 1_555
Al11 O67 1.796950 1_555
Al11 O143 1.806694 1_555
Al11 O69 1.852539 1_555
Al11 O141 2.048644 1_555
Al11 O71 2.065485 1_555
Al11 O139 2.231201 1_555
Ga0 O2 1.826139 1_555
Ga0 O4 1.882456 1_565
Ga0 O73 1.907581 1_555
Ga0 O74 2.042456 1_555
Ga0 O1 2.145490 1_565
Ga0 O77 2.307838 1_565
Ga1 O16 1.859991 1_655
Ga1 O13 1.863267 1_555
Ga1 O86 1.968097 1_665
Ga1 O14 2.133437 1_665
Ga1 O89 2.151654 1_555
Ga1 O85 2.162304 1_565
Ga2 O21 1.855489 1_555
Ga2 O18 1.865938 1_545
Ga2 O95 1.923695 1_555
Ga2 O23 2.053054 1_545
Ga2 O90 2.212396 1_545
Ga2 O92 2.214921 1_555
Ga3 O26 1.841032 1_555
Ga3 O96 1.916071 1_555
Ga3 O24 1.996698 1_555
Ga3 O98 2.059219 1_555
Ga3 O28 2.062113 1_555
Ga3 O100 2.286612 1_555
Ga4 O27 1.808427 1_555
Ga4 O97 1.858857 1_555
Ga4 O101 2.019611 1_555
Ga4 O25 2.084450 1_555
Ga4 O99 2.104394 1_555
Ga4 O29 2.210295 1_555
Ga5 O34 1.849197 1_555
Ga5 O102 1.898088 1_555
Ga5 O104 1.972878 1_555
Ga5 O30 1.984440 1_555
Ga5 O106 2.120690 1_555
Ga5 O32 2.202924 1_555
Ga6 O118 1.837074 1_555
Ga6 O42 1.845403 1_555
Ga6 O44 1.962835 1_555
Ga6 O46 2.052830 1_555
Ga6 O116 2.130810 1_555
Ga6 O114 2.194875 1_555
Ga7 O43 1.848399 1_555
Ga7 O119 1.867623 1_555
Ga7 O45 1.965053 1_555
Ga7 O47 2.060868 1_555
Ga7 O117 2.117703 1_555
Ga7 O115 2.193458 1_555
Ga8 O51 1.849520 1_554
Ga8 O121 1.894016 1_555
Ga8 O49 1.949853 1_554
Ga8 O123 2.071683 1_555
Ga8 O53 2.130266 1_554
Ga8 O125 2.194372 1_555
Ga9 O59 1.810728 1_555
Ga9 O127 1.838597 1_555
Ga9 O55 1.983041 1_555
Ga9 O131 2.069592 1_555
Ga9 O129 2.169888 1_555
Ga9 O57 2.187212 1_555
Ga10 O60 1.840495 1_555
Ga10 O136 1.903482 1_555
Ga10 O134 1.939429 1_555
Ga10 O64 1.947059 1_555
Ga10 O132 2.199519 1_555
Ga10 O62 2.207153 1_555
Ga11 O61 1.856645 1_555
Ga11 O137 1.915826 1_555
Ga11 O65 1.939816 1_555
Ga11 O135 1.952664 1_555
Ga11 O63 2.161982 1_555
Ga11 O133 2.185568 1_555
O0 S0 1.483145 1_555
O1 S1 1.479862 1_555
O2 Si0 1.614680 1_555
O3 Si1 1.613953 1_555
O4 Si3 1.626384 1_555
O5 Si2 1.624576 1_555
O6 S2 1.485584 1_555
O7 S3 1.484749 1_555
O8 S4 1.470176 1_555
O9 Si4 1.619615 1_555
O10 Si5 1.613175 1_545
O11 Si6 1.614510 1_545
O12 Si5 1.635493 1_555
O13 Si6 1.640768 1_555
O14 S2 1.478893 1_555
O15 S3 1.481740 1_555
O16 Si4 1.642450 1_455
O17 S4 1.480736 1_555
O18 Si0 1.627984 1_555
O19 Si1 1.622336 1_555
O20 Si2 1.626042 1_455
O21 Si3 1.628468 1_555
O22 S0 1.474140 1_565
O23 S1 1.475924 1_565
O24 S5 1.503954 1_555
O25 S6 1.496196 1_555
O26 Si7 1.644258 1_555
O27 Si8 1.611083 1_555
O28 S7 1.483705 1_555
O29 S8 1.479850 1_555
O30 S9 1.504939 1_555
O31 S10 1.505255 1_555
O32 S11 1.487331 1_555
O33 S12 1.482989 1_555
O34 Si9 1.637269 1_555
O35 Si10 1.623529 1_555
O36 Si9 1.632530 1_555
O37 Si10 1.634337 1_555
O38 S9 1.469630 1_555
O39 S10 1.476956 1_555
O40 S11 1.486258 1_555
O41 S12 1.488792 1_555
O42 Si7 1.629760 1_555
O43 Si8 1.651328 1_555
O44 S7 1.473304 1_555
O45 S8 1.486691 1_555
O46 S5 1.476145 1_555
O47 S6 1.470570 1_555
O48 S13 1.485545 1_555
O49 S14 1.484832 1_555
O50 Si11 1.652254 1_555
O51 Si12 1.646322 1_555
O52 S15 1.477347 1_555
O53 S16 1.472944 1_555
O54 S17 1.495243 1_555
O55 S18 1.480666 1_555
O56 S19 1.479195 1_555
O57 S20 1.467076 1_555
O58 Si13 1.643688 1_555
O59 Si14 1.622064 1_555
O60 Si13 1.642282 1_555
O61 Si14 1.635185 1_555
O62 S17 1.478946 1_555
O63 S18 1.491143 1_555
O64 S19 1.492573 1_555
O65 S20 1.495457 1_555
O66 Si11 1.632002 1_555
O67 Si12 1.645582 1_555
O68 S15 1.491045 1_555
O69 S16 1.484267 1_555
O70 S13 1.473724 1_555
O71 S14 1.497201 1_555
O72 Si13 1.654298 1_555
O73 Si14 1.656120 1_555
O74 S17 1.477026 1_555
O75 S18 1.471811 1_555
O76 S19 1.474168 1_555
O77 S20 1.483428 1_555
O78 Si11 1.667365 1_555
O79 Si12 1.659932 1_555
O80 S15 1.482201 1_555
O81 S16 1.501982 1_555
O82 S13 1.487765 1_555
O83 S14 1.465634 1_555
O84 S5 1.488677 1_555
O85 S6 1.458767 1_555
O86 Si7 1.629324 1_555
O87 Si8 1.650303 1_555
O88 S7 1.493797 1_555
O89 S8 1.491863 1_555
O90 S9 1.462267 1_555
O91 S10 1.464507 1_555
O92 S11 1.491657 1_555
O93 S12 1.493560 1_555
O94 Si9 1.660415 1_555
O95 Si10 1.669333 1_555
O96 Si5 1.693133 1_545
O97 Si6 1.625393 1_545
O98 S2 1.500545 1_555
O99 S3 1.464656 1_555
O100 S4 1.496787 1_555
O101 Si4 1.653970 1_555
O102 Si0 1.637935 1_555
O103 Si1 1.645096 1_555
O104 Si3 1.652511 1_555
O105 Si2 1.654408 1_555
O106 S0 1.485818 1_555
O107 S1 1.485227 1_555
O108 S13 1.495151 1_555
O109 S14 1.487758 1_555
O110 Si12 1.631081 1_555
O111 Si11 1.642663 1_655
O112 S15 1.505864 1_545
O113 S16 1.488710 1_545
O114 S17 1.483261 1_545
O115 S18 1.485418 1_545
O116 S19 1.491864 1_555
O117 S20 1.493687 1_555
O118 Si14 1.636588 1_555
O119 Si13 1.631586 1_655
O120 Si9 1.667779 1_555
O121 Si10 1.675056 1_555
O122 S10 1.499857 1_455
O123 S9 1.498549 1_555
O124 S11 1.476400 1_565
O125 S12 1.477828 1_565
O126 Si7 1.675549 1_565
O127 Si8 1.646876 1_565
O128 S7 1.494654 1_555
O129 S8 1.476476 1_555
O130 S6 1.516019 1_455
O131 S5 1.465691 1_555
O132 S0 1.484117 1_565
O133 S1 1.480580 1_565
O134 Si0 1.652246 1_555
O135 Si1 1.655786 1_555
O136 Si2 1.648096 1_455
O137 Si3 1.638759 1_555
O138 S2 1.475501 1_555
O139 S3 1.505714 1_555
O140 Si4 1.642611 1_455
O141 S4 1.505623 1_555
O142 Si5 1.628875 1_555
O143 Si6 1.658168 1_555
