# generated using pymatgen
data_Tm2MgMo2(ClO4)2
_symmetry_space_group_name_H-M   'P 1'
_cell_length_a   6.58756745
_cell_length_b   6.58756660
_cell_length_c   7.08653682
_cell_angle_alpha   75.97612367
_cell_angle_beta   75.97612550
_cell_angle_gamma   61.92101049
_symmetry_Int_Tables_number   1
_chemical_formula_structural   Tm2MgMo2(ClO4)2
_chemical_formula_sum   'Tm2 Mg1 Mo2 Cl2 O8'
_cell_volume   260.27231663
_cell_formula_units_Z   1
loop_
 _symmetry_equiv_pos_site_id
 _symmetry_equiv_pos_as_xyz
  1  'x, y, z'
loop_
 _atom_site_type_symbol
 _atom_site_label
 _atom_site_symmetry_multiplicity
 _atom_site_fract_x
 _atom_site_fract_y
 _atom_site_fract_z
 _atom_site_occupancy
  Tm  Tm0  1  0.26713300  0.28634220  0.87897845  1
  Tm  Tm1  1  0.71365780  0.73286700  0.12102155  1
  Mg  Mg0  1  0.75717652  0.24282348  1.00000000  1
  Mo  Mo0  1  0.62433961  0.67366842  0.70563160  1
  Mo  Mo1  1  0.32633158  0.37566039  0.29436840  1
  Cl  Cl0  1  0.06412722  0.04705267  0.20524592  1
  Cl  Cl1  1  0.95294733  0.93587278  0.79475408  1
  O  O0  1  0.29456250  0.29533797  0.55686811  1
  O  O1  1  0.70466203  0.70543750  0.44313189  1
  O  O2  1  0.51781531  0.11730822  0.14428962  1
  O  O3  1  0.55146943  0.49423548  0.19831905  1
  O  O4  1  0.88269178  0.48218469  0.85571038  1
  O  O5  1  0.09606579  0.51916141  0.13407103  1
  O  O6  1  0.50576452  0.44853057  0.80168095  1
  O  O7  1  0.48083859  0.90393421  0.86592897  1
loop_
_geom_bond_atom_site_label_1
_geom_bond_atom_site_label_2
_geom_bond_distance
_geom_bond_site_symmetry_2
Mg0 O4 2.061965 1_555
Mg0 O2 2.061965 1_556
Mg0 O3 2.155634 1_556
Mg0 O6 2.155634 1_555
Mo0 O1 1.795187 1_555
Mo0 O7 1.857355 1_555
Mo0 O6 1.901764 1_555
Mo0 O4 1.955729 1_555
Mo1 O0 1.795187 1_555
Mo1 O5 1.857355 1_555
Mo1 O3 1.901764 1_555
Mo1 O2 1.955729 1_555
Cl0 Mg0 2.434924 1_454
Cl0 Tm0 2.887666 1_554
Cl1 Mg0 2.434923 1_565
Cl1 Tm1 2.887666 1_556
O0 Tm0 2.234113 1_555
O1 Tm1 2.234113 1_555
O2 Tm1 2.264701 1_545
O2 Tm0 2.502195 1_554
O3 Tm1 2.189271 1_555
O4 Tm0 2.264702 1_655
O4 Tm1 2.502195 1_556
O5 Tm1 2.246727 1_455
O5 Tm0 2.370534 1_554
O6 Tm0 2.189271 1_555
O7 Tm0 2.246726 1_565
O7 Tm1 2.370534 1_556
