# generated using pymatgen
data_Na6Mg2Ti2Si3(SO8)3
_symmetry_space_group_name_H-M   'P 1'
_cell_length_a   8.94666779
_cell_length_b   8.95175756
_cell_length_c   22.26133005
_cell_angle_alpha   89.99648832
_cell_angle_beta   90.84275578
_cell_angle_gamma   119.59382736
_symmetry_Int_Tables_number   1
_chemical_formula_structural   Na6Mg2Ti2Si3(SO8)3
_chemical_formula_sum   'Na18 Mg6 Ti6 Si9 S9 O72'
_cell_volume   1550.07416454
_cell_formula_units_Z   3
loop_
 _symmetry_equiv_pos_site_id
 _symmetry_equiv_pos_as_xyz
  1  'x, y, z'
loop_
 _atom_site_type_symbol
 _atom_site_label
 _atom_site_symmetry_multiplicity
 _atom_site_fract_x
 _atom_site_fract_y
 _atom_site_fract_z
 _atom_site_occupancy
  Na  Na0  1  0.37034487  0.35464918  0.24626474  1
  Na  Na1  1  0.99940637  0.63544400  0.24206861  1
  Na  Na2  1  0.98920990  0.35455242  0.74680046  1
  Na  Na3  1  0.37810480  0.02273095  0.74724850  1
  Na  Na4  1  0.29801590  0.33470825  0.58138730  1
  Na  Na5  1  0.65865564  0.97468273  0.58968253  1
  Na  Na6  1  0.30363404  0.95905171  0.07452505  1
  Na  Na7  1  0.65931938  0.68645284  0.08302062  1
  Na  Na8  1  0.98250116  0.67799223  0.91804077  1
  Na  Na9  1  0.32300963  0.28777587  0.90913845  1
  Na  Na10  1  0.98280166  0.30383380  0.42401752  1
  Na  Na11  1  0.32633919  0.03947697  0.41402948  1
  Na  Na12  1  0.00523895  0.99442440  0.50338239  1
  Na  Na13  1  0.00211316  0.01019072  0.99446276  1
  Na  Na14  1  0.65722539  0.31941202  0.82638721  1
  Na  Na15  1  0.65295641  0.32592754  0.33180341  1
  Na  Na16  1  0.32150250  0.65746227  0.15902396  1
  Na  Na17  1  0.32154209  0.66422246  0.66149348  1
  Mg  Mg0  1  0.01088421  0.00651876  0.35046706  1
  Mg  Mg1  1  0.01025880  0.00781242  0.84864218  1
  Mg  Mg2  1  0.66228629  0.32523374  0.68623302  1
  Mg  Mg3  1  0.66157224  0.32688810  0.18250957  1
  Mg  Mg4  1  0.31502350  0.65852286  0.01905942  1
  Mg  Mg5  1  0.31649476  0.65506422  0.52164901  1
  Ti  Ti0  1  0.00565579  0.02687441  0.64843073  1
  Ti  Ti1  1  0.02360146  0.99581246  0.14203059  1
  Ti  Ti2  1  0.64991290  0.32446357  0.98408668  1
  Ti  Ti3  1  0.64760412  0.32728028  0.48895189  1
  Ti  Ti4  1  0.34116037  0.66794254  0.31535014  1
  Ti  Ti5  1  0.35523660  0.68917721  0.80788153  1
  Si  Si0  1  0.30452359  0.00085604  0.25326083  1
  Si  Si1  1  0.30223416  0.30351071  0.75443890  1
  Si  Si2  1  0.71696180  0.00351754  0.75103365  1
  Si  Si3  1  0.95725798  0.34004449  0.58588407  1
  Si  Si4  1  0.36238565  0.02777344  0.58693886  1
  Si  Si5  1  0.95623647  0.61358711  0.08683414  1
  Si  Si6  1  0.37385288  0.34117363  0.08630519  1
  Si  Si7  1  0.33475260  0.95889505  0.91878464  1
  Si  Si8  1  0.33790985  0.37422648  0.41862155  1
  S  S0  1  0.70955289  0.71482381  0.25097502  1
  S  S1  1  0.99723262  0.28792896  0.25126787  1
  S  S2  1  0.99876877  0.71092616  0.75134279  1
  S  S3  1  0.67205661  0.62647297  0.58411716  1
  S  S4  1  0.67280279  0.04516475  0.08403642  1
  S  S5  1  0.62461599  0.66791271  0.91806397  1
  S  S6  1  0.03726341  0.37390864  0.91668075  1
  S  S7  1  0.62703874  0.95609197  0.41693475  1
  S  S8  1  0.04011650  0.66535070  0.41467405  1
  O  O0  1  0.20949198  0.02587169  0.30949414  1
  O  O1  1  0.81516166  0.80352001  0.30390052  1
  O  O2  1  0.97691942  0.19244542  0.30699214  1
  O  O3  1  0.22104845  0.18266335  0.81164016  1
  O  O4  1  0.98068608  0.78501704  0.80816202  1
  O  O5  1  0.83183981  0.02381669  0.80826551  1
  O  O6  1  0.80126834  0.96960472  0.68851000  1
  O  O7  1  0.16514367  0.20592521  0.69347870  1
  O  O8  1  0.02964117  0.82472193  0.69919693  1
  O  O9  1  0.78239793  0.81292060  0.19510026  1
  O  O10  1  0.02325030  0.20200925  0.19875642  1
  O  O11  1  0.16929562  0.96507712  0.19202539  1
  O  O12  1  0.87100229  0.36103289  0.64436215  1
  O  O13  1  0.48462137  0.12085205  0.64327568  1
  O  O14  1  0.64352452  0.51925875  0.63651638  1
  O  O15  1  0.87144472  0.51528324  0.14750466  1
  O  O16  1  0.64211340  0.12199896  0.13717202  1
  O  O17  1  0.48383160  0.36608276  0.14625077  1
  O  O18  1  0.46396671  0.29462395  0.02714208  1
  O  O19  1  0.82652175  0.52328219  0.02671474  1
  O  O20  1  0.69659370  0.15309267  0.02969751  1
  O  O21  1  0.46056014  0.16737797  0.52558774  1
  O  O22  1  0.69134967  0.53652336  0.52840480  1
  O  O23  1  0.82805753  0.30573451  0.52307213  1
  O  O24  1  0.54755770  0.68831480  0.97277466  1
  O  O25  1  0.14940218  0.45532797  0.96978489  1
  O  O26  1  0.30947285  0.84660538  0.97746864  1
  O  O27  1  0.54993807  0.85841395  0.47067785  1
  O  O28  1  0.30807164  0.46826929  0.47375299  1
  O  O29  1  0.15369902  0.69926576  0.46701000  1
  O  O30  1  0.12551696  0.63987206  0.35925693  1
  O  O31  1  0.50901362  0.86841653  0.36225408  1
  O  O32  1  0.35755714  0.50100099  0.35723288  1
  O  O33  1  0.11391996  0.47885953  0.86217974  1
  O  O34  1  0.35829216  0.85951420  0.85837261  1
  O  O35  1  0.51179451  0.63839911  0.86417245  1
  O  O36  1  0.01662688  0.81640488  0.40733591  1
  O  O37  1  0.79996252  0.97990028  0.40764982  1
  O  O38  1  0.16602035  0.18435279  0.41164487  1
  O  O39  1  0.01761554  0.19997241  0.91251399  1
  O  O40  1  0.16481391  0.98257067  0.91358302  1
  O  O41  1  0.80057131  0.81268548  0.91190344  1
  O  O42  1  0.96173870  0.15082640  0.58652157  1
  O  O43  1  0.17580540  0.02290757  0.58922368  1
  O  O44  1  0.82793856  0.79652152  0.58584854  1
  O  O45  1  0.96232434  0.81269328  0.09056973  1
  O  O46  1  0.82905936  0.02643142  0.08986382  1
  O  O47  1  0.18252663  0.15682534  0.09052048  1
  O  O48  1  0.68700716  0.16662953  0.74666470  1
  O  O49  1  0.48816506  0.32708435  0.74304012  1
  O  O50  1  0.85225222  0.53753931  0.74441728  1
  O  O51  1  0.69207998  0.54072660  0.24879178  1
  O  O52  1  0.85170958  0.32006965  0.24526609  1
  O  O53  1  0.48867081  0.16965865  0.24517189  1
  O  O54  1  0.63669769  0.50268528  0.92121683  1
  O  O55  1  0.86577729  0.36481785  0.92347832  1
  O  O56  1  0.51154218  0.15787401  0.92464008  1
  O  O57  1  0.63909874  0.13037765  0.41797489  1
  O  O58  1  0.51241587  0.35154768  0.42040563  1
  O  O59  1  0.87330477  0.50435309  0.41848223  1
  O  O60  1  0.36309543  0.51119691  0.07433741  1
  O  O61  1  0.15417678  0.66533160  0.08104927  1
  O  O62  1  0.52232515  0.87069740  0.07644947  1
  O  O63  1  0.36418430  0.85342836  0.57226567  1
  O  O64  1  0.51940922  0.64808381  0.57506510  1
  O  O65  1  0.15360365  0.48773039  0.57888480  1
  O  O66  1  0.30456449  0.81319653  0.25876414  1
  O  O67  1  0.52866773  0.68952194  0.25554715  1
  O  O68  1  0.16172107  0.46483562  0.25517518  1
  O  O69  1  0.29587475  0.48650075  0.76086126  1
  O  O70  1  0.16139738  0.69387428  0.75540565  1
  O  O71  1  0.51551216  0.82710469  0.75504198  1
loop_
_geom_bond_atom_site_label_1
_geom_bond_atom_site_label_2
_geom_bond_distance
_geom_bond_site_symmetry_2
Na0 O53 2.365553 1_555
Na0 O17 2.441772 1_555
Na0 O51 2.514526 1_555
Na0 O68 2.515021 1_555
Na0 O67 2.613972 1_555
Na0 O32 2.826410 1_555
Na0 O10 2.888137 1_555
Na0 O0 2.930877 1_555
Na1 O15 2.369026 1_555
Na1 O66 2.408988 1_655
Na1 O51 2.451691 1_555
Na1 O52 2.457538 1_555
Na1 O68 2.589294 1_655
Na1 O11 2.806783 1_655
Na1 O30 2.819484 1_655
Na2 O48 2.376428 1_555
Na2 O69 2.407198 1_655
Na2 O50 2.483535 1_555
Na2 O12 2.512315 1_555
Na2 O70 2.646896 1_655
Na2 O33 2.787484 1_655
Na2 O7 2.789317 1_655
Na2 O5 2.925592 1_555
Na3 O49 2.398791 1_555
Na3 O48 2.404601 1_555
Na3 O13 2.504954 1_555
Na3 O71 2.593855 1_545
Na3 O70 2.613645 1_545
Na3 O34 2.835906 1_545
Na3 O3 2.850490 1_555
Na3 O8 2.906813 1_545
Na4 O65 2.301022 1_555
Na4 O43 2.451083 1_555
Na4 O64 2.516475 1_555
Na4 O42 2.625408 1_455
Na4 O28 2.660551 1_555
Na4 O7 2.775256 1_555
Na4 O21 2.847163 1_555
Na4 O14 2.938599 1_555
Na5 O63 2.326983 1_555
Na5 O42 2.372027 1_565
Na5 O6 2.538670 1_555
Na5 O64 2.568324 1_555
Na5 O44 2.689638 1_555
Na5 O13 2.761686 1_565
Na5 O27 2.823520 1_555
Na5 O23 2.984545 1_565
Na6 O61 2.292483 1_555
Na6 O26 2.395765 1_554
Na6 O62 2.445710 1_555
Na6 O47 2.518187 1_565
Na6 O45 2.692403 1_455
Na6 O18 2.825271 1_565
Na6 O11 2.906185 1_555
Na6 O16 2.959078 1_565
Na7 O60 2.323927 1_555
Na7 O45 2.369603 1_555
Na7 O62 2.497022 1_555
Na7 O24 2.639610 1_554
Na7 O46 2.649542 1_565
Na7 O9 2.721704 1_555
Na7 O19 2.855854 1_555
Na7 O17 2.878935 1_555
Na8 O40 2.390906 1_655
Na8 O41 2.460409 1_555
Na8 O55 2.465088 1_555
Na8 O4 2.629677 1_555
Na8 O54 2.692639 1_555
Na8 O19 2.812136 1_556
Na8 O26 2.848009 1_655
Na8 O33 2.867022 1_655
Na9 O3 2.350011 1_555
Na9 O40 2.379548 1_545
Na9 O39 2.444093 1_555
Na9 O56 2.497300 1_555
Na9 O54 2.508939 1_555
Na9 O18 2.884620 1_556
Na9 O35 2.918809 1_555
Na9 O25 2.974510 1_555
Na10 O38 2.377346 1_655
Na10 O59 2.435183 1_555
Na10 O37 2.552411 1_545
Na10 O23 2.625350 1_555
Na10 O57 2.675188 1_555
Na10 O28 2.745121 1_655
Na10 O2 2.779970 1_555
Na11 O38 2.361577 1_555
Na11 O58 2.448540 1_555
Na11 O36 2.492071 1_545
Na11 O57 2.498681 1_555
Na11 O0 2.515109 1_555
Na11 O21 2.734043 1_555
Na11 O29 2.908397 1_545
Na11 O31 2.978559 1_545
Na12 O43 2.361221 1_565
Na12 O42 2.469164 1_465
Na12 O44 2.516850 1_455
Na12 O38 2.607838 1_565
Na12 O36 2.699752 1_555
Na12 O37 2.753284 1_455
Na13 O40 2.419583 1_545
Na13 O39 2.451080 1_555
Na13 O41 2.551301 1_445
Na13 O47 2.589811 1_556
Na13 O45 2.688871 1_446
Na13 O46 2.692145 1_456
Na14 O48 2.337803 1_555
Na14 O49 2.398971 1_555
Na14 O56 2.606873 1_555
Na14 O50 2.629654 1_555
Na14 O55 2.729570 1_555
Na14 O54 2.737014 1_555
Na15 O53 2.392196 1_555
Na15 O58 2.425239 1_555
Na15 O57 2.559637 1_555
Na15 O51 2.566815 1_555
Na15 O59 2.634247 1_555
Na15 O52 2.658703 1_555
Na16 O61 2.299298 1_555
Na16 O60 2.430865 1_555
Na16 O62 2.638204 1_555
Na16 O66 2.667462 1_555
Na16 O68 2.693201 1_555
Na16 O67 2.737189 1_555
Na17 O65 2.389545 1_555
Na17 O63 2.518615 1_555
Na17 O71 2.620933 1_555
Na17 O70 2.637749 1_555
Na17 O69 2.670326 1_555
Na17 O64 2.685015 1_555
Mg0 O0 1.939811 1_555
Mg0 O38 2.019341 1_555
Mg0 O1 2.060823 1_445
Mg0 O2 2.071185 1_455
Mg0 O36 2.141454 1_545
Mg0 O37 2.205599 1_445
Mg1 O5 1.886828 1_455
Mg1 O3 1.953195 1_555
Mg1 O40 2.074314 1_545
Mg1 O4 2.081287 1_445
Mg1 O39 2.206979 1_555
Mg1 O41 2.322621 1_445
Mg2 O13 1.967619 1_555
Mg2 O12 1.979516 1_555
Mg2 O49 2.027237 1_555
Mg2 O48 2.043447 1_555
Mg2 O14 2.133552 1_555
Mg2 O50 2.218872 1_555
Mg3 O17 1.953611 1_555
Mg3 O15 1.972878 1_555
Mg3 O16 2.023021 1_555
Mg3 O53 2.057317 1_555
Mg3 O52 2.209483 1_555
Mg3 O51 2.321296 1_555
Mg4 O26 1.943058 1_554
Mg4 O60 1.995749 1_555
Mg4 O25 1.999441 1_554
Mg4 O61 2.030751 1_555
Mg4 O24 2.230668 1_554
Mg4 O62 2.265118 1_555
Mg5 O28 1.952429 1_555
Mg5 O63 1.960265 1_555
Mg5 O65 1.972137 1_555
Mg5 O29 2.067465 1_555
Mg5 O64 2.182231 1_555
Mg5 O27 2.297287 1_555
O0 Si0 1.599838 1_555
O1 S0 1.462084 1_555
O2 S1 1.468170 1_555
O3 Si1 1.603214 1_555
O4 S2 1.475827 1_555
O5 Si2 1.577850 1_555
O6 Si2 1.689805 1_565
O6 Ti0 1.877399 1_665
O7 Si1 1.732616 1_555
O7 Ti0 1.819313 1_555
O8 S2 1.480847 1_455
O8 Ti0 2.230272 1_565
O9 S0 1.483736 1_555
O9 Ti1 2.306115 1_655
O10 S1 1.482293 1_455
O10 Ti1 2.237823 1_545
O11 Si0 1.730137 1_565
O11 Ti1 1.823436 1_555
O12 Si3 1.580599 1_555
O13 Si4 1.588348 1_555
O14 S3 1.453823 1_555
O15 Si5 1.595195 1_555
O16 S4 1.464177 1_555
O17 Si6 1.594798 1_555
O18 Si6 1.709201 1_555
O18 Ti2 1.834542 1_554
O19 Si5 1.679069 1_555
O19 Ti2 1.934751 1_554
O20 S4 1.498775 1_555
O20 Ti2 2.044232 1_554
O21 Si4 1.774670 1_555
O21 Ti3 1.785647 1_555
O22 S3 1.536236 1_555
O22 Ti3 1.923290 1_555
O23 Si3 1.728439 1_555
O23 Ti3 1.868707 1_555
O24 S5 1.463249 1_555
O25 S6 1.475897 1_555
O26 Si7 1.597555 1_555
O27 S7 1.449189 1_555
O28 Si8 1.586811 1_555
O29 S8 1.463792 1_555
O30 S8 1.535444 1_555
O30 Ti4 2.077805 1_555
O31 S7 1.535079 1_555
O31 Ti4 1.964246 1_555
O32 Si8 1.730959 1_555
O32 Ti4 1.826596 1_555
O33 S6 1.487600 1_555
O33 Ti5 2.393458 1_555
O34 Si7 1.684624 1_555
O34 Ti5 1.883432 1_555
O35 S5 1.492962 1_555
O35 Ti5 2.077482 1_555
O36 S8 1.476121 1_555
O37 S7 1.471520 1_555
O38 Si8 1.639926 1_555
O39 S6 1.480901 1_555
O40 Si7 1.637980 1_555
O41 S5 1.472342 1_555
O42 Si3 1.714039 1_555
O42 Ti0 1.923392 1_655
O43 Si4 1.649737 1_555
O43 Ti0 2.041614 1_555
O44 S3 1.471482 1_555
O44 Ti0 2.327645 1_665
O45 Si5 1.758026 1_555
O45 Ti1 1.842326 1_655
O46 S4 1.491811 1_555
O46 Ti1 2.205628 1_645
O47 Si6 1.696119 1_555
O47 Ti1 1.854082 1_545
O48 Si2 1.612140 1_555
O49 Si1 1.594279 1_555
O50 S2 1.461394 1_555
O51 S0 1.488221 1_555
O52 S1 1.469883 1_555
O53 Si0 1.606198 1_555
O54 S5 1.536863 1_555
O54 Ti2 2.167769 1_555
O55 S6 1.505620 1_655
O55 Ti2 2.251269 1_555
O56 Si7 1.703741 1_545
O56 Ti2 1.906919 1_555
O57 S7 1.509951 1_545
O57 Ti3 2.339551 1_555
O58 Si8 1.670784 1_555
O58 Ti3 2.010892 1_555
O59 S8 1.480154 1_655
O59 Ti3 2.445913 1_555
O60 Si6 1.593934 1_555
O61 Si5 1.601173 1_455
O62 S4 1.482154 1_565
O63 Si4 1.602419 1_565
O64 S3 1.481883 1_555
O65 Si3 1.603780 1_455
O66 Si0 1.684516 1_565
O66 Ti4 1.947529 1_555
O67 S0 1.524279 1_555
O67 Ti4 2.090330 1_555
O68 S1 1.541277 1_455
O68 Ti4 2.175209 1_555
O69 Si1 1.673115 1_555
O69 Ti5 1.923955 1_555
O70 S2 1.537514 1_455
O70 Ti5 2.094360 1_555
O71 Si2 1.715714 1_565
O71 Ti5 1.806936 1_555
