# generated using pymatgen
data_Na3NbZnSi2SO12
_symmetry_space_group_name_H-M   'P 1'
_cell_length_a   9.08752212
_cell_length_b   9.08752180
_cell_length_c   22.53482790
_cell_angle_alpha   88.78853372
_cell_angle_beta   91.21146626
_cell_angle_gamma   119.45628196
_symmetry_Int_Tables_number   1
_chemical_formula_structural   Na3NbZnSi2SO12
_chemical_formula_sum   'Na18 Nb6 Zn6 Si12 S6 O72'
_cell_volume   1619.94067509
_cell_formula_units_Z   6
loop_
 _symmetry_equiv_pos_site_id
 _symmetry_equiv_pos_as_xyz
  1  'x, y, z'
loop_
 _atom_site_type_symbol
 _atom_site_label
 _atom_site_symmetry_multiplicity
 _atom_site_fract_x
 _atom_site_fract_y
 _atom_site_fract_z
 _atom_site_occupancy
  Na  Na0  1  0.65694513  0.01602892  0.25159222  1
  Na  Na1  1  0.97517188  0.61532282  0.24536752  1
  Na  Na2  1  0.98397108  0.34305487  0.75159222  1
  Na  Na3  1  0.38467718  0.02482812  0.74536752  1
  Na  Na4  1  0.32361213  0.34936192  0.58492522  1
  Na  Na5  1  0.64183888  0.94865582  0.57870052  1
  Na  Na6  1  0.65063808  0.67638787  0.08492522  1
  Na  Na7  1  0.05134418  0.35816112  0.07870052  1
  Na  Na8  1  0.99027813  0.68269592  0.91825922  1
  Na  Na9  1  0.30850488  0.28198982  0.91203452  1
  Na  Na10  1  0.31730408  0.00972187  0.41825922  1
  Na  Na11  1  0.71801018  0.69149512  0.41203452  1
  Na  Na12  1  0.98892669  0.98268570  0.49161867  1
  Na  Na13  1  0.01731430  0.01107331  0.99161867  1
  Na  Na14  1  0.65559369  0.31601870  0.82495167  1
  Na  Na15  1  0.68398130  0.34440631  0.32495167  1
  Na  Na16  1  0.32225969  0.64935270  0.15828567  1
  Na  Na17  1  0.35064730  0.67774031  0.65828567  1
  Nb  Nb0  1  0.99444405  0.99918400  0.64635271  1
  Nb  Nb1  1  0.00081600  0.00555595  0.14635271  1
  Nb  Nb2  1  0.66111105  0.33251700  0.97968571  1
  Nb  Nb3  1  0.66748300  0.33888895  0.47968571  1
  Nb  Nb4  1  0.32777705  0.66585100  0.31301971  1
  Nb  Nb5  1  0.33414900  0.67222295  0.81301971  1
  Zn  Zn0  1  0.97118934  0.98953126  0.35086387  1
  Zn  Zn1  1  0.01046874  0.02881066  0.85086387  1
  Zn  Zn2  1  0.63785634  0.32286426  0.68419687  1
  Zn  Zn3  1  0.67713574  0.36214366  0.18419687  1
  Zn  Zn4  1  0.30452234  0.65619826  0.01753087  1
  Zn  Zn5  1  0.34380174  0.69547766  0.51753087  1
  Si  Si0  1  0.70174719  0.70224720  0.25276263  1
  Si  Si1  1  0.99987155  0.29219310  0.25126286  1
  Si  Si2  1  0.29775280  0.29825281  0.75276263  1
  Si  Si3  1  0.70780690  0.00012845  0.75126286  1
  Si  Si4  1  0.36841419  0.03558020  0.58609563  1
  Si  Si5  1  0.66653855  0.62552610  0.58459586  1
  Si  Si6  1  0.96441980  0.63158581  0.08609563  1
  Si  Si7  1  0.37447390  0.33346145  0.08459586  1
  Si  Si8  1  0.03508019  0.36891420  0.91942963  1
  Si  Si9  1  0.33320455  0.95886010  0.91792986  1
  Si  Si10  1  0.63108580  0.96491981  0.41942963  1
  Si  Si11  1  0.04113990  0.66679545  0.41792986  1
  S  S0  1  0.29135297  -0.00065168  0.25230091  1
  S  S1  1  0.00065168  0.70864703  0.75230091  1
  S  S2  1  0.95801997  0.33268132  0.58563391  1
  S  S3  1  0.66731868  0.04198003  0.08563391  1
  S  S4  1  0.62468597  0.66601532  0.91896791  1
  S  S5  1  0.33398468  0.37531403  0.41896791  1
  O  O0  1  0.21988227  0.01794728  0.30660162  1
  O  O1  1  0.81562347  0.77907479  0.31128349  1
  O  O2  1  0.98119367  0.17483411  0.30663336  1
  O  O3  1  0.22092521  0.18437653  0.81128349  1
  O  O4  1  0.98205272  0.78011773  0.80660162  1
  O  O5  1  0.82516589  0.01880633  0.80663336  1
  O  O6  1  0.80209662  0.97415003  0.69012640  1
  O  O7  1  0.16380900  0.19402583  0.69361759  1
  O  O8  1  0.02368911  0.82272684  0.69894055  1
  O  O9  1  0.80597417  0.83619100  0.19361759  1
  O  O10  1  0.02584997  0.19790338  0.19012640  1
  O  O11  1  0.17727316  0.97631089  0.19894055  1
  O  O12  1  0.88654927  0.35128028  0.63993462  1
  O  O13  1  0.48229047  0.11240779  0.64461649  1
  O  O14  1  0.64786067  0.50816711  0.63996636  1
  O  O15  1  0.88759221  0.51770953  0.14461649  1
  O  O16  1  0.64871972  0.11345073  0.13993462  1
  O  O17  1  0.49183289  0.35213933  0.13996636  1
  O  O18  1  0.46876362  0.30748303  0.02345940  1
  O  O19  1  0.83047600  0.52735883  0.02695059  1
  O  O20  1  0.69035611  0.15605984  0.03227355  1
  O  O21  1  0.47264117  0.16952400  0.52695059  1
  O  O22  1  0.69251697  0.53123638  0.52345940  1
  O  O23  1  0.84394016  0.30964389  0.53227355  1
  O  O24  1  0.55321527  0.68461428  0.97326862  1
  O  O25  1  0.14895647  0.44574179  0.97795049  1
  O  O26  1  0.31452667  0.84150111  0.97330036  1
  O  O27  1  0.55425821  0.85104353  0.47795049  1
  O  O28  1  0.31538572  0.44678473  0.47326862  1
  O  O29  1  0.15849889  0.68547333  0.47330036  1
  O  O30  1  0.13542962  0.64081703  0.35679340  1
  O  O31  1  0.49714200  0.86069283  0.36028459  1
  O  O32  1  0.35702211  0.48939384  0.36560755  1
  O  O33  1  0.13930717  0.50285800  0.86028459  1
  O  O34  1  0.35918297  0.86457038  0.85679340  1
  O  O35  1  0.51060616  0.64297789  0.86560755  1
  O  O36  1  0.02385239  0.83576572  0.41104703  1
  O  O37  1  0.81669796  0.98917565  0.41323376  1
  O  O38  1  0.20066905  0.20242681  0.41003230  1
  O  O39  1  0.01082435  0.18330204  0.91323376  1
  O  O40  1  0.16423428  0.97614761  0.91104703  1
  O  O41  1  0.79757319  0.79933095  0.91003230  1
  O  O42  1  0.95904630  0.16355771  0.58598800  1
  O  O43  1  0.18484705  0.03881982  0.59029796  1
  O  O44  1  0.83785010  0.81985987  0.59007659  1
  O  O45  1  0.96118018  0.81515295  0.09029796  1
  O  O46  1  0.83644229  0.04095370  0.08598800  1
  O  O47  1  0.18014013  0.16214990  0.09007659  1
  O  O48  1  0.69051939  0.16909872  0.74438003  1
  O  O49  1  0.48336496  0.32250865  0.74656676  1
  O  O50  1  0.86733605  0.53575981  0.74336530  1
  O  O51  1  0.67749135  0.51663504  0.24656676  1
  O  O52  1  0.83090128  0.30948061  0.24438003  1
  O  O53  1  0.46424019  0.13266395  0.24336530  1
  O  O54  1  0.62571330  0.49689071  0.91932100  1
  O  O55  1  0.85151405  0.37215282  0.92363096  1
  O  O56  1  0.50451710  0.15319287  0.92340959  1
  O  O57  1  0.62784718  0.14848595  0.42363096  1
  O  O58  1  0.50310929  0.37428670  0.41932100  1
  O  O59  1  0.84680713  0.49548290  0.42340959  1
  O  O60  1  0.35718539  0.50243272  0.07771403  1
  O  O61  1  0.15003096  0.65584265  0.07990076  1
  O  O62  1  0.53400205  0.86909381  0.07669930  1
  O  O63  1  0.34415735  0.84996904  0.57990076  1
  O  O64  1  0.49756728  0.64281461  0.57771403  1
  O  O65  1  0.13090619  0.46599795  0.57669930  1
  O  O66  1  0.29237930  0.83022471  0.25265500  1
  O  O67  1  0.51818005  0.70548682  0.25696496  1
  O  O68  1  0.17118310  0.48652687  0.25674359  1
  O  O69  1  0.29451318  0.48181995  0.75696496  1
  O  O70  1  0.16977529  0.70762070  0.75265500  1
  O  O71  1  0.51347313  0.82881690  0.75674359  1
loop_
_geom_bond_atom_site_label_1
_geom_bond_atom_site_label_2
_geom_bond_distance
_geom_bond_site_symmetry_2
Na0 O52 2.341651 1_555
Na0 O53 2.455212 1_555
Na0 O67 2.461875 1_545
Na0 O16 2.661486 1_555
Na0 O2 2.835930 1_555
Na0 O31 2.844116 1_545
Na0 O66 2.885726 1_545
Na0 O9 2.924681 1_545
Na1 O51 2.395620 1_555
Na1 O52 2.421093 1_555
Na1 O15 2.426819 1_555
Na1 O66 2.570449 1_655
Na1 O68 2.574297 1_655
Na1 O30 2.831551 1_655
Na2 O48 2.341651 1_555
Na2 O50 2.455212 1_555
Na2 O69 2.461875 1_655
Na2 O12 2.661486 1_555
Na2 O5 2.835930 1_555
Na2 O33 2.844116 1_655
Na2 O70 2.885726 1_655
Na2 O7 2.924681 1_655
Na3 O49 2.395620 1_555
Na3 O48 2.421094 1_555
Na3 O13 2.426819 1_555
Na3 O70 2.570449 1_545
Na3 O71 2.574296 1_545
Na3 O34 2.831551 1_545
Na4 O64 2.341656 1_555
Na4 O65 2.455226 1_555
Na4 O43 2.461875 1_555
Na4 O28 2.661469 1_555
Na4 O14 2.835930 1_555
Na4 O7 2.844116 1_555
Na4 O42 2.885726 1_455
Na4 O21 2.924681 1_555
Na5 O63 2.395630 1_555
Na5 O64 2.421085 1_555
Na5 O27 2.426797 1_555
Na5 O42 2.570449 1_565
Na5 O44 2.574297 1_555
Na5 O6 2.831551 1_555
Na6 O60 2.341656 1_555
Na6 O62 2.455226 1_555
Na6 O45 2.461875 1_555
Na6 O24 2.661469 1_554
Na6 O17 2.835930 1_555
Na6 O9 2.844116 1_555
Na6 O46 2.885726 1_565
Na6 O19 2.924681 1_555
Na7 O61 2.395630 1_555
Na7 O60 2.421085 1_555
Na7 O25 2.426797 1_554
Na7 O46 2.570449 1_455
Na7 O47 2.574296 1_555
Na7 O10 2.831551 1_555
Na8 O40 2.341651 1_655
Na8 O41 2.455212 1_555
Na8 O55 2.461883 1_555
Na8 O4 2.661486 1_555
Na8 O26 2.835930 1_655
Na8 O19 2.844096 1_556
Na8 O54 2.885718 1_555
Na8 O33 2.924681 1_655
Na9 O39 2.395620 1_555
Na9 O40 2.421093 1_545
Na9 O3 2.426819 1_555
Na9 O54 2.570452 1_555
Na9 O56 2.574310 1_555
Na9 O18 2.831536 1_556
Na10 O36 2.341651 1_545
Na10 O38 2.455212 1_555
Na10 O57 2.461883 1_555
Na10 O0 2.661486 1_555
Na10 O29 2.835930 1_545
Na10 O21 2.844096 1_555
Na10 O58 2.885718 1_555
Na10 O31 2.924681 1_545
Na11 O37 2.395620 1_555
Na11 O36 2.421094 1_655
Na11 O1 2.426819 1_555
Na11 O58 2.570452 1_555
Na11 O59 2.574310 1_555
Na11 O22 2.831536 1_555
Na12 O37 2.354301 1_555
Na12 O36 2.392410 1_655
Na12 O44 2.643693 1_555
Na12 O38 2.699192 1_665
Na12 O43 2.713370 1_665
Na12 O42 2.812297 1_565
Na13 O39 2.354301 1_555
Na13 O40 2.392410 1_545
Na13 O47 2.643693 1_556
Na13 O41 2.699192 1_445
Na13 O45 2.713370 1_446
Na13 O46 2.812297 1_456
Na14 O49 2.354301 1_555
Na14 O48 2.392410 1_555
Na14 O56 2.643693 1_555
Na14 O50 2.699192 1_555
Na14 O55 2.713370 1_555
Na14 O54 2.812297 1_555
Na15 O51 2.354301 1_555
Na15 O52 2.392410 1_555
Na15 O59 2.643693 1_555
Na15 O53 2.699192 1_555
Na15 O57 2.713370 1_555
Na15 O58 2.812297 1_555
Na16 O61 2.354301 1_555
Na16 O60 2.392410 1_555
Na16 O68 2.643693 1_555
Na16 O62 2.699192 1_555
Na16 O67 2.713370 1_555
Na16 O66 2.812297 1_555
Na17 O63 2.354301 1_555
Na17 O64 2.392410 1_555
Na17 O71 2.643693 1_555
Na17 O65 2.699192 1_555
Na17 O69 2.713370 1_555
Na17 O70 2.812297 1_555
Nb0 O6 1.937135 1_555
Nb0 O7 1.992131 1_665
Nb0 O44 2.004806 1_555
Nb0 O43 2.044382 1_665
Nb0 O8 2.090901 1_655
Nb0 O42 2.133862 1_565
Nb1 O10 1.937135 1_555
Nb1 O9 1.992131 1_445
Nb1 O47 2.004806 1_555
Nb1 O45 2.044382 1_445
Nb1 O11 2.090901 1_545
Nb1 O46 2.133862 1_455
Nb2 O18 1.937135 1_556
Nb2 O19 1.992131 1_556
Nb2 O56 2.004806 1_555
Nb2 O55 2.044382 1_555
Nb2 O20 2.090901 1_556
Nb2 O54 2.133862 1_555
Nb3 O22 1.937135 1_555
Nb3 O21 1.992131 1_555
Nb3 O59 2.004806 1_555
Nb3 O57 2.044382 1_555
Nb3 O23 2.090901 1_555
Nb3 O58 2.133862 1_555
Nb4 O30 1.937135 1_555
Nb4 O31 1.992131 1_555
Nb4 O68 2.004806 1_555
Nb4 O67 2.044382 1_555
Nb4 O32 2.090901 1_555
Nb4 O66 2.133862 1_555
Nb5 O34 1.937135 1_555
Nb5 O33 1.992131 1_555
Nb5 O71 2.004806 1_555
Nb5 O69 2.044382 1_555
Nb5 O35 2.090901 1_555
Nb5 O70 2.133862 1_555
O0 S0 1.448469 1_555
O0 Zn0 2.383197 1_445
O1 Si0 1.602534 1_555
O1 Zn0 1.952307 1_555
O2 Si1 1.580443 1_555
O2 Zn0 1.902547 1_545
O3 Si2 1.602534 1_555
O3 Zn1 1.952307 1_555
O4 S1 1.448469 1_655
O4 Zn1 2.383197 1_665
O5 Si3 1.580443 1_555
O5 Zn1 1.902547 1_655
O6 Si3 1.717737 1_565
O7 Si2 1.733792 1_555
O8 S1 1.519533 1_555
O9 Si0 1.733792 1_555
O10 Si1 1.717737 1_455
O11 S0 1.519533 1_565
O12 S2 1.448469 1_555
O12 Zn2 2.383197 1_555
O13 Si4 1.602534 1_555
O13 Zn2 1.952307 1_555
O14 Si5 1.580443 1_555
O14 Zn2 1.902547 1_555
O15 Si6 1.602534 1_555
O15 Zn3 1.952307 1_555
O16 S3 1.448469 1_555
O16 Zn3 2.383197 1_555
O17 Si7 1.580443 1_555
O17 Zn3 1.902547 1_555
O18 Si7 1.717737 1_555
O19 Si6 1.733792 1_555
O20 S3 1.519533 1_555
O21 Si4 1.733792 1_555
O22 Si5 1.717737 1_555
O23 S2 1.519533 1_555
O24 S4 1.448469 1_555
O24 Zn4 2.383197 1_556
O25 Si8 1.602534 1_555
O25 Zn4 1.952307 1_556
O26 Si9 1.580443 1_555
O26 Zn4 1.902547 1_556
O27 Si10 1.602534 1_555
O27 Zn5 1.952307 1_555
O28 S5 1.448469 1_555
O28 Zn5 2.383197 1_555
O29 Si11 1.580443 1_555
O29 Zn5 1.902547 1_555
O30 Si11 1.717737 1_555
O31 Si10 1.733792 1_555
O32 S5 1.519533 1_555
O33 Si8 1.733792 1_555
O34 Si9 1.717737 1_555
O35 S4 1.519533 1_555
O36 Si11 1.622565 1_555
O36 Zn0 2.138008 1_455
O37 Si10 1.598813 1_555
O37 Zn0 2.006307 1_555
O38 S5 1.451798 1_555
O38 Zn0 2.427581 1_445
O39 Si8 1.598813 1_555
O39 Zn1 2.006307 1_555
O40 Si9 1.622565 1_555
O40 Zn1 2.138008 1_565
O41 S4 1.451798 1_555
O41 Zn1 2.427581 1_665
O42 S2 1.541374 1_555
O43 Si4 1.687521 1_555
O44 Si5 1.689602 1_555
O45 Si6 1.687521 1_555
O46 S3 1.541374 1_555
O47 Si7 1.689602 1_555
O48 Si3 1.622565 1_555
O48 Zn2 2.138008 1_555
O49 Si2 1.598813 1_555
O49 Zn2 2.006307 1_555
O50 S1 1.451798 1_655
O50 Zn2 2.427581 1_555
O51 Si0 1.598813 1_555
O51 Zn3 2.006307 1_555
O52 Si1 1.622565 1_555
O52 Zn3 2.138008 1_555
O53 S0 1.451798 1_555
O53 Zn3 2.427581 1_555
O54 S4 1.541388 1_555
O55 Si8 1.687505 1_655
O56 Si9 1.689598 1_545
O57 Si10 1.687505 1_545
O58 S5 1.541388 1_555
O59 Si11 1.689598 1_655
O60 Si7 1.622577 1_555
O60 Zn4 2.138008 1_555
O61 Si6 1.598799 1_455
O61 Zn4 2.006307 1_555
O62 S3 1.451792 1_565
O62 Zn4 2.427581 1_555
O63 Si4 1.598798 1_565
O63 Zn5 2.006307 1_555
O64 Si5 1.622577 1_555
O64 Zn5 2.138008 1_555
O65 S2 1.451792 1_455
O65 Zn5 2.427581 1_555
O66 S0 1.541374 1_565
O67 Si0 1.687521 1_555
O68 Si1 1.689602 1_455
O69 Si2 1.687521 1_555
O70 S1 1.541374 1_555
O71 Si3 1.689602 1_565
