# generated using pymatgen
data_Na18Mg8Nb4Si9(SO8)9
_symmetry_space_group_name_H-M   'P 1'
_cell_length_a   9.03554410
_cell_length_b   9.03158491
_cell_length_c   22.48763745
_cell_angle_alpha   90.62794696
_cell_angle_beta   89.73457514
_cell_angle_gamma   119.92159235
_symmetry_Int_Tables_number   1
_chemical_formula_structural   Na18Mg8Nb4Si9(SO8)9
_chemical_formula_sum   'Na18 Mg8 Nb4 Si9 S9 O72'
_cell_volume   1590.40981042
_cell_formula_units_Z   1
loop_
 _symmetry_equiv_pos_site_id
 _symmetry_equiv_pos_as_xyz
  1  'x, y, z'
loop_
 _atom_site_type_symbol
 _atom_site_label
 _atom_site_symmetry_multiplicity
 _atom_site_fract_x
 _atom_site_fract_y
 _atom_site_fract_z
 _atom_site_occupancy
  Na  Na0  1  0.65330237  0.02665462  0.25654564  1
  Na  Na1  1  0.34583493  0.33883072  0.25321985  1
  Na  Na2  1  0.99403589  0.63219107  0.24218422  1
  Na  Na3  1  0.63999693  0.63228368  0.73560968  1
  Na  Na4  1  0.99048100  0.34379001  0.73952544  1
  Na  Na5  1  0.37566648  0.02934438  0.75010663  1
  Na  Na6  1  0.29736025  0.34003652  0.58954523  1
  Na  Na7  1  0.02402689  0.68959500  0.58572209  1
  Na  Na8  1  0.67571486  0.95534602  0.58182649  1
  Na  Na9  1  0.28133337  0.94937230  0.08362381  1
  Na  Na10  1  0.67889904  0.70354425  0.08434486  1
  Na  Na11  1  0.02997578  0.33941026  0.09408399  1
  Na  Na12  1  0.97619755  0.99727016  0.49781143  1
  Na  Na13  1  0.01074231  0.98644364  0.99331588  1
  Na  Na14  1  0.65010011  0.31632736  0.82503655  1
  Na  Na15  1  0.66278274  0.31402944  0.33216951  1
  Na  Na16  1  0.30907284  0.66109521  0.16633133  1
  Na  Na17  1  0.33719656  0.65254872  0.65608552  1
  Mg  Mg0  1  0.00298095  0.01766746  0.35223139  1
  Mg  Mg1  1  0.01459448  0.01383676  0.84931146  1
  Mg  Mg2  1  0.98637173  0.01194407  0.64623045  1
  Mg  Mg3  1  0.01209885  0.99859838  0.15554392  1
  Mg  Mg4  1  0.66635251  0.33386892  0.68338951  1
  Mg  Mg5  1  0.67591731  0.33185897  0.18784202  1
  Mg  Mg6  1  0.31876915  0.67162973  0.01533725  1
  Mg  Mg7  1  0.34632071  0.66557956  0.51896911  1
  Nb  Nb0  1  0.67092877  0.33959305  0.97547284  1
  Nb  Nb1  1  0.67783823  0.33172040  0.48170986  1
  Nb  Nb2  1  0.33195772  0.67665123  0.31659270  1
  Nb  Nb3  1  0.34261778  0.68070040  0.81201444  1
  Si  Si0  1  0.29218800  0.00458113  0.24922390  1
  Si  Si1  1  0.99908101  0.29062107  0.24807565  1
  Si  Si2  1  0.29414879  0.28854072  0.74916573  1
  Si  Si3  1  0.71991083  0.00891566  0.75074688  1
  Si  Si4  1  0.96985149  0.33908620  0.58717800  1
  Si  Si5  1  0.66884768  0.62917935  0.58661294  1
  Si  Si6  1  0.96273425  0.63064380  0.08648284  1
  Si  Si7  1  0.31876698  0.95868179  0.92161752  1
  Si  Si8  1  0.63764785  0.96188473  0.42232266  1
  S  S0  1  0.70535243  0.70774790  0.24983880  1
  S  S1  1  0.00094219  0.71023274  0.75188569  1
  S  S2  1  0.37536269  0.04147148  0.58373334  1
  S  S3  1  0.66623278  0.04064973  0.08234278  1
  S  S4  1  0.37831094  0.33670882  0.08238322  1
  S  S5  1  0.62445592  0.66933838  0.91897715  1
  S  S6  1  0.04247020  0.37254285  0.91871637  1
  S  S7  1  0.33527897  0.37408739  0.41750312  1
  S  S8  1  0.03996723  0.66930906  0.41882411  1
  O  O0  1  0.19720434  0.02738604  0.30511123  1
  O  O1  1  0.81284961  0.78589679  0.30141005  1
  O  O2  1  0.95795494  0.16219170  0.30131951  1
  O  O3  1  0.21220005  0.16699140  0.80479787  1
  O  O4  1  0.97816742  0.79081387  0.80456302  1
  O  O5  1  0.82759199  0.02665533  0.80886500  1
  O  O6  1  0.76998131  0.94462124  0.69069281  1
  O  O7  1  0.17872685  0.22660286  0.68906973  1
  O  O8  1  0.04047666  0.81182537  0.69741065  1
  O  O9  1  0.77336575  0.81077261  0.19473736  1
  O  O10  1  0.04577840  0.22537729  0.18579597  1
  O  O11  1  0.18253008  0.94541847  0.18745884  1
  O  O12  1  0.88011725  0.36763667  0.64431869  1
  O  O13  1  0.47943726  0.11652522  0.63760504  1
  O  O14  1  0.63621197  0.51032499  0.64330254  1
  O  O15  1  0.86634788  0.51097807  0.14197546  1
  O  O16  1  0.63408288  0.11550736  0.13586703  1
  O  O17  1  0.47884019  0.35936467  0.13624501  1
  O  O18  1  0.46782890  0.31198387  0.02892026  1
  O  O19  1  0.82951772  0.51567350  0.02734904  1
  O  O20  1  0.68702055  0.15177735  0.02950318  1
  O  O21  1  0.46354790  0.15322628  0.53057513  1
  O  O22  1  0.68177818  0.51240404  0.52695563  1
  O  O23  1  0.83334264  0.31005682  0.52741322  1
  O  O24  1  0.53856732  0.67877017  0.97323614  1
  O  O25  1  0.13989897  0.45449124  0.97298905  1
  O  O26  1  0.31687199  0.86226834  0.98071470  1
  O  O27  1  0.53543058  0.85647567  0.47869071  1
  O  O28  1  0.31521560  0.45730162  0.47054764  1
  O  O29  1  0.14068354  0.68421023  0.47098893  1
  O  O30  1  0.12408736  0.64054171  0.36300686  1
  O  O31  1  0.50411691  0.85661544  0.36172487  1
  O  O32  1  0.35467418  0.48171420  0.36265027  1
  O  O33  1  0.11950637  0.47903712  0.86566010  1
  O  O34  1  0.35332827  0.86037852  0.86268670  1
  O  O35  1  0.51538938  0.63901570  0.86519048  1
  O  O36  1  0.01996381  0.81685913  0.40969678  1
  O  O37  1  0.82057021  0.98179174  0.41146956  1
  O  O38  1  0.18645677  0.20397523  0.41099767  1
  O  O39  1  0.01262030  0.19994826  0.91373698  1
  O  O40  1  0.15856962  0.98372274  0.91290023  1
  O  O41  1  0.79407385  0.81474135  0.91269467  1
  O  O42  1  0.97884389  0.16529765  0.58208468  1
  O  O43  1  0.20699562  0.02966970  0.58713646  1
  O  O44  1  0.84983250  0.80814295  0.58443442  1
  O  O45  1  0.97060013  0.81563168  0.08369420  1
  O  O46  1  0.82471147  0.03107990  0.08562781  1
  O  O47  1  0.20716618  0.18338431  0.08312268  1
  O  O48  1  0.67949211  0.16466947  0.74573182  1
  O  O49  1  0.49194521  0.33179790  0.74528424  1
  O  O50  1  0.85427508  0.53558604  0.74691927  1
  O  O51  1  0.67512226  0.53186156  0.24218777  1
  O  O52  1  0.84205407  0.33125632  0.24524412  1
  O  O53  1  0.48506835  0.16758275  0.24244316  1
  O  O54  1  0.63765855  0.50498237  0.92206634  1
  O  O55  1  0.86435624  0.35968735  0.92360772  1
  O  O56  1  0.50687208  0.15400207  0.92666748  1
  O  O57  1  0.63958330  0.15170307  0.42205569  1
  O  O58  1  0.49555356  0.36401882  0.41931838  1
  O  O59  1  0.86819771  0.50706640  0.41980072  1
  O  O60  1  0.36577857  0.49341867  0.07452750  1
  O  O61  1  0.14865070  0.64117796  0.07978112  1
  O  O62  1  0.51891950  0.86428755  0.07570820  1
  O  O63  1  0.35316412  0.86906396  0.57613338  1
  O  O64  1  0.50156732  0.65012043  0.57918620  1
  O  O65  1  0.14948438  0.51225852  0.57504796  1
  O  O66  1  0.31804306  0.82774695  0.26061868  1
  O  O67  1  0.52839741  0.68945250  0.25669555  1
  O  O68  1  0.17999547  0.48630879  0.26039248  1
  O  O69  1  0.30782133  0.48514951  0.76494023  1
  O  O70  1  0.15954999  0.68661157  0.75932705  1
  O  O71  1  0.51435776  0.82912600  0.76200431  1
loop_
_geom_bond_atom_site_label_1
_geom_bond_atom_site_label_2
_geom_bond_distance
_geom_bond_site_symmetry_2
Na0 O52 2.423230 1_555
Na0 O53 2.444333 1_555
Na0 O2 2.593573 1_555
Na0 O66 2.642730 1_545
Na0 O67 2.668308 1_545
Na0 O31 2.784721 1_545
Na0 O16 2.868771 1_555
Na1 O53 2.442051 1_555
Na1 O68 2.455541 1_555
Na1 O51 2.604064 1_555
Na1 O0 2.714065 1_555
Na1 O67 2.745815 1_555
Na1 O32 2.748957 1_555
Na1 O10 2.816354 1_555
Na1 O17 2.856078 1_555
Na2 O52 2.357397 1_555
Na2 O15 2.513484 1_555
Na2 O51 2.553345 1_555
Na2 O66 2.588203 1_655
Na2 O68 2.636963 1_655
Na2 O11 2.769172 1_655
Na2 O1 2.930466 1_555
Na2 O30 2.950485 1_655
Na3 O14 2.331568 1_555
Na3 O49 2.364390 1_555
Na3 O50 2.504446 1_555
Na3 O71 2.604923 1_555
Na3 O6 2.665215 1_555
Na3 O69 2.689078 1_555
Na4 O12 2.422542 1_555
Na4 O48 2.449229 1_555
Na4 O69 2.554483 1_655
Na4 O50 2.580973 1_555
Na4 O7 2.655632 1_655
Na4 O70 2.715869 1_655
Na5 O48 2.385919 1_555
Na5 O49 2.391591 1_555
Na5 O3 2.649736 1_555
Na5 O13 2.680419 1_555
Na5 O71 2.680724 1_545
Na5 O70 2.723583 1_545
Na5 O8 2.912507 1_545
Na5 O34 2.924290 1_545
Na6 O7 2.477904 1_555
Na6 O64 2.481337 1_555
Na6 O43 2.498156 1_555
Na6 O42 2.503794 1_455
Na6 O65 2.529711 1_555
Na6 O28 2.862901 1_555
Na6 O14 2.914907 1_555
Na7 O44 2.303641 1_455
Na7 O65 2.389173 1_555
Na7 O63 2.590520 1_555
Na7 O43 2.664656 1_565
Na7 O8 2.707019 1_555
Na7 O29 2.791665 1_555
Na7 O12 2.859799 1_455
Na7 O22 2.987441 1_455
Na8 O64 2.397626 1_555
Na8 O42 2.432288 1_565
Na8 O44 2.516994 1_555
Na8 O27 2.575998 1_555
Na8 O6 2.614403 1_555
Na8 O63 2.617833 1_555
Na9 O61 2.420559 1_555
Na9 O45 2.441021 1_455
Na9 O11 2.490225 1_555
Na9 O26 2.506523 1_554
Na9 O47 2.515884 1_565
Na9 O62 2.621031 1_555
Na10 O45 2.304332 1_555
Na10 O60 2.508955 1_555
Na10 O62 2.517372 1_555
Na10 O46 2.568604 1_565
Na10 O9 2.640333 1_555
Na10 O24 2.763105 1_554
Na10 O19 2.934921 1_555
Na10 O17 2.957478 1_555
Na11 O10 2.351702 1_555
Na11 O61 2.404531 1_555
Na11 O46 2.463691 1_455
Na11 O47 2.617097 1_555
Na11 O60 2.669264 1_555
Na11 O15 2.825053 1_455
Na11 O25 2.913650 1_554
Na12 O37 2.364323 1_555
Na12 O42 2.407520 1_565
Na12 O44 2.474364 1_555
Na12 O36 2.702298 1_655
Na12 O38 2.722672 1_665
Na12 O43 2.808295 1_665
Na13 O40 2.250389 1_555
Na13 O45 2.479070 1_456
Na13 O41 2.543011 1_455
Na13 O39 2.638890 1_565
Na13 O47 2.682784 1_566
Na13 O46 2.814698 1_466
Na14 O48 2.330672 1_555
Na14 O49 2.346587 1_555
Na14 O50 2.610050 1_555
Na14 O56 2.683395 1_555
Na14 O54 2.789996 1_555
Na14 O55 2.842360 1_555
Na15 O57 2.456317 1_555
Na15 O52 2.488965 1_555
Na15 O53 2.500357 1_555
Na15 O58 2.638453 1_555
Na15 O59 2.664234 1_555
Na15 O51 2.800673 1_555
Na16 O61 2.383249 1_555
Na16 O68 2.557327 1_555
Na16 O66 2.564682 1_555
Na16 O60 2.741094 1_555
Na16 O67 2.764363 1_555
Na16 O62 2.773222 1_555
Na17 O64 2.281344 1_555
Na17 O65 2.374266 1_555
Na17 O63 2.621158 1_555
Na17 O69 2.832515 1_555
Na17 O71 2.860814 1_555
Na17 O70 2.916101 1_555
Mg0 O2 1.935689 1_455
Mg0 O0 2.010314 1_555
Mg0 O37 2.013056 1_445
Mg0 O38 2.124783 1_555
Mg0 O1 2.239943 1_445
Mg0 O36 2.305112 1_545
Mg1 O3 1.911329 1_555
Mg1 O5 1.976704 1_455
Mg1 O40 2.046905 1_545
Mg1 O4 2.115513 1_445
Mg1 O39 2.213805 1_555
Mg1 O41 2.385495 1_445
Mg2 O6 2.000360 1_545
Mg2 O42 2.035283 1_555
Mg2 O7 2.078564 1_655
Mg2 O44 2.129675 1_545
Mg2 O43 2.329630 1_655
Mg2 O8 2.400532 1_645
Mg3 O11 1.967956 1_555
Mg3 O10 2.024844 1_565
Mg3 O9 2.161505 1_455
Mg3 O45 2.193356 1_455
Mg3 O47 2.375399 1_565
Mg3 O46 2.440301 1_465
Mg4 O14 1.973160 1_555
Mg4 O12 1.999519 1_555
Mg4 O49 2.090893 1_555
Mg4 O13 2.104765 1_555
Mg4 O48 2.131716 1_555
Mg4 O50 2.263299 1_555
Mg5 O15 1.970966 1_555
Mg5 O52 1.986444 1_555
Mg5 O53 2.037263 1_555
Mg5 O16 2.131725 1_555
Mg5 O51 2.172773 1_555
Mg5 O17 2.246254 1_555
Mg6 O26 1.905235 1_554
Mg6 O61 2.026045 1_555
Mg6 O25 2.043580 1_554
Mg6 O24 2.168139 1_554
Mg6 O62 2.230009 1_555
Mg6 O60 2.297155 1_555
Mg7 O27 1.947692 1_555
Mg7 O64 2.009475 1_555
Mg7 O65 2.057064 1_555
Mg7 O28 2.057579 1_555
Mg7 O63 2.206661 1_555
Mg7 O29 2.231424 1_555
Nb0 O19 1.909099 1_556
Nb0 O56 1.925469 1_555
Nb0 O55 2.029065 1_555
Nb0 O54 2.062667 1_555
Nb0 O18 2.098580 1_556
Nb0 O20 2.160464 1_556
Nb1 O23 1.833257 1_555
Nb1 O22 1.898806 1_555
Nb1 O57 1.989536 1_555
Nb1 O21 2.111979 1_555
Nb1 O59 2.171006 1_555
Nb1 O58 2.296964 1_555
Nb2 O31 1.883541 1_555
Nb2 O66 1.916428 1_555
Nb2 O68 2.012816 1_555
Nb2 O30 2.025263 1_555
Nb2 O32 2.148718 1_555
Nb2 O67 2.180499 1_555
Nb3 O71 1.846984 1_555
Nb3 O34 1.935213 1_555
Nb3 O69 1.935673 1_555
Nb3 O70 2.061646 1_555
Nb3 O35 2.149920 1_555
Nb3 O33 2.280178 1_555
O0 Si0 1.587179 1_555
O1 S0 1.447443 1_555
O2 Si1 1.585375 1_555
O3 Si2 1.590308 1_555
O4 S1 1.450347 1_655
O5 Si3 1.591252 1_555
O6 Si3 1.613965 1_565
O7 Si2 1.625229 1_555
O8 S1 1.470968 1_555
O9 S0 1.492171 1_555
O10 Si1 1.646569 1_455
O11 Si0 1.632399 1_565
O12 Si4 1.602080 1_555
O13 S2 1.472420 1_555
O14 Si5 1.604716 1_555
O15 Si6 1.601332 1_555
O16 S3 1.471415 1_555
O17 S4 1.467429 1_555
O18 S4 1.521449 1_555
O19 Si6 1.741561 1_555
O20 S3 1.513447 1_555
O21 S2 1.515886 1_555
O22 Si5 1.736720 1_555
O23 Si4 1.755381 1_555
O24 S5 1.467376 1_555
O25 S6 1.467118 1_555
O26 Si7 1.592147 1_555
O27 Si8 1.582572 1_555
O28 S7 1.461113 1_555
O29 S8 1.451409 1_555
O30 S8 1.549760 1_555
O31 Si8 1.749009 1_555
O32 S7 1.533447 1_555
O33 S6 1.477384 1_555
O34 Si7 1.699687 1_555
O35 S5 1.497891 1_555
O36 S8 1.448197 1_555
O37 Si8 1.588841 1_555
O38 S7 1.458047 1_555
O39 S6 1.446435 1_555
O40 Si7 1.585853 1_555
O41 S5 1.444833 1_555
O42 Si4 1.614473 1_555
O43 S2 1.472708 1_555
O44 Si5 1.628862 1_555
O45 Si6 1.638331 1_555
O46 S3 1.479180 1_555
O47 S4 1.474151 1_555
O48 Si3 1.625203 1_555
O49 Si2 1.630050 1_555
O50 S1 1.472690 1_655
O51 S0 1.479601 1_555
O52 Si1 1.634818 1_555
O53 Si0 1.634222 1_555
O54 S5 1.549671 1_555
O55 S6 1.558151 1_655
O56 Si7 1.737755 1_545
O57 Si8 1.705781 1_545
O58 S7 1.496373 1_555
O59 S8 1.512610 1_655
O60 S4 1.487537 1_555
O61 Si6 1.640795 1_455
O62 S3 1.487477 1_565
O63 S2 1.475448 1_565
O64 Si5 1.623706 1_555
O65 Si4 1.621017 1_455
O66 Si0 1.747194 1_565
O67 S0 1.530431 1_555
O68 Si1 1.727337 1_455
O69 Si2 1.749834 1_555
O70 S1 1.560553 1_555
O71 Si3 1.773765 1_565
