# generated using pymatgen
data_MgH4S2O9
_symmetry_space_group_name_H-M   'P 1'
_cell_length_a   5.17717000
_cell_length_b   9.20608300
_cell_length_c   18.20780145
_cell_angle_alpha   73.76592948
_cell_angle_beta   90.00000000
_cell_angle_gamma   90.00000000
_symmetry_Int_Tables_number   1
_chemical_formula_structural   MgH4S2O9
_chemical_formula_sum   'Mg4 H16 S8 O36'
_cell_volume   833.20867378
_cell_formula_units_Z   4
loop_
 _symmetry_equiv_pos_site_id
 _symmetry_equiv_pos_as_xyz
  1  'x, y, z'
loop_
 _atom_site_type_symbol
 _atom_site_label
 _atom_site_symmetry_multiplicity
 _atom_site_fract_x
 _atom_site_fract_y
 _atom_site_fract_z
 _atom_site_occupancy
  Mg  Mg0  1  0.26342600  0.22418700  0.01532100  1
  Mg  Mg1  1  0.76342600  0.77581300  0.48467900  1
  Mg  Mg2  1  0.73657400  0.77581300  0.98467900  1
  Mg  Mg3  1  0.23657400  0.22418700  0.51532100  1
  H  H0  1  0.31811000  0.86500000  0.72494500  1
  H  H1  1  0.81811000  0.13500000  0.77505500  1
  H  H2  1  0.68189000  0.13500000  0.27505500  1
  H  H3  1  0.18189000  0.86500000  0.22494500  1
  H  H4  1  0.14709600  0.63930200  0.92391800  1
  H  H5  1  0.64709600  0.36069800  0.57608200  1
  H  H6  1  0.85290400  0.36069800  0.07608200  1
  H  H7  1  0.35290400  0.63930200  0.42391800  1
  H  H8  1  0.94354500  0.87842000  0.70519400  1
  H  H9  1  0.44354500  0.12158000  0.79480600  1
  H  H10  1  0.05645500  0.12158000  0.29480600  1
  H  H11  1  0.55645500  0.87842000  0.20519400  1
  H  H12  1  0.14527200  0.74599700  0.78520600  1
  H  H13  1  0.64527200  0.25400300  0.71479400  1
  H  H14  1  0.85472800  0.25400300  0.21479400  1
  H  H15  1  0.35472800  0.74599700  0.28520600  1
  S  S0  1  0.23988700  0.98876200  0.89922200  1
  S  S1  1  0.73988700  0.01123800  0.60077800  1
  S  S2  1  0.76011300  0.01123800  0.10077800  1
  S  S3  1  0.26011300  0.98876200  0.39922200  1
  S  S4  1  0.74645900  0.41214100  0.91112200  1
  S  S5  1  0.24645900  0.58785900  0.58887800  1
  S  S6  1  0.25354100  0.58785900  0.08887800  1
  S  S7  1  0.75354100  0.41214100  0.41112200  1
  O  O0  1  0.33491700  0.80113000  0.23003800  1
  O  O1  1  0.83491700  0.19887000  0.26996200  1
  O  O2  1  0.66508300  0.19887000  0.76996200  1
  O  O3  1  0.16508300  0.80113000  0.73003800  1
  O  O4  1  0.75588700  0.93418600  0.68781400  1
  O  O5  1  0.25588700  0.06581400  0.81218600  1
  O  O6  1  0.24411300  0.06581400  0.31218600  1
  O  O7  1  0.74411300  0.93418600  0.18781400  1
  O  O8  1  0.02846700  0.06397100  0.08919100  1
  O  O9  1  0.52846700  0.93602900  0.41080900  1
  O  O10  1  0.97153300  0.93602900  0.91080900  1
  O  O11  1  0.47153300  0.06397100  0.58919100  1
  O  O12  1  0.57301400  0.13737500  0.08272900  1
  O  O13  1  0.07301400  0.86262500  0.41727100  1
  O  O14  1  0.42698600  0.86262500  0.91727100  1
  O  O15  1  0.92698600  0.13737500  0.58272900  1
  O  O16  1  0.30369900  0.10178300  0.93916100  1
  O  O17  1  0.80369900  0.89821700  0.56083900  1
  O  O18  1  0.69630100  0.89821700  0.06083900  1
  O  O19  1  0.19630100  0.10178300  0.43916100  1
  O  O20  1  0.06309900  0.63636600  0.87533500  1
  O  O21  1  0.56309900  0.36363400  0.62466500  1
  O  O22  1  0.93690100  0.36363400  0.12466500  1
  O  O23  1  0.43690100  0.63636600  0.37533500  1
  O  O24  1  0.79366800  0.61507200  0.89917700  1
  O  O25  1  0.29366800  0.38492800  0.60082300  1
  O  O26  1  0.20633200  0.38492800  0.10082300  1
  O  O27  1  0.70633200  0.61507200  0.39917700  1
  O  O28  1  0.48060300  0.40055500  0.94339300  1
  O  O29  1  0.98060300  0.59944500  0.55660700  1
  O  O30  1  0.51939700  0.59944500  0.05660700  1
  O  O31  1  0.01939700  0.40055500  0.44339300  1
  O  O32  1  0.93286200  0.34390600  0.97424000  1
  O  O33  1  0.43286200  0.65609400  0.52576000  1
  O  O34  1  0.06713800  0.65609400  0.02576000  1
  O  O35  1  0.56713800  0.34390600  0.47424000  1
loop_
_geom_bond_atom_site_label_1
_geom_bond_atom_site_label_2
_geom_bond_distance
_geom_bond_site_symmetry_2
Mg0 O16 2.027300 1_554
Mg0 O12 2.040980 1_555
Mg0 O32 2.059640 1_454
Mg0 O8 2.086873 1_555
Mg0 O28 2.103974 1_554
Mg0 O26 2.447219 1_555
Mg1 O17 2.027300 1_555
Mg1 O13 2.040980 1_655
Mg1 O33 2.059640 1_555
Mg1 O9 2.086873 1_555
Mg1 O29 2.103974 1_555
Mg1 O27 2.447219 1_555
Mg2 O18 2.027300 1_556
Mg2 O14 2.040980 1_555
Mg2 O34 2.059640 1_656
Mg2 O10 2.086873 1_555
Mg2 O30 2.103974 1_556
Mg2 O24 2.447219 1_555
Mg3 O19 2.027300 1_555
Mg3 O15 2.040980 1_455
Mg3 O35 2.059640 1_555
Mg3 O11 2.086873 1_555
Mg3 O31 2.103974 1_555
Mg3 O25 2.447219 1_555
H0 O3 0.975450 1_555
H1 O2 0.975450 1_555
H2 O1 0.975450 1_555
H3 O0 0.975450 1_555
H4 O20 0.992828 1_555
H5 O21 0.992828 1_555
H6 O22 0.992828 1_555
H7 O23 0.992828 1_555
H8 O4 1.103066 1_555
H8 O3 1.358830 1_655
H9 O5 1.103066 1_555
H9 O2 1.358830 1_555
H10 O6 1.103066 1_555
H10 O1 1.358830 1_455
H11 O7 1.103066 1_555
H11 O0 1.358830 1_555
H12 O3 0.996027 1_555
H13 O2 0.996027 1_555
H14 O1 0.996027 1_555
H15 O0 0.996027 1_555
O4 S1 1.546897 1_565
O5 S0 1.546897 1_545
O6 S3 1.546897 1_545
O7 S2 1.546897 1_565
O8 S2 1.467349 1_455
O9 S3 1.467349 1_555
O10 S0 1.467349 1_655
O11 S1 1.467349 1_555
O12 S2 1.476939 1_555
O13 S3 1.476939 1_555
O14 S0 1.476939 1_555
O15 S1 1.476939 1_555
O16 S0 1.464110 1_545
O17 S1 1.464110 1_565
O18 S2 1.464110 1_565
O19 S3 1.464110 1_545
O20 O24 1.457744 1_455
O21 O25 1.457744 1_555
O22 O26 1.457744 1_655
O23 O27 1.457744 1_555
O24 S4 1.835763 1_555
O25 S5 1.835763 1_555
O26 S6 1.835763 1_555
O27 S7 1.835763 1_555
O28 S4 1.488629 1_555
O29 S5 1.488629 1_655
O30 S6 1.488629 1_555
O31 S7 1.488629 1_455
O32 S4 1.497670 1_555
O33 S5 1.497670 1_555
O34 S6 1.497670 1_555
O35 S7 1.497670 1_555
