# generated using pymatgen
data_Ca2Nb2SiS5O24
_symmetry_space_group_name_H-M   'P 1'
_cell_length_a   9.13153422
_cell_length_b   9.13612703
_cell_length_c   23.21187284
_cell_angle_alpha   89.91187243
_cell_angle_beta   90.24917170
_cell_angle_gamma   120.07553064
_symmetry_Int_Tables_number   1
_chemical_formula_structural   Ca2Nb2SiS5O24
_chemical_formula_sum   'Ca6 Nb6 Si3 S15 O72'
_cell_volume   1675.75847794
_cell_formula_units_Z   3
loop_
 _symmetry_equiv_pos_site_id
 _symmetry_equiv_pos_as_xyz
  1  'x, y, z'
loop_
 _atom_site_type_symbol
 _atom_site_label
 _atom_site_symmetry_multiplicity
 _atom_site_fract_x
 _atom_site_fract_y
 _atom_site_fract_z
 _atom_site_occupancy
  Ca  Ca0  1  0.99892343  0.00086156  0.36501889  1
  Ca  Ca1  1  0.00123939  0.00351544  0.85674693  1
  Ca  Ca2  1  0.99595093  0.00556010  0.64171893  1
  Ca  Ca3  1  0.67740015  0.33548782  0.68692683  1
  Ca  Ca4  1  0.66526205  0.33372093  0.19473816  1
  Ca  Ca5  1  0.33134104  0.66507966  0.02709540  1
  Nb  Nb0  1  0.00356274  0.00592872  0.14270179  1
  Nb  Nb1  1  0.65550647  0.33198744  0.97958458  1
  Nb  Nb2  1  0.67369348  0.32452572  0.47720257  1
  Nb  Nb3  1  0.34046728  0.67066003  0.52360345  1
  Nb  Nb4  1  0.34199701  0.67681312  0.31084552  1
  Nb  Nb5  1  0.32759654  0.66075838  0.81304564  1
  Si  Si0  1  0.96404883  0.33718121  0.58301892  1
  Si  Si1  1  0.37653413  0.32595307  0.08606146  1
  Si  Si2  1  0.60917830  0.95641386  0.41730334  1
  S  S0  1  0.27100348  0.97767395  0.25079003  1
  S  S1  1  0.70751117  0.72364499  0.25164636  1
  S  S2  1  0.02071152  0.29089147  0.25039190  1
  S  S3  1  0.29627118  0.30118259  0.75293106  1
  S  S4  1  0.00775289  0.70837542  0.75360366  1
  S  S5  1  0.69378353  0.98795264  0.75374783  1
  S  S6  1  0.38099065  0.04263579  0.57837173  1
  S  S7  1  0.66055304  0.61302751  0.57803554  1
  S  S8  1  0.94108094  0.62853013  0.08413698  1
  S  S9  1  0.68668384  0.06047085  0.08327537  1
  S  S10  1  0.61462319  0.65258251  0.91804753  1
  S  S11  1  0.03506073  0.38873757  0.91796795  1
  S  S12  1  0.35119888  0.96435650  0.91806181  1
  S  S13  1  0.35266083  0.40171828  0.41685205  1
  S  S14  1  0.04808152  0.64931288  0.41645905  1
  O  O0  1  0.19963172  0.00582088  0.30197206  1
  O  O1  1  0.80577798  0.80080217  0.30303989  1
  O  O2  1  0.99285582  0.18707855  0.30053132  1
  O  O3  1  0.21910494  0.20018784  0.80401685  1
  O  O4  1  0.99269153  0.79222563  0.80444235  1
  O  O5  1  0.79940598  0.01544826  0.80423337  1
  O  O6  1  0.75233341  0.94263868  0.70203966  1
  O  O7  1  0.19166990  0.24048963  0.70122339  1
  O  O8  1  0.04822433  0.80840549  0.70106260  1
  O  O9  1  0.78144937  0.83175487  0.19950866  1
  O  O10  1  0.04350438  0.19964170  0.19741599  1
  O  O11  1  0.15815808  0.94823289  0.19888258  1
  O  O12  1  0.89097318  0.39049697  0.63482185  1
  O  O13  1  0.48235860  0.10763413  0.62998441  1
  O  O14  1  0.61716025  0.51223169  0.63002721  1
  O  O15  1  0.87645198  0.52383754  0.13455160  1
  O  O16  1  0.66152112  0.13126528  0.13490788  1
  O  O17  1  0.48432393  0.33933171  0.13994715  1
  O  O18  1  0.47815143  0.29257226  0.02732377  1
  O  O19  1  0.82816432  0.54490103  0.03186521  1
  O  O20  1  0.72091204  0.17559607  0.03147080  1
  O  O21  1  0.47247218  0.15357599  0.52665824  1
  O  O22  1  0.66877705  0.51814507  0.52645883  1
  O  O23  1  0.83083293  0.32040569  0.52375043  1
  O  O24  1  0.54503831  0.68121313  0.96956442  1
  O  O25  1  0.13888840  0.46159090  0.96855669  1
  O  O26  1  0.32252147  0.86816504  0.97026572  1
  O  O27  1  0.49649874  0.83242497  0.46921201  1
  O  O28  1  0.32547410  0.48248958  0.46787424  1
  O  O29  1  0.15071540  0.66559832  0.46775682  1
  O  O30  1  0.12521127  0.61671021  0.36397504  1
  O  O31  1  0.47911596  0.85781620  0.35857823  1
  O  O32  1  0.37195384  0.51055345  0.36410259  1
  O  O33  1  0.12579808  0.50470969  0.86625283  1
  O  O34  1  0.37949279  0.87904905  0.86766540  1
  O  O35  1  0.49860637  0.61785692  0.86729266  1
  O  O36  1  0.03656382  0.80035968  0.40984778  1
  O  O37  1  0.78726402  0.97620277  0.41071650  1
  O  O38  1  0.20689143  0.23522810  0.40929545  1
  O  O39  1  0.00302009  0.21995494  0.90525745  1
  O  O40  1  0.22173196  0.00770146  0.90610976  1
  O  O41  1  0.78565549  0.78567021  0.90600785  1
  O  O42  1  0.97797883  0.17270037  0.58133294  1
  O  O43  1  0.21312737  0.02116395  0.58036826  1
  O  O44  1  0.81024501  0.77834975  0.58112957  1
  O  O45  1  0.93750135  0.79406489  0.09535170  1
  O  O46  1  0.84990038  0.04986511  0.09227141  1
  O  O47  1  0.18541617  0.13662065  0.09765869  1
  O  O48  1  0.65065505  0.11934281  0.74587705  1
  O  O49  1  0.47101739  0.34501829  0.74543914  1
  O  O50  1  0.87128038  0.53500195  0.74901550  1
  O  O51  1  0.67212654  0.55252194  0.24358070  1
  O  O52  1  0.88302689  0.32165923  0.23813559  1
  O  O53  1  0.44462087  0.10648997  0.24060868  1
  O  O54  1  0.62499069  0.48853049  0.92692933  1
  O  O55  1  0.86824172  0.38410200  0.92558640  1
  O  O56  1  0.52139708  0.13608087  0.92675274  1
  O  O57  1  0.61675546  0.14155215  0.42669259  1
  O  O58  1  0.51051071  0.39582007  0.42306472  1
  O  O59  1  0.87360882  0.49815631  0.42321049  1
  O  O60  1  0.32290793  0.45802782  0.07028371  1
  O  O61  1  0.11456053  0.67758290  0.07100283  1
  O  O62  1  0.55177535  0.89105189  0.07082957  1
  O  O63  1  0.36158287  0.86853596  0.56738175  1
  O  O64  1  0.50812895  0.63974587  0.56653149  1
  O  O65  1  0.14924039  0.50534359  0.56216498  1
  O  O66  1  0.27188999  0.80801993  0.25899538  1
  O  O67  1  0.52922240  0.70967908  0.26032916  1
  O  O68  1  0.18269459  0.45808817  0.25735906  1
  O  O69  1  0.30563252  0.47778002  0.76734310  1
  O  O70  1  0.17314575  0.69396314  0.76700139  1
  O  O71  1  0.51880084  0.82358602  0.76937326  1
loop_
_geom_bond_atom_site_label_1
_geom_bond_atom_site_label_2
_geom_bond_distance
_geom_bond_site_symmetry_2
Ca0 O37 2.119479 1_545
Ca0 O38 2.271934 1_655
Ca0 O36 2.275637 1_645
Ca0 O2 2.285621 1_555
Ca0 O1 2.296984 1_545
Ca0 O0 2.332949 1_655
Ca1 O4 2.249844 1_445
Ca1 O5 2.252990 1_455
Ca1 O3 2.261887 1_555
Ca1 O39 2.269985 1_555
Ca1 O41 2.286833 1_445
Ca1 O40 2.295897 1_555
Ca2 O42 2.136816 1_555
Ca2 O44 2.371226 1_545
Ca2 O43 2.392020 1_655
Ca2 O7 2.419006 1_655
Ca2 O6 2.445940 1_545
Ca2 O8 2.493617 1_645
Ca3 O12 2.134268 1_555
Ca3 O50 2.299002 1_555
Ca3 O48 2.311446 1_555
Ca3 O13 2.350425 1_555
Ca3 O14 2.351976 1_555
Ca3 O49 2.364533 1_555
Ca4 O17 2.101529 1_555
Ca4 O51 2.272885 1_555
Ca4 O52 2.276615 1_555
Ca4 O16 2.301143 1_555
Ca4 O53 2.307047 1_555
Ca4 O15 2.312227 1_555
Ca5 O60 2.106675 1_555
Ca5 O25 2.259063 1_554
Ca5 O62 2.273334 1_555
Ca5 O61 2.283612 1_555
Ca5 O26 2.308776 1_554
Ca5 O24 2.312293 1_554
Nb0 O47 1.816691 1_555
Nb0 O46 2.012235 1_455
Nb0 O45 2.036900 1_445
Nb0 O10 2.057678 1_555
Nb0 O11 2.167718 1_545
Nb0 O9 2.273004 1_445
Nb1 O18 1.846702 1_556
Nb1 O56 2.000971 1_555
Nb1 O54 2.002013 1_555
Nb1 O19 2.158471 1_556
Nb1 O55 2.159562 1_555
Nb1 O20 2.166217 1_556
Nb2 O23 1.807858 1_555
Nb2 O57 1.889178 1_555
Nb2 O21 2.066360 1_555
Nb2 O22 2.127111 1_555
Nb2 O59 2.128596 1_555
Nb2 O58 2.275485 1_555
Nb3 O65 1.870183 1_555
Nb3 O27 1.925519 1_555
Nb3 O64 1.958549 1_555
Nb3 O63 1.998143 1_555
Nb3 O28 2.101656 1_555
Nb3 O29 2.141313 1_555
Nb4 O31 1.856946 1_555
Nb4 O67 1.972270 1_555
Nb4 O66 2.013279 1_555
Nb4 O32 2.077986 1_555
Nb4 O30 2.161207 1_555
Nb4 O68 2.174642 1_555
Nb5 O69 1.904676 1_555
Nb5 O70 1.907401 1_555
Nb5 O71 1.922645 1_555
Nb5 O33 2.082012 1_555
Nb5 O35 2.184612 1_555
Nb5 O34 2.205587 1_555
O0 S0 1.441511 1_545
O1 S1 1.443780 1_555
O2 S2 1.440879 1_655
O3 S3 1.451295 1_555
O4 S4 1.451933 1_655
O5 S5 1.454255 1_545
O6 S5 1.458350 1_555
O7 S3 1.456572 1_555
O8 S4 1.456405 1_555
O9 S1 1.493677 1_555
O10 S2 1.558751 1_555
O11 S0 1.516010 1_555
O12 Si0 1.569387 1_555
O13 S6 1.444415 1_555
O14 S7 1.447920 1_555
O15 S8 1.438526 1_555
O16 S9 1.435700 1_555
O17 Si1 1.554802 1_555
O18 Si1 1.763195 1_555
O19 S8 1.523634 1_555
O20 S9 1.523094 1_555
O21 S6 1.523935 1_555
O22 S7 1.503188 1_555
O23 Si0 1.787497 1_555
O24 S10 1.440930 1_555
O25 S11 1.442579 1_555
O26 S12 1.441547 1_555
O27 Si2 1.622357 1_555
O28 S13 1.482450 1_555
O29 S14 1.472880 1_555
O30 S14 1.512535 1_555
O31 Si2 1.731328 1_555
O32 S13 1.530189 1_555
O33 S11 1.541088 1_555
O34 S12 1.499955 1_555
O35 S10 1.504786 1_555
O36 S14 1.443483 1_555
O37 Si2 1.551765 1_555
O38 S13 1.444205 1_555
O39 S11 1.448768 1_555
O40 S12 1.448277 1_545
O41 S10 1.447459 1_555
O42 Si0 1.570886 1_555
O43 S6 1.445497 1_555
O44 S7 1.443992 1_555
O45 S8 1.551405 1_555
O46 S9 1.554449 1_555
O47 Si1 1.757058 1_555
O48 S5 1.449815 1_545
O49 S3 1.448646 1_555
O50 S4 1.447142 1_655
O51 S1 1.441437 1_555
O52 S2 1.446220 1_655
O53 S0 1.444540 1_545
O54 S10 1.561718 1_555
O55 S11 1.513674 1_655
O56 S12 1.572236 1_545
O57 Si2 1.672418 1_545
O58 S13 1.475597 1_555
O59 S14 1.505414 1_655
O60 Si1 1.555392 1_555
O61 S8 1.447582 1_455
O62 S9 1.443605 1_565
O63 S6 1.531276 1_565
O64 S7 1.550897 1_555
O65 Si0 1.689751 1_455
O66 S0 1.565387 1_555
O67 S1 1.581777 1_555
O68 S2 1.510453 1_555
O69 S3 1.607951 1_555
O70 S4 1.609389 1_555
O71 S5 1.593159 1_555
