# generated using pymatgen
data_Cs2MgMnV2(ClO3)2
_symmetry_space_group_name_H-M   'P 1'
_cell_length_a   5.68451400
_cell_length_b   5.93975354
_cell_length_c   9.31289347
_cell_angle_alpha   103.49506921
_cell_angle_beta   90.00000000
_cell_angle_gamma   90.00000000
_symmetry_Int_Tables_number   1
_chemical_formula_structural   Cs2MgMnV2(ClO3)2
_chemical_formula_sum   'Cs2 Mg1 Mn1 V2 Cl2 O6'
_cell_volume   305.76437777
_cell_formula_units_Z   1
loop_
 _symmetry_equiv_pos_site_id
 _symmetry_equiv_pos_as_xyz
  1  'x, y, z'
loop_
 _atom_site_type_symbol
 _atom_site_label
 _atom_site_symmetry_multiplicity
 _atom_site_fract_x
 _atom_site_fract_y
 _atom_site_fract_z
 _atom_site_occupancy
  Cs  Cs0  1  0.15557300  0.50863400  0.22759100  1
  Cs  Cs1  1  0.15557300  0.49136600  0.77240900  1
  Mg  Mg0  1  0.14167600  0.00000000  0.50000000  1
  Mn  Mn0  1  0.62271000  0.00000000  0.00000000  1
  V  V0  1  0.63861800  0.78946500  0.59937100  1
  V  V1  1  0.63861800  0.21053500  0.40062900  1
  Cl  Cl0  1  0.05870200  0.00000000  0.00000000  1
  Cl  Cl1  1  0.63460600  0.50000000  0.00000000  1
  O  O0  1  0.94598200  0.78275600  0.56148700  1
  O  O1  1  0.47990800  0.00000000  0.50000000  1
  O  O2  1  0.54292700  0.12412000  0.21754500  1
  O  O3  1  0.51954500  0.50000000  0.50000000  1
  O  O4  1  0.94598200  0.21724400  0.43851300  1
  O  O5  1  0.54292700  0.87588000  0.78245500  1
loop_
_geom_bond_atom_site_label_1
_geom_bond_atom_site_label_2
_geom_bond_distance
_geom_bond_site_symmetry_2
Cs0 O4 3.140113 1_455
Cs0 O2 3.158125 1_555
Cs0 O3 3.283302 1_555
Cs0 O0 3.372949 1_455
Cs0 Mg0 3.391850 1_565
Cs1 O0 3.140113 1_455
Cs1 O5 3.158125 1_555
Cs1 O3 3.283302 1_555
Cs1 O4 3.372949 1_455
Cs1 Mg0 3.391850 1_555
Mg0 O0 1.890851 1_445
Mg0 O4 1.890851 1_455
Mg0 O1 1.922685 1_555
Mn0 O2 2.038791 1_555
Mn0 O5 2.038791 1_544
Cl0 Mn0 2.478403 1_455
Cl0 Cs0 3.306723 1_555
Cl0 Cs1 3.306723 1_544
Cl0 Cs1 4.025047 1_554
Cl0 Cs0 4.025047 1_545
Cl1 Mn0 2.970647 1_565
Cl1 Mn0 2.970647 1_555
Cl1 Cs1 3.443751 1_554
Cl1 Cs0 3.443751 1_555
Cl1 Cs1 3.635170 1_654
Cl1 Cs0 3.635170 1_655
O0 V0 1.781084 1_555
O1 V0 1.942759 1_545
O1 V1 1.942759 1_555
O2 V1 1.748729 1_555
O3 V0 1.878330 1_555
O3 V1 1.878330 1_555
O4 V1 1.781084 1_555
O5 V0 1.748729 1_555
