# generated using pymatgen
data_MgMn2Al2O6
_symmetry_space_group_name_H-M   'P 1'
_cell_length_a   4.99243128
_cell_length_b   5.73153045
_cell_length_c   5.54050531
_cell_angle_alpha   69.57045259
_cell_angle_beta   115.15394843
_cell_angle_gamma   112.72876431
_symmetry_Int_Tables_number   1
_chemical_formula_structural   MgMn2Al2O6
_chemical_formula_sum   'Mg1 Mn2 Al2 O6'
_cell_volume   129.07512662
_cell_formula_units_Z   1
loop_
 _symmetry_equiv_pos_site_id
 _symmetry_equiv_pos_as_xyz
  1  'x, y, z'
loop_
 _atom_site_type_symbol
 _atom_site_label
 _atom_site_symmetry_multiplicity
 _atom_site_fract_x
 _atom_site_fract_y
 _atom_site_fract_z
 _atom_site_occupancy
  Mg  Mg0  1  0.35949119  0.22930362  0.33208084  1
  Mn  Mn0  1  0.73278489  0.45638021  0.91515347  1
  Mn  Mn1  1  0.51806165  0.88156138  0.05173212  1
  Al  Al0  1  0.94039816  0.10207228  0.61880844  1
  Al  Al1  1  0.06474482  0.65918138  0.47773096  1
  O  O0  1  0.02199369  0.78904636  0.71847334  1
  O  O1  1  0.65729002  0.12782186  0.71408884  1
  O  O2  1  0.24312085  0.39824055  0.70145001  1
  O  O3  1  0.67865731  0.55576841  0.24201619  1
  O  O4  1  0.28234645  0.88406403  0.27478977  1
  O  O5  1  0.91360995  0.18044793  0.26617703  1
loop_
_geom_bond_atom_site_label_1
_geom_bond_atom_site_label_2
_geom_bond_distance
_geom_bond_site_symmetry_2
Mg0 O4 1.977423 1_545
Mg0 O3 2.002331 1_555
Mg0 O5 2.016355 1_455
Mg0 O1 2.040131 1_555
Mn0 O5 2.135895 1_556
Mn0 O0 2.160405 1_655
Mn0 O2 2.162045 1_555
Mn0 O3 2.220888 1_556
Mn0 O1 2.342732 1_555
Mn1 O4 2.043070 1_555
Mn1 O3 2.074869 1_555
Mn1 O1 2.116338 1_564
Mn1 O5 2.249038 1_565
Mn1 O0 2.367545 1_554
Al0 O1 1.774268 1_555
Al0 O5 1.802343 1_555
Al0 O2 1.829519 1_655
Al0 O0 1.836201 1_645
Al1 O4 1.746543 1_555
Al1 O3 1.813782 1_455
Al1 O2 1.833818 1_555
Al1 O0 1.853792 1_555
