# generated using pymatgen
data_Li3FeP2O9
_symmetry_space_group_name_H-M   'P 1'
_cell_length_a   6.87954877
_cell_length_b   7.95272083
_cell_length_c   7.14403182
_cell_angle_alpha   89.79453130
_cell_angle_beta   87.69154957
_cell_angle_gamma   64.47678209
_symmetry_Int_Tables_number   1
_chemical_formula_structural   Li3FeP2O9
_chemical_formula_sum   'Li6 Fe2 P4 O18'
_cell_volume   352.38718216
_cell_formula_units_Z   2
loop_
 _symmetry_equiv_pos_site_id
 _symmetry_equiv_pos_as_xyz
  1  'x, y, z'
loop_
 _atom_site_type_symbol
 _atom_site_label
 _atom_site_symmetry_multiplicity
 _atom_site_fract_x
 _atom_site_fract_y
 _atom_site_fract_z
 _atom_site_occupancy
  Li  Li0  1  0.61922600  0.72860500  0.29926200  1
  Li  Li1  1  0.23620400  0.00041200  0.99649600  1
  Li  Li2  1  0.85745600  0.20610300  0.23746900  1
  Li  Li3  1  0.08663900  0.79452600  0.76773400  1
  Li  Li4  1  0.99835100  0.50503600  0.50001900  1
  Li  Li5  1  0.39872700  0.26922200  0.69706700  1
  Fe  Fe0  1  0.50365000  0.49757500  0.00218800  1
  Fe  Fe1  1  0.00045300  0.50406500  0.99757200  1
  P  P0  1  0.38093900  0.20298100  0.24348400  1
  P  P1  1  0.12294400  0.75398600  0.29096600  1
  P  P2  1  0.61277300  0.79634700  0.75506900  1
  P  P3  1  0.89308200  0.24579200  0.70893000  1
  O  O0  1  0.55031800  0.26138900  0.14612400  1
  O  O1  1  0.81889600  0.74724300  0.87236900  1
  O  O2  1  0.99240300  0.64065600  0.23151400  1
  O  O3  1  0.01073800  0.05849300  0.80251300  1
  O  O4  1  0.04510900  0.94170200  0.19532300  1
  O  O5  1  0.49223200  0.00923800  0.75563300  1
  O  O6  1  0.76392800  0.47330200  0.10063700  1
  O  O7  1  0.36902300  0.63798200  0.23524100  1
  O  O8  1  0.64866900  0.34059000  0.77667800  1
  O  O9  1  0.24263700  0.52694000  0.89867600  1
  O  O10  1  0.45153600  0.73703000  0.86997100  1
  O  O11  1  0.89447500  0.24402100  0.49581400  1
  O  O12  1  0.67825400  0.70128700  0.56354500  1
  O  O13  1  0.48513300  0.99010200  0.24618200  1
  O  O14  1  0.10205900  0.75394300  0.50389300  1
  O  O15  1  0.18276600  0.25673400  0.11427300  1
  O  O16  1  0.30801700  0.29812300  0.43591900  1
  O  O17  1  0.00442900  0.37657400  0.75943800  1
loop_
_geom_bond_atom_site_label_1
_geom_bond_atom_site_label_2
_geom_bond_distance
_geom_bond_site_symmetry_2
Li0 O13 1.920649 1_555
Li0 O12 1.938974 1_555
Li0 O7 2.196867 1_555
Li0 O6 2.300422 1_555
Li0 O2 2.381041 1_555
Li1 O3 2.022607 1_555
Li1 O4 2.082709 1_546
Li1 O15 2.083268 1_556
Li1 O10 2.151897 1_545
Li1 O5 2.435106 1_555
Li1 O13 2.499059 1_546
Li2 O11 1.915766 1_555
Li2 O4 1.952590 1_645
Li2 O0 2.095768 1_555
Li2 O6 2.177740 1_555
Li2 O15 2.561378 1_655
Li3 O14 1.904461 1_555
Li3 O3 1.946776 1_565
Li3 O1 2.139369 1_455
Li3 O9 2.157287 1_555
Li3 O10 2.490066 1_555
Li4 O16 2.088486 1_655
Li4 O17 2.106187 1_655
Li4 O12 2.110445 1_555
Li4 O2 2.190414 1_555
Li4 O14 2.376384 1_655
Li4 O11 2.470008 1_555
Li5 O5 1.932116 1_555
Li5 O16 1.972313 1_555
Li5 O8 2.127052 1_555
Li5 O9 2.329857 1_555
Li5 O17 2.489024 1_555
Fe0 O6 1.881694 1_555
Fe0 O9 1.889475 1_554
Fe0 O7 1.968388 1_555
Fe0 O8 1.990241 1_554
Fe0 O10 2.018215 1_554
Fe0 O0 2.044896 1_555
Fe1 O9 1.863773 1_555
Fe1 O6 1.869484 1_456
Fe1 O17 1.976783 1_555
Fe1 O2 1.982418 1_456
Fe1 O15 2.020793 1_556
Fe1 O1 2.023906 1_455
O0 P0 1.567220 1_555
O1 P2 1.575351 1_555
O2 P1 1.590661 1_655
O3 P3 1.522604 1_455
O4 P1 1.521676 1_555
O5 P2 1.531025 1_545
O7 P1 1.574164 1_555
O8 P3 1.573071 1_555
O10 P2 1.581629 1_555
O11 P3 1.522229 1_555
O12 P2 1.520149 1_555
O13 P0 1.528213 1_565
O14 P1 1.522168 1_555
O15 P0 1.577925 1_555
O16 P0 1.529359 1_555
O17 P3 1.584380 1_455
