# generated using pymatgen
data_CaHf(SO4)3
_symmetry_space_group_name_H-M   'P 1'
_cell_length_a   9.11512541
_cell_length_b   9.11512510
_cell_length_c   22.95156923
_cell_angle_alpha   90.00000000
_cell_angle_beta   90.00000000
_cell_angle_gamma   120.00000117
_symmetry_Int_Tables_number   1
_chemical_formula_structural   CaHf(SO4)3
_chemical_formula_sum   'Ca6 Hf6 S18 O72'
_cell_volume   1651.46088703
_cell_formula_units_Z   6
loop_
 _symmetry_equiv_pos_site_id
 _symmetry_equiv_pos_as_xyz
  1  'x, y, z'
loop_
 _atom_site_type_symbol
 _atom_site_label
 _atom_site_symmetry_multiplicity
 _atom_site_fract_x
 _atom_site_fract_y
 _atom_site_fract_z
 _atom_site_occupancy
  Ca  Ca0  1  0.00000000  0.00000000  0.36009264  1
  Ca  Ca1  1  0.00000000  0.00000000  0.86009264  1
  Ca  Ca2  1  0.66666700  0.33333300  0.69342564  1
  Ca  Ca3  1  0.66666700  0.33333300  0.19342564  1
  Ca  Ca4  1  0.33333300  0.66666700  0.02675964  1
  Ca  Ca5  1  0.33333300  0.66666700  0.52675964  1
  Hf  Hf0  1  0.00000000  0.00000000  0.64593868  1
  Hf  Hf1  1  0.00000000  0.00000000  0.14593868  1
  Hf  Hf2  1  0.66666700  0.33333300  0.97927168  1
  Hf  Hf3  1  0.66666700  0.33333300  0.47927168  1
  Hf  Hf4  1  0.33333300  0.66666700  0.31260568  1
  Hf  Hf5  1  0.33333300  0.66666700  0.81260568  1
  S  S0  1  0.27731982  0.98165290  0.25046514  1
  S  S1  1  0.70433308  0.72268018  0.25046514  1
  S  S2  1  0.01834710  0.29566692  0.25046514  1
  S  S3  1  0.27731982  0.29566692  0.75046514  1
  S  S4  1  0.01834710  0.72268018  0.75046514  1
  S  S5  1  0.70433308  0.98165290  0.75046514  1
  S  S6  1  0.94398682  0.31498590  0.58379814  1
  S  S7  1  0.37100008  0.05601318  0.58379814  1
  S  S8  1  0.68501410  0.62899992  0.58379814  1
  S  S9  1  0.94398682  0.62899992  0.08379814  1
  S  S10  1  0.68501410  0.05601318  0.08379814  1
  S  S11  1  0.37100008  0.31498590  0.08379814  1
  S  S12  1  0.61065282  0.64831990  0.91713214  1
  S  S13  1  0.03766608  0.38934718  0.91713214  1
  S  S14  1  0.35168010  0.96233392  0.91713214  1
  S  S15  1  0.61065282  0.96233392  0.41713214  1
  S  S16  1  0.35168010  0.38934718  0.41713214  1
  S  S17  1  0.03766608  0.64831990  0.41713214  1
  O  O0  1  0.20462972  0.01219466  0.30176143  1
  O  O1  1  0.80756494  0.79537028  0.30176143  1
  O  O2  1  0.98780534  0.19243506  0.30176143  1
  O  O3  1  0.20462972  0.19243506  0.80176143  1
  O  O4  1  0.98780534  0.79537028  0.80176143  1
  O  O5  1  0.80756494  0.01219466  0.80176143  1
  O  O6  1  0.79094029  0.95409364  0.69813157  1
  O  O7  1  0.16315335  0.20905971  0.69813157  1
  O  O8  1  0.04590636  0.83684665  0.69813157  1
  O  O9  1  0.79094029  0.83684665  0.19813157  1
  O  O10  1  0.04590636  0.20905971  0.19813157  1
  O  O11  1  0.16315335  0.95409364  0.19813157  1
  O  O12  1  0.87129672  0.34552766  0.63509443  1
  O  O13  1  0.47423194  0.12870328  0.63509443  1
  O  O14  1  0.65447234  0.52576806  0.63509443  1
  O  O15  1  0.87129672  0.52576806  0.13509443  1
  O  O16  1  0.65447234  0.12870328  0.13509443  1
  O  O17  1  0.47423194  0.34552766  0.13509443  1
  O  O18  1  0.45760729  0.28742664  0.03146457  1
  O  O19  1  0.82982035  0.54239271  0.03146457  1
  O  O20  1  0.71257336  0.17017965  0.03146457  1
  O  O21  1  0.45760729  0.17017965  0.53146457  1
  O  O22  1  0.71257336  0.54239271  0.53146457  1
  O  O23  1  0.82982035  0.28742664  0.53146457  1
  O  O24  1  0.53796272  0.67886166  0.96842843  1
  O  O25  1  0.14089794  0.46203728  0.96842843  1
  O  O26  1  0.32113834  0.85910206  0.96842843  1
  O  O27  1  0.53796272  0.85910206  0.46842843  1
  O  O28  1  0.32113834  0.46203728  0.46842843  1
  O  O29  1  0.14089794  0.67886166  0.46842843  1
  O  O30  1  0.12427329  0.62076064  0.36479857  1
  O  O31  1  0.49648635  0.87572671  0.36479857  1
  O  O32  1  0.37923936  0.50351365  0.36479857  1
  O  O33  1  0.12427329  0.50351365  0.86479857  1
  O  O34  1  0.37923936  0.87572671  0.86479857  1
  O  O35  1  0.49648635  0.62076064  0.86479857  1
  O  O36  1  0.00393465  0.78474818  0.40596377  1
  O  O37  1  0.78081352  0.99606535  0.40596377  1
  O  O38  1  0.21525182  0.21918648  0.40596377  1
  O  O39  1  0.00393465  0.21918648  0.90596377  1
  O  O40  1  0.21525182  0.99606535  0.90596377  1
  O  O41  1  0.78081352  0.78474818  0.90596377  1
  O  O42  1  0.94907034  0.15198332  0.59166765  1
  O  O43  1  0.20291298  0.05092966  0.59166765  1
  O  O44  1  0.84801668  0.79708702  0.59166765  1
  O  O45  1  0.94907034  0.79708702  0.09166765  1
  O  O46  1  0.84801668  0.05092966  0.09166765  1
  O  O47  1  0.20291298  0.15198332  0.09166765  1
  O  O48  1  0.67060165  0.11808118  0.73929677  1
  O  O49  1  0.44748052  0.32939835  0.73929677  1
  O  O50  1  0.88191882  0.55251948  0.73929677  1
  O  O51  1  0.67060165  0.55251948  0.23929677  1
  O  O52  1  0.88191882  0.32939835  0.23929677  1
  O  O53  1  0.44748052  0.11808118  0.23929677  1
  O  O54  1  0.61573734  0.48531632  0.92500065  1
  O  O55  1  0.86957998  0.38426266  0.92500065  1
  O  O56  1  0.51468368  0.13042002  0.92500065  1
  O  O57  1  0.61573734  0.13042002  0.42500065  1
  O  O58  1  0.51468368  0.38426266  0.42500065  1
  O  O59  1  0.86957998  0.48531632  0.42500065  1
  O  O60  1  0.33726765  0.45141518  0.07263077  1
  O  O61  1  0.11414652  0.66273235  0.07263077  1
  O  O62  1  0.54858482  0.88585348  0.07263077  1
  O  O63  1  0.33726765  0.88585348  0.57263077  1
  O  O64  1  0.54858482  0.66273235  0.57263077  1
  O  O65  1  0.11414652  0.45141518  0.57263077  1
  O  O66  1  0.28240334  0.81865032  0.25833465  1
  O  O67  1  0.53624598  0.71759666  0.25833465  1
  O  O68  1  0.18134968  0.46375402  0.25833465  1
  O  O69  1  0.28240334  0.46375402  0.75833465  1
  O  O70  1  0.18134968  0.71759666  0.75833465  1
  O  O71  1  0.53624598  0.81865032  0.75833465  1
loop_
_geom_bond_atom_site_label_1
_geom_bond_atom_site_label_2
_geom_bond_distance
_geom_bond_site_symmetry_2
Ca0 O36 2.242700 1_545
Ca0 O38 2.242700 1_555
Ca0 O37 2.242700 1_445
Ca0 O1 2.253099 1_445
Ca0 O2 2.253099 1_455
Ca0 O0 2.253100 1_555
Ca1 O41 2.242700 1_445
Ca1 O40 2.242700 1_545
Ca1 O39 2.242700 1_555
Ca1 O4 2.253099 1_445
Ca1 O3 2.253099 1_555
Ca1 O5 2.253100 1_455
Ca2 O48 2.242700 1_555
Ca2 O50 2.242700 1_555
Ca2 O49 2.242700 1_555
Ca2 O13 2.253099 1_555
Ca2 O14 2.253099 1_555
Ca2 O12 2.253100 1_555
Ca3 O53 2.242700 1_555
Ca3 O52 2.242700 1_555
Ca3 O51 2.242700 1_555
Ca3 O16 2.253099 1_555
Ca3 O15 2.253099 1_555
Ca3 O17 2.253100 1_555
Ca4 O60 2.242700 1_555
Ca4 O62 2.242700 1_555
Ca4 O61 2.242700 1_555
Ca4 O25 2.253099 1_554
Ca4 O26 2.253099 1_554
Ca4 O24 2.253100 1_554
Ca5 O65 2.242700 1_555
Ca5 O64 2.242700 1_555
Ca5 O63 2.242700 1_555
Ca5 O28 2.253099 1_555
Ca5 O27 2.253099 1_555
Ca5 O29 2.253100 1_555
Hf0 O44 2.080709 1_445
Hf0 O42 2.080709 1_455
Hf0 O43 2.080709 1_555
Hf0 O7 2.108086 1_555
Hf0 O8 2.108086 1_545
Hf0 O6 2.108086 1_445
Hf1 O45 2.080709 1_445
Hf1 O47 2.080709 1_555
Hf1 O46 2.080709 1_455
Hf1 O10 2.108086 1_555
Hf1 O9 2.108086 1_445
Hf1 O11 2.108086 1_545
Hf2 O56 2.080709 1_555
Hf2 O54 2.080709 1_555
Hf2 O55 2.080709 1_555
Hf2 O19 2.108086 1_556
Hf2 O20 2.108086 1_556
Hf2 O18 2.108086 1_556
Hf3 O57 2.080709 1_555
Hf3 O59 2.080709 1_555
Hf3 O58 2.080709 1_555
Hf3 O22 2.108086 1_555
Hf3 O21 2.108086 1_555
Hf3 O23 2.108086 1_555
Hf4 O68 2.080709 1_555
Hf4 O66 2.080709 1_555
Hf4 O67 2.080709 1_555
Hf4 O31 2.108086 1_555
Hf4 O32 2.108086 1_555
Hf4 O30 2.108086 1_555
Hf5 O69 2.080709 1_555
Hf5 O71 2.080709 1_555
Hf5 O70 2.080709 1_555
Hf5 O34 2.108086 1_555
Hf5 O33 2.108086 1_555
Hf5 O35 2.108086 1_555
O0 S0 1.444672 1_545
O1 S1 1.444672 1_555
O2 S2 1.444672 1_655
O3 S3 1.444672 1_555
O4 S4 1.444672 1_655
O5 S5 1.444672 1_545
O6 S5 1.525567 1_555
O7 S3 1.525567 1_555
O8 S4 1.525567 1_555
O9 S1 1.525567 1_555
O10 S2 1.525567 1_555
O11 S0 1.525567 1_555
O12 S6 1.444672 1_555
O13 S7 1.444672 1_555
O14 S8 1.444672 1_555
O15 S9 1.444672 1_555
O16 S10 1.444672 1_555
O17 S11 1.444672 1_555
O18 S11 1.525567 1_555
O19 S9 1.525567 1_555
O20 S10 1.525567 1_555
O21 S7 1.525567 1_555
O22 S8 1.525567 1_555
O23 S6 1.525567 1_555
O24 S12 1.444672 1_555
O25 S13 1.444672 1_555
O26 S14 1.444672 1_555
O27 S15 1.444672 1_555
O28 S16 1.444672 1_555
O29 S17 1.444672 1_555
O30 S17 1.525567 1_555
O31 S15 1.525567 1_555
O32 S16 1.525567 1_555
O33 S13 1.525567 1_555
O34 S14 1.525567 1_555
O35 S12 1.525567 1_555
O36 S17 1.445350 1_555
O37 S15 1.445359 1_555
O38 S16 1.445356 1_555
O39 S13 1.445359 1_555
O40 S14 1.445350 1_555
O41 S12 1.445356 1_555
O42 S6 1.520258 1_555
O43 S7 1.520267 1_555
O44 S8 1.520263 1_555
O45 S9 1.520267 1_555
O46 S10 1.520258 1_555
O47 S11 1.520263 1_555
O48 S5 1.445350 1_545
O49 S3 1.445359 1_555
O50 S4 1.445356 1_655
O51 S1 1.445359 1_555
O52 S2 1.445350 1_655
O53 S0 1.445356 1_545
O54 S12 1.520269 1_555
O55 S13 1.520251 1_655
O56 S14 1.520260 1_545
O57 S15 1.520251 1_545
O58 S16 1.520269 1_555
O59 S17 1.520260 1_655
O60 S11 1.445361 1_555
O61 S9 1.445343 1_455
O62 S10 1.445349 1_565
O63 S7 1.445343 1_565
O64 S8 1.445361 1_555
O65 S6 1.445349 1_455
O66 S0 1.520258 1_555
O67 S1 1.520267 1_555
O68 S2 1.520263 1_555
O69 S3 1.520267 1_555
O70 S4 1.520258 1_555
O71 S5 1.520263 1_555
