# generated using pymatgen
data_Li6Mn9(PO4)8
_symmetry_space_group_name_H-M   'P 1'
_cell_length_a   9.28554700
_cell_length_b   8.92512972
_cell_length_c   9.10096956
_cell_angle_alpha   101.23924449
_cell_angle_beta   101.27050861
_cell_angle_gamma   111.52768428
_symmetry_Int_Tables_number   1
_chemical_formula_structural   Li6Mn9(PO4)8
_chemical_formula_sum   'Li6 Mn9 P8 O32'
_cell_volume   658.05247769
_cell_formula_units_Z   1
loop_
 _symmetry_equiv_pos_site_id
 _symmetry_equiv_pos_as_xyz
  1  'x, y, z'
loop_
 _atom_site_type_symbol
 _atom_site_label
 _atom_site_symmetry_multiplicity
 _atom_site_fract_x
 _atom_site_fract_y
 _atom_site_fract_z
 _atom_site_occupancy
  Li  Li0  1  0.02412200  0.12055300  0.36102800  1
  Li  Li1  1  0.26851400  0.76792300  0.03950400  1
  Li  Li2  1  0.35998200  0.31399800  0.31359500  1
  Li  Li3  1  0.64001800  0.68600200  0.68640500  1
  Li  Li4  1  0.73148600  0.23207700  0.96049600  1
  Li  Li5  1  0.97587800  0.87944700  0.63897200  1
  Mn  Mn0  1  0.00000000  0.50000000  0.50000000  1
  Mn  Mn1  1  0.04336500  0.30295100  0.79659600  1
  Mn  Mn2  1  0.42281800  0.86733600  0.71657900  1
  Mn  Mn3  1  0.00000000  0.00000000  0.00000000  1
  Mn  Mn4  1  0.46684300  0.71780100  0.31909100  1
  Mn  Mn5  1  0.50000000  0.50000000  0.00000000  1
  Mn  Mn6  1  0.53315700  0.28219900  0.68090900  1
  Mn  Mn7  1  0.57718200  0.13266400  0.28342100  1
  Mn  Mn8  1  0.95663500  0.69704900  0.20340400  1
  P  P0  1  0.71309800  0.02403000  0.60036700  1
  P  P1  1  0.90058900  0.60447100  0.83464000  1
  P  P2  1  0.71872500  0.53791300  0.34104000  1
  P  P3  1  0.66108700  0.88786600  0.04524000  1
  P  P4  1  0.33891300  0.11213400  0.95476000  1
  P  P5  1  0.28127500  0.46208700  0.65896000  1
  P  P6  1  0.09941100  0.39552900  0.16536000  1
  P  P7  1  0.28690200  0.97597000  0.39963300  1
  O  O0  1  0.88512500  0.04697400  0.68520900  1
  O  O1  1  0.97165100  0.31009900  0.99925100  1
  O  O2  1  0.96242400  0.49750100  0.72755900  1
  O  O3  1  0.66969400  0.06716900  0.09846000  1
  O  O4  1  0.71519100  0.07058400  0.44692600  1
  O  O5  1  0.88146800  0.69433100  0.43508200  1
  O  O6  1  0.74220200  0.38636500  0.38454100  1
  O  O7  1  0.65762300  0.12967100  0.71688200  1
  O  O8  1  0.83423800  0.89498500  0.10478900  1
  O  O9  1  0.11487500  0.95302600  0.31479100  1
  O  O10  1  0.02834900  0.68990100  0.00074900  1
  O  O11  1  0.03757600  0.50249900  0.27244100  1
  O  O12  1  0.33030600  0.93283100  0.90154000  1
  O  O13  1  0.28480900  0.92941600  0.55307400  1
  O  O14  1  0.11853200  0.30566900  0.56491800  1
  O  O15  1  0.25779800  0.61363500  0.61545900  1
  O  O16  1  0.34237700  0.87032900  0.28311800  1
  O  O17  1  0.16576200  0.10501500  0.89521100  1
  O  O18  1  0.11620300  0.25093800  0.22819100  1
  O  O19  1  0.29249900  0.47511900  0.83630400  1
  O  O20  1  0.26659600  0.51002100  0.15308600  1
  O  O21  1  0.59998700  0.81822300  0.86480400  1
  O  O22  1  0.43648000  0.45671100  0.62900600  1
  O  O23  1  0.58779000  0.83621700  0.56169200  1
  O  O24  1  0.45634300  0.23844000  0.88666500  1
  O  O25  1  0.54365700  0.76156000  0.11333500  1
  O  O26  1  0.41221000  0.16378300  0.43830800  1
  O  O27  1  0.56352000  0.54328900  0.37099400  1
  O  O28  1  0.40001300  0.18177700  0.13519600  1
  O  O29  1  0.73340400  0.48997900  0.84691400  1
  O  O30  1  0.70750100  0.52488100  0.16369600  1
  O  O31  1  0.88379700  0.74906200  0.77180900  1
loop_
_geom_bond_atom_site_label_1
_geom_bond_atom_site_label_2
_geom_bond_distance
_geom_bond_site_symmetry_2
Li0 O18 1.941403 1_555
Li0 O9 1.985166 1_545
Li0 O14 2.011855 1_555
Li0 O8 2.560809 1_445
Li1 O10 2.009879 1_555
Li1 O16 2.092138 1_555
Li1 O12 2.110509 1_554
Li1 O25 2.536203 1_555
Li2 O28 1.994447 1_555
Li2 O26 2.043544 1_555
Li2 O18 2.061948 1_555
Li2 O27 2.095626 1_555
Li3 O21 1.994447 1_555
Li3 O23 2.043544 1_555
Li3 O31 2.061948 1_555
Li3 O22 2.095626 1_555
Li4 O1 2.009879 1_555
Li4 O7 2.092138 1_555
Li4 O3 2.110509 1_556
Li4 O24 2.536203 1_555
Li5 O31 1.941403 1_555
Li5 O0 1.985166 1_565
Li5 O5 2.011855 1_555
Li5 O17 2.560809 1_665
Mn0 O15 2.163935 1_555
Mn0 O6 2.163935 1_455
Mn0 O11 2.169345 1_555
Mn0 O2 2.169345 1_455
Mn0 O5 2.472848 1_455
Mn0 O14 2.472848 1_555
Mn1 O1 2.077145 1_455
Mn1 O0 2.111274 1_455
Mn1 O19 2.165941 1_555
Mn1 O2 2.274451 1_455
Mn1 O14 2.348671 1_555
Mn1 O17 2.628865 1_555
Mn2 O13 2.064128 1_555
Mn2 O15 2.100509 1_555
Mn2 O12 2.112671 1_555
Mn2 O21 2.147226 1_555
Mn2 O23 2.326893 1_555
Mn2 O7 2.546443 1_565
Mn3 O17 2.005132 1_554
Mn3 O8 2.005132 1_445
Mn3 O18 2.455744 1_555
Mn3 O31 2.455744 1_444
Mn4 O20 2.111421 1_555
Mn4 O16 2.115808 1_555
Mn4 O23 2.122061 1_555
Mn4 O27 2.145256 1_555
Mn4 O25 2.184159 1_555
Mn5 O30 2.101477 1_555
Mn5 O19 2.101477 1_554
Mn5 O25 2.209375 1_555
Mn5 O24 2.209375 1_554
Mn6 O29 2.111421 1_555
Mn6 O7 2.115808 1_555
Mn6 O26 2.122061 1_555
Mn6 O22 2.145256 1_555
Mn6 O24 2.184159 1_555
Mn7 O4 2.064128 1_555
Mn7 O6 2.100509 1_555
Mn7 O3 2.112671 1_555
Mn7 O28 2.147226 1_555
Mn7 O26 2.326893 1_555
Mn7 O16 2.546443 1_545
Mn8 O10 2.077145 1_655
Mn8 O9 2.111274 1_655
Mn8 O30 2.165941 1_555
Mn8 O11 2.274451 1_655
Mn8 O5 2.348671 1_555
Mn8 O8 2.628865 1_555
O0 P0 1.551097 1_555
O1 P6 1.568418 1_656
O2 P1 1.565003 1_555
O3 P3 1.546225 1_545
O4 P0 1.534271 1_555
O5 P2 1.563803 1_555
O6 P2 1.557290 1_555
O7 P0 1.568117 1_555
O8 P3 1.566456 1_555
O9 P7 1.551097 1_555
O10 P1 1.568418 1_454
O11 P6 1.565003 1_555
O12 P4 1.546225 1_565
O13 P7 1.534271 1_555
O14 P5 1.563803 1_555
O15 P5 1.557290 1_555
O16 P7 1.568117 1_555
O17 P4 1.566456 1_555
O18 P6 1.554717 1_555
O19 P5 1.575299 1_555
O20 P6 1.553928 1_555
O21 P3 1.544021 1_556
O22 P5 1.533880 1_555
O23 P0 1.570379 1_565
O24 P4 1.574229 1_555
O25 P3 1.574229 1_555
O26 P7 1.570379 1_545
O27 P2 1.533880 1_555
O28 P4 1.544021 1_554
O29 P1 1.553928 1_555
O30 P2 1.575299 1_555
O31 P1 1.554717 1_555
