# generated using pymatgen
data_Y2MgTi2S2O5
_symmetry_space_group_name_H-M   'P 1'
_cell_length_a   14.15102896
_cell_length_b   14.15102810
_cell_length_c   14.15102869
_cell_angle_alpha   164.54095190
_cell_angle_beta   164.54260568
_cell_angle_gamma   21.92857435
_symmetry_Int_Tables_number   1
_chemical_formula_structural   Y2MgTi2S2O5
_chemical_formula_sum   'Y2 Mg1 Ti2 S2 O5'
_cell_volume   201.28014240
_cell_formula_units_Z   1
loop_
 _symmetry_equiv_pos_site_id
 _symmetry_equiv_pos_as_xyz
  1  'x, y, z'
loop_
 _atom_site_type_symbol
 _atom_site_label
 _atom_site_symmetry_multiplicity
 _atom_site_fract_x
 _atom_site_fract_y
 _atom_site_fract_z
 _atom_site_occupancy
  Y  Y0  1  0.36424874  0.36424874  1.00000000  1
  Y  Y1  1  0.63575138  0.63575138  0.00000000  1
  Mg  Mg0  1  0.75000393  0.25000393  0.50000000  1
  Ti  Ti0  1  0.06573135  0.06573135  0.00000000  1
  Ti  Ti1  1  0.93426248  0.93426248  1.00000000  1
  S  S0  1  0.19208156  0.19208156  0.00000000  1
  S  S1  1  0.80793176  0.80793176  1.00000000  1
  O  O0  1  -0.00000284  -0.00000284  1.00000000  1
  O  O1  1  0.59267513  0.09267513  0.50000000  1
  O  O2  1  0.90739836  0.40739836  0.50000000  1
  O  O3  1  0.09212693  0.59212693  0.50000000  1
  O  O4  1  0.40779124  0.90779124  0.50000000  1
loop_
_geom_bond_atom_site_label_1
_geom_bond_atom_site_label_2
_geom_bond_distance
_geom_bond_site_symmetry_2
Mg0 S0 2.492353 1_656
Mg0 S0 2.492353 1_555
Mg0 S1 2.492605 1_555
Mg0 S1 2.492605 1_544
S0 Y1 3.113488 1_545
S0 Y1 3.113488 1_444
S0 Y1 3.113489 1_556
S0 Y1 3.113489 1_455
S1 Y0 3.113304 1_565
S1 Y0 3.113304 1_666
S1 Y0 3.113304 1_554
S1 Y0 3.113304 1_655
O0 Ti0 1.826453 1_556
O0 Ti1 1.826466 1_445
O1 Ti0 2.045025 1_656
O1 Ti0 2.045025 1_555
O1 Y1 2.248328 1_556
O1 Y1 2.248329 1_545
O2 Ti1 2.044404 1_555
O2 Ti1 2.044404 1_544
O2 Y0 2.249243 1_655
O2 Y0 2.249243 1_554
O3 Ti0 2.039687 1_555
O3 Ti0 2.039687 1_566
O3 Y1 2.256303 1_455
O3 Y1 2.256303 1_556
O4 Ti1 2.040255 1_454
O4 Ti1 2.040255 1_555
O4 Y0 2.255251 1_554
O4 Y0 2.255252 1_565
