# generated using pymatgen
data_MgFe4(CuO4)2
_symmetry_space_group_name_H-M   'P 1'
_cell_length_a   6.23094893
_cell_length_b   6.23054386
_cell_length_c   6.19890471
_cell_angle_alpha   119.76236168
_cell_angle_beta   119.77059874
_cell_angle_gamma   87.97138087
_symmetry_Int_Tables_number   1
_chemical_formula_structural   MgFe4(CuO4)2
_chemical_formula_sum   'Mg1 Fe4 Cu2 O8'
_cell_volume   174.07860817
_cell_formula_units_Z   1
loop_
 _symmetry_equiv_pos_site_id
 _symmetry_equiv_pos_as_xyz
  1  'x, y, z'
loop_
 _atom_site_type_symbol
 _atom_site_label
 _atom_site_symmetry_multiplicity
 _atom_site_fract_x
 _atom_site_fract_y
 _atom_site_fract_z
 _atom_site_occupancy
  Mg  Mg0  1  0.83583226  0.16416541  0.99993719  1
  Fe  Fe0  1  0.86609163  0.67265940  0.26937638  1
  Fe  Fe1  1  0.32733867  0.13389233  0.73066561  1
  Fe  Fe2  1  0.38070344  0.61927531  0.25480389  1
  Fe  Fe3  1  0.38062445  0.61937083  0.74519865  1
  Cu  Cu0  1  0.12411081  0.87584332  -0.00000932  1
  Cu  Cu1  1  0.67757211  0.32259789  0.50008856  1
  O  O0  1  0.62782129  0.37179238  0.20379170  1
  O  O1  1  0.58238369  0.82635391  0.20401241  1
  O  O2  1  0.62817016  0.37223019  0.79621009  1
  O  O3  1  0.14272564  0.45037768  0.29675576  1
  O  O4  1  0.11226479  0.88823579  0.28989873  1
  O  O5  1  0.17361335  0.41758880  0.79603943  1
  O  O6  1  0.54960658  0.85728035  0.70317494  1
  O  O7  1  0.11197314  0.88750243  0.71005599  1
loop_
_geom_bond_atom_site_label_1
_geom_bond_atom_site_label_2
_geom_bond_distance
_geom_bond_site_symmetry_2
Mg0 O3 1.926654 1_656
Mg0 O6 1.926669 1_545
Mg0 O2 2.198535 1_555
Mg0 O0 2.198875 1_556
Fe0 O1 1.939136 1_555
Fe0 O4 1.988849 1_655
Fe0 O7 1.989999 1_655
Fe0 O3 2.166058 1_655
Fe0 O0 2.173585 1_555
Fe0 O2 2.175366 1_554
Fe1 O5 1.939204 1_555
Fe1 O7 1.988630 1_545
Fe1 O4 1.990248 1_545
Fe1 O6 2.165909 1_545
Fe1 O2 2.173843 1_555
Fe1 O0 2.175244 1_556
Fe2 O3 2.034429 1_555
Fe2 O6 2.036036 1_555
Fe2 O1 2.062517 1_555
Fe2 O5 2.062599 1_554
Fe2 O0 2.163303 1_555
Fe2 O4 2.335420 1_555
Fe3 O6 2.034692 1_555
Fe3 O3 2.036190 1_555
Fe3 O1 2.062838 1_556
Fe3 O5 2.062899 1_555
Fe3 O2 2.163580 1_555
Fe3 O7 2.332744 1_555
Cu0 O4 1.798496 1_555
Cu0 O7 1.798736 1_554
Cu0 O5 2.566456 1_554
Cu0 O1 2.566488 1_555
Cu1 O0 1.884236 1_555
Cu1 O2 1.884340 1_555
Cu1 O5 2.586430 1_655
Cu1 O1 2.587454 1_545
