# generated using pymatgen
data_Na9Mg8Nb4P9(SO8)9
_symmetry_space_group_name_H-M   'P 1'
_cell_length_a   8.78594059
_cell_length_b   8.76867011
_cell_length_c   22.64993109
_cell_angle_alpha   90.12193547
_cell_angle_beta   89.98175276
_cell_angle_gamma   120.04254931
_symmetry_Int_Tables_number   1
_chemical_formula_structural   Na9Mg8Nb4P9(SO8)9
_chemical_formula_sum   'Na9 Mg8 Nb4 P9 S9 O72'
_cell_volume   1510.53919869
_cell_formula_units_Z   1
loop_
 _symmetry_equiv_pos_site_id
 _symmetry_equiv_pos_as_xyz
  1  'x, y, z'
loop_
 _atom_site_type_symbol
 _atom_site_label
 _atom_site_symmetry_multiplicity
 _atom_site_fract_x
 _atom_site_fract_y
 _atom_site_fract_z
 _atom_site_occupancy
  Na  Na0  1  0.66096828  0.96690317  0.58315441  1
  Na  Na1  1  0.29997438  0.96117181  0.08255975  1
  Na  Na2  1  0.03066851  0.33722075  0.08299029  1
  Na  Na3  1  0.01317265  0.00073099  0.49632092  1
  Na  Na4  1  0.98677424  0.98751383  0.99543930  1
  Na  Na5  1  0.66506711  0.33368170  0.83026783  1
  Na  Na6  1  0.66842596  0.33535440  0.32977026  1
  Na  Na7  1  0.34283801  0.67280437  0.16379788  1
  Na  Na8  1  0.32388774  0.66338338  0.66347323  1
  Mg  Mg0  1  0.99956117  0.99839493  0.35394014  1
  Mg  Mg1  1  0.00030996  0.99863159  0.85382872  1
  Mg  Mg2  1  0.01473212  0.00184796  0.64831602  1
  Mg  Mg3  1  0.98464275  0.98690265  0.14816326  1
  Mg  Mg4  1  0.66277362  0.33024269  0.68481636  1
  Mg  Mg5  1  0.67080598  0.33353476  0.18434593  1
  Mg  Mg6  1  0.33912689  0.67219118  0.01658115  1
  Mg  Mg7  1  0.32678805  0.66652178  0.51713115  1
  Nb  Nb0  1  0.67873542  0.33732676  0.97732987  1
  Nb  Nb1  1  0.65556905  0.32649058  0.47698279  1
  Nb  Nb2  1  0.33109615  0.66623335  0.31683220  1
  Nb  Nb3  1  0.33565420  0.66833771  0.81668723  1
  P  P0  1  0.37098829  0.03763350  0.58594249  1
  P  P1  1  0.95988648  0.62728147  0.08559572  1
  P  P2  1  0.66448285  0.03859617  0.08552925  1
  P  P3  1  0.62727678  0.67167269  0.91926071  1
  P  P4  1  0.04927764  0.37258383  0.91914382  1
  P  P5  1  0.32768811  0.95751444  0.91956210  1
  P  P6  1  0.62845428  0.95284910  0.41958207  1
  P  P7  1  0.32450542  0.37409031  0.41925964  1
  P  P8  1  0.04273145  0.67117485  0.41955735  1
  S  S0  1  0.29234528  0.00402292  0.24985911  1
  S  S1  1  0.70963317  0.70694495  0.25085701  1
  S  S2  1  0.99740693  0.28834022  0.25007762  1
  S  S3  1  0.29128213  0.28893568  0.75049538  1
  S  S4  1  0.99651684  0.70737840  0.75027939  1
  S  S5  1  0.71243328  0.00338840  0.74954099  1
  S  S6  1  0.95913257  0.33637293  0.58457194  1
  S  S7  1  0.66590226  0.62387511  0.58456272  1
  S  S8  1  0.37861836  0.33658910  0.08459216  1
  O  O0  1  0.20753932  0.02311833  0.30223903  1
  O  O1  1  0.81351642  0.78920517  0.30359226  1
  O  O2  1  0.97797702  0.18413245  0.30228588  1
  O  O3  1  0.21020511  0.18596409  0.80341292  1
  O  O4  1  0.97492231  0.78868287  0.80336016  1
  O  O5  1  0.81615877  0.02276785  0.80195482  1
  O  O6  1  0.78235748  0.96973842  0.69473789  1
  O  O7  1  0.18437630  0.21732898  0.69703831  1
  O  O8  1  0.03124812  0.81425304  0.69693510  1
  O  O9  1  0.78078096  0.81359770  0.19737912  1
  O  O10  1  0.03126738  0.21850602  0.19523137  1
  O  O11  1  0.18859522  0.97035991  0.19512997  1
  O  O12  1  0.87684667  0.36241611  0.63699011  1
  O  O13  1  0.49562733  0.12822175  0.63722851  1
  O  O14  1  0.64303205  0.51643006  0.63657960  1
  O  O15  1  0.87214982  0.50696550  0.13759610  1
  O  O16  1  0.62991961  0.12555328  0.13781860  1
  O  O17  1  0.48488967  0.36188707  0.13706659  1
  O  O18  1  0.46037483  0.30496338  0.03047810  1
  O  O19  1  0.83881412  0.53072047  0.02835498  1
  O  O20  1  0.69172362  0.16474886  0.02877583  1
  O  O21  1  0.47466749  0.16287859  0.52852701  1
  O  O22  1  0.69233247  0.53791152  0.52996494  1
  O  O23  1  0.84293486  0.30759652  0.53039493  1
  O  O24  1  0.53894383  0.69243734  0.97229472  1
  O  O25  1  0.14895170  0.45542747  0.97509439  1
  O  O26  1  0.30531385  0.85207778  0.97443566  1
  O  O27  1  0.54581103  0.85104074  0.47503056  1
  O  O28  1  0.30749544  0.46226907  0.47303543  1
  O  O29  1  0.15360008  0.69420341  0.47217471  1
  O  O30  1  0.13293021  0.63588815  0.36242052  1
  O  O31  1  0.50253714  0.86594996  0.36357284  1
  O  O32  1  0.36275538  0.49678546  0.36228676  1
  O  O33  1  0.13619457  0.49746390  0.86331043  1
  O  O34  1  0.36315311  0.86586998  0.86345183  1
  O  O35  1  0.50329140  0.63732497  0.86217494  1
  O  O36  1  0.01762241  0.82557471  0.40716271  1
  O  O37  1  0.80920975  0.98250760  0.40766926  1
  O  O38  1  0.17430795  0.19185709  0.40752144  1
  O  O39  1  0.01852876  0.19072302  0.90777318  1
  O  O40  1  0.17301510  0.98177332  0.90747550  1
  O  O41  1  0.80742070  0.82558529  0.90731949  1
  O  O42  1  0.96438275  0.16939531  0.58844971  1
  O  O43  1  0.19379564  0.02847882  0.58681443  1
  O  O44  1  0.82354044  0.80272307  0.58842284  1
  O  O45  1  0.98324777  0.81243179  0.08757220  1
  O  O46  1  0.83904121  0.03831662  0.08745840  1
  O  O47  1  0.20140778  0.17375478  0.08908475  1
  O  O48  1  0.68606228  0.15651904  0.74436940  1
  O  O49  1  0.47110374  0.31742277  0.74412804  1
  O  O50  1  0.84424618  0.52771620  0.74351192  1
  O  O51  1  0.68195826  0.52735776  0.24423647  1
  O  O52  1  0.84515870  0.31546394  0.24504783  1
  O  O53  1  0.47138061  0.15703341  0.24451554  1
  O  O54  1  0.63559669  0.49565695  0.92353416  1
  O  O55  1  0.86287256  0.36371354  0.92200938  1
  O  O56  1  0.50262167  0.14201787  0.92376277  1
  O  O57  1  0.63914666  0.14033716  0.42360994  1
  O  O58  1  0.50231323  0.36512023  0.42348440  1
  O  O59  1  0.85823587  0.49629078  0.42456640  1
  O  O60  1  0.35313717  0.48946892  0.07735629  1
  O  O61  1  0.14055878  0.64051828  0.07680800  1
  O  O62  1  0.50051905  0.85904680  0.07650793  1
  O  O63  1  0.36295142  0.86050145  0.57643349  1
  O  O64  1  0.50909803  0.64311664  0.57730016  1
  O  O65  1  0.13427264  0.48944799  0.57682261  1
  O  O66  1  0.31104237  0.83818588  0.25739271  1
  O  O67  1  0.52610497  0.68915893  0.25826418  1
  O  O68  1  0.16316448  0.47283751  0.25740130  1
  O  O69  1  0.31007320  0.47351070  0.75791033  1
  O  O70  1  0.16181845  0.68851958  0.75789285  1
  O  O71  1  0.52767468  0.83796466  0.75705594  1
loop_
_geom_bond_atom_site_label_1
_geom_bond_atom_site_label_2
_geom_bond_distance
_geom_bond_site_symmetry_2
Na0 O63 2.302833 1_555
Na0 O42 2.352311 1_565
Na0 O64 2.462557 1_555
Na0 O44 2.487324 1_555
Na0 O27 2.648620 1_555
Na0 O6 2.738707 1_555
Na0 O13 2.767726 1_565
Na0 O23 2.853144 1_565
Na1 O62 2.346159 1_555
Na1 O45 2.413292 1_455
Na1 O47 2.421087 1_565
Na1 O61 2.437161 1_555
Na1 O26 2.636249 1_554
Na1 O11 2.746194 1_555
Na1 O16 2.803297 1_565
Na1 O18 2.868035 1_565
Na2 O46 2.301524 1_455
Na2 O61 2.335651 1_555
Na2 O60 2.457396 1_555
Na2 O47 2.545173 1_555
Na2 O25 2.656556 1_554
Na2 O10 2.750173 1_555
Na2 O15 2.784170 1_455
Na2 O20 2.854503 1_455
Na3 O43 2.528255 1_555
Na3 O36 2.546652 1_545
Na3 O38 2.548561 1_555
Na3 O37 2.642518 1_445
Na3 O44 2.694256 1_445
Na3 O42 2.710449 1_455
Na4 O41 2.496492 1_555
Na4 O45 2.584304 1_556
Na4 O39 2.590865 1_665
Na4 O40 2.594135 1_655
Na4 O46 2.607769 1_566
Na4 O47 2.761557 1_666
Na5 O49 2.547303 1_555
Na5 O48 2.550784 1_555
Na5 O50 2.562177 1_555
Na5 O54 2.627162 1_555
Na5 O55 2.636138 1_555
Na5 O56 2.637702 1_555
Na6 O52 2.528189 1_555
Na6 O51 2.532837 1_555
Na6 O53 2.539628 1_555
Na6 O59 2.648712 1_555
Na6 O58 2.660965 1_555
Na6 O57 2.661327 1_555
Na7 O62 2.498376 1_555
Na7 O60 2.560878 1_555
Na7 O61 2.572323 1_555
Na7 O67 2.638376 1_555
Na7 O66 2.658433 1_555
Na7 O68 2.702510 1_555
Na8 O65 2.529561 1_555
Na8 O63 2.532203 1_555
Na8 O64 2.602911 1_555
Na8 O70 2.638194 1_555
Na8 O69 2.678558 1_555
Na8 O71 2.699311 1_555
Mg0 O36 2.005868 1_655
Mg0 O37 2.015817 1_555
Mg0 O38 2.022968 1_665
Mg0 O1 2.080171 1_555
Mg0 O0 2.088142 1_665
Mg0 O2 2.091616 1_565
Mg1 O40 2.006808 1_555
Mg1 O41 2.018433 1_455
Mg1 O39 2.019175 1_565
Mg1 O4 2.079824 1_455
Mg1 O3 2.092026 1_565
Mg1 O5 2.094790 1_465
Mg2 O43 2.025395 1_555
Mg2 O7 2.044952 1_555
Mg2 O8 2.046080 1_545
Mg2 O44 2.182961 1_445
Mg2 O6 2.185725 1_445
Mg2 O42 2.202816 1_455
Mg3 O9 2.010136 1_555
Mg3 O45 2.048514 1_555
Mg3 O46 2.076407 1_565
Mg3 O10 2.141679 1_665
Mg3 O11 2.150765 1_655
Mg3 O47 2.232810 1_665
Mg4 O13 1.960747 1_555
Mg4 O14 2.044616 1_555
Mg4 O12 2.063803 1_555
Mg4 O49 2.112554 1_555
Mg4 O48 2.121994 1_555
Mg4 O50 2.129577 1_555
Mg5 O15 1.968569 1_555
Mg5 O16 1.975265 1_555
Mg5 O17 2.070169 1_555
Mg5 O52 2.123047 1_555
Mg5 O51 2.135838 1_555
Mg5 O53 2.148221 1_555
Mg6 O24 1.951236 1_554
Mg6 O26 1.990825 1_554
Mg6 O25 2.025093 1_554
Mg6 O62 2.050142 1_555
Mg6 O61 2.120518 1_555
Mg6 O60 2.164294 1_555
Mg7 O29 1.944982 1_555
Mg7 O28 1.980543 1_555
Mg7 O27 2.029303 1_555
Mg7 O63 2.061006 1_555
Mg7 O65 2.116023 1_555
Mg7 O64 2.190159 1_555
Nb0 O19 1.947842 1_556
Nb0 O20 1.959932 1_556
Nb0 O55 1.966222 1_555
Nb0 O54 2.022423 1_555
Nb0 O56 2.034277 1_555
Nb0 O18 2.159901 1_556
Nb1 O21 1.915772 1_555
Nb1 O58 1.963559 1_555
Nb1 O57 1.975497 1_555
Nb1 O59 2.036803 1_555
Nb1 O22 2.091054 1_555
Nb1 O23 2.115691 1_555
Nb2 O30 1.924707 1_555
Nb2 O32 1.940501 1_555
Nb2 O31 1.951509 1_555
Nb2 O68 2.085902 1_555
Nb2 O67 2.095356 1_555
Nb2 O66 2.095664 1_555
Nb3 O35 1.925603 1_555
Nb3 O34 1.937472 1_555
Nb3 O33 1.951321 1_555
Nb3 O69 2.085054 1_555
Nb3 O71 2.092212 1_555
Nb3 O70 2.100077 1_555
O0 S0 1.454054 1_555
O1 S1 1.455292 1_555
O2 S2 1.452834 1_555
O3 S3 1.455794 1_555
O4 S4 1.456496 1_555
O5 S5 1.453799 1_555
O6 S5 1.478088 1_565
O7 S3 1.466110 1_555
O8 S4 1.466106 1_455
O9 S1 1.466807 1_555
O10 S2 1.478389 1_455
O11 S0 1.477979 1_565
O12 S6 1.465617 1_555
O13 P0 1.518365 1_555
O14 S7 1.459844 1_555
O15 P1 1.511586 1_555
O16 P2 1.517919 1_555
O17 S8 1.458020 1_555
O18 S8 1.514136 1_555
O19 P1 1.619794 1_555
O20 P2 1.635272 1_555
O21 P0 1.652487 1_555
O22 S7 1.523975 1_555
O23 S6 1.534031 1_555
O24 P3 1.489413 1_555
O25 P4 1.503465 1_555
O26 P5 1.503639 1_555
O27 P6 1.502206 1_555
O28 P7 1.488401 1_555
O29 P8 1.487522 1_555
O30 P8 1.625344 1_555
O31 P6 1.602059 1_555
O32 P7 1.606008 1_555
O33 P4 1.596718 1_555
O34 P5 1.613739 1_555
O35 P3 1.618610 1_555
O36 P8 1.503726 1_555
O37 P6 1.499668 1_555
O38 P7 1.500846 1_555
O39 P4 1.499746 1_555
O40 P5 1.502286 1_555
O41 P3 1.504030 1_555
O42 S6 1.490576 1_555
O43 P0 1.518331 1_555
O44 S7 1.486596 1_555
O45 P1 1.531664 1_555
O46 P2 1.535524 1_555
O47 S8 1.499259 1_555
O48 S5 1.477356 1_555
O49 S3 1.477883 1_555
O50 S4 1.477821 1_555
O51 S1 1.475481 1_555
O52 S2 1.475670 1_555
O53 S0 1.475292 1_555
O54 P3 1.584448 1_555
O55 P4 1.601522 1_655
O56 P5 1.580633 1_545
O57 P6 1.601461 1_545
O58 P7 1.605927 1_555
O59 P8 1.582310 1_655
O60 S8 1.474966 1_555
O61 P1 1.545402 1_455
O62 P2 1.524343 1_565
O63 P0 1.533823 1_565
O64 S7 1.478687 1_555
O65 S6 1.460491 1_455
O66 S0 1.552731 1_565
O67 S1 1.549406 1_555
O68 S2 1.551007 1_455
O69 S3 1.551207 1_555
O70 S4 1.551484 1_455
O71 S5 1.552835 1_565
