# generated using pymatgen
data_GeAsSe
_symmetry_space_group_name_H-M   'P 1'
_cell_length_a   5.08906544
_cell_length_b   10.25269405
_cell_length_c   12.41580532
_cell_angle_alpha   90.00000000
_cell_angle_beta   90.00000000
_cell_angle_gamma   90.00000000
_symmetry_Int_Tables_number   1
_chemical_formula_structural   GeAsSe
_chemical_formula_sum   'Ge8 As8 Se8'
_cell_volume   647.81489221
_cell_formula_units_Z   8
loop_
 _symmetry_equiv_pos_site_id
 _symmetry_equiv_pos_as_xyz
  1  'x, y, z'
loop_
 _atom_site_type_symbol
 _atom_site_label
 _atom_site_symmetry_multiplicity
 _atom_site_fract_x
 _atom_site_fract_y
 _atom_site_fract_z
 _atom_site_occupancy
  Ge  Ge0  1  0.25000000  -0.00000000  0.76573213  1
  Ge  Ge1  1  0.25000000  0.50000000  0.73426787  1
  Ge  Ge2  1  0.75000000  -0.00000000  0.23426787  1
  Ge  Ge3  1  0.75000000  0.50000000  0.26573213  1
  Ge  Ge4  1  0.29589992  0.25000000  0.25000000  1
  Ge  Ge5  1  0.20410008  0.75000000  0.25000000  1
  Ge  Ge6  1  0.70410008  0.75000000  0.75000000  1
  Ge  Ge7  1  0.79589992  0.25000000  0.75000000  1
  As  As0  1  0.07899380  0.41464677  0.13630516  1
  As  As1  1  0.07899380  0.08535323  0.36369484  1
  As  As2  1  0.42100620  0.91464677  0.36369484  1
  As  As3  1  0.42100620  0.58535323  0.13630516  1
  As  As4  1  0.92100620  0.58535323  0.86369484  1
  As  As5  1  0.92100620  0.91464677  0.63630516  1
  As  As6  1  0.57899380  0.08535323  0.63630516  1
  As  As7  1  0.57899380  0.41464677  0.86369484  1
  Se  Se0  1  0.92909385  0.84388686  0.11538358  1
  Se  Se1  1  0.92909385  0.65611314  0.38461642  1
  Se  Se2  1  0.57090615  0.34388686  0.38461642  1
  Se  Se3  1  0.57090615  0.15611314  0.11538358  1
  Se  Se4  1  0.07090615  0.15611314  0.88461642  1
  Se  Se5  1  0.07090615  0.34388686  0.61538358  1
  Se  Se6  1  0.42909385  0.65611314  0.61538358  1
  Se  Se7  1  0.42909385  0.84388686  0.88461642  1
loop_
_geom_bond_atom_site_label_1
_geom_bond_atom_site_label_2
_geom_bond_distance
_geom_bond_site_symmetry_2
Ge0 Se7 2.360350 1_545
Ge0 Se4 2.360350 1_555
Ge1 Se5 2.360350 1_555
Ge1 Se6 2.360350 1_555
Ge2 Se3 2.360350 1_555
Ge2 Se0 2.360350 1_545
Ge3 Se1 2.360350 1_555
Ge3 Se2 2.360350 1_555
Ge4 Se2 2.383010 1_555
Ge4 Se3 2.383010 1_555
Ge5 Se0 2.383010 1_455
Ge5 Se1 2.383010 1_455
Ge6 Se6 2.383010 1_555
Ge6 Se7 2.383010 1_555
Ge7 Se4 2.383010 1_655
Ge7 Se5 2.383010 1_655
As0 Ge4 2.461854 1_555
As0 As3 2.468325 1_555
As0 Ge3 2.480169 1_455
As1 Ge4 2.461854 1_555
As1 As2 2.468325 1_545
As1 Ge2 2.480169 1_455
As2 Ge5 2.461854 1_555
As2 Ge2 2.480169 1_565
As3 Ge5 2.461854 1_555
As3 Ge3 2.480169 1_555
As4 Ge6 2.461854 1_555
As4 As7 2.468325 1_555
As4 Ge1 2.480169 1_655
As5 Ge6 2.461854 1_555
As5 As6 2.468325 1_565
As5 Ge0 2.480169 1_665
As6 Ge7 2.461854 1_555
As6 Ge0 2.480169 1_555
As7 Ge7 2.461854 1_555
As7 Ge1 2.480169 1_555
