# generated using pymatgen
data_EuZnSi
_symmetry_space_group_name_H-M   'P 1'
_cell_length_a   4.21923439
_cell_length_b   4.21923522
_cell_length_c   8.64830254
_cell_angle_alpha   90.00000000
_cell_angle_beta   90.00000000
_cell_angle_gamma   119.99999340
_symmetry_Int_Tables_number   1
_chemical_formula_structural   EuZnSi
_chemical_formula_sum   'Eu2 Zn2 Si2'
_cell_volume   133.33032103
_cell_formula_units_Z   2
loop_
 _symmetry_equiv_pos_site_id
 _symmetry_equiv_pos_as_xyz
  1  'x, y, z'
loop_
 _atom_site_type_symbol
 _atom_site_label
 _atom_site_symmetry_multiplicity
 _atom_site_fract_x
 _atom_site_fract_y
 _atom_site_fract_z
 _atom_site_occupancy
  Eu  Eu0  1  0.00000000  0.00000000  0.50000000  1
  Eu  Eu1  1  0.00000000  0.00000000  -0.00000000  1
  Zn  Zn0  1  0.33333300  0.66666700  0.24987181  1
  Zn  Zn1  1  0.66666700  0.33333300  0.75012819  1
  Si  Si0  1  0.66666700  0.33333300  0.24998753  1
  Si  Si1  1  0.33333300  0.66666700  0.75001247  1
loop_
_geom_bond_atom_site_label_1
_geom_bond_atom_site_label_2
_geom_bond_distance
_geom_bond_site_symmetry_2
Eu0 Si1 3.257147 1_545
Eu0 Si0 3.257147 1_455
Eu0 Si0 3.257150 1_555
Eu0 Si1 3.257150 1_445
Eu0 Si0 3.257150 1_445
Eu0 Si1 3.257150 1_555
Eu0 Zn1 3.257811 1_455
Eu0 Zn0 3.257811 1_545
Eu0 Zn1 3.257814 1_555
Eu0 Zn0 3.257814 1_445
Eu0 Zn0 3.257814 1_555
Eu0 Zn1 3.257814 1_445
Eu1 Zn0 3.256339 1_545
Eu1 Zn1 3.256339 1_454
Eu1 Zn0 3.256342 1_445
Eu1 Zn1 3.256342 1_554
Eu1 Zn1 3.256343 1_444
Eu1 Zn0 3.256343 1_555
Eu1 Si1 3.257004 1_544
Eu1 Si0 3.257004 1_455
Eu1 Si1 3.257006 1_444
Eu1 Si0 3.257006 1_555
Eu1 Si1 3.257007 1_554
Eu1 Si0 3.257007 1_445
Si0 Zn0 2.435974 1_655
Si0 Zn0 2.435975 1_545
Si0 Zn0 2.435981 1_555
Si1 Zn1 2.435974 1_455
Si1 Zn1 2.435975 1_565
Si1 Zn1 2.435981 1_555
