# generated using pymatgen
data_Zn(InS2)2
_symmetry_space_group_name_H-M   'P 1'
_cell_length_a   3.92370730
_cell_length_b   3.92370730
_cell_length_c   12.66446000
_cell_angle_alpha   90.00000000
_cell_angle_beta   90.00000000
_cell_angle_gamma   119.99998824
_symmetry_Int_Tables_number   1
_chemical_formula_structural   Zn(InS2)2
_chemical_formula_sum   'Zn1 In2 S4'
_cell_volume   168.85369372
_cell_formula_units_Z   1
loop_
 _symmetry_equiv_pos_site_id
 _symmetry_equiv_pos_as_xyz
  1  'x, y, z'
loop_
 _atom_site_type_symbol
 _atom_site_label
 _atom_site_symmetry_multiplicity
 _atom_site_fract_x
 _atom_site_fract_y
 _atom_site_fract_z
 _atom_site_occupancy
  Zn  Zn0  1  0.00000000  0.00000000  0.70331900  1
  In  In0  1  0.66666700  0.33333300  0.39280500  1
  In  In1  1  0.33333300  0.66666700  0.07610200  1
  S  S0  1  0.33333300  0.66666700  0.74329900  1
  S  S1  1  0.33333300  0.66666700  0.27007300  1
  S  S2  1  0.00000000  0.00000000  0.49217700  1
  S  S3  1  0.00000000  0.00000000  0.99022500  1
loop_
_geom_bond_atom_site_label_1
_geom_bond_atom_site_label_2
_geom_bond_distance
_geom_bond_site_symmetry_2
In0 S2 2.591451 1_655
In0 S2 2.591455 1_665
In0 S2 2.591455 1_555
In0 S1 2.747321 1_545
In0 S1 2.747321 1_655
In0 S1 2.747326 1_555
In1 S1 2.456538 1_555
In1 S3 2.512898 1_564
In1 S3 2.512902 1_554
In1 S3 2.512902 1_664
S0 Zn0 2.321245 1_565
S0 Zn0 2.321249 1_555
S0 Zn0 2.321249 1_665
S2 Zn0 2.673999 1_555
