# generated using pymatgen
data_EuGa3Co2
_symmetry_space_group_name_H-M   'P 1'
_cell_length_a   5.21264913
_cell_length_b   6.23896854
_cell_length_c   6.23896722
_cell_angle_alpha   105.06501168
_cell_angle_beta   89.99748009
_cell_angle_gamma   89.99747534
_symmetry_Int_Tables_number   1
_chemical_formula_structural   EuGa3Co2
_chemical_formula_sum   'Eu2 Ga6 Co4'
_cell_volume   195.92751476
_cell_formula_units_Z   2
loop_
 _symmetry_equiv_pos_site_id
 _symmetry_equiv_pos_as_xyz
  1  'x, y, z'
loop_
 _atom_site_type_symbol
 _atom_site_label
 _atom_site_symmetry_multiplicity
 _atom_site_fract_x
 _atom_site_fract_y
 _atom_site_fract_z
 _atom_site_occupancy
  Eu  Eu0  1  0.74991089  0.65421971  0.65422084  1
  Eu  Eu1  1  0.25008911  0.34578029  0.34577916  1
  Ga  Ga0  1  0.74992387  0.08130710  0.47552825  1
  Ga  Ga1  1  0.25007613  0.91869290  0.52447175  1
  Ga  Ga2  1  0.25009375  0.94298563  0.94298597  1
  Ga  Ga3  1  0.74990625  0.05701437  0.05701403  1
  Ga  Ga4  1  0.25007610  0.52447172  0.91869225  1
  Ga  Ga5  1  0.74992390  0.47552828  0.08130775  1
  Co  Co0  1  -0.00000030  0.79970755  0.20029272  1
  Co  Co1  1  0.49999992  0.20029410  0.79970568  1
  Co  Co2  1  0.00000030  0.20029245  0.79970728  1
  Co  Co3  1  0.50000008  0.79970590  0.20029432  1
loop_
_geom_bond_atom_site_label_1
_geom_bond_atom_site_label_2
_geom_bond_distance
_geom_bond_site_symmetry_2
Eu0 Ga3 3.057395 1_566
Eu0 Ga5 3.144375 1_556
Eu0 Ga0 3.144383 1_565
Eu0 Ga4 3.295520 1_555
Eu0 Ga1 3.295529 1_555
Eu0 Ga4 3.296940 1_655
Eu0 Ga1 3.296949 1_655
Eu0 Ga2 3.404616 1_555
Eu0 Ga2 3.406318 1_655
Eu0 Ga0 3.456536 1_555
Eu0 Ga5 3.456538 1_555
Eu0 Eu1 3.502888 1_555
Eu0 Eu1 3.504018 1_655
Eu1 Ga2 3.057395 1_544
Eu1 Ga4 3.144375 1_554
Eu1 Ga1 3.144383 1_545
Eu1 Ga5 3.295520 1_555
Eu1 Ga0 3.295529 1_555
Eu1 Ga5 3.296940 1_455
Eu1 Ga0 3.296949 1_455
Eu1 Ga3 3.404616 1_555
Eu1 Ga3 3.406318 1_455
Eu1 Ga1 3.456536 1_555
Eu1 Ga4 3.456538 1_555
Ga0 Ga3 2.575864 1_555
Ga0 Ga1 2.841222 1_545
Ga0 Ga1 2.842620 1_645
Ga1 Ga2 2.575864 1_555
Ga2 Ga4 2.575862 1_555
Ga2 Ga3 2.745415 1_566
Ga2 Ga3 2.747151 1_466
Ga3 Ga5 2.575862 1_555
Ga4 Ga5 2.841225 1_556
Ga4 Ga5 2.842623 1_456
Co0 Ga5 2.358146 1_455
Co0 Ga1 2.358147 1_555
Co0 Ga2 2.412787 1_554
Co0 Ga3 2.412788 1_465
Co0 Ga0 2.483138 1_465
Co0 Ga4 2.483144 1_554
Co0 Eu1 3.446713 1_555
Co0 Eu0 3.446720 1_455
Co0 Eu0 3.538846 1_454
Co0 Eu1 3.538853 1_565
Co1 Ga0 2.357566 1_555
Co1 Ga4 2.357567 1_555
Co1 Ga3 2.412305 1_556
Co1 Ga2 2.412308 1_545
Co1 Ga1 2.482883 1_545
Co1 Ga5 2.482888 1_556
Co1 Eu0 3.446412 1_555
Co1 Eu1 3.446420 1_555
Co1 Eu1 3.538374 1_556
Co1 Eu0 3.538379 1_545
Co2 Ga4 2.358146 1_555
Co2 Ga0 2.358147 1_455
Co2 Ga3 2.412787 1_456
Co2 Ga2 2.412788 1_545
Co2 Ga1 2.483138 1_545
Co2 Ga5 2.483144 1_456
Co2 Eu0 3.446713 1_455
Co2 Eu1 3.446720 1_555
Co2 Eu1 3.538846 1_556
Co2 Eu0 3.538853 1_445
Co3 Ga1 2.357566 1_555
Co3 Ga5 2.357567 1_555
Co3 Ga2 2.412305 1_554
Co3 Ga3 2.412308 1_565
Co3 Ga0 2.482883 1_565
Co3 Ga4 2.482888 1_554
Co3 Eu1 3.446412 1_555
Co3 Eu0 3.446420 1_555
Co3 Eu0 3.538374 1_554
Co3 Eu1 3.538379 1_565
