# generated using pymatgen
data_Na4MgTi2(SiO5)2
_symmetry_space_group_name_H-M   'P 1'
_cell_length_a   5.21053680
_cell_length_b   6.88646000
_cell_length_c   6.68677563
_cell_angle_alpha   90.00000000
_cell_angle_beta   86.88410423
_cell_angle_gamma   90.00000000
_symmetry_Int_Tables_number   1
_chemical_formula_structural   Na4MgTi2(SiO5)2
_chemical_formula_sum   'Na4 Mg1 Ti2 Si2 O10'
_cell_volume   239.58119386
_cell_formula_units_Z   1
loop_
 _symmetry_equiv_pos_site_id
 _symmetry_equiv_pos_as_xyz
  1  'x, y, z'
loop_
 _atom_site_type_symbol
 _atom_site_label
 _atom_site_symmetry_multiplicity
 _atom_site_fract_x
 _atom_site_fract_y
 _atom_site_fract_z
 _atom_site_occupancy
  Na  Na0  1  0.56454200  0.06448500  0.53447100  1
  Na  Na1  1  0.51613500  0.02287400  0.00595600  1
  Na  Na2  1  0.56454200  0.43551500  0.53447100  1
  Na  Na3  1  0.51613500  0.47712600  0.00595600  1
  Mg  Mg0  1  0.36771900  0.75000000  0.40114000  1
  Ti  Ti0  1  0.05670300  0.25000000  0.25534100  1
  Ti  Ti1  1  0.93393600  0.75000000  0.74543800  1
  Si  Si0  1  0.94689400  0.75000000  0.23372400  1
  Si  Si1  1  0.02798100  0.25000000  0.75945200  1
  O  O0  1  0.71560400  0.25000000  0.25949000  1
  O  O1  1  0.27575100  0.75000000  0.68728900  1
  O  O2  1  0.20480300  0.25000000  0.54442300  1
  O  O3  1  0.20840700  0.25000000  0.95581400  1
  O  O4  1  0.15158500  0.56449800  0.25398500  1
  O  O5  1  0.15158500  0.93550200  0.25398500  1
  O  O6  1  0.84614600  0.05218900  0.76284900  1
  O  O7  1  0.77753000  0.75000000  0.03828400  1
  O  O8  1  0.84614600  0.44781100  0.76284900  1
  O  O9  1  0.74035600  0.75000000  0.43508300  1
loop_
_geom_bond_atom_site_label_1
_geom_bond_atom_site_label_2
_geom_bond_distance
_geom_bond_site_symmetry_2
Na0 O6 2.176196 1_555
Na0 O2 2.266381 1_555
Na0 O0 2.339930 1_555
Na0 O9 2.430001 1_545
Na1 O3 2.277770 1_554
Na1 O6 2.310034 1_554
Na1 O7 2.337724 1_545
Na1 O5 2.525533 1_545
Na1 O0 2.567547 1_555
Na2 O8 2.176196 1_555
Na2 O2 2.266381 1_555
Na2 O0 2.339930 1_555
Na2 O9 2.430001 1_555
Na3 O3 2.277770 1_554
Na3 O8 2.310034 1_554
Na3 O7 2.337724 1_555
Na3 O4 2.525533 1_555
Na3 O0 2.567547 1_555
Mg0 O1 1.947077 1_555
Mg0 O9 1.967075 1_555
Mg0 O5 1.997214 1_555
Mg0 O4 1.997214 1_555
O0 Ti0 1.776017 1_655
O1 Ti1 1.802222 1_455
O2 Si1 1.665011 1_555
O2 Ti0 2.119963 1_555
O3 Si1 1.655916 1_555
O3 Ti0 2.112866 1_556
O4 Si0 1.674358 1_455
O4 Ti0 2.221397 1_555
O5 Si0 1.674358 1_455
O5 Ti0 2.221397 1_565
O6 Si1 1.658761 1_655
O6 Ti1 2.132516 1_545
O7 Si0 1.616179 1_555
O7 Ti1 2.079712 1_554
O8 Si1 1.658761 1_655
O8 Ti1 2.132516 1_555
O9 Si0 1.677359 1_555
O9 Ti1 2.356206 1_555
