# generated using pymatgen
data_Be3As2(H2O5)2
_symmetry_space_group_name_H-M   'P 1'
_cell_length_a   8.66864617
_cell_length_b   8.66864617
_cell_length_c   10.04706434
_cell_angle_alpha   85.64079438
_cell_angle_beta   85.64079438
_cell_angle_gamma   31.82094053
_symmetry_Int_Tables_number   1
_chemical_formula_structural   Be3As2(H2O5)2
_chemical_formula_sum   'Be6 As4 H8 O20'
_cell_volume   396.83601484
_cell_formula_units_Z   2
loop_
 _symmetry_equiv_pos_site_id
 _symmetry_equiv_pos_as_xyz
  1  'x, y, z'
loop_
 _atom_site_type_symbol
 _atom_site_label
 _atom_site_symmetry_multiplicity
 _atom_site_fract_x
 _atom_site_fract_y
 _atom_site_fract_z
 _atom_site_occupancy
  Be  Be0  1  0.70169600  0.79254100  0.33887300  1
  Be  Be1  1  0.20745900  0.29830400  0.16112700  1
  Be  Be2  1  0.29830400  0.20745900  0.66112700  1
  Be  Be3  1  0.79254100  0.70169600  0.83887300  1
  Be  Be4  1  0.68316900  0.31683100  0.75000000  1
  Be  Be5  1  0.31683100  0.68316900  0.25000000  1
  As  As0  1  0.38651000  0.30246500  0.89875700  1
  As  As1  1  0.30246500  0.38651000  0.39875700  1
  As  As2  1  0.61349000  0.69753500  0.10124300  1
  As  As3  1  0.69753500  0.61349000  0.60124300  1
  H  H0  1  0.90694900  0.27783800  0.89628600  1
  H  H1  1  0.95583000  0.14667300  0.33757200  1
  H  H2  1  0.85332700  0.04417000  0.16242800  1
  H  H3  1  0.04417000  0.85332700  0.66242800  1
  H  H4  1  0.14667300  0.95583000  0.83757200  1
  H  H5  1  0.27783800  0.90694900  0.39628600  1
  H  H6  1  0.09305100  0.72216200  0.10371400  1
  H  H7  1  0.72216200  0.09305100  0.60371400  1
  O  O0  1  0.24776600  0.42075600  0.05833700  1
  O  O1  1  0.42075600  0.24776600  0.55833700  1
  O  O2  1  0.75223400  0.57924400  0.94166300  1
  O  O3  1  0.57924400  0.75223400  0.44166300  1
  O  O4  1  0.58967000  0.53238900  0.16850200  1
  O  O5  1  0.28903900  0.06874500  0.10164700  1
  O  O6  1  0.41033000  0.46761100  0.83149800  1
  O  O7  1  0.53238900  0.58967000  0.66850200  1
  O  O8  1  0.84844600  0.59720200  0.20244900  1
  O  O9  1  0.40279800  0.15155400  0.29755100  1
  O  O10  1  0.15155400  0.40279800  0.79755100  1
  O  O11  1  0.59720200  0.84844600  0.70244900  1
  O  O12  1  0.46761100  0.41033000  0.33149800  1
  O  O13  1  0.93125500  0.71096100  0.39835300  1
  O  O14  1  0.71096100  0.93125500  0.89835300  1
  O  O15  1  0.06874500  0.28903900  0.60164700  1
  O  O16  1  0.84861300  0.06137800  0.64641600  1
  O  O17  1  0.06137800  0.84861300  0.14641600  1
  O  O18  1  0.15138700  0.93862200  0.35358400  1
  O  O19  1  0.93862200  0.15138700  0.85358400  1
loop_
_geom_bond_atom_site_label_1
_geom_bond_atom_site_label_2
_geom_bond_distance
_geom_bond_site_symmetry_2
Be0 O13 1.594430 1_555
Be0 O3 1.650513 1_555
Be0 O8 1.670752 1_555
Be0 O9 1.683743 1_565
Be1 O5 1.594430 1_555
Be1 O0 1.650513 1_555
Be1 O9 1.670752 1_555
Be1 O8 1.683743 1_455
Be2 O15 1.594430 1_555
Be2 O1 1.650513 1_555
Be2 O10 1.670752 1_555
Be2 O11 1.683743 1_545
Be3 O14 1.594430 1_555
Be3 O2 1.650513 1_555
Be3 O11 1.670752 1_555
Be3 O10 1.683743 1_655
Be4 O7 1.608592 1_555
Be4 O6 1.608592 1_555
Be4 O19 1.664332 1_555
Be4 O16 1.664332 1_555
Be5 O4 1.608592 1_555
Be5 O12 1.608592 1_555
Be5 O18 1.664332 1_555
Be5 O17 1.664332 1_555
As0 O6 1.697886 1_555
As0 O14 1.698569 1_545
As0 O0 1.711595 1_556
As0 O10 1.763153 1_555
As1 O12 1.697886 1_555
As1 O13 1.698569 1_455
As1 O1 1.711595 1_555
As1 O9 1.763153 1_555
As2 O4 1.697886 1_555
As2 O5 1.698569 1_565
As2 O2 1.711595 1_554
As2 O8 1.763153 1_555
As3 O7 1.697886 1_555
As3 O15 1.698569 1_655
As3 O3 1.711595 1_555
As3 O11 1.763153 1_555
H0 O19 1.001570 1_555
H0 O2 1.722305 1_555
H1 O18 0.976730 1_645
H2 O17 0.976730 1_645
H3 O16 0.976730 1_465
H4 O19 0.976730 1_465
H5 O18 1.001570 1_555
H5 O3 1.722305 1_555
H6 O17 1.001570 1_555
H6 O0 1.722305 1_555
H7 O16 1.001570 1_555
H7 O1 1.722305 1_555
