# generated using pymatgen
data_MgTi2(NiO3)2
_symmetry_space_group_name_H-M   'P 1'
_cell_length_a   5.95113957
_cell_length_b   5.67209096
_cell_length_c   5.99048711
_cell_angle_alpha   51.85307355
_cell_angle_beta   50.13035401
_cell_angle_gamma   52.11826077
_symmetry_Int_Tables_number   1
_chemical_formula_structural   MgTi2(NiO3)2
_chemical_formula_sum   'Mg1 Ti2 Ni2 O6'
_cell_volume   113.80790915
_cell_formula_units_Z   1
loop_
 _symmetry_equiv_pos_site_id
 _symmetry_equiv_pos_as_xyz
  1  'x, y, z'
loop_
 _atom_site_type_symbol
 _atom_site_label
 _atom_site_symmetry_multiplicity
 _atom_site_fract_x
 _atom_site_fract_y
 _atom_site_fract_z
 _atom_site_occupancy
  Mg  Mg0  1  0.00009800  0.99949200  0.00060900  1
  Ti  Ti0  1  0.21189900  0.15333200  0.15583600  1
  Ti  Ti1  1  0.79014600  0.84679500  0.84270800  1
  Ni  Ni0  1  0.64870600  0.64471000  0.64249900  1
  Ni  Ni1  1  0.35173500  0.35334300  0.36043500  1
  O  O0  1  0.95321600  0.21069400  0.59207200  1
  O  O1  1  0.58577200  0.93952700  0.23669600  1
  O  O2  1  0.22706800  0.57399700  0.94274400  1
  O  O3  1  0.04627000  0.78999800  0.40817800  1
  O  O4  1  0.41380900  0.06048000  0.76423800  1
  O  O5  1  0.77128100  0.42763400  0.05398600  1
loop_
_geom_bond_atom_site_label_1
_geom_bond_atom_site_label_2
_geom_bond_distance
_geom_bond_site_symmetry_2
Mg0 O4 2.039010 1_564
Mg0 O1 2.039702 1_455
Mg0 O5 2.047901 1_465
Mg0 O2 2.049186 1_554
Mg0 O3 2.079352 1_555
Mg0 O0 2.084592 1_464
Ni0 O0 2.042989 1_555
Ni0 O1 2.054860 1_555
Ni0 O2 2.061709 1_555
Ni0 O4 2.194667 1_565
Ni0 O3 2.225922 1_655
Ni0 O5 2.361634 1_556
Ni1 O4 2.043373 1_555
Ni1 O3 2.049382 1_555
Ni1 O5 2.059486 1_555
Ni1 O1 2.193096 1_545
Ni1 O0 2.226021 1_455
Ni1 O2 2.397654 1_554
O0 Ti1 2.054222 1_545
O0 Ti0 2.140645 1_655
O1 Ti0 1.999563 1_565
O1 Ti1 2.096191 1_554
O2 Ti0 1.919623 1_556
O2 Ti1 2.329293 1_455
O3 Ti0 2.059032 1_565
O3 Ti1 2.132835 1_455
O4 Ti1 2.004564 1_545
O4 Ti0 2.087933 1_556
O5 Ti1 1.922331 1_554
O5 Ti0 2.353094 1_655
