# generated using pymatgen
data_MgCd2(FeO2)4
_symmetry_space_group_name_H-M   'P 1'
_cell_length_a   6.07891197
_cell_length_b   6.97138053
_cell_length_c   7.17964649
_cell_angle_alpha   51.00652755
_cell_angle_beta   66.80698201
_cell_angle_gamma   66.12123697
_symmetry_Int_Tables_number   1
_chemical_formula_structural   MgCd2(FeO2)4
_chemical_formula_sum   'Mg1 Cd2 Fe4 O8'
_cell_volume   212.05306755
_cell_formula_units_Z   1
loop_
 _symmetry_equiv_pos_site_id
 _symmetry_equiv_pos_as_xyz
  1  'x, y, z'
loop_
 _atom_site_type_symbol
 _atom_site_label
 _atom_site_symmetry_multiplicity
 _atom_site_fract_x
 _atom_site_fract_y
 _atom_site_fract_z
 _atom_site_occupancy
  Mg  Mg0  1  0.36347291  0.41182783  0.33866599  1
  Cd  Cd0  1  0.10262522  0.15438127  0.09728900  1
  Cd  Cd1  1  0.89819254  0.84297239  0.90912764  1
  Fe  Fe0  1  0.51517061  0.94740378  0.48049385  1
  Fe  Fe1  1  0.95427378  0.57066681  0.54803524  1
  Fe  Fe2  1  0.55805900  0.42379490  0.94831182  1
  Fe  Fe3  1  0.47670309  0.53485313  0.54849795  1
  O  O0  1  0.75128874  0.72063612  0.72933889  1
  O  O1  1  0.24808385  0.29899766  0.69051243  1
  O  O2  1  0.21973110  0.74164182  0.28953390  1
  O  O3  1  0.70480117  0.28294770  0.22326673  1
  O  O4  1  0.75289900  0.27438906  0.76634701  1
  O  O5  1  0.28897890  0.69733589  0.76367747  1
  O  O6  1  0.29729925  0.24047403  0.23419949  1
  O  O7  1  0.74342082  0.73267761  0.30770258  1
loop_
_geom_bond_atom_site_label_1
_geom_bond_atom_site_label_2
_geom_bond_distance
_geom_bond_site_symmetry_2
Mg0 O2 1.941665 1_555
Mg0 O3 1.967833 1_555
Mg0 O6 1.976259 1_555
Mg0 O1 2.010599 1_555
Cd0 O2 2.192876 1_545
Cd0 O6 2.227247 1_555
Cd0 O3 2.238806 1_455
Cd0 O1 2.304330 1_554
Cd1 O5 2.278646 1_655
Cd1 O7 2.315453 1_556
Cd1 O4 2.357753 1_565
Cd1 O0 2.470025 1_555
Fe0 O6 2.040246 1_565
Fe0 O5 2.083666 1_555
Fe0 O0 2.092786 1_555
Fe0 O7 2.237125 1_555
Fe0 O3 2.298048 1_565
Fe1 O0 1.926948 1_555
Fe1 O2 1.970669 1_655
Fe1 O7 2.003334 1_555
Fe1 O1 2.021299 1_655
Fe1 O4 2.164016 1_555
Fe2 O4 1.920774 1_555
Fe2 O3 1.973677 1_556
Fe2 O5 2.017570 1_555
Fe2 O6 2.033512 1_556
Fe2 O0 2.133754 1_555
Fe3 O7 2.030159 1_555
Fe3 O1 2.073319 1_555
Fe3 O4 2.142081 1_555
Fe3 O5 2.176969 1_555
Fe3 O2 2.250928 1_555
