# generated using pymatgen
data_MgZn2(FeO2)4
_symmetry_space_group_name_H-M   'P 1'
_cell_length_a   5.98128464
_cell_length_b   6.00039581
_cell_length_c   6.31994103
_cell_angle_alpha   61.65888871
_cell_angle_beta   61.97627209
_cell_angle_gamma   59.89419624
_symmetry_Int_Tables_number   1
_chemical_formula_structural   MgZn2(FeO2)4
_chemical_formula_sum   'Mg1 Zn2 Fe4 O8'
_cell_volume   164.51282253
_cell_formula_units_Z   1
loop_
 _symmetry_equiv_pos_site_id
 _symmetry_equiv_pos_as_xyz
  1  'x, y, z'
loop_
 _atom_site_type_symbol
 _atom_site_label
 _atom_site_symmetry_multiplicity
 _atom_site_fract_x
 _atom_site_fract_y
 _atom_site_fract_z
 _atom_site_occupancy
  Mg  Mg0  1  0.11840800  0.11905600  0.64347900  1
  Zn  Zn0  1  0.96773600  0.96580000  0.10066400  1
  Zn  Zn1  1  0.12309900  0.62460500  0.62768900  1
  Fe  Fe0  1  0.27550300  0.27936000  0.16577600  1
  Fe  Fe1  1  0.62449800  0.12693900  0.62307700  1
  Fe  Fe2  1  0.62866800  0.63190700  0.10751400  1
  Fe  Fe3  1  0.62449900  0.62548600  0.62307700  1
  O  O0  1  0.37959300  0.37689400  0.35403700  1
  O  O1  1  0.39477300  0.39576300  0.81370300  1
  O  O2  1  0.37959300  0.88947700  0.35403700  1
  O  O3  1  0.88953800  0.37686800  0.35672400  1
  O  O4  1  0.37153300  0.87169100  0.88508600  1
  O  O5  1  0.87235600  0.37118100  0.88554000  1
  O  O6  1  0.85285200  0.84904700  0.44905200  1
  O  O7  1  0.87235600  0.87092300  0.88554100  1
loop_
_geom_bond_atom_site_label_1
_geom_bond_atom_site_label_2
_geom_bond_distance
_geom_bond_site_symmetry_2
Mg0 O4 2.143129 1_545
Mg0 O7 2.154785 1_445
Mg0 O5 2.154789 1_455
Mg0 O3 2.257523 1_455
Mg0 O2 2.287501 1_545
Mg0 O0 2.287509 1_555
Fe0 O1 1.865604 1_554
Fe0 O3 1.955913 1_455
Fe0 O2 1.966832 1_545
Fe0 O0 1.966842 1_555
Fe1 O6 1.974951 1_545
Fe1 O1 2.001849 1_555
Fe1 O7 2.217191 1_545
Fe1 O4 2.222528 1_545
Fe1 O0 2.236404 1_555
Fe1 O3 2.253078 1_555
Fe2 O4 2.074368 1_554
Fe2 O5 2.101144 1_554
Fe2 O7 2.101161 1_554
Fe2 O0 2.197877 1_555
Fe2 O2 2.197898 1_555
Fe2 O3 2.209655 1_555
Fe3 O6 1.974938 1_555
Fe3 O1 2.001845 1_555
Fe3 O5 2.217182 1_555
Fe3 O4 2.222532 1_555
Fe3 O2 2.236408 1_555
Fe3 O3 2.253085 1_555
O0 Zn1 2.283373 1_555
O1 Zn1 1.982933 1_555
O2 Zn1 2.283385 1_555
O4 Zn0 2.068473 1_456
O5 Zn0 2.070633 1_546
O5 Zn1 2.203593 1_655
O6 Zn0 1.845965 1_555
O6 Zn1 1.946410 1_655
O7 Zn0 2.070629 1_556
O7 Zn1 2.203605 1_655
