# generated using pymatgen
data_Na3CaTi(PO4)3
_symmetry_space_group_name_H-M   'P 1'
_cell_length_a   9.15847749
_cell_length_b   9.20392696
_cell_length_c   21.97336631
_cell_angle_alpha   89.99999999
_cell_angle_beta   90.00067667
_cell_angle_gamma   120.16429861
_symmetry_Int_Tables_number   1
_chemical_formula_structural   Na3CaTi(PO4)3
_chemical_formula_sum   'Na18 Ca6 Ti6 P18 O72'
_cell_volume   1601.40905579
_cell_formula_units_Z   6
loop_
 _symmetry_equiv_pos_site_id
 _symmetry_equiv_pos_as_xyz
  1  'x, y, z'
loop_
 _atom_site_type_symbol
 _atom_site_label
 _atom_site_symmetry_multiplicity
 _atom_site_fract_x
 _atom_site_fract_y
 _atom_site_fract_z
 _atom_site_occupancy
  Na  Na0  1  0.98350790  0.96522963  0.49951683  1
  Na  Na1  1  0.98350790  0.01827827  0.99951683  1
  Na  Na2  1  0.66697989  0.33911054  0.83280927  1
  Na  Na3  1  0.66697989  0.32786836  0.33280927  1
  Na  Na4  1  0.32606072  0.66293404  0.16611871  1
  Na  Na5  1  0.32606072  0.66312768  0.66611871  1
  Na  Na6  1  0.36722040  0.35096464  0.24517721  1
  Na  Na7  1  0.98753589  0.64351060  0.24617568  1
  Na  Na8  1  0.98753589  0.34402530  0.74617568  1
  Na  Na9  1  0.36722040  0.01625575  0.74517721  1
  Na  Na10  1  0.31824526  0.34325314  0.57904551  1
  Na  Na11  1  0.65419598  0.96946661  0.57897944  1
  Na  Na12  1  0.31824526  0.97499112  0.07904551  1
  Na  Na13  1  0.65419598  0.68472837  0.07897944  1
  Na  Na14  1  0.98872252  0.68043108  0.91283670  1
  Na  Na15  1  0.31748526  0.29671949  0.91276543  1
  Na  Na16  1  0.98872252  0.30829244  0.41283670  1
  Na  Na17  1  0.31748526  0.02076677  0.41276543  1
  Ca  Ca0  1  0.98991074  0.99687508  0.35067559  1
  Ca  Ca1  1  0.98991074  0.99303566  0.85067559  1
  Ca  Ca2  1  0.67270695  0.34515893  0.68411675  1
  Ca  Ca3  1  0.67270695  0.32754702  0.18411675  1
  Ca  Ca4  1  0.32918232  0.66123719  0.01794268  1
  Ca  Ca5  1  0.32918232  0.66794613  0.51794268  1
  Ti  Ti0  1  0.99458095  0.98984641  0.65080594  1
  Ti  Ti1  1  0.99458095  0.00473455  0.15080594  1
  Ti  Ti2  1  0.67205585  0.32360268  0.98370046  1
  Ti  Ti3  1  0.67205585  0.34845217  0.48370046  1
  Ti  Ti4  1  0.34595893  0.67334668  0.31735470  1
  Ti  Ti5  1  0.34595893  0.67261325  0.81735470  1
  P  P0  1  0.28774066  0.98388858  0.25205355  1
  P  P1  1  0.69291809  0.71034037  0.24802540  1
  P  P2  1  0.01904054  0.31005686  0.25347134  1
  P  P3  1  0.28774066  0.30385209  0.75205355  1
  P  P4  1  0.01904054  0.70898368  0.75347134  1
  P  P5  1  0.69291809  0.98257772  0.74802540  1
  P  P6  1  0.95791062  0.31464362  0.58484953  1
  P  P7  1  0.36253458  0.04764312  0.58547106  1
  P  P8  1  0.68349470  0.64115727  0.58394017  1
  P  P9  1  0.95791062  0.64326600  0.08484953  1
  P  P10  1  0.68349470  0.04233643  0.08394017  1
  P  P11  1  0.36253458  0.31489047  0.08547106  1
  P  P12  1  0.62449300  0.64771674  0.92065002  1
  P  P13  1  0.02885206  0.37786348  0.91455423  1
  P  P14  1  0.35350059  0.97416816  0.91804238  1
  P  P15  1  0.62449300  0.97677726  0.42065002  1
  P  P16  1  0.35350059  0.37933344  0.41804238  1
  P  P17  1  0.02885206  0.65098957  0.41455423  1
  O  O0  1  0.21432833  0.00130161  0.31138973  1
  O  O1  1  0.80430456  0.78236054  0.30283335  1
  O  O2  1  0.00494320  0.22680875  0.31407425  1
  O  O3  1  0.21432833  0.21302672  0.81138973  1
  O  O4  1  0.00494320  0.77813445  0.81407425  1
  O  O5  1  0.80430456  0.02194401  0.80283335  1
  O  O6  1  0.78897278  0.96417838  0.68980984  1
  O  O7  1  0.15945570  0.19414589  0.69722307  1
  O  O8  1  0.02170578  0.83433103  0.70064294  1
  O  O9  1  0.78897278  0.82479440  0.18980984  1
  O  O10  1  0.02170578  0.18737475  0.20064294  1
  O  O11  1  0.15945570  0.96530980  0.19722307  1
  O  O12  1  0.88454706  0.32727736  0.64485837  1
  O  O13  1  0.45390675  0.12127886  0.64463129  1
  O  O14  1  0.64343194  0.53424005  0.63970064  1
  O  O15  1  0.88454706  0.55726870  0.14485837  1
  O  O16  1  0.64343194  0.10919089  0.13970064  1
  O  O17  1  0.45390675  0.33262689  0.14463129  1
  O  O18  1  0.46962277  0.29429042  0.03063789  1
  O  O19  1  0.83720611  0.52770923  0.02994970  1
  O  O20  1  0.69949614  0.16309168  0.02748865  1
  O  O21  1  0.46962277  0.17533134  0.53063789  1
  O  O22  1  0.69949614  0.53640346  0.52748865  1
  O  O23  1  0.83720611  0.30949589  0.52994970  1
  O  O24  1  0.55342547  0.66259370  0.98050679  1
  O  O25  1  0.13072135  0.45691293  0.97095245  1
  O  O26  1  0.32584834  0.87836133  0.97690195  1
  O  O27  1  0.55342547  0.89083277  0.48050679  1
  O  O28  1  0.32584834  0.44748801  0.47690195  1
  O  O29  1  0.13072135  0.67380941  0.47095245  1
  O  O30  1  0.12934754  0.63063211  0.35759148  1
  O  O31  1  0.49758807  0.85562704  0.36707808  1
  O  O32  1  0.36517779  0.49786000  0.36212275  1
  O  O33  1  0.12934754  0.49871643  0.85759148  1
  O  O34  1  0.36517779  0.86731878  0.86212275  1
  O  O35  1  0.49758807  0.64196203  0.86707808  1
  O  O36  1  0.00171359  0.80008500  0.40903398  1
  O  O37  1  0.80515529  0.01456352  0.41325836  1
  O  O38  1  0.20473432  0.20032735  0.41011554  1
  O  O39  1  0.00171359  0.20162859  0.90903398  1
  O  O40  1  0.20473432  0.00440697  0.91011554  1
  O  O41  1  0.80515529  0.79059177  0.91325836  1
  O  O42  1  0.95366429  0.14073788  0.58186581  1
  O  O43  1  0.18757163  0.04254144  0.58626997  1
  O  O44  1  0.85466090  0.81095945  0.58790733  1
  O  O45  1  0.95366429  0.81292641  0.08186581  1
  O  O46  1  0.85466090  0.04370145  0.08790733  1
  O  O47  1  0.18757163  0.14503020  0.08626997  1
  O  O48  1  0.65499369  0.12565694  0.74052746  1
  O  O49  1  0.46158025  0.32246454  0.74479846  1
  O  O50  1  0.87745663  0.52797659  0.74650384  1
  O  O51  1  0.65499369  0.52933575  0.24052746  1
  O  O52  1  0.87745663  0.34947904  0.24650384  1
  O  O53  1  0.46158025  0.13911471  0.24479846  1
  O  O54  1  0.61722835  0.47375627  0.91670374  1
  O  O55  1  0.85630884  0.37908094  0.91822456  1
  O  O56  1  0.52130578  0.14928176  0.91997689  1
  O  O57  1  0.61722835  0.14347108  0.41670374  1
  O  O58  1  0.52130578  0.37202302  0.41997689  1
  O  O59  1  0.85630884  0.47722689  0.41822456  1
  O  O60  1  0.34294721  0.46840971  0.07784855  1
  O  O61  1  0.14077070  0.68337050  0.07942669  1
  O  O62  1  0.53994851  0.86223593  0.07473680  1
  O  O63  1  0.34294721  0.87453849  0.57784855  1
  O  O64  1  0.53994851  0.67771358  0.57473680  1
  O  O65  1  0.14077070  0.45740120  0.57942669  1
  O  O66  1  0.29106824  0.81441693  0.25147711  1
  O  O67  1  0.51969746  0.70689896  0.25494850  1
  O  O68  1  0.19503022  0.47656681  0.24890462  1
  O  O69  1  0.29106824  0.47665231  0.75147711  1
  O  O70  1  0.19503022  0.71846441  0.74890462  1
  O  O71  1  0.51969746  0.81279950  0.75494850  1
loop_
_geom_bond_atom_site_label_1
_geom_bond_atom_site_label_2
_geom_bond_distance
_geom_bond_site_symmetry_2
Na0 O44 2.344586 1_555
Na0 O43 2.509271 1_665
Na0 O42 2.530229 1_565
Na0 O36 2.558482 1_655
Na0 O37 2.685534 1_565
Na0 O38 2.870622 1_665
Na1 O46 2.344586 1_556
Na1 O47 2.509271 1_656
Na1 O45 2.530229 1_546
Na1 O39 2.558482 1_655
Na1 O41 2.685534 1_545
Na1 O40 2.870622 1_655
Na2 O54 2.389390 1_555
Na2 O55 2.454270 1_555
Na2 O56 2.481672 1_555
Na2 O50 2.639425 1_555
Na2 O49 2.648096 1_555
Na2 O48 2.786888 1_555
Na3 O57 2.389390 1_555
Na3 O59 2.454270 1_555
Na3 O58 2.481672 1_555
Na3 O52 2.639425 1_555
Na3 O53 2.648096 1_555
Na3 O51 2.786888 1_555
Na4 O68 2.371255 1_555
Na4 O66 2.452259 1_555
Na4 O67 2.529302 1_555
Na4 O61 2.620020 1_555
Na4 O60 2.696238 1_555
Na4 O62 2.760979 1_555
Na5 O70 2.371255 1_555
Na5 O69 2.452259 1_555
Na5 O71 2.529302 1_555
Na5 O65 2.620020 1_555
Na5 O63 2.696238 1_555
Na5 O64 2.760979 1_555
Na6 O51 2.302945 1_555
Na6 O68 2.379530 1_555
Na6 O17 2.382150 1_555
Na6 O53 2.498445 1_555
Na6 O67 2.851461 1_555
Na6 O10 2.906845 1_555
Na6 O32 2.908093 1_555
Na7 O52 2.366080 1_555
Na7 O15 2.392405 1_555
Na7 O66 2.412723 1_655
Na7 O51 2.679347 1_555
Na7 O11 2.778841 1_655
Na7 O30 2.801624 1_655
Na7 O1 2.855604 1_555
Na8 O50 2.366071 1_555
Na8 O12 2.392403 1_555
Na8 O69 2.412722 1_655
Na8 O48 2.679349 1_555
Na8 O7 2.778841 1_655
Na8 O33 2.801627 1_655
Na8 O5 2.855604 1_555
Na9 O48 2.302947 1_555
Na9 O70 2.379523 1_545
Na9 O13 2.382148 1_555
Na9 O49 2.498436 1_555
Na9 O71 2.851453 1_545
Na9 O8 2.906845 1_545
Na9 O34 2.908088 1_545
Na10 O65 2.337071 1_555
Na10 O43 2.406036 1_555
Na10 O28 2.428088 1_555
Na10 O64 2.706749 1_555
Na10 O21 2.756005 1_555
Na10 O42 2.893525 1_455
Na10 O14 2.911153 1_555
Na10 O7 2.955647 1_555
Na11 O27 2.320813 1_555
Na11 O64 2.343195 1_555
Na11 O42 2.380398 1_565
Na11 O63 2.527207 1_555
Na11 O6 2.741727 1_555
Na11 O44 2.868676 1_555
Na11 O23 2.914257 1_565
Na12 O61 2.337056 1_555
Na12 O47 2.406045 1_565
Na12 O26 2.428081 1_554
Na12 O62 2.706735 1_555
Na12 O18 2.756004 1_565
Na12 O45 2.893526 1_455
Na12 O16 2.911153 1_565
Na12 O11 2.955649 1_555
Na13 O24 2.320815 1_554
Na13 O62 2.343212 1_555
Na13 O45 2.380397 1_555
Na13 O60 2.527203 1_555
Na13 O9 2.741729 1_555
Na13 O46 2.868683 1_565
Na13 O19 2.914257 1_555
Na14 O4 2.325082 1_655
Na14 O41 2.359569 1_555
Na14 O55 2.407758 1_555
Na14 O40 2.623061 1_665
Na14 O33 2.845046 1_655
Na14 O19 2.926345 1_556
Na14 O54 2.949131 1_555
Na14 O26 3.029969 1_655
Na15 O40 2.348636 1_555
Na15 O54 2.388159 1_555
Na15 O3 2.390936 1_555
Na15 O39 2.567615 1_555
Na15 O56 2.810117 1_555
Na16 O2 2.325085 1_655
Na16 O37 2.359576 1_555
Na16 O59 2.407741 1_555
Na16 O38 2.623068 1_655
Na16 O30 2.845046 1_655
Na16 O23 2.926341 1_555
Na16 O57 2.949130 1_555
Na16 O28 3.029969 1_655
Na17 O38 2.348628 1_555
Na17 O57 2.388161 1_555
Na17 O0 2.390934 1_555
Na17 O36 2.567617 1_545
Na17 O58 2.810102 1_555
Ca0 O1 2.126024 1_555
Ca0 O2 2.202651 1_665
Ca0 O0 2.210677 1_665
Ca0 O37 2.248907 1_565
Ca0 O36 2.265703 1_655
Ca0 O38 2.319640 1_665
Ca1 O5 2.126024 1_565
Ca1 O4 2.202651 1_655
Ca1 O3 2.210677 1_665
Ca1 O41 2.248907 1_555
Ca1 O39 2.265703 1_665
Ca1 O40 2.319640 1_665
Ca2 O14 2.126480 1_555
Ca2 O12 2.203697 1_555
Ca2 O13 2.205584 1_555
Ca2 O50 2.248528 1_555
Ca2 O49 2.270355 1_555
Ca2 O48 2.305413 1_555
Ca3 O16 2.126480 1_555
Ca3 O15 2.203697 1_555
Ca3 O17 2.205584 1_555
Ca3 O52 2.248528 1_555
Ca3 O53 2.270355 1_555
Ca3 O51 2.305413 1_555
Ca4 O25 2.114530 1_554
Ca4 O24 2.206553 1_554
Ca4 O26 2.206600 1_554
Ca4 O62 2.262096 1_555
Ca4 O60 2.263466 1_555
Ca4 O61 2.279829 1_555
Ca5 O29 2.114530 1_555
Ca5 O27 2.206553 1_555
Ca5 O28 2.206600 1_555
Ca5 O64 2.262096 1_555
Ca5 O63 2.263466 1_555
Ca5 O65 2.279829 1_555
O0 P0 1.511946 1_545
O1 P1 1.500280 1_555
O2 P2 1.509180 1_555
O3 P3 1.511946 1_555
O4 P4 1.509180 1_555
O5 P5 1.500280 1_545
O6 P5 1.608928 1_555
O6 Ti0 1.972109 1_555
O7 P3 1.630721 1_555
O7 Ti0 2.000664 1_445
O8 P4 1.628124 1_555
O8 Ti0 1.914950 1_455
O9 P1 1.608928 1_555
O9 Ti1 1.972109 1_565
O10 P2 1.628124 1_555
O10 Ti1 1.914950 1_455
O11 P0 1.630721 1_555
O11 Ti1 2.000665 1_465
O12 P6 1.510696 1_555
O13 P7 1.509798 1_555
O14 P8 1.497123 1_555
O15 P9 1.510696 1_555
O16 P10 1.497123 1_555
O17 P11 1.509798 1_555
O18 P11 1.623719 1_555
O18 Ti2 2.017706 1_554
O19 P9 1.620766 1_555
O19 Ti2 1.998507 1_554
O20 P10 1.622258 1_555
O20 Ti2 1.882698 1_554
O21 P7 1.623719 1_555
O21 Ti3 2.017706 1_555
O22 P8 1.622258 1_555
O22 Ti3 1.882698 1_555
O23 P6 1.620766 1_555
O23 Ti3 1.998507 1_555
O24 P12 1.503948 1_555
O25 P13 1.501117 1_555
O26 P14 1.513283 1_555
O27 P15 1.503948 1_555
O28 P16 1.513282 1_555
O29 P17 1.501117 1_555
O30 P17 1.619325 1_555
O30 Ti4 2.021902 1_555
O31 P15 1.636289 1_555
O31 Ti4 1.896175 1_555
O32 P16 1.610617 1_555
O32 Ti4 1.973099 1_555
O33 P13 1.619325 1_555
O33 Ti5 2.021902 1_555
O34 P14 1.610617 1_555
O34 Ti5 1.973099 1_555
O35 P12 1.636289 1_555
O35 Ti5 1.896175 1_555
O36 P17 1.517353 1_555
O37 P15 1.518789 1_545
O38 P16 1.531411 1_555
O39 P13 1.517362 1_555
O40 P14 1.531406 1_545
O41 P12 1.518786 1_555
O42 P6 1.582790 1_555
O42 Ti0 2.210641 1_545
O43 P7 1.579420 1_555
O43 Ti0 2.123389 1_445
O44 P8 1.563782 1_555
O44 Ti0 2.035380 1_555
O45 P9 1.582799 1_555
O45 Ti1 2.210641 1_565
O46 P10 1.563777 1_555
O46 Ti1 2.035380 1_555
O47 P11 1.579415 1_555
O47 Ti1 2.123389 1_455
O48 P5 1.530244 1_545
O49 P3 1.521668 1_555
O50 P4 1.519652 1_655
O51 P1 1.530253 1_555
O52 P2 1.519646 1_655
O53 P0 1.521664 1_545
O54 P12 1.571138 1_555
O54 Ti2 2.242021 1_555
O55 P13 1.587944 1_655
O55 Ti2 2.076624 1_555
O56 P14 1.572291 1_545
O56 Ti2 2.053002 1_555
O57 P15 1.571119 1_545
O57 Ti3 2.242021 1_555
O58 P16 1.572300 1_555
O58 Ti3 2.053002 1_555
O59 P17 1.587953 1_655
O59 Ti3 2.076624 1_555
O60 P11 1.520355 1_555
O61 P9 1.527711 1_455
O62 P10 1.525428 1_565
O63 P7 1.520337 1_565
O64 P8 1.525441 1_555
O65 P6 1.527717 1_455
O66 P0 1.575389 1_555
O66 Ti4 2.165623 1_555
O67 P1 1.578111 1_555
O67 Ti4 2.003459 1_555
O68 P2 1.572974 1_555
O68 Ti4 2.221985 1_555
O69 P3 1.575398 1_555
O69 Ti5 2.165623 1_555
O70 P4 1.572970 1_555
O70 Ti5 2.221985 1_555
O71 P5 1.578107 1_555
O71 Ti5 2.003459 1_555
