# generated using pymatgen
data_K3GeTe3
_symmetry_space_group_name_H-M   'P 1'
_cell_length_a   10.58248872
_cell_length_b   10.58192556
_cell_length_c   9.74556454
_cell_angle_alpha   85.74549152
_cell_angle_beta   85.74528915
_cell_angle_gamma   80.99374954
_symmetry_Int_Tables_number   1
_chemical_formula_structural   K3GeTe3
_chemical_formula_sum   'K12 Ge4 Te12'
_cell_volume   1072.74188936
_cell_formula_units_Z   4
loop_
 _symmetry_equiv_pos_site_id
 _symmetry_equiv_pos_as_xyz
  1  'x, y, z'
loop_
 _atom_site_type_symbol
 _atom_site_label
 _atom_site_symmetry_multiplicity
 _atom_site_fract_x
 _atom_site_fract_y
 _atom_site_fract_z
 _atom_site_occupancy
  K  K0  1  0.22462708  0.24753413  0.77424808  1
  K  K1  1  0.75245627  0.77536800  0.72579375  1
  K  K2  1  0.77536544  0.75246148  0.22579031  1
  K  K3  1  0.24753817  0.22462462  0.27424776  1
  K  K4  1  0.81097253  0.36677227  0.86660722  1
  K  K5  1  0.63322694  0.18901686  0.63339719  1
  K  K6  1  0.18902717  0.63323157  0.13339908  1
  K  K7  1  0.36677558  0.81096905  0.36660820  1
  K  K8  1  0.40361427  0.59639203  0.74999290  1
  K  K9  1  0.59637436  0.40360919  0.25003410  1
  K  K10  1  0.09271448  0.90728372  0.75000400  1
  K  K11  1  0.90727617  0.09272354  0.24999700  1
  Ge  Ge0  1  0.56813162  0.07484229  0.03996352  1
  Ge  Ge1  1  0.92522031  0.43177188  0.46005534  1
  Ge  Ge2  1  0.43180133  0.92516876  0.96004547  1
  Ge  Ge3  1  0.07481145  0.56822421  0.53995572  1
  Te  Te0  1  0.56884256  0.05345355  0.30808091  1
  Te  Te1  1  0.94653992  0.43104503  0.19197203  1
  Te  Te2  1  0.43118036  0.94652024  0.69191592  1
  Te  Te3  1  0.05345011  0.56886292  0.80808834  1
  Te  Te4  1  0.47522588  0.30854486  0.96040673  1
  Te  Te5  1  0.69157297  0.52473482  0.53944554  1
  Te  Te6  1  0.52477594  0.69156040  0.03959585  1
  Te  Te7  1  0.30847688  0.47531873  0.46027094  1
  Te  Te8  1  0.80035933  0.02082403  0.93677602  1
  Te  Te9  1  0.97917078  0.19959387  0.56333664  1
  Te  Te10  1  0.19965639  0.97921365  0.06342173  1
  Te  Te11  1  0.02081673  0.80033628  0.43654773  1
loop_
_geom_bond_atom_site_label_1
_geom_bond_atom_site_label_2
_geom_bond_distance
_geom_bond_site_symmetry_2
K0 Te4 3.487811 1_555
K0 Te9 3.548089 1_455
K0 Te3 3.619584 1_555
K0 Te2 3.675188 1_545
K0 Te10 3.874392 1_546
K0 Te7 3.890079 1_555
K1 Te5 3.488632 1_555
K1 Te8 3.548307 1_565
K1 Te2 3.619179 1_555
K1 Te3 3.674794 1_655
K1 Te11 3.875247 1_655
K1 Te6 3.888126 1_556
K2 Te6 3.487538 1_555
K2 Te11 3.546872 1_655
K2 Te1 3.620354 1_555
K2 Te0 3.674766 1_565
K2 Te8 3.873693 1_564
K2 Te5 3.887281 1_555
K3 Te7 3.487497 1_555
K3 Te10 3.546878 1_545
K3 Te0 3.619455 1_555
K3 Te1 3.674390 1_455
K3 Te9 3.874360 1_455
K3 Te4 3.888766 1_554
K4 Te3 3.578105 1_655
K4 Te8 3.691556 1_555
K4 Te5 3.701636 1_555
K4 Te1 3.724998 1_556
K4 Te4 3.736208 1_555
K4 Te9 3.747321 1_555
K5 Te2 3.577911 1_545
K5 Te9 3.691517 1_555
K5 Te4 3.700961 1_555
K5 Te0 3.724889 1_555
K5 Te5 3.736360 1_555
K5 Te8 3.747931 1_555
K6 Te1 3.578928 1_455
K6 Te10 3.691733 1_555
K6 Te7 3.699228 1_555
K6 Te3 3.724887 1_554
K6 Te6 3.736553 1_555
K6 Te11 3.746072 1_555
K7 Te0 3.577964 1_565
K7 Te11 3.691646 1_555
K7 Te6 3.700559 1_555
K7 Te2 3.724820 1_555
K7 Te7 3.735070 1_555
K7 Te10 3.746577 1_555
K8 Te6 3.462192 1_556
K8 Te7 3.462604 1_555
K8 Te4 3.555049 1_555
K8 Te5 3.556832 1_555
K8 Te2 3.759714 1_555
K8 Te3 3.760205 1_555
K9 Te5 3.460517 1_555
K9 Te4 3.461881 1_554
K9 Te7 3.554793 1_555
K9 Te6 3.556018 1_555
K9 Te0 3.759899 1_555
K9 Te1 3.759978 1_555
K10 Te10 3.509595 1_556
K10 Te11 3.509835 1_555
K10 Te9 3.556247 1_465
K10 Te8 3.557196 1_465
K10 Te3 3.667134 1_555
K10 Te2 3.667710 1_555
K11 Te8 3.507631 1_554
K11 Te9 3.508446 1_555
K11 Te11 3.556338 1_645
K11 Te10 3.556420 1_645
K11 Te1 3.666057 1_555
K11 Te0 3.667462 1_555
Ge0 Ge2 2.502342 1_544
Ge0 Te8 2.579986 1_554
Ge0 Te4 2.598265 1_554
Ge0 Te0 2.606426 1_555
Ge1 Ge3 2.502535 1_655
Ge1 Te9 2.579644 1_555
Ge1 Te5 2.597592 1_555
Ge1 Te1 2.606096 1_555
Ge2 Te10 2.579855 1_556
Ge2 Te6 2.597565 1_556
Ge2 Te2 2.606479 1_555
Ge3 Te11 2.579487 1_555
Ge3 Te7 2.598340 1_555
Ge3 Te3 2.606521 1_555
