# generated using pymatgen
data_MgMoW3(Se3S)2
_symmetry_space_group_name_H-M   'P 1'
_cell_length_a   6.56647600
_cell_length_b   6.56674257
_cell_length_c   92.23423207
_cell_angle_alpha   90.00407099
_cell_angle_beta   89.99996263
_cell_angle_gamma   119.99757218
_symmetry_Int_Tables_number   1
_chemical_formula_structural   MgMoW3(Se3S)2
_chemical_formula_sum   'Mg8 Mo8 W24 Se48 S16'
_cell_volume   3444.41715089
_cell_formula_units_Z   8
loop_
 _symmetry_equiv_pos_site_id
 _symmetry_equiv_pos_as_xyz
  1  'x, y, z'
loop_
 _atom_site_type_symbol
 _atom_site_label
 _atom_site_symmetry_multiplicity
 _atom_site_fract_x
 _atom_site_fract_y
 _atom_site_fract_z
 _atom_site_occupancy
  Mg  Mg0_0  1  0.00001650  0.00003800  0.09540350  1
  Mg  Mg0_1  1  0.00001650  0.00003800  0.59540350  1
  Mg  Mg0_2  1  0.00001650  0.50003800  0.09540350  1
  Mg  Mg0_3  1  0.00001650  0.50003800  0.59540350  1
  Mg  Mg0_4  1  0.50001650  0.00003800  0.09540350  1
  Mg  Mg0_5  1  0.50001650  0.00003800  0.59540350  1
  Mg  Mg0_6  1  0.50001650  0.50003800  0.09540350  1
  Mg  Mg0_7  1  0.50001650  0.50003800  0.59540350  1
  Mo  Mo0_0  1  0.33334950  0.16665100  0.14444750  1
  Mo  Mo0_1  1  0.33334950  0.16665100  0.64444750  1
  Mo  Mo0_2  1  0.33334950  0.66665100  0.14444750  1
  Mo  Mo0_3  1  0.33334950  0.66665100  0.64444750  1
  Mo  Mo0_4  1  0.83334950  0.16665100  0.14444750  1
  Mo  Mo0_5  1  0.83334950  0.16665100  0.64444750  1
  Mo  Mo0_6  1  0.83334950  0.66665100  0.14444750  1
  Mo  Mo0_7  1  0.83334950  0.66665100  0.64444750  1
  W  W0_0  1  0.16667850  0.33336950  0.04290900  1
  W  W0_1  1  0.16667850  0.33336950  0.54290900  1
  W  W0_2  1  0.16667850  0.83336950  0.04290900  1
  W  W0_3  1  0.16667850  0.83336950  0.54290900  1
  W  W0_4  1  0.66667850  0.33336950  0.04290900  1
  W  W0_5  1  0.66667850  0.33336950  0.54290900  1
  W  W0_6  1  0.66667850  0.83336950  0.04290900  1
  W  W0_7  1  0.66667850  0.83336950  0.54290900  1
  W  W1_0  1  0.16664250  0.33328600  0.23480150  1
  W  W1_1  1  0.16664250  0.33328600  0.73480150  1
  W  W1_2  1  0.16664250  0.83328600  0.23480150  1
  W  W1_3  1  0.16664250  0.83328600  0.73480150  1
  W  W1_4  1  0.66664250  0.33328600  0.23480150  1
  W  W1_5  1  0.66664250  0.33328600  0.73480150  1
  W  W1_6  1  0.66664250  0.83328600  0.23480150  1
  W  W1_7  1  0.66664250  0.83328600  0.73480150  1
  W  W2_0  1  0.33334000  0.16675650  0.32879550  1
  W  W2_1  1  0.33334000  0.16675650  0.82879550  1
  W  W2_2  1  0.33334000  0.66675650  0.32879550  1
  W  W2_3  1  0.33334000  0.66675650  0.82879550  1
  W  W2_4  1  0.83334000  0.16675650  0.32879550  1
  W  W2_5  1  0.83334000  0.16675650  0.82879550  1
  W  W2_6  1  0.83334000  0.66675650  0.32879550  1
  W  W2_7  1  0.83334000  0.66675650  0.82879550  1
  Se  Se0_0  1  0.16671300  0.33333900  0.16272500  1
  Se  Se0_1  1  0.16671300  0.33333900  0.66272500  1
  Se  Se0_2  1  0.16671300  0.83333900  0.16272500  1
  Se  Se0_3  1  0.16671300  0.83333900  0.66272500  1
  Se  Se0_4  1  0.66671300  0.33333900  0.16272500  1
  Se  Se0_5  1  0.66671300  0.33333900  0.66272500  1
  Se  Se0_6  1  0.66671300  0.83333900  0.16272500  1
  Se  Se0_7  1  0.66671300  0.83333900  0.66272500  1
  Se  Se1_0  1  0.16664400  0.33335050  0.34719500  1
  Se  Se1_1  1  0.16664400  0.33335050  0.84719500  1
  Se  Se1_2  1  0.16664400  0.83335050  0.34719500  1
  Se  Se1_3  1  0.16664400  0.83335050  0.84719500  1
  Se  Se1_4  1  0.66664400  0.33335050  0.34719500  1
  Se  Se1_5  1  0.66664400  0.33335050  0.84719500  1
  Se  Se1_6  1  0.66664400  0.83335050  0.34719500  1
  Se  Se1_7  1  0.66664400  0.83335050  0.84719500  1
  Se  Se2_0  1  0.33332850  0.16664500  0.02450250  1
  Se  Se2_1  1  0.33332850  0.16664500  0.52450250  1
  Se  Se2_2  1  0.33332850  0.66664500  0.02450250  1
  Se  Se2_3  1  0.33332850  0.66664500  0.52450250  1
  Se  Se2_4  1  0.83332850  0.16664500  0.02450250  1
  Se  Se2_5  1  0.83332850  0.16664500  0.52450250  1
  Se  Se2_6  1  0.83332850  0.66664500  0.02450250  1
  Se  Se2_7  1  0.83332850  0.66664500  0.52450250  1
  Se  Se3_0  1  0.33334550  0.16668200  0.06143350  1
  Se  Se3_1  1  0.33334550  0.16668200  0.56143350  1
  Se  Se3_2  1  0.33334550  0.66668200  0.06143350  1
  Se  Se3_3  1  0.33334550  0.66668200  0.56143350  1
  Se  Se3_4  1  0.83334550  0.16668200  0.06143350  1
  Se  Se3_5  1  0.83334550  0.16668200  0.56143350  1
  Se  Se3_6  1  0.83334550  0.66668200  0.06143350  1
  Se  Se3_7  1  0.83334550  0.66668200  0.56143350  1
  Se  Se4_0  1  0.16665950  0.33323900  0.12589250  1
  Se  Se4_1  1  0.16665950  0.33323900  0.62589250  1
  Se  Se4_2  1  0.16665950  0.83323900  0.12589250  1
  Se  Se4_3  1  0.16665950  0.83323900  0.62589250  1
  Se  Se4_4  1  0.66665950  0.33323900  0.12589250  1
  Se  Se4_5  1  0.66665950  0.33323900  0.62589250  1
  Se  Se4_6  1  0.66665950  0.83323900  0.12589250  1
  Se  Se4_7  1  0.66665950  0.83323900  0.62589250  1
  Se  Se5_0  1  0.16663950  0.33332600  0.31041200  1
  Se  Se5_1  1  0.16663950  0.33332600  0.81041200  1
  Se  Se5_2  1  0.16663950  0.83332600  0.31041200  1
  Se  Se5_3  1  0.16663950  0.83332600  0.81041200  1
  Se  Se5_4  1  0.66663950  0.33332600  0.31041200  1
  Se  Se5_5  1  0.66663950  0.33332600  0.81041200  1
  Se  Se5_6  1  0.66663950  0.83332600  0.31041200  1
  Se  Se5_7  1  0.66663950  0.83332600  0.81041200  1
  S  S0_0  1  0.33331450  0.16663850  0.21811500  1
  S  S0_1  1  0.33331450  0.16663850  0.71811500  1
  S  S0_2  1  0.33331450  0.66663850  0.21811500  1
  S  S0_3  1  0.33331450  0.66663850  0.71811500  1
  S  S0_4  1  0.83331450  0.16663850  0.21811500  1
  S  S0_5  1  0.83331450  0.16663850  0.71811500  1
  S  S0_6  1  0.83331450  0.66663850  0.21811500  1
  S  S0_7  1  0.83331450  0.66663850  0.71811500  1
  S  S1_0  1  0.33332900  0.16667850  0.25149200  1
  S  S1_1  1  0.33332900  0.16667850  0.75149200  1
  S  S1_2  1  0.33332900  0.66667850  0.25149200  1
  S  S1_3  1  0.33332900  0.66667850  0.75149200  1
  S  S1_4  1  0.83332900  0.16667850  0.25149200  1
  S  S1_5  1  0.83332900  0.16667850  0.75149200  1
  S  S1_6  1  0.83332900  0.66667850  0.25149200  1
  S  S1_7  1  0.83332900  0.66667850  0.75149200  1
loop_
_geom_bond_atom_site_label_1
_geom_bond_atom_site_label_2
_geom_bond_distance
_geom_bond_site_symmetry_2
Mg0_0 Mg0_4 3.283238 1_555
Mg0_0 Mg0_4 3.283238 1_455
Mg0_0 Mg0_2 3.283371 1_555
Mg0_0 Mg0_2 3.283371 1_545
Mg0_0 Mg0_6 3.283425 1_445
Mg0_0 Mg0_6 3.283425 1_555
Mg0_0 Se4_0 3.390875 1_555
Mg0_0 Se4_6 3.391520 1_445
Mg0_0 Se4_2 3.391774 1_545
Mg0_1 Mg0_5 3.283238 1_455
Mg0_1 Mg0_5 3.283238 1_555
Mg0_1 Mg0_3 3.283371 1_555
Mg0_1 Mg0_3 3.283371 1_545
Mg0_1 Mg0_7 3.283425 1_555
Mg0_1 Mg0_7 3.283425 1_445
Mg0_1 Se4_1 3.390875 1_555
Mg0_1 Se4_7 3.391520 1_445
Mg0_1 Se4_3 3.391774 1_545
Mg0_2 Mg0_6 3.283238 1_455
Mg0_2 Mg0_6 3.283238 1_555
Mg0_2 Mg0_4 3.283425 1_455
Mg0_2 Mg0_4 3.283425 1_565
Mg0_2 Se4_2 3.390875 1_555
Mg0_2 Se4_4 3.391520 1_455
Mg0_2 Se4_0 3.391774 1_555
Mg0_3 Mg0_7 3.283238 1_555
Mg0_3 Mg0_7 3.283238 1_455
Mg0_3 Mg0_5 3.283425 1_455
Mg0_3 Mg0_5 3.283425 1_565
Mg0_3 Se4_3 3.390875 1_555
Mg0_3 Se4_5 3.391520 1_455
Mg0_3 Se4_1 3.391774 1_555
Mg0_4 Mg0_6 3.283371 1_555
Mg0_4 Mg0_6 3.283371 1_545
Mg0_4 Se4_4 3.390875 1_555
Mg0_4 Se4_2 3.391520 1_545
Mg0_4 Se4_6 3.391774 1_545
Mg0_5 Mg0_7 3.283371 1_555
Mg0_5 Mg0_7 3.283371 1_545
Mg0_5 Se4_5 3.390875 1_555
Mg0_5 Se4_3 3.391520 1_545
Mg0_5 Se4_7 3.391774 1_545
Mg0_6 Se4_6 3.390875 1_555
Mg0_6 Se4_0 3.391520 1_555
Mg0_6 Se4_4 3.391774 1_555
Mg0_7 Se4_7 3.390875 1_555
Mg0_7 Se4_1 3.391520 1_555
Mg0_7 Se4_5 3.391774 1_555
Mo0_0 Se0_0 2.536687 1_555
Mo0_0 Se0_2 2.536869 1_545
Mo0_0 Se0_4 2.536877 1_555
Mo0_0 Se4_0 2.553676 1_555
Mo0_0 Se4_4 2.553833 1_555
Mo0_0 Se4_2 2.554166 1_545
Mo0_1 Se0_1 2.536687 1_555
Mo0_1 Se0_3 2.536869 1_545
Mo0_1 Se0_5 2.536877 1_555
Mo0_1 Se4_1 2.553676 1_555
Mo0_1 Se4_5 2.553833 1_555
Mo0_1 Se4_3 2.554166 1_545
Mo0_2 Se0_2 2.536687 1_555
Mo0_2 Se0_0 2.536869 1_555
Mo0_2 Se0_6 2.536877 1_555
Mo0_2 Se4_2 2.553676 1_555
Mo0_2 Se4_6 2.553833 1_555
Mo0_2 Se4_0 2.554166 1_555
Mo0_3 Se0_3 2.536687 1_555
Mo0_3 Se0_1 2.536869 1_555
Mo0_3 Se0_7 2.536877 1_555
Mo0_3 Se4_3 2.553676 1_555
Mo0_3 Se4_7 2.553833 1_555
Mo0_3 Se4_1 2.554166 1_555
Mo0_4 Se0_4 2.536687 1_555
Mo0_4 Se0_6 2.536869 1_545
Mo0_4 Se0_0 2.536877 1_655
Mo0_4 Se4_4 2.553676 1_555
Mo0_4 Se4_0 2.553833 1_655
Mo0_4 Se4_6 2.554166 1_545
Mo0_5 Se0_5 2.536687 1_555
Mo0_5 Se0_7 2.536869 1_545
Mo0_5 Se0_1 2.536877 1_655
Mo0_5 Se4_5 2.553676 1_555
Mo0_5 Se4_1 2.553833 1_655
Mo0_5 Se4_7 2.554166 1_545
Mo0_6 Se0_6 2.536687 1_555
Mo0_6 Se0_4 2.536869 1_555
Mo0_6 Se0_2 2.536877 1_655
Mo0_6 Se4_6 2.553676 1_555
Mo0_6 Se4_2 2.553833 1_655
Mo0_6 Se4_4 2.554166 1_555
Mo0_7 Se0_7 2.536687 1_555
Mo0_7 Se0_5 2.536869 1_555
Mo0_7 Se0_3 2.536877 1_655
Mo0_7 Se4_7 2.553676 1_555
Mo0_7 Se4_3 2.553833 1_655
Mo0_7 Se4_5 2.554166 1_555
Se1_0 W2_0 2.544032 1_555
Se1_0 W2_4 2.544116 1_455
Se1_0 W2_2 2.544760 1_555
Se1_1 W2_1 2.544032 1_555
Se1_1 W2_5 2.544116 1_455
Se1_1 W2_3 2.544760 1_555
Se1_2 W2_2 2.544032 1_555
Se1_2 W2_6 2.544116 1_455
Se1_2 W2_0 2.544760 1_565
Se1_3 W2_3 2.544032 1_555
Se1_3 W2_7 2.544116 1_455
Se1_3 W2_1 2.544760 1_565
Se1_4 W2_4 2.544032 1_555
Se1_4 W2_0 2.544116 1_555
Se1_4 W2_6 2.544760 1_555
Se1_5 W2_5 2.544032 1_555
Se1_5 W2_1 2.544116 1_555
Se1_5 W2_7 2.544760 1_555
Se1_6 W2_6 2.544032 1_555
Se1_6 W2_2 2.544116 1_555
Se1_6 W2_4 2.544760 1_565
Se1_7 W2_7 2.544032 1_555
Se1_7 W2_3 2.544116 1_555
Se1_7 W2_5 2.544760 1_565
Se2_0 W0_2 2.544638 1_545
Se2_0 W0_4 2.544742 1_555
Se2_0 W0_0 2.544821 1_555
Se2_1 W0_3 2.544638 1_545
Se2_1 W0_5 2.544742 1_555
Se2_1 W0_1 2.544821 1_555
Se2_2 W0_0 2.544638 1_555
Se2_2 W0_6 2.544742 1_555
Se2_2 W0_2 2.544821 1_555
Se2_3 W0_1 2.544638 1_555
Se2_3 W0_7 2.544742 1_555
Se2_3 W0_3 2.544821 1_555
Se2_4 W0_6 2.544638 1_545
Se2_4 W0_0 2.544742 1_655
Se2_4 W0_4 2.544821 1_555
Se2_5 W0_7 2.544638 1_545
Se2_5 W0_1 2.544742 1_655
Se2_5 W0_5 2.544821 1_555
Se2_6 W0_4 2.544638 1_555
Se2_6 W0_2 2.544742 1_655
Se2_6 W0_6 2.544821 1_555
Se2_7 W0_5 2.544638 1_555
Se2_7 W0_3 2.544742 1_655
Se2_7 W0_7 2.544821 1_555
Se3_0 W0_2 2.551861 1_545
Se3_0 W0_4 2.552046 1_555
Se3_0 W0_0 2.552115 1_555
Se3_1 W0_3 2.551861 1_545
Se3_1 W0_5 2.552046 1_555
Se3_1 W0_1 2.552115 1_555
Se3_2 W0_0 2.551861 1_555
Se3_2 W0_6 2.552046 1_555
Se3_2 W0_2 2.552115 1_555
Se3_3 W0_1 2.551861 1_555
Se3_3 W0_7 2.552046 1_555
Se3_3 W0_3 2.552115 1_555
Se3_4 W0_6 2.551861 1_545
Se3_4 W0_0 2.552046 1_655
Se3_4 W0_4 2.552115 1_555
Se3_5 W0_7 2.551861 1_545
Se3_5 W0_1 2.552046 1_655
Se3_5 W0_5 2.552115 1_555
Se3_6 W0_4 2.551861 1_555
Se3_6 W0_2 2.552046 1_655
Se3_6 W0_6 2.552115 1_555
Se3_7 W0_5 2.551861 1_555
Se3_7 W0_3 2.552046 1_655
Se3_7 W0_7 2.552115 1_555
Se5_0 W2_0 2.543068 1_555
Se5_0 W2_4 2.543215 1_455
Se5_0 W2_2 2.543673 1_555
Se5_1 W2_1 2.543068 1_555
Se5_1 W2_5 2.543215 1_455
Se5_1 W2_3 2.543673 1_555
Se5_2 W2_2 2.543068 1_555
Se5_2 W2_6 2.543215 1_455
Se5_2 W2_0 2.543673 1_565
Se5_3 W2_3 2.543068 1_555
Se5_3 W2_7 2.543215 1_455
Se5_3 W2_1 2.543673 1_565
Se5_4 W2_4 2.543068 1_555
Se5_4 W2_0 2.543215 1_555
Se5_4 W2_6 2.543673 1_555
Se5_5 W2_5 2.543068 1_555
Se5_5 W2_1 2.543215 1_555
Se5_5 W2_7 2.543673 1_555
Se5_6 W2_6 2.543068 1_555
Se5_6 W2_2 2.543215 1_555
Se5_6 W2_4 2.543673 1_565
Se5_7 W2_7 2.543068 1_555
Se5_7 W2_3 2.543215 1_555
Se5_7 W2_5 2.543673 1_565
S0_0 W1_0 2.441610 1_555
S0_0 W1_4 2.441673 1_555
S0_0 W1_2 2.441987 1_545
S0_1 W1_1 2.441610 1_555
S0_1 W1_5 2.441673 1_555
S0_1 W1_3 2.441987 1_545
S0_2 W1_2 2.441610 1_555
S0_2 W1_6 2.441673 1_555
S0_2 W1_0 2.441987 1_555
S0_3 W1_3 2.441610 1_555
S0_3 W1_7 2.441673 1_555
S0_3 W1_1 2.441987 1_555
S0_4 W1_4 2.441610 1_555
S0_4 W1_0 2.441673 1_655
S0_4 W1_6 2.441987 1_545
S0_5 W1_5 2.441610 1_555
S0_5 W1_1 2.441673 1_655
S0_5 W1_7 2.441987 1_545
S0_6 W1_6 2.441610 1_555
S0_6 W1_2 2.441673 1_655
S0_6 W1_4 2.441987 1_555
S0_7 W1_7 2.441610 1_555
S0_7 W1_3 2.441673 1_655
S0_7 W1_5 2.441987 1_555
S1_0 W1_0 2.441829 1_555
S1_0 W1_4 2.441938 1_555
S1_0 W1_2 2.442201 1_545
S1_1 W1_1 2.441829 1_555
S1_1 W1_5 2.441938 1_555
S1_1 W1_3 2.442201 1_545
S1_2 W1_2 2.441829 1_555
S1_2 W1_6 2.441938 1_555
S1_2 W1_0 2.442201 1_555
S1_3 W1_3 2.441829 1_555
S1_3 W1_7 2.441938 1_555
S1_3 W1_1 2.442201 1_555
S1_4 W1_4 2.441829 1_555
S1_4 W1_0 2.441938 1_655
S1_4 W1_6 2.442201 1_545
S1_5 W1_5 2.441829 1_555
S1_5 W1_1 2.441938 1_655
S1_5 W1_7 2.442201 1_545
S1_6 W1_6 2.441829 1_555
S1_6 W1_2 2.441938 1_655
S1_6 W1_4 2.442201 1_555
S1_7 W1_7 2.441829 1_555
S1_7 W1_3 2.441938 1_655
S1_7 W1_5 2.442201 1_555
