# generated using pymatgen
data_Na14Ca4Ti4Si7S5O48
_symmetry_space_group_name_H-M   'P 1'
_cell_length_a   18.51682798
_cell_length_b   9.25060900
_cell_length_c   22.57017831
_cell_angle_alpha   89.98569363
_cell_angle_beta   89.66250547
_cell_angle_gamma   119.94240681
_symmetry_Int_Tables_number   1
_chemical_formula_structural   Na14Ca4Ti4Si7S5O48
_chemical_formula_sum   'Na42 Ca12 Ti12 Si21 S15 O144'
_cell_volume   3349.99231620
_cell_formula_units_Z   3
loop_
 _symmetry_equiv_pos_site_id
 _symmetry_equiv_pos_as_xyz
  1  'x, y, z'
loop_
 _atom_site_type_symbol
 _atom_site_label
 _atom_site_symmetry_multiplicity
 _atom_site_fract_x
 _atom_site_fract_y
 _atom_site_fract_z
 _atom_site_occupancy
  Na  Na0  1  0.80727286  0.98808087  0.25605419  1
  Na  Na1  1  0.18284271  0.35271986  0.25390791  1
  Na  Na2  1  0.69032958  0.36386529  0.25242589  1
  Na  Na3  1  0.99437431  0.63804622  0.24720084  1
  Na  Na4  1  0.49691568  0.63641560  0.24920077  1
  Na  Na5  1  0.31005463  0.62748490  0.74348967  1
  Na  Na6  1  0.99575056  0.35533079  0.74467396  1
  Na  Na7  1  0.49678874  0.35462022  0.74237058  1
  Na  Na8  1  0.18951765  0.01622166  0.74810012  1
  Na  Na9  1  0.68482684  0.01411335  0.75073471  1
  Na  Na10  1  0.14679130  0.32801493  0.58713564  1
  Na  Na11  1  0.65922822  0.33629086  0.57870169  1
  Na  Na12  1  0.33921207  0.98890609  0.58167760  1
  Na  Na13  1  0.83880035  0.98624151  0.57959313  1
  Na  Na14  1  0.15819714  0.98766708  0.08311972  1
  Na  Na15  1  0.64722625  0.96546930  0.08970758  1
  Na  Na16  1  0.33909212  0.69183427  0.08520122  1
  Na  Na17  1  0.83688353  0.69144223  0.08399426  1
  Na  Na18  1  0.48294518  0.67274036  0.92394153  1
  Na  Na19  1  0.97200732  0.66524674  0.92192197  1
  Na  Na20  1  0.35397009  0.04139537  0.91587927  1
  Na  Na21  1  0.85047766  0.03446575  0.90980426  1
  Na  Na22  1  0.16622688  0.29049386  0.91509052  1
  Na  Na23  1  0.67092014  0.28518711  0.90917170  1
  Na  Na24  1  0.47573753  0.28512199  0.42359128  1
  Na  Na25  1  0.97277162  0.27279480  0.42506342  1
  Na  Na26  1  0.16950165  0.05825916  0.40949310  1
  Na  Na27  1  0.67468052  0.03722678  0.41320106  1
  Na  Na28  1  0.35294846  0.66822322  0.41075488  1
  Na  Na29  1  0.85088672  0.67598476  0.41877798  1
  Na  Na30  1  0.99267036  0.99322606  0.49965887  1
  Na  Na31  1  0.50167781  0.99726069  0.50225883  1
  Na  Na32  1  0.99838987  0.00240490  0.00437038  1
  Na  Na33  1  0.50014375  0.00368440  0.00564835  1
  Na  Na34  1  0.32612335  0.31803790  0.82029713  1
  Na  Na35  1  0.82346441  0.33339112  0.82793037  1
  Na  Na36  1  0.32527875  0.31608792  0.33176771  1
  Na  Na37  1  0.82416627  0.31543467  0.32958923  1
  Na  Na38  1  0.16435492  0.66858191  0.17273875  1
  Na  Na39  1  0.66271650  0.66183658  0.17077917  1
  Na  Na40  1  0.16237948  0.66246020  0.66810448  1
  Na  Na41  1  0.66235248  0.65688991  0.66547770  1
  Ca  Ca0  1  0.00108254  0.00015360  0.35235814  1
  Ca  Ca1  1  0.49526224  0.99267167  0.34787071  1
  Ca  Ca2  1  0.99461316  0.99710581  0.84689676  1
  Ca  Ca3  1  0.50642956  0.00995408  0.84799372  1
  Ca  Ca4  1  0.33895870  0.33556202  0.67634937  1
  Ca  Ca5  1  0.83817253  0.33896834  0.17800572  1
  Ca  Ca6  1  0.33443191  0.33149329  0.99544819  1
  Ca  Ca7  1  0.83168396  0.33632265  0.98371052  1
  Ca  Ca8  1  0.33240832  0.32752116  0.48398370  1
  Ca  Ca9  1  0.83282917  0.33194042  0.49214019  1
  Ca  Ca10  1  0.66869712  0.67466346  0.31121102  1
  Ca  Ca11  1  0.16715564  0.66344627  0.80881797  1
  Ti  Ti0  1  0.98975135  0.00918940  0.65252463  1
  Ti  Ti1  1  0.51049974  0.04105042  0.65208900  1
  Ti  Ti2  1  0.00966372  0.98244720  0.15332151  1
  Ti  Ti3  1  0.48976271  0.97192606  0.15350432  1
  Ti  Ti4  1  0.82686390  0.32644081  0.67543247  1
  Ti  Ti5  1  0.32632328  0.32796249  0.17646541  1
  Ti  Ti6  1  0.17031275  0.66941065  0.03255699  1
  Ti  Ti7  1  0.66296450  0.67304541  0.01628901  1
  Ti  Ti8  1  0.16249859  0.65344177  0.51571286  1
  Ti  Ti9  1  0.67902116  0.68732737  0.52966241  1
  Ti  Ti10  1  0.18383985  0.68647338  0.31235902  1
  Ti  Ti11  1  0.68444863  0.68207280  0.81079511  1
  Si  Si0  1  0.15643971  0.00156686  0.25175270  1
  Si  Si1  1  0.64647488  0.00159714  0.24898161  1
  Si  Si2  1  0.34863726  0.68517184  0.25107188  1
  Si  Si3  1  0.85281736  0.70230356  0.24938121  1
  Si  Si4  1  0.14707980  0.29020041  0.75002954  1
  Si  Si5  1  0.65761066  0.31388028  0.75136348  1
  Si  Si6  1  0.35348609  0.00147082  0.75060457  1
  Si  Si7  1  0.84955993  0.01352022  0.75152701  1
  Si  Si8  1  0.49163651  0.34082635  0.58122345  1
  Si  Si9  1  0.98564459  0.34082677  0.58533379  1
  Si  Si10  1  0.67679490  0.02898400  0.58427250  1
  Si  Si11  1  0.84145671  0.64245009  0.58175628  1
  Si  Si12  1  0.48514033  0.63250443  0.08400350  1
  Si  Si13  1  0.98766112  0.64371956  0.08208134  1
  Si  Si14  1  0.34080026  0.03983804  0.08088853  1
  Si  Si15  1  0.17727244  0.32532681  0.08287008  1
  Si  Si16  1  0.80931736  0.66672420  0.91984503  1
  Si  Si17  1  0.66584107  0.94900803  0.91350317  1
  Si  Si18  1  0.30933916  0.95264470  0.42019927  1
  Si  Si19  1  0.81313859  0.96432773  0.41806187  1
  Si  Si20  1  0.16735053  0.38489809  0.41368871  1
  S  S0  1  0.00342532  0.29693092  0.24973010  1
  S  S1  1  0.49284349  0.28774493  0.24591981  1
  S  S2  1  0.99391569  0.69818238  0.74717953  1
  S  S3  1  0.50255245  0.70608245  0.75155638  1
  S  S4  1  0.17510970  0.01780997  0.58300107  1
  S  S5  1  0.33161718  0.64639476  0.58170485  1
  S  S6  1  0.83149153  0.01795637  0.08072267  1
  S  S7  1  0.67517909  0.33282879  0.08223921  1
  S  S8  1  0.31136788  0.66385728  0.91990701  1
  S  S9  1  0.02541716  0.38185307  0.92134230  1
  S  S10  1  0.52562829  0.38776229  0.91601658  1
  S  S11  1  0.16780174  0.95756869  0.91928890  1
  S  S12  1  0.66622409  0.37496368  0.41864732  1
  S  S13  1  0.02811779  0.66503486  0.41526181  1
  S  S14  1  0.52304677  0.66726821  0.42022235  1
  O  O0  1  0.12617488  0.05629577  0.31005988  1
  O  O1  1  0.61253134  0.03635836  0.31045239  1
  O  O2  1  0.40119554  0.74943722  0.31069797  1
  O  O3  1  0.90421136  0.78121107  0.30940342  1
  O  O4  1  0.48183365  0.20427255  0.30427415  1
  O  O5  1  0.99361743  0.20922614  0.30637048  1
  O  O6  1  0.11472612  0.19314158  0.81311119  1
  O  O7  1  0.62723163  0.20085838  0.81064040  1
  O  O8  1  0.49129338  0.77213429  0.80862164  1
  O  O9  1  0.98402678  0.75996780  0.80594179  1
  O  O10  1  0.39959354  0.01888614  0.81332687  1
  O  O11  1  0.90104890  0.05168740  0.81184680  1
  O  O12  1  0.41406636  0.99130940  0.69521650  1
  O  O13  1  0.90053143  0.98822336  0.69528505  1
  O  O14  1  0.08214627  0.16341353  0.69643980  1
  O  O15  1  0.58882999  0.21376621  0.69658876  1
  O  O16  1  0.00256488  0.81370541  0.69910832  1
  O  O17  1  0.51397823  0.82079781  0.70209997  1
  O  O18  1  0.39914504  0.81204435  0.19428467  1
  O  O19  1  0.91398414  0.83447526  0.19280314  1
  O  O20  1  0.01500878  0.20567742  0.19967586  1
  O  O21  1  0.50049371  0.18824989  0.19742552  1
  O  O22  1  0.08906873  0.96724086  0.19572654  1
  O  O23  1  0.58105018  0.00023129  0.19477451  1
  O  O24  1  0.45961635  0.37811264  0.64228262  1
  O  O25  1  0.93207974  0.35813885  0.64088624  1
  O  O26  1  0.22971004  0.09492932  0.63534385  1
  O  O27  1  0.74767662  0.13340589  0.63691249  1
  O  O28  1  0.31661297  0.54251702  0.63517532  1
  O  O29  1  0.82138996  0.49290395  0.63141314  1
  O  O30  1  0.42984665  0.50344973  0.13789540  1
  O  O31  1  0.95896917  0.54000291  0.14214162  1
  O  O32  1  0.31824972  0.14463728  0.12995759  1
  O  O33  1  0.81617410  0.09144880  0.13361984  1
  O  O34  1  0.24826350  0.36519034  0.13518959  1
  O  O35  1  0.73009061  0.36423845  0.13415994  1
  O  O36  1  0.20617670  0.27855841  0.02197383  1
  O  O37  1  0.71265755  0.29905202  0.02900281  1
  O  O38  1  0.43353546  0.58428394  0.02294092  1
  O  O39  1  0.92882027  0.57653089  0.02458502  1
  O  O40  1  0.35462408  0.12094065  0.01626140  1
  O  O41  1  0.84142389  0.11636547  0.02721266  1
  O  O42  1  0.21339836  0.12771685  0.53022752  1
  O  O43  1  0.70323307  0.13811421  0.52469136  1
  O  O44  1  0.34091377  0.56524472  0.52869107  1
  O  O45  1  0.85654403  0.58789309  0.51802881  1
  O  O46  1  0.42805093  0.27930267  0.52566360  1
  O  O47  1  0.93313015  0.28491797  0.52540490  1
  O  O48  1  0.26523338  0.67428553  0.97292817  1
  O  O49  1  0.75057704  0.66771747  0.97613302  1
  O  O50  1  0.08040750  0.48129810  0.97093098  1
  O  O51  1  0.57433793  0.47826041  0.96965728  1
  O  O52  1  0.16578747  0.85810563  0.97170568  1
  O  O53  1  0.65987714  0.83281841  0.97391561  1
  O  O54  1  0.25107168  0.83445338  0.47665176  1
  O  O55  1  0.75441644  0.83930187  0.47684317  1
  O  O56  1  0.16125397  0.48834680  0.47422636  1
  O  O57  1  0.66224072  0.46800816  0.47095809  1
  O  O58  1  0.07668752  0.67057519  0.46932657  1
  O  O59  1  0.57640768  0.67643961  0.46999307  1
  O  O60  1  0.06997536  0.65413493  0.36078910  1
  O  O61  1  0.55460259  0.64372126  0.36290427  1
  O  O62  1  0.25443600  0.84804571  0.35972113  1
  O  O63  1  0.76129342  0.88235058  0.35842457  1
  O  O64  1  0.17022660  0.50151113  0.35639024  1
  O  O65  1  0.66968382  0.46100800  0.36259871  1
  O  O66  1  0.05894105  0.46926180  0.86453156  1
  O  O67  1  0.56743651  0.47964948  0.86135432  1
  O  O68  1  0.17329703  0.87874765  0.86391865  1
  O  O69  1  0.66844090  0.83759648  0.85664796  1
  O  O70  1  0.26490558  0.64973954  0.86543504  1
  O  O71  1  0.75430906  0.66146749  0.85961170  1
  O  O72  1  0.02471195  0.82214127  0.41707209  1
  O  O73  1  0.51739454  0.82346809  0.42057718  1
  O  O74  1  0.39913688  0.96300277  0.42322455  1
  O  O75  1  0.90128081  0.96573888  0.42560233  1
  O  O76  1  0.08471423  0.20477909  0.42019155  1
  O  O77  1  0.58897282  0.20614072  0.42044830  1
  O  O78  1  0.01958261  0.21459135  0.92228664  1
  O  O79  1  0.51851610  0.21973373  0.91812745  1
  O  O80  1  0.08984049  0.96870151  0.92109395  1
  O  O81  1  0.58176904  0.96163436  0.92040525  1
  O  O82  1  0.39512439  0.81773631  0.92012395  1
  O  O83  1  0.89940668  0.83601492  0.92329125  1
  O  O84  1  0.50187687  0.16743707  0.59156893  1
  O  O85  1  0.99968403  0.17562900  0.59961677  1
  O  O86  1  0.09198791  0.00243632  0.59114425  1
  O  O87  1  0.58570561  0.00230334  0.60497901  1
  O  O88  1  0.40480999  0.81643182  0.58739824  1
  O  O89  1  0.91676673  0.83072518  0.59947754  1
  O  O90  1  0.49910085  0.82502393  0.09806883  1
  O  O91  1  0.00216143  0.83787221  0.09092091  1
  O  O92  1  0.41477584  0.99849434  0.09695749  1
  O  O93  1  0.90457162  0.99296063  0.08657254  1
  O  O94  1  0.08671659  0.16855831  0.10168574  1
  O  O95  1  0.59181648  0.18208812  0.09028404  1
  O  O96  1  0.34344766  0.16645325  0.74512368  1
  O  O97  1  0.83627260  0.17322564  0.73848029  1
  O  O98  1  0.24280989  0.32867975  0.74159197  1
  O  O99  1  0.74652600  0.32636564  0.73346275  1
  O  O100  1  0.42690024  0.53932758  0.74464580  1
  O  O101  1  0.92216346  0.52666249  0.74008208  1
  O  O102  1  0.33608947  0.49906442  0.23668075  1
  O  O103  1  0.84265888  0.51738061  0.24409316  1
  O  O104  1  0.42089704  0.31600258  0.23824788  1
  O  O105  1  0.92794903  0.31249325  0.24306138  1
  O  O106  1  0.24561379  0.16614766  0.23194969  1
  O  O107  1  0.74156477  0.15408655  0.24022295  1
  O  O108  1  0.32116145  0.51321627  0.92216745  1
  O  O109  1  0.81437999  0.49725815  0.91510976  1
  O  O110  1  0.44101839  0.37048354  0.91817646  1
  O  O111  1  0.93996395  0.35760228  0.92698629  1
  O  O112  1  0.24278263  0.12923821  0.92021213  1
  O  O113  1  0.75145679  0.12688076  0.91401224  1
  O  O114  1  0.31339904  0.13100906  0.41513169  1
  O  O115  1  0.82467489  0.15149766  0.42024713  1
  O  O116  1  0.25367460  0.38089270  0.41374936  1
  O  O117  1  0.74233490  0.35834035  0.41979201  1
  O  O118  1  0.43681365  0.52114273  0.42590732  1
  O  O119  1  0.94362894  0.51685633  0.41779842  1
  O  O120  1  0.17686712  0.50679663  0.07726227  1
  O  O121  1  0.66945831  0.48666901  0.07477834  1
  O  O122  1  0.08500433  0.67668681  0.06898930  1
  O  O123  1  0.58110993  0.65908031  0.07709857  1
  O  O124  1  0.25156304  0.84572855  0.07671340  1
  O  O125  1  0.75338444  0.84494570  0.07585009  1
  O  O126  1  0.16957464  0.85289968  0.57537722  1
  O  O127  1  0.67698650  0.84899037  0.58050450  1
  O  O128  1  0.25372669  0.66296919  0.57699835  1
  O  O129  1  0.75325362  0.65698574  0.58038441  1
  O  O130  1  0.08209160  0.50445134  0.57847683  1
  O  O131  1  0.58742542  0.49551596  0.56820001  1
  O  O132  1  0.15441074  0.82048886  0.25694875  1
  O  O133  1  0.64045909  0.82054842  0.24045519  1
  O  O134  1  0.25478034  0.67019463  0.25377265  1
  O  O135  1  0.76272003  0.69133369  0.24051446  1
  O  O136  1  0.07926641  0.46807966  0.25078215  1
  O  O137  1  0.57157349  0.45298516  0.24587659  1
  O  O138  1  0.14346015  0.46289640  0.74277731  1
  O  O139  1  0.65485473  0.49035094  0.75748191  1
  O  O140  1  0.07295975  0.68957634  0.74710410  1
  O  O141  1  0.57827470  0.68646105  0.75289311  1
  O  O142  1  0.26278879  0.83183090  0.74234692  1
  O  O143  1  0.75557247  0.83977940  0.75431641  1
loop_
_geom_bond_atom_site_label_1
_geom_bond_atom_site_label_2
_geom_bond_distance
_geom_bond_site_symmetry_2
Na0 O107 2.415845 1_565
Na0 O135 2.466238 1_555
Na0 O63 2.482823 1_555
Na0 O133 2.702074 1_555
Na0 O105 2.717145 1_565
Na0 O33 2.900635 1_565
Na1 O102 2.487571 1_555
Na1 O134 2.548355 1_555
Na1 O106 2.563507 1_555
Na1 O136 2.620462 1_555
Na1 O0 2.708630 1_555
Na1 O64 2.759612 1_555
Na1 O34 2.912482 1_555
Na1 O20 2.971925 1_555
Na2 O103 2.450129 1_555
Na2 O107 2.564529 1_555
Na2 O135 2.643379 1_555
Na2 O137 2.711186 1_555
Na2 O65 2.733098 1_555
Na2 O35 2.764318 1_555
Na2 O1 2.930558 1_555
Na3 O103 2.452550 1_555
Na3 O31 2.510143 1_555
Na3 O132 2.587196 1_655
Na3 O105 2.625809 1_555
Na3 O136 2.723653 1_655
Na3 O22 2.888203 1_655
Na3 O60 2.896365 1_655
Na3 O3 2.948356 1_555
Na4 O133 2.340777 1_555
Na4 O104 2.582134 1_555
Na4 O102 2.606830 1_555
Na4 O137 2.671427 1_555
Na4 O61 2.773415 1_555
Na4 O30 2.807084 1_555
Na4 O2 2.825387 1_555
Na5 O98 2.399493 1_555
Na5 O142 2.447813 1_555
Na5 O28 2.588770 1_555
Na5 O100 2.666265 1_555
Na5 O138 2.673280 1_555
Na5 O70 2.908884 1_555
Na6 O138 2.398868 1_655
Na6 O101 2.556723 1_555
Na6 O97 2.572305 1_555
Na6 O25 2.634595 1_555
Na6 O140 2.682439 1_655
Na6 O11 2.883223 1_555
Na6 O66 2.933546 1_655
Na7 O24 2.406553 1_555
Na7 O96 2.481926 1_555
Na7 O139 2.569606 1_555
Na7 O100 2.608347 1_555
Na7 O141 2.671547 1_555
Na7 O15 2.804803 1_555
Na7 O67 2.965367 1_555
Na8 O96 2.470527 1_555
Na8 O98 2.549646 1_555
Na8 O26 2.645090 1_555
Na8 O142 2.659959 1_545
Na8 O140 2.698058 1_545
Na8 O68 2.854558 1_545
Na9 O97 2.444844 1_555
Na9 O143 2.536433 1_545
Na9 O99 2.549639 1_555
Na9 O141 2.666655 1_545
Na9 O7 2.788028 1_555
Na9 O27 2.802355 1_555
Na9 O69 2.822713 1_545
Na9 O17 2.967401 1_545
Na10 O85 2.375720 1_455
Na10 O130 2.468183 1_555
Na10 O86 2.656443 1_555
Na10 O128 2.728303 1_555
Na10 O14 2.825132 1_555
Na10 O56 2.891250 1_555
Na10 O28 2.968782 1_555
Na10 O42 2.977896 1_555
Na11 O131 2.439653 1_555
Na11 O84 2.541681 1_555
Na11 O129 2.584249 1_555
Na11 O43 2.644124 1_555
Na11 O57 2.707481 1_555
Na11 O87 2.746169 1_555
Na11 O29 2.868962 1_555
Na11 O15 2.923376 1_555
Na12 O88 2.444184 1_555
Na12 O128 2.616383 1_555
Na12 O84 2.625272 1_565
Na12 O46 2.661440 1_565
Na12 O126 2.744116 1_555
Na12 O54 2.836122 1_555
Na12 O26 2.914998 1_565
Na12 O12 2.915418 1_555
Na13 O89 2.536908 1_555
Na13 O127 2.606104 1_555
Na13 O85 2.637146 1_565
Na13 O129 2.640047 1_555
Na13 O47 2.708529 1_565
Na13 O55 2.755237 1_555
Na13 O13 2.852980 1_555
Na13 O27 2.939771 1_565
Na14 O91 2.509246 1_555
Na14 O122 2.515503 1_555
Na14 O94 2.632946 1_565
Na14 O124 2.645185 1_555
Na14 O36 2.744475 1_565
Na14 O32 2.784077 1_565
Na14 O22 2.802445 1_555
Na14 O52 2.818705 1_554
Na15 O90 2.383921 1_555
Na15 O123 2.480649 1_555
Na15 O95 2.668439 1_565
Na15 O125 2.717648 1_555
Na15 O23 2.754612 1_565
Na15 O33 2.919735 1_565
Na15 O53 2.944842 1_554
Na15 O37 3.018886 1_565
Na16 O92 2.473442 1_555
Na16 O90 2.597512 1_555
Na16 O120 2.618985 1_555
Na16 O124 2.645202 1_555
Na16 O18 2.708123 1_555
Na16 O38 2.780534 1_555
Na16 O34 2.852155 1_555
Na16 O48 2.852620 1_554
Na17 O93 2.421820 1_555
Na17 O125 2.575975 1_555
Na17 O91 2.663249 1_655
Na17 O121 2.718107 1_555
Na17 O39 2.757953 1_555
Na17 O19 2.824405 1_555
Na17 O49 2.867868 1_554
Na17 O35 2.889802 1_555
Na18 O81 2.369231 1_555
Na18 O38 2.393113 1_556
Na18 O110 2.504402 1_555
Na18 O82 2.574856 1_555
Na18 O108 2.596536 1_555
Na18 O8 2.737881 1_555
Na19 O39 2.450336 1_556
Na19 O83 2.534396 1_555
Na19 O109 2.536781 1_555
Na19 O80 2.554669 1_655
Na19 O111 2.603392 1_555
Na19 O9 2.732571 1_555
Na20 O40 2.380548 1_556
Na20 O10 2.503467 1_555
Na20 O82 2.538752 1_545
Na20 O112 2.564462 1_555
Na20 O110 2.640268 1_555
Na20 O79 2.644184 1_555
Na21 O11 2.370006 1_555
Na21 O113 2.380028 1_555
Na21 O83 2.438640 1_545
Na21 O111 2.625846 1_555
Na21 O78 2.731837 1_655
Na21 O41 2.783304 1_556
Na22 O78 2.446260 1_555
Na22 O6 2.487529 1_555
Na22 O112 2.522071 1_555
Na22 O36 2.545857 1_556
Na22 O108 2.570216 1_555
Na22 O80 2.583524 1_545
Na23 O7 2.366571 1_555
Na23 O109 2.392742 1_555
Na23 O113 2.561705 1_555
Na23 O79 2.580479 1_555
Na23 O81 2.609633 1_545
Na23 O37 2.802588 1_556
Na24 O46 2.453277 1_555
Na24 O77 2.542202 1_555
Na24 O74 2.583040 1_545
Na24 O114 2.614154 1_555
Na24 O118 2.619097 1_555
Na24 O4 2.811780 1_555
Na25 O115 2.392251 1_555
Na25 O47 2.396473 1_555
Na25 O76 2.450271 1_655
Na25 O75 2.463113 1_545
Na25 O119 2.575353 1_555
Na25 O5 2.808311 1_555
Na26 O0 2.384787 1_555
Na26 O114 2.404739 1_555
Na26 O72 2.477241 1_545
Na26 O76 2.545634 1_555
Na26 O116 2.589270 1_555
Na26 O42 2.829267 1_555
Na27 O115 2.435409 1_555
Na27 O73 2.581708 1_545
Na27 O117 2.589009 1_555
Na27 O1 2.593195 1_555
Na27 O43 2.647045 1_555
Na27 O77 2.731227 1_555
Na27 O63 2.902507 1_545
Na28 O116 2.359980 1_555
Na28 O2 2.401636 1_555
Na28 O74 2.433452 1_555
Na28 O118 2.548513 1_555
Na28 O73 2.650745 1_555
Na28 O44 2.796848 1_555
Na29 O75 2.363069 1_555
Na29 O45 2.404204 1_555
Na29 O117 2.603536 1_555
Na29 O3 2.650868 1_555
Na29 O119 2.763973 1_555
Na29 O72 2.800672 1_655
Na30 O75 2.307845 1_555
Na30 O76 2.565982 1_665
Na30 O89 2.676321 1_555
Na30 O72 2.693892 1_655
Na30 O86 2.746148 1_665
Na30 O85 2.782160 1_565
Na31 O74 2.515379 1_555
Na31 O73 2.555449 1_555
Na31 O84 2.556822 1_565
Na31 O77 2.569261 1_565
Na31 O88 2.582762 1_555
Na31 O87 2.787153 1_565
Na32 O91 2.498737 1_645
Na32 O93 2.505633 1_545
Na32 O83 2.510378 1_544
Na32 O78 2.580654 1_654
Na32 O80 2.643354 1_644
Na32 O94 2.719598 1_655
Na33 O95 2.548988 1_555
Na33 O92 2.575660 1_545
Na33 O81 2.586578 1_544
Na33 O90 2.654989 1_545
Na33 O82 2.678279 1_544
Na33 O79 2.706201 1_554
Na34 O96 2.322015 1_555
Na34 O98 2.393529 1_555
Na34 O100 2.595289 1_555
Na34 O112 2.789940 1_555
Na34 O110 2.944061 1_555
Na34 O108 2.952963 1_555
Na35 O109 2.539677 1_555
Na35 O99 2.554087 1_555
Na35 O113 2.574286 1_555
Na35 O97 2.583424 1_555
Na35 O101 2.676121 1_555
Na36 O114 2.477377 1_555
Na36 O116 2.511218 1_555
Na36 O102 2.676914 1_555
Na36 O106 2.678381 1_555
Na36 O104 2.747274 1_555
Na36 O118 2.919078 1_555
Na37 O107 2.528723 1_555
Na37 O115 2.549439 1_555
Na37 O103 2.585067 1_555
Na37 O117 2.676345 1_555
Na37 O105 2.741496 1_555
Na37 O119 2.875401 1_555
Na38 O132 2.424151 1_555
Na38 O136 2.464498 1_555
Na38 O134 2.481939 1_555
Na38 O120 2.697977 1_555
Na38 O124 2.702893 1_555
Na38 O122 2.792532 1_555
Na39 O133 2.322938 1_555
Na39 O135 2.347522 1_555
Na39 O137 2.482647 1_555
Na39 O123 2.598826 1_555
Na39 O125 2.719446 1_555
Na39 O121 2.745293 1_555
Na40 O138 2.391057 1_555
Na40 O142 2.418583 1_555
Na40 O130 2.511281 1_555
Na40 O140 2.522650 1_555
Na40 O128 2.653380 1_555
Na40 O126 2.694801 1_555
Na41 O127 2.533967 1_555
Na41 O129 2.546013 1_555
Na41 O139 2.546810 1_555
Na41 O141 2.603939 1_555
Na41 O131 2.635133 1_555
Na41 O143 2.643771 1_555
Ca0 O3 2.157389 1_445
Ca0 O5 2.259326 1_455
Ca0 O0 2.306353 1_555
Ca0 O76 2.329889 1_555
Ca0 O75 2.371876 1_445
Ca0 O72 2.400435 1_545
Ca1 O1 2.166558 1_565
Ca1 O2 2.215044 1_555
Ca1 O4 2.312879 1_565
Ca1 O74 2.369070 1_555
Ca1 O73 2.440856 1_555
Ca1 O77 2.491654 1_565
Ca2 O6 2.183984 1_665
Ca2 O11 2.184387 1_565
Ca2 O9 2.297595 1_555
Ca2 O83 2.375278 1_555
Ca2 O78 2.497824 1_665
Ca2 O80 2.545547 1_655
Ca3 O10 2.171161 1_555
Ca3 O7 2.206059 1_555
Ca3 O8 2.257546 1_545
Ca3 O81 2.337949 1_545
Ca3 O79 2.427714 1_555
Ca3 O82 2.522014 1_545
Ca4 O24 2.199884 1_555
Ca4 O96 2.234662 1_555
Ca4 O98 2.279925 1_555
Ca4 O26 2.330617 1_555
Ca4 O28 2.344010 1_555
Ca4 O100 2.355367 1_555
Ca5 O103 2.195792 1_555
Ca5 O31 2.223124 1_555
Ca5 O107 2.238770 1_555
Ca5 O105 2.326893 1_555
Ca5 O33 2.342470 1_555
Ca5 O35 2.351499 1_555
Ca6 O40 2.209696 1_556
Ca6 O38 2.225159 1_556
Ca6 O36 2.249548 1_556
Ca6 O108 2.457162 1_555
Ca6 O112 2.475881 1_555
Ca6 O110 2.513074 1_555
Ca7 O39 2.248254 1_556
Ca7 O109 2.279749 1_555
Ca7 O37 2.288269 1_556
Ca7 O111 2.296416 1_555
Ca7 O41 2.346090 1_556
Ca7 O113 2.364561 1_555
Ca8 O46 2.242398 1_555
Ca8 O118 2.275099 1_555
Ca8 O114 2.283095 1_555
Ca8 O42 2.295169 1_555
Ca8 O44 2.352917 1_555
Ca8 O116 2.372228 1_555
Ca9 O47 2.241659 1_555
Ca9 O45 2.259677 1_555
Ca9 O115 2.279176 1_555
Ca9 O43 2.279608 1_555
Ca9 O117 2.444268 1_555
Ca9 O119 2.530883 1_555
Ca10 O63 2.121474 1_555
Ca10 O61 2.296449 1_555
Ca10 O65 2.299352 1_555
Ca10 O135 2.302188 1_555
Ca10 O133 2.314759 1_555
Ca10 O137 2.442381 1_555
Ca11 O142 2.242077 1_555
Ca11 O138 2.247788 1_555
Ca11 O70 2.276276 1_555
Ca11 O66 2.280171 1_555
Ca11 O68 2.302847 1_555
Ca11 O140 2.343112 1_555
O0 Si0 1.605338 1_555
O1 Si1 1.617113 1_555
O2 Si2 1.596851 1_555
O3 Si3 1.611194 1_555
O4 S1 1.487165 1_555
O5 S0 1.474839 1_655
O6 Si4 1.626194 1_555
O7 Si5 1.613328 1_555
O8 S3 1.483266 1_555
O9 S2 1.490369 1_555
O10 Si6 1.623573 1_555
O11 Si7 1.602073 1_555
O12 Si6 1.708439 1_565
O12 Ti1 1.872653 1_565
O13 Si7 1.662362 1_565
O13 Ti0 1.832936 1_565
O14 Si4 1.701273 1_555
O14 Ti0 1.878551 1_455
O15 Si5 1.688134 1_555
O15 Ti1 1.835711 1_555
O16 S2 1.473558 1_455
O16 Ti0 2.205030 1_465
O17 S3 1.479653 1_555
O17 Ti1 2.358016 1_565
O18 Si2 1.668613 1_555
O18 Ti3 1.831365 1_555
O19 Si3 1.734412 1_555
O19 Ti2 1.834805 1_655
O20 S0 1.487703 1_555
O20 Ti2 2.273092 1_545
O21 S1 1.481215 1_555
O21 Ti3 2.152454 1_545
O22 Si0 1.696891 1_565
O22 Ti2 1.822266 1_555
O23 Si1 1.722453 1_555
O23 Ti3 1.835849 1_545
O24 Si8 1.601400 1_555
O25 Si9 1.650914 1_555
O25 Ti4 1.975189 1_555
O26 S4 1.490392 1_555
O27 Si10 1.679477 1_555
O27 Ti4 1.869914 1_555
O28 S5 1.478512 1_555
O29 Si11 1.670071 1_555
O29 Ti4 1.877457 1_555
O30 Si12 1.648470 1_555
O30 Ti5 1.985176 1_555
O31 Si13 1.588201 1_555
O32 Si14 1.655280 1_555
O32 Ti5 1.936446 1_555
O33 S6 1.468653 1_555
O34 Si15 1.671228 1_555
O34 Ti5 1.894289 1_555
O35 S7 1.486883 1_555
O36 Si15 1.607947 1_555
O37 S7 1.493251 1_555
O38 Si12 1.613011 1_555
O39 Si13 1.611985 1_555
O40 Si14 1.599809 1_555
O41 S6 1.466582 1_555
O42 S4 1.491631 1_555
O43 Si10 1.601680 1_555
O44 S5 1.466926 1_555
O45 Si11 1.593096 1_555
O46 Si8 1.622194 1_555
O47 Si9 1.598873 1_555
O48 S8 1.497143 1_555
O48 Ti6 2.189872 1_556
O49 Si16 1.670580 1_555
O49 Ti7 1.875702 1_556
O50 S9 1.488159 1_555
O50 Ti6 2.206986 1_556
O51 S10 1.496565 1_555
O51 Ti7 2.029055 1_556
O52 S11 1.487368 1_555
O52 Ti6 2.255307 1_556
O53 Si17 1.704592 1_555
O53 Ti7 1.785129 1_556
O54 Si18 1.669865 1_555
O54 Ti8 1.873959 1_555
O55 Si19 1.734057 1_555
O55 Ti9 1.834927 1_555
O56 Si20 1.703556 1_555
O56 Ti8 1.782009 1_555
O57 S12 1.484284 1_555
O57 Ti9 2.311958 1_555
O58 S13 1.505799 1_555
O58 Ti8 1.979114 1_555
O59 S14 1.474723 1_555
O59 Ti9 2.296375 1_555
O60 S13 1.479635 1_555
O60 Ti10 2.252276 1_555
O61 S14 1.476742 1_555
O62 Si18 1.693533 1_555
O62 Ti10 1.775475 1_555
O63 Si19 1.611665 1_555
O64 Si20 1.667370 1_555
O64 Ti10 1.882652 1_555
O65 S12 1.478375 1_555
O66 S9 1.473873 1_555
O67 S10 1.474881 1_555
O67 Ti11 2.328689 1_555
O68 S11 1.475404 1_555
O69 Si17 1.661521 1_555
O69 Ti11 1.910903 1_555
O70 S8 1.472799 1_555
O71 Si16 1.689659 1_555
O71 Ti11 1.785080 1_555
O72 S13 1.486374 1_555
O73 S14 1.499948 1_555
O74 Si18 1.618931 1_555
O75 Si19 1.635523 1_555
O76 Si20 1.609750 1_555
O77 S12 1.502002 1_555
O78 S9 1.496417 1_555
O79 S10 1.493724 1_555
O80 S11 1.497983 1_555
O81 Si17 1.624819 1_555
O82 S8 1.492606 1_555
O83 Si16 1.623281 1_555
O84 Si8 1.722527 1_555
O84 Ti1 1.856436 1_555
O85 Si9 1.704160 1_555
O85 Ti0 1.882600 1_555
O86 S4 1.483623 1_555
O86 Ti0 2.365198 1_455
O87 Si10 1.642962 1_555
O87 Ti1 1.918157 1_555
O88 S5 1.483766 1_555
O88 Ti1 2.501029 1_565
O89 Si11 1.649361 1_555
O89 Ti0 1.943759 1_565
O90 Si12 1.697340 1_555
O90 Ti3 1.917014 1_555
O91 Si13 1.690277 1_455
O91 Ti2 1.899817 1_555
O92 Si14 1.637955 1_565
O92 Ti3 1.994654 1_555
O93 S6 1.488799 1_565
O93 Ti2 2.507850 1_655
O94 Si15 1.630628 1_555
O94 Ti2 1.971104 1_545
O95 S7 1.485940 1_555
O95 Ti3 2.384549 1_545
O96 Si6 1.631709 1_555
O97 Si7 1.641149 1_555
O97 Ti4 2.076663 1_555
O98 Si4 1.634398 1_555
O99 Si5 1.640006 1_555
O99 Ti4 1.975964 1_555
O100 S3 1.487208 1_555
O101 S2 1.485473 1_555
O101 Ti4 2.332937 1_555
O102 Si2 1.650841 1_555
O102 Ti5 2.025651 1_555
O103 Si3 1.629448 1_555
O104 S1 1.491125 1_555
O104 Ti5 2.290312 1_555
O105 S0 1.483215 1_655
O106 Si0 1.650948 1_555
O106 Ti5 1.945821 1_555
O107 Si1 1.626509 1_555
O108 S8 1.493229 1_555
O109 Si16 1.620015 1_555
O110 S10 1.493857 1_555
O111 S9 1.487803 1_655
O112 S11 1.499782 1_545
O113 Si17 1.617734 1_545
O114 Si18 1.617759 1_545
O115 Si19 1.636118 1_545
O116 Si20 1.617269 1_555
O117 S12 1.492414 1_555
O118 S14 1.495386 1_555
O119 S13 1.479164 1_655
O120 Si15 1.687191 1_555
O120 Ti6 1.865104 1_555
O121 S7 1.488427 1_555
O121 Ti7 2.222015 1_555
O122 Si13 1.695352 1_455
O122 Ti6 1.807432 1_555
O123 Si12 1.674290 1_555
O123 Ti7 1.994403 1_555
O124 Si14 1.733080 1_565
O124 Ti6 1.867062 1_555
O125 S6 1.535116 1_565
O125 Ti7 2.123411 1_555
O126 S4 1.487140 1_565
O126 Ti8 2.235397 1_555
O127 Si10 1.669013 1_565
O127 Ti9 1.900333 1_555
O128 S5 1.528897 1_555
O128 Ti8 2.157226 1_555
O129 Si11 1.704799 1_555
O129 Ti9 1.918921 1_555
O130 Si9 1.674094 1_455
O130 Ti8 2.012159 1_555
O131 Si8 1.655313 1_555
O131 Ti9 1.938872 1_555
O132 Si0 1.660750 1_565
O132 Ti10 2.019793 1_555
O133 Si1 1.633588 1_565
O134 Si2 1.673828 1_555
O134 Ti10 1.916715 1_555
O135 Si3 1.633576 1_555
O136 S0 1.503409 1_555
O136 Ti10 2.427036 1_555
O137 S1 1.495750 1_555
O138 Si4 1.640218 1_555
O139 Si5 1.664270 1_555
O139 Ti11 1.983003 1_555
O140 S2 1.504955 1_455
O141 S3 1.501464 1_555
O141 Ti11 2.384242 1_555
O142 Si6 1.640357 1_565
O143 Si7 1.679978 1_565
O143 Ti11 1.883893 1_555
