# generated using pymatgen
data_Na5ZrZn3P3(SO8)3
_symmetry_space_group_name_H-M   'P 1'
_cell_length_a   8.95991721
_cell_length_b   8.97547728
_cell_length_c   22.52351002
_cell_angle_alpha   90.15850277
_cell_angle_beta   89.64202563
_cell_angle_gamma   119.91045111
_symmetry_Int_Tables_number   1
_chemical_formula_structural   Na5ZrZn3P3(SO8)3
_chemical_formula_sum   'Na15 Zr3 Zn9 P9 S9 O72'
_cell_volume   1570.04073351
_cell_formula_units_Z   3
loop_
 _symmetry_equiv_pos_site_id
 _symmetry_equiv_pos_as_xyz
  1  'x, y, z'
loop_
 _atom_site_type_symbol
 _atom_site_label
 _atom_site_symmetry_multiplicity
 _atom_site_fract_x
 _atom_site_fract_y
 _atom_site_fract_z
 _atom_site_occupancy
  Na  Na0  1  0.00213972  0.63408062  0.25398143  1
  Na  Na1  1  0.29993085  0.33959710  0.58787389  1
  Na  Na2  1  0.02917886  0.69477200  0.58225354  1
  Na  Na3  1  0.67026593  0.96146567  0.58108608  1
  Na  Na4  1  0.66833307  0.70111032  0.08269327  1
  Na  Na5  1  0.03608064  0.34004790  0.08563411  1
  Na  Na6  1  0.97784072  0.68068419  0.91202758  1
  Na  Na7  1  0.32354865  0.29429428  0.90786901  1
  Na  Na8  1  0.70242460  0.67816606  0.41601280  1
  Na  Na9  1  0.99867770  0.00341763  0.49531475  1
  Na  Na10  1  0.00017209  0.99481051  0.99590176  1
  Na  Na11  1  0.65822117  0.32107754  0.82152906  1
  Na  Na12  1  0.65633536  0.30731738  0.33024460  1
  Na  Na13  1  0.33610204  0.67759065  0.17103395  1
  Na  Na14  1  0.33202105  0.65459681  0.66409971  1
  Zr  Zr0  1  0.66893179  0.33253365  0.97970088  1
  Zr  Zr1  1  0.67923589  0.33349448  0.47944010  1
  Zr  Zr2  1  0.33584602  0.66394484  0.81261263  1
  Zn  Zn0  1  0.00053499  0.00380389  0.35176463  1
  Zn  Zn1  1  0.00173206  0.00870953  0.84677207  1
  Zn  Zn2  1  0.99882434  0.00902673  0.65463533  1
  Zn  Zn3  1  0.00468079  0.99209510  0.15568143  1
  Zn  Zn4  1  0.66523837  0.34488122  0.68366767  1
  Zn  Zn5  1  0.66783156  0.33175289  0.18449220  1
  Zn  Zn6  1  0.32549625  0.67243076  0.01090965  1
  Zn  Zn7  1  0.33199067  0.66742615  0.50958131  1
  Zn  Zn8  1  0.33567646  0.67631993  0.32290362  1
  P  P0  1  0.29857761  0.28944419  0.74956485  1
  P  P1  1  0.96335824  0.33475906  0.58729088  1
  P  P2  1  0.66525410  0.62958227  0.58429516  1
  P  P3  1  0.96620369  0.63193544  0.08625886  1
  P  P4  1  0.62988181  0.67484021  0.92053364  1
  P  P5  1  0.04268790  0.36903137  0.91925589  1
  P  P6  1  0.32943039  0.95825022  0.91742738  1
  P  P7  1  0.62806957  0.95682722  0.41610786  1
  P  P8  1  0.04440424  0.67446794  0.41531952  1
  S  S0  1  0.29631108  0.00230840  0.24997479  1
  S  S1  1  0.69935597  0.70234065  0.24928083  1
  S  S2  1  0.00157320  0.29367332  0.24856826  1
  S  S3  1  0.99733922  0.70590302  0.75018635  1
  S  S4  1  0.70836195  0.00433513  0.74951917  1
  S  S5  1  0.37317439  0.03913874  0.58511347  1
  S  S6  1  0.66421646  0.03561160  0.08589421  1
  S  S7  1  0.36897422  0.33093589  0.08520080  1
  S  S8  1  0.32985067  0.37073010  0.41657859  1
  O  O0  1  0.21322228  0.02518992  0.30296009  1
  O  O1  1  0.81110532  0.78532307  0.30167341  1
  O  O2  1  0.98083824  0.18677340  0.30025642  1
  O  O3  1  0.21514888  0.19011768  0.80723701  1
  O  O4  1  0.97887453  0.78661181  0.80501459  1
  O  O5  1  0.80932612  0.02051565  0.80221233  1
  O  O6  1  0.77702983  0.97299239  0.69379941  1
  O  O7  1  0.19180727  0.21392074  0.69270655  1
  O  O8  1  0.02180092  0.80715006  0.69586580  1
  O  O9  1  0.77844384  0.80420565  0.19368498  1
  O  O10  1  0.02001636  0.21629663  0.19175356  1
  O  O11  1  0.19103860  0.97335244  0.19554752  1
  O  O12  1  0.87409433  0.36319664  0.64008068  1
  O  O13  1  0.48077464  0.11858278  0.63715765  1
  O  O14  1  0.63004417  0.51002263  0.63667881  1
  O  O15  1  0.87702501  0.51527474  0.14062046  1
  O  O16  1  0.64099231  0.11991148  0.13852018  1
  O  O17  1  0.48140134  0.35455242  0.13620179  1
  O  O18  1  0.45167578  0.30923978  0.02922128  1
  O  O19  1  0.84697334  0.53744225  0.02983936  1
  O  O20  1  0.68747747  0.14641275  0.03173261  1
  O  O21  1  0.45690478  0.14873602  0.53107226  1
  O  O22  1  0.69129140  0.54231335  0.52671847  1
  O  O23  1  0.84672470  0.30600376  0.53063148  1
  O  O24  1  0.54963852  0.69290813  0.97817848  1
  O  O25  1  0.14660016  0.44523554  0.97618289  1
  O  O26  1  0.29836349  0.85050778  0.97268251  1
  O  O27  1  0.55317930  0.85240538  0.47430900  1
  O  O28  1  0.30744705  0.44422016  0.47290724  1
  O  O29  1  0.14238028  0.69116099  0.47302384  1
  O  O30  1  0.11645660  0.63961634  0.35844297  1
  O  O31  1  0.51878095  0.87632152  0.36175017  1
  O  O32  1  0.36422398  0.48255601  0.36493747  1
  O  O33  1  0.13026537  0.49346980  0.86583524  1
  O  O34  1  0.35927402  0.87315648  0.86217155  1
  O  O35  1  0.50789384  0.63804872  0.86662222  1
  O  O36  1  0.01195306  0.82837993  0.41088939  1
  O  O37  1  0.81062785  0.97808410  0.41066182  1
  O  O38  1  0.17994166  0.19644025  0.41023807  1
  O  O39  1  0.02183601  0.19170545  0.91030590  1
  O  O40  1  0.17161760  0.98272006  0.91049453  1
  O  O41  1  0.81357666  0.82215550  0.91092106  1
  O  O42  1  0.97924964  0.16990287  0.58851786  1
  O  O43  1  0.19935657  0.02217706  0.58837214  1
  O  O44  1  0.83316609  0.80761426  0.58836939  1
  O  O45  1  0.97045861  0.80647170  0.08893380  1
  O  O46  1  0.82706461  0.02851291  0.08774208  1
  O  O47  1  0.19483667  0.18020298  0.08868705  1
  O  O48  1  0.68598549  0.15628152  0.74496443  1
  O  O49  1  0.48091193  0.31313306  0.74535854  1
  O  O50  1  0.84693645  0.53046474  0.74678501  1
  O  O51  1  0.69078568  0.53018218  0.24445264  1
  O  O52  1  0.84493038  0.31641229  0.24594349  1
  O  O53  1  0.47129658  0.15741821  0.24362117  1
  O  O54  1  0.64077199  0.50174022  0.92355814  1
  O  O55  1  0.86285471  0.36094984  0.92348185  1
  O  O56  1  0.49201273  0.14367678  0.92297739  1
  O  O57  1  0.64591454  0.14043953  0.42312457  1
  O  O58  1  0.49204523  0.35692670  0.42224181  1
  O  O59  1  0.85386170  0.50985007  0.42112651  1
  O  O60  1  0.35764498  0.49029707  0.08010523  1
  O  O61  1  0.14174809  0.64189559  0.07852371  1
  O  O62  1  0.51682640  0.86214591  0.07953274  1
  O  O63  1  0.35358308  0.86510829  0.57791364  1
  O  O64  1  0.50487967  0.65186055  0.57751949  1
  O  O65  1  0.14334977  0.49666401  0.57840973  1
  O  O66  1  0.30960005  0.84246334  0.25409515  1
  O  O67  1  0.52587308  0.68052545  0.25506727  1
  O  O68  1  0.15517216  0.47046720  0.25241037  1
  O  O69  1  0.31638243  0.47588878  0.75630097  1
  O  O70  1  0.15838863  0.68967616  0.75511150  1
  O  O71  1  0.53034187  0.84522394  0.75558971  1
loop_
_geom_bond_atom_site_label_1
_geom_bond_atom_site_label_2
_geom_bond_distance
_geom_bond_site_symmetry_2
Na0 O66 2.439010 1_555
Na0 O68 2.458669 1_555
Na0 O51 2.471854 1_455
Na0 O52 2.478182 1_455
Na0 O30 2.562454 1_555
Na0 O15 2.782371 1_455
Na0 O1 2.865756 1_455
Na0 O11 2.953641 1_555
Na1 O65 2.445194 1_555
Na1 O64 2.479353 1_555
Na1 O42 2.492173 1_455
Na1 O43 2.523613 1_555
Na1 O7 2.585056 1_555
Na1 O28 2.745871 1_555
Na1 O14 2.795694 1_555
Na1 O21 2.986271 1_555
Na2 O44 2.428859 1_455
Na2 O65 2.455136 1_555
Na2 O63 2.522096 1_555
Na2 O43 2.551703 1_565
Na2 O29 2.661528 1_555
Na2 O8 2.760444 1_555
Na2 O12 2.891159 1_455
Na2 O22 2.916996 1_455
Na3 O64 2.412037 1_555
Na3 O42 2.455847 1_565
Na3 O44 2.465444 1_555
Na3 O63 2.521719 1_555
Na3 O27 2.614791 1_555
Na3 O6 2.702030 1_555
Na3 O23 2.911196 1_565
Na3 O13 2.969413 1_565
Na4 O45 2.386003 1_555
Na4 O62 2.428060 1_555
Na4 O60 2.466022 1_555
Na4 O46 2.550126 1_565
Na4 O24 2.574915 1_554
Na4 O9 2.680816 1_555
Na4 O19 2.906630 1_555
Na4 O17 2.955158 1_555
Na5 O61 2.388382 1_555
Na5 O46 2.470896 1_455
Na5 O47 2.474547 1_555
Na5 O60 2.501377 1_555
Na5 O10 2.611198 1_555
Na5 O25 2.645614 1_554
Na5 O15 2.870681 1_455
Na5 O20 2.978653 1_455
Na6 O41 2.375611 1_555
Na6 O40 2.381279 1_655
Na6 O55 2.532930 1_555
Na6 O4 2.591759 1_555
Na6 O54 2.631180 1_555
Na6 O33 2.834146 1_655
Na6 O26 2.847671 1_655
Na6 O19 2.923292 1_556
Na7 O39 2.382182 1_555
Na7 O40 2.424976 1_545
Na7 O3 2.462746 1_555
Na7 O56 2.503132 1_555
Na7 O54 2.530095 1_555
Na7 O35 2.832851 1_555
Na7 O18 2.947937 1_556
Na7 O25 2.969278 1_555
Na8 O37 2.366099 1_555
Na8 O36 2.406321 1_655
Na8 O59 2.486727 1_555
Na8 O58 2.542608 1_555
Na8 O1 2.748436 1_555
Na8 O22 2.758007 1_555
Na8 O27 2.830239 1_555
Na8 O32 2.883554 1_555
Na9 O37 2.486308 1_545
Na9 O36 2.503050 1_645
Na9 O38 2.546465 1_655
Na9 O42 2.628227 1_555
Na9 O44 2.657632 1_545
Na9 O43 2.719877 1_655
Na10 O40 2.490014 1_555
Na10 O41 2.509983 1_455
Na10 O39 2.559240 1_565
Na10 O45 2.623542 1_456
Na10 O46 2.683378 1_466
Na10 O47 2.703768 1_566
Na11 O49 2.322232 1_555
Na11 O48 2.360316 1_555
Na11 O50 2.457229 1_555
Na11 O56 2.754443 1_555
Na11 O55 2.855981 1_555
Na11 O54 2.857024 1_555
Na12 O53 2.483317 1_555
Na12 O52 2.508097 1_555
Na12 O57 2.550287 1_555
Na12 O51 2.688612 1_555
Na12 O58 2.696140 1_555
Na12 O59 2.728196 1_555
Na13 O66 2.464914 1_555
Na13 O68 2.533704 1_555
Na13 O67 2.543522 1_555
Na13 O62 2.629742 1_555
Na13 O61 2.638554 1_555
Na13 O60 2.712424 1_555
Na14 O64 2.490414 1_555
Na14 O65 2.495590 1_555
Na14 O69 2.587612 1_555
Na14 O63 2.650884 1_555
Na14 O70 2.677056 1_555
Na14 O71 2.706567 1_555
O0 S0 1.469923 1_555
O0 Zn0 2.118237 1_555
O1 S1 1.488621 1_555
O1 Zn0 2.165974 1_665
O2 S2 1.461567 1_655
O2 Zn0 2.091930 1_655
O3 P0 1.539666 1_555
O3 Zn1 1.995555 1_555
O4 S3 1.479589 1_555
O4 Zn1 2.117826 1_665
O5 S4 1.459269 1_555
O5 Zn1 2.048143 1_655
O6 S4 1.481124 1_565
O6 Zn2 2.042208 1_565
O7 P0 1.542247 1_555
O7 Zn2 1.986371 1_455
O8 S3 1.474768 1_455
O8 Zn2 2.138134 1_465
O9 S1 1.501740 1_555
O9 Zn3 2.064641 1_655
O10 S2 1.501355 1_555
O10 Zn3 2.108317 1_545
O11 S0 1.492735 1_565
O11 Zn3 1.980489 1_555
O12 P1 1.519407 1_555
O12 Zn4 2.040551 1_555
O13 S5 1.461478 1_555
O13 Zn4 2.148611 1_555
O14 P2 1.519174 1_555
O14 Zn4 1.973707 1_555
O15 P3 1.547420 1_555
O15 Zn5 2.027237 1_555
O16 S6 1.473008 1_555
O16 Zn5 2.069165 1_555
O17 S7 1.476274 1_555
O17 Zn5 2.092837 1_555
O18 S7 1.519088 1_555
O18 Zr0 2.155292 1_554
O19 P3 1.607115 1_555
O19 Zr0 2.070664 1_554
O20 S6 1.522321 1_555
O20 Zr0 2.117026 1_554
O21 S5 1.507074 1_555
O21 Zr1 2.181269 1_555
O22 P2 1.588256 1_555
O22 Zr1 2.108774 1_555
O23 P1 1.591590 1_555
O23 Zr1 2.008693 1_555
O24 P4 1.527226 1_555
O24 Zn6 2.055399 1_556
O25 P5 1.534167 1_555
O25 Zn6 2.021492 1_556
O26 P6 1.515059 1_555
O26 Zn6 1.937221 1_556
O27 P7 1.554260 1_555
O27 Zn7 2.005364 1_555
O28 S8 1.486358 1_555
O28 Zn7 2.073153 1_555
O29 P8 1.537634 1_555
O29 Zn7 1.997248 1_555
O30 P8 1.531205 1_555
O30 Zn8 1.985907 1_555
O31 P7 1.511423 1_555
O31 Zn8 1.936933 1_555
O32 S8 1.465893 1_555
O32 Zn8 2.107625 1_555
O33 P5 1.559655 1_555
O33 Zr2 2.083964 1_555
O34 P6 1.548547 1_555
O34 Zr2 2.101029 1_555
O35 P4 1.559671 1_555
O35 Zr2 2.071838 1_555
O36 P8 1.550664 1_555
O36 Zn0 2.106401 1_565
O37 P7 1.553504 1_555
O37 Zn0 2.071260 1_665
O38 S8 1.475578 1_555
O38 Zn0 2.133080 1_555
O39 P5 1.520141 1_555
O39 Zn1 2.114972 1_555
O40 P6 1.544230 1_555
O40 Zn1 2.194220 1_565
O41 P4 1.526728 1_555
O41 Zn1 2.213857 1_665
O42 P1 1.555901 1_555
O42 Zn2 2.145031 1_555
O43 S5 1.488696 1_555
O43 Zn2 2.285982 1_455
O44 P2 1.558402 1_555
O44 Zn2 2.244013 1_565
O45 P3 1.548902 1_555
O45 Zn3 2.147646 1_655
O46 S6 1.492739 1_555
O46 Zn3 2.352247 1_645
O47 S7 1.471329 1_555
O47 Zn3 2.267932 1_545
O48 S4 1.477960 1_555
O48 Zn4 2.266296 1_555
O49 P0 1.541078 1_555
O49 Zn4 2.060021 1_555
O50 S3 1.478435 1_555
O50 Zn4 2.181137 1_555
O51 S1 1.512025 1_555
O51 Zn5 2.159402 1_555
O52 S2 1.517153 1_655
O52 Zn5 2.167714 1_555
O53 S0 1.496093 1_555
O53 Zn5 2.134773 1_555
O54 P4 1.606195 1_555
O54 Zr0 2.089483 1_555
O55 P5 1.578652 1_655
O55 Zr0 2.054215 1_555
O56 P6 1.578232 1_545
O56 Zr0 2.086140 1_555
O57 P7 1.581949 1_545
O57 Zr1 2.043805 1_555
O58 S8 1.524965 1_555
O58 Zr1 2.212983 1_555
O59 P8 1.611672 1_655
O59 Zr1 2.048066 1_555
O60 S7 1.488358 1_555
O60 Zn6 2.381945 1_555
O61 P3 1.539051 1_455
O61 Zn6 2.150783 1_555
O62 S6 1.462593 1_565
O62 Zn6 2.309687 1_555
O63 S5 1.490799 1_565
O63 Zn7 2.280481 1_555
O64 P2 1.554842 1_555
O64 Zn7 2.237701 1_555
O65 P1 1.553363 1_455
O65 Zn7 2.237425 1_555
O66 S0 1.500783 1_565
O66 Zn8 2.246108 1_555
O67 S1 1.471578 1_555
O67 Zn8 2.267970 1_555
O68 S2 1.497429 1_555
O68 Zn8 2.363501 1_555
O69 P0 1.606703 1_555
O69 Zr2 2.045833 1_555
O70 S3 1.525588 1_455
O70 Zr2 2.156944 1_555
O71 S4 1.526097 1_565
O71 Zr2 2.118878 1_555
