# generated using pymatgen
data_Ce3(InRu)2
_symmetry_space_group_name_H-M   'P 1'
_cell_length_a   4.98355411
_cell_length_b   7.72310623
_cell_length_c   17.32898500
_cell_angle_alpha   90.00000000
_cell_angle_beta   90.00000000
_cell_angle_gamma   90.00000000
_symmetry_Int_Tables_number   1
_chemical_formula_structural   Ce3(InRu)2
_chemical_formula_sum   'Ce12 In8 Ru8'
_cell_volume   666.96694753
_cell_formula_units_Z   4
loop_
 _symmetry_equiv_pos_site_id
 _symmetry_equiv_pos_as_xyz
  1  'x, y, z'
loop_
 _atom_site_type_symbol
 _atom_site_label
 _atom_site_symmetry_multiplicity
 _atom_site_fract_x
 _atom_site_fract_y
 _atom_site_fract_z
 _atom_site_occupancy
  Ce  Ce0  1  0.25000000  0.27300646  0.17157651  1
  Ce  Ce1  1  0.75000000  0.72699354  0.82842349  1
  Ce  Ce2  1  0.75000000  0.77300646  0.32842349  1
  Ce  Ce3  1  0.25000000  0.22699354  0.67157651  1
  Ce  Ce4  1  0.25000000  0.48959048  0.92380816  1
  Ce  Ce5  1  0.75000000  0.51040952  0.07619184  1
  Ce  Ce6  1  0.75000000  0.98959048  0.57619184  1
  Ce  Ce7  1  0.25000000  0.01040952  0.42380816  1
  Ce  Ce8  1  0.25000000  0.03700759  0.86079199  1
  Ce  Ce9  1  0.75000000  0.96299241  0.13920801  1
  Ce  Ce10  1  0.75000000  0.53700759  0.63920801  1
  Ce  Ce11  1  0.25000000  0.46299241  0.36079199  1
  In  In0  1  0.75000000  0.28848481  0.80046107  1
  In  In1  1  0.75000000  0.21151519  0.30046107  1
  In  In2  1  0.25000000  0.78848481  0.69953893  1
  In  In3  1  0.25000000  0.84093068  0.02879240  1
  In  In4  1  0.75000000  0.15906932  0.97120760  1
  In  In5  1  0.75000000  0.34093068  0.47120760  1
  In  In6  1  0.25000000  0.65906932  0.52879240  1
  In  In7  1  0.25000000  0.71151519  0.19953893  1
  Ru  Ru0  1  0.75000000  0.52547066  0.20584981  1
  Ru  Ru1  1  0.75000000  0.97452934  0.70584981  1
  Ru  Ru2  1  0.25000000  0.02547066  0.29415019  1
  Ru  Ru3  1  0.25000000  0.27622030  0.54536690  1
  Ru  Ru4  1  0.75000000  0.72377970  0.45463310  1
  Ru  Ru5  1  0.75000000  0.77622030  0.95463310  1
  Ru  Ru6  1  0.25000000  0.22377970  0.04536690  1
  Ru  Ru7  1  0.25000000  0.47452934  0.79415019  1
loop_
_geom_bond_atom_site_label_1
_geom_bond_atom_site_label_2
_geom_bond_distance
_geom_bond_site_symmetry_2
Ce0 Ru6 2.219882 1_555
Ce0 In1 3.379754 1_555
Ce0 In1 3.379754 1_455
Ce0 In7 3.421139 1_555
Ce0 Ce9 3.500873 1_445
Ce0 Ce9 3.500873 1_545
Ce0 Ce11 3.592239 1_555
Ce1 Ru5 2.219882 1_555
Ce1 In2 3.379754 1_655
Ce1 In2 3.379754 1_555
Ce1 In0 3.421139 1_555
Ce1 Ce8 3.500873 1_665
Ce1 Ce8 3.500873 1_565
Ce1 Ce10 3.592239 1_555
Ce2 Ru4 2.219882 1_555
Ce2 In7 3.379754 1_655
Ce2 In7 3.379754 1_555
Ce2 In1 3.421139 1_565
Ce2 Ce9 3.592239 1_555
Ce3 Ru3 2.219882 1_555
Ce3 In0 3.379754 1_555
Ce3 In0 3.379754 1_455
Ce3 In2 3.421139 1_545
Ce3 Ce8 3.592239 1_555
Ce4 Ru7 2.249850 1_555
Ce4 In3 3.266877 1_556
Ce4 In0 3.631815 1_455
Ce4 In0 3.631815 1_555
Ce4 Ce8 3.661956 1_555
Ce5 Ru0 2.249850 1_555
Ce5 In4 3.266877 1_554
Ce5 In7 3.631815 1_555
Ce5 In7 3.631815 1_655
Ce5 Ce9 3.661956 1_555
Ce6 Ru1 2.249850 1_555
Ce6 In5 3.266877 1_565
Ce6 In2 3.631815 1_555
Ce6 In2 3.631815 1_655
Ce7 Ru2 2.249850 1_555
Ce7 In6 3.266877 1_545
Ce7 In1 3.631815 1_455
Ce7 In1 3.631815 1_555
Ce8 In4 3.280044 1_555
Ce8 In4 3.280044 1_455
Ce8 In3 3.281570 1_546
Ce8 In0 3.327770 1_455
Ce8 In0 3.327770 1_555
Ce8 In2 3.390041 1_545
Ce8 Ru6 3.508713 1_556
Ce8 Ru7 3.570920 1_555
Ce8 Ru5 3.593040 1_545
Ce8 Ru5 3.593040 1_445
Ce8 Ru1 3.694720 1_545
Ce8 Ru1 3.694720 1_445
Ce9 In3 3.280044 1_555
Ce9 In3 3.280044 1_655
Ce9 In4 3.281570 1_564
Ce9 In7 3.327770 1_655
Ce9 In7 3.327770 1_555
Ce9 In1 3.390041 1_565
Ce9 Ru5 3.508713 1_554
Ce9 Ru0 3.570920 1_555
Ce9 Ru6 3.593040 1_565
Ce9 Ru6 3.593040 1_665
Ce9 Ru2 3.694720 1_665
Ce9 Ru2 3.694720 1_565
Ce10 In6 3.280044 1_655
Ce10 In6 3.280044 1_555
Ce10 In5 3.281570 1_555
Ce10 In2 3.327770 1_555
Ce10 In2 3.327770 1_655
Ce10 In0 3.390041 1_555
Ce10 Ce3 3.500873 1_655
Ce10 Ce3 3.500873 1_555
Ce10 Ru4 3.508713 1_555
Ce10 Ru1 3.570920 1_555
Ce10 Ru3 3.593040 1_655
Ce10 Ru3 3.593040 1_555
Ce10 Ce6 3.661956 1_555
Ce10 Ru7 3.694720 1_655
Ce10 Ru7 3.694720 1_555
Ce11 In5 3.280044 1_455
Ce11 In5 3.280044 1_555
Ce11 In6 3.281570 1_555
Ce11 In1 3.327770 1_555
Ce11 In1 3.327770 1_455
Ce11 In7 3.390041 1_555
Ce11 Ce2 3.500873 1_455
Ce11 Ce2 3.500873 1_555
Ce11 Ru3 3.508713 1_555
Ce11 Ru2 3.570920 1_555
Ce11 Ru4 3.593040 1_455
Ce11 Ru4 3.593040 1_555
Ce11 Ce7 3.661956 1_555
Ce11 Ru0 3.694720 1_555
Ce11 Ru0 3.694720 1_455
In0 Ru7 2.878442 1_655
In0 Ru7 2.878442 1_555
In0 Ru1 2.926985 1_545
In0 In4 3.123116 1_555
In1 Ru2 2.878442 1_655
In1 Ru2 2.878442 1_555
In1 Ru0 2.926985 1_555
In1 In5 3.123116 1_555
In2 Ru1 2.878442 1_555
In2 Ru1 2.878442 1_455
In2 Ru7 2.926985 1_555
In2 In6 3.123116 1_555
In3 Ru5 2.847844 1_554
In3 Ru5 2.847844 1_454
In3 Ru6 2.970701 1_565
In3 In7 3.123116 1_555
In4 Ru6 2.847844 1_656
In4 Ru6 2.847844 1_556
In4 Ru5 2.970701 1_545
In5 Ru3 2.847844 1_655
In5 Ru3 2.847844 1_555
In5 Ru4 2.970701 1_555
In6 Ru4 2.847844 1_455
In6 Ru4 2.847844 1_555
In6 Ru3 2.970701 1_555
In7 Ru0 2.878442 1_555
In7 Ru0 2.878442 1_455
In7 Ru2 2.926985 1_565
