# generated using pymatgen
data_MgTe4Mo3W(SeS)2
_symmetry_space_group_name_H-M   'P 1'
_cell_length_a   6.77307600
_cell_length_b   6.77254469
_cell_length_c   77.23702801
_cell_angle_alpha   90.00142868
_cell_angle_beta   89.99993056
_cell_angle_gamma   120.00194154
_symmetry_Int_Tables_number   1
_chemical_formula_structural   MgTe4Mo3W(SeS)2
_chemical_formula_sum   'Mg8 Te32 Mo24 W8 Se16 S16'
_cell_volume   3068.21308177
_cell_formula_units_Z   8
loop_
 _symmetry_equiv_pos_site_id
 _symmetry_equiv_pos_as_xyz
  1  'x, y, z'
loop_
 _atom_site_type_symbol
 _atom_site_label
 _atom_site_symmetry_multiplicity
 _atom_site_fract_x
 _atom_site_fract_y
 _atom_site_fract_z
 _atom_site_occupancy
  Mg  Mg0_0  1  0.37052200  0.20019550  0.43706150  1
  Mg  Mg0_1  1  0.37052200  0.20019550  0.93706150  1
  Mg  Mg0_2  1  0.37052200  0.70019550  0.43706150  1
  Mg  Mg0_3  1  0.37052200  0.70019550  0.93706150  1
  Mg  Mg0_4  1  0.87052200  0.20019550  0.43706150  1
  Mg  Mg0_5  1  0.87052200  0.20019550  0.93706150  1
  Mg  Mg0_6  1  0.87052200  0.70019550  0.43706150  1
  Mg  Mg0_7  1  0.87052200  0.70019550  0.93706150  1
  Te  Te0_0  1  0.16667000  0.33334400  0.35306700  1
  Te  Te0_1  1  0.16667000  0.33334400  0.85306700  1
  Te  Te0_2  1  0.16667000  0.83334400  0.35306700  1
  Te  Te0_3  1  0.16667000  0.83334400  0.85306700  1
  Te  Te0_4  1  0.66667000  0.33334400  0.35306700  1
  Te  Te0_5  1  0.66667000  0.33334400  0.85306700  1
  Te  Te0_6  1  0.66667000  0.83334400  0.35306700  1
  Te  Te0_7  1  0.66667000  0.83334400  0.85306700  1
  Te  Te1_0  1  0.33333050  0.16665900  0.02262950  1
  Te  Te1_1  1  0.33333050  0.16665900  0.52262950  1
  Te  Te1_2  1  0.33333050  0.66665900  0.02262950  1
  Te  Te1_3  1  0.33333050  0.66665900  0.52262950  1
  Te  Te1_4  1  0.83333050  0.16665900  0.02262950  1
  Te  Te1_5  1  0.83333050  0.16665900  0.52262950  1
  Te  Te1_6  1  0.83333050  0.66665900  0.02262950  1
  Te  Te1_7  1  0.83333050  0.66665900  0.52262950  1
  Te  Te2_0  1  0.33333600  0.16666700  0.07127000  1
  Te  Te2_1  1  0.33333600  0.16666700  0.57127000  1
  Te  Te2_2  1  0.33333600  0.66666700  0.07127000  1
  Te  Te2_3  1  0.33333600  0.66666700  0.57127000  1
  Te  Te2_4  1  0.83333600  0.16666700  0.07127000  1
  Te  Te2_5  1  0.83333600  0.16666700  0.57127000  1
  Te  Te2_6  1  0.83333600  0.66666700  0.07127000  1
  Te  Te2_7  1  0.83333600  0.66666700  0.57127000  1
  Te  Te3_0  1  0.16665950  0.33332350  0.30446450  1
  Te  Te3_1  1  0.16665950  0.33332350  0.80446450  1
  Te  Te3_2  1  0.16665950  0.83332350  0.30446450  1
  Te  Te3_3  1  0.16665950  0.83332350  0.80446450  1
  Te  Te3_4  1  0.66665950  0.33332350  0.30446450  1
  Te  Te3_5  1  0.66665950  0.33332350  0.80446450  1
  Te  Te3_6  1  0.66665950  0.83332350  0.30446450  1
  Te  Te3_7  1  0.66665950  0.83332350  0.80446450  1
  Mo  Mo0_0  1  0.16664600  0.33329550  0.04693000  1
  Mo  Mo0_1  1  0.16664600  0.33329550  0.54693000  1
  Mo  Mo0_2  1  0.16664600  0.83329550  0.04693000  1
  Mo  Mo0_3  1  0.16664600  0.83329550  0.54693000  1
  Mo  Mo0_4  1  0.66664600  0.33329550  0.04693000  1
  Mo  Mo0_5  1  0.66664600  0.33329550  0.54693000  1
  Mo  Mo0_6  1  0.66664600  0.83329550  0.04693000  1
  Mo  Mo0_7  1  0.66664600  0.83329550  0.54693000  1
  Mo  Mo1_0  1  0.33336100  0.16671850  0.14090650  1
  Mo  Mo1_1  1  0.33336100  0.16671850  0.64090650  1
  Mo  Mo1_2  1  0.33336100  0.66671850  0.14090650  1
  Mo  Mo1_3  1  0.33336100  0.66671850  0.64090650  1
  Mo  Mo1_4  1  0.83336100  0.16671850  0.14090650  1
  Mo  Mo1_5  1  0.83336100  0.16671850  0.64090650  1
  Mo  Mo1_6  1  0.83336100  0.66671850  0.14090650  1
  Mo  Mo1_7  1  0.83336100  0.66671850  0.64090650  1
  Mo  Mo2_0  1  0.33335100  0.16669900  0.32878700  1
  Mo  Mo2_1  1  0.33335100  0.16669900  0.82878700  1
  Mo  Mo2_2  1  0.33335100  0.66669900  0.32878700  1
  Mo  Mo2_3  1  0.33335100  0.66669900  0.82878700  1
  Mo  Mo2_4  1  0.83335100  0.16669900  0.32878700  1
  Mo  Mo2_5  1  0.83335100  0.16669900  0.82878700  1
  Mo  Mo2_6  1  0.83335100  0.66669900  0.32878700  1
  Mo  Mo2_7  1  0.83335100  0.66669900  0.82878700  1
  W  W0_0  1  0.16661550  0.33324250  0.23482450  1
  W  W0_1  1  0.16661550  0.33324250  0.73482450  1
  W  W0_2  1  0.16661550  0.83324250  0.23482450  1
  W  W0_3  1  0.16661550  0.83324250  0.73482450  1
  W  W0_4  1  0.66661550  0.33324250  0.23482450  1
  W  W0_5  1  0.66661550  0.33324250  0.73482450  1
  W  W0_6  1  0.66661550  0.83324250  0.23482450  1
  W  W0_7  1  0.66661550  0.83324250  0.73482450  1
  Se  Se0_0  1  0.16668700  0.33337500  0.16231150  1
  Se  Se0_1  1  0.16668700  0.33337500  0.66231150  1
  Se  Se0_2  1  0.16668700  0.83337500  0.16231150  1
  Se  Se0_3  1  0.16668700  0.83337500  0.66231150  1
  Se  Se0_4  1  0.66668700  0.33337500  0.16231150  1
  Se  Se0_5  1  0.66668700  0.33337500  0.66231150  1
  Se  Se0_6  1  0.66668700  0.83337500  0.16231150  1
  Se  Se0_7  1  0.66668700  0.83337500  0.66231150  1
  Se  Se1_0  1  0.16667750  0.33335350  0.11950950  1
  Se  Se1_1  1  0.16667750  0.33335350  0.61950950  1
  Se  Se1_2  1  0.16667750  0.83335350  0.11950950  1
  Se  Se1_3  1  0.16667750  0.83335350  0.61950950  1
  Se  Se1_4  1  0.66667750  0.33335350  0.11950950  1
  Se  Se1_5  1  0.66667750  0.33335350  0.61950950  1
  Se  Se1_6  1  0.66667750  0.83335350  0.11950950  1
  Se  Se1_7  1  0.66667750  0.83335350  0.61950950  1
  S  S0_0  1  0.33333200  0.16666000  0.21531200  1
  S  S0_1  1  0.33333200  0.16666000  0.71531200  1
  S  S0_2  1  0.33333200  0.66666000  0.21531200  1
  S  S0_3  1  0.33333200  0.66666000  0.71531200  1
  S  S0_4  1  0.83333200  0.16666000  0.21531200  1
  S  S0_5  1  0.83333200  0.16666000  0.71531200  1
  S  S0_6  1  0.83333200  0.66666000  0.21531200  1
  S  S0_7  1  0.83333200  0.66666000  0.71531200  1
  S  S1_0  1  0.33334000  0.16667700  0.25434850  1
  S  S1_1  1  0.33334000  0.16667700  0.75434850  1
  S  S1_2  1  0.33334000  0.66667700  0.25434850  1
  S  S1_3  1  0.33334000  0.66667700  0.75434850  1
  S  S1_4  1  0.83334000  0.16667700  0.25434850  1
  S  S1_5  1  0.83334000  0.16667700  0.75434850  1
  S  S1_6  1  0.83334000  0.66667700  0.25434850  1
  S  S1_7  1  0.83334000  0.66667700  0.75434850  1
loop_
_geom_bond_atom_site_label_1
_geom_bond_atom_site_label_2
_geom_bond_distance
_geom_bond_site_symmetry_2
Mg0_0 Mg0_2 3.386272 1_555
Mg0_0 Mg0_2 3.386272 1_545
Mg0_0 Mg0_6 3.386306 1_445
Mg0_0 Mg0_6 3.386306 1_555
Mg0_0 Mg0_4 3.386538 1_455
Mg0_0 Mg0_4 3.386538 1_555
Mg0_1 Mg0_3 3.386272 1_545
Mg0_1 Mg0_3 3.386272 1_555
Mg0_1 Mg0_7 3.386306 1_445
Mg0_1 Mg0_7 3.386306 1_555
Mg0_1 Mg0_5 3.386538 1_455
Mg0_1 Mg0_5 3.386538 1_555
Mg0_2 Mg0_4 3.386306 1_565
Mg0_2 Mg0_4 3.386306 1_455
Mg0_2 Mg0_6 3.386538 1_555
Mg0_2 Mg0_6 3.386538 1_455
Mg0_3 Mg0_5 3.386306 1_565
Mg0_3 Mg0_5 3.386306 1_455
Mg0_3 Mg0_7 3.386538 1_455
Mg0_3 Mg0_7 3.386538 1_555
Mg0_4 Mg0_6 3.386272 1_545
Mg0_4 Mg0_6 3.386272 1_555
Mg0_5 Mg0_7 3.386272 1_545
Mg0_5 Mg0_7 3.386272 1_555
Mo0_0 Te1_4 2.710161 1_455
Mo0_0 Te1_0 2.710168 1_555
Mo0_0 Te1_2 2.710309 1_555
Mo0_0 Te2_4 2.712287 1_455
Mo0_0 Te2_0 2.712312 1_555
Mo0_0 Te2_2 2.712381 1_555
Mo0_1 Te1_5 2.710161 1_455
Mo0_1 Te1_1 2.710168 1_555
Mo0_1 Te1_3 2.710309 1_555
Mo0_1 Te2_5 2.712287 1_455
Mo0_1 Te2_1 2.712312 1_555
Mo0_1 Te2_3 2.712381 1_555
Mo0_2 Te1_6 2.710161 1_455
Mo0_2 Te1_2 2.710168 1_555
Mo0_2 Te1_0 2.710309 1_565
Mo0_2 Te2_6 2.712287 1_455
Mo0_2 Te2_2 2.712312 1_555
Mo0_2 Te2_0 2.712381 1_565
Mo0_3 Te1_7 2.710161 1_455
Mo0_3 Te1_3 2.710168 1_555
Mo0_3 Te1_1 2.710309 1_565
Mo0_3 Te2_7 2.712287 1_455
Mo0_3 Te2_3 2.712312 1_555
Mo0_3 Te2_1 2.712381 1_565
Mo0_4 Te1_0 2.710161 1_555
Mo0_4 Te1_4 2.710168 1_555
Mo0_4 Te1_6 2.710309 1_555
Mo0_4 Te2_0 2.712287 1_555
Mo0_4 Te2_4 2.712312 1_555
Mo0_4 Te2_6 2.712381 1_555
Mo0_5 Te1_1 2.710161 1_555
Mo0_5 Te1_5 2.710168 1_555
Mo0_5 Te1_7 2.710309 1_555
Mo0_5 Te2_1 2.712287 1_555
Mo0_5 Te2_5 2.712312 1_555
Mo0_5 Te2_7 2.712381 1_555
Mo0_6 Te1_2 2.710161 1_555
Mo0_6 Te1_6 2.710168 1_555
Mo0_6 Te1_4 2.710309 1_565
Mo0_6 Te2_2 2.712287 1_555
Mo0_6 Te2_6 2.712312 1_555
Mo0_6 Te2_4 2.712381 1_565
Mo0_7 Te1_3 2.710161 1_555
Mo0_7 Te1_7 2.710168 1_555
Mo0_7 Te1_5 2.710309 1_565
Mo0_7 Te2_3 2.712287 1_555
Mo0_7 Te2_7 2.712312 1_555
Mo0_7 Te2_5 2.712381 1_565
Mo1_0 Se1_0 2.560007 1_555
Mo1_0 Se1_4 2.560010 1_555
Mo1_0 Se1_2 2.560058 1_545
Mo1_0 Se0_4 2.560418 1_555
Mo1_0 Se0_0 2.560421 1_555
Mo1_0 Se0_2 2.560431 1_545
Mo1_1 Se1_1 2.560007 1_555
Mo1_1 Se1_5 2.560010 1_555
Mo1_1 Se1_3 2.560058 1_545
Mo1_1 Se0_5 2.560418 1_555
Mo1_1 Se0_1 2.560421 1_555
Mo1_1 Se0_3 2.560431 1_545
Mo1_2 Se1_2 2.560007 1_555
Mo1_2 Se1_6 2.560010 1_555
Mo1_2 Se1_0 2.560058 1_555
Mo1_2 Se0_6 2.560418 1_555
Mo1_2 Se0_2 2.560421 1_555
Mo1_2 Se0_0 2.560431 1_555
Mo1_3 Se1_3 2.560007 1_555
Mo1_3 Se1_7 2.560010 1_555
Mo1_3 Se1_1 2.560058 1_555
Mo1_3 Se0_7 2.560418 1_555
Mo1_3 Se0_3 2.560421 1_555
Mo1_3 Se0_1 2.560431 1_555
Mo1_4 Se1_4 2.560007 1_555
Mo1_4 Se1_0 2.560010 1_655
Mo1_4 Se1_6 2.560058 1_545
Mo1_4 Se0_0 2.560418 1_655
Mo1_4 Se0_4 2.560421 1_555
Mo1_4 Se0_6 2.560431 1_545
Mo1_5 Se1_5 2.560007 1_555
Mo1_5 Se1_1 2.560010 1_655
Mo1_5 Se1_7 2.560058 1_545
Mo1_5 Se0_1 2.560418 1_655
Mo1_5 Se0_5 2.560421 1_555
Mo1_5 Se0_7 2.560431 1_545
Mo1_6 Se1_6 2.560007 1_555
Mo1_6 Se1_2 2.560010 1_655
Mo1_6 Se1_4 2.560058 1_555
Mo1_6 Se0_2 2.560418 1_655
Mo1_6 Se0_6 2.560421 1_555
Mo1_6 Se0_4 2.560431 1_555
Mo1_7 Se1_7 2.560007 1_555
Mo1_7 Se1_3 2.560010 1_655
Mo1_7 Se1_5 2.560058 1_555
Mo1_7 Se0_3 2.560418 1_655
Mo1_7 Se0_7 2.560421 1_555
Mo1_7 Se0_5 2.560431 1_555
Mo2_0 Te0_4 2.709080 1_555
Mo2_0 Te0_0 2.709093 1_555
Mo2_0 Te0_2 2.709177 1_545
Mo2_0 Te3_4 2.711344 1_555
Mo2_0 Te3_0 2.711364 1_555
Mo2_0 Te3_2 2.711461 1_545
Mo2_1 Te0_5 2.709080 1_555
Mo2_1 Te0_1 2.709093 1_555
Mo2_1 Te0_3 2.709177 1_545
Mo2_1 Te3_5 2.711344 1_555
Mo2_1 Te3_1 2.711364 1_555
Mo2_1 Te3_3 2.711461 1_545
Mo2_2 Te0_6 2.709080 1_555
Mo2_2 Te0_2 2.709093 1_555
Mo2_2 Te0_0 2.709177 1_555
Mo2_2 Te3_6 2.711344 1_555
Mo2_2 Te3_2 2.711364 1_555
Mo2_2 Te3_0 2.711461 1_555
Mo2_3 Te0_7 2.709080 1_555
Mo2_3 Te0_3 2.709093 1_555
Mo2_3 Te0_1 2.709177 1_555
Mo2_3 Te3_7 2.711344 1_555
Mo2_3 Te3_3 2.711364 1_555
Mo2_3 Te3_1 2.711461 1_555
Mo2_4 Te0_0 2.709080 1_655
Mo2_4 Te0_4 2.709093 1_555
Mo2_4 Te0_6 2.709177 1_545
Mo2_4 Te3_0 2.711344 1_655
Mo2_4 Te3_4 2.711364 1_555
Mo2_4 Te3_6 2.711461 1_545
Mo2_5 Te0_1 2.709080 1_655
Mo2_5 Te0_5 2.709093 1_555
Mo2_5 Te0_7 2.709177 1_545
Mo2_5 Te3_1 2.711344 1_655
Mo2_5 Te3_5 2.711364 1_555
Mo2_5 Te3_7 2.711461 1_545
Mo2_6 Te0_2 2.709080 1_655
Mo2_6 Te0_6 2.709093 1_555
Mo2_6 Te0_4 2.709177 1_555
Mo2_6 Te3_2 2.711344 1_655
Mo2_6 Te3_6 2.711364 1_555
Mo2_6 Te3_4 2.711461 1_555
Mo2_7 Te0_3 2.709080 1_655
Mo2_7 Te0_7 2.709093 1_555
Mo2_7 Te0_5 2.709177 1_555
Mo2_7 Te3_3 2.711344 1_655
Mo2_7 Te3_7 2.711364 1_555
Mo2_7 Te3_5 2.711461 1_555
S0_0 W0_4 2.468365 1_555
S0_0 W0_0 2.468419 1_555
S0_0 W0_2 2.468915 1_545
S0_1 W0_5 2.468365 1_555
S0_1 W0_1 2.468419 1_555
S0_1 W0_3 2.468915 1_545
S0_2 W0_6 2.468365 1_555
S0_2 W0_2 2.468419 1_555
S0_2 W0_0 2.468915 1_555
S0_3 W0_7 2.468365 1_555
S0_3 W0_3 2.468419 1_555
S0_3 W0_1 2.468915 1_555
S0_4 W0_0 2.468365 1_655
S0_4 W0_4 2.468419 1_555
S0_4 W0_6 2.468915 1_545
S0_5 W0_1 2.468365 1_655
S0_5 W0_5 2.468419 1_555
S0_5 W0_7 2.468915 1_545
S0_6 W0_2 2.468365 1_655
S0_6 W0_6 2.468419 1_555
S0_6 W0_4 2.468915 1_555
S0_7 W0_3 2.468365 1_655
S0_7 W0_7 2.468419 1_555
S0_7 W0_5 2.468915 1_555
S1_0 W0_4 2.468901 1_555
S1_0 W0_0 2.468955 1_555
S1_0 W0_2 2.469469 1_545
S1_1 W0_5 2.468901 1_555
S1_1 W0_1 2.468955 1_555
S1_1 W0_3 2.469469 1_545
S1_2 W0_6 2.468901 1_555
S1_2 W0_2 2.468955 1_555
S1_2 W0_0 2.469469 1_555
S1_3 W0_7 2.468901 1_555
S1_3 W0_3 2.468955 1_555
S1_3 W0_1 2.469469 1_555
S1_4 W0_0 2.468901 1_655
S1_4 W0_4 2.468955 1_555
S1_4 W0_6 2.469469 1_545
S1_5 W0_1 2.468901 1_655
S1_5 W0_5 2.468955 1_555
S1_5 W0_7 2.469469 1_545
S1_6 W0_2 2.468901 1_655
S1_6 W0_6 2.468955 1_555
S1_6 W0_4 2.469469 1_555
S1_7 W0_3 2.468901 1_655
S1_7 W0_7 2.468955 1_555
S1_7 W0_5 2.469469 1_555
