# generated using pymatgen
data_LiSnPO4
_symmetry_space_group_name_H-M   'P 1'
_cell_length_a   10.00729800
_cell_length_b   5.76403300
_cell_length_c   8.96340949
_cell_angle_alpha   58.51322809
_cell_angle_beta   90.00000000
_cell_angle_gamma   90.00000000
_symmetry_Int_Tables_number   1
_chemical_formula_structural   LiSnPO4
_chemical_formula_sum   'Li4 Sn4 P4 O16'
_cell_volume   440.90369942
_cell_formula_units_Z   4
loop_
 _symmetry_equiv_pos_site_id
 _symmetry_equiv_pos_as_xyz
  1  'x, y, z'
loop_
 _atom_site_type_symbol
 _atom_site_label
 _atom_site_symmetry_multiplicity
 _atom_site_fract_x
 _atom_site_fract_y
 _atom_site_fract_z
 _atom_site_occupancy
  Li  Li0  1  0.16721700  0.78985700  0.50376700  1
  Li  Li1  1  0.66721700  0.21014300  0.99623300  1
  Li  Li2  1  0.33278300  0.78985700  0.00376700  1
  Li  Li3  1  0.83278300  0.21014300  0.49623300  1
  Sn  Sn0  1  0.64130200  0.75841500  0.48377500  1
  Sn  Sn1  1  0.14130200  0.24158500  0.01622500  1
  Sn  Sn2  1  0.85869800  0.75841500  0.98377500  1
  Sn  Sn3  1  0.35869800  0.24158500  0.51622500  1
  P  P0  1  0.40751800  0.11519000  0.22292600  1
  P  P1  1  0.90751800  0.88481000  0.27707400  1
  P  P2  1  0.09248200  0.11519000  0.72292600  1
  P  P3  1  0.59248200  0.88481000  0.77707400  1
  O  O0  1  0.63056200  0.58861800  0.84822800  1
  O  O1  1  0.82897700  0.99376000  0.37904400  1
  O  O2  1  0.36625700  0.94509200  0.42370500  1
  O  O3  1  0.55993900  0.06301400  0.21714700  1
  O  O4  1  0.05993900  0.93698600  0.28285300  1
  O  O5  1  0.86625700  0.05490800  0.07629500  1
  O  O6  1  0.32897700  0.00624000  0.12095600  1
  O  O7  1  0.13056200  0.41138200  0.65177200  1
  O  O8  1  0.86943800  0.58861800  0.34822800  1
  O  O9  1  0.67102300  0.99376000  0.87904400  1
  O  O10  1  0.13374300  0.94509200  0.92370500  1
  O  O11  1  0.94006100  0.06301400  0.71714700  1
  O  O12  1  0.44006100  0.93698600  0.78285300  1
  O  O13  1  0.63374300  0.05490800  0.57629500  1
  O  O14  1  0.17102300  0.00624000  0.62095600  1
  O  O15  1  0.36943800  0.41138200  0.15177200  1
loop_
_geom_bond_atom_site_label_1
_geom_bond_atom_site_label_2
_geom_bond_distance
_geom_bond_site_symmetry_2
Li0 O7 1.905372 1_555
Li0 O14 2.007230 1_565
Li0 O4 2.009609 1_555
Li0 O2 2.147635 1_555
Li1 O0 1.905372 1_555
Li1 O9 2.007230 1_545
Li1 O3 2.009609 1_556
Li1 O5 2.147635 1_556
Li2 O15 1.905372 1_555
Li2 O6 2.007230 1_565
Li2 O12 2.009609 1_554
Li2 O10 2.147635 1_554
Li3 O8 1.905372 1_555
Li3 O1 2.007230 1_545
Li3 O11 2.009609 1_555
Li3 O13 2.147635 1_555
O0 P3 1.526204 1_555
O1 P1 1.564328 1_555
O1 Sn0 2.217775 1_555
O2 P0 1.589776 1_565
O2 Sn3 2.257120 1_565
O3 P0 1.560773 1_555
O3 Sn0 2.252548 1_545
O4 P1 1.560773 1_455
O4 Sn1 2.252548 1_565
O5 P1 1.589776 1_545
O5 Sn2 2.257120 1_544
O6 P0 1.564328 1_555
O6 Sn1 2.217775 1_555
O7 P2 1.526204 1_555
O8 P1 1.526204 1_555
O9 P3 1.564328 1_555
O9 Sn2 2.217775 1_555
O10 P2 1.589776 1_565
O10 Sn1 2.257120 1_566
O11 P2 1.560773 1_655
O11 Sn2 2.252548 1_545
O12 P3 1.560773 1_555
O12 Sn3 2.252548 1_565
O13 P3 1.589776 1_545
O13 Sn0 2.257120 1_545
O14 P2 1.564328 1_555
O14 Sn3 2.217775 1_555
O15 P0 1.526204 1_555
