# generated using pymatgen
data_Na10Ca3Si6Ge5(SO8)6
_symmetry_space_group_name_H-M   'P 1'
_cell_length_a   17.91392150
_cell_length_b   9.00712912
_cell_length_c   22.35825703
_cell_angle_alpha   89.25233840
_cell_angle_beta   88.93669363
_cell_angle_gamma   119.80131028
_symmetry_Int_Tables_number   1
_chemical_formula_structural   Na10Ca3Si6Ge5(SO8)6
_chemical_formula_sum   'Na30 Ca9 Si18 Ge15 S18 O144'
_cell_volume   3128.91480955
_cell_formula_units_Z   3
loop_
 _symmetry_equiv_pos_site_id
 _symmetry_equiv_pos_as_xyz
  1  'x, y, z'
loop_
 _atom_site_type_symbol
 _atom_site_label
 _atom_site_symmetry_multiplicity
 _atom_site_fract_x
 _atom_site_fract_y
 _atom_site_fract_z
 _atom_site_occupancy
  Na  Na0  1  0.31715596  0.00418866  0.24807520  1
  Na  Na1  1  0.18941391  0.36395030  0.24689813  1
  Na  Na2  1  0.69133519  0.37617858  0.24332005  1
  Na  Na3  1  0.99764140  0.63095975  0.25126115  1
  Na  Na4  1  0.31333724  0.61668057  0.75596533  1
  Na  Na5  1  0.81504957  0.61785493  0.75324689  1
  Na  Na6  1  0.99017510  0.36165489  0.75226087  1
  Na  Na7  1  0.49416057  0.37818339  0.74206612  1
  Na  Na8  1  0.18715175  0.01187384  0.75347075  1
  Na  Na9  1  0.69021672  0.01678361  0.75476803  1
  Na  Na10  1  0.65178562  0.34351842  0.57507571  1
  Na  Na11  1  0.32237247  0.68076173  0.07707787  1
  Na  Na12  1  0.82374630  0.68250056  0.08580976  1
  Na  Na13  1  0.16183786  0.31064816  0.92196831  1
  Na  Na14  1  0.99994280  0.31199233  0.42037906  1
  Na  Na15  1  0.16246673  0.02404896  0.42161653  1
  Na  Na16  1  0.66411501  0.02032012  0.41517025  1
  Na  Na17  1  0.84685190  0.67808907  0.42179976  1
  Na  Na18  1  0.00160451  0.00251870  0.50398931  1
  Na  Na19  1  0.49166458  0.00532019  0.49909600  1
  Na  Na20  1  0.00174449  0.01488204  0.99934825  1
  Na  Na21  1  0.50172448  0.02536095  0.99488960  1
  Na  Na22  1  0.34100459  0.35028594  0.83636548  1
  Na  Na23  1  0.83365831  0.33521061  0.83440300  1
  Na  Na24  1  0.34185224  0.36981092  0.32979423  1
  Na  Na25  1  0.83307884  0.33411291  0.33035468  1
  Na  Na26  1  0.16492088  0.65547151  0.15963252  1
  Na  Na27  1  0.65899319  0.66300448  0.16186983  1
  Na  Na28  1  0.16392895  0.66388541  0.66245478  1
  Na  Na29  1  0.65656657  0.66026300  0.65994080  1
  Ca  Ca0  1  0.49819261  0.99942472  0.35279240  1
  Ca  Ca1  1  0.33468403  0.34286300  0.68528133  1
  Ca  Ca2  1  0.83579000  0.33949253  0.69064260  1
  Ca  Ca3  1  0.33101962  0.33022785  0.18521847  1
  Ca  Ca4  1  0.83518050  0.33066749  0.18530267  1
  Ca  Ca5  1  0.16201127  0.65134771  0.00933993  1
  Ca  Ca6  1  0.65919468  0.64561575  0.00999556  1
  Ca  Ca7  1  0.16008692  0.65177718  0.51522961  1
  Ca  Ca8  1  0.66984258  0.67279155  0.51716358  1
  Si  Si0  1  0.14269868  0.98362561  0.25590147  1
  Si  Si1  1  0.35142574  0.71161802  0.25123190  1
  Si  Si2  1  0.86072968  0.73214507  0.25205643  1
  Si  Si3  1  0.13875349  0.28963389  0.75474040  1
  Si  Si4  1  0.63781650  0.28856631  0.75419737  1
  Si  Si5  1  0.00898169  0.72777259  0.75845381  1
  Si  Si6  1  0.50284352  0.73390199  0.75160734  1
  Si  Si7  1  0.85141810  0.98086546  0.75482753  1
  Si  Si8  1  0.47774701  0.31884692  0.58788256  1
  Si  Si9  1  0.17943451  0.31818829  0.08597327  1
  Si  Si10  1  0.68160659  0.31984370  0.08851145  1
  Si  Si11  1  0.31829748  0.67824371  0.91506132  1
  Si  Si12  1  0.00505111  0.34269118  0.91796350  1
  Si  Si13  1  0.51194082  0.35683409  0.91478972  1
  Si  Si14  1  0.82222349  0.97138313  0.41495981  1
  Si  Si15  1  0.17021744  0.36820181  0.41455491  1
  Si  Si16  1  0.66844718  0.36805582  0.42139597  1
  Si  Si17  1  0.02398737  0.67413170  0.41380891  1
  Ge  Ge0  1  0.00293490  0.99569797  0.35351821  1
  Ge  Ge1  1  0.99454769  0.00411374  0.84993513  1
  Ge  Ge2  1  0.49845051  0.99957495  0.85376178  1
  Ge  Ge3  1  0.00404718  0.00360603  0.66259383  1
  Ge  Ge4  1  0.50715734  0.02741607  0.65292019  1
  Ge  Ge5  1  0.01172520  0.98608614  0.15054367  1
  Ge  Ge6  1  0.49554892  0.00431792  0.14469514  1
  Ge  Ge7  1  0.33667565  0.36355214  0.97635888  1
  Ge  Ge8  1  0.82335190  0.30470145  0.98161619  1
  Ge  Ge9  1  0.33722063  0.34486600  0.48601449  1
  Ge  Ge10  1  0.83801486  0.33902199  0.47011518  1
  Ge  Ge11  1  0.17301154  0.66848725  0.31628364  1
  Ge  Ge12  1  0.69047683  0.68963202  0.32036581  1
  Ge  Ge13  1  0.14785420  0.62489074  0.82042147  1
  Ge  Ge14  1  0.65041193  0.64933468  0.80580398  1
  S  S0  1  0.64405916  0.97723983  0.25073246  1
  S  S1  1  0.00556582  0.28579788  0.25107207  1
  S  S2  1  0.50948388  0.30589890  0.24801811  1
  S  S3  1  0.35447081  0.98761109  0.75136669  1
  S  S4  1  0.97782728  0.30992917  0.58386303  1
  S  S5  1  0.17772704  0.04044668  0.58600735  1
  S  S6  1  0.68380800  0.04754243  0.58416942  1
  S  S7  1  0.33999165  0.64126721  0.58241847  1
  S  S8  1  0.84402897  0.64354274  0.58244584  1
  S  S9  1  0.47974295  0.64203049  0.08228271  1
  S  S10  1  0.98098944  0.63996643  0.08340310  1
  S  S11  1  0.33892063  0.03987480  0.08399573  1
  S  S12  1  0.83869683  0.03944114  0.08082786  1
  S  S13  1  0.82140755  0.66486558  0.91437344  1
  S  S14  1  0.16432708  0.96645349  0.91198473  1
  S  S15  1  0.66677493  0.97252125  0.91319347  1
  S  S16  1  0.31223403  0.97301927  0.41696492  1
  S  S17  1  0.51543960  0.64750990  0.41547123  1
  O  O0  1  0.09435317  0.02269143  0.31004807  1
  O  O1  1  0.60953367  0.00430029  0.30691591  1
  O  O2  1  0.40089354  0.80098691  0.30820837  1
  O  O3  1  0.91686987  0.83081726  0.30877702  1
  O  O4  1  0.49897559  0.21009252  0.30327073  1
  O  O5  1  0.99653034  0.19132913  0.30772420  1
  O  O6  1  0.09363786  0.16977793  0.81352559  1
  O  O7  1  0.58785170  0.15511528  0.80803906  1
  O  O8  1  0.48979869  0.82604405  0.80813481  1
  O  O9  1  0.99126763  0.82322410  0.81241628  1
  O  O10  1  0.40786071  0.01638646  0.80349836  1
  O  O11  1  0.91575894  0.02652103  0.80938007  1
  O  O12  1  0.39642135  0.96418959  0.69531255  1
  O  O13  1  0.89641609  0.93641910  0.69498477  1
  O  O14  1  0.07502928  0.20831906  0.69564175  1
  O  O15  1  0.58269373  0.21785343  0.69119234  1
  O  O16  1  0.03316561  0.85480802  0.69627087  1
  O  O17  1  0.51891542  0.85822479  0.68964585  1
  O  O18  1  0.40154861  0.84750880  0.18793825  1
  O  O19  1  0.90518292  0.84415761  0.18746394  1
  O  O20  1  0.01415787  0.19876071  0.19752787  1
  O  O21  1  0.52368209  0.21785109  0.19398383  1
  O  O22  1  0.07937331  0.94016189  0.19668176  1
  O  O23  1  0.59123643  0.96399944  0.19825263  1
  O  O24  1  0.44007754  0.32704964  0.65135437  1
  O  O25  1  0.93313282  0.31900672  0.63765487  1
  O  O26  1  0.22452888  0.12241161  0.63986423  1
  O  O27  1  0.73039228  0.12972511  0.63781248  1
  O  O28  1  0.32609688  0.54673617  0.63922073  1
  O  O29  1  0.83306519  0.53873201  0.63628861  1
  O  O30  1  0.44257834  0.54078769  0.13679276  1
  O  O31  1  0.94799968  0.55211706  0.14199843  1
  O  O32  1  0.33411261  0.10842038  0.14209553  1
  O  O33  1  0.83022346  0.11823906  0.13472019  1
  O  O34  1  0.22773713  0.33651103  0.14582767  1
  O  O35  1  0.73167668  0.34601934  0.14903404  1
  O  O36  1  0.23737266  0.30365825  0.02146041  1
  O  O37  1  0.73786600  0.29468310  0.02724265  1
  O  O38  1  0.42450255  0.55607991  0.02803064  1
  O  O39  1  0.92382709  0.54731286  0.03371749  1
  O  O40  1  0.34995376  0.15103701  0.03187574  1
  O  O41  1  0.85031306  0.15201451  0.02497026  1
  O  O42  1  0.22172796  0.14654049  0.52920635  1
  O  O43  1  0.72844124  0.15400557  0.52708679  1
  O  O44  1  0.34692203  0.54165266  0.52867228  1
  O  O45  1  0.85071599  0.55532186  0.52583430  1
  O  O46  1  0.41049724  0.30099219  0.52884840  1
  O  O47  1  0.92986660  0.30101285  0.52670870  1
  O  O48  1  0.29013796  0.71088004  0.97824356  1
  O  O49  1  0.78670336  0.69350216  0.97014689  1
  O  O50  1  0.07218017  0.41302215  0.96926232  1
  O  O51  1  0.56617387  0.41605887  0.97244136  1
  O  O52  1  0.15296964  0.86942690  0.96684657  1
  O  O53  1  0.65766791  0.87553403  0.96746150  1
  O  O54  1  0.27063652  0.87048069  0.47031415  1
  O  O55  1  0.79206719  0.84534836  0.47063121  1
  O  O56  1  0.13441577  0.42412190  0.46964315  1
  O  O57  1  0.65932166  0.44378495  0.48173105  1
  O  O58  1  0.08335488  0.73914905  0.46928250  1
  O  O59  1  0.56469093  0.67250053  0.46913622  1
  O  O60  1  0.06742042  0.61817274  0.35723390  1
  O  O61  1  0.55870952  0.62475537  0.36083493  1
  O  O62  1  0.25911509  0.88972374  0.36112688  1
  O  O63  1  0.74950619  0.88783152  0.35983233  1
  O  O64  1  0.18773339  0.49548216  0.35281851  1
  O  O65  1  0.68913477  0.50682605  0.35970752  1
  O  O66  1  0.04584502  0.46852939  0.85485501  1
  O  O67  1  0.55878183  0.49834202  0.85352419  1
  O  O68  1  0.17594354  0.87859670  0.85804031  1
  O  O69  1  0.68083624  0.89550262  0.85800488  1
  O  O70  1  0.24249271  0.62961407  0.85832458  1
  O  O71  1  0.76770925  0.64387646  0.86148904  1
  O  O72  1  0.99687036  0.82320330  0.40356768  1
  O  O73  1  0.50336486  0.79632913  0.40963816  1
  O  O74  1  0.39973610  0.00383447  0.41250029  1
  O  O75  1  0.92101984  0.01620806  0.40022043  1
  O  O76  1  0.08827871  0.17140048  0.40254637  1
  O  O77  1  0.59769069  0.17174122  0.41542011  1
  O  O78  1  0.99672726  0.15183126  0.90734946  1
  O  O79  1  0.49681450  0.16638844  0.89900972  1
  O  O80  1  0.08706306  0.99046286  0.90811178  1
  O  O81  1  0.59008673  0.99547275  0.90878834  1
  O  O82  1  0.41504130  0.83648390  0.90181607  1
  O  O83  1  0.90977006  0.81890193  0.90723413  1
  O  O84  1  0.48512830  0.13288745  0.59019744  1
  O  O85  1  0.98266799  0.14805031  0.58590113  1
  O  O86  1  0.09050544  0.03280311  0.58826248  1
  O  O87  1  0.59828108  0.04274867  0.58517362  1
  O  O88  1  0.42244077  0.80325716  0.58139659  1
  O  O89  1  0.92475570  0.81072673  0.58423630  1
  O  O90  1  0.47671333  0.80739751  0.08506068  1
  O  O91  1  0.97766614  0.80838391  0.08567749  1
  O  O92  1  0.42200857  0.02432675  0.08354926  1
  O  O93  1  0.91729527  0.02431048  0.08026919  1
  O  O94  1  0.08265365  0.13173152  0.09172961  1
  O  O95  1  0.58459542  0.13558684  0.09325259  1
  O  O96  1  0.34059079  0.13611140  0.74777227  1
  O  O97  1  0.83717796  0.14218342  0.74982358  1
  O  O98  1  0.23328478  0.31242027  0.75267486  1
  O  O99  1  0.73320571  0.31614344  0.75329064  1
  O  O100  1  0.42283671  0.54182521  0.75208782  1
  O  O101  1  0.92762472  0.53886665  0.75372512  1
  O  O102  1  0.33150785  0.51984915  0.24635428  1
  O  O103  1  0.84817846  0.54018281  0.25365211  1
  O  O104  1  0.43213371  0.31994795  0.24168045  1
  O  O105  1  0.93117982  0.31512063  0.24983966  1
  O  O106  1  0.23890410  0.14097341  0.25568246  1
  O  O107  1  0.73225442  0.12578947  0.24478106  1
  O  O108  1  0.31929063  0.49021453  0.91758558  1
  O  O109  1  0.82892910  0.50539502  0.91927891  1
  O  O110  1  0.41306601  0.34318454  0.92522630  1
  O  O111  1  0.91066238  0.33856462  0.92888127  1
  O  O112  1  0.24211477  0.14163508  0.91152706  1
  O  O113  1  0.74743045  0.15026566  0.91623383  1
  O  O114  1  0.31350521  0.14196565  0.41841864  1
  O  O115  1  0.82580833  0.15950765  0.42329759  1
  O  O116  1  0.25818696  0.34771624  0.42907456  1
  O  O117  1  0.76544157  0.36983403  0.42122000  1
  O  O118  1  0.42677000  0.48579159  0.42092896  1
  O  O119  1  0.92991958  0.49009971  0.42283821  1
  O  O120  1  0.16958304  0.48404992  0.07884657  1
  O  O121  1  0.67606821  0.49087628  0.07932282  1
  O  O122  1  0.06961238  0.67901566  0.07544643  1
  O  O123  1  0.56835264  0.68025337  0.07428119  1
  O  O124  1  0.26436850  0.86596510  0.08001161  1
  O  O125  1  0.76254332  0.86847700  0.07484683  1
  O  O126  1  0.16772080  0.86937803  0.58206506  1
  O  O127  1  0.67106451  0.87495991  0.58083119  1
  O  O128  1  0.26609611  0.66750887  0.57581576  1
  O  O129  1  0.76684682  0.66190687  0.58121715  1
  O  O130  1  0.06386416  0.46214624  0.58247228  1
  O  O131  1  0.57447814  0.47462319  0.58128722  1
  O  O132  1  0.14394527  0.80118711  0.26330172  1
  O  O133  1  0.64701862  0.81141264  0.25410305  1
  O  O134  1  0.25366065  0.70698178  0.25335914  1
  O  O135  1  0.76117313  0.70851376  0.25755855  1
  O  O136  1  0.08600242  0.45836659  0.25080198  1
  O  O137  1  0.58957848  0.47628656  0.24870290  1
  O  O138  1  0.14709298  0.48386078  0.75800531  1
  O  O139  1  0.64382871  0.47948314  0.75692698  1
  O  O140  1  0.09940891  0.71327724  0.76401334  1
  O  O141  1  0.59424977  0.72258039  0.75404540  1
  O  O142  1  0.26974653  0.82857076  0.75487548  1
  O  O143  1  0.75547561  0.80149798  0.76353625  1
loop_
_geom_bond_atom_site_label_1
_geom_bond_atom_site_label_2
_geom_bond_distance
_geom_bond_site_symmetry_2
Na0 O106 2.285867 1_555
Na0 O134 2.331118 1_545
Na0 O32 2.494006 1_555
Na0 O104 2.550950 1_555
Na0 O62 2.702203 1_545
Na0 O132 2.718862 1_545
Na0 O18 2.860023 1_545
Na1 O102 2.212883 1_555
Na1 O136 2.392588 1_555
Na1 O34 2.400948 1_555
Na1 O106 2.573749 1_555
Na1 O64 2.668118 1_555
Na1 O134 2.715711 1_555
Na1 O20 2.969372 1_555
Na1 O0 2.989327 1_555
Na2 O35 2.278936 1_555
Na2 O137 2.403914 1_555
Na2 O103 2.457085 1_555
Na2 O135 2.635168 1_555
Na2 O107 2.695722 1_555
Na2 O21 2.859582 1_555
Na2 O65 2.877514 1_555
Na3 O132 2.309758 1_655
Na3 O103 2.378598 1_555
Na3 O105 2.479628 1_555
Na3 O31 2.600228 1_555
Na3 O22 2.679746 1_655
Na3 O136 2.714419 1_655
Na3 O60 2.726831 1_655
Na4 O100 2.370581 1_555
Na4 O98 2.382245 1_555
Na4 O142 2.394512 1_555
Na4 O138 2.598936 1_555
Na4 O70 2.628285 1_555
Na4 O28 2.725110 1_555
Na5 O99 2.360972 1_555
Na5 O143 2.383977 1_555
Na5 O101 2.449481 1_555
Na5 O71 2.601391 1_555
Na5 O139 2.675108 1_555
Na5 O29 2.774189 1_555
Na5 O13 2.780179 1_555
Na6 O101 2.362666 1_555
Na6 O97 2.458769 1_555
Na6 O138 2.464028 1_655
Na6 O66 2.524111 1_655
Na6 O25 2.736838 1_555
Na6 O140 2.794522 1_655
Na6 O14 2.807418 1_655
Na6 O11 2.890732 1_555
Na7 O24 2.217648 1_555
Na7 O100 2.392722 1_555
Na7 O139 2.395995 1_555
Na7 O96 2.521111 1_555
Na7 O141 2.723999 1_555
Na7 O67 2.766521 1_555
Na7 O15 2.854303 1_555
Na8 O140 2.351020 1_545
Na8 O96 2.397851 1_555
Na8 O98 2.405398 1_555
Na8 O68 2.572420 1_545
Na8 O26 2.664520 1_555
Na8 O142 2.710103 1_545
Na8 O16 2.746890 1_545
Na9 O97 2.291089 1_555
Na9 O141 2.334901 1_545
Na9 O99 2.407760 1_555
Na9 O69 2.507323 1_545
Na9 O143 2.723431 1_545
Na9 O27 2.742925 1_555
Na9 O7 2.926167 1_555
Na10 O131 2.225834 1_555
Na10 O57 2.238007 1_555
Na10 O87 2.388254 1_555
Na10 O129 2.576191 1_555
Na10 O84 2.634877 1_555
Na10 O15 2.822177 1_555
Na10 O43 2.876399 1_555
Na11 O48 2.340408 1_554
Na11 O124 2.364309 1_555
Na11 O120 2.409590 1_555
Na11 O90 2.422026 1_555
Na11 O92 2.704437 1_565
Na12 O121 2.341120 1_555
Na12 O91 2.404247 1_555
Na12 O125 2.427537 1_555
Na12 O93 2.675116 1_565
Na12 O49 2.694444 1_554
Na12 O19 2.740812 1_555
Na12 O39 2.860578 1_555
Na12 O35 2.955821 1_555
Na13 O50 2.445917 1_555
Na13 O108 2.456083 1_555
Na13 O80 2.531068 1_545
Na13 O112 2.571553 1_555
Na13 O78 2.596928 1_455
Na13 O36 2.641196 1_556
Na13 O6 2.762350 1_555
Na13 O70 2.838540 1_555
Na14 O75 2.368712 1_555
Na14 O56 2.396960 1_655
Na14 O119 2.479934 1_555
Na14 O76 2.499657 1_655
Na14 O47 2.645209 1_555
Na14 O115 2.711634 1_555
Na14 O5 2.745949 1_555
Na14 O60 2.753430 1_655
Na15 O76 2.338601 1_555
Na15 O114 2.363967 1_555
Na15 O58 2.446830 1_545
Na15 O116 2.553729 1_555
Na15 O72 2.639080 1_445
Na15 O42 2.670321 1_555
Na15 O0 2.794698 1_555
Na15 O62 2.885904 1_545
Na16 O77 2.211147 1_555
Na16 O115 2.531947 1_555
Na16 O73 2.573526 1_545
Na16 O1 2.606106 1_555
Na16 O63 2.660374 1_545
Na16 O117 2.750270 1_555
Na16 O43 2.800986 1_555
Na16 O59 2.952651 1_545
Na17 O72 2.355999 1_555
Na17 O117 2.410966 1_555
Na17 O55 2.428491 1_555
Na17 O45 2.579321 1_555
Na17 O75 2.681206 1_565
Na17 O119 2.754402 1_555
Na17 O3 2.815651 1_555
Na17 O65 2.856349 1_555
Na18 O89 2.358409 1_445
Na18 O85 2.380958 1_455
Na18 O86 2.419476 1_555
Na18 O76 2.701946 1_555
Na18 O72 2.760889 1_445
Na18 O75 2.788501 1_455
Na19 O84 2.380911 1_555
Na19 O88 2.412614 1_545
Na19 O77 2.513858 1_555
Na19 O74 2.560826 1_555
Na19 O87 2.641717 1_555
Na19 O73 2.839500 1_545
Na20 O93 2.366293 1_456
Na20 O78 2.410698 1_455
Na20 O94 2.475128 1_556
Na20 O91 2.539490 1_446
Na20 O80 2.603005 1_545
Na20 O83 2.720686 1_445
Na21 O92 2.418676 1_556
Na21 O79 2.502748 1_555
Na21 O81 2.570603 1_545
Na21 O95 2.596013 1_556
Na21 O90 2.666155 1_546
Na21 O82 2.687448 1_545
Na22 O108 2.357596 1_555
Na22 O110 2.406602 1_555
Na22 O100 2.444325 1_555
Na22 O112 2.447861 1_555
Na22 O98 2.614917 1_555
Na22 O96 2.780477 1_555
Na23 O113 2.401311 1_555
Na23 O109 2.481348 1_555
Na23 O101 2.486740 1_555
Na23 O99 2.525599 1_555
Na23 O111 2.536587 1_555
Na23 O97 2.606374 1_555
Na24 O102 2.353078 1_555
Na24 O118 2.479568 1_555
Na24 O116 2.604164 1_555
Na24 O106 2.611394 1_555
Na24 O114 2.686350 1_555
Na24 O104 2.706541 1_555
Na25 O103 2.420731 1_555
Na25 O117 2.451972 1_555
Na25 O115 2.551400 1_555
Na25 O105 2.558847 1_555
Na25 O119 2.654323 1_555
Na25 O107 2.701288 1_555
Na26 O120 2.418429 1_555
Na26 O124 2.524736 1_555
Na26 O134 2.559222 1_555
Na26 O136 2.570870 1_555
Na26 O122 2.640387 1_555
Na26 O132 2.788110 1_555
Na27 O137 2.427002 1_555
Na27 O133 2.534950 1_555
Na27 O121 2.535471 1_555
Na27 O123 2.618494 1_555
Na27 O125 2.647918 1_555
Na27 O135 2.741924 1_555
Na28 O126 2.538636 1_555
Na28 O130 2.584395 1_555
Na28 O138 2.585301 1_555
Na28 O128 2.628781 1_555
Na28 O140 2.670172 1_555
Na28 O142 2.737506 1_555
Na29 O131 2.404056 1_555
Na29 O127 2.515949 1_555
Na29 O141 2.560201 1_555
Na29 O129 2.615769 1_555
Na29 O139 2.631684 1_555
Na29 O143 2.848042 1_555
Ca0 O2 2.059297 1_555
Ca0 O4 2.178261 1_565
Ca0 O1 2.206379 1_565
Ca0 O74 2.208648 1_565
Ca0 O77 2.223992 1_565
Ca0 O73 2.254439 1_555
Ca1 O24 2.092184 1_555
Ca1 O28 2.166465 1_555
Ca1 O98 2.244485 1_555
Ca1 O26 2.258341 1_555
Ca1 O100 2.297999 1_555
Ca1 O96 2.358964 1_555
Ca2 O25 2.174226 1_555
Ca2 O29 2.175339 1_555
Ca2 O97 2.212150 1_555
Ca2 O99 2.212670 1_555
Ca2 O27 2.263852 1_555
Ca2 O101 2.266327 1_555
Ca3 O34 2.089337 1_555
Ca3 O102 2.198194 1_555
Ca3 O30 2.204926 1_555
Ca3 O32 2.254413 1_555
Ca3 O104 2.265330 1_555
Ca3 O106 2.268979 1_555
Ca4 O35 2.102929 1_555
Ca4 O33 2.199819 1_555
Ca4 O31 2.206930 1_555
Ca4 O107 2.244185 1_555
Ca4 O105 2.320628 1_555
Ca4 O103 2.366960 1_555
Ca5 O50 2.161165 1_554
Ca5 O48 2.178712 1_554
Ca5 O120 2.203179 1_555
Ca5 O52 2.249551 1_554
Ca5 O122 2.305487 1_555
Ca5 O124 2.501939 1_555
Ca6 O51 2.104625 1_554
Ca6 O121 2.194610 1_555
Ca6 O49 2.265492 1_554
Ca6 O53 2.280271 1_554
Ca6 O123 2.289319 1_555
Ca6 O125 2.457843 1_555
Ca7 O56 2.142332 1_555
Ca7 O58 2.161171 1_555
Ca7 O54 2.192654 1_555
Ca7 O130 2.249272 1_555
Ca7 O128 2.300954 1_555
Ca7 O126 2.431203 1_555
Ca8 O57 2.139996 1_555
Ca8 O59 2.184388 1_555
Ca8 O55 2.186948 1_555
Ca8 O131 2.229634 1_555
Ca8 O129 2.310483 1_555
Ca8 O127 2.317734 1_555
Ge0 O0 1.795731 1_565
Ge0 O3 1.844812 1_455
Ge0 O72 1.860180 1_455
Ge0 O75 1.869595 1_465
Ge0 O76 1.935468 1_565
Ge0 O5 2.079571 1_465
Ge1 O11 1.783501 1_555
Ge1 O9 1.817712 1_545
Ge1 O6 1.822649 1_655
Ge1 O78 1.847816 1_555
Ge1 O83 2.020983 1_545
Ge1 O80 2.175335 1_645
Ge2 O7 1.801200 1_565
Ge2 O82 1.806198 1_555
Ge2 O8 1.820552 1_555
Ge2 O79 1.834176 1_565
Ge2 O10 2.055943 1_565
Ge2 O81 2.084176 1_555
Ge3 O14 1.817317 1_555
Ge3 O16 1.821657 1_545
Ge3 O13 1.839888 1_445
Ge3 O86 2.172128 1_555
Ge3 O85 2.289330 1_455
Ge3 O89 2.413296 1_445
Ge4 O15 1.810982 1_555
Ge4 O17 1.825866 1_545
Ge4 O84 1.839368 1_555
Ge4 O12 1.987719 1_545
Ge4 O87 2.157949 1_555
Ge4 O88 2.462829 1_545
Ge5 O22 1.799255 1_555
Ge5 O94 1.816784 1_565
Ge5 O19 1.856643 1_455
Ge5 O91 2.039661 1_455
Ge5 O20 2.178562 1_565
Ge5 O93 2.472293 1_465
Ge6 O95 1.813040 1_555
Ge6 O18 1.817993 1_545
Ge6 O92 1.983287 1_555
Ge6 O21 2.068823 1_555
Ge6 O90 2.126289 1_545
Ge6 O23 2.277637 1_545
Ge7 O110 1.846686 1_555
Ge7 O36 1.854108 1_556
Ge7 O108 1.858648 1_555
Ge7 O38 2.055490 1_556
Ge7 O40 2.379664 1_556
Ge7 O112 2.401483 1_555
Ge8 O37 1.787796 1_556
Ge8 O111 1.837803 1_555
Ge8 O41 1.925369 1_556
Ge8 O113 2.041572 1_555
Ge8 O109 2.229299 1_555
Ge8 O39 2.367818 1_556
Ge9 O46 1.829985 1_555
Ge9 O116 1.930817 1_555
Ge9 O44 1.955921 1_555
Ge9 O118 2.035526 1_555
Ge9 O42 2.147389 1_555
Ge9 O114 2.264663 1_555
Ge10 O119 1.830456 1_555
Ge10 O117 1.834608 1_555
Ge10 O115 1.859877 1_555
Ge10 O43 2.202945 1_555
Ge10 O45 2.243353 1_555
Ge10 O47 2.247575 1_555
Ge11 O64 1.883694 1_555
Ge11 O134 1.897559 1_555
Ge11 O60 1.922094 1_555
Ge11 O132 1.925492 1_555
Ge11 O62 2.099914 1_555
Ge11 O136 2.319401 1_555
Ge12 O63 1.811940 1_555
Ge12 O135 1.821657 1_555
Ge12 O65 1.845945 1_555
Ge12 O133 2.203032 1_555
Ge12 O61 2.295182 1_555
Ge12 O137 2.502458 1_555
Ge13 O66 1.810213 1_555
Ge13 O70 1.891230 1_555
Ge13 O138 1.894994 1_555
Ge13 O140 1.917994 1_555
Ge13 O68 2.259538 1_555
Ge13 O142 2.471951 1_555
Ge14 O67 1.833173 1_555
Ge14 O139 1.848709 1_555
Ge14 O141 1.862709 1_555
Ge14 O143 1.910494 1_555
Ge14 O69 2.337829 1_555
Ge14 O71 2.483132 1_555
O0 Si0 1.616970 1_545
O1 S0 1.465906 1_545
O2 Si1 1.554243 1_555
O3 Si2 1.611792 1_555
O4 S2 1.451991 1_555
O5 S1 1.477148 1_655
O6 Si3 1.613195 1_555
O7 Si4 1.596233 1_555
O8 Si6 1.596847 1_555
O9 Si5 1.606100 1_655
O10 S3 1.464015 1_545
O11 Si7 1.606048 1_545
O12 S3 1.519696 1_555
O13 Si7 1.701457 1_555
O14 Si3 1.683951 1_555
O15 Si4 1.677805 1_555
O16 Si5 1.695074 1_555
O17 Si6 1.697137 1_555
O18 Si1 1.766975 1_555
O19 Si2 1.690675 1_555
O20 S1 1.486287 1_555
O21 S2 1.538592 1_555
O22 Si0 1.679609 1_555
O23 S0 1.489662 1_555
O24 Si8 1.578441 1_555
O25 S4 1.458114 1_555
O26 S5 1.464020 1_555
O27 S6 1.459151 1_555
O28 S7 1.466020 1_555
O29 S8 1.468423 1_555
O30 S9 1.448304 1_555
O31 S10 1.473464 1_555
O32 S11 1.464808 1_555
O33 S12 1.449575 1_555
O34 Si9 1.572783 1_555
O35 Si10 1.591972 1_555
O36 Si9 1.805339 1_555
O37 Si10 1.768470 1_555
O38 S9 1.535409 1_555
O39 S10 1.481918 1_555
O40 S11 1.470993 1_555
O41 S12 1.542303 1_555
O42 S5 1.526361 1_555
O43 S6 1.534853 1_555
O44 S7 1.548481 1_555
O45 S8 1.537234 1_555
O46 Si8 1.758209 1_555
O47 S4 1.533756 1_555
O48 Si11 1.571060 1_555
O49 S13 1.465278 1_555
O50 Si12 1.573485 1_555
O51 Si13 1.561796 1_555
O52 S14 1.447673 1_555
O53 S15 1.444047 1_555
O54 S16 1.444028 1_555
O55 Si14 1.567945 1_555
O56 Si15 1.577978 1_555
O57 Si16 1.561543 1_555
O58 Si17 1.568810 1_555
O59 S17 1.455226 1_555
O60 Si17 1.682068 1_555
O61 S17 1.504786 1_555
O62 S16 1.544629 1_555
O63 Si14 1.700531 1_555
O64 Si15 1.703849 1_555
O65 Si16 1.754301 1_555
O66 Si12 1.704791 1_555
O67 Si13 1.747478 1_555
O68 S14 1.517723 1_555
O69 S15 1.500583 1_555
O70 Si11 1.769830 1_555
O71 S13 1.492127 1_555
O72 Si17 1.653995 1_655
O73 S17 1.464666 1_555
O74 S16 1.450892 1_545
O75 Si14 1.633563 1_545
O76 Si15 1.676182 1_555
O77 Si16 1.592408 1_555
O78 Si12 1.670634 1_655
O79 Si13 1.642472 1_555
O80 S14 1.507143 1_555
O81 S15 1.492149 1_555
O82 Si11 1.623984 1_555
O83 S13 1.502640 1_555
O84 Si8 1.744647 1_555
O85 S4 1.503209 1_555
O86 S5 1.529277 1_555
O87 S6 1.510864 1_555
O88 S7 1.471970 1_555
O89 S8 1.483118 1_555
O90 S9 1.519211 1_555
O91 S10 1.548857 1_555
O92 S11 1.562631 1_555
O93 S12 1.480317 1_555
O94 Si9 1.713120 1_555
O95 Si10 1.705124 1_555
O96 S3 1.478469 1_545
O97 Si7 1.598149 1_545
O98 Si3 1.601040 1_555
O99 Si4 1.599617 1_555
O100 Si6 1.606753 1_555
O101 Si5 1.604955 1_655
O102 Si1 1.586342 1_555
O103 Si2 1.628815 1_555
O104 S2 1.461920 1_555
O105 S1 1.482293 1_655
O106 Si0 1.597018 1_545
O107 S0 1.480012 1_545
O108 Si11 1.702729 1_555
O109 S13 1.510682 1_555
O110 Si13 1.724616 1_555
O111 Si12 1.685821 1_655
O112 S14 1.498376 1_545
O113 S15 1.537060 1_545
O114 S16 1.511319 1_545
O115 Si14 1.676485 1_545
O116 Si15 1.711514 1_555
O117 Si16 1.729576 1_555
O118 S17 1.532339 1_555
O119 Si17 1.682322 1_655
O120 Si9 1.595392 1_555
O121 Si10 1.603012 1_555
O122 S10 1.452114 1_455
O123 S9 1.454253 1_555
O124 S11 1.474410 1_565
O125 S12 1.474538 1_565
O126 S5 1.464129 1_565
O127 S6 1.457738 1_565
O128 S7 1.465382 1_555
O129 S8 1.472552 1_555
O130 S4 1.467269 1_455
O131 Si8 1.600481 1_555
O132 Si0 1.660618 1_555
O133 S0 1.521621 1_555
O134 Si1 1.730727 1_555
O135 Si2 1.689667 1_555
O136 S1 1.505162 1_555
O137 S2 1.492276 1_555
O138 Si3 1.682884 1_555
O139 Si4 1.670713 1_555
O140 Si5 1.695249 1_555
O141 Si6 1.692258 1_555
O142 S3 1.480981 1_555
O143 Si7 1.679681 1_555
