# generated using pymatgen
data_EuNiO3
_symmetry_space_group_name_H-M   'P 1'
_cell_length_a   5.32951865
_cell_length_b   5.32027611
_cell_length_c   7.58382395
_cell_angle_alpha   90.00000000
_cell_angle_beta   90.00000000
_cell_angle_gamma   90.00000000
_symmetry_Int_Tables_number   1
_chemical_formula_structural   EuNiO3
_chemical_formula_sum   'Eu4 Ni4 O12'
_cell_volume   215.03561773
_cell_formula_units_Z   4
loop_
 _symmetry_equiv_pos_site_id
 _symmetry_equiv_pos_as_xyz
  1  'x, y, z'
loop_
 _atom_site_type_symbol
 _atom_site_label
 _atom_site_symmetry_multiplicity
 _atom_site_fract_x
 _atom_site_fract_y
 _atom_site_fract_z
 _atom_site_occupancy
  Eu  Eu0  1  0.00447432  0.96401826  0.75000000  1
  Eu  Eu1  1  0.50447432  0.53598174  0.25000000  1
  Eu  Eu2  1  0.49552568  0.46401826  0.75000000  1
  Eu  Eu3  1  0.99552568  0.03598174  0.25000000  1
  Ni  Ni0  1  0.50000000  -0.00000000  0.50000000  1
  Ni  Ni1  1  0.00000000  0.50000000  0.50000000  1
  Ni  Ni2  1  0.00000000  0.50000000  0.00000000  1
  Ni  Ni3  1  0.50000000  -0.00000000  0.00000000  1
  O  O0  1  0.70585519  0.29462097  0.46726387  1
  O  O1  1  0.20585519  0.20537903  0.53273613  1
  O  O2  1  0.79414481  0.79462097  0.03273613  1
  O  O3  1  0.29414481  0.70537903  0.96726387  1
  O  O4  1  0.29414481  0.70537903  0.53273613  1
  O  O5  1  0.79414481  0.79462097  0.46726387  1
  O  O6  1  0.20585519  0.20537903  0.96726387  1
  O  O7  1  0.70585519  0.29462097  0.03273613  1
  O  O8  1  0.06542228  0.49274352  0.25000000  1
  O  O9  1  0.56542228  0.00725648  0.75000000  1
  O  O10  1  0.43457772  0.99274352  0.25000000  1
  O  O11  1  0.93457772  0.50725648  0.75000000  1
loop_
_geom_bond_atom_site_label_1
_geom_bond_atom_site_label_2
_geom_bond_distance
_geom_bond_site_symmetry_2
Eu0 O1 2.348554 1_565
Eu0 O6 2.348554 1_565
Eu0 O9 2.351216 1_465
Eu0 O11 2.458485 1_455
Eu0 O5 2.581949 1_455
Eu0 O2 2.581949 1_456
Eu0 O3 2.644179 1_555
Eu0 O4 2.644179 1_555
Eu1 O0 2.348554 1_555
Eu1 O7 2.348554 1_555
Eu1 O8 2.351216 1_555
Eu1 O10 2.458485 1_555
Eu1 O4 2.581949 1_555
Eu1 O3 2.581949 1_554
Eu1 O5 2.644179 1_555
Eu1 O2 2.644179 1_555
Eu2 O3 2.348554 1_555
Eu2 O4 2.348554 1_555
Eu2 O11 2.351216 1_555
Eu2 O9 2.458485 1_555
Eu2 O0 2.581949 1_555
Eu2 O7 2.581949 1_556
Eu2 O6 2.644179 1_555
Eu2 O1 2.644179 1_555
Eu3 O2 2.348554 1_545
Eu3 O5 2.348554 1_545
Eu3 O10 2.351216 1_645
Eu3 O8 2.458485 1_655
Eu3 O1 2.581949 1_655
Eu3 O6 2.581949 1_654
Eu3 O0 2.644179 1_555
Eu3 O7 2.644179 1_555
Ni0 O5 1.926940 1_545
Ni0 O1 1.926940 1_555
Ni0 O10 1.928136 1_545
Ni0 O9 1.928136 1_555
Ni0 O4 1.929308 1_545
Ni0 O0 1.929308 1_555
Ni1 O4 1.926940 1_555
Ni1 O0 1.926940 1_455
Ni1 O11 1.928136 1_455
Ni1 O8 1.928136 1_555
Ni1 O5 1.929308 1_455
Ni1 O1 1.929308 1_555
Ni2 O3 1.926940 1_554
Ni2 O7 1.926940 1_455
Ni2 O11 1.928136 1_454
Ni2 O8 1.928136 1_555
Ni2 O2 1.929308 1_455
Ni2 O6 1.929308 1_554
Ni3 O6 1.926940 1_554
Ni3 O2 1.926940 1_545
Ni3 O10 1.928136 1_545
Ni3 O9 1.928136 1_554
Ni3 O3 1.929308 1_544
Ni3 O7 1.929308 1_555
