# generated using pymatgen
data_Ba2TmMgCu3O7
_symmetry_space_group_name_H-M   'P 1'
_cell_length_a   3.67147300
_cell_length_b   3.97551200
_cell_length_c   13.99850300
_cell_angle_alpha   90.00000000
_cell_angle_beta   90.00000000
_cell_angle_gamma   90.00000000
_symmetry_Int_Tables_number   1
_chemical_formula_structural   Ba2TmMgCu3O7
_chemical_formula_sum   'Ba2 Tm1 Mg1 Cu3 O7'
_cell_volume   204.32193938
_cell_formula_units_Z   1
loop_
 _symmetry_equiv_pos_site_id
 _symmetry_equiv_pos_as_xyz
  1  'x, y, z'
loop_
 _atom_site_type_symbol
 _atom_site_label
 _atom_site_symmetry_multiplicity
 _atom_site_fract_x
 _atom_site_fract_y
 _atom_site_fract_z
 _atom_site_occupancy
  Ba  Ba0  1  0.50000000  0.50000000  0.26194700  1
  Ba  Ba1  1  0.50000000  0.50000000  0.79051600  1
  Tm  Tm0  1  0.50000000  0.50000000  0.52088900  1
  Mg  Mg0  1  0.50000000  0.00000000  0.07240800  1
  Cu  Cu0  1  0.00000000  0.00000000  0.63715800  1
  Cu  Cu1  1  0.00000000  0.00000000  0.40932600  1
  Cu  Cu2  1  0.00000000  0.00000000  0.93694800  1
  O  O0  1  0.50000000  0.00000000  0.38918900  1
  O  O1  1  0.00000000  0.00000000  0.79670200  1
  O  O2  1  0.50000000  0.00000000  0.59516300  1
  O  O3  1  0.00000000  0.50000000  0.41277700  1
  O  O4  1  0.00000000  0.50000000  0.62059000  1
  O  O5  1  0.00000000  0.00000000  0.15666900  1
  O  O6  1  0.00000000  0.50000000  0.97194000  1
loop_
_geom_bond_atom_site_label_1
_geom_bond_atom_site_label_2
_geom_bond_distance
_geom_bond_site_symmetry_2
Ba0 O0 2.669052 1_555
Ba0 O0 2.669052 1_565
Ba0 O3 2.797841 1_555
Ba0 O3 2.797841 1_655
Ba0 O5 3.081071 1_565
Ba0 O5 3.081071 1_665
Ba0 O5 3.081071 1_555
Ba0 O5 3.081071 1_655
Ba1 O1 2.707139 1_665
Ba1 O1 2.707139 1_555
Ba1 O1 2.707139 1_655
Ba1 O1 2.707139 1_565
Ba1 O4 3.004694 1_555
Ba1 O4 3.004694 1_655
Ba1 O6 3.133660 1_555
Ba1 O6 3.133660 1_655
Mg0 O5 2.182021 1_655
Mg0 O5 2.182021 1_555
Cu0 O2 1.927567 1_455
Cu0 O2 1.927567 1_555
Cu0 O4 2.001241 1_545
Cu0 O4 2.001241 1_555
Cu0 O1 2.233377 1_555
Cu1 O0 1.857253 1_455
Cu1 O0 1.857253 1_555
Cu1 O3 1.988343 1_555
Cu1 O3 1.988343 1_545
Cu2 O1 1.963234 1_555
Cu2 O6 2.047221 1_545
Cu2 O6 2.047221 1_555
O0 Tm0 2.711097 1_555
O0 Tm0 2.711097 1_545
O2 Tm0 2.243257 1_545
O2 Tm0 2.243257 1_555
O3 Tm0 2.379144 1_455
O3 Tm0 2.379144 1_555
O4 Tm0 2.306037 1_555
O4 Tm0 2.306037 1_455
