# generated using pymatgen
data_Na2Y2Sc2SiS5O24
_symmetry_space_group_name_H-M   'P 1'
_cell_length_a   9.01900171
_cell_length_b   9.00665008
_cell_length_c   23.91195491
_cell_angle_alpha   89.97225349
_cell_angle_beta   90.01592647
_cell_angle_gamma   119.96325879
_symmetry_Int_Tables_number   1
_chemical_formula_structural   Na2Y2Sc2SiS5O24
_chemical_formula_sum   'Na6 Y6 Sc6 Si3 S15 O72'
_cell_volume   1682.78290876
_cell_formula_units_Z   3
loop_
 _symmetry_equiv_pos_site_id
 _symmetry_equiv_pos_as_xyz
  1  'x, y, z'
loop_
 _atom_site_type_symbol
 _atom_site_label
 _atom_site_symmetry_multiplicity
 _atom_site_fract_x
 _atom_site_fract_y
 _atom_site_fract_z
 _atom_site_occupancy
  Na  Na0  1  0.98457340  0.98039588  0.50786944  1
  Na  Na1  1  0.99972790  0.99973227  0.99808652  1
  Na  Na2  1  0.66837356  0.32093336  0.82513624  1
  Na  Na3  1  0.65062272  0.32025289  0.33298935  1
  Na  Na4  1  0.33149652  0.67720257  0.17335899  1
  Na  Na5  1  0.37544873  0.68194781  0.66543270  1
  Y  Y0  1  0.01028616  0.00206473  0.34801786  1
  Y  Y1  1  0.98119374  0.98781534  0.64858027  1
  Y  Y2  1  0.66564452  0.33239166  0.68624865  1
  Y  Y3  1  0.66735811  0.34247624  0.48188935  1
  Y  Y4  1  0.34526903  0.66707281  0.52072450  1
  Y  Y5  1  0.34207678  0.67338129  0.81503823  1
  Sc  Sc0  1  0.98842323  0.00244742  0.84820177  1
  Sc  Sc1  1  0.01140109  0.99547170  0.15191138  1
  Sc  Sc2  1  0.65844556  0.32423285  0.18550337  1
  Sc  Sc3  1  0.66714942  0.33233246  0.98435051  1
  Sc  Sc4  1  0.33316434  0.66743886  0.01813483  1
  Sc  Sc5  1  0.33250224  0.67773873  0.31164113  1
  Si  Si0  1  0.30040718  0.99795177  0.24797206  1
  Si  Si1  1  0.70414921  0.00863382  0.75246036  1
  Si  Si2  1  0.66932183  0.63354660  0.58428879  1
  S  S0  1  0.70325482  0.70261687  0.24667201  1
  S  S1  1  0.00059525  0.29645949  0.24649598  1
  S  S2  1  0.28994080  0.28725415  0.75315004  1
  S  S3  1  0.99768514  0.70842950  0.75430586  1
  S  S4  1  0.96393383  0.33369128  0.58227343  1
  S  S5  1  0.36792266  0.03782907  0.58257185  1
  S  S6  1  0.95817026  0.62400710  0.08237656  1
  S  S7  1  0.66605517  0.04084006  0.08226955  1
  S  S8  1  0.37572196  0.33488335  0.08243476  1
  S  S9  1  0.63009843  0.66497518  0.92169168  1
  S  S10  1  0.03675351  0.37036394  0.92140622  1
  S  S11  1  0.33373176  0.96437512  0.92173730  1
  S  S12  1  0.62523187  0.96040108  0.41220342  1
  S  S13  1  0.33369415  0.37750562  0.41204549  1
  S  S14  1  0.04112036  0.66243070  0.41339993  1
  O  O0  1  0.22204508  0.03490153  0.30316809  1
  O  O1  1  0.80416876  0.77695650  0.29793667  1
  O  O2  1  0.96510396  0.19304494  0.29781330  1
  O  O3  1  0.19970222  0.18292476  0.80387847  1
  O  O4  1  0.98931914  0.80268614  0.80464661  1
  O  O5  1  0.81716454  0.01319593  0.80930798  1
  O  O6  1  0.79145903  0.98803761  0.69675186  1
  O  O7  1  0.19850721  0.20801104  0.70135354  1
  O  O8  1  0.02546588  0.80680412  0.70272081  1
  O  O9  1  0.78829167  0.81520612  0.19725681  1
  O  O10  1  0.02191467  0.20684996  0.19731784  1
  O  O11  1  0.17531785  0.97150402  0.19318780  1
  O  O12  1  0.87810761  0.34451682  0.63312358  1
  O  O13  1  0.47143462  0.11628690  0.63318880  1
  O  O14  1  0.65650565  0.52545921  0.64001494  1
  O  O15  1  0.88017687  0.52013327  0.13272621  1
  O  O16  1  0.64017978  0.12076821  0.13253818  1
  O  O17  1  0.48126511  0.36125127  0.13272475  1
  O  O18  1  0.45941062  0.31073070  0.03228134  1
  O  O19  1  0.85135184  0.53905292  0.03200605  1
  O  O20  1  0.68719882  0.14841353  0.03207930  1
  O  O21  1  0.45670184  0.13357557  0.53109003  1
  O  O22  1  0.67647664  0.53845799  0.52617280  1
  O  O23  1  0.86039614  0.31087030  0.53116931  1
  O  O24  1  0.53892497  0.68699729  0.97068111  1
  O  O25  1  0.14879894  0.46322920  0.97061467  1
  O  O26  1  0.31499161  0.85200510  0.97093072  1
  O  O27  1  0.54475546  0.86605723  0.46390355  1
  O  O28  1  0.32104764  0.45803237  0.46395265  1
  O  O29  1  0.13604364  0.67844419  0.46490047  1
  O  O30  1  0.13564722  0.65588846  0.36299291  1
  O  O31  1  0.52004252  0.86530863  0.36234701  1
  O  O32  1  0.34425435  0.47999221  0.36207832  1
  O  O33  1  0.10716161  0.47087539  0.87020676  1
  O  O34  1  0.36331179  0.89240648  0.87065383  1
  O  O35  1  0.52845851  0.63386013  0.87062229  1
  O  O36  1  0.01687629  0.81414414  0.40970905  1
  O  O37  1  0.79678515  0.97718343  0.40793688  1
  O  O38  1  0.17641246  0.20544295  0.41000293  1
  O  O39  1  0.02217286  0.19917835  0.91771531  1
  O  O40  1  0.18028218  0.98180402  0.91795447  1
  O  O41  1  0.80223699  0.81861764  0.91712348  1
  O  O42  1  0.99486874  0.18743701  0.58461351  1
  O  O43  1  0.20195122  0.03129315  0.58574368  1
  O  O44  1  0.84012031  0.82180666  0.58158164  1
  O  O45  1  0.97464246  0.79693273  0.08741581  1
  O  O46  1  0.81911919  0.02214467  0.08776181  1
  O  O47  1  0.20232266  0.18143393  0.08847361  1
  O  O48  1  0.68915590  0.17976581  0.75344377  1
  O  O49  1  0.46327570  0.30945350  0.75312396  1
  O  O50  1  0.83905416  0.54097971  0.75251190  1
  O  O51  1  0.68886693  0.53215461  0.23794974  1
  O  O52  1  0.85248992  0.32330153  0.23714791  1
  O  O53  1  0.49126464  0.16644219  0.23660588  1
  O  O54  1  0.64840317  0.51054828  0.93124537  1
  O  O55  1  0.86309424  0.34956028  0.93104775  1
  O  O56  1  0.48908479  0.13709877  0.93085925  1
  O  O57  1  0.63948390  0.13137281  0.41298247  1
  O  O58  1  0.48672634  0.35588404  0.41317507  1
  O  O59  1  0.87100522  0.50385178  0.41326047  1
  O  O60  1  0.35772997  0.49027417  0.07455193  1
  O  O61  1  0.13256654  0.64474732  0.07433777  1
  O  O62  1  0.50960360  0.86781049  0.07466825  1
  O  O63  1  0.34086301  0.86138520  0.57895060  1
  O  O64  1  0.49798960  0.65422495  0.58329597  1
  O  O65  1  0.13019851  0.49515409  0.57815440  1
  O  O66  1  0.31840083  0.82563500  0.25454508  1
  O  O67  1  0.52959379  0.68056142  0.25269826  1
  O  O68  1  0.15843533  0.46574232  0.25302512  1
  O  O69  1  0.30177990  0.45762921  0.75842267  1
  O  O70  1  0.14588808  0.68071689  0.76043416  1
  O  O71  1  0.51520634  0.83402737  0.75632035  1
loop_
_geom_bond_atom_site_label_1
_geom_bond_atom_site_label_2
_geom_bond_distance
_geom_bond_site_symmetry_2
Na0 O44 2.232561 1_555
Na0 O43 2.573402 1_665
Na0 O42 2.585297 1_565
Na0 O36 2.876790 1_655
Na0 O37 2.920326 1_555
Na0 O38 3.012144 1_665
Na1 O39 2.568054 1_665
Na1 O40 2.571771 1_655
Na1 O41 2.584646 1_555
Na1 O45 2.744779 1_556
Na1 O46 2.760974 1_566
Na1 O47 2.775343 1_666
Na2 O48 2.197930 1_555
Na2 O49 2.490954 1_555
Na2 O50 2.502788 1_555
Na3 O57 2.527669 1_555
Na3 O58 2.537802 1_555
Na3 O59 2.662177 1_555
Na3 O53 2.703504 1_555
Na3 O51 2.874846 1_555
Na3 O52 2.918896 1_555
Na4 O66 2.393799 1_555
Na4 O68 2.592526 1_555
Na4 O67 2.595454 1_555
Na4 O62 2.887938 1_555
Na4 O61 2.895737 1_555
Na4 O60 2.979052 1_555
Na5 O64 2.327795 1_555
Na5 O71 2.542628 1_555
Na5 O63 2.735979 1_555
Na5 O69 2.850118 1_555
Na5 O65 2.891747 1_555
O0 Si0 1.608763 1_545
O0 Y0 2.078887 1_555
O1 S0 1.473364 1_555
O1 Y0 2.288407 1_665
O2 S1 1.475490 1_655
O2 Y0 2.294304 1_655
O3 S2 1.500759 1_555
O3 Sc0 2.074134 1_455
O4 S3 1.496801 1_555
O4 Sc0 2.082824 1_565
O5 Si1 1.686973 1_555
O5 Sc0 1.846221 1_555
O6 Si1 1.604901 1_565
O6 Y1 2.063882 1_555
O7 S2 1.461446 1_555
O7 Y1 2.342083 1_445
O8 S3 1.465163 1_455
O8 Y1 2.267431 1_455
O9 S0 1.495060 1_555
O9 Sc1 2.144039 1_655
O10 S1 1.492400 1_555
O10 Sc1 2.152667 1_545
O11 Si0 1.666335 1_555
O11 Sc1 1.877257 1_555
O12 S4 1.470779 1_555
O12 Y2 2.256032 1_555
O13 S5 1.475494 1_555
O13 Y2 2.249865 1_555
O14 Si2 1.619603 1_555
O14 Y2 2.096189 1_555
O15 S6 1.470239 1_555
O15 Sc2 2.275892 1_555
O16 S7 1.478634 1_555
O16 Sc2 2.165624 1_555
O17 S8 1.477300 1_555
O17 Sc2 2.188185 1_555
O18 S8 1.489977 1_555
O18 Sc3 2.121006 1_554
O19 S6 1.492725 1_555
O19 Sc3 2.106263 1_554
O20 S7 1.493280 1_555
O20 Sc3 2.092001 1_554
O21 S5 1.486611 1_555
O21 Y3 2.227598 1_555
O22 Si2 1.650823 1_555
O22 Y3 2.024973 1_555
O23 S4 1.488426 1_555
O23 Y3 2.234797 1_555
O24 S9 1.500480 1_555
O24 Sc4 2.106387 1_556
O25 S10 1.503770 1_555
O25 Sc4 2.094031 1_556
O26 S11 1.504880 1_555
O26 Sc4 2.081940 1_556
O27 S12 1.469891 1_555
O27 Y4 2.252362 1_555
O28 S13 1.470782 1_555
O28 Y4 2.242061 1_555
O29 S14 1.465100 1_555
O29 Y4 2.354707 1_555
O30 S14 1.494635 1_555
O30 Sc5 2.085823 1_555
O31 S12 1.497851 1_555
O31 Sc5 2.081244 1_555
O32 S13 1.483195 1_555
O32 Sc5 2.196427 1_555
O33 S10 1.465181 1_555
O33 Y5 2.386415 1_555
O34 S11 1.468704 1_555
O34 Y5 2.306891 1_555
O35 S9 1.467382 1_555
O35 Y5 2.305415 1_555
O36 S14 1.490319 1_555
O36 Y0 2.267667 1_565
O37 S12 1.481104 1_555
O37 Y0 2.319714 1_665
O38 S13 1.490091 1_555
O38 Y0 2.248782 1_555
O39 S10 1.483191 1_555
O39 Sc0 2.336448 1_455
O40 S11 1.471427 1_555
O40 Sc0 2.475925 1_465
O41 S9 1.480240 1_555
O41 Sc0 2.344968 1_565
O42 S4 1.477559 1_555
O42 Y1 2.315872 1_545
O43 S5 1.470359 1_555
O43 Y1 2.365886 1_445
O44 Si2 1.625749 1_555
O44 Y1 2.126491 1_555
O45 S6 1.493781 1_555
O45 Sc1 2.257457 1_655
O46 S7 1.477636 1_555
O46 Sc1 2.415040 1_645
O47 S8 1.489174 1_555
O47 Sc1 2.278047 1_545
O48 Si1 1.613306 1_555
O48 Y2 2.192068 1_555
O49 S2 1.473664 1_555
O49 Y2 2.357062 1_555
O50 S3 1.472407 1_555
O50 Y2 2.356399 1_555
O51 S0 1.489549 1_555
O51 Sc2 2.154949 1_555
O52 S1 1.488296 1_655
O52 Sc2 2.145077 1_555
O53 Si0 1.652382 1_545
O53 Sc2 1.909256 1_555
O54 S9 1.497663 1_555
O54 Sc3 2.118141 1_555
O55 S10 1.499455 1_655
O55 Sc3 2.121051 1_555
O56 S11 1.501240 1_545
O56 Sc3 2.118346 1_555
O57 S12 1.480006 1_545
O57 Y3 2.432802 1_555
O58 S13 1.487296 1_555
O58 Y3 2.358643 1_555
O59 S14 1.484933 1_655
O59 Y3 2.347722 1_555
O60 S8 1.499061 1_555
O60 Sc4 2.183122 1_555
O61 S6 1.500814 1_455
O61 Sc4 2.180095 1_555
O62 S7 1.502104 1_565
O62 Sc4 2.179245 1_555
O63 S5 1.485001 1_565
O63 Y4 2.252732 1_555
O64 Si2 1.646354 1_555
O64 Y4 2.075359 1_555
O65 S4 1.481489 1_455
O65 Y4 2.246156 1_555
O66 Si0 1.646533 1_555
O66 Sc5 1.954963 1_555
O67 S0 1.484141 1_555
O67 Sc5 2.259012 1_555
O68 S1 1.485792 1_555
O68 Sc5 2.254337 1_555
O69 S2 1.489472 1_555
O69 Y5 2.244481 1_555
O70 S3 1.484417 1_455
O70 Y5 2.226088 1_555
O71 Si1 1.645778 1_565
O71 Y5 2.060465 1_555
