# generated using pymatgen
data_Ba4Sb4Se11
_symmetry_space_group_name_H-M   'P 1'
_cell_length_a   9.11967600
_cell_length_b   9.32438100
_cell_length_c   28.31214600
_cell_angle_alpha   90.00000000
_cell_angle_beta   90.00000000
_cell_angle_gamma   90.00000000
_symmetry_Int_Tables_number   1
_chemical_formula_structural   Ba4Sb4Se11
_chemical_formula_sum   'Ba16 Sb16 Se44'
_cell_volume   2407.53278062
_cell_formula_units_Z   4
loop_
 _symmetry_equiv_pos_site_id
 _symmetry_equiv_pos_as_xyz
  1  'x, y, z'
loop_
 _atom_site_type_symbol
 _atom_site_label
 _atom_site_symmetry_multiplicity
 _atom_site_fract_x
 _atom_site_fract_y
 _atom_site_fract_z
 _atom_site_occupancy
  Ba  Ba0  1  0.65226000  0.74702300  0.94057000  1
  Ba  Ba1  1  0.15226000  0.75297700  0.55943000  1
  Ba  Ba2  1  0.34774000  0.74702300  0.05943000  1
  Ba  Ba3  1  0.84774000  0.75297700  0.44057000  1
  Ba  Ba4  1  0.34774000  0.25297700  0.05943000  1
  Ba  Ba5  1  0.84774000  0.24702300  0.44057000  1
  Ba  Ba6  1  0.65226000  0.25297700  0.94057000  1
  Ba  Ba7  1  0.15226000  0.24702300  0.55943000  1
  Ba  Ba8  1  0.43293300  0.74791500  0.70912200  1
  Ba  Ba9  1  0.93293300  0.75208500  0.79087800  1
  Ba  Ba10  1  0.56706700  0.74791500  0.29087800  1
  Ba  Ba11  1  0.06706700  0.75208500  0.20912200  1
  Ba  Ba12  1  0.56706700  0.25208500  0.29087800  1
  Ba  Ba13  1  0.06706700  0.24791500  0.20912200  1
  Ba  Ba14  1  0.43293300  0.25208500  0.70912200  1
  Ba  Ba15  1  0.93293300  0.24791500  0.79087800  1
  Sb  Sb0  1  0.91702300  0.50000000  0.06380200  1
  Sb  Sb1  1  0.41702300  0.00000000  0.43619800  1
  Sb  Sb2  1  0.08297700  0.50000000  0.93619800  1
  Sb  Sb3  1  0.58297700  0.00000000  0.56380200  1
  Sb  Sb4  1  0.46061300  0.50000000  0.42740200  1
  Sb  Sb5  1  0.96061300  0.00000000  0.07259800  1
  Sb  Sb6  1  0.53938700  0.50000000  0.57259800  1
  Sb  Sb7  1  0.03938700  0.00000000  0.92740200  1
  Sb  Sb8  1  0.13126900  0.50000000  0.34297300  1
  Sb  Sb9  1  0.63126900  0.00000000  0.15702700  1
  Sb  Sb10  1  0.86873100  0.50000000  0.65702700  1
  Sb  Sb11  1  0.36873100  0.00000000  0.84297300  1
  Sb  Sb12  1  0.63684900  0.50000000  0.16073800  1
  Sb  Sb13  1  0.13684900  0.00000000  0.33926200  1
  Sb  Sb14  1  0.36315100  0.50000000  0.83926200  1
  Sb  Sb15  1  0.86315100  0.00000000  0.66073800  1
  Se  Se0  1  0.10117000  0.50000000  0.47235300  1
  Se  Se1  1  0.60117000  0.00000000  0.02764700  1
  Se  Se2  1  0.89883000  0.50000000  0.52764700  1
  Se  Se3  1  0.39883000  0.00000000  0.97235300  1
  Se  Se4  1  0.27303400  0.50000000  0.26404700  1
  Se  Se5  1  0.77303400  0.00000000  0.23595300  1
  Se  Se6  1  0.72696600  0.50000000  0.73595300  1
  Se  Se7  1  0.22696600  0.00000000  0.76404700  1
  Se  Se8  1  0.50000000  0.79834200  0.50000000  1
  Se  Se9  1  0.00000000  0.70165800  0.00000000  1
  Se  Se10  1  0.50000000  0.20165800  0.50000000  1
  Se  Se11  1  0.00000000  0.29834200  0.00000000  1
  Se  Se12  1  0.59880800  0.50000000  0.03004700  1
  Se  Se13  1  0.09880800  0.00000000  0.46995300  1
  Se  Se14  1  0.40119200  0.50000000  0.96995300  1
  Se  Se15  1  0.90119200  0.00000000  0.53004700  1
  Se  Se16  1  0.79032700  0.50000000  0.23853300  1
  Se  Se17  1  0.29032700  0.00000000  0.26146700  1
  Se  Se18  1  0.31899900  0.29444700  0.38361100  1
  Se  Se19  1  0.20967300  0.50000000  0.76146700  1
  Se  Se20  1  0.69517200  0.50000000  0.37424300  1
  Se  Se21  1  0.19517200  0.00000000  0.12575700  1
  Se  Se22  1  0.30482800  0.50000000  0.62575700  1
  Se  Se23  1  0.80482800  0.00000000  0.87424300  1
  Se  Se24  1  0.14935000  0.50000000  0.11792000  1
  Se  Se25  1  0.64935000  0.00000000  0.38208000  1
  Se  Se26  1  0.85065000  0.50000000  0.88208000  1
  Se  Se27  1  0.35065000  0.00000000  0.61792000  1
  Se  Se28  1  0.68100100  0.70555300  0.61638900  1
  Se  Se29  1  0.18100100  0.79444700  0.88361100  1
  Se  Se30  1  0.31899900  0.70555300  0.38361100  1
  Se  Se31  1  0.81899900  0.79444700  0.11638900  1
  Se  Se32  1  0.53845500  0.27813500  0.82500900  1
  Se  Se33  1  0.03845500  0.22186500  0.67499100  1
  Se  Se34  1  0.46154500  0.27813500  0.17499100  1
  Se  Se35  1  0.96154500  0.22186500  0.32500900  1
  Se  Se36  1  0.46154500  0.72186500  0.17499100  1
  Se  Se37  1  0.96154500  0.77813500  0.32500900  1
  Se  Se38  1  0.53845500  0.72186500  0.82500900  1
  Se  Se39  1  0.03845500  0.77813500  0.67499100  1
  Se  Se40  1  0.18100100  0.20555300  0.88361100  1
  Se  Se41  1  0.68100100  0.29444700  0.61638900  1
  Se  Se42  1  0.81899900  0.20555300  0.11638900  1
  Se  Se43  1  0.70967300  0.00000000  0.73853300  1
loop_
_geom_bond_atom_site_label_1
_geom_bond_atom_site_label_2
_geom_bond_distance
_geom_bond_site_symmetry_2
Ba0 Se23 3.320612 1_565
Ba0 Se14 3.352603 1_555
Ba0 Se26 3.364672 1_555
Ba0 Se3 3.422799 1_565
Ba0 Se38 3.440456 1_555
Ba0 Se1 3.443713 1_566
Ba0 Se12 3.458398 1_556
Ba0 Se9 3.614835 1_656
Ba1 Se22 3.320612 1_555
Ba1 Se15 3.352603 1_465
Ba1 Se27 3.364672 1_565
Ba1 Se2 3.422799 1_455
Ba1 Se39 3.440456 1_555
Ba1 Se0 3.443713 1_555
Ba1 Se13 3.458398 1_565
Ba1 Se8 3.614835 1_555
Ba2 Se21 3.320612 1_565
Ba2 Se12 3.352603 1_555
Ba2 Se24 3.364672 1_555
Ba2 Se1 3.422799 1_565
Ba2 Se36 3.440456 1_555
Ba2 Se3 3.443713 1_564
Ba2 Se14 3.458398 1_554
Ba2 Se9 3.614835 1_555
Ba3 Se20 3.320612 1_555
Ba3 Se13 3.352603 1_665
Ba3 Se25 3.364672 1_565
Ba3 Se0 3.422799 1_655
Ba3 Se37 3.440456 1_555
Ba3 Se2 3.443713 1_555
Ba3 Se15 3.458398 1_565
Ba3 Se8 3.614835 1_555
Ba4 Se21 3.320612 1_555
Ba4 Se12 3.352603 1_555
Ba4 Se24 3.364672 1_555
Ba4 Se1 3.422799 1_555
Ba4 Se34 3.440456 1_555
Ba4 Se3 3.443713 1_554
Ba4 Se14 3.458398 1_554
Ba4 Se11 3.614835 1_555
Ba5 Se20 3.320612 1_555
Ba5 Se13 3.352603 1_655
Ba5 Se25 3.364672 1_555
Ba5 Se0 3.422799 1_655
Ba5 Se35 3.440456 1_555
Ba5 Se2 3.443713 1_555
Ba5 Se15 3.458398 1_555
Ba5 Se10 3.614835 1_555
Ba6 Se23 3.320612 1_555
Ba6 Se14 3.352603 1_555
Ba6 Se26 3.364672 1_555
Ba6 Se3 3.422799 1_555
Ba6 Se32 3.440456 1_555
Ba6 Se1 3.443713 1_556
Ba6 Se12 3.458398 1_556
Ba6 Se11 3.614835 1_656
Ba7 Se22 3.320612 1_555
Ba7 Se15 3.352603 1_455
Ba7 Se27 3.364672 1_555
Ba7 Se2 3.422799 1_455
Ba7 Se33 3.440456 1_555
Ba7 Se0 3.443713 1_555
Ba7 Se13 3.458398 1_555
Ba7 Se10 3.614835 1_555
Ba8 Se7 3.386945 1_565
Ba8 Se19 3.418421 1_555
Ba8 Se38 3.427841 1_555
Ba8 Se28 3.488140 1_555
Ba8 Se22 3.504191 1_555
Ba8 Se43 3.547937 1_565
Ba8 Se27 3.571481 1_565
Ba8 Se6 3.620935 1_555
Ba8 Se39 3.735675 1_555
Ba9 Se6 3.386945 1_555
Ba9 Se43 3.418421 1_565
Ba9 Se39 3.427841 1_655
Ba9 Se29 3.488140 1_655
Ba9 Se23 3.504191 1_565
Ba9 Se19 3.547937 1_655
Ba9 Se26 3.571481 1_555
Ba9 Se7 3.620935 1_665
Ba9 Se38 3.735675 1_555
Ba10 Se5 3.386945 1_565
Ba10 Se16 3.418421 1_555
Ba10 Se36 3.427841 1_555
Ba10 Se30 3.488140 1_555
Ba10 Se20 3.504191 1_555
Ba10 Se17 3.547937 1_565
Ba10 Se25 3.571481 1_565
Ba10 Se4 3.620935 1_555
Ba10 Se37 3.735675 1_555
Ba11 Se4 3.386945 1_555
Ba11 Se17 3.418421 1_565
Ba11 Se37 3.427841 1_455
Ba11 Se31 3.488140 1_455
Ba11 Se21 3.504191 1_565
Ba11 Se16 3.547937 1_455
Ba11 Se24 3.571481 1_555
Ba11 Se5 3.620935 1_465
Ba11 Se36 3.735675 1_555
Ba12 Se5 3.386945 1_555
Ba12 Se16 3.418421 1_555
Ba12 Se34 3.427841 1_555
Ba12 Se18 3.488140 1_555
Ba12 Se20 3.504191 1_555
Ba12 Se17 3.547937 1_555
Ba12 Se25 3.571481 1_555
Ba12 Se4 3.620935 1_555
Ba12 Se35 3.735675 1_555
Ba13 Se4 3.386945 1_555
Ba13 Se17 3.418421 1_555
Ba13 Se35 3.427841 1_455
Ba13 Se42 3.488140 1_455
Ba13 Se21 3.504191 1_555
Ba13 Se16 3.547937 1_455
Ba13 Se24 3.571481 1_555
Ba13 Se5 3.620935 1_455
Ba13 Se34 3.735675 1_555
Ba14 Se7 3.386945 1_555
Ba14 Se19 3.418421 1_555
Ba14 Se32 3.427841 1_555
Ba14 Se41 3.488140 1_555
Ba14 Se22 3.504191 1_555
Ba14 Se43 3.547937 1_555
Ba14 Se27 3.571481 1_555
Ba14 Se6 3.620935 1_555
Ba14 Se33 3.735675 1_555
Ba15 Se6 3.386945 1_555
Ba15 Se43 3.418421 1_555
Ba15 Se33 3.427841 1_655
Ba15 Se40 3.488140 1_655
Ba15 Se23 3.504191 1_555
Ba15 Se19 3.547937 1_655
Ba15 Se26 3.571481 1_555
Ba15 Se7 3.620935 1_655
Ba15 Se32 3.735675 1_555
Sb0 Se24 2.614711 1_655
Sb0 Se11 2.715009 1_655
Sb0 Se9 2.715009 1_655
Sb0 Se12 3.055327 1_555
Sb0 Se31 3.248659 1_555
Sb0 Se42 3.248659 1_555
Sb1 Se25 2.614711 1_555
Sb1 Se10 2.715009 1_555
Sb1 Se8 2.715009 1_545
Sb1 Se13 3.055327 1_555
Sb1 Se18 3.248659 1_555
Sb1 Se30 3.248659 1_545
Sb2 Se26 2.614711 1_455
Sb2 Se9 2.715009 1_556
Sb2 Se11 2.715009 1_556
Sb2 Se14 3.055327 1_555
Sb2 Se29 3.248659 1_555
Sb2 Se40 3.248659 1_555
Sb3 Se27 2.614711 1_555
Sb3 Se8 2.715009 1_545
Sb3 Se10 2.715009 1_555
Sb3 Se15 3.055327 1_555
Sb3 Se41 3.248659 1_555
Sb3 Se28 3.248659 1_545
Sb4 Se20 2.615515 1_555
Sb4 Se30 2.622712 1_555
Sb4 Se18 2.622712 1_555
Sb5 Se21 2.615515 1_655
Sb5 Se42 2.622712 1_555
Sb5 Se31 2.622712 1_545
Sb6 Se22 2.615515 1_555
Sb6 Se28 2.622712 1_555
Sb6 Se41 2.622712 1_555
Sb7 Se23 2.615515 1_455
Sb7 Se40 2.622712 1_555
Sb7 Se29 2.622712 1_545
Sb8 Se4 2.581616 1_555
Sb8 Se30 2.815741 1_555
Sb8 Se18 2.815741 1_555
Sb8 Se37 3.062737 1_455
Sb8 Se35 3.062737 1_455
Sb9 Se5 2.581616 1_555
Sb9 Se31 2.815741 1_545
Sb9 Se42 2.815741 1_555
Sb9 Se36 3.062737 1_545
Sb9 Se34 3.062737 1_555
Sb10 Se6 2.581616 1_555
Sb10 Se41 2.815741 1_555
Sb10 Se28 2.815741 1_555
Sb10 Se33 3.062737 1_655
Sb10 Se39 3.062737 1_655
Sb11 Se7 2.581616 1_555
Sb11 Se40 2.815741 1_555
Sb11 Se29 2.815741 1_545
Sb11 Se32 3.062737 1_555
Sb11 Se38 3.062737 1_545
Sb12 Se16 2.609650 1_555
Sb12 Se34 2.645463 1_555
Sb12 Se36 2.645463 1_555
Sb13 Se17 2.609650 1_555
Sb13 Se37 2.645463 1_445
Sb13 Se35 2.645463 1_455
Sb14 Se19 2.609650 1_555
Sb14 Se38 2.645463 1_555
Sb14 Se32 2.645463 1_555
Sb15 Se43 2.609650 1_555
Sb15 Se39 2.645463 1_645
Sb15 Se33 2.645463 1_655
Se0 Se2 2.419877 1_455
Se1 Se3 2.419877 1_554
Se12 Se14 2.478433 1_554
Se13 Se15 2.478433 1_455
