# generated using pymatgen
data_LiMnPO4F
_symmetry_space_group_name_H-M   'P 1'
_cell_length_a   5.17798153
_cell_length_b   5.32406816
_cell_length_c   7.38699971
_cell_angle_alpha   108.42485369
_cell_angle_beta   104.48099720
_cell_angle_gamma   97.99152953
_symmetry_Int_Tables_number   1
_chemical_formula_structural   LiMnPO4F
_chemical_formula_sum   'Li2 Mn2 P2 O8 F2'
_cell_volume   181.72009928
_cell_formula_units_Z   2
loop_
 _symmetry_equiv_pos_site_id
 _symmetry_equiv_pos_as_xyz
  1  'x, y, z'
loop_
 _atom_site_type_symbol
 _atom_site_label
 _atom_site_symmetry_multiplicity
 _atom_site_fract_x
 _atom_site_fract_y
 _atom_site_fract_z
 _atom_site_occupancy
  Li  Li0  1  0.91100100  0.56433400  0.18742400  1
  Li  Li1  1  0.08899900  0.43566600  0.81257600  1
  Mn  Mn0  1  0.00000000  0.00000000  0.00000000  1
  Mn  Mn1  1  0.50000000  0.50000000  0.50000000  1
  P  P0  1  0.45107500  0.11843300  0.76649900  1
  P  P1  1  0.54892500  0.88156700  0.23350100  1
  O  O0  1  0.70694500  0.83508100  0.07606400  1
  O  O1  1  0.63893100  0.68055600  0.33714300  1
  O  O2  1  0.36106900  0.31944400  0.66285700  1
  O  O3  1  0.62979700  0.17640000  0.37995900  1
  O  O4  1  0.29305500  0.16491900  0.92393600  1
  O  O5  1  0.37020300  0.82360000  0.62004100  1
  O  O6  1  0.23270800  0.78254700  0.11731000  1
  O  O7  1  0.76729200  0.21745300  0.88269000  1
  F  F0  1  0.11814000  0.33998200  0.26839800  1
  F  F1  1  0.88186000  0.66001800  0.73160200  1
loop_
_geom_bond_atom_site_label_1
_geom_bond_atom_site_label_2
_geom_bond_distance
_geom_bond_site_symmetry_2
Li0 O1 2.044434 1_555
Li0 O0 2.146930 1_555
Li0 O6 2.160229 1_655
Li0 O7 2.276838 1_554
Li1 O2 2.044434 1_555
Li1 O4 2.146930 1_555
Li1 O7 2.160229 1_455
Li1 O6 2.276838 1_556
Mn0 O4 1.938318 1_554
Mn0 O0 1.938318 1_445
Mn0 O7 2.010739 1_454
Mn0 O6 2.010739 1_545
Mn1 O2 1.964795 1_555
Mn1 O1 1.964795 1_555
Mn1 O3 1.964838 1_555
Mn1 O5 1.964838 1_555
O0 P1 1.559984 1_555
O1 P1 1.557830 1_555
O2 P0 1.557830 1_555
O3 P1 1.525444 1_545
O4 P0 1.559984 1_555
O5 P0 1.525444 1_565
O6 P1 1.570571 1_555
O7 P0 1.570571 1_555
F0 Li0 1.849846 1_455
F0 Mn0 2.097274 1_555
F0 Mn1 2.116801 1_555
F1 Li1 1.849846 1_655
F1 Mn0 2.097274 1_666
F1 Mn1 2.116801 1_555
