# generated using pymatgen
data_La3C2Br3
_symmetry_space_group_name_H-M   'P 1'
_cell_length_a   10.45406570
_cell_length_b   10.45406570
_cell_length_c   17.30637100
_cell_angle_alpha   90.00000000
_cell_angle_beta   90.00000000
_cell_angle_gamma   112.09265157
_symmetry_Int_Tables_number   1
_chemical_formula_structural   La3C2Br3
_chemical_formula_sum   'La24 C16 Br24'
_cell_volume   1752.49955944
_cell_formula_units_Z   8
loop_
 _symmetry_equiv_pos_site_id
 _symmetry_equiv_pos_as_xyz
  1  'x, y, z'
loop_
 _atom_site_type_symbol
 _atom_site_label
 _atom_site_symmetry_multiplicity
 _atom_site_fract_x
 _atom_site_fract_y
 _atom_site_fract_z
 _atom_site_occupancy
  La  La0  1  0.16514600  0.83485400  0.25000000  1
  La  La1  1  0.83485400  0.16514600  0.75000000  1
  La  La2  1  0.98397000  0.44944800  0.60368300  1
  La  La3  1  0.01603000  0.55055200  0.10368300  1
  La  La4  1  0.44944800  0.98397000  0.39631700  1
  La  La5  1  0.55055200  0.01603000  0.89631700  1
  La  La6  1  0.22500800  0.25243400  0.39522700  1
  La  La7  1  0.77499200  0.74756600  0.89522700  1
  La  La8  1  0.25243400  0.22500800  0.60477300  1
  La  La9  1  0.74756600  0.77499200  0.10477300  1
  La  La10  1  0.60875700  0.32231600  0.51710900  1
  La  La11  1  0.39124300  0.67768400  0.01710900  1
  La  La12  1  0.32231600  0.60875700  0.48289100  1
  La  La13  1  0.67768400  0.39124300  0.98289100  1
  La  La14  1  0.88443500  0.14111900  0.49740200  1
  La  La15  1  0.11556500  0.85888100  0.99740200  1
  La  La16  1  0.14111900  0.88443500  0.50259800  1
  La  La17  1  0.85888100  0.11556500  0.00259800  1
  La  La18  1  0.37525700  0.62474300  0.25000000  1
  La  La19  1  0.62474300  0.37525700  0.75000000  1
  La  La20  1  0.98764700  0.47993600  0.87564900  1
  La  La21  1  0.01235300  0.52006400  0.37564900  1
  La  La22  1  0.47993600  0.98764700  0.12435100  1
  La  La23  1  0.52006400  0.01235300  0.62435100  1
  C  C0  1  0.85958300  0.66314900  0.02383600  1
  C  C1  1  0.14041700  0.33685100  0.52383600  1
  C  C2  1  0.66314900  0.85958300  0.97616400  1
  C  C3  1  0.33685100  0.14041700  0.47616400  1
  C  C4  1  0.91340000  0.59971500  0.96825000  1
  C  C5  1  0.08660000  0.40028500  0.46825000  1
  C  C6  1  0.59971500  0.91340000  0.03175000  1
  C  C7  1  0.40028500  0.08660000  0.53175000  1
  C  C8  1  0.71301900  0.27308800  0.65025500  1
  C  C9  1  0.28698100  0.72691200  0.15025500  1
  C  C10  1  0.27308800  0.71301900  0.34974500  1
  C  C11  1  0.72691200  0.28698100  0.84974500  1
  C  C12  1  0.78391300  0.22633900  0.90513600  1
  C  C13  1  0.21608700  0.77366000  0.40513600  1
  C  C14  1  0.22634000  0.78391300  0.09486400  1
  C  C15  1  0.77366000  0.21608700  0.59486400  1
  Br  Br0  1  0.24452500  0.73168900  0.62928900  1
  Br  Br1  1  0.75547500  0.26831100  0.12928900  1
  Br  Br2  1  0.73168900  0.24452500  0.37071100  1
  Br  Br3  1  0.26831100  0.75547500  0.87071100  1
  Br  Br4  1  0.85738700  0.61666500  0.50289200  1
  Br  Br5  1  0.14261300  0.38333500  0.00289200  1
  Br  Br6  1  0.61666500  0.85738700  0.49710800  1
  Br  Br7  1  0.38333500  0.14261300  0.99710800  1
  Br  Br8  1  0.13456300  0.36928700  0.74075400  1
  Br  Br9  1  0.86543700  0.63071300  0.24075400  1
  Br  Br10  1  0.36928700  0.13456300  0.25924600  1
  Br  Br11  1  0.63071300  0.86543700  0.75924600  1
  Br  Br12  1  0.50574400  0.49427600  0.38392800  1
  Br  Br13  1  0.49425600  0.50572400  0.88392800  1
  Br  Br14  1  0.49427600  0.50574400  0.61607200  1
  Br  Br15  1  0.50572400  0.49425600  0.11607200  1
  Br  Br16  1  0.89763800  0.63231100  0.74235800  1
  Br  Br17  1  0.10236200  0.36768900  0.24235800  1
  Br  Br18  1  0.63231100  0.89763800  0.25764200  1
  Br  Br19  1  0.36768900  0.10236200  0.75764200  1
  Br  Br20  1  0.02468600  0.01353000  0.13103000  1
  Br  Br21  1  0.97531400  0.98647000  0.63103000  1
  Br  Br22  1  0.01353000  0.02468600  0.86897000  1
  Br  Br23  1  0.98647000  0.97531400  0.36897000  1
loop_
_geom_bond_atom_site_label_1
_geom_bond_atom_site_label_2
_geom_bond_distance
_geom_bond_site_symmetry_2
C0 C4 1.400841 1_554
C0 La9 2.393811 1_555
C0 La7 2.664930 1_554
C0 La3 2.723619 1_655
C0 La15 2.727372 1_654
C0 La13 2.851695 1_554
C1 C5 1.400841 1_555
C1 La8 2.393811 1_555
C1 La6 2.664930 1_555
C1 La2 2.723619 1_455
C1 La14 2.727372 1_455
C1 La12 2.851695 1_555
C2 C6 1.400841 1_556
C2 La7 2.393811 1_555
C2 La9 2.664930 1_556
C2 La5 2.723619 1_565
C2 La17 2.727372 1_566
C2 La11 2.851695 1_556
C3 C7 1.400841 1_555
C3 La6 2.393811 1_555
C3 La8 2.664930 1_555
C3 La4 2.723619 1_545
C3 La16 2.727372 1_545
C3 La10 2.851695 1_555
C4 La20 2.338757 1_555
C4 La13 2.616573 1_555
C4 La3 2.706233 1_656
C4 La15 2.784693 1_655
C4 La7 2.786033 1_555
C5 La21 2.338757 1_555
C5 La12 2.616573 1_555
C5 La2 2.706233 1_455
C5 La14 2.784693 1_455
C5 La6 2.786033 1_555
C6 La22 2.338757 1_555
C6 La11 2.616573 1_555
C6 La5 2.706233 1_564
C6 La17 2.784693 1_565
C6 La9 2.786033 1_555
C7 La23 2.338757 1_555
C7 La10 2.616573 1_555
C7 La4 2.706233 1_545
C7 La16 2.784693 1_545
C7 La8 2.786033 1_555
C8 La19 2.390339 1_555
C8 La1 2.637530 1_555
C8 La10 2.680388 1_555
C8 La23 2.750225 1_555
C8 La2 2.853733 1_555
C9 La18 2.390339 1_555
C9 La0 2.637530 1_555
C9 La11 2.680388 1_555
C9 La22 2.750225 1_555
C9 La3 2.853733 1_555
C10 C13 1.400028 1_555
C10 La18 2.390339 1_555
C10 La0 2.637530 1_555
C10 La12 2.680388 1_555
C10 La21 2.750225 1_555
C10 La4 2.853733 1_555
C11 C12 1.400034 1_555
C11 La19 2.390339 1_555
C11 La1 2.637530 1_555
C11 La13 2.680388 1_555
C11 La20 2.750225 1_555
C11 La5 2.853733 1_555
C12 La17 2.341573 1_556
C12 La5 2.602694 1_555
C12 La13 2.730572 1_555
C12 La20 2.752774 1_555
C12 La1 2.856128 1_555
C13 La16 2.341580 1_555
C13 La4 2.602699 1_555
C13 La12 2.730563 1_555
C13 La21 2.752767 1_555
C13 La0 2.856131 1_555
C14 C9 1.400028 1_555
C14 La15 2.341580 1_554
C14 La3 2.602699 1_555
C14 La11 2.730563 1_555
C14 La22 2.752767 1_555
C14 La0 2.856131 1_555
C15 C8 1.400028 1_555
C15 La14 2.341580 1_555
C15 La2 2.602699 1_555
C15 La10 2.730563 1_555
C15 La23 2.752767 1_555
C15 La1 2.856131 1_555
Br0 La12 3.085174 1_555
Br0 La16 3.134356 1_555
Br0 La2 3.205646 1_455
Br0 La23 3.249003 1_565
Br1 La13 3.085174 1_554
Br1 La17 3.134356 1_555
Br1 La3 3.205646 1_655
Br1 La22 3.249003 1_545
Br2 La10 3.085174 1_555
Br2 La14 3.134356 1_555
Br2 La4 3.205646 1_545
Br2 La21 3.249003 1_655
Br3 La11 3.085174 1_556
Br3 La15 3.134356 1_555
Br3 La5 3.205646 1_565
Br3 La20 3.249003 1_455
Br4 La2 3.096729 1_555
Br4 La21 3.118375 1_655
Br4 La10 3.204514 1_555
Br4 La16 3.223104 1_655
Br5 La3 3.096729 1_555
Br5 La20 3.118375 1_454
Br5 La11 3.204514 1_555
Br5 La17 3.223104 1_455
Br6 La4 3.096729 1_555
Br6 La23 3.118375 1_565
Br6 La12 3.204514 1_555
Br6 La14 3.223104 1_565
Br7 La5 3.096729 1_555
Br7 La22 3.118375 1_546
Br7 La13 3.204514 1_555
Br7 La15 3.223104 1_545
Br8 La1 3.060576 1_455
Br8 La2 3.130563 1_455
Br8 La20 3.237805 1_455
Br8 La8 3.275608 1_555
Br9 La0 3.060576 1_655
Br9 La3 3.130563 1_655
Br9 La21 3.237805 1_655
Br9 La9 3.275608 1_555
Br10 La0 3.060576 1_545
Br10 La4 3.130563 1_545
Br10 La22 3.237805 1_545
Br10 La6 3.275608 1_555
Br11 La1 3.060576 1_565
Br11 La5 3.130563 1_565
Br11 La23 3.237805 1_565
Br11 La7 3.275608 1_555
Br12 La6 3.076049 1_555
Br12 La12 3.125533 1_555
Br12 La18 3.239263 1_555
Br12 La10 3.340671 1_555
Br13 La7 3.076049 1_555
Br13 La13 3.125533 1_555
Br13 La19 3.239263 1_555
Br13 La11 3.340671 1_556
Br14 La8 3.076049 1_555
Br14 La10 3.125533 1_555
Br14 La19 3.239263 1_555
Br14 La12 3.340671 1_555
Br15 La9 3.076049 1_555
Br15 La11 3.125533 1_555
Br15 La18 3.239263 1_555
Br15 La13 3.340671 1_554
Br16 La19 3.100152 1_555
Br16 La20 3.141909 1_555
Br16 La7 3.355136 1_555
Br16 La2 3.395086 1_555
Br17 La18 3.100152 1_555
Br17 La21 3.141909 1_555
Br17 La6 3.355136 1_555
Br17 La3 3.395086 1_555
Br18 La18 3.100152 1_555
Br18 La22 3.141909 1_555
Br18 La9 3.355136 1_555
Br18 La4 3.395086 1_555
Br19 La19 3.100152 1_555
Br19 La23 3.141909 1_555
Br19 La8 3.355136 1_555
Br19 La5 3.395086 1_555
Br20 La9 3.063263 1_445
Br20 La15 3.165426 1_544
Br20 La17 3.236263 1_455
Br20 La0 3.456519 1_545
Br21 La8 3.063263 1_665
Br21 La14 3.165426 1_565
Br21 La16 3.236263 1_655
Br21 La1 3.456519 1_565
Br22 La7 3.063263 1_445
Br22 La17 3.165426 1_456
Br22 La15 3.236263 1_545
Br22 La1 3.456519 1_455
Br23 La6 3.063263 1_665
Br23 La16 3.165426 1_655
Br23 La14 3.236263 1_565
Br23 La0 3.456519 1_655
