# generated using pymatgen
data_Na2Ga2Si(SO6)2
_symmetry_space_group_name_H-M   'P 1'
_cell_length_a   8.71484337
_cell_length_b   8.71484309
_cell_length_c   22.08284067
_cell_angle_alpha   90.39014382
_cell_angle_beta   89.60985617
_cell_angle_gamma   120.11477612
_symmetry_Int_Tables_number   1
_chemical_formula_structural   Na2Ga2Si(SO6)2
_chemical_formula_sum   'Na12 Ga12 Si6 S12 O72'
_cell_volume   1450.73426478
_cell_formula_units_Z   6
loop_
 _symmetry_equiv_pos_site_id
 _symmetry_equiv_pos_as_xyz
  1  'x, y, z'
loop_
 _atom_site_type_symbol
 _atom_site_label
 _atom_site_symmetry_multiplicity
 _atom_site_fract_x
 _atom_site_fract_y
 _atom_site_fract_z
 _atom_site_occupancy
  Na  Na0  1  0.00063597  0.62582676  0.25006008  1
  Na  Na1  1  0.37417324  0.99936403  0.75006008  1
  Na  Na2  1  0.66184942  0.96793216  0.59144908  1
  Na  Na3  1  0.03206784  0.33815058  0.09144908  1
  Na  Na4  1  0.97845927  0.67523076  0.92306416  1
  Na  Na5  1  0.32476924  0.02154073  0.42306416  1
  Na  Na6  1  0.00819527  0.98908970  0.50091007  1
  Na  Na7  1  0.01091030  0.99180473  0.00091007  1
  Na  Na8  1  0.66308096  0.31238031  0.83470088  1
  Na  Na9  1  0.68761969  0.33691904  0.33470088  1
  Na  Na10  1  0.34122688  0.66729756  0.16692384  1
  Na  Na11  1  0.33270244  0.65877312  0.66692384  1
  Ga  Ga0  1  0.98470519  0.99224021  0.35112649  1
  Ga  Ga1  1  0.00775979  0.01529481  0.85112649  1
  Ga  Ga2  1  0.00844846  0.99802297  0.64962039  1
  Ga  Ga3  1  0.00197703  0.99155154  0.14962039  1
  Ga  Ga4  1  0.67228454  0.31600191  0.68500822  1
  Ga  Ga5  1  0.68399809  0.32771546  0.18500822  1
  Ga  Ga6  1  0.65793851  0.33432028  0.98303009  1
  Ga  Ga7  1  0.66567972  0.34206149  0.48303009  1
  Ga  Ga8  1  0.31605165  0.68799711  0.01674481  1
  Ga  Ga9  1  0.31200289  0.68394835  0.51674481  1
  Ga  Ga10  1  0.29973619  0.63064529  0.31568493  1
  Ga  Ga11  1  0.36935471  0.70026381  0.81568493  1
  Si  Si0  1  0.99801280  0.27796871  0.24827605  1
  Si  Si1  1  0.72203129  0.00198720  0.74827605  1
  Si  Si2  1  0.36998888  0.04481114  0.58242269  1
  Si  Si3  1  0.95518886  0.63001112  0.08242269  1
  Si  Si4  1  0.33627375  0.97608399  0.91359934  1
  Si  Si5  1  0.02391601  0.66372625  0.41359934  1
  S  S0  1  0.30272306  0.00606764  0.25026535  1
  S  S1  1  0.69778671  0.70381519  0.25047218  1
  S  S2  1  0.29618481  0.30221329  0.75047218  1
  S  S3  1  0.99393236  0.69727694  0.75026535  1
  S  S4  1  0.96356980  0.33847746  0.58215559  1
  S  S5  1  0.66351022  0.61996220  0.58453085  1
  S  S6  1  0.66152254  0.03643020  0.08215559  1
  S  S7  1  0.38003780  0.33648978  0.08453085  1
  S  S8  1  0.61766580  0.66580386  0.91889062  1
  S  S9  1  0.05113477  0.37961570  0.91666712  1
  S  S10  1  0.62038430  0.94886523  0.41666712  1
  S  S11  1  0.33419614  0.38233420  0.41889062  1
  O  O0  1  0.22771205  0.03139215  0.30738790  1
  O  O1  1  0.81842465  0.77730912  0.30385755  1
  O  O2  1  0.97506358  0.16148467  0.30784720  1
  O  O3  1  0.22269088  0.18157535  0.80385755  1
  O  O4  1  0.96860785  0.77228795  0.80738790  1
  O  O5  1  0.83851533  0.02493642  0.80784720  1
  O  O6  1  0.80742772  0.97931809  0.68507399  1
  O  O7  1  0.18924634  0.22134161  0.69534654  1
  O  O8  1  0.03869796  0.82221909  0.69835377  1
  O  O9  1  0.77865839  0.81075366  0.19534654  1
  O  O10  1  0.02068191  0.19257228  0.18507399  1
  O  O11  1  0.17778091  0.96130204  0.19835377  1
  O  O12  1  0.89138285  0.37498011  0.63823900  1
  O  O13  1  0.49644699  0.12691692  0.64241680  1
  O  O14  1  0.64832082  0.51558390  0.63886737  1
  O  O15  1  0.87308308  0.50355301  0.14241680  1
  O  O16  1  0.62501989  0.10861715  0.13823900  1
  O  O17  1  0.48441610  0.35167918  0.13886737  1
  O  O18  1  0.45576404  0.30557331  0.02852460  1
  O  O19  1  0.84231428  0.53909965  0.02007352  1
  O  O20  1  0.69060377  0.15089124  0.02907966  1
  O  O21  1  0.46090035  0.15768572  0.52007352  1
  O  O22  1  0.69442669  0.54423596  0.52852460  1
  O  O23  1  0.84910876  0.30939623  0.52907966  1
  O  O24  1  0.52549723  0.68073670  0.97302203  1
  O  O25  1  0.15037795  0.45265929  0.97464441  1
  O  O26  1  0.27844753  0.83701997  0.96999115  1
  O  O27  1  0.54734071  0.84962205  0.47464441  1
  O  O28  1  0.31926330  0.47450277  0.47302203  1
  O  O29  1  0.16298003  0.72155247  0.46999115  1
  O  O30  1  0.10718005  0.63305658  0.35074248  1
  O  O31  1  0.50649220  0.85630185  0.36409097  1
  O  O32  1  0.36428880  0.48641771  0.36251755  1
  O  O33  1  0.14369815  0.49350780  0.86409097  1
  O  O34  1  0.36694342  0.89281995  0.85074248  1
  O  O35  1  0.51358229  0.63571120  0.86251755  1
  O  O36  1  0.01900368  0.85113830  0.40635120  1
  O  O37  1  0.80065250  0.97302487  0.41255354  1
  O  O38  1  0.17279369  0.20426252  0.41532335  1
  O  O39  1  0.02697513  0.19934750  0.91255354  1
  O  O40  1  0.14886170  0.98099632  0.90635120  1
  O  O41  1  0.79573748  0.82720631  0.91532335  1
  O  O42  1  0.97272345  0.17420624  0.58726394  1
  O  O43  1  0.17293601  0.02138527  0.59086191  1
  O  O44  1  0.82016023  0.80396817  0.58708069  1
  O  O45  1  0.97861473  0.82706399  0.09086191  1
  O  O46  1  0.82579376  0.02727655  0.08726394  1
  O  O47  1  0.19603183  0.17983977  0.08708069  1
  O  O48  1  0.68988758  0.17451725  0.74660459  1
  O  O49  1  0.47728307  0.32658584  0.74397148  1
  O  O50  1  0.82819843  0.52696506  0.74007283  1
  O  O51  1  0.67341416  0.52271693  0.24397148  1
  O  O52  1  0.82548275  0.31011242  0.24660459  1
  O  O53  1  0.47303494  0.17180157  0.24007283  1
  O  O54  1  0.64475134  0.51010157  0.92105051  1
  O  O55  1  0.87412414  0.36738500  0.91952646  1
  O  O56  1  0.51420462  0.16638982  0.92494606  1
  O  O57  1  0.63261500  0.12587586  0.41952646  1
  O  O58  1  0.48989843  0.35524866  0.42105051  1
  O  O59  1  0.83361018  0.48579538  0.42494606  1
  O  O60  1  0.36543654  0.49825041  0.07962890  1
  O  O61  1  0.14988657  0.63750890  0.07858801  1
  O  O62  1  0.50725135  0.85482193  0.07546372  1
  O  O63  1  0.36249110  0.85011343  0.57858801  1
  O  O64  1  0.50174959  0.63456346  0.57962890  1
  O  O65  1  0.14517807  0.49274865  0.57546372  1
  O  O66  1  0.33001600  0.85107743  0.25447671  1
  O  O67  1  0.52709909  0.69751724  0.26001167  1
  O  O68  1  0.17440885  0.48148534  0.25054508  1
  O  O69  1  0.30248276  0.47290091  0.76001167  1
  O  O70  1  0.14892257  0.66998400  0.75447671  1
  O  O71  1  0.51851466  0.82559115  0.75054508  1
loop_
_geom_bond_atom_site_label_1
_geom_bond_atom_site_label_2
_geom_bond_distance
_geom_bond_site_symmetry_2
Na0 O52 2.385448 1_455
Na0 O30 2.403521 1_555
Na0 O68 2.405800 1_555
Na0 O51 2.527817 1_455
Na0 O66 2.539593 1_555
Na0 O15 2.614283 1_455
Na0 O11 2.779735 1_555
Na0 O1 2.780688 1_455
Na1 O48 2.385448 1_565
Na1 O34 2.403521 1_555
Na1 O71 2.405800 1_555
Na1 O49 2.527817 1_565
Na1 O70 2.539593 1_555
Na1 O13 2.614283 1_565
Na1 O8 2.779735 1_555
Na1 O3 2.780688 1_565
Na2 O63 2.293295 1_555
Na2 O42 2.385725 1_565
Na2 O6 2.408444 1_555
Na2 O44 2.434980 1_555
Na2 O64 2.526338 1_555
Na2 O13 2.687942 1_565
Na2 O27 2.771006 1_555
Na2 O23 2.927049 1_565
Na3 O61 2.293295 1_555
Na3 O46 2.385725 1_455
Na3 O10 2.408444 1_555
Na3 O47 2.434980 1_555
Na3 O60 2.526338 1_555
Na3 O15 2.687942 1_455
Na3 O25 2.771006 1_554
Na3 O20 2.927049 1_455
Na4 O40 2.340341 1_655
Na4 O55 2.362347 1_555
Na4 O19 2.447839 1_556
Na4 O26 2.492946 1_655
Na4 O54 2.516318 1_555
Na4 O41 2.538152 1_555
Na4 O4 2.711708 1_555
Na4 O33 2.917631 1_655
Na5 O36 2.340341 1_545
Na5 O57 2.362347 1_555
Na5 O21 2.447839 1_555
Na5 O29 2.492946 1_545
Na5 O58 2.516318 1_555
Na5 O38 2.538152 1_555
Na5 O0 2.711708 1_555
Na5 O31 2.917631 1_545
Na6 O43 2.389962 1_565
Na6 O36 2.427193 1_555
Na6 O44 2.501107 1_455
Na6 O38 2.541307 1_565
Na6 O42 2.604824 1_465
Na6 O37 2.624554 1_455
Na7 O45 2.389962 1_455
Na7 O40 2.427193 1_554
Na7 O47 2.501107 1_565
Na7 O41 2.541307 1_454
Na7 O46 2.604824 1_465
Na7 O39 2.624554 1_564
Na8 O48 2.350818 1_555
Na8 O56 2.369907 1_555
Na8 O55 2.504257 1_555
Na8 O54 2.618777 1_555
Na8 O49 2.626805 1_555
Na8 O50 2.691919 1_555
Na9 O52 2.350818 1_555
Na9 O59 2.369907 1_555
Na9 O57 2.504257 1_555
Na9 O58 2.618777 1_555
Na9 O51 2.626805 1_555
Na9 O53 2.691919 1_555
Na10 O68 2.405717 1_555
Na10 O60 2.489715 1_555
Na10 O61 2.501243 1_555
Na10 O66 2.534775 1_555
Na10 O62 2.544759 1_555
Na10 O67 2.555157 1_555
Na11 O71 2.405717 1_555
Na11 O64 2.489715 1_555
Na11 O63 2.501243 1_555
Na11 O70 2.534775 1_555
Na11 O65 2.544759 1_555
Na11 O69 2.555157 1_555
Ga0 O2 1.800160 1_565
Ga0 O36 1.866254 1_655
Ga0 O1 1.992039 1_555
Ga0 O37 2.035879 1_555
Ga0 O0 2.187648 1_665
Ga0 O38 2.251100 1_665
Ga1 O5 1.800160 1_455
Ga1 O40 1.866255 1_545
Ga1 O3 1.992039 1_555
Ga1 O39 2.035879 1_555
Ga1 O4 2.187648 1_445
Ga1 O41 2.251100 1_445
Ga2 O6 1.845279 1_455
Ga2 O43 1.861551 1_565
Ga2 O8 2.001647 1_555
Ga2 O7 2.051261 1_565
Ga2 O44 2.162011 1_455
Ga2 O42 2.205648 1_465
Ga3 O10 1.845279 1_565
Ga3 O45 1.861551 1_455
Ga3 O11 2.001647 1_555
Ga3 O9 2.051261 1_455
Ga3 O47 2.162011 1_565
Ga3 O46 2.205648 1_465
Ga4 O13 1.847393 1_555
Ga4 O48 1.899885 1_555
Ga4 O12 1.993050 1_555
Ga4 O50 2.047014 1_555
Ga4 O14 2.120991 1_555
Ga4 O49 2.171962 1_555
Ga5 O15 1.847393 1_555
Ga5 O52 1.899885 1_555
Ga5 O16 1.993050 1_555
Ga5 O53 2.047014 1_555
Ga5 O17 2.120991 1_555
Ga5 O51 2.171962 1_555
Ga6 O56 1.874256 1_555
Ga6 O19 1.885841 1_556
Ga6 O18 1.926869 1_556
Ga6 O20 2.037949 1_556
Ga6 O54 2.107274 1_555
Ga6 O55 2.241403 1_555
Ga7 O59 1.874256 1_555
Ga7 O21 1.885841 1_555
Ga7 O22 1.926869 1_555
Ga7 O23 2.037949 1_555
Ga7 O58 2.107274 1_555
Ga7 O57 2.241403 1_555
Ga8 O26 1.819329 1_554
Ga8 O61 1.870172 1_555
Ga8 O62 2.035773 1_555
Ga8 O25 2.043561 1_554
Ga8 O24 2.087813 1_554
Ga8 O60 2.366770 1_555
Ga9 O29 1.819329 1_555
Ga9 O63 1.870172 1_555
Ga9 O65 2.035773 1_555
Ga9 O27 2.043561 1_555
Ga9 O28 2.087813 1_555
Ga9 O64 2.366770 1_555
Ga10 O30 1.852906 1_555
Ga10 O68 1.876997 1_555
Ga10 O32 1.923817 1_555
Ga10 O67 2.143602 1_555
Ga10 O31 2.167608 1_555
Ga10 O66 2.260260 1_555
Ga11 O34 1.852906 1_555
Ga11 O71 1.876997 1_555
Ga11 O35 1.923817 1_555
Ga11 O69 2.143602 1_555
Ga11 O33 2.167608 1_555
Ga11 O70 2.260260 1_555
O0 S0 1.482227 1_555
O1 S1 1.495406 1_555
O2 Si0 1.616144 1_555
O3 S2 1.495406 1_555
O4 S3 1.482227 1_555
O5 Si1 1.616144 1_555
O6 Si1 1.634151 1_565
O7 S2 1.480477 1_555
O8 S3 1.495517 1_455
O9 S1 1.480477 1_555
O10 Si0 1.634151 1_455
O11 S0 1.495517 1_565
O12 S4 1.488503 1_555
O13 Si2 1.642380 1_555
O14 S5 1.475334 1_555
O15 Si3 1.642380 1_555
O16 S6 1.488503 1_555
O17 S7 1.475334 1_555
O18 S7 1.483411 1_555
O19 Si3 1.646992 1_555
O20 S6 1.480267 1_555
O21 Si2 1.646992 1_555
O22 S5 1.483411 1_555
O23 S4 1.480267 1_555
O24 S8 1.476734 1_555
O25 S9 1.497978 1_555
O26 Si4 1.634812 1_555
O27 S10 1.497978 1_555
O28 S11 1.476734 1_555
O29 Si5 1.634812 1_555
O30 Si5 1.643332 1_555
O31 S10 1.477624 1_555
O32 S11 1.487784 1_555
O33 S9 1.477624 1_555
O34 Si4 1.643332 1_555
O35 S8 1.487784 1_555
O36 Si5 1.663980 1_555
O37 S10 1.478868 1_555
O38 S11 1.484060 1_555
O39 S9 1.478868 1_555
O40 Si4 1.663980 1_555
O41 S8 1.484060 1_555
O42 S4 1.478338 1_555
O43 Si2 1.633962 1_555
O44 S5 1.497135 1_555
O45 Si3 1.633962 1_555
O46 S6 1.478338 1_555
O47 S7 1.497135 1_555
O48 Si1 1.662562 1_555
O49 S2 1.489133 1_555
O50 S3 1.479342 1_555
O51 S1 1.489133 1_555
O52 Si0 1.662562 1_555
O53 S0 1.479342 1_555
O54 S8 1.490526 1_555
O55 S9 1.492914 1_655
O56 Si4 1.623836 1_545
O57 S10 1.492914 1_545
O58 S11 1.490526 1_555
O59 Si5 1.623836 1_655
O60 S7 1.482392 1_555
O61 Si3 1.666523 1_455
O62 S6 1.482761 1_565
O63 Si2 1.666523 1_565
O64 S5 1.482392 1_555
O65 S4 1.482761 1_455
O66 S0 1.487970 1_565
O67 S1 1.474468 1_555
O68 Si0 1.665915 1_455
O69 S2 1.474468 1_555
O70 S3 1.487970 1_455
O71 Si1 1.665915 1_565
