# generated using pymatgen
data_Na2Ta3AlSi2(PO6)4
_symmetry_space_group_name_H-M   'P 1'
_cell_length_a   8.69928914
_cell_length_b   8.70121045
_cell_length_c   22.57462159
_cell_angle_alpha   90.04248753
_cell_angle_beta   89.98193516
_cell_angle_gamma   119.98559845
_symmetry_Int_Tables_number   1
_chemical_formula_structural   Na2Ta3AlSi2(PO6)4
_chemical_formula_sum   'Na6 Ta9 Al3 Si6 P12 O72'
_cell_volume   1480.05357331
_cell_formula_units_Z   3
loop_
 _symmetry_equiv_pos_site_id
 _symmetry_equiv_pos_as_xyz
  1  'x, y, z'
loop_
 _atom_site_type_symbol
 _atom_site_label
 _atom_site_symmetry_multiplicity
 _atom_site_fract_x
 _atom_site_fract_y
 _atom_site_fract_z
 _atom_site_occupancy
  Na  Na0  1  0.99704423  0.00085305  0.49208089  1
  Na  Na1  1  0.00184782  0.00129368  0.00091932  1
  Na  Na2  1  0.66811824  0.33361059  0.83106164  1
  Na  Na3  1  0.66599152  0.33258138  0.32606836  1
  Na  Na4  1  0.33343235  0.66370848  0.16534198  1
  Na  Na5  1  0.32976306  0.66408942  0.66648924  1
  Ta  Ta0  1  0.00101530  0.00038445  0.85532636  1
  Ta  Ta1  1  0.99939080  0.00166192  0.64361635  1
  Ta  Ta2  1  0.00148989  0.00214248  0.14623254  1
  Ta  Ta3  1  0.66141376  0.33143114  0.97807126  1
  Ta  Ta4  1  0.67008336  0.32947575  0.47678437  1
  Ta  Ta5  1  0.33334398  0.66359569  0.02380214  1
  Ta  Ta6  1  0.33540099  0.66683138  0.52066365  1
  Ta  Ta7  1  0.33631282  0.67048160  0.30958153  1
  Ta  Ta8  1  0.33286388  0.66630219  0.81140186  1
  Al  Al0  1  0.99686081  0.00057011  0.35155423  1
  Al  Al1  1  0.67012355  0.33548669  0.68704933  1
  Al  Al2  1  0.66587424  0.33523569  0.18798541  1
  Si  Si0  1  0.94886861  0.33804664  0.58747068  1
  Si  Si1  1  0.38792003  0.33500130  0.08878437  1
  Si  Si2  1  0.61840686  0.66640978  0.91663885  1
  Si  Si3  1  0.04655354  0.38201024  0.91670898  1
  Si  Si4  1  0.33435903  0.95099264  0.91724121  1
  Si  Si5  1  0.63453209  0.95428292  0.41448180  1
  P  P0  1  0.28956716  0.01074676  0.25269953  1
  P  P1  1  0.72093413  0.70804707  0.25208418  1
  P  P2  1  0.98830136  0.28141762  0.25199640  1
  P  P3  1  0.29870429  0.28874860  0.74777325  1
  P  P4  1  0.99054425  0.70239537  0.74798413  1
  P  P5  1  0.71061760  0.00860742  0.74828128  1
  P  P6  1  0.38842256  0.05297441  0.58608865  1
  P  P7  1  0.66422769  0.61059105  0.58612135  1
  P  P8  1  0.94637253  0.61228602  0.08748393  1
  P  P9  1  0.66529733  0.05332775  0.08744801  1
  P  P10  1  0.32602927  0.37235097  0.41472822  1
  P  P11  1  0.04819437  0.67616288  0.41472955  1
  O  O0  1  0.19673660  0.03037730  0.30670856  1
  O  O1  1  0.83207182  0.80086191  0.30630820  1
  O  O2  1  0.96748674  0.16875550  0.30599731  1
  O  O3  1  0.20606844  0.17499596  0.80327664  1
  O  O4  1  0.97220187  0.79770961  0.80353662  1
  O  O5  1  0.82561749  0.02977388  0.80349409  1
  O  O6  1  0.80325506  0.97732497  0.69384023  1
  O  O7  1  0.17463349  0.19607261  0.69344301  1
  O  O8  1  0.02257031  0.82429617  0.69357865  1
  O  O9  1  0.79893080  0.82560059  0.19566176  1
  O  O10  1  0.02481215  0.19817246  0.19545928  1
  O  O11  1  0.17128801  0.97438343  0.19607756  1
  O  O12  1  0.85870835  0.36575259  0.64389589  1
  O  O13  1  0.49801999  0.13656336  0.64057557  1
  O  O14  1  0.63302222  0.49988354  0.64077899  1
  O  O15  1  0.86432120  0.50040364  0.14179286  1
  O  O16  1  0.64275860  0.14037130  0.14177920  1
  O  O17  1  0.50625997  0.36246642  0.14508891  1
  O  O18  1  0.46852107  0.30294431  0.02683995  1
  O  O19  1  0.83960058  0.53366733  0.02961077  1
  O  O20  1  0.69868758  0.16133776  0.02947259  1
  O  O21  1  0.46545364  0.16408944  0.52866355  1
  O  O22  1  0.69369865  0.53250209  0.52870165  1
  O  O23  1  0.83179012  0.30430644  0.52622572  1
  O  O24  1  0.53290061  0.70184369  0.97532453  1
  O  O25  1  0.16894343  0.46806597  0.97518613  1
  O  O26  1  0.29868154  0.83237640  0.97596134  1
  O  O27  1  0.53177110  0.83387046  0.47359483  1
  O  O28  1  0.30058814  0.46328207  0.47122015  1
  O  O29  1  0.16117420  0.69532719  0.47120000  1
  O  O30  1  0.13027171  0.63456291  0.36072360  1
  O  O31  1  0.49840480  0.85924102  0.35861317  1
  O  O32  1  0.35870756  0.49437510  0.36076985  1
  O  O33  1  0.13552766  0.50077991  0.85715997  1
  O  O34  1  0.36507747  0.86347369  0.85734286  1
  O  O35  1  0.49884201  0.63358125  0.85722316  1
  O  O36  1  0.03365711  0.84095933  0.40722677  1
  O  O37  1  0.82564464  0.97648141  0.40673381  1
  O  O38  1  0.16585335  0.18974093  0.40704004  1
  O  O39  1  0.02874798  0.18856609  0.90693098  1
  O  O40  1  0.16183389  0.97395452  0.90698144  1
  O  O41  1  0.81262547  0.84054235  0.90709895  1
  O  O42  1  0.97368392  0.16104167  0.59146207  1
  O  O43  1  0.19700855  0.02542928  0.59168702  1
  O  O44  1  0.83147014  0.80019544  0.59214221  1
  O  O45  1  0.96651833  0.80121681  0.09285570  1
  O  O46  1  0.82926968  0.02504297  0.09272394  1
  O  O47  1  0.18504612  0.15908926  0.09238101  1
  O  O48  1  0.69038224  0.17059089  0.74166487  1
  O  O49  1  0.47951872  0.30628271  0.73997110  1
  O  O50  1  0.82460556  0.52208298  0.74248254  1
  O  O51  1  0.69785202  0.52375462  0.24398295  1
  O  O52  1  0.82822405  0.30519379  0.24184613  1
  O  O53  1  0.47572189  0.16725606  0.24399042  1
  O  O54  1  0.64290964  0.49561823  0.92357876  1
  O  O55  1  0.85356785  0.35980192  0.92405040  1
  O  O56  1  0.50880148  0.14491306  0.92286741  1
  O  O57  1  0.64001194  0.14645367  0.42292573  1
  O  O58  1  0.49823811  0.36405843  0.42426680  1
  O  O59  1  0.86147903  0.50817558  0.42399048  1
  O  O60  1  0.35862108  0.50697384  0.08009492  1
  O  O61  1  0.13690472  0.64156932  0.07972792  1
  O  O62  1  0.49956610  0.86605373  0.07983421  1
  O  O63  1  0.36383889  0.86451949  0.57642839  1
  O  O64  1  0.50225256  0.63953081  0.57702074  1
  O  O65  1  0.14892767  0.50737212  0.57589376  1
  O  O66  1  0.30147288  0.83424672  0.25768501  1
  O  O67  1  0.52908461  0.68939113  0.25799892  1
  O  O68  1  0.16134116  0.46931588  0.25771097  1
  O  O69  1  0.30954299  0.47202371  0.75271109  1
  O  O70  1  0.16254548  0.68966681  0.75321768  1
  O  O71  1  0.52760188  0.83536700  0.75289289  1
loop_
_geom_bond_atom_site_label_1
_geom_bond_atom_site_label_2
_geom_bond_distance
_geom_bond_site_symmetry_2
Na0 O37 2.380220 1_545
Na0 O38 2.476626 1_655
Na0 O36 2.478912 1_645
Na0 O42 2.701025 1_555
Na0 O44 2.777681 1_545
Na0 O43 2.785274 1_655
Na1 O47 2.549260 1_555
Na1 O40 2.611306 1_544
Na1 O39 2.614480 1_554
Na1 O41 2.616907 1_444
Na1 O46 2.626633 1_455
Na1 O45 2.627312 1_445
Na2 O50 2.512528 1_555
Na2 O48 2.528321 1_555
Na2 O49 2.566775 1_555
Na2 O56 2.576915 1_555
Na2 O55 2.587492 1_555
Na2 O54 2.588741 1_555
Na3 O51 2.412682 1_555
Na3 O53 2.420784 1_555
Na3 O52 2.448933 1_555
Na3 O57 2.663441 1_555
Na3 O59 2.741021 1_555
Na3 O58 2.741428 1_555
Na4 O60 2.430197 1_555
Na4 O61 2.523429 1_555
Na4 O62 2.524781 1_555
Na4 O68 2.631047 1_555
Na4 O67 2.635036 1_555
Na4 O66 2.651838 1_555
Na5 O70 2.513959 1_555
Na5 O69 2.514599 1_555
Na5 O65 2.524000 1_555
Na5 O71 2.534099 1_555
Na5 O64 2.587371 1_555
Na5 O63 2.598256 1_555
Al0 O37 1.871162 1_545
Al0 O1 1.904271 1_545
Al0 O2 1.908073 1_555
Al0 O0 1.914164 1_655
Al0 O38 2.004710 1_655
Al0 O36 2.014440 1_645
Al1 O12 1.810332 1_555
Al1 O14 1.924923 1_555
Al1 O13 1.935493 1_555
Al1 O49 1.954297 1_555
Al1 O50 1.955800 1_555
Al1 O48 1.966039 1_555
Al2 O17 1.803316 1_555
Al2 O15 1.911603 1_555
Al2 O16 1.913133 1_555
Al2 O51 1.976650 1_555
Al2 O52 1.977866 1_555
Al2 O53 2.013901 1_555
O0 P0 1.518159 1_555
O1 P1 1.517947 1_555
O2 P2 1.517912 1_555
O3 P3 1.550142 1_555
O3 Ta0 2.040416 1_555
O4 P4 1.554541 1_555
O4 Ta0 2.023605 1_665
O5 P5 1.550666 1_555
O5 Ta0 2.038206 1_655
O6 P5 1.565912 1_565
O6 Ta1 1.969657 1_565
O7 P3 1.564886 1_555
O7 Ta1 1.967578 1_455
O8 P4 1.554812 1_455
O8 Ta1 2.002081 1_465
O9 P1 1.560973 1_555
O9 Ta2 2.001376 1_665
O10 P2 1.575699 1_455
O10 Ta2 1.958805 1_555
O11 P0 1.570825 1_565
O11 Ta2 1.965822 1_565
O12 Si0 1.575981 1_555
O13 P6 1.502409 1_555
O14 P7 1.504737 1_555
O15 P8 1.505637 1_555
O16 P9 1.504426 1_555
O17 Si1 1.577011 1_555
O18 Si1 1.648996 1_555
O18 Ta3 1.916446 1_554
O19 P8 1.549798 1_555
O19 Ta3 2.030918 1_554
O20 P9 1.552170 1_555
O20 Ta3 2.030892 1_554
O21 P6 1.555008 1_555
O21 Ta4 2.012946 1_555
O22 P7 1.542797 1_555
O22 Ta4 2.042285 1_555
O23 Si0 1.654227 1_555
O23 Ta4 1.892587 1_555
O24 Si2 1.622187 1_555
O24 Ta5 1.934925 1_556
O25 Si3 1.624645 1_555
O25 Ta5 1.926267 1_556
O26 Si4 1.612551 1_555
O26 Ta5 1.964505 1_556
O27 Si5 1.656130 1_555
O27 Ta6 1.918096 1_555
O28 P10 1.573120 1_555
O28 Ta6 1.983827 1_555
O29 P11 1.567021 1_555
O29 Ta6 1.995654 1_555
O30 P11 1.544129 1_555
O30 Ta7 2.020544 1_555
O31 Si5 1.642380 1_555
O31 Ta7 1.895895 1_555
O32 P10 1.546571 1_555
O32 Ta7 2.005616 1_555
O33 Si3 1.635874 1_555
O33 Ta8 1.902120 1_555
O34 Si4 1.637492 1_555
O34 Ta8 1.901176 1_555
O35 Si2 1.632741 1_555
O35 Ta8 1.910015 1_555
O36 P11 1.510783 1_555
O37 Si5 1.584560 1_555
O38 P10 1.510991 1_555
O39 Si3 1.626265 1_555
O39 Ta0 1.923257 1_555
O40 Si4 1.626690 1_555
O40 Ta0 1.921693 1_565
O41 Si2 1.624232 1_555
O41 Ta0 1.925887 1_665
O42 Si0 1.661133 1_555
O42 Ta1 1.916242 1_555
O43 P6 1.564346 1_555
O43 Ta1 2.004036 1_455
O44 P7 1.567660 1_555
O44 Ta1 1.998896 1_565
O45 P8 1.568328 1_555
O45 Ta2 2.016553 1_665
O46 P9 1.568617 1_555
O46 Ta2 2.010796 1_655
O47 Si1 1.662557 1_555
O47 Ta2 1.927213 1_555
O48 P5 1.512674 1_555
O49 P3 1.512772 1_555
O50 P4 1.515517 1_555
O51 P1 1.524116 1_555
O52 P2 1.524062 1_555
O53 P0 1.520367 1_555
O54 Si2 1.611041 1_555
O54 Ta3 1.952626 1_555
O55 Si3 1.599657 1_655
O55 Ta3 1.982188 1_555
O56 Si4 1.614457 1_545
O56 Ta3 1.947783 1_555
O57 Si5 1.659652 1_545
O57 Ta4 1.914081 1_555
O58 P10 1.550527 1_555
O58 Ta4 2.045048 1_555
O59 P11 1.563852 1_655
O59 Ta4 2.006007 1_555
O60 Si1 1.650533 1_555
O60 Ta5 1.955189 1_555
O61 P8 1.555829 1_455
O61 Ta5 2.054884 1_555
O62 P9 1.553995 1_565
O62 Ta5 2.060556 1_555
O63 P6 1.559217 1_565
O63 Ta6 2.043627 1_555
O64 P7 1.563974 1_555
O64 Ta6 2.031775 1_555
O65 Si0 1.644738 1_455
O65 Ta6 1.965356 1_555
O66 P0 1.594120 1_565
O66 Ta7 1.982237 1_555
O67 P1 1.599587 1_555
O67 Ta7 1.979530 1_555
O68 P2 1.579697 1_455
O68 Ta7 2.021584 1_555
O69 P3 1.553666 1_555
O69 Ta8 2.075637 1_555
O70 P4 1.559129 1_455
O70 Ta8 2.065084 1_555
O71 P5 1.555355 1_565
O71 Ta8 2.070981 1_555
