# generated using pymatgen
data_Na14In4Si9Sn4(SO16)3
_symmetry_space_group_name_H-M   'P 1'
_cell_length_a   18.36880084
_cell_length_b   9.18936824
_cell_length_c   22.69025280
_cell_angle_alpha   90.04712279
_cell_angle_beta   89.68804486
_cell_angle_gamma   119.99987095
_symmetry_Int_Tables_number   1
_chemical_formula_structural   Na14In4Si9Sn4(SO16)3
_chemical_formula_sum   'Na42 In12 Si27 Sn12 S9 O144'
_cell_volume   3316.87808595
_cell_formula_units_Z   3
loop_
 _symmetry_equiv_pos_site_id
 _symmetry_equiv_pos_as_xyz
  1  'x, y, z'
loop_
 _atom_site_type_symbol
 _atom_site_label
 _atom_site_symmetry_multiplicity
 _atom_site_fract_x
 _atom_site_fract_y
 _atom_site_fract_z
 _atom_site_occupancy
  Na  Na0  1  0.81950023  0.00800332  0.25513516  1
  Na  Na1  1  0.17809560  0.36028469  0.25285743  1
  Na  Na2  1  0.69240764  0.37213139  0.25396748  1
  Na  Na3  1  0.99671457  0.62903736  0.24687563  1
  Na  Na4  1  0.50172250  0.64611703  0.24972058  1
  Na  Na5  1  0.31891739  0.62979112  0.75186243  1
  Na  Na6  1  0.99933268  0.35531123  0.74371903  1
  Na  Na7  1  0.49845443  0.36603312  0.74361722  1
  Na  Na8  1  0.19095634  0.01217264  0.74984155  1
  Na  Na9  1  0.68148470  0.99968408  0.74806910  1
  Na  Na10  1  0.14596587  0.32234079  0.58188503  1
  Na  Na11  1  0.65269344  0.33337259  0.58289184  1
  Na  Na12  1  0.33527626  0.98380982  0.58602749  1
  Na  Na13  1  0.83314842  0.96810360  0.58300847  1
  Na  Na14  1  0.14513390  0.96728839  0.08096360  1
  Na  Na15  1  0.64922001  0.97173105  0.08075507  1
  Na  Na16  1  0.33290285  0.68836495  0.08232323  1
  Na  Na17  1  0.83525997  0.68806617  0.08624738  1
  Na  Na18  1  0.48041669  0.67809099  0.91449609  1
  Na  Na19  1  0.98056771  0.67643844  0.92172324  1
  Na  Na20  1  0.34622907  0.02400302  0.90859617  1
  Na  Na21  1  0.84534388  0.02365952  0.91070293  1
  Na  Na22  1  0.17186835  0.29608134  0.91073500  1
  Na  Na23  1  0.66929878  0.29119408  0.91109441  1
  Na  Na24  1  0.48305571  0.28985519  0.42546800  1
  Na  Na25  1  0.97831077  0.28177038  0.41929106  1
  Na  Na26  1  0.16863675  0.04737188  0.41479327  1
  Na  Na27  1  0.67490225  0.05096414  0.41641419  1
  Na  Na28  1  0.34597047  0.66715468  0.41419680  1
  Na  Na29  1  0.84615408  0.66597665  0.41902579  1
  Na  Na30  1  0.99741553  0.99779971  0.50204150  1
  Na  Na31  1  0.50598986  0.01381814  0.50287227  1
  Na  Na32  1  0.00313824  0.99518072  0.00095478  1
  Na  Na33  1  0.50364349  0.99649758  0.99717043  1
  Na  Na34  1  0.32988534  0.33492595  0.82697746  1
  Na  Na35  1  0.82337443  0.32965515  0.82956185  1
  Na  Na36  1  0.32379674  0.31666210  0.33514926  1
  Na  Na37  1  0.82915021  0.32455829  0.33233593  1
  Na  Na38  1  0.15930266  0.65464679  0.16926446  1
  Na  Na39  1  0.66615795  0.66198507  0.16870018  1
  Na  Na40  1  0.16384676  0.66866032  0.66663881  1
  Na  Na41  1  0.66563528  0.66505086  0.66509403  1
  In  In0  1  0.00119813  0.01125058  0.34878704  1
  In  In1  1  0.50034875  0.00274459  0.35084752  1
  In  In2  1  0.99914183  0.99696994  0.84841740  1
  In  In3  1  0.50158050  0.99133816  0.84712894  1
  In  In4  1  0.33478772  0.32505223  0.68359146  1
  In  In5  1  0.83504113  0.34497606  0.18413384  1
  In  In6  1  0.32715822  0.33746603  0.98418237  1
  In  In7  1  0.82573238  0.34035307  0.98518890  1
  In  In8  1  0.32716969  0.31339233  0.48513562  1
  In  In9  1  0.82801820  0.32792186  0.48788162  1
  In  In10  1  0.67796788  0.68163906  0.31730865  1
  In  In11  1  0.17601916  0.67360139  0.81430931  1
  Si  Si0  1  0.15192337  0.00099239  0.25068471  1
  Si  Si1  1  0.64791821  0.99590283  0.25094682  1
  Si  Si2  1  0.35497154  0.70895194  0.24917100  1
  Si  Si3  1  0.85436706  0.70980960  0.24991720  1
  Si  Si4  1  0.00005575  0.29760908  0.25069346  1
  Si  Si5  1  0.14560651  0.29439691  0.75004182  1
  Si  Si6  1  0.65194329  0.30205016  0.75209009  1
  Si  Si7  1  0.49983618  0.70217348  0.75125264  1
  Si  Si8  1  0.35439643  0.99947556  0.75025784  1
  Si  Si9  1  0.85501743  0.00791054  0.74954880  1
  Si  Si10  1  0.48287671  0.33335658  0.58257359  1
  Si  Si11  1  0.98233146  0.34054155  0.58325869  1
  Si  Si12  1  0.18128799  0.02924967  0.58424294  1
  Si  Si13  1  0.67945662  0.02677026  0.58299971  1
  Si  Si14  1  0.83729955  0.62916241  0.58282826  1
  Si  Si15  1  0.48184819  0.62425967  0.08346271  1
  Si  Si16  1  0.98360184  0.63223569  0.08265549  1
  Si  Si17  1  0.17976359  0.33170675  0.08334469  1
  Si  Si18  1  0.67913616  0.33151780  0.08469156  1
  Si  Si19  1  0.31553274  0.66980007  0.91868898  1
  Si  Si20  1  0.81172241  0.66775733  0.91660239  1
  Si  Si21  1  0.16675637  0.96030285  0.91685352  1
  Si  Si22  1  0.66793441  0.95899726  0.91785946  1
  Si  Si23  1  0.31144277  0.95580665  0.41632876  1
  Si  Si24  1  0.81626690  0.96708007  0.41848808  1
  Si  Si25  1  0.16818837  0.37697121  0.41716648  1
  Si  Si26  1  0.66609743  0.37188077  0.41536392  1
  Sn  Sn0  1  0.99756272  0.00325769  0.64609930  1
  Sn  Sn1  1  0.50683651  0.01118224  0.65312839  1
  Sn  Sn2  1  0.00624574  0.00273055  0.15358063  1
  Sn  Sn3  1  0.50250092  0.99073105  0.15009896  1
  Sn  Sn4  1  0.82850860  0.32341827  0.67977392  1
  Sn  Sn5  1  0.33036982  0.34358262  0.18309820  1
  Sn  Sn6  1  0.16356409  0.66275536  0.01810991  1
  Sn  Sn7  1  0.66453084  0.66301688  0.01848769  1
  Sn  Sn8  1  0.16393177  0.66599004  0.51862081  1
  Sn  Sn9  1  0.67080600  0.66228000  0.52216818  1
  Sn  Sn10  1  0.17452391  0.67251859  0.31061788  1
  Sn  Sn11  1  0.67564089  0.67878709  0.80947432  1
  S  S0  1  0.49636589  0.29212093  0.24800079  1
  S  S1  1  0.99774189  0.70107085  0.74990991  1
  S  S2  1  0.33441404  0.63171149  0.58195854  1
  S  S3  1  0.33573433  0.04316354  0.08391278  1
  S  S4  1  0.83446713  0.03767189  0.08197360  1
  S  S5  1  0.01896859  0.37327637  0.91679415  1
  S  S6  1  0.52088922  0.37502408  0.91660469  1
  S  S7  1  0.02188161  0.66723334  0.41475042  1
  S  S8  1  0.52028368  0.66413418  0.41718909  1
  O  O0  1  0.11581849  0.04831363  0.30878589  1
  O  O1  1  0.60796471  0.03906863  0.30813626  1
  O  O2  1  0.41294589  0.78394378  0.30734237  1
  O  O3  1  0.91256466  0.79031967  0.30796217  1
  O  O4  1  0.48249545  0.19565473  0.30320758  1
  O  O5  1  0.98051711  0.19064525  0.31123068  1
  O  O6  1  0.10950242  0.17991014  0.81017983  1
  O  O7  1  0.61469814  0.18665624  0.81159442  1
  O  O8  1  0.47900744  0.76586023  0.81295871  1
  O  O9  1  0.98445427  0.76829597  0.80580803  1
  O  O10  1  0.40975331  0.03216737  0.81013863  1
  O  O11  1  0.90995441  0.04601596  0.81001131  1
  O  O12  1  0.39815279  0.96360425  0.69196419  1
  O  O13  1  0.89787296  0.97411299  0.69214238  1
  O  O14  1  0.08463484  0.20291335  0.69283050  1
  O  O15  1  0.59200202  0.22364141  0.69337858  1
  O  O16  1  0.01223400  0.81383576  0.69912534  1
  O  O17  1  0.52204008  0.83623362  0.69679172  1
  O  O18  1  0.39543100  0.82492032  0.18928201  1
  O  O19  1  0.89683457  0.83082797  0.19024381  1
  O  O20  1  0.02383004  0.21181179  0.19514847  1
  O  O21  1  0.51006638  0.20714809  0.19637686  1
  O  O22  1  0.09430270  0.96277888  0.19068843  1
  O  O23  1  0.58827643  0.95848352  0.19139691  1
  O  O24  1  0.44370760  0.36577847  0.64188688  1
  O  O25  1  0.94031551  0.36875798  0.64342567  1
  O  O26  1  0.24225137  0.10683461  0.64139563  1
  O  O27  1  0.74108980  0.10712127  0.64130456  1
  O  O28  1  0.31988618  0.52675530  0.63518239  1
  O  O29  1  0.81584280  0.49959567  0.63840327  1
  O  O30  1  0.43932705  0.50770857  0.14287690  1
  O  O31  1  0.94490123  0.52132901  0.14140530  1
  O  O32  1  0.32189960  0.12618969  0.13571358  1
  O  O33  1  0.81998853  0.11326857  0.13501100  1
  O  O34  1  0.24328216  0.37616521  0.14065235  1
  O  O35  1  0.73957635  0.37202671  0.14162471  1
  O  O36  1  0.21577021  0.28168720  0.02570835  1
  O  O37  1  0.71201457  0.27802556  0.02556080  1
  O  O38  1  0.42435614  0.54431649  0.02540270  1
  O  O39  1  0.92722200  0.55356461  0.02265687  1
  O  O40  1  0.34871767  0.13975892  0.02908999  1
  O  O41  1  0.84585190  0.13648082  0.02815717  1
  O  O42  1  0.21468522  0.14618007  0.52461012  1
  O  O43  1  0.71422852  0.14504470  0.52449807  1
  O  O44  1  0.34593381  0.55555242  0.52812113  1
  O  O45  1  0.85331420  0.56007952  0.52088222  1
  O  O46  1  0.42528011  0.29520250  0.52299108  1
  O  O47  1  0.92635442  0.30432312  0.52449234  1
  O  O48  1  0.26951225  0.69916823  0.97796141  1
  O  O49  1  0.77116573  0.70166382  0.97729870  1
  O  O50  1  0.07363154  0.45318594  0.96949031  1
  O  O51  1  0.57404927  0.45372875  0.97020029  1
  O  O52  1  0.14924113  0.83946048  0.97592907  1
  O  O53  1  0.64903481  0.83864381  0.97725230  1
  O  O54  1  0.26977829  0.83874782  0.47607402  1
  O  O55  1  0.76822902  0.84070897  0.47504670  1
  O  O56  1  0.15019163  0.46260823  0.47568802  1
  O  O57  1  0.64712461  0.45899334  0.47277451  1
  O  O58  1  0.07542867  0.69541903  0.46831217  1
  O  O59  1  0.57470048  0.68942030  0.46816848  1
  O  O60  1  0.06199268  0.64185380  0.36134948  1
  O  O61  1  0.55478347  0.63582839  0.36161215  1
  O  O62  1  0.24702034  0.86928423  0.36108893  1
  O  O63  1  0.75822871  0.90032312  0.35892836  1
  O  O64  1  0.18356162  0.49418379  0.35799456  1
  O  O65  1  0.67666024  0.47678054  0.35433438  1
  O  O66  1  0.05586521  0.47589446  0.86319684  1
  O  O67  1  0.55885967  0.48026873  0.86361522  1
  O  O68  1  0.17964341  0.87568291  0.85745694  1
  O  O69  1  0.68247376  0.86877519  0.85998447  1
  O  O70  1  0.25438294  0.62079099  0.86163232  1
  O  O71  1  0.74588296  0.62530579  0.86253847  1
  O  O72  1  0.01527678  0.82060206  0.41150880  1
  O  O73  1  0.51185056  0.81777320  0.41428168  1
  O  O74  1  0.40359762  0.96716280  0.41216573  1
  O  O75  1  0.90662675  0.96969107  0.41651796  1
  O  O76  1  0.08587689  0.18812690  0.41515058  1
  O  O77  1  0.58034181  0.18263031  0.41500813  1
  O  O78  1  0.01192125  0.20527013  0.91412034  1
  O  O79  1  0.51355935  0.20763146  0.91343178  1
  O  O80  1  0.08228981  0.98063298  0.91554249  1
  O  O81  1  0.58525048  0.98265868  0.91580542  1
  O  O82  1  0.40617223  0.84569416  0.91743036  1
  O  O83  1  0.90441491  0.83963781  0.91213202  1
  O  O84  1  0.48820933  0.15619260  0.58850297  1
  O  O85  1  0.99159091  0.16985427  0.58799745  1
  O  O86  1  0.08935954  0.01551425  0.59231347  1
  O  O87  1  0.58790970  0.01829626  0.59070390  1
  O  O88  1  0.40799161  0.80438081  0.58715907  1
  O  O89  1  0.91652831  0.82150862  0.59025751  1
  O  O90  1  0.48633816  0.81110988  0.08830673  1
  O  O91  1  0.98999860  0.82118994  0.08789568  1
  O  O92  1  0.40960109  0.01886266  0.09045813  1
  O  O93  1  0.90821048  0.01153970  0.08679574  1
  O  O94  1  0.08815722  0.16002225  0.09066834  1
  O  O95  1  0.58434781  0.16066173  0.09194821  1
  O  O96  1  0.34401384  0.16581504  0.74841235  1
  O  O97  1  0.84836229  0.18221560  0.74341164  1
  O  O98  1  0.24036743  0.32219530  0.74293859  1
  O  O99  1  0.74349542  0.31047624  0.74386687  1
  O  O100  1  0.41604820  0.51858492  0.74346576  1
  O  O101  1  0.92319881  0.52974773  0.74364336  1
  O  O102  1  0.34955205  0.52178788  0.24407250  1
  O  O103  1  0.84381084  0.52265081  0.24747893  1
  O  O104  1  0.42083351  0.31141670  0.24124359  1
  O  O105  1  0.91659807  0.31391159  0.24281862  1
  O  O106  1  0.24570081  0.17449396  0.24097897  1
  O  O107  1  0.74143783  0.15833415  0.24303302  1
  O  O108  1  0.32817794  0.50485522  0.92109151  1
  O  O109  1  0.82378860  0.50172952  0.91814222  1
  O  O110  1  0.43608968  0.35636730  0.92363994  1
  O  O111  1  0.93443995  0.35423524  0.92432752  1
  O  O112  1  0.25539994  0.14198737  0.92226662  1
  O  O113  1  0.75666096  0.14112495  0.92201901  1
  O  O114  1  0.32363514  0.14584756  0.41753734  1
  O  O115  1  0.82900456  0.15706053  0.42298608  1
  O  O116  1  0.25702645  0.37226157  0.42118504  1
  O  O117  1  0.75265918  0.36179103  0.41908429  1
  O  O118  1  0.43430362  0.51418558  0.42345427  1
  O  O119  1  0.93875180  0.51554401  0.41987979  1
  O  O120  1  0.17961875  0.51125961  0.07715448  1
  O  O121  1  0.67790126  0.51003786  0.07667265  1
  O  O122  1  0.08202908  0.66718869  0.07793823  1
  O  O123  1  0.57952351  0.66082904  0.08002950  1
  O  O124  1  0.25783843  0.87324426  0.08126683  1
  O  O125  1  0.75582679  0.86584042  0.07873395  1
  O  O126  1  0.17996346  0.84778719  0.57645420  1
  O  O127  1  0.67670777  0.84592165  0.57706505  1
  O  O128  1  0.25586117  0.64579063  0.57860864  1
  O  O129  1  0.75054996  0.64405974  0.58120928  1
  O  O130  1  0.08058908  0.50273329  0.58001654  1
  O  O131  1  0.57896965  0.49390200  0.57725739  1
  O  O132  1  0.15293140  0.82362428  0.25561509  1
  O  O133  1  0.64833383  0.81714543  0.25427835  1
  O  O134  1  0.25892962  0.67540308  0.25068025  1
  O  O135  1  0.76028307  0.69148545  0.24869765  1
  O  O136  1  0.08604480  0.48681311  0.25544780  1
  O  O137  1  0.57242606  0.46113666  0.25105549  1
  O  O138  1  0.14680546  0.47567068  0.75312404  1
  O  O139  1  0.65217000  0.48129602  0.75706818  1
  O  O140  1  0.07492790  0.68523804  0.75322504  1
  O  O141  1  0.58569978  0.68543766  0.75624507  1
  O  O142  1  0.26029609  0.82920320  0.74824836  1
  O  O143  1  0.75898055  0.84674875  0.75144526  1
loop_
_geom_bond_atom_site_label_1
_geom_bond_atom_site_label_2
_geom_bond_distance
_geom_bond_site_symmetry_2
Na0 O107 2.454726 1_555
Na0 O105 2.478631 1_555
Na0 O135 2.549844 1_545
Na0 O63 2.579460 1_545
Na0 O133 2.729137 1_545
Na0 O5 2.873729 1_555
Na0 O33 2.891425 1_555
Na1 O136 2.485794 1_555
Na1 O134 2.508433 1_555
Na1 O106 2.577869 1_555
Na1 O64 2.662584 1_555
Na1 O102 2.735121 1_555
Na1 O34 2.780226 1_555
Na1 O20 2.788749 1_555
Na1 O0 2.801498 1_555
Na2 O103 2.412155 1_555
Na2 O65 2.542082 1_555
Na2 O107 2.549267 1_555
Na2 O135 2.553642 1_555
Na2 O35 2.687996 1_555
Na2 O137 2.708291 1_555
Na2 O1 2.919280 1_555
Na3 O103 2.469473 1_555
Na3 O105 2.509853 1_555
Na3 O132 2.519012 1_655
Na3 O136 2.566499 1_655
Na3 O31 2.586799 1_555
Na3 O60 2.844390 1_655
Na3 O22 2.954383 1_655
Na3 O3 2.961627 1_555
Na4 O133 2.345983 1_555
Na4 O102 2.438232 1_555
Na4 O137 2.604863 1_555
Na4 O104 2.671467 1_555
Na4 O30 2.715885 1_555
Na4 O61 2.743019 1_555
Na4 O23 2.817485 1_555
Na4 O2 2.830588 1_555
Na5 O98 2.456914 1_555
Na5 O100 2.466403 1_555
Na5 O142 2.549233 1_555
Na5 O70 2.736024 1_555
Na5 O138 2.742851 1_555
Na5 O28 2.813944 1_555
Na5 O8 2.915021 1_555
Na5 O12 2.982608 1_555
Na6 O138 2.369972 1_655
Na6 O97 2.410322 1_555
Na6 O25 2.555483 1_555
Na6 O101 2.601346 1_555
Na6 O140 2.637969 1_655
Na6 O14 2.814543 1_655
Na6 O11 2.889659 1_555
Na6 O66 2.920730 1_655
Na7 O139 2.491134 1_555
Na7 O96 2.494471 1_555
Na7 O24 2.522382 1_555
Na7 O100 2.525580 1_555
Na7 O141 2.562263 1_555
Na7 O15 2.861641 1_555
Na7 O67 2.934299 1_555
Na8 O96 2.434854 1_555
Na8 O98 2.525485 1_555
Na8 O142 2.567400 1_545
Na8 O26 2.618781 1_555
Na8 O140 2.677648 1_545
Na8 O68 2.705124 1_545
Na9 O143 2.451377 1_555
Na9 O99 2.491853 1_565
Na9 O141 2.526971 1_555
Na9 O27 2.633658 1_565
Na9 O97 2.660098 1_565
Na9 O17 2.796930 1_555
Na9 O69 2.814843 1_555
Na9 O7 2.935847 1_565
Na10 O85 2.458940 1_455
Na10 O86 2.480659 1_555
Na10 O130 2.486617 1_555
Na10 O128 2.629402 1_555
Na10 O56 2.716033 1_555
Na10 O14 2.747380 1_555
Na10 O42 2.815120 1_555
Na11 O131 2.454840 1_555
Na11 O129 2.500231 1_555
Na11 O87 2.526594 1_555
Na11 O84 2.621587 1_555
Na11 O15 2.719214 1_555
Na11 O57 2.776979 1_555
Na11 O43 2.822105 1_555
Na11 O29 2.891571 1_555
Na12 O84 2.440421 1_565
Na12 O126 2.487764 1_555
Na12 O88 2.589631 1_555
Na12 O128 2.697285 1_555
Na12 O12 2.718779 1_555
Na12 O26 2.771699 1_565
Na12 O54 2.805758 1_555
Na12 O46 2.866610 1_565
Na13 O89 2.500773 1_555
Na13 O127 2.512785 1_555
Na13 O85 2.554976 1_565
Na13 O129 2.579389 1_555
Na13 O55 2.724798 1_555
Na13 O13 2.741292 1_555
Na13 O27 2.893827 1_565
Na13 O47 2.988700 1_565
Na14 O122 2.399446 1_555
Na14 O91 2.473331 1_455
Na14 O94 2.476109 1_565
Na14 O124 2.611915 1_555
Na14 O22 2.647304 1_555
Na14 O52 2.673481 1_554
Na14 O36 2.800371 1_565
Na15 O123 2.478755 1_555
Na15 O95 2.561936 1_565
Na15 O125 2.586137 1_555
Na15 O90 2.595844 1_555
Na15 O53 2.646202 1_554
Na15 O23 2.721066 1_555
Na15 O37 2.750394 1_565
Na16 O120 2.451775 1_555
Na16 O90 2.461524 1_555
Na16 O92 2.639290 1_565
Na16 O48 2.668168 1_554
Na16 O124 2.670411 1_555
Na16 O18 2.714385 1_555
Na16 O34 2.819940 1_555
Na16 O38 2.905093 1_555
Na17 O91 2.470003 1_555
Na17 O121 2.521121 1_555
Na17 O93 2.578483 1_565
Na17 O19 2.666215 1_555
Na17 O125 2.685805 1_555
Na17 O49 2.773479 1_554
Na17 O35 2.824881 1_555
Na17 O39 2.919154 1_555
Na18 O108 2.433278 1_555
Na18 O8 2.446173 1_555
Na18 O81 2.480576 1_555
Na18 O82 2.517089 1_555
Na18 O110 2.653016 1_555
Na18 O38 2.759593 1_556
Na19 O80 2.469752 1_655
Na19 O109 2.501297 1_555
Na19 O39 2.520632 1_556
Na19 O83 2.520888 1_555
Na19 O111 2.641784 1_555
Na19 O9 2.752568 1_555
Na20 O82 2.396771 1_545
Na20 O112 2.420341 1_555
Na20 O10 2.498484 1_555
Na20 O79 2.669013 1_555
Na20 O110 2.670655 1_555
Na20 O68 2.903966 1_545
Na20 O40 2.925149 1_556
Na21 O113 2.374472 1_555
Na21 O83 2.423510 1_545
Na21 O11 2.529448 1_555
Na21 O111 2.652263 1_555
Na21 O78 2.655112 1_655
Na21 O69 2.842057 1_545
Na21 O41 2.857198 1_556
Na21 O49 2.974634 1_545
Na22 O80 2.520135 1_545
Na22 O6 2.541518 1_555
Na22 O108 2.545183 1_555
Na22 O112 2.570134 1_555
Na22 O78 2.623017 1_555
Na22 O36 2.757474 1_556
Na22 O70 2.811874 1_555
Na23 O81 2.460700 1_545
Na23 O7 2.466469 1_555
Na23 O109 2.517115 1_555
Na23 O79 2.564766 1_555
Na23 O113 2.599282 1_555
Na23 O37 2.737476 1_556
Na23 O71 2.879058 1_555
Na24 O77 2.444683 1_555
Na24 O46 2.460018 1_555
Na24 O114 2.547365 1_555
Na24 O74 2.586485 1_545
Na24 O118 2.626841 1_555
Na24 O57 2.828240 1_555
Na24 O4 2.903900 1_555
Na25 O115 2.386785 1_555
Na25 O75 2.487280 1_545
Na25 O76 2.520212 1_655
Na25 O119 2.589200 1_555
Na25 O5 2.596965 1_555
Na25 O47 2.612265 1_555
Na26 O76 2.439309 1_555
Na26 O114 2.520782 1_555
Na26 O72 2.532881 1_545
Na26 O116 2.593274 1_555
Na26 O0 2.600164 1_555
Na26 O42 2.645760 1_555
Na27 O117 2.474509 1_555
Na27 O115 2.496012 1_555
Na27 O77 2.565978 1_555
Na27 O43 2.583613 1_555
Na27 O73 2.673584 1_545
Na27 O1 2.730925 1_555
Na27 O63 2.838046 1_545
Na28 O116 2.368206 1_555
Na28 O74 2.409245 1_555
Na28 O118 2.633981 1_555
Na28 O73 2.642491 1_555
Na28 O2 2.682399 1_555
Na28 O44 2.781635 1_555
Na28 O64 2.889428 1_555
Na28 O54 2.932274 1_555
Na29 O75 2.434313 1_555
Na29 O117 2.441805 1_555
Na29 O45 2.537849 1_555
Na29 O119 2.675097 1_555
Na29 O72 2.698036 1_655
Na29 O3 2.778817 1_555
Na29 O55 2.918566 1_555
Na30 O75 2.493445 1_555
Na30 O89 2.530721 1_555
Na30 O85 2.544989 1_565
Na30 O76 2.591386 1_665
Na30 O86 2.614687 1_665
Na30 O72 2.738666 1_655
Na31 O84 2.451489 1_555
Na31 O77 2.470467 1_555
Na31 O87 2.491658 1_555
Na31 O88 2.665741 1_545
Na31 O74 2.681723 1_545
Na31 O73 2.735580 1_545
Na32 O80 2.459869 1_554
Na32 O91 2.473927 1_455
Na32 O94 2.557569 1_565
Na32 O83 2.614667 1_454
Na32 O93 2.661114 1_465
Na32 O78 2.706768 1_564
Na33 O81 2.414907 1_555
Na33 O82 2.439201 1_555
Na33 O90 2.595500 1_556
Na33 O95 2.625113 1_566
Na33 O79 2.656427 1_565
Na33 O92 2.796661 1_566
Na34 O96 2.460474 1_555
Na34 O98 2.488989 1_555
Na34 O100 2.499088 1_555
Na34 O108 2.653752 1_555
Na34 O112 2.690462 1_555
Na34 O110 2.883864 1_555
Na35 O99 2.395148 1_555
Na35 O97 2.544651 1_555
Na35 O109 2.554031 1_555
Na35 O113 2.599848 1_555
Na35 O101 2.671927 1_555
Na35 O111 2.902232 1_555
Na36 O114 2.441042 1_555
Na36 O116 2.485001 1_555
Na36 O106 2.546568 1_555
Na36 O102 2.674247 1_555
Na36 O104 2.786379 1_555
Na36 O118 2.789906 1_555
Na37 O117 2.532805 1_555
Na37 O115 2.569222 1_555
Na37 O103 2.569699 1_555
Na37 O107 2.569911 1_555
Na37 O105 2.614721 1_555
Na37 O119 2.753831 1_555
Na38 O136 2.431961 1_555
Na38 O132 2.537326 1_555
Na38 O134 2.546615 1_555
Na38 O122 2.553064 1_555
Na38 O120 2.592725 1_555
Na38 O124 2.762134 1_555
Na39 O135 2.433575 1_555
Na39 O133 2.523108 1_555
Na39 O123 2.568751 1_555
Na39 O121 2.578363 1_555
Na39 O137 2.579860 1_555
Na39 O125 2.696947 1_555
Na40 O142 2.482283 1_555
Na40 O130 2.494562 1_555
Na40 O126 2.548763 1_555
Na40 O138 2.556936 1_555
Na40 O140 2.600821 1_555
Na40 O128 2.684845 1_555
Na41 O129 2.522076 1_555
Na41 O127 2.540964 1_555
Na41 O131 2.550626 1_555
Na41 O141 2.590376 1_555
Na41 O143 2.595213 1_555
Na41 O139 2.617300 1_555
In0 O5 2.054315 1_455
In0 O3 2.082907 1_445
In0 O0 2.152973 1_555
In0 O76 2.195911 1_555
In0 O75 2.198614 1_445
In0 O72 2.371237 1_545
In1 O1 2.068359 1_555
In1 O2 2.093003 1_545
In1 O74 2.143332 1_545
In1 O77 2.145092 1_555
In1 O4 2.237618 1_555
In1 O73 2.317757 1_545
In2 O6 2.064878 1_665
In2 O11 2.097861 1_565
In2 O83 2.160642 1_555
In2 O9 2.203598 1_555
In2 O80 2.220373 1_655
In2 O78 2.343370 1_665
In3 O8 2.051335 1_555
In3 O10 2.083066 1_565
In3 O7 2.108017 1_565
In3 O81 2.223870 1_555
In3 O82 2.243810 1_555
In3 O79 2.413216 1_565
In4 O24 2.066309 1_555
In4 O26 2.105500 1_555
In4 O96 2.141830 1_555
In4 O100 2.144782 1_555
In4 O98 2.179729 1_555
In4 O28 2.287130 1_555
In5 O31 2.085551 1_555
In5 O103 2.119728 1_555
In5 O35 2.126468 1_555
In5 O105 2.132812 1_555
In5 O107 2.171126 1_555
In5 O33 2.294170 1_555
In6 O36 2.065905 1_556
In6 O38 2.072952 1_556
In6 O108 2.095295 1_555
In6 O112 2.141534 1_555
In6 O40 2.285351 1_556
In6 O110 2.354562 1_555
In7 O37 2.077055 1_556
In7 O39 2.097357 1_556
In7 O109 2.138231 1_555
In7 O113 2.169942 1_555
In7 O41 2.301364 1_556
In7 O111 2.371956 1_555
In8 O42 2.059069 1_555
In8 O46 2.081318 1_555
In8 O114 2.150471 1_555
In8 O116 2.185627 1_555
In8 O44 2.292412 1_555
In8 O118 2.362046 1_555
In9 O45 2.082736 1_555
In9 O43 2.086650 1_555
In9 O47 2.099580 1_555
In9 O115 2.158278 1_555
In9 O117 2.214723 1_555
In9 O119 2.440081 1_555
In10 O63 2.037912 1_555
In10 O65 2.051202 1_555
In10 O135 2.134442 1_555
In10 O133 2.140444 1_555
In10 O61 2.308934 1_555
In10 O137 2.494519 1_555
In11 O70 2.043710 1_555
In11 O68 2.070140 1_555
In11 O142 2.110120 1_555
In11 O138 2.133433 1_555
In11 O66 2.317176 1_555
In11 O140 2.368013 1_555
O0 Si0 1.626303 1_555
O1 Si1 1.630865 1_545
O2 Si2 1.622065 1_555
O3 Si3 1.627153 1_555
O4 S0 1.480667 1_555
O5 Si4 1.620442 1_655
O6 Si5 1.644212 1_555
O7 Si6 1.637769 1_555
O8 Si7 1.632781 1_555
O9 S1 1.481894 1_555
O10 Si8 1.636828 1_545
O11 Si9 1.638296 1_555
O12 Si8 1.660378 1_555
O12 Sn1 2.015407 1_565
O13 Si9 1.626495 1_565
O13 Sn0 2.001403 1_565
O14 Si5 1.648864 1_555
O14 Sn0 2.032099 1_455
O15 Si6 1.651433 1_555
O15 Sn1 2.012837 1_555
O16 S1 1.481640 1_455
O16 Sn0 2.241931 1_465
O17 Si7 1.644869 1_555
O17 Sn1 2.024535 1_565
O18 Si2 1.653477 1_555
O18 Sn3 1.991649 1_555
O19 Si3 1.673931 1_555
O19 Sn2 2.008916 1_665
O20 Si4 1.654519 1_555
O20 Sn2 2.016225 1_555
O21 S0 1.495638 1_555
O21 Sn3 2.190613 1_545
O22 Si0 1.655302 1_565
O22 Sn2 2.017227 1_565
O23 Si1 1.668189 1_555
O23 Sn3 1.982883 1_555
O24 Si10 1.618906 1_555
O25 Si11 1.647641 1_555
O25 Sn4 2.048944 1_555
O26 Si12 1.630931 1_555
O27 Si13 1.660085 1_555
O27 Sn4 2.027770 1_555
O28 S2 1.483548 1_555
O29 Si14 1.640395 1_555
O29 Sn4 1.984407 1_555
O30 Si15 1.651960 1_555
O30 Sn5 2.019180 1_555
O31 Si16 1.608875 1_555
O32 S3 1.489076 1_555
O32 Sn5 2.204198 1_555
O33 S4 1.476977 1_555
O34 Si17 1.660740 1_555
O34 Sn5 2.018036 1_555
O35 Si18 1.625273 1_555
O36 Si17 1.628687 1_555
O37 Si18 1.641179 1_555
O38 Si15 1.621180 1_555
O39 Si16 1.647293 1_555
O40 S3 1.476173 1_555
O41 S4 1.472565 1_555
O42 Si12 1.641931 1_555
O43 Si13 1.627949 1_555
O44 S2 1.473333 1_555
O45 Si14 1.626638 1_555
O46 Si10 1.647378 1_555
O47 Si11 1.618033 1_555
O48 Si19 1.676713 1_555
O48 Sn6 2.014773 1_556
O49 Si20 1.664041 1_555
O49 Sn7 2.030094 1_556
O50 S5 1.500469 1_555
O50 Sn6 2.118901 1_556
O51 S6 1.503579 1_555
O51 Sn7 2.116961 1_556
O52 Si21 1.665503 1_555
O52 Sn6 2.013583 1_556
O53 Si22 1.665302 1_555
O53 Sn7 2.006462 1_556
O54 Si23 1.657842 1_555
O54 Sn8 2.031736 1_555
O55 Si24 1.655153 1_555
O55 Sn9 2.020381 1_555
O56 Si25 1.656942 1_555
O56 Sn8 2.008391 1_555
O57 Si26 1.652732 1_555
O57 Sn9 2.030832 1_555
O58 S7 1.506423 1_555
O58 Sn8 2.116468 1_555
O59 S8 1.473451 1_555
O59 Sn9 2.268094 1_555
O60 S7 1.492339 1_555
O60 Sn10 2.251525 1_555
O61 S8 1.488326 1_555
O62 Si23 1.636208 1_555
O62 Sn10 1.989873 1_555
O63 Si24 1.643033 1_555
O64 Si25 1.654279 1_555
O64 Sn10 2.036092 1_555
O65 Si26 1.642166 1_555
O66 S5 1.476946 1_555
O67 S6 1.478404 1_555
O67 Sn11 2.345289 1_555
O68 Si21 1.629705 1_555
O69 Si22 1.642866 1_555
O69 Sn11 2.038746 1_555
O70 Si19 1.627756 1_555
O71 Si20 1.631945 1_555
O71 Sn11 2.002004 1_555
O72 S7 1.475698 1_555
O73 S8 1.496871 1_555
O74 Si23 1.645273 1_555
O75 Si24 1.648298 1_555
O76 Si25 1.635980 1_555
O77 Si26 1.663283 1_555
O78 S5 1.484605 1_555
O79 S6 1.477256 1_555
O80 Si21 1.653319 1_555
O81 Si22 1.639281 1_555
O82 Si19 1.641304 1_555
O83 Si20 1.647163 1_555
O84 Si10 1.684677 1_555
O84 Sn1 2.123117 1_555
O85 Si11 1.663720 1_555
O85 Sn0 2.065576 1_555
O86 Si12 1.638421 1_555
O86 Sn0 2.033042 1_455
O87 Si13 1.652362 1_555
O87 Sn1 2.026854 1_555
O88 S2 1.488348 1_555
O88 Sn1 2.392307 1_565
O89 Si14 1.643303 1_555
O89 Sn0 2.035081 1_565
O90 Si15 1.680854 1_555
O90 Sn3 2.071027 1_555
O91 Si16 1.684848 1_555
O91 Sn2 2.143899 1_665
O92 S3 1.489360 1_555
O92 Sn3 2.297176 1_545
O93 S4 1.493807 1_555
O93 Sn2 2.391950 1_655
O94 Si17 1.640363 1_555
O94 Sn2 2.048427 1_555
O95 Si18 1.669552 1_555
O95 Sn3 2.018372 1_545
O96 Si8 1.632886 1_545
O97 Si9 1.672217 1_555
O97 Sn4 2.093728 1_555
O98 Si5 1.635066 1_555
O99 Si6 1.653882 1_555
O99 Sn4 2.087460 1_555
O100 Si7 1.628536 1_555
O101 S1 1.489881 1_555
O101 Sn4 2.333576 1_555
O102 Si2 1.676305 1_555
O102 Sn5 2.035822 1_555
O103 Si3 1.632509 1_555
O104 S0 1.492753 1_555
O104 Sn5 2.259420 1_555
O105 Si4 1.623946 1_655
O106 Si0 1.675656 1_555
O106 Sn5 2.030410 1_555
O107 Si1 1.626092 1_545
O108 Si19 1.645215 1_555
O109 Si20 1.648152 1_555
O110 S6 1.487106 1_555
O111 S5 1.481944 1_655
O112 Si21 1.654435 1_545
O113 Si22 1.655280 1_545
O114 Si23 1.646070 1_545
O115 Si24 1.644528 1_545
O116 Si25 1.656916 1_555
O117 Si26 1.640986 1_555
O118 S8 1.494959 1_555
O119 S7 1.469052 1_655
O120 Si17 1.657388 1_555
O120 Sn6 2.058607 1_555
O121 Si18 1.662097 1_555
O121 Sn7 2.032582 1_555
O122 Si16 1.673525 1_455
O122 Sn6 2.031357 1_555
O123 Si15 1.653380 1_555
O123 Sn7 2.081699 1_555
O124 S3 1.501885 1_565
O124 Sn6 2.338097 1_555
O125 S4 1.518358 1_565
O125 Sn7 2.247222 1_555
O126 Si12 1.664770 1_565
O126 Sn8 2.026889 1_555
O127 Si13 1.642661 1_565
O127 Sn9 2.055779 1_555
O128 S2 1.514078 1_555
O128 Sn8 2.253336 1_555
O129 Si14 1.666756 1_555
O129 Sn9 2.057996 1_555
O130 Si11 1.671252 1_455
O130 Sn8 2.053912 1_555
O131 Si10 1.643353 1_555
O131 Sn9 2.042634 1_555
O132 Si0 1.643149 1_565
O132 Sn10 2.049874 1_555
O133 Si1 1.648296 1_555
O134 Si2 1.632179 1_555
O134 Sn10 2.046984 1_555
O135 Si3 1.650859 1_555
O136 Si4 1.668764 1_555
O136 Sn10 2.089459 1_555
O137 S0 1.483235 1_555
O138 Si5 1.656314 1_555
O139 Si6 1.648860 1_555
O139 Sn11 2.028060 1_555
O140 S1 1.498161 1_455
O141 Si7 1.663916 1_555
O141 Sn11 2.077201 1_555
O142 Si8 1.653559 1_555
O143 Si9 1.641296 1_565
O143 Sn11 2.019419 1_555
