# generated using pymatgen
data_LiFe5O8
_symmetry_space_group_name_H-M   'P 1'
_cell_length_a   8.48998100
_cell_length_b   8.48998100
_cell_length_c   8.48998100
_cell_angle_alpha   90.00000000
_cell_angle_beta   90.00000000
_cell_angle_gamma   90.00000000
_symmetry_Int_Tables_number   1
_chemical_formula_structural   LiFe5O8
_chemical_formula_sum   'Li4 Fe20 O32'
_cell_volume   611.95594044
_cell_formula_units_Z   4
loop_
 _symmetry_equiv_pos_site_id
 _symmetry_equiv_pos_as_xyz
  1  'x, y, z'
loop_
 _atom_site_type_symbol
 _atom_site_label
 _atom_site_symmetry_multiplicity
 _atom_site_fract_x
 _atom_site_fract_y
 _atom_site_fract_z
 _atom_site_occupancy
  Li  Li0  1  0.87500000  0.37500000  0.12500000  1
  Li  Li1  1  0.37500000  0.12500000  0.87500000  1
  Li  Li2  1  0.62500000  0.62500000  0.62500000  1
  Li  Li3  1  0.12500000  0.87500000  0.37500000  1
  Fe  Fe0  1  0.87500000  0.86438000  0.61438000  1
  Fe  Fe1  1  0.75525900  0.24474100  0.74474100  1
  Fe  Fe2  1  0.12500000  0.36438000  0.88562000  1
  Fe  Fe3  1  0.38562000  0.37500000  0.63562000  1
  Fe  Fe4  1  0.24474100  0.74474100  0.75525900  1
  Fe  Fe5  1  0.62500000  0.13562000  0.11438000  1
  Fe  Fe6  1  0.36438000  0.88562000  0.12500000  1
  Fe  Fe7  1  0.49474100  0.50525900  0.00525900  1
  Fe  Fe8  1  0.88562000  0.12500000  0.36438000  1
  Fe  Fe9  1  0.86438000  0.61438000  0.87500000  1
  Fe  Fe10  1  0.11438000  0.62500000  0.13562000  1
  Fe  Fe11  1  0.25525900  0.25525900  0.25525900  1
  Fe  Fe12  1  0.99474100  0.99474100  0.99474100  1
  Fe  Fe13  1  0.74474100  0.75525900  0.24474100  1
  Fe  Fe14  1  0.50525900  0.00525900  0.49474100  1
  Fe  Fe15  1  0.37500000  0.63562000  0.38562000  1
  Fe  Fe16  1  0.61438000  0.87500000  0.86438000  1
  Fe  Fe17  1  0.00525900  0.49474100  0.50525900  1
  Fe  Fe18  1  0.13562000  0.11438000  0.62500000  1
  Fe  Fe19  1  0.63562000  0.38562000  0.37500000  1
  O  O0  1  0.12390600  0.12881700  0.86682700  1
  O  O1  1  0.61033600  0.88966400  0.11033600  1
  O  O2  1  0.38966400  0.38966400  0.38966400  1
  O  O3  1  0.86682700  0.12390600  0.12881700  1
  O  O4  1  0.37609400  0.87118300  0.36682700  1
  O  O5  1  0.11682700  0.87881700  0.62609400  1
  O  O6  1  0.62390600  0.37118300  0.13317300  1
  O  O7  1  0.12609400  0.38317300  0.12118300  1
  O  O8  1  0.63317300  0.87609400  0.62881700  1
  O  O9  1  0.36682700  0.37609400  0.87118300  1
  O  O10  1  0.63966400  0.13966400  0.36033600  1
  O  O11  1  0.37881700  0.87390600  0.88317300  1
  O  O12  1  0.36033600  0.63966400  0.13966400  1
  O  O13  1  0.12118300  0.12609400  0.38317300  1
  O  O14  1  0.37390600  0.61682700  0.62118300  1
  O  O15  1  0.88317300  0.37881700  0.87390600  1
  O  O16  1  0.61682700  0.62118300  0.37390600  1
  O  O17  1  0.62609400  0.11682700  0.87881700  1
  O  O18  1  0.13966400  0.36033600  0.63966400  1
  O  O19  1  0.13317300  0.62390600  0.37118300  1
  O  O20  1  0.11033600  0.61033600  0.88966400  1
  O  O21  1  0.38317300  0.12118300  0.12609400  1
  O  O22  1  0.87118300  0.36682700  0.37609400  1
  O  O23  1  0.86033600  0.86033600  0.86033600  1
  O  O24  1  0.37118300  0.13317300  0.62390600  1
  O  O25  1  0.62118300  0.37390600  0.61682700  1
  O  O26  1  0.62881700  0.63317300  0.87609400  1
  O  O27  1  0.87609400  0.62881700  0.63317300  1
  O  O28  1  0.87390600  0.88317300  0.37881700  1
  O  O29  1  0.87881700  0.62609400  0.11682700  1
  O  O30  1  0.88966400  0.11033600  0.61033600  1
  O  O31  1  0.12881700  0.86682700  0.12390600  1
loop_
_geom_bond_atom_site_label_1
_geom_bond_atom_site_label_2
_geom_bond_distance
_geom_bond_site_symmetry_2
Li0 O7 2.133158 1_655
Li0 O29 2.133158 1_555
Li0 O6 2.133158 1_555
Li0 O22 2.133158 1_555
Li0 O15 2.133158 1_554
Li0 O3 2.133158 1_555
Li1 O17 2.133158 1_555
Li1 O21 2.133158 1_556
Li1 O24 2.133158 1_555
Li1 O11 2.133158 1_545
Li1 O9 2.133158 1_555
Li1 O0 2.133158 1_555
Li2 O26 2.133158 1_555
Li2 O8 2.133158 1_555
Li2 O27 2.133158 1_555
Li2 O14 2.133158 1_555
Li2 O25 2.133158 1_555
Li2 O16 2.133158 1_555
Li3 O5 2.133158 1_555
Li3 O13 2.133158 1_565
Li3 O19 2.133158 1_555
Li3 O4 2.133158 1_555
Li3 O28 2.133158 1_455
Li3 O31 2.133158 1_555
Fe0 O27 2.006301 1_555
Fe0 O28 2.006301 1_555
Fe0 O8 2.059165 1_555
Fe0 O5 2.059165 1_655
Fe0 O30 2.092151 1_565
Fe0 O23 2.092151 1_555
Fe1 O15 1.917720 1_555
Fe1 O25 1.917720 1_555
Fe1 O17 1.917720 1_555
Fe1 O30 1.976436 1_555
Fe2 O7 2.006301 1_556
Fe2 O0 2.006301 1_555
Fe2 O9 2.059165 1_555
Fe2 O15 2.059165 1_455
Fe2 O18 2.092151 1_555
Fe2 O20 2.092151 1_555
Fe3 O25 2.006301 1_555
Fe3 O9 2.006301 1_555
Fe3 O14 2.059165 1_555
Fe3 O24 2.059165 1_555
Fe3 O2 2.092151 1_555
Fe3 O18 2.092151 1_555
Fe4 O11 1.917720 1_555
Fe4 O14 1.917720 1_555
Fe4 O5 1.917720 1_555
Fe4 O20 1.976436 1_555
Fe5 O6 2.006301 1_555
Fe5 O17 2.006301 1_554
Fe5 O21 2.059165 1_555
Fe5 O3 2.059165 1_555
Fe5 O10 2.092151 1_555
Fe5 O1 2.092151 1_545
Fe6 O21 2.006301 1_565
Fe6 O31 2.006301 1_555
Fe6 O4 2.059165 1_555
Fe6 O11 2.059165 1_554
Fe6 O12 2.092151 1_555
Fe6 O1 2.092151 1_555
Fe7 O6 1.917720 1_555
Fe7 O26 1.917720 1_554
Fe7 O9 1.917720 1_554
Fe7 O12 1.976436 1_555
Fe8 O13 2.006301 1_655
Fe8 O3 2.006301 1_555
Fe8 O22 2.059165 1_555
Fe8 O28 2.059165 1_545
Fe8 O30 2.092151 1_555
Fe8 O10 2.092151 1_555
Fe9 O26 2.006301 1_555
Fe9 O15 2.006301 1_555
Fe9 O29 2.059165 1_556
Fe9 O27 2.059165 1_555
Fe9 O20 2.092151 1_655
Fe9 O23 2.092151 1_555
Fe10 O19 2.006301 1_555
Fe10 O29 2.006301 1_455
Fe10 O7 2.059165 1_555
Fe10 O31 2.059165 1_555
Fe10 O12 2.092151 1_555
Fe10 O20 2.092151 1_554
Fe11 O21 1.917720 1_555
Fe11 O7 1.917720 1_555
Fe11 O13 1.917720 1_555
Fe11 O2 1.976436 1_555
Fe12 O31 1.917720 1_656
Fe12 O3 1.917720 1_566
Fe12 O0 1.917720 1_665
Fe12 O23 1.976436 1_555
Fe13 O28 1.917720 1_555
Fe13 O16 1.917720 1_555
Fe13 O29 1.917720 1_555
Fe13 O1 1.976436 1_555
Fe14 O24 1.917720 1_555
Fe14 O8 1.917720 1_545
Fe14 O4 1.917720 1_545
Fe14 O10 1.976436 1_555
Fe15 O14 2.006301 1_555
Fe15 O4 2.006301 1_555
Fe15 O16 2.059165 1_555
Fe15 O19 2.059165 1_555
Fe15 O2 2.092151 1_555
Fe15 O12 2.092151 1_555
Fe16 O8 2.006301 1_555
Fe16 O11 2.006301 1_555
Fe16 O26 2.059165 1_555
Fe16 O17 2.059165 1_565
Fe16 O1 2.092151 1_556
Fe16 O23 2.092151 1_555
Fe17 O19 1.917720 1_555
Fe17 O27 1.917720 1_455
Fe17 O22 1.917720 1_455
Fe17 O18 1.976436 1_555
Fe18 O24 2.006301 1_555
Fe18 O5 2.006301 1_545
Fe18 O13 2.059165 1_555
Fe18 O0 2.059165 1_555
Fe18 O18 2.092151 1_555
Fe18 O30 2.092151 1_455
Fe19 O16 2.006301 1_555
Fe19 O22 2.006301 1_555
Fe19 O25 2.059165 1_555
Fe19 O6 2.059165 1_555
Fe19 O10 2.092151 1_555
Fe19 O2 2.092151 1_555
