# generated using pymatgen
data_Li4Ti3Mn3(CoO8)2
_symmetry_space_group_name_H-M   'P 1'
_cell_length_a   5.77342727
_cell_length_b   5.77809067
_cell_length_c   9.57082584
_cell_angle_alpha   89.64906117
_cell_angle_beta   90.54329954
_cell_angle_gamma   119.73322816
_symmetry_Int_Tables_number   1
_chemical_formula_structural   Li4Ti3Mn3(CoO8)2
_chemical_formula_sum   'Li4 Ti3 Mn3 Co2 O16'
_cell_volume   277.22933393
_cell_formula_units_Z   1
loop_
 _symmetry_equiv_pos_site_id
 _symmetry_equiv_pos_as_xyz
  1  'x, y, z'
loop_
 _atom_site_type_symbol
 _atom_site_label
 _atom_site_symmetry_multiplicity
 _atom_site_fract_x
 _atom_site_fract_y
 _atom_site_fract_z
 _atom_site_occupancy
  Li  Li0  1  0.32708836  0.66972968  0.11111077  1
  Li  Li1  1  0.01106438  0.99473861  0.00262303  1
  Li  Li2  1  0.00997018  0.99046381  0.50149318  1
  Li  Li3  1  0.66115106  0.33800636  0.60597623  1
  Ti  Ti0  1  0.65994472  0.82682686  0.78446322  1
  Ti  Ti1  1  0.15812188  0.33813651  0.78558555  1
  Ti  Ti2  1  0.82807775  0.16679977  0.28711971  1
  Mn  Mn0  1  0.17232048  0.83714529  0.78459650  1
  Mn  Mn1  1  0.83043775  0.66177634  0.28422064  1
  Mn  Mn2  1  0.33614198  0.16828593  0.28469619  1
  Co  Co0  1  0.33514126  0.66495991  0.50699058  1
  Co  Co1  1  0.66907658  0.33572501  0.01045148  1
  O  O0  1  0.68565277  0.83589807  0.39504285  1
  O  O1  1  0.48164586  0.51912221  0.66877297  1
  O  O2  1  0.33165094  0.67149185  0.89611264  1
  O  O3  1  0.00325685  0.99865466  0.68509495  1
  O  O4  1  0.00222929  0.99460776  0.18720451  1
  O  O5  1  0.16283134  0.31339211  0.39496854  1
  O  O6  1  0.47754721  0.97047667  0.66855617  1
  O  O7  1  0.03140566  0.52538144  0.66783856  1
  O  O8  1  0.84338252  0.15984042  0.89761247  1
  O  O9  1  0.16152422  0.83757105  0.38956857  1
  O  O10  1  0.96265077  0.48701506  0.17004478  1
  O  O11  1  0.50955397  0.03413398  0.17019517  1
  O  O12  1  0.66240846  0.33741869  0.39340052  1
  O  O13  1  0.85007986  0.68324350  0.89312768  1
  O  O14  1  0.51403621  0.48274798  0.17244444  1
  O  O15  1  0.32190969  0.15670948  0.89284711  1
loop_
_geom_bond_atom_site_label_1
_geom_bond_atom_site_label_2
_geom_bond_distance
_geom_bond_site_symmetry_2
Li0 O11 1.914684 1_565
Li0 O10 1.916141 1_455
Li0 O14 1.952870 1_555
Li0 O2 2.058026 1_554
Li1 O4 1.767802 1_555
Li1 O13 1.883301 1_454
Li1 O15 1.886313 1_564
Li1 O8 1.934753 1_464
Li2 O3 1.759459 1_555
Li2 O9 1.868061 1_555
Li2 O0 1.912537 1_455
Li2 O5 1.913178 1_565
Li3 O1 1.904140 1_555
Li3 O6 1.937961 1_545
Li3 O7 1.944326 1_655
Li3 O12 2.034637 1_555
Mn0 O3 1.898825 1_555
Mn0 O6 1.900608 1_555
Mn0 O15 1.911382 1_565
Mn0 O7 1.925971 1_555
Mn0 O13 1.927497 1_455
Mn0 O2 1.934866 1_555
Mn1 O10 1.894822 1_555
Mn1 O4 1.909945 1_655
Mn1 O14 1.911426 1_555
Mn1 O0 1.923551 1_555
Mn1 O12 1.933207 1_555
Mn1 O9 1.937076 1_655
Mn2 O11 1.898721 1_555
Mn2 O4 1.911164 1_545
Mn2 O14 1.912182 1_555
Mn2 O5 1.918609 1_555
Mn2 O12 1.932614 1_555
Mn2 O9 1.939105 1_545
Co0 O9 2.054022 1_555
Co0 O0 2.064999 1_555
Co0 O5 2.065819 1_555
Co0 O1 2.118775 1_555
Co0 O7 2.174528 1_555
Co0 O6 2.180143 1_555
Co1 O8 2.064070 1_554
Co1 O15 2.066206 1_554
Co1 O13 2.073200 1_554
Co1 O10 2.113669 1_555
Co1 O11 2.150467 1_555
Co1 O14 2.173335 1_555
O0 Ti2 1.957332 1_565
O1 Ti0 1.906258 1_555
O1 Ti1 1.979923 1_555
O2 Ti0 1.969548 1_555
O2 Ti1 1.980789 1_555
O3 Ti1 1.959407 1_565
O3 Ti0 1.972575 1_455
O4 Ti2 1.984306 1_465
O5 Ti2 1.966520 1_455
O6 Ti0 1.965208 1_555
O7 Ti1 1.931400 1_555
O8 Ti1 1.918171 1_655
O8 Ti0 1.994802 1_545
O10 Ti2 1.961562 1_555
O11 Ti2 1.948057 1_555
O12 Ti2 1.971677 1_555
O13 Ti0 1.961141 1_555
O15 Ti1 1.999673 1_555
