# generated using pymatgen
data_Cd5P3ClO12
_symmetry_space_group_name_H-M   'P 1'
_cell_length_a   9.92485427
_cell_length_b   9.92485427
_cell_length_c   6.57008800
_cell_angle_alpha   90.00000000
_cell_angle_beta   90.00000000
_cell_angle_gamma   120.00000177
_symmetry_Int_Tables_number   1
_chemical_formula_structural   Cd5P3ClO12
_chemical_formula_sum   'Cd10 P6 Cl2 O24'
_cell_volume   560.46705248
_cell_formula_units_Z   2
loop_
 _symmetry_equiv_pos_site_id
 _symmetry_equiv_pos_as_xyz
  1  'x, y, z'
loop_
 _atom_site_type_symbol
 _atom_site_label
 _atom_site_symmetry_multiplicity
 _atom_site_fract_x
 _atom_site_fract_y
 _atom_site_fract_z
 _atom_site_occupancy
  Cd  Cd0  1  0.66666700  0.33333300  0.00429500  1
  Cd  Cd1  1  0.33333300  0.66666700  0.50429500  1
  Cd  Cd2  1  0.66666700  0.33333300  0.49570500  1
  Cd  Cd3  1  0.33333300  0.66666700  0.99570500  1
  Cd  Cd4  1  0.75245500  0.02854000  0.75000000  1
  Cd  Cd5  1  0.72391600  0.75245500  0.25000000  1
  Cd  Cd6  1  0.02854000  0.27608400  0.25000000  1
  Cd  Cd7  1  0.97146000  0.72391600  0.75000000  1
  Cd  Cd8  1  0.27608400  0.24754500  0.75000000  1
  Cd  Cd9  1  0.24754500  0.97146000  0.25000000  1
  P  P0  1  0.02483700  0.62065000  0.25000000  1
  P  P1  1  0.59581300  0.97516300  0.25000000  1
  P  P2  1  0.40418700  0.02483700  0.75000000  1
  P  P3  1  0.62065000  0.59581300  0.75000000  1
  P  P4  1  0.97516300  0.37935000  0.75000000  1
  P  P5  1  0.37935000  0.40418700  0.25000000  1
  Cl  Cl0  1  0.00000000  0.00000000  0.25000000  1
  Cl  Cl1  1  0.00000000  0.00000000  0.75000000  1
  O  O0  1  0.49400200  0.64311100  0.75000000  1
  O  O1  1  0.92708300  0.27114800  0.56035900  1
  O  O2  1  0.27114800  0.34406600  0.43964100  1
  O  O3  1  0.92708300  0.27114800  0.93964100  1
  O  O4  1  0.34406600  0.07291700  0.93964100  1
  O  O5  1  0.65593400  0.92708300  0.43964100  1
  O  O6  1  0.07291700  0.72885200  0.43964100  1
  O  O7  1  0.72885200  0.65593400  0.93964100  1
  O  O8  1  0.72885200  0.65593400  0.56035900  1
  O  O9  1  0.07291700  0.72885200  0.06035900  1
  O  O10  1  0.27114800  0.34406600  0.06035900  1
  O  O11  1  0.54444100  0.41189700  0.75000000  1
  O  O12  1  0.13254400  0.54444100  0.25000000  1
  O  O13  1  0.41189700  0.86745600  0.25000000  1
  O  O14  1  0.58810300  0.13254400  0.75000000  1
  O  O15  1  0.86745600  0.45555900  0.75000000  1
  O  O16  1  0.50599800  0.35688900  0.25000000  1
  O  O17  1  0.14910900  0.50599800  0.75000000  1
  O  O18  1  0.35688900  0.85089100  0.75000000  1
  O  O19  1  0.64311100  0.14910900  0.25000000  1
  O  O20  1  0.85089100  0.49400200  0.25000000  1
  O  O21  1  0.34406600  0.07291700  0.56035900  1
  O  O22  1  0.45555900  0.58810300  0.25000000  1
  O  O23  1  0.65593400  0.92708300  0.06035900  1
loop_
_geom_bond_atom_site_label_1
_geom_bond_atom_site_label_2
_geom_bond_distance
_geom_bond_site_symmetry_2
Cd0 O19 2.361399 1_555
Cd0 O20 2.361402 1_555
Cd0 O16 2.361406 1_555
Cd0 O14 2.411796 1_554
Cd0 O15 2.411797 1_554
Cd0 O11 2.411803 1_554
Cd1 O18 2.361399 1_555
Cd1 O17 2.361402 1_555
Cd1 O0 2.361406 1_555
Cd1 O13 2.411796 1_555
Cd1 O12 2.411797 1_555
Cd1 O22 2.411803 1_555
Cd2 O19 2.361399 1_555
Cd2 O20 2.361402 1_555
Cd2 O16 2.361406 1_555
Cd2 O14 2.411796 1_555
Cd2 O15 2.411797 1_555
Cd2 O11 2.411803 1_555
Cd3 O18 2.361399 1_555
Cd3 O17 2.361402 1_555
Cd3 O0 2.361406 1_555
Cd3 O13 2.411796 1_556
Cd3 O12 2.411797 1_556
Cd3 O22 2.411803 1_556
Cd4 O23 2.263820 1_546
Cd4 O5 2.263820 1_545
Cd4 O14 2.325927 1_555
Cd4 O3 2.486122 1_555
Cd4 O1 2.486122 1_555
Cd4 Cl1 2.610029 1_655
Cd5 O8 2.263820 1_555
Cd5 O7 2.263820 1_554
Cd5 O22 2.325935 1_555
Cd5 O5 2.486134 1_555
Cd5 O23 2.486134 1_555
Cd5 Cl0 2.610023 1_665
Cd6 O1 2.263820 1_455
Cd6 O3 2.263820 1_454
Cd6 O12 2.325936 1_555
Cd6 O2 2.486118 1_555
Cd6 O10 2.486118 1_555
Cd6 Cl0 2.610019 1_555
Cd7 O9 2.263820 1_656
Cd7 O6 2.263820 1_655
Cd7 O15 2.325936 1_555
Cd7 O7 2.486118 1_555
Cd7 O8 2.486118 1_555
Cd7 Cl1 2.610019 1_665
Cd8 O10 2.263820 1_556
Cd8 O2 2.263820 1_555
Cd8 O11 2.325935 1_555
Cd8 O4 2.486134 1_555
Cd8 O21 2.486134 1_555
Cd8 Cl1 2.610023 1_555
Cd9 O21 2.263820 1_565
Cd9 O4 2.263820 1_564
Cd9 O13 2.325927 1_555
Cd9 O6 2.486122 1_555
Cd9 O9 2.486122 1_555
Cd9 Cl0 2.610029 1_565
O0 P3 1.546081 1_555
O1 P4 1.555928 1_555
O2 P5 1.555927 1_555
O3 P4 1.555928 1_555
O4 P2 1.555922 1_555
O5 P1 1.555922 1_555
O6 P0 1.555928 1_555
O7 P3 1.555927 1_555
O8 P3 1.555927 1_555
O9 P0 1.555928 1_555
O10 P5 1.555927 1_555
O11 P3 1.588499 1_555
O12 P0 1.588499 1_555
O13 P1 1.588499 1_555
O14 P2 1.588499 1_555
O15 P4 1.588499 1_555
O16 P5 1.546081 1_555
O17 P4 1.546081 1_455
O18 P2 1.546081 1_565
O19 P1 1.546081 1_545
O20 P0 1.546081 1_655
O21 P2 1.555922 1_555
O22 P5 1.588499 1_555
O23 P1 1.555922 1_555
