# generated using pymatgen
data_Ba2DyMgSbO6
_symmetry_space_group_name_H-M   'P 1'
_cell_length_a   7.26098154
_cell_length_b   6.33501162
_cell_length_c   6.33501135
_cell_angle_alpha   59.95496912
_cell_angle_beta   63.74051235
_cell_angle_gamma   63.74051444
_symmetry_Int_Tables_number   1
_chemical_formula_structural   Ba2DyMgSbO6
_chemical_formula_sum   'Ba2 Dy1 Mg1 Sb1 O6'
_cell_volume   216.86040643
_cell_formula_units_Z   1
loop_
 _symmetry_equiv_pos_site_id
 _symmetry_equiv_pos_as_xyz
  1  'x, y, z'
loop_
 _atom_site_type_symbol
 _atom_site_label
 _atom_site_symmetry_multiplicity
 _atom_site_fract_x
 _atom_site_fract_y
 _atom_site_fract_z
 _atom_site_occupancy
  Ba  Ba0  1  0.83538745  0.72205192  0.72205192  1
  Ba  Ba1  1  0.04573818  0.31943595  0.31943595  1
  Dy  Dy0  1  0.08325340  0.97233544  0.97233544  1
  Mg  Mg0  1  0.65096862  0.11966200  0.11966200  1
  Sb  Sb0  1  0.41174140  0.52883399  0.52883399  1
  O  O0  1  0.22044918  0.74084092  0.74084092  1
  O  O1  1  0.23279374  0.73635009  0.28502548  1
  O  O2  1  0.80622022  0.21961795  0.76475464  1
  O  O3  1  0.23279374  0.28502548  0.73635009  1
  O  O4  1  0.80985084  0.21609163  0.21609163  1
  O  O5  1  0.80622022  0.76475464  0.21961795  1
loop_
_geom_bond_atom_site_label_1
_geom_bond_atom_site_label_2
_geom_bond_distance
_geom_bond_site_symmetry_2
Ba0 O0 2.906663 1_655
Ba0 O1 2.985071 1_655
Ba0 O3 2.985071 1_655
Ba0 O5 3.151604 1_555
Ba0 O2 3.151604 1_555
Ba0 O4 3.173403 1_565
Ba0 O4 3.173403 1_556
Ba0 O5 3.204084 1_556
Ba0 O2 3.204084 1_565
Ba1 O4 2.490883 1_455
Ba1 O2 2.495678 1_455
Ba1 O5 2.495678 1_455
Dy0 O1 2.199848 1_556
Dy0 O3 2.199848 1_565
Dy0 O0 2.204970 1_555
Dy0 O4 2.381729 1_466
Dy0 O5 2.391460 1_456
Dy0 O2 2.391460 1_465
Mg0 O2 1.920950 1_554
Mg0 O5 1.920950 1_545
Mg0 O4 1.923055 1_555
O0 Sb0 2.010409 1_555
O1 Sb0 2.008277 1_555
O3 Sb0 2.008277 1_555
