# generated using pymatgen
data_Na6Y5Nb3Si6(SO8)6
_symmetry_space_group_name_H-M   'P 1'
_cell_length_a   18.40498157
_cell_length_b   9.19568630
_cell_length_c   23.55657401
_cell_angle_alpha   90.41422107
_cell_angle_beta   89.89947158
_cell_angle_gamma   120.06822045
_symmetry_Int_Tables_number   1
_chemical_formula_structural   Na6Y5Nb3Si6(SO8)6
_chemical_formula_sum   'Na18 Y15 Nb9 Si18 S18 O144'
_cell_volume   3450.25324971
_cell_formula_units_Z   3
loop_
 _symmetry_equiv_pos_site_id
 _symmetry_equiv_pos_as_xyz
  1  'x, y, z'
loop_
 _atom_site_type_symbol
 _atom_site_label
 _atom_site_symmetry_multiplicity
 _atom_site_fract_x
 _atom_site_fract_y
 _atom_site_fract_z
 _atom_site_occupancy
  Na  Na0  1  0.48710220  0.68848087  0.90949915  1
  Na  Na1  1  0.16099659  0.31970149  0.91084563  1
  Na  Na2  1  0.48856604  0.29598185  0.41337704  1
  Na  Na3  1  0.97814841  0.29078335  0.40696894  1
  Na  Na4  1  0.16281122  0.01999651  0.41035005  1
  Na  Na5  1  0.66355403  0.02941957  0.41756893  1
  Na  Na6  1  0.98103825  0.96685901  0.49267003  1
  Na  Na7  1  0.49335597  0.98666779  0.49365259  1
  Na  Na8  1  0.99192531  0.00199504  0.00107036  1
  Na  Na9  1  0.49892319  0.99131541  0.99044961  1
  Na  Na10  1  0.33211610  0.32755687  0.82140279  1
  Na  Na11  1  0.83142368  0.34543801  0.83274175  1
  Na  Na12  1  0.33787904  0.32786878  0.33088873  1
  Na  Na13  1  0.84004053  0.33909946  0.33521995  1
  Na  Na14  1  0.15240281  0.65862454  0.16543920  1
  Na  Na15  1  0.66690414  0.64661634  0.16951984  1
  Na  Na16  1  0.16868056  0.66983681  0.67541336  1
  Na  Na17  1  0.66346532  0.65835896  0.66565972  1
  Y  Y0  1  0.99499317  0.99084431  0.34941636  1
  Y  Y1  1  0.49328983  0.99528035  0.35155953  1
  Y  Y2  1  0.99829255  0.99642788  0.85178012  1
  Y  Y3  1  0.49992106  0.00239436  0.85035859  1
  Y  Y4  1  0.33490195  0.33383213  0.68879606  1
  Y  Y5  1  0.83324275  0.33867366  0.68697976  1
  Y  Y6  1  0.33535880  0.33046408  0.18860521  1
  Y  Y7  1  0.83949307  0.34068986  0.18409087  1
  Y  Y8  1  0.33180645  0.33662015  0.97980990  1
  Y  Y9  1  0.33830527  0.33909607  0.47913279  1
  Y  Y10  1  0.83364501  0.33967430  0.47703138  1
  Y  Y11  1  0.16359062  0.66284999  0.01797161  1
  Y  Y12  1  0.66877623  0.66999034  0.02174337  1
  Y  Y13  1  0.16944093  0.67224525  0.51937387  1
  Y  Y14  1  0.66772421  0.66786688  0.51660724  1
  Nb  Nb0  1  0.00613581  0.99779788  0.65440679  1
  Nb  Nb1  1  0.50015708  0.00408625  0.65923233  1
  Nb  Nb2  1  0.00487723  0.99729629  0.15249838  1
  Nb  Nb3  1  0.50958862  0.02603832  0.14878224  1
  Nb  Nb4  1  0.83484532  0.34020474  0.98003681  1
  Nb  Nb5  1  0.15947028  0.67631367  0.30985586  1
  Nb  Nb6  1  0.66414543  0.65408525  0.31956637  1
  Nb  Nb7  1  0.16418475  0.64744791  0.81011517  1
  Nb  Nb8  1  0.66450004  0.67676869  0.80985704  1
  Si  Si0  1  0.14765102  0.00088679  0.25372101  1
  Si  Si1  1  0.00257119  0.29664457  0.25325816  1
  Si  Si2  1  0.50850979  0.31231901  0.25296095  1
  Si  Si3  1  0.14650628  0.29386227  0.75408661  1
  Si  Si4  1  0.64825573  0.30228763  0.75399993  1
  Si  Si5  1  0.00387093  0.70129962  0.75403355  1
  Si  Si6  1  0.50208288  0.71081078  0.75333318  1
  Si  Si7  1  0.34745360  0.99022345  0.75412747  1
  Si  Si8  1  0.98010991  0.63672176  0.08364911  1
  Si  Si9  1  0.69042482  0.33403594  0.08394661  1
  Si  Si10  1  0.31244895  0.66886460  0.91702095  1
  Si  Si11  1  0.01739925  0.37619205  0.91639487  1
  Si  Si12  1  0.67087321  0.96559514  0.91912281  1
  Si  Si13  1  0.30907004  0.95498833  0.41523678  1
  Si  Si14  1  0.81340067  0.95797340  0.41580974  1
  Si  Si15  1  0.66698630  0.37061540  0.41691898  1
  Si  Si16  1  0.02107466  0.66772113  0.41729759  1
  Si  Si17  1  0.52005295  0.66435914  0.41659711  1
  S  S0  1  0.64385010  0.99145912  0.24838882  1
  S  S1  1  0.35124177  0.71365222  0.24590469  1
  S  S2  1  0.84922779  0.70995358  0.24687941  1
  S  S3  1  0.85166386  0.99004841  0.74843230  1
  S  S4  1  0.48305509  0.32138334  0.58461933  1
  S  S5  1  0.98235145  0.31968463  0.58469404  1
  S  S6  1  0.17874175  0.03601966  0.58451624  1
  S  S7  1  0.67836710  0.03448821  0.58508074  1
  S  S8  1  0.33901345  0.64159123  0.58582259  1
  S  S9  1  0.83846976  0.64392826  0.58664818  1
  S  S10  1  0.48115503  0.63987419  0.08480096  1
  S  S11  1  0.33968063  0.03723599  0.08570434  1
  S  S12  1  0.83979012  0.04923469  0.08192236  1
  S  S13  1  0.18083762  0.32371312  0.08552874  1
  S  S14  1  0.80958878  0.65641198  0.91628100  1
  S  S15  1  0.52415015  0.38747270  0.91475223  1
  S  S16  1  0.16750799  0.95831251  0.91493632  1
  S  S17  1  0.16777422  0.37939633  0.41458601  1
  O  O0  1  0.10898102  0.01831105  0.31183813  1
  O  O1  1  0.60519235  0.01036778  0.30035372  1
  O  O2  1  0.39957683  0.78006151  0.29851548  1
  O  O3  1  0.89792104  0.78285152  0.29898528  1
  O  O4  1  0.49457752  0.20336889  0.30817138  1
  O  O5  1  0.99371481  0.19930607  0.31118492  1
  O  O6  1  0.10577398  0.19271505  0.81083240  1
  O  O7  1  0.60790847  0.19437078  0.80861821  1
  O  O8  1  0.49151604  0.77923438  0.81267076  1
  O  O9  1  0.98402361  0.78709065  0.80551722  1
  O  O10  1  0.40514729  0.02707293  0.80799332  1
  O  O11  1  0.89958288  0.01747452  0.80051852  1
  O  O12  1  0.40402861  0.96932474  0.69704348  1
  O  O13  1  0.89544504  0.96631040  0.69803896  1
  O  O14  1  0.07974490  0.18323474  0.69785398  1
  O  O15  1  0.58165536  0.19946389  0.69713036  1
  O  O16  1  0.01175121  0.83459563  0.69591168  1
  O  O17  1  0.51674983  0.84281420  0.69894558  1
  O  O18  1  0.39895807  0.82415338  0.19665253  1
  O  O19  1  0.89741592  0.81793866  0.19655213  1
  O  O20  1  0.00955462  0.17961598  0.19751529  1
  O  O21  1  0.51601056  0.19471142  0.19594579  1
  O  O22  1  0.08134497  0.97102397  0.19734056  1
  O  O23  1  0.58662566  0.97624017  0.19768949  1
  O  O24  1  0.43684903  0.33894590  0.63238549  1
  O  O25  1  0.93843690  0.34114186  0.63335403  1
  O  O26  1  0.23164291  0.12649942  0.63293263  1
  O  O27  1  0.73326401  0.12642437  0.63346570  1
  O  O28  1  0.32985596  0.53650994  0.63491419  1
  O  O29  1  0.83053904  0.53927076  0.63557098  1
  O  O30  1  0.43673081  0.52951364  0.13259520  1
  O  O31  1  0.93811035  0.52688530  0.13844025  1
  O  O32  1  0.33048544  0.12415696  0.13523232  1
  O  O33  1  0.82580820  0.11956897  0.13378695  1
  O  O34  1  0.23493144  0.34102462  0.13347778  1
  O  O35  1  0.73780129  0.34470999  0.14085036  1
  O  O36  1  0.21634765  0.29818689  0.03174503  1
  O  O37  1  0.73804074  0.30632504  0.02717306  1
  O  O38  1  0.43358533  0.56458265  0.03090084  1
  O  O39  1  0.91590305  0.52710197  0.02747496  1
  O  O40  1  0.35353093  0.13763691  0.03375479  1
  O  O41  1  0.84892572  0.15407302  0.03095902  1
  O  O42  1  0.21216309  0.12767640  0.53088093  1
  O  O43  1  0.71596791  0.12697870  0.53148426  1
  O  O44  1  0.34700832  0.56110115  0.53285082  1
  O  O45  1  0.85096731  0.57175620  0.53385684  1
  O  O46  1  0.43638777  0.30329605  0.53050221  1
  O  O47  1  0.93551502  0.29928239  0.53125017  1
  O  O48  1  0.26828686  0.68233713  0.97362245  1
  O  O49  1  0.77005371  0.67359443  0.96785056  1
  O  O50  1  0.07785044  0.45680680  0.97018070  1
  O  O51  1  0.57182704  0.46548071  0.96638738  1
  O  O52  1  0.15911012  0.86650822  0.96742915  1
  O  O53  1  0.65563420  0.83918948  0.96987030  1
  O  O54  1  0.26845402  0.84971259  0.47191579  1
  O  O55  1  0.77054044  0.84985735  0.47141043  1
  O  O56  1  0.15712697  0.45485318  0.46717123  1
  O  O57  1  0.64817066  0.45238494  0.47093723  1
  O  O58  1  0.07862430  0.68721199  0.47091973  1
  O  O59  1  0.57458553  0.69203179  0.47252124  1
  O  O60  1  0.07278657  0.64904730  0.35822595  1
  O  O61  1  0.57320754  0.64077798  0.35995015  1
  O  O62  1  0.24801067  0.84391817  0.35865318  1
  O  O63  1  0.75224414  0.85011197  0.35807980  1
  O  O64  1  0.17682621  0.48148527  0.36417414  1
  O  O65  1  0.67577558  0.49419544  0.35981059  1
  O  O66  1  0.06809740  0.49695358  0.85947115  1
  O  O67  1  0.56940191  0.49409426  0.86344986  1
  O  O68  1  0.17512240  0.87425504  0.86395183  1
  O  O69  1  0.68110549  0.85571506  0.86069905  1
  O  O70  1  0.24672383  0.64259631  0.86139224  1
  O  O71  1  0.75917033  0.63858045  0.86460607  1
  O  O72  1  0.01631008  0.83761426  0.41346903  1
  O  O73  1  0.51549380  0.83177425  0.40719444  1
  O  O74  1  0.40542940  0.99867010  0.41145462  1
  O  O75  1  0.90997049  0.99919602  0.41312443  1
  O  O76  1  0.09208836  0.20847733  0.41100984  1
  O  O77  1  0.58620403  0.18484605  0.40896957  1
  O  O78  1  0.00514713  0.18877675  0.91047668  1
  O  O79  1  0.51056796  0.21760361  0.91062791  1
  O  O80  1  0.09435744  0.98670641  0.91257016  1
  O  O81  1  0.58853550  0.98223380  0.91326742  1
  O  O82  1  0.40843590  0.82106837  0.91460164  1
  O  O83  1  0.89478140  0.80332305  0.91292127  1
  O  O84  1  0.48894744  0.16463194  0.59092780  1
  O  O85  1  0.98794583  0.16212142  0.59311145  1
  O  O86  1  0.09190560  0.02068992  0.59292306  1
  O  O87  1  0.59387959  0.02132502  0.59220628  1
  O  O88  1  0.41684559  0.81167024  0.59145737  1
  O  O89  1  0.91578602  0.81658824  0.59437194  1
  O  O90  1  0.48735543  0.80752581  0.09293642  1
  O  O91  1  0.98275016  0.82507563  0.09386497  1
  O  O92  1  0.41820483  0.02224767  0.09434191  1
  O  O93  1  0.91742769  0.03612881  0.08665918  1
  O  O94  1  0.09544980  0.16626093  0.09272731  1
  O  O95  1  0.59138380  0.15090027  0.09494857  1
  O  O96  1  0.33256670  0.14263403  0.73955476  1
  O  O97  1  0.83756563  0.13062097  0.73934283  1
  O  O98  1  0.23757042  0.32381386  0.74185850  1
  O  O99  1  0.73944893  0.32903600  0.74084122  1
  O  O100  1  0.43012681  0.52372929  0.74084665  1
  O  O101  1  0.92775833  0.51690396  0.74073871  1
  O  O102  1  0.33884235  0.54344930  0.23773027  1
  O  O103  1  0.83654771  0.54043197  0.24155783  1
  O  O104  1  0.43007376  0.33834866  0.24134876  1
  O  O105  1  0.92395733  0.32477609  0.24577545  1
  O  O106  1  0.23849303  0.15720272  0.24202627  1
  O  O107  1  0.72671788  0.13941033  0.24134585  1
  O  O108  1  0.31432690  0.48681076  0.91823462  1
  O  O109  1  0.81601436  0.49853768  0.92044611  1
  O  O110  1  0.44196614  0.38505788  0.91720537  1
  O  O111  1  0.92486009  0.36561243  0.92723682  1
  O  O112  1  0.24447871  0.13097303  0.91916732  1
  O  O113  1  0.75848700  0.14997063  0.92770113  1
  O  O114  1  0.30727312  0.13356742  0.41732764  1
  O  O115  1  0.81321945  0.13668547  0.41671037  1
  O  O116  1  0.24255216  0.35738186  0.41934325  1
  O  O117  1  0.75103528  0.35685195  0.41709899  1
  O  O118  1  0.43140902  0.48516064  0.41655061  1
  O  O119  1  0.93389177  0.48932674  0.41680609  1
  O  O120  1  0.16978808  0.47068663  0.08284790  1
  O  O121  1  0.66710574  0.47909979  0.07658839  1
  O  O122  1  0.07541773  0.67783442  0.07726155  1
  O  O123  1  0.56603422  0.66160663  0.08149853  1
  O  O124  1  0.26690853  0.86820835  0.08184814  1
  O  O125  1  0.76678390  0.87772703  0.07542519  1
  O  O126  1  0.16536093  0.86424176  0.58282674  1
  O  O127  1  0.66793249  0.86385907  0.58407179  1
  O  O128  1  0.26388672  0.66122199  0.58317356  1
  O  O129  1  0.76389607  0.66372483  0.58470344  1
  O  O130  1  0.06849341  0.46626863  0.58204082  1
  O  O131  1  0.56805723  0.47077316  0.58355577  1
  O  O132  1  0.15240116  0.82308744  0.25509073  1
  O  O133  1  0.64754940  0.83454044  0.24857321  1
  O  O134  1  0.26830957  0.70321804  0.25014692  1
  O  O135  1  0.76796801  0.70691788  0.24921757  1
  O  O136  1  0.09386133  0.48220305  0.25772987  1
  O  O137  1  0.59760778  0.49503554  0.25454775  1
  O  O138  1  0.14677050  0.47430484  0.75530134  1
  O  O139  1  0.65548020  0.49186610  0.76188720  1
  O  O140  1  0.09327981  0.70475209  0.75818669  1
  O  O141  1  0.59376171  0.70342544  0.75859380  1
  O  O142  1  0.25726183  0.81180985  0.75900611  1
  O  O143  1  0.76778562  0.82968818  0.75322317  1
loop_
_geom_bond_atom_site_label_1
_geom_bond_atom_site_label_2
_geom_bond_distance
_geom_bond_site_symmetry_2
Na0 O82 2.315908 1_555
Na0 O81 2.394517 1_555
Na0 O8 2.421716 1_555
Na0 O110 2.488436 1_555
Na0 O108 2.772604 1_555
Na1 O108 2.451111 1_555
Na1 O78 2.493337 1_555
Na1 O6 2.593554 1_555
Na1 O80 2.668467 1_545
Na1 O50 2.790234 1_555
Na1 O70 2.830546 1_555
Na1 O112 2.844146 1_555
Na2 O74 2.371603 1_545
Na2 O118 2.443401 1_555
Na2 O77 2.474390 1_555
Na2 O4 2.634838 1_555
Na2 O114 2.894825 1_555
Na2 O46 2.931207 1_555
Na3 O75 2.327800 1_545
Na3 O119 2.352434 1_555
Na3 O5 2.468312 1_555
Na3 O76 2.563546 1_655
Na3 O115 2.639499 1_555
Na4 O114 2.324561 1_555
Na4 O72 2.357563 1_545
Na4 O0 2.521740 1_555
Na4 O76 2.637952 1_555
Na4 O116 2.693168 1_555
Na5 O73 2.412846 1_545
Na5 O115 2.416306 1_555
Na5 O77 2.480851 1_555
Na5 O117 2.607858 1_555
Na5 O43 2.836092 1_555
Na5 O1 2.936577 1_555
Na5 O59 2.990397 1_545
Na6 O75 2.391005 1_555
Na6 O72 2.460005 1_655
Na6 O89 2.732439 1_555
Na6 O76 2.883029 1_665
Na6 O85 2.923926 1_565
Na6 O86 2.995632 1_665
Na7 O74 2.563857 1_555
Na7 O73 2.622871 1_555
Na7 O77 2.672204 1_565
Na7 O88 2.766261 1_555
Na7 O84 2.830856 1_565
Na7 O87 2.885804 1_565
Na8 O93 2.540847 1_555
Na8 O78 2.682526 1_654
Na8 O91 2.688567 1_545
Na8 O83 2.744302 1_544
Na8 O94 2.767161 1_655
Na8 O80 2.857931 1_644
Na9 O82 2.402964 1_555
Na9 O81 2.481566 1_555
Na9 O79 2.742237 1_565
Na9 O90 2.902902 1_556
Na9 O95 2.927308 1_566
Na9 O92 2.945862 1_566
Na10 O98 2.547696 1_555
Na10 O96 2.564337 1_555
Na10 O100 2.624093 1_555
Na10 O108 2.807923 1_555
Na10 O112 2.880741 1_555
Na10 O110 2.896167 1_555
Na11 O109 2.585904 1_555
Na11 O99 2.706883 1_555
Na11 O101 2.749802 1_555
Na11 O111 2.763065 1_555
Na11 O113 2.768828 1_555
Na11 O97 2.985916 1_555
Na12 O118 2.569490 1_555
Na12 O114 2.587642 1_555
Na12 O104 2.676572 1_555
Na12 O106 2.698171 1_555
Na12 O116 2.819533 1_555
Na12 O102 2.962029 1_555
Na13 O119 2.483515 1_555
Na13 O115 2.553598 1_555
Na13 O117 2.585094 1_555
Na13 O105 2.651543 1_555
Na13 O103 2.911807 1_555
Na13 O107 2.954961 1_555
Na14 O122 2.572914 1_555
Na14 O132 2.588651 1_555
Na14 O136 2.609698 1_555
Na14 O120 2.716189 1_555
Na14 O134 2.797713 1_555
Na14 O124 2.829047 1_555
Na15 O137 2.414833 1_555
Na15 O135 2.501133 1_555
Na15 O121 2.668753 1_555
Na15 O133 2.673776 1_555
Na15 O123 2.835318 1_555
Na15 O125 2.991310 1_555
Na16 O142 2.466020 1_555
Na16 O138 2.501359 1_555
Na16 O140 2.501761 1_555
Na16 O128 2.814473 1_555
Na16 O126 2.850037 1_555
Na16 O130 2.870209 1_555
Na17 O131 2.593864 1_555
Na17 O129 2.636960 1_555
Na17 O141 2.668327 1_555
Na17 O127 2.677288 1_555
Na17 O139 2.706933 1_555
Na17 O143 2.712755 1_555
Nb0 O16 1.842789 1_555
Nb0 O14 1.858858 1_565
Nb0 O86 2.073009 1_565
Nb0 O13 2.167152 1_455
Nb0 O89 2.177023 1_455
Nb0 O85 2.240636 1_465
Nb1 O12 1.859468 1_545
Nb1 O15 1.885698 1_555
Nb1 O17 1.908570 1_545
Nb1 O84 2.269754 1_555
Nb1 O87 2.283333 1_555
Nb1 O88 2.297810 1_545
Nb2 O22 1.872046 1_555
Nb2 O20 1.942363 1_565
Nb2 O91 1.976284 1_455
Nb2 O19 2.111334 1_455
Nb2 O94 2.145558 1_565
Nb2 O93 2.390848 1_465
Nb3 O21 1.856329 1_555
Nb3 O95 1.864167 1_555
Nb3 O23 2.052151 1_545
Nb3 O92 2.103058 1_555
Nb3 O90 2.252864 1_545
Nb3 O18 2.257959 1_545
Nb4 O39 1.958821 1_556
Nb4 O37 1.986510 1_556
Nb4 O111 1.988821 1_555
Nb4 O113 2.016562 1_555
Nb4 O109 2.178862 1_555
Nb4 O41 2.216065 1_556
Nb5 O60 1.871743 1_555
Nb5 O132 1.924737 1_555
Nb5 O62 1.953588 1_555
Nb5 O136 1.991406 1_555
Nb5 O134 2.356021 1_555
Nb5 O64 2.357352 1_555
Nb6 O65 1.855414 1_555
Nb6 O61 1.874065 1_555
Nb6 O63 1.937584 1_555
Nb6 O137 2.040604 1_555
Nb6 O135 2.388281 1_555
Nb6 O133 2.488683 1_555
Nb7 O138 1.940455 1_555
Nb7 O70 1.960595 1_555
Nb7 O66 1.989495 1_555
Nb7 O142 2.023140 1_555
Nb7 O140 2.044770 1_555
Nb7 O68 2.353875 1_555
Nb8 O141 1.882283 1_555
Nb8 O69 1.924689 1_555
Nb8 O139 1.971177 1_555
Nb8 O67 2.134426 1_555
Nb8 O143 2.170363 1_555
Nb8 O71 2.334564 1_555
O0 Si0 1.585614 1_555
O0 Y0 2.171291 1_445
O1 S0 1.467226 1_545
O1 Y1 2.328824 1_545
O2 S1 1.465881 1_555
O2 Y1 2.237024 1_555
O3 S2 1.465979 1_555
O3 Y0 2.193598 1_555
O4 Si2 1.587833 1_555
O4 Y1 2.165525 1_545
O5 Si1 1.600142 1_655
O5 Y0 2.134611 1_545
O6 Si3 1.590514 1_555
O6 Y2 2.131238 1_445
O7 Si4 1.571080 1_555
O7 Y3 2.129745 1_555
O8 Si6 1.580027 1_555
O8 Y3 2.163169 1_565
O9 Si5 1.581148 1_655
O9 Y2 2.103885 1_555
O10 Si7 1.578100 1_545
O10 Y3 2.120407 1_555
O11 S3 1.457168 1_545
O11 Y2 2.271480 1_545
O12 Si7 1.766708 1_555
O13 S3 1.508409 1_555
O14 Si3 1.741564 1_555
O15 Si4 1.737032 1_555
O16 Si5 1.800971 1_555
O17 Si6 1.697259 1_555
O18 S1 1.506363 1_555
O19 S2 1.519528 1_555
O20 Si1 1.736801 1_555
O21 Si2 1.766490 1_555
O22 Si0 1.730093 1_565
O23 S0 1.552257 1_555
O24 S4 1.465275 1_555
O24 Y4 2.278683 1_555
O25 S5 1.469489 1_555
O25 Y5 2.300555 1_555
O26 S6 1.455834 1_555
O26 Y4 2.306553 1_555
O27 S7 1.472703 1_555
O27 Y5 2.271177 1_555
O28 S8 1.466880 1_555
O28 Y4 2.302466 1_555
O29 S9 1.466405 1_555
O29 Y5 2.235213 1_555
O30 S10 1.465542 1_555
O30 Y6 2.275166 1_555
O31 Si8 1.586364 1_555
O31 Y7 2.070770 1_555
O32 S11 1.466323 1_555
O32 Y6 2.232336 1_555
O33 S12 1.459955 1_555
O33 Y7 2.248375 1_555
O34 S13 1.461125 1_555
O34 Y6 2.302692 1_555
O35 Si9 1.575822 1_555
O35 Y7 2.149068 1_555
O36 S13 1.494641 1_555
O36 Y8 2.319892 1_554
O37 Si9 1.684134 1_555
O38 S10 1.497266 1_555
O38 Y8 2.321288 1_554
O39 Si8 1.719353 1_555
O40 S11 1.481337 1_555
O40 Y8 2.427210 1_554
O41 S12 1.500843 1_555
O42 S6 1.475891 1_555
O42 Y9 2.481358 1_555
O43 S7 1.489625 1_555
O43 Y10 2.437908 1_555
O44 S8 1.490542 1_555
O44 Y9 2.330297 1_555
O45 S9 1.476449 1_555
O45 Y10 2.393015 1_555
O46 S4 1.499389 1_555
O46 Y9 2.332465 1_555
O47 S5 1.483773 1_555
O47 Y10 2.449007 1_555
O48 Si10 1.596402 1_555
O48 Y11 2.118074 1_556
O49 S14 1.462704 1_555
O49 Y12 2.240031 1_556
O50 Si11 1.599257 1_555
O50 Y11 2.080107 1_556
O51 S15 1.457546 1_555
O51 Y12 2.243016 1_556
O52 S16 1.466049 1_555
O52 Y11 2.262516 1_556
O53 Si12 1.597217 1_555
O53 Y12 2.092402 1_556
O54 Si13 1.602708 1_555
O54 Y13 2.067146 1_555
O55 Si14 1.598594 1_555
O55 Y14 2.088170 1_555
O56 S17 1.475564 1_555
O56 Y13 2.251950 1_555
O57 Si15 1.596899 1_555
O57 Y14 2.114058 1_555
O58 Si16 1.600242 1_555
O58 Y13 2.086886 1_555
O59 Si17 1.597331 1_555
O59 Y14 2.111331 1_555
O60 Si16 1.739925 1_555
O61 Si17 1.728748 1_555
O62 Si13 1.708265 1_555
O63 Si14 1.722572 1_555
O64 S17 1.475802 1_555
O65 Si15 1.721768 1_555
O66 Si11 1.697277 1_555
O67 S15 1.520124 1_555
O68 S16 1.467686 1_555
O69 Si12 1.766405 1_555
O70 Si10 1.716693 1_555
O71 S14 1.489418 1_555
O72 Si16 1.611180 1_555
O72 Y0 2.236697 1_455
O73 Si17 1.600186 1_555
O73 Y1 2.188914 1_555
O74 Si13 1.612660 1_555
O74 Y1 2.156028 1_555
O75 Si14 1.622203 1_555
O75 Y0 2.194852 1_555
O76 S17 1.490778 1_555
O76 Y0 2.384788 1_445
O77 Si15 1.617126 1_555
O77 Y1 2.186074 1_545
O78 Si11 1.627158 1_555
O78 Y2 2.190428 1_445
O79 S15 1.455531 1_555
O79 Y3 2.354196 1_555
O80 S16 1.495535 1_555
O80 Y2 2.313834 1_455
O81 Si12 1.603848 1_555
O81 Y3 2.281638 1_565
O82 Si10 1.614395 1_555
O82 Y3 2.262699 1_565
O83 S14 1.472532 1_555
O83 Y2 2.344034 1_555
O84 S4 1.507111 1_555
O85 S5 1.517549 1_555
O86 S6 1.544967 1_555
O87 S7 1.507180 1_555
O88 S8 1.506113 1_555
O89 S9 1.520412 1_555
O90 S10 1.498670 1_555
O91 Si8 1.723346 1_555
O92 S11 1.533019 1_555
O93 S12 1.497365 1_555
O94 S13 1.522304 1_555
O95 Si9 1.776102 1_555
O96 Si7 1.596640 1_545
O96 Y4 2.115963 1_555
O97 S3 1.457550 1_545
O97 Y5 2.318431 1_555
O98 Si3 1.582657 1_555
O98 Y4 2.146720 1_555
O99 Si4 1.599759 1_555
O99 Y5 2.106737 1_555
O100 Si6 1.584619 1_555
O100 Y4 2.129363 1_555
O101 Si5 1.596651 1_655
O101 Y5 2.106353 1_555
O102 S1 1.475358 1_555
O102 Y6 2.240719 1_555
O103 S2 1.460470 1_555
O103 Y7 2.296254 1_555
O104 Si2 1.601477 1_555
O104 Y6 2.113633 1_555
O105 Si1 1.602526 1_655
O105 Y7 2.188259 1_555
O106 Si0 1.591651 1_555
O106 Y6 2.115487 1_555
O107 S0 1.458686 1_545
O107 Y7 2.393681 1_555
O108 Si10 1.692139 1_555
O108 Y8 2.142602 1_555
O109 S14 1.518345 1_555
O110 S15 1.502608 1_555
O110 Y8 2.361789 1_555
O111 Si11 1.675803 1_655
O112 S16 1.510638 1_545
O112 Y8 2.263498 1_555
O113 Si12 1.665006 1_545
O114 Si13 1.659351 1_545
O114 Y9 2.213452 1_555
O115 Si14 1.645037 1_545
O115 Y10 2.214740 1_555
O116 S17 1.492569 1_555
O116 Y9 2.329565 1_555
O117 Si15 1.614069 1_555
O117 Y10 2.140389 1_555
O118 Si17 1.638036 1_555
O118 Y9 2.151084 1_555
O119 Si16 1.621130 1_655
O119 Y10 2.187565 1_555
O120 S13 1.465830 1_555
O120 Y11 2.390143 1_555
O121 Si9 1.603435 1_555
O121 Y12 2.174857 1_555
O122 Si8 1.605594 1_455
O122 Y11 2.194664 1_555
O123 S10 1.474251 1_555
O123 Y12 2.325780 1_555
O124 S11 1.459578 1_565
O124 Y11 2.411808 1_555
O125 S12 1.479846 1_565
O125 Y12 2.241035 1_555
O126 S6 1.471980 1_565
O126 Y13 2.334801 1_555
O127 S7 1.482192 1_565
O127 Y14 2.392820 1_555
O128 S8 1.482883 1_555
O128 Y13 2.340624 1_555
O129 S9 1.473019 1_555
O129 Y14 2.405427 1_555
O130 S5 1.481168 1_455
O130 Y13 2.392319 1_555
O131 S4 1.477193 1_555
O131 Y14 2.415908 1_555
O132 Si0 1.681034 1_565
O133 S0 1.478300 1_555
O134 S1 1.483857 1_555
O135 S2 1.482729 1_555
O136 Si1 1.694364 1_555
O137 Si2 1.658894 1_555
O138 Si3 1.656902 1_555
O139 Si4 1.689507 1_555
O140 Si5 1.632987 1_555
O141 Si6 1.727077 1_555
O142 Si7 1.653313 1_555
O143 S3 1.513641 1_555
