# generated using pymatgen
data_Na6Si5Sn2Ge2SO24
_symmetry_space_group_name_H-M   'P 1'
_cell_length_a   8.86660019
_cell_length_b   8.87236546
_cell_length_c   22.18351203
_cell_angle_alpha   90.10023720
_cell_angle_beta   89.08772642
_cell_angle_gamma   119.99465944
_symmetry_Int_Tables_number   1
_chemical_formula_structural   Na6Si5Sn2Ge2SO24
_chemical_formula_sum   'Na18 Si15 Sn6 Ge6 S3 O72'
_cell_volume   1511.17455653
_cell_formula_units_Z   3
loop_
 _symmetry_equiv_pos_site_id
 _symmetry_equiv_pos_as_xyz
  1  'x, y, z'
loop_
 _atom_site_type_symbol
 _atom_site_label
 _atom_site_symmetry_multiplicity
 _atom_site_fract_x
 _atom_site_fract_y
 _atom_site_fract_z
 _atom_site_occupancy
  Na  Na0  1  0.63446849  0.99876564  0.25253011  1
  Na  Na1  1  0.36439868  0.36567388  0.24827429  1
  Na  Na2  1  0.00202731  0.63426063  0.25057412  1
  Na  Na3  1  0.63405527  0.63299850  0.74819765  1
  Na  Na4  1  0.99627999  0.36384412  0.74980250  1
  Na  Na5  1  0.36856976  0.00528696  0.75018737  1
  Na  Na6  1  0.29906464  0.33332442  0.58386185  1
  Na  Na7  1  0.03258891  0.70203250  0.58320659  1
  Na  Na8  1  0.67000168  0.96629663  0.58318707  1
  Na  Na9  1  0.03816917  0.33840151  0.08513275  1
  Na  Na10  1  0.97554413  0.66764061  0.91737670  1
  Na  Na11  1  0.33413971  0.03027879  0.41675896  1
  Na  Na12  1  0.98931927  0.99457404  0.49786470  1
  Na  Na13  1  0.01632101  0.00634431  0.99982325  1
  Na  Na14  1  0.66086494  0.32067207  0.83256853  1
  Na  Na15  1  0.67886881  0.33928305  0.33755312  1
  Na  Na16  1  0.33316804  0.66596807  0.16602668  1
  Na  Na17  1  0.33465960  0.66661344  0.66617851  1
  Si  Si0  1  0.28604860  0.99963854  0.25455413  1
  Si  Si1  1  0.71131328  0.71405730  0.25137098  1
  Si  Si2  1  0.99968469  0.28257935  0.25237752  1
  Si  Si3  1  0.29603964  0.29570233  0.74638409  1
  Si  Si4  1  0.99414046  0.70851899  0.74791153  1
  Si  Si5  1  0.70806563  0.00013175  0.74852598  1
  Si  Si6  1  0.95846435  0.33359711  0.58413209  1
  Si  Si7  1  0.38262099  0.05317550  0.58300648  1
  Si  Si8  1  0.66586394  0.61853048  0.58208059  1
  Si  Si9  1  0.95667005  0.63005966  0.08171127  1
  Si  Si10  1  0.37442423  0.33581187  0.08299376  1
  Si  Si11  1  0.04379863  0.37217360  0.91453528  1
  Si  Si12  1  0.33642930  0.95701276  0.91415170  1
  Si  Si13  1  0.63368739  0.96501800  0.41906108  1
  Si  Si14  1  0.03227992  0.66329183  0.41979798  1
  Sn  Sn0  1  0.01003272  0.01118426  0.85064224  1
  Sn  Sn1  1  0.00998045  0.99567186  0.14803040  1
  Sn  Sn2  1  0.66648282  0.34118048  0.18766565  1
  Sn  Sn3  1  0.66115536  0.32754524  0.97829671  1
  Sn  Sn4  1  0.32096735  0.65890386  0.01872687  1
  Sn  Sn5  1  0.32916445  0.67043373  0.31740497  1
  Ge  Ge0  1  0.98009200  0.98060925  0.35210997  1
  Ge  Ge1  1  0.99957962  0.00060130  0.64695230  1
  Ge  Ge2  1  0.66692610  0.33463205  0.68423438  1
  Ge  Ge3  1  0.68739947  0.33349470  0.48449097  1
  Ge  Ge4  1  0.33849045  0.68557983  0.52131100  1
  Ge  Ge5  1  0.31884996  0.67234872  0.80940886  1
  S  S0  1  0.66380645  0.03518988  0.08365560  1
  S  S1  1  0.62124502  0.66894179  0.91485557  1
  S  S2  1  0.33372253  0.37458883  0.41883272  1
  O  O0  1  0.19924359  0.04243178  0.31358395  1
  O  O1  1  0.83961708  0.79347571  0.30887994  1
  O  O2  1  0.96185054  0.15198725  0.30964035  1
  O  O3  1  0.22669332  0.17009882  0.80521514  1
  O  O4  1  0.94869559  0.77935210  0.80958834  1
  O  O5  1  0.83167555  0.04603211  0.80657049  1
  O  O6  1  0.79310362  0.95588341  0.68884712  1
  O  O7  1  0.16484970  0.21041829  0.68870942  1
  O  O8  1  0.04141836  0.84015575  0.68951359  1
  O  O9  1  0.78310501  0.83781273  0.19189837  1
  O  O10  1  0.03903657  0.21398687  0.18880402  1
  O  O11  1  0.17017133  0.95030129  0.19451344  1
  O  O12  1  0.87551843  0.37873467  0.64359074  1
  O  O13  1  0.50595161  0.13102451  0.64247169  1
  O  O14  1  0.62421961  0.49751745  0.64324594  1
  O  O15  1  0.88266553  0.50149796  0.14199520  1
  O  O16  1  0.63261369  0.11032735  0.13963725  1
  O  O17  1  0.48163882  0.36556957  0.14564578  1
  O  O18  1  0.45644695  0.29293707  0.02423439  1
  O  O19  1  0.84400699  0.54102409  0.02103582  1
  O  O20  1  0.70070194  0.14994597  0.02977849  1
  O  O21  1  0.46726705  0.17684326  0.52301013  1
  O  O22  1  0.70693840  0.52715880  0.52529065  1
  O  O23  1  0.82944370  0.28389772  0.52716533  1
  O  O24  1  0.54607455  0.69624683  0.97044918  1
  O  O25  1  0.15250543  0.44582485  0.97608146  1
  O  O26  1  0.29898131  0.83729933  0.97390657  1
  O  O27  1  0.53751012  0.83511240  0.47822717  1
  O  O28  1  0.30467516  0.45888044  0.47273561  1
  O  O29  1  0.16893501  0.70638258  0.47717927  1
  O  O30  1  0.10780986  0.62300505  0.35783576  1
  O  O31  1  0.51133937  0.88921858  0.35908411  1
  O  O32  1  0.36469941  0.47973399  0.36211016  1
  O  O33  1  0.13554325  0.50436631  0.85510555  1
  O  O34  1  0.36655035  0.86552413  0.85313864  1
  O  O35  1  0.51532460  0.64123061  0.86026218  1
  O  O36  1  0.03337313  0.85061942  0.41149779  1
  O  O37  1  0.82547012  0.98086281  0.41133404  1
  O  O38  1  0.17617158  0.20051374  0.41447798  1
  O  O39  1  0.01551986  0.17733358  0.91268930  1
  O  O40  1  0.15157401  0.95836688  0.91114189  1
  O  O41  1  0.79880147  0.82297084  0.91142362  1
  O  O42  1  0.97716915  0.15819063  0.59125868  1
  O  O43  1  0.18492215  0.02737982  0.59030414  1
  O  O44  1  0.84053589  0.81439342  0.58980822  1
  O  O45  1  0.96717461  0.81728599  0.08447932  1
  O  O46  1  0.82589788  0.02680559  0.08757340  1
  O  O47  1  0.17360574  0.17094732  0.08512711  1
  O  O48  1  0.68628240  0.17303155  0.74035989  1
  O  O49  1  0.49006044  0.31489657  0.73920385  1
  O  O50  1  0.82396790  0.51302803  0.74083275  1
  O  O51  1  0.69424086  0.52162033  0.24955213  1
  O  O52  1  0.82425688  0.30101438  0.24748873  1
  O  O53  1  0.48119537  0.17130479  0.24837617  1
  O  O54  1  0.64197484  0.51154553  0.91799744  1
  O  O55  1  0.85693232  0.37169190  0.91795570  1
  O  O56  1  0.50944477  0.14931451  0.91670071  1
  O  O57  1  0.63562656  0.15234085  0.42755974  1
  O  O58  1  0.49014028  0.35579714  0.42248234  1
  O  O59  1  0.83999440  0.48868726  0.42712047  1
  O  O60  1  0.36067829  0.51366181  0.07928584  1
  O  O61  1  0.14826953  0.64295276  0.08166866  1
  O  O62  1  0.51028287  0.86422231  0.07763656  1
  O  O63  1  0.35916113  0.85459433  0.57781428  1
  O  O64  1  0.48919573  0.63899239  0.57486904  1
  O  O65  1  0.15394928  0.50902444  0.57389859  1
  O  O66  1  0.31178880  0.82942209  0.25591428  1
  O  O67  1  0.51514967  0.68608752  0.25795284  1
  O  O68  1  0.17302022  0.47684420  0.25700123  1
  O  O69  1  0.31463113  0.48988939  0.75709742  1
  O  O70  1  0.17229691  0.69169510  0.75305015  1
  O  O71  1  0.51382112  0.82093315  0.75643304  1
loop_
_geom_bond_atom_site_label_1
_geom_bond_atom_site_label_2
_geom_bond_distance
_geom_bond_site_symmetry_2
Na0 O52 2.349191 1_565
Na0 O67 2.427450 1_555
Na0 O66 2.478782 1_555
Na0 O53 2.506672 1_565
Na0 O31 2.566859 1_555
Na0 O16 2.697793 1_565
Na0 O9 2.720987 1_555
Na0 O2 2.836328 1_565
Na1 O68 2.356278 1_555
Na1 O53 2.414971 1_555
Na1 O67 2.474297 1_555
Na1 O17 2.487847 1_555
Na1 O51 2.534762 1_555
Na1 O32 2.718405 1_555
Na1 O10 2.847311 1_555
Na1 O0 2.866414 1_555
Na2 O51 2.392033 1_455
Na2 O66 2.410474 1_555
Na2 O68 2.528707 1_555
Na2 O52 2.564025 1_455
Na2 O30 2.591712 1_555
Na2 O15 2.670961 1_455
Na2 O11 2.721261 1_555
Na2 O1 2.776740 1_455
Na3 O71 2.391697 1_555
Na3 O50 2.403713 1_555
Na3 O49 2.457376 1_555
Na3 O69 2.461728 1_555
Na3 O14 2.600935 1_555
Na3 O35 2.699374 1_555
Na3 O4 2.795806 1_555
Na3 O6 2.800673 1_555
Na4 O48 2.414428 1_555
Na4 O69 2.470257 1_655
Na4 O50 2.481595 1_555
Na4 O70 2.523086 1_655
Na4 O12 2.634056 1_555
Na4 O33 2.660527 1_655
Na4 O5 2.739729 1_555
Na4 O7 2.808375 1_655
Na5 O49 2.408524 1_555
Na5 O70 2.435098 1_545
Na5 O48 2.447018 1_555
Na5 O71 2.542810 1_545
Na5 O34 2.596196 1_545
Na5 O3 2.644783 1_555
Na5 O13 2.645005 1_555
Na5 O8 2.870638 1_545
Na6 O64 2.378381 1_555
Na6 O43 2.379695 1_555
Na6 O42 2.477739 1_455
Na6 O65 2.479959 1_555
Na6 O7 2.576490 1_555
Na6 O28 2.696439 1_555
Na6 O21 2.823753 1_555
Na6 O14 2.843306 1_555
Na7 O44 2.367247 1_455
Na7 O65 2.442752 1_555
Na7 O43 2.507693 1_565
Na7 O63 2.510312 1_555
Na7 O29 2.618834 1_555
Na7 O8 2.639920 1_555
Na7 O12 2.814537 1_455
Na7 O22 2.833201 1_455
Na8 O42 2.393037 1_565
Na8 O63 2.423120 1_555
Na8 O44 2.483868 1_555
Na8 O64 2.527834 1_555
Na8 O27 2.620422 1_555
Na8 O6 2.622378 1_555
Na8 O23 2.730701 1_565
Na8 O13 2.835370 1_565
Na9 O47 2.330936 1_555
Na9 O61 2.370893 1_555
Na9 O46 2.446039 1_455
Na9 O60 2.480911 1_555
Na9 O10 2.554512 1_555
Na9 O25 2.598515 1_554
Na9 O15 2.742126 1_455
Na9 O20 2.892116 1_455
Na10 O40 2.253381 1_655
Na10 O55 2.288997 1_555
Na10 O19 2.554152 1_556
Na10 O41 2.557173 1_555
Na10 O54 2.563025 1_555
Na10 O4 2.649310 1_555
Na10 O26 2.802580 1_655
Na10 O33 2.829257 1_655
Na11 O36 2.329219 1_545
Na11 O57 2.345427 1_555
Na11 O58 2.506132 1_555
Na11 O38 2.522561 1_555
Na11 O0 2.626352 1_555
Na11 O21 2.680116 1_555
Na11 O31 2.751048 1_545
Na11 O29 2.818269 1_545
Na12 O37 2.391934 1_555
Na12 O36 2.433317 1_655
Na12 O44 2.504627 1_555
Na12 O38 2.528385 1_665
Na12 O42 2.559308 1_565
Na12 O43 2.627576 1_665
Na13 O47 2.386765 1_556
Na13 O45 2.405087 1_446
Na13 O40 2.433482 1_545
Na13 O39 2.461564 1_555
Na13 O46 2.621739 1_456
Na13 O41 2.680340 1_445
Na14 O56 2.342330 1_555
Na14 O55 2.475906 1_555
Na14 O48 2.494376 1_555
Na14 O50 2.568289 1_555
Na14 O49 2.570566 1_555
Na14 O54 2.598020 1_555
Na15 O59 2.435919 1_555
Na15 O52 2.474282 1_555
Na15 O51 2.495761 1_555
Na15 O57 2.497211 1_555
Na15 O58 2.552453 1_555
Na15 O53 2.587467 1_555
Na16 O60 2.427691 1_555
Na16 O61 2.448064 1_555
Na16 O66 2.523473 1_555
Na16 O68 2.538324 1_555
Na16 O62 2.560682 1_555
Na16 O67 2.570890 1_555
Na17 O70 2.462973 1_555
Na17 O69 2.505830 1_555
Na17 O64 2.507202 1_555
Na17 O63 2.511369 1_555
Na17 O71 2.514723 1_555
Na17 O65 2.562681 1_555
Ge0 O1 1.786755 1_555
Ge0 O2 1.865883 1_565
Ge0 O37 1.884502 1_555
Ge0 O0 1.920972 1_665
Ge0 O36 1.964395 1_655
Ge0 O38 2.327896 1_665
Ge1 O6 1.895689 1_545
Ge1 O8 1.897195 1_645
Ge1 O7 1.944372 1_655
Ge1 O42 1.952556 1_555
Ge1 O43 1.970066 1_655
Ge1 O44 2.011271 1_545
Ge2 O12 1.900328 1_555
Ge2 O13 1.901875 1_555
Ge2 O14 1.902998 1_555
Ge2 O49 1.908451 1_555
Ge2 O50 1.966124 1_555
Ge2 O48 1.973432 1_555
Ge3 O23 1.808196 1_555
Ge3 O59 1.853338 1_555
Ge3 O22 1.871769 1_555
Ge3 O57 1.913815 1_555
Ge3 O21 1.926192 1_555
Ge3 O58 2.326802 1_555
Ge4 O27 1.843228 1_555
Ge4 O29 1.891451 1_555
Ge4 O63 1.891911 1_555
Ge4 O65 1.968484 1_555
Ge4 O64 1.993113 1_555
Ge4 O28 2.167111 1_555
Ge5 O34 1.827551 1_555
Ge5 O33 1.849699 1_555
Ge5 O70 1.885882 1_555
Ge5 O71 1.941547 1_555
Ge5 O69 1.975594 1_555
Ge5 O35 2.219952 1_555
O0 Si0 1.646100 1_545
O1 Si1 1.630895 1_555
O2 Si2 1.634511 1_555
O3 Si3 1.617906 1_555
O3 Sn0 1.982190 1_555
O4 Si4 1.631546 1_555
O4 Sn0 2.060769 1_665
O5 Si5 1.619226 1_555
O5 Sn0 2.022741 1_655
O6 Si5 1.654591 1_565
O7 Si3 1.651217 1_555
O8 Si4 1.648187 1_455
O9 Si1 1.622003 1_555
O9 Sn1 2.020072 1_655
O10 Si2 1.635435 1_455
O10 Sn1 2.034380 1_545
O11 Si0 1.616507 1_555
O11 Sn1 1.965316 1_555
O12 Si6 1.644012 1_555
O13 Si7 1.643345 1_555
O14 Si8 1.650136 1_555
O15 Si9 1.658037 1_555
O15 Sn2 1.985189 1_555
O16 S0 1.494545 1_555
O16 Sn2 2.192735 1_555
O17 Si10 1.641617 1_555
O17 Sn2 2.001446 1_555
O18 Si10 1.617833 1_555
O18 Sn3 1.952484 1_554
O19 Si9 1.638205 1_555
O19 Sn3 2.021699 1_554
O20 S0 1.493624 1_555
O20 Sn3 2.116981 1_554
O21 Si7 1.639666 1_555
O22 Si8 1.629095 1_555
O23 Si6 1.624758 1_555
O24 S1 1.469040 1_555
O24 Sn4 2.124263 1_556
O25 Si11 1.621465 1_555
O25 Sn4 1.978753 1_556
O26 Si12 1.622909 1_555
O26 Sn4 1.962647 1_556
O27 Si13 1.662905 1_555
O28 S2 1.495030 1_555
O29 Si14 1.678948 1_555
O30 Si14 1.635211 1_555
O30 Sn5 1.988227 1_555
O31 Si13 1.647033 1_555
O31 Sn5 2.034283 1_555
O32 S2 1.505312 1_555
O32 Sn5 2.119982 1_555
O33 Si11 1.671148 1_555
O34 Si12 1.662388 1_555
O35 S1 1.487772 1_555
O36 Si14 1.667716 1_555
O37 Si13 1.640884 1_555
O38 S2 1.480788 1_555
O39 Si11 1.618525 1_555
O39 Sn0 1.998327 1_555
O40 Si12 1.647490 1_555
O40 Sn0 2.059045 1_565
O41 S1 1.482333 1_555
O41 Sn0 2.216928 1_665
O42 Si6 1.653552 1_555
O43 Si7 1.655680 1_555
O44 Si8 1.662625 1_555
O45 Si9 1.617704 1_555
O45 Sn1 2.011250 1_655
O46 S0 1.479704 1_555
O46 Sn1 2.249623 1_645
O47 Si10 1.644919 1_555
O47 Sn1 2.039046 1_545
O48 Si5 1.649756 1_555
O49 Si3 1.646898 1_555
O50 Si4 1.643055 1_555
O51 Si1 1.637437 1_555
O51 Sn2 2.029138 1_555
O52 Si2 1.648557 1_555
O52 Sn2 2.098655 1_555
O53 Si0 1.640335 1_545
O53 Sn2 2.060432 1_555
O54 S1 1.498724 1_555
O54 Sn3 2.185365 1_555
O55 Si11 1.655267 1_655
O55 Sn3 2.050976 1_555
O56 Si12 1.628814 1_545
O56 Sn3 2.025170 1_555
O57 Si13 1.663883 1_545
O58 S2 1.480758 1_555
O59 Si14 1.638390 1_655
O60 Si10 1.644569 1_555
O60 Sn4 2.015961 1_555
O61 Si9 1.644621 1_455
O61 Sn4 2.007546 1_555
O62 S0 1.453377 1_565
O62 Sn4 2.201837 1_555
O63 Si7 1.671645 1_565
O64 Si8 1.674731 1_555
O65 Si6 1.664251 1_455
O66 Si0 1.636694 1_555
O66 Sn5 2.026070 1_555
O67 Si1 1.633575 1_555
O67 Sn5 2.044616 1_555
O68 Si2 1.642919 1_455
O68 Sn5 2.082270 1_555
O69 Si3 1.663697 1_555
O70 Si4 1.664959 1_455
O71 Si5 1.666848 1_565
