# generated using pymatgen
data_Na8In2Si5Ge2SO24
_symmetry_space_group_name_H-M   'P 1'
_cell_length_a   9.07416619
_cell_length_b   9.06550499
_cell_length_c   22.08065756
_cell_angle_alpha   90.57949697
_cell_angle_beta   88.74970147
_cell_angle_gamma   120.33057351
_symmetry_Int_Tables_number   1
_chemical_formula_structural   Na8In2Si5Ge2SO24
_chemical_formula_sum   'Na24 In6 Si15 Ge6 S3 O72'
_cell_volume   1567.40556883
_cell_formula_units_Z   3
loop_
 _symmetry_equiv_pos_site_id
 _symmetry_equiv_pos_as_xyz
  1  'x, y, z'
loop_
 _atom_site_type_symbol
 _atom_site_label
 _atom_site_symmetry_multiplicity
 _atom_site_fract_x
 _atom_site_fract_y
 _atom_site_fract_z
 _atom_site_occupancy
  Na  Na0  1  0.64538084  0.00514252  0.25156322  1
  Na  Na1  1  0.35395528  0.36003260  0.24872903  1
  Na  Na2  1  0.99949613  0.64231388  0.24960456  1
  Na  Na3  1  0.63557024  0.63498104  0.74709820  1
  Na  Na4  1  0.99334605  0.36037781  0.74878995  1
  Na  Na5  1  0.36897566  0.00966505  0.74890932  1
  Na  Na6  1  0.29605194  0.33733042  0.58727916  1
  Na  Na7  1  0.04327609  0.70642282  0.58376510  1
  Na  Na8  1  0.66371684  0.95517282  0.58391515  1
  Na  Na9  1  0.28478098  0.96316630  0.08075885  1
  Na  Na10  1  0.67106171  0.69365592  0.08728248  1
  Na  Na11  1  0.04626186  0.33684143  0.08717139  1
  Na  Na12  1  0.97359247  0.66839757  0.91620541  1
  Na  Na13  1  0.70574898  0.04375076  0.90778936  1
  Na  Na14  1  0.32108201  0.28274701  0.91828555  1
  Na  Na15  1  0.95953685  0.29482401  0.41285057  1
  Na  Na16  1  0.32864434  0.02536365  0.41726878  1
  Na  Na17  1  0.70937508  0.67647535  0.41938207  1
  Na  Na18  1  0.99078686  0.98951687  0.50181420  1
  Na  Na19  1  0.02091378  0.00816228  0.99980122  1
  Na  Na20  1  0.66694636  0.32605988  0.82941953  1
  Na  Na21  1  0.67082486  0.33213615  0.33368701  1
  Na  Na22  1  0.32543832  0.65736494  0.16812709  1
  Na  Na23  1  0.33566235  0.66755904  0.66484226  1
  In  In0  1  0.99588074  0.99643202  0.34483817  1
  In  In1  1  0.00784308  0.00489779  0.84359453  1
  In  In2  1  0.00567261  0.00023893  0.15629797  1
  In  In3  1  0.66703233  0.33099674  0.97942975  1
  In  In4  1  0.31486501  0.65327604  0.01950952  1
  In  In5  1  0.33546667  0.67477928  0.52277497  1
  Si  Si0  1  0.30993338  0.00605845  0.24920503  1
  Si  Si1  1  0.68852902  0.69656305  0.25177232  1
  Si  Si2  1  0.99923226  0.31034560  0.25043374  1
  Si  Si3  1  0.30031059  0.30035297  0.74716859  1
  Si  Si4  1  0.99261180  0.70362345  0.74652522  1
  Si  Si5  1  0.70218674  0.99970119  0.74826767  1
  Si  Si6  1  0.95135906  0.32325716  0.58696872  1
  Si  Si7  1  0.38212083  0.05847003  0.58613954  1
  Si  Si8  1  0.67455184  0.61806925  0.58481484  1
  Si  Si9  1  0.95293535  0.62473960  0.08520397  1
  Si  Si10  1  0.37754316  0.33378031  0.08501978  1
  Si  Si11  1  0.04319563  0.37232382  0.91284917  1
  Si  Si12  1  0.33242191  0.95393004  0.91447267  1
  Si  Si13  1  0.62525969  0.96366336  0.41752225  1
  Si  Si14  1  0.03618542  0.66249612  0.41884949  1
  Ge  Ge0  1  0.99971931  0.00037612  0.64791331  1
  Ge  Ge1  1  0.66731214  0.33542014  0.68493929  1
  Ge  Ge2  1  0.66715987  0.35118040  0.18919354  1
  Ge  Ge3  1  0.68533002  0.32865385  0.48775057  1
  Ge  Ge4  1  0.32751820  0.68390035  0.31245111  1
  Ge  Ge5  1  0.31441389  0.67135794  0.80584925  1
  S  S0  1  0.66812398  0.03956342  0.08482371  1
  S  S1  1  0.62244217  0.66761339  0.91444599  1
  S  S2  1  0.33594789  0.37455398  0.41611055  1
  O  O0  1  0.23991452  0.06008204  0.30902847  1
  O  O1  1  0.81380610  0.76389192  0.30927061  1
  O  O2  1  0.95123602  0.18688071  0.30937632  1
  O  O3  1  0.24242870  0.18796845  0.80900341  1
  O  O4  1  0.94383862  0.76524406  0.80923855  1
  O  O5  1  0.81425275  0.04497536  0.80909254  1
  O  O6  1  0.79575537  0.95597023  0.69067766  1
  O  O7  1  0.16290815  0.20725266  0.69110191  1
  O  O8  1  0.03845124  0.84053797  0.69011761  1
  O  O9  1  0.75909205  0.81971697  0.19225878  1
  O  O10  1  0.04822709  0.23610148  0.19064934  1
  O  O11  1  0.18588832  0.94777438  0.19143554  1
  O  O12  1  0.86040363  0.36296103  0.64381912  1
  O  O13  1  0.50526868  0.14590806  0.64382447  1
  O  O14  1  0.64190047  0.49855236  0.64364497  1
  O  O15  1  0.85446865  0.49373266  0.14346424  1
  O  O16  1  0.64269179  0.12330381  0.13862577  1
  O  O17  1  0.49994534  0.35702228  0.14365414  1
  O  O18  1  0.44739102  0.29195937  0.02226321  1
  O  O19  1  0.84996239  0.54926335  0.02253738  1
  O  O20  1  0.69501569  0.13666275  0.02762107  1
  O  O21  1  0.47136126  0.17923471  0.52401149  1
  O  O22  1  0.70935819  0.52956626  0.52276530  1
  O  O23  1  0.83609414  0.28410818  0.52450735  1
  O  O24  1  0.54919762  0.69124783  0.97258530  1
  O  O25  1  0.15131986  0.43474817  0.97531508  1
  O  O26  1  0.31011099  0.85381296  0.97827249  1
  O  O27  1  0.55557352  0.84302929  0.47702248  1
  O  O28  1  0.30849716  0.44775454  0.47244661  1
  O  O29  1  0.14812112  0.69743800  0.47870711  1
  O  O30  1  0.12874442  0.62766923  0.35794914  1
  O  O31  1  0.49713725  0.87153322  0.35830425  1
  O  O32  1  0.35879360  0.48130975  0.36181793  1
  O  O33  1  0.14339630  0.50337107  0.85408888  1
  O  O34  1  0.36234241  0.85709078  0.85419612  1
  O  O35  1  0.51847741  0.64757384  0.86147751  1
  O  O36  1  0.01790439  0.83202619  0.41229809  1
  O  O37  1  0.81940043  0.99649346  0.41154303  1
  O  O38  1  0.18269121  0.20105987  0.41263382  1
  O  O39  1  0.01112127  0.17794730  0.91026778  1
  O  O40  1  0.15856148  0.96594469  0.91214213  1
  O  O41  1  0.79682163  0.82251249  0.91168089  1
  O  O42  1  0.96446538  0.14753787  0.59197822  1
  O  O43  1  0.19000566  0.04122383  0.59044265  1
  O  O44  1  0.85003434  0.81047780  0.58956529  1
  O  O45  1  0.96733862  0.81189949  0.08908563  1
  O  O46  1  0.82250583  0.02325388  0.08851295  1
  O  O47  1  0.18327829  0.16941976  0.08869130  1
  O  O48  1  0.67864881  0.16795663  0.73980628  1
  O  O49  1  0.49244029  0.32360168  0.73861097  1
  O  O50  1  0.82686881  0.50956024  0.73934241  1
  O  O51  1  0.66867972  0.50559192  0.24415001  1
  O  O52  1  0.82665327  0.32703625  0.24196604  1
  O  O53  1  0.50294087  0.17253280  0.23833408  1
  O  O54  1  0.63793535  0.51178776  0.91599035  1
  O  O55  1  0.85923054  0.36678050  0.91344554  1
  O  O56  1  0.50611957  0.14418440  0.91219778  1
  O  O57  1  0.63178365  0.15274385  0.42427113  1
  O  O58  1  0.49392460  0.36174188  0.41821246  1
  O  O59  1  0.84331760  0.48150805  0.42331680  1
  O  O60  1  0.37572854  0.51511297  0.08562929  1
  O  O61  1  0.14253366  0.64346437  0.08925530  1
  O  O62  1  0.51299951  0.86656968  0.08199673  1
  O  O63  1  0.35931388  0.86769634  0.58563501  1
  O  O64  1  0.50373786  0.63553793  0.58238391  1
  O  O65  1  0.14194874  0.49143815  0.58319776  1
  O  O66  1  0.32742162  0.83431678  0.25751600  1
  O  O67  1  0.49742575  0.67363078  0.26376470  1
  O  O68  1  0.17448605  0.50007552  0.25937336  1
  O  O69  1  0.31670353  0.49246764  0.75457972  1
  O  O70  1  0.17019210  0.69031850  0.75038943  1
  O  O71  1  0.50993485  0.82122412  0.75414634  1
loop_
_geom_bond_atom_site_label_1
_geom_bond_atom_site_label_2
_geom_bond_distance
_geom_bond_site_symmetry_2
Na0 O53 2.462736 1_555
Na0 O66 2.492961 1_545
Na0 O52 2.532875 1_555
Na0 O67 2.613909 1_545
Na0 O31 2.665604 1_545
Na0 O9 2.693215 1_545
Na0 O16 2.729440 1_555
Na0 O2 2.746018 1_555
Na1 O51 2.468082 1_555
Na1 O67 2.479726 1_555
Na1 O68 2.526767 1_555
Na1 O17 2.653252 1_555
Na1 O53 2.658775 1_555
Na1 O32 2.710459 1_555
Na1 O0 2.721916 1_555
Na1 O10 2.753438 1_555
Na2 O52 2.476227 1_555
Na2 O68 2.513792 1_655
Na2 O66 2.588464 1_655
Na2 O51 2.610938 1_555
Na2 O15 2.705422 1_555
Na2 O30 2.720745 1_655
Na2 O11 2.724958 1_655
Na2 O1 2.745735 1_555
Na3 O49 2.446905 1_555
Na3 O71 2.470936 1_555
Na3 O69 2.505283 1_555
Na3 O50 2.512337 1_555
Na3 O14 2.599988 1_555
Na3 O35 2.742272 1_555
Na3 O6 2.802659 1_555
Na3 O4 2.810767 1_555
Na4 O48 2.494695 1_555
Na4 O50 2.497486 1_555
Na4 O69 2.554293 1_655
Na4 O70 2.583706 1_655
Na4 O12 2.641926 1_555
Na4 O33 2.689761 1_655
Na4 O5 2.806956 1_555
Na4 O7 2.820070 1_655
Na5 O48 2.429905 1_555
Na5 O49 2.487616 1_555
Na5 O70 2.522137 1_545
Na5 O71 2.604822 1_545
Na5 O13 2.613237 1_555
Na5 O34 2.701170 1_545
Na5 O3 2.730728 1_555
Na5 O8 2.918334 1_545
Na6 O43 2.351300 1_555
Na6 O64 2.392304 1_555
Na6 O65 2.428260 1_555
Na6 O7 2.569158 1_555
Na6 O42 2.604956 1_455
Na6 O28 2.714532 1_555
Na7 O44 2.374740 1_455
Na7 O63 2.476435 1_555
Na7 O29 2.504222 1_555
Na7 O65 2.522239 1_555
Na7 O43 2.631470 1_565
Na7 O8 2.643167 1_555
Na8 O42 2.393494 1_565
Na8 O63 2.458411 1_555
Na8 O64 2.501327 1_555
Na8 O27 2.571440 1_555
Na8 O44 2.616668 1_555
Na8 O6 2.665901 1_555
Na8 O23 2.887597 1_565
Na9 O47 2.469986 1_565
Na9 O45 2.490824 1_455
Na9 O26 2.513695 1_554
Na9 O61 2.514620 1_555
Na9 O11 2.565482 1_555
Na9 O62 2.625016 1_555
Na9 O18 2.877959 1_565
Na10 O60 2.329200 1_555
Na10 O45 2.339161 1_555
Na10 O9 2.534206 1_555
Na10 O46 2.582651 1_565
Na10 O62 2.609550 1_555
Na10 O24 2.781012 1_554
Na10 O19 2.898215 1_555
Na10 O17 2.912074 1_555
Na11 O47 2.399849 1_555
Na11 O61 2.457356 1_555
Na11 O10 2.472931 1_555
Na11 O46 2.524776 1_455
Na11 O60 2.582205 1_555
Na11 O25 2.623703 1_554
Na12 O40 2.350950 1_655
Na12 O55 2.385509 1_555
Na12 O19 2.578788 1_556
Na12 O4 2.594506 1_555
Na12 O41 2.609245 1_555
Na12 O54 2.631678 1_555
Na13 O5 2.369524 1_555
Na13 O39 2.400417 1_655
Na13 O56 2.403363 1_555
Na13 O41 2.528539 1_545
Na13 O55 2.532189 1_555
Na13 O20 2.783270 1_556
Na14 O39 2.482815 1_555
Na14 O40 2.482875 1_545
Na14 O3 2.546405 1_555
Na14 O56 2.555801 1_555
Na14 O54 2.558674 1_555
Na14 O18 2.570224 1_556
Na14 O25 2.807419 1_555
Na15 O37 2.336420 1_545
Na15 O59 2.411177 1_555
Na15 O2 2.464003 1_555
Na15 O38 2.561414 1_655
Na15 O57 2.583160 1_555
Na15 O23 2.667779 1_555
Na15 O30 2.871481 1_655
Na16 O57 2.393897 1_555
Na16 O36 2.460276 1_545
Na16 O38 2.537949 1_555
Na16 O0 2.610487 1_555
Na16 O58 2.632454 1_555
Na16 O21 2.724029 1_555
Na16 O31 2.829734 1_545
Na16 O29 2.903032 1_545
Na17 O36 2.418481 1_655
Na17 O58 2.516069 1_555
Na17 O37 2.553535 1_555
Na17 O1 2.572423 1_555
Na17 O59 2.605020 1_555
Na17 O22 2.654434 1_555
Na17 O27 2.803441 1_555
Na18 O44 2.425258 1_555
Na18 O36 2.506458 1_655
Na18 O42 2.517926 1_565
Na18 O43 2.568543 1_665
Na18 O37 2.575425 1_555
Na18 O38 2.672384 1_665
Na19 O40 2.411498 1_545
Na19 O47 2.460288 1_556
Na19 O45 2.538533 1_446
Na19 O39 2.548079 1_555
Na19 O46 2.680767 1_456
Na19 O41 2.720913 1_445
Na20 O56 2.388194 1_555
Na20 O48 2.463351 1_555
Na20 O55 2.469793 1_555
Na20 O50 2.516346 1_555
Na20 O49 2.574967 1_555
Na20 O54 2.630359 1_555
Na21 O52 2.458130 1_555
Na21 O59 2.478042 1_555
Na21 O57 2.494778 1_555
Na21 O58 2.535032 1_555
Na21 O51 2.545029 1_555
Na21 O53 2.588311 1_555
Na22 O60 2.387487 1_555
Na22 O61 2.390384 1_555
Na22 O68 2.435946 1_555
Na22 O66 2.525420 1_555
Na22 O62 2.604249 1_555
Na22 O67 2.611877 1_555
Na23 O64 2.457780 1_555
Na23 O70 2.458944 1_555
Na23 O63 2.459931 1_555
Na23 O65 2.476799 1_555
Na23 O71 2.487028 1_555
Na23 O69 2.499647 1_555
In0 O1 2.072673 1_555
In0 O0 2.122277 1_665
In0 O2 2.122661 1_565
In0 O37 2.152177 1_555
In0 O36 2.199729 1_655
In0 O38 2.331156 1_665
In1 O3 2.062916 1_555
In1 O4 2.084322 1_445
In1 O5 2.122942 1_455
In1 O39 2.130109 1_555
In1 O40 2.207937 1_545
In1 O41 2.321126 1_445
In2 O11 2.085851 1_545
In2 O10 2.107715 1_555
In2 O9 2.136737 1_445
In2 O45 2.147126 1_445
In2 O47 2.150104 1_555
In2 O46 2.347638 1_455
In3 O18 2.050414 1_556
In3 O19 2.071284 1_556
In3 O55 2.144048 1_555
In3 O56 2.179494 1_555
In3 O20 2.191350 1_556
In3 O54 2.284237 1_555
In4 O25 2.033234 1_554
In4 O26 2.061640 1_554
In4 O61 2.140598 1_555
In4 O60 2.185441 1_555
In4 O24 2.210270 1_554
In4 O62 2.327706 1_555
In5 O27 2.050004 1_555
In5 O29 2.075560 1_555
In5 O63 2.147963 1_555
In5 O65 2.149646 1_555
In5 O64 2.199141 1_555
In5 O28 2.233272 1_555
Ge0 O8 1.909858 1_645
Ge0 O6 1.912613 1_545
Ge0 O7 1.959605 1_655
Ge0 O42 1.972102 1_555
Ge0 O43 1.999255 1_655
Ge0 O44 2.034281 1_545
Ge1 O13 1.847482 1_555
Ge1 O12 1.857437 1_555
Ge1 O14 1.858091 1_555
Ge1 O49 1.919045 1_555
Ge1 O50 1.939210 1_555
Ge1 O48 1.995855 1_555
Ge2 O15 1.819777 1_555
Ge2 O51 1.838226 1_555
Ge2 O17 1.861460 1_555
Ge2 O53 1.883703 1_555
Ge2 O52 1.974589 1_555
Ge2 O16 2.250453 1_555
Ge3 O23 1.818361 1_555
Ge3 O22 1.881617 1_555
Ge3 O21 1.882425 1_555
Ge3 O59 1.985971 1_555
Ge3 O57 1.986402 1_555
Ge4 O66 1.834529 1_555
Ge4 O30 1.877534 1_555
Ge4 O67 1.900531 1_555
Ge4 O31 1.917396 1_555
Ge4 O68 1.942498 1_555
Ge4 O32 2.285217 1_555
Ge5 O34 1.846113 1_555
Ge5 O33 1.853588 1_555
Ge5 O70 1.882346 1_555
Ge5 O71 1.950744 1_555
Ge5 O69 1.976836 1_555
Ge5 O35 2.343481 1_555
O0 Si0 1.628800 1_555
O1 Si1 1.619643 1_555
O2 Si2 1.627490 1_555
O3 Si3 1.623097 1_555
O4 Si4 1.622583 1_555
O5 Si5 1.622732 1_545
O6 Si5 1.666656 1_555
O7 Si3 1.668206 1_555
O8 Si4 1.658956 1_455
O9 Si1 1.629192 1_555
O10 Si2 1.628469 1_455
O11 Si0 1.619149 1_565
O12 Si6 1.622403 1_555
O13 Si7 1.626804 1_555
O14 Si8 1.623758 1_555
O15 Si9 1.665151 1_555
O16 S0 1.479056 1_555
O17 Si10 1.665873 1_555
O18 Si10 1.630759 1_555
O19 Si9 1.627113 1_555
O20 S0 1.490584 1_555
O21 Si7 1.680102 1_555
O22 Si8 1.683880 1_555
O23 Si6 1.673390 1_555
O24 S1 1.495558 1_555
O25 Si11 1.633344 1_555
O26 Si12 1.636195 1_555
O27 Si13 1.617496 1_555
O28 S2 1.478688 1_555
O29 Si14 1.613714 1_555
O30 Si14 1.680274 1_555
O31 Si13 1.680034 1_555
O32 S2 1.492232 1_555
O33 Si11 1.676375 1_555
O34 Si12 1.678440 1_555
O35 S1 1.470261 1_555
O36 Si14 1.635073 1_555
O37 Si13 1.634190 1_555
O38 S2 1.485508 1_555
O39 Si11 1.635158 1_555
O40 Si12 1.637272 1_555
O41 S1 1.494254 1_555
O42 Si6 1.661162 1_555
O43 Si7 1.670423 1_555
O44 Si8 1.669575 1_555
O45 Si9 1.636092 1_555
O46 S0 1.485058 1_555
O47 Si10 1.636326 1_555
O48 Si5 1.656404 1_545
O49 Si3 1.653767 1_555
O50 Si4 1.647612 1_555
O51 Si1 1.654837 1_555
O52 Si2 1.662200 1_555
O53 Si0 1.649859 1_555
O54 S1 1.489375 1_555
O55 Si11 1.644290 1_655
O56 Si12 1.647503 1_545
O57 Si13 1.690153 1_545
O58 S2 1.497251 1_555
O59 Si14 1.691237 1_655
O60 Si10 1.652165 1_555
O61 Si9 1.645662 1_455
O62 S0 1.488986 1_565
O63 Si7 1.634689 1_565
O64 Si8 1.637729 1_555
O65 Si6 1.629613 1_455
O66 Si0 1.655131 1_565
O67 Si1 1.654515 1_555
O68 Si2 1.664516 1_455
O69 Si3 1.678028 1_555
O70 Si4 1.679561 1_455
O71 Si5 1.679787 1_555
