# generated using pymatgen
data_Ba2YMgSbO6
_symmetry_space_group_name_H-M   'P 1'
_cell_length_a   6.62998751
_cell_length_b   6.28366854
_cell_length_c   6.62998821
_cell_angle_alpha   61.71339612
_cell_angle_beta   55.33124767
_cell_angle_gamma   61.71339297
_symmetry_Int_Tables_number   1
_chemical_formula_structural   Ba2YMgSbO6
_chemical_formula_sum   'Ba2 Y1 Mg1 Sb1 O6'
_cell_volume   191.91711668
_cell_formula_units_Z   1
loop_
 _symmetry_equiv_pos_site_id
 _symmetry_equiv_pos_as_xyz
  1  'x, y, z'
loop_
 _atom_site_type_symbol
 _atom_site_label
 _atom_site_symmetry_multiplicity
 _atom_site_fract_x
 _atom_site_fract_y
 _atom_site_fract_z
 _atom_site_occupancy
  Ba  Ba0  1  0.80720800  0.69279200  0.80720800  1
  Ba  Ba1  1  0.19279200  0.30720800  0.19279200  1
  Y  Y0  1  0.00000000  0.00000000  0.00000000  1
  Mg  Mg0  1  0.50000000  0.00000000  0.50000000  1
  Sb  Sb0  1  0.50000000  0.50000000  0.50000000  1
  O  O0  1  0.26692700  0.76801400  0.73307300  1
  O  O1  1  0.24375500  0.75624500  0.24375500  1
  O  O2  1  0.75624500  0.24375500  0.75624500  1
  O  O3  1  0.26692700  0.23198600  0.73307300  1
  O  O4  1  0.73307300  0.23198600  0.26692700  1
  O  O5  1  0.73307300  0.76801400  0.26692700  1
loop_
_geom_bond_atom_site_label_1
_geom_bond_atom_site_label_2
_geom_bond_distance
_geom_bond_site_symmetry_2
Ba0 O3 3.032454 1_655
Ba0 O0 3.032454 1_655
Ba0 O4 3.032455 1_556
Ba0 O5 3.032455 1_556
Ba0 Mg0 3.047976 1_565
Ba0 O1 3.142089 1_556
Ba0 O1 3.142089 1_655
Ba0 O2 3.182261 1_565
Ba0 O2 3.182261 1_555
Ba1 O5 3.032454 1_455
Ba1 O4 3.032454 1_455
Ba1 O0 3.032455 1_554
Ba1 O3 3.032455 1_554
Ba1 Mg0 3.047976 1_555
Ba1 O2 3.142089 1_554
Ba1 O2 3.142089 1_455
Ba1 O1 3.182261 1_545
Ba1 O1 3.182261 1_555
Mg0 O4 2.045508 1_555
Mg0 O0 2.045508 1_545
Mg0 O3 2.045508 1_555
Mg0 O5 2.045508 1_545
O0 Y0 2.196754 1_566
O0 Sb0 2.212549 1_555
O1 Y0 2.418424 1_565
O1 Sb0 2.542344 1_555
O2 Y0 2.418424 1_656
O2 Sb0 2.542344 1_555
O3 Y0 2.196754 1_556
O3 Sb0 2.212549 1_555
O4 Y0 2.196754 1_655
O4 Sb0 2.212549 1_555
O5 Y0 2.196754 1_665
O5 Sb0 2.212549 1_555
