# generated using pymatgen
data_Ba2MgVMoO6
_symmetry_space_group_name_H-M   'P 1'
_cell_length_a   6.06416997
_cell_length_b   6.06416997
_cell_length_c   6.62543017
_cell_angle_alpha   62.76484955
_cell_angle_beta   62.76484955
_cell_angle_gamma   60.00000000
_symmetry_Int_Tables_number   1
_chemical_formula_structural   Ba2MgVMoO6
_chemical_formula_sum   'Ba2 Mg1 V1 Mo1 O6'
_cell_volume   179.13470956
_cell_formula_units_Z   1
loop_
 _symmetry_equiv_pos_site_id
 _symmetry_equiv_pos_as_xyz
  1  'x, y, z'
loop_
 _atom_site_type_symbol
 _atom_site_label
 _atom_site_symmetry_multiplicity
 _atom_site_fract_x
 _atom_site_fract_y
 _atom_site_fract_z
 _atom_site_occupancy
  Ba  Ba0  1  0.30193709  0.30193709  0.09418872  1
  Ba  Ba1  1  0.72666543  0.72666543  0.82000371  1
  Mg  Mg0  1  0.09075446  0.09075446  0.72773663  1
  V  V0  1  0.92066055  0.92066055  0.23801834  1
  Mo  Mo0  1  0.51024565  0.51024565  0.46926306  1
  O  O0  1  0.74441179  0.28666171  0.22451471  1
  O  O1  1  0.73986166  0.27969494  0.70074846  1
  O  O2  1  0.74441179  0.74441179  0.22451471  1
  O  O3  1  0.27969494  0.73986166  0.70074846  1
  O  O4  1  0.28666171  0.74441179  0.22451471  1
  O  O5  1  0.27969494  0.27969494  0.70074846  1
loop_
_geom_bond_atom_site_label_1
_geom_bond_atom_site_label_2
_geom_bond_distance
_geom_bond_site_symmetry_2
Ba0 O5 2.737360 1_554
Ba0 O1 2.737360 1_554
Ba0 O3 2.737360 1_554
Ba0 O0 3.122946 1_455
Ba0 O4 3.122946 1_545
Ba0 O2 3.122946 1_455
Ba0 O2 3.122946 1_545
Ba0 O0 3.122946 1_555
Ba0 O4 3.122946 1_555
Ba1 O2 2.783062 1_556
Ba1 O0 2.783062 1_556
Ba1 O4 2.783062 1_556
Ba1 O3 3.108527 1_655
Ba1 O1 3.108527 1_565
Ba1 O5 3.108527 1_565
Ba1 O5 3.108527 1_655
Ba1 O1 3.108527 1_555
Ba1 O3 3.108527 1_555
Ba1 V0 3.273546 1_555
Mg0 O5 1.896124 1_555
Mg0 O3 1.896124 1_545
Mg0 O1 1.896124 1_455
Mo0 O1 2.071482 1_555
Mo0 O3 2.071482 1_555
Mo0 O5 2.071482 1_555
Mo0 O2 2.112742 1_555
Mo0 O0 2.112742 1_555
Mo0 O4 2.112742 1_555
O0 V0 1.900017 1_545
O2 V0 1.900017 1_555
O4 V0 1.900017 1_455
