# generated using pymatgen
data_Pu(SiPd)2
_symmetry_space_group_name_H-M   'P 1'
_cell_length_a   5.82102034
_cell_length_b   5.82102034
_cell_length_c   5.82102034
_cell_angle_alpha   138.39046512
_cell_angle_beta   138.39046512
_cell_angle_gamma   60.30550645
_symmetry_Int_Tables_number   1
_chemical_formula_structural   Pu(SiPd)2
_chemical_formula_sum   'Pu1 Si2 Pd2'
_cell_volume   86.06489448
_cell_formula_units_Z   1
loop_
 _symmetry_equiv_pos_site_id
 _symmetry_equiv_pos_as_xyz
  1  'x, y, z'
loop_
 _atom_site_type_symbol
 _atom_site_label
 _atom_site_symmetry_multiplicity
 _atom_site_fract_x
 _atom_site_fract_y
 _atom_site_fract_z
 _atom_site_occupancy
  Pu  Pu0  1  -0.00000000  -0.00000000  -0.00000000  1
  Si  Si0  1  0.61572099  0.61572099  -0.00000000  1
  Si  Si1  1  0.38427901  0.38427901  0.00000000  1
  Pd  Pd0  1  0.25000000  0.75000000  0.50000000  1
  Pd  Pd1  1  0.75000000  0.25000000  0.50000000  1
loop_
_geom_bond_atom_site_label_1
_geom_bond_atom_site_label_2
_geom_bond_distance
_geom_bond_site_symmetry_2
Pu0 Si1 3.147459 1_545
Pu0 Si1 3.147459 1_556
Pu0 Si0 3.147459 1_455
Pu0 Si1 3.147459 1_455
Pu0 Si1 3.147459 1_444
Pu0 Si0 3.147459 1_545
Pu0 Si0 3.147459 1_444
Pu0 Si0 3.147459 1_556
Si0 Si1 2.329868 1_555
Pd0 Si0 2.470212 1_455
Pd0 Si0 2.470212 1_556
Pd0 Si1 2.470212 1_555
Pd0 Si1 2.470212 1_566
Pd0 Pu0 3.257058 1_666
Pd0 Pu0 3.257058 1_555
Pd0 Pu0 3.257058 1_565
Pd0 Pu0 3.257058 1_566
Pd1 Si1 2.470212 1_656
Pd1 Si0 2.470212 1_545
Pd1 Si0 2.470212 1_556
Pd1 Si1 2.470212 1_555
Pd1 Pu0 3.257058 1_555
Pd1 Pu0 3.257058 1_655
Pd1 Pu0 3.257058 1_656
Pd1 Pu0 3.257058 1_666
