# generated using pymatgen
data_Cr4As3
_symmetry_space_group_name_H-M   'P 1'
_cell_length_a   6.75026040
_cell_length_b   6.75026040
_cell_length_c   9.32520323
_cell_angle_alpha   76.84934701
_cell_angle_beta   76.84934701
_cell_angle_gamma   30.68857434
_symmetry_Int_Tables_number   1
_chemical_formula_structural   Cr4As3
_chemical_formula_sum   'Cr8 As6'
_cell_volume   210.74150865
_cell_formula_units_Z   2
loop_
 _symmetry_equiv_pos_site_id
 _symmetry_equiv_pos_as_xyz
  1  'x, y, z'
loop_
 _atom_site_type_symbol
 _atom_site_label
 _atom_site_symmetry_multiplicity
 _atom_site_fract_x
 _atom_site_fract_y
 _atom_site_fract_z
 _atom_site_occupancy
  Cr  Cr0  1  0.00000000  0.00000000  0.50000000  1
  Cr  Cr1  1  0.35236700  0.35236700  0.94637800  1
  Cr  Cr2  1  0.64763300  0.64763300  0.05362200  1
  Cr  Cr3  1  0.78257300  0.78257300  0.66605700  1
  Cr  Cr4  1  0.21742700  0.21742700  0.33394300  1
  Cr  Cr5  1  0.56665700  0.56665700  0.79731900  1
  Cr  Cr6  1  0.43334300  0.43334300  0.20268100  1
  Cr  Cr7  1  0.00000000  0.00000000  0.00000000  1
  As  As0  1  0.93802500  0.93802500  0.77124600  1
  As  As1  1  0.06197500  0.06197500  0.22875400  1
  As  As2  1  0.63951100  0.63951100  0.52008900  1
  As  As3  1  0.36048900  0.36048900  0.47991100  1
  As  As4  1  0.18905000  0.18905000  0.85023800  1
  As  As5  1  0.81095000  0.81095000  0.14976200  1
loop_
_geom_bond_atom_site_label_1
_geom_bond_atom_site_label_2
_geom_bond_distance
_geom_bond_site_symmetry_2
As0 Cr3 2.448461 1_555
As0 Cr7 2.452268 1_666
As0 Cr0 2.466988 1_665
As0 Cr1 2.498427 1_565
As0 Cr1 2.498427 1_655
As0 Cr5 2.499302 1_565
As0 Cr5 2.499302 1_655
As1 Cr4 2.448461 1_555
As1 Cr7 2.452268 1_555
As1 Cr0 2.466988 1_555
As1 Cr2 2.498427 1_545
As1 Cr2 2.498427 1_455
As1 Cr6 2.499302 1_455
As1 Cr6 2.499302 1_545
As2 Cr4 2.530220 1_565
As2 Cr4 2.530220 1_655
As2 Cr5 2.534965 1_555
As2 Cr3 2.553079 1_555
As2 Cr0 2.585609 1_655
As2 Cr0 2.585609 1_565
As3 Cr3 2.530220 1_545
As3 Cr3 2.530220 1_455
As3 Cr6 2.534965 1_555
As3 Cr4 2.553079 1_555
As3 Cr0 2.585609 1_565
As3 Cr0 2.585609 1_655
As4 Cr1 2.494840 1_555
As4 Cr5 2.518802 1_545
As4 Cr5 2.518802 1_455
As4 Cr7 2.527143 1_556
As4 Cr2 2.568260 1_546
As4 Cr2 2.568260 1_456
As4 Cr3 2.576114 1_455
As4 Cr3 2.576114 1_545
As5 Cr2 2.494840 1_555
As5 Cr6 2.518802 1_565
As5 Cr6 2.518802 1_655
As5 Cr7 2.527143 1_665
As5 Cr1 2.568260 1_654
As5 Cr1 2.568260 1_564
As5 Cr4 2.576114 1_565
As5 Cr4 2.576114 1_655
