# generated using pymatgen
data_NaLi5Sn4
_symmetry_space_group_name_H-M   'P 1'
_cell_length_a   10.94443767
_cell_length_b   10.94443767
_cell_length_c   10.94443762
_cell_angle_alpha   26.22942148
_cell_angle_beta   26.22942148
_cell_angle_gamma   26.22942265
_symmetry_Int_Tables_number   1
_chemical_formula_structural   NaLi5Sn4
_chemical_formula_sum   'Na1 Li5 Sn4'
_cell_volume   225.63304192
_cell_formula_units_Z   1
loop_
 _symmetry_equiv_pos_site_id
 _symmetry_equiv_pos_as_xyz
  1  'x, y, z'
loop_
 _atom_site_type_symbol
 _atom_site_label
 _atom_site_symmetry_multiplicity
 _atom_site_fract_x
 _atom_site_fract_y
 _atom_site_fract_z
 _atom_site_occupancy
  Na  Na0  1  0.48392700  0.48392700  0.48392700  1
  Li  Li0  1  0.86136800  0.86136800  0.86136800  1
  Li  Li1  1  0.94734900  0.94734900  0.94734900  1
  Li  Li2  1  0.58403300  0.58403300  0.58403300  1
  Li  Li3  1  0.13681200  0.13681200  0.13681200  1
  Li  Li4  1  0.05386200  0.05386200  0.05386200  1
  Sn  Sn0  1  0.77130200  0.77130100  0.77130200  1
  Sn  Sn1  1  0.68170100  0.68170100  0.68170100  1
  Sn  Sn2  1  0.31745300  0.31745300  0.31745300  1
  Sn  Sn3  1  0.22499300  0.22499300  0.22499300  1
loop_
_geom_bond_atom_site_label_1
_geom_bond_atom_site_label_2
_geom_bond_distance
_geom_bond_site_symmetry_2
Na0 Sn0 3.216071 1_554
Na0 Sn0 3.216072 1_455
Na0 Sn0 3.216075 1_545
Li0 Li1 2.724424 1_555
Li0 Sn0 2.853873 1_555
Li0 Sn3 3.023855 1_665
Li0 Sn3 3.023856 1_656
Li0 Sn3 3.023856 1_566
Li0 Na0 3.189944 1_556
Li0 Na0 3.189944 1_565
Li0 Na0 3.189944 1_655
Li1 Sn2 3.095149 1_665
Li1 Sn2 3.095149 1_566
Li1 Sn2 3.095149 1_656
Li2 Sn3 2.980925 1_556
Li2 Sn3 2.980926 1_655
Li2 Sn3 2.980926 1_565
Li2 Sn1 3.094742 1_555
Li2 Na0 3.171994 1_555
Li3 Li4 2.628383 1_555
Li3 Sn3 2.794134 1_555
Li3 Na0 2.900538 1_554
Li3 Na0 2.900538 1_545
Li3 Na0 2.900538 1_455
Li3 Sn0 3.043343 1_454
Li3 Sn0 3.043347 1_445
Li3 Sn0 3.043347 1_544
Li4 Sn1 3.120269 1_445
Li4 Sn1 3.120269 1_454
Li4 Sn1 3.120269 1_544
Li4 Sn0 3.287960 1_454
Li4 Sn0 3.287964 1_445
Li4 Sn0 3.287964 1_544
Sn0 Sn1 2.839118 1_555
Sn1 Sn2 3.030179 1_556
Sn1 Sn2 3.030179 1_565
Sn1 Sn2 3.030179 1_655
Sn2 Sn3 2.929720 1_555
