# generated using pymatgen
data_MgFe2(SbO4)2
_symmetry_space_group_name_H-M   'P 1'
_cell_length_a   6.38470913
_cell_length_b   6.06759936
_cell_length_c   6.37898612
_cell_angle_alpha   85.57220939
_cell_angle_beta   116.80805610
_cell_angle_gamma   60.15010857
_symmetry_Int_Tables_number   1
_chemical_formula_structural   MgFe2(SbO4)2
_chemical_formula_sum   'Mg1 Fe2 Sb2 O8'
_cell_volume   176.17509040
_cell_formula_units_Z   1
loop_
 _symmetry_equiv_pos_site_id
 _symmetry_equiv_pos_as_xyz
  1  'x, y, z'
loop_
 _atom_site_type_symbol
 _atom_site_label
 _atom_site_symmetry_multiplicity
 _atom_site_fract_x
 _atom_site_fract_y
 _atom_site_fract_z
 _atom_site_occupancy
  Mg  Mg0  1  0.25873309  0.93482640  0.79103016  1
  Fe  Fe0  1  0.74090216  0.75247690  0.50220016  1
  Fe  Fe1  1  0.50718609  0.40034285  0.09326128  1
  Sb  Sb0  1  0.26133956  0.27027900  0.47141529  1
  Sb  Sb1  1  -0.00004662  0.93860149  0.06223043  1
  O  O0  1  0.04360176  0.77971408  0.80514812  1
  O  O1  1  0.56923374  0.24069060  0.81941460  1
  O  O2  1  0.48304071  0.86769931  0.64697764  1
  O  O3  1  0.03700223  0.33820198  0.62462221  1
  O  O4  1  0.48311209  0.19835338  0.32195541  1
  O  O5  1  0.01237772  0.69580440  0.29757753  1
  O  O6  1  0.41157360  0.78408302  0.16858542  1
  O  O7  1  0.94194286  0.23940358  0.19320074  1
loop_
_geom_bond_atom_site_label_1
_geom_bond_atom_site_label_2
_geom_bond_distance
_geom_bond_site_symmetry_2
Mg0 O2 1.930151 1_555
Mg0 O3 1.978759 1_565
Mg0 O0 2.041050 1_555
Mg0 O6 2.059314 1_556
Fe0 O3 2.033975 1_655
Fe0 O2 2.092274 1_555
Fe0 O6 2.118074 1_555
Fe0 O0 2.120238 1_655
Fe0 O4 2.174924 1_565
Fe0 O5 2.518539 1_655
Fe1 O4 1.941036 1_555
Fe1 O1 2.156467 1_554
Fe1 O7 2.162043 1_555
Fe1 O6 2.246617 1_555
Fe1 O0 2.257182 1_554
O0 Sb1 2.021222 1_556
O1 Sb1 2.005790 1_646
O1 Sb0 2.115523 1_555
O2 Sb0 1.982518 1_565
O3 Sb0 1.978321 1_555
O4 Sb0 1.941945 1_555
O5 Sb1 1.966006 1_555
O5 Sb0 2.074893 1_555
O6 Sb1 2.021587 1_555
O7 Sb1 2.001989 1_645
O7 Sb0 2.123789 1_655
