# generated using pymatgen
data_MgV2Cr4O12
_symmetry_space_group_name_H-M   'P 1'
_cell_length_a   4.73048212
_cell_length_b   4.72504513
_cell_length_c   8.81784301
_cell_angle_alpha   90.00424742
_cell_angle_beta   90.00072730
_cell_angle_gamma   90.91014854
_symmetry_Int_Tables_number   1
_chemical_formula_structural   MgV2Cr4O12
_chemical_formula_sum   'Mg1 V2 Cr4 O12'
_cell_volume   197.06928053
_cell_formula_units_Z   1
loop_
 _symmetry_equiv_pos_site_id
 _symmetry_equiv_pos_as_xyz
  1  'x, y, z'
loop_
 _atom_site_type_symbol
 _atom_site_label
 _atom_site_symmetry_multiplicity
 _atom_site_fract_x
 _atom_site_fract_y
 _atom_site_fract_z
 _atom_site_occupancy
  Mg  Mg0  1  0.49969900  0.99992100  0.32989600  1
  V  V0  1  0.00175600  0.00025900  0.99557100  1
  V  V1  1  0.49823500  0.50001800  0.51932200  1
  Cr  Cr0  1  0.99955500  0.00007400  0.33710100  1
  Cr  Cr1  1  0.99886500  0.99982200  0.66927800  1
  Cr  Cr2  1  0.50118900  0.50007500  0.16505800  1
  Cr  Cr3  1  0.50101000  0.49968600  0.84268000  1
  O  O0  1  0.22361000  0.83718400  0.16986800  1
  O  O1  1  0.23639100  0.82403400  0.50006800  1
  O  O2  1  0.20286300  0.82096400  0.84613600  1
  O  O3  1  0.27779800  0.31066700  0.00398000  1
  O  O4  1  0.28374500  0.33557000  0.34547900  1
  O  O5  1  0.28843400  0.32322400  0.66212000  1
  O  O6  1  0.72366500  0.68903900  0.00390100  1
  O  O7  1  0.71601600  0.66475800  0.34556900  1
  O  O8  1  0.71022500  0.67663300  0.66184300  1
  O  O9  1  0.77666500  0.16326300  0.16997600  1
  O  O10  1  0.76219600  0.17529500  0.50008000  1
  O  O11  1  0.79808300  0.17951600  0.84635800  1
loop_
_geom_bond_atom_site_label_1
_geom_bond_atom_site_label_2
_geom_bond_distance
_geom_bond_site_symmetry_2
Mg0 O7 1.904127 1_555
Mg0 O4 1.905041 1_565
Mg0 O0 2.063029 1_555
Mg0 O9 2.066121 1_565
Mg0 O10 2.108938 1_565
Mg0 O1 2.112140 1_555
Cr0 O9 1.975845 1_555
Cr0 O0 1.978908 1_645
Cr0 O10 2.010203 1_555
Cr0 O1 2.010430 1_645
Cr0 O7 2.060916 1_545
Cr0 O4 2.063490 1_655
Cr1 O11 2.021546 1_565
Cr1 O2 2.025730 1_655
Cr1 O8 2.033312 1_555
Cr1 O5 2.036888 1_665
Cr1 O10 2.048518 1_565
Cr1 O1 2.051386 1_655
Cr2 O6 1.973466 1_555
Cr2 O3 1.976062 1_555
Cr2 O7 2.036282 1_555
Cr2 O4 2.041592 1_555
Cr2 O9 2.073319 1_555
Cr2 O0 2.080771 1_555
Cr3 O6 1.975020 1_556
Cr3 O3 1.976322 1_556
Cr3 O8 2.048216 1_555
Cr3 O5 2.052920 1_555
Cr3 O11 2.081365 1_555
Cr3 O2 2.088683 1_555
O0 V0 2.020665 1_564
O1 V1 1.991804 1_555
O2 V0 1.839710 1_565
O3 V0 1.949606 1_554
O4 V1 1.989433 1_555
O5 V1 1.800600 1_555
O6 V0 1.958817 1_664
O7 V1 1.997347 1_555
O8 V1 1.804063 1_555
O9 V0 2.029278 1_654
O10 V1 2.000737 1_555
O11 V0 1.844696 1_655
