# generated using pymatgen
data_NaInS2
_symmetry_space_group_name_H-M   'P 1'
_cell_length_a   6.98586285
_cell_length_b   6.98586274
_cell_length_c   6.98586330
_cell_angle_alpha   31.70729691
_cell_angle_beta   31.70730159
_cell_angle_gamma   31.70729410
_symmetry_Int_Tables_number   1
_chemical_formula_structural   NaInS2
_chemical_formula_sum   'Na1 In1 S2'
_cell_volume   83.63595571
_cell_formula_units_Z   1
loop_
 _symmetry_equiv_pos_site_id
 _symmetry_equiv_pos_as_xyz
  1  'x, y, z'
loop_
 _atom_site_type_symbol
 _atom_site_label
 _atom_site_symmetry_multiplicity
 _atom_site_fract_x
 _atom_site_fract_y
 _atom_site_fract_z
 _atom_site_occupancy
  Na  Na0  1  0.50000000  0.50000000  0.50000000  1
  In  In0  1  0.00000000  -0.00000000  0.00000000  1
  S  S0  1  0.74038268  0.74038268  0.74038268  1
  S  S1  1  0.25961732  0.25961732  0.25961732  1
loop_
_geom_bond_atom_site_label_1
_geom_bond_atom_site_label_2
_geom_bond_distance
_geom_bond_site_symmetry_2
Na0 S0 2.876318 1_545
Na0 S1 2.876318 1_565
Na0 S0 2.876318 1_455
Na0 S1 2.876318 1_655
Na0 S0 2.876319 1_554
Na0 S1 2.876319 1_556
In0 S1 2.646747 1_545
In0 S0 2.646747 1_454
In0 S1 2.646747 1_455
In0 S0 2.646747 1_544
In0 S1 2.646748 1_554
In0 S0 2.646748 1_445
