# generated using pymatgen
data_Hg6S4Br3Cl
_symmetry_space_group_name_H-M   'P 1'
_cell_length_a   10.46918746
_cell_length_b   10.46918746
_cell_length_c   10.59423764
_cell_angle_alpha   66.20308709
_cell_angle_beta   66.20308709
_cell_angle_gamma   53.74482706
_symmetry_Int_Tables_number   1
_chemical_formula_structural   Hg6S4Br3Cl
_chemical_formula_sum   'Hg12 S8 Br6 Cl2'
_cell_volume   835.08485822
_cell_formula_units_Z   2
loop_
 _symmetry_equiv_pos_site_id
 _symmetry_equiv_pos_as_xyz
  1  'x, y, z'
loop_
 _atom_site_type_symbol
 _atom_site_label
 _atom_site_symmetry_multiplicity
 _atom_site_fract_x
 _atom_site_fract_y
 _atom_site_fract_z
 _atom_site_occupancy
  Hg  Hg0  1  0.15749100  0.69442400  0.79478700  1
  Hg  Hg1  1  0.30557600  0.84250900  0.20521300  1
  Hg  Hg2  1  0.84250900  0.30557600  0.20521300  1
  Hg  Hg3  1  0.69442400  0.15749100  0.79478700  1
  Hg  Hg4  1  0.42570300  0.42570300  0.22527700  1
  Hg  Hg5  1  0.57429700  0.57429700  0.77472300  1
  Hg  Hg6  1  0.28262300  0.28262300  0.78811500  1
  Hg  Hg7  1  0.71737700  0.71737700  0.21188500  1
  Hg  Hg8  1  0.36767700  0.89412300  0.49542700  1
  Hg  Hg9  1  0.10587700  0.63232300  0.50457300  1
  Hg  Hg10  1  0.63232300  0.10587700  0.50457300  1
  Hg  Hg11  1  0.89412300  0.36767700  0.49542700  1
  S  S0  1  0.17623000  0.69110000  0.24683100  1
  S  S1  1  0.69110000  0.17623000  0.24683100  1
  S  S2  1  0.82377000  0.30890000  0.75316900  1
  S  S3  1  0.95235000  0.44030100  0.23756100  1
  S  S4  1  0.55969900  0.04765000  0.76243900  1
  S  S5  1  0.04765000  0.55969900  0.76243900  1
  S  S6  1  0.44030100  0.95235000  0.23756100  1
  S  S7  1  0.30890000  0.82377000  0.75316900  1
  Br  Br0  1  0.25122900  0.25122900  0.50203700  1
  Br  Br1  1  0.74877100  0.74877100  0.49796300  1
  Br  Br2  1  0.50000000  0.50000000  0.50000000  1
  Br  Br3  1  0.61916400  0.61916400  0.01036600  1
  Br  Br4  1  0.38083600  0.38083600  0.98963400  1
  Br  Br5  1  0.00000000  0.00000000  0.50000000  1
  Cl  Cl0  1  0.12534500  0.12534500  0.01332200  1
  Cl  Cl1  1  0.87465500  0.87465500  0.98667800  1
loop_
_geom_bond_atom_site_label_1
_geom_bond_atom_site_label_2
_geom_bond_distance
_geom_bond_site_symmetry_2
Hg0 S7 2.456365 1_555
Hg0 S5 2.460836 1_555
Hg1 S0 2.456365 1_555
Hg1 S6 2.460836 1_555
Hg2 S1 2.456365 1_555
Hg2 S3 2.460836 1_555
Hg3 S2 2.456365 1_555
Hg3 S4 2.460836 1_555
Hg4 S0 2.457880 1_555
Hg4 S1 2.457880 1_555
Hg5 S7 2.457880 1_555
Hg5 S2 2.457880 1_555
Hg6 S5 2.450133 1_555
Hg6 S4 2.450133 1_555
Hg7 S6 2.450133 1_555
Hg7 S3 2.450133 1_555
Hg8 S7 2.436045 1_555
Hg8 S6 2.437416 1_555
Hg9 S0 2.436045 1_555
Hg9 S5 2.437416 1_555
Hg10 S1 2.436045 1_555
Hg10 S4 2.437416 1_555
Hg11 S2 2.436045 1_555
Hg11 S3 2.437416 1_555
Br0 Hg11 3.196862 1_455
Br0 Hg8 3.196862 1_545
Br0 Hg4 3.251486 1_555
Br0 Hg9 3.332723 1_555
Br0 Hg10 3.332723 1_555
Br0 Hg6 3.337239 1_555
Br1 Hg9 3.196862 1_655
Br1 Hg10 3.196862 1_565
Br1 Hg5 3.251486 1_555
Br1 Hg8 3.332723 1_555
Br1 Hg11 3.332723 1_555
Br1 Hg7 3.337239 1_555
Br3 Hg5 2.971054 1_554
Br3 Hg2 3.139011 1_555
Br3 Hg1 3.139011 1_555
Br4 Hg4 2.971054 1_556
Br4 Hg0 3.139011 1_555
Br4 Hg3 3.139011 1_555
Br5 Hg11 3.300647 1_455
Br5 Hg8 3.300647 1_545
Br5 Hg9 3.300647 1_545
Br5 Hg10 3.300647 1_455
Cl0 Hg6 2.825066 1_554
Cl0 Hg2 2.844373 1_455
Cl0 Hg1 2.844373 1_545
Cl1 Hg7 2.825066 1_556
Cl1 Hg3 2.844373 1_565
Cl1 Hg0 2.844373 1_655
