# generated using pymatgen
data_Na14La8Si7S5O48
_symmetry_space_group_name_H-M   'P 1'
_cell_length_a   19.56707521
_cell_length_b   9.84180060
_cell_length_c   23.53956202
_cell_angle_alpha   90.16186257
_cell_angle_beta   89.55518540
_cell_angle_gamma   120.19874164
_symmetry_Int_Tables_number   1
_chemical_formula_structural   Na14La8Si7S5O48
_chemical_formula_sum   'Na42 La24 Si21 S15 O144'
_cell_volume   3917.80512050
_cell_formula_units_Z   3
loop_
 _symmetry_equiv_pos_site_id
 _symmetry_equiv_pos_as_xyz
  1  'x, y, z'
loop_
 _atom_site_type_symbol
 _atom_site_label
 _atom_site_symmetry_multiplicity
 _atom_site_fract_x
 _atom_site_fract_y
 _atom_site_fract_z
 _atom_site_occupancy
  Na  Na0  1  0.80484205  0.98353335  0.23444619  1
  Na  Na1  1  0.18932744  0.35952430  0.26248817  1
  Na  Na2  1  0.69296337  0.37002918  0.25900841  1
  Na  Na3  1  0.00121690  0.66466914  0.23434469  1
  Na  Na4  1  0.50128325  0.65821613  0.23696415  1
  Na  Na5  1  0.30614948  0.62890249  0.75476699  1
  Na  Na6  1  0.99664782  0.33675007  0.74403161  1
  Na  Na7  1  0.50480186  0.34496393  0.74593084  1
  Na  Na8  1  0.19021734  0.01251561  0.76754218  1
  Na  Na9  1  0.69278987  0.02426994  0.76904748  1
  Na  Na10  1  0.14146317  0.32079106  0.58430188  1
  Na  Na11  1  0.64271123  0.32372004  0.58614172  1
  Na  Na12  1  0.34193683  0.98106853  0.57284736  1
  Na  Na13  1  0.84246636  0.98562281  0.58051425  1
  Na  Na14  1  0.14196555  0.96516398  0.09023225  1
  Na  Na15  1  0.65418253  0.96040629  0.08747399  1
  Na  Na16  1  0.34194555  0.69622376  0.08027617  1
  Na  Na17  1  0.83455723  0.70753751  0.07293245  1
  Na  Na18  1  0.48998196  0.69508975  0.93093589  1
  Na  Na19  1  0.98224151  0.68835142  0.93491978  1
  Na  Na20  1  0.33768791  0.00600542  0.90927076  1
  Na  Na21  1  0.83408300  0.00686264  0.92430021  1
  Na  Na22  1  0.17053571  0.29009313  0.90330402  1
  Na  Na23  1  0.67758749  0.30564889  0.90564432  1
  Na  Na24  1  0.48440647  0.27892299  0.42530572  1
  Na  Na25  1  0.98484161  0.28011996  0.42449736  1
  Na  Na26  1  0.17356183  0.04918916  0.39755093  1
  Na  Na27  1  0.67469738  0.05387358  0.39813643  1
  Na  Na28  1  0.33324951  0.66191016  0.39983292  1
  Na  Na29  1  0.83675521  0.66652704  0.40243252  1
  Na  Na30  1  0.99843398  0.02598294  0.49348991  1
  Na  Na31  1  0.49978777  0.02582638  0.49305019  1
  Na  Na32  1  0.98382456  0.97419235  0.00366513  1
  Na  Na33  1  0.50255803  0.97405435  0.99628869  1
  Na  Na34  1  0.31884755  0.31997961  0.83505413  1
  Na  Na35  1  0.81996603  0.33591488  0.83521133  1
  Na  Na36  1  0.31918736  0.30948902  0.32618380  1
  Na  Na37  1  0.82108238  0.32569160  0.32590660  1
  Na  Na38  1  0.16319252  0.68568625  0.17241378  1
  Na  Na39  1  0.66560649  0.68687523  0.16219531  1
  Na  Na40  1  0.15441693  0.63913506  0.67278656  1
  Na  Na41  1  0.66919799  0.64972966  0.67576429  1
  La  La0  1  0.99697728  0.99728496  0.34496696  1
  La  La1  1  0.49645401  0.99737558  0.34494350  1
  La  La2  1  0.99587748  0.99328264  0.84684189  1
  La  La3  1  0.49886406  -0.00054613  0.84745240  1
  La  La4  1  0.99644785  0.00674418  0.65422680  1
  La  La5  1  0.49776984  0.00684332  0.65246096  1
  La  La6  1  0.99234160  0.99224835  0.14986286  1
  La  La7  1  0.49771413  0.98872862  0.15399355  1
  La  La8  1  0.33714601  0.32789103  0.68301230  1
  La  La9  1  0.83775801  0.33810994  0.68530575  1
  La  La10  1  0.33775279  0.33731443  0.18424882  1
  La  La11  1  0.83766512  0.33527011  0.17809643  1
  La  La12  1  0.33803906  0.34365422  0.98392934  1
  La  La13  1  0.83671556  0.32965301  0.98799553  1
  La  La14  1  0.33599216  0.33060932  0.48304023  1
  La  La15  1  0.83805016  0.33292054  0.48312497  1
  La  La16  1  0.16109819  0.66854407  0.01457766  1
  La  La17  1  0.66750716  0.67803397  0.01629272  1
  La  La18  1  0.16349382  0.65654752  0.51429574  1
  La  La19  1  0.66233651  0.65539818  0.51475151  1
  La  La20  1  0.17942440  0.68509477  0.31550217  1
  La  La21  1  0.67465914  0.67427043  0.31889599  1
  La  La22  1  0.17328344  0.67394498  0.82096294  1
  La  La23  1  0.68145903  0.67837284  0.81748669  1
  Si  Si0  1  0.15255065  0.99864671  0.24869881  1
  Si  Si1  1  0.65577399  0.00016254  0.25142699  1
  Si  Si2  1  0.34327171  0.68017869  0.25138282  1
  Si  Si3  1  0.84468935  0.68328367  0.25403941  1
  Si  Si4  1  0.15457920  0.31092774  0.74930601  1
  Si  Si5  1  0.65427642  0.31168665  0.74851190  1
  Si  Si6  1  0.34277355  0.99758327  0.75117160  1
  Si  Si7  1  0.84375449  0.00393511  0.74844298  1
  Si  Si8  1  0.49029011  0.33056984  0.58319741  1
  Si  Si9  1  0.99051989  0.33287810  0.58370740  1
  Si  Si10  1  0.48961282  0.65205911  0.08322393  1
  Si  Si11  1  0.99187220  0.64905082  0.08437285  1
  Si  Si12  1  0.83151650  0.01634656  0.08233467  1
  Si  Si13  1  0.32226220  0.66759454  0.91924374  1
  Si  Si14  1  0.82114648  0.66290971  0.92427783  1
  Si  Si15  1  0.16762037  0.98125986  0.91411488  1
  Si  Si16  1  0.66690218  0.97863182  0.91408775  1
  Si  Si17  1  0.32117568  0.97140690  0.42633393  1
  Si  Si18  1  0.82192855  0.97338284  0.42190160  1
  Si  Si19  1  0.16691671  0.35697653  0.41568541  1
  Si  Si20  1  0.66565283  0.35244729  0.41636912  1
  S  S0  1  0.00039594  0.31285519  0.25338380  1
  S  S1  1  0.50264283  0.31344733  0.25309163  1
  S  S2  1  0.00456345  0.69377480  0.75162751  1
  S  S3  1  0.50022610  0.69056172  0.75168002  1
  S  S4  1  0.17904261  0.02440119  0.58418484  1
  S  S5  1  0.68156346  0.02825553  0.58359138  1
  S  S6  1  0.33136021  0.64308192  0.58315123  1
  S  S7  1  0.83233117  0.64537485  0.57990765  1
  S  S8  1  0.33250129  0.01861452  0.07954073  1
  S  S9  1  0.18275123  0.33773183  0.08364155  1
  S  S10  1  0.67791419  0.33063534  0.08352927  1
  S  S11  1  0.01175113  0.35623234  0.91226138  1
  S  S12  1  0.51454782  0.36236643  0.91293427  1
  S  S13  1  0.01474378  0.66965090  0.41319648  1
  S  S14  1  0.51261505  0.67010727  0.41348062  1
  O  O0  1  0.11083237  0.01699001  0.30786990  1
  O  O1  1  0.61349215  0.01645940  0.31017575  1
  O  O2  1  0.38750471  0.77276300  0.31048746  1
  O  O3  1  0.88933552  0.76205864  0.31457613  1
  O  O4  1  0.49745201  0.23384420  0.30804539  1
  O  O5  1  0.99533092  0.23074337  0.30781719  1
  O  O6  1  0.11246268  0.20099961  0.80588767  1
  O  O7  1  0.60762749  0.19955512  0.80417367  1
  O  O8  1  0.49414477  0.76522980  0.80499654  1
  O  O9  1  0.00082306  0.76623245  0.80600139  1
  O  O10  1  0.39365109  0.01381956  0.80862635  1
  O  O11  1  0.89564581  0.00635092  0.80348091  1
  O  O12  1  0.38918444  0.98414770  0.69465902  1
  O  O13  1  0.88791170  0.99721773  0.68934042  1
  O  O14  1  0.10276327  0.21851863  0.69217339  1
  O  O15  1  0.60024036  0.21733977  0.69177001  1
  O  O16  1  0.00497973  0.78891416  0.70285279  1
  O  O17  1  0.50749545  0.79076103  0.70248194  1
  O  O18  1  0.39350777  0.78444768  0.19580265  1
  O  O19  1  0.89495500  0.80280673  0.20184125  1
  O  O20  1  0.00876135  0.22511334  0.20544794  1
  O  O21  1  0.50373478  0.21700204  0.20524673  1
  O  O22  1  0.09720586  0.98856276  0.19432068  1
  O  O23  1  0.59948148  0.98800004  0.19719179  1
  O  O24  1  0.44334017  0.32897055  0.64206933  1
  O  O25  1  0.94251724  0.33483481  0.64104251  1
  O  O26  1  0.22605743  0.11075290  0.63508249  1
  O  O27  1  0.72898103  0.11640215  0.63386721  1
  O  O28  1  0.33162580  0.55607611  0.63463212  1
  O  O29  1  0.82993719  0.54641591  0.62807817  1
  O  O30  1  0.44066068  0.55204873  0.14021639  1
  O  O31  1  0.94540745  0.55543575  0.14274054  1
  O  O32  1  0.32921404  0.11337528  0.12751999  1
  O  O33  1  0.82901922  0.11058923  0.14003329  1
  O  O34  1  0.23096352  0.34583530  0.13369558  1
  O  O35  1  0.72436137  0.34053557  0.13493781  1
  O  O36  1  0.22238690  0.32246164  0.03139760  1
  O  O37  1  0.71979967  0.31868628  0.03226146  1
  O  O38  1  0.44008239  0.56124181  0.02496320  1
  O  O39  1  0.94447905  0.55269815  0.02669503  1
  O  O40  1  0.33484301  0.09583197  0.02475712  1
  O  O41  1  0.82938761  0.10529836  0.02358955  1
  O  O42  1  0.22023597  0.12123672  0.53288065  1
  O  O43  1  0.72067640  0.12303805  0.53151030  1
  O  O44  1  0.33259073  0.55910636  0.53111598  1
  O  O45  1  0.83479304  0.57226485  0.52526171  1
  O  O46  1  0.44002361  0.32643679  0.52619710  1
  O  O47  1  0.94190115  0.32537500  0.52532487  1
  O  O48  1  0.27290794  0.67670803  0.97480792  1
  O  O49  1  0.78219287  0.68142628  0.98384361  1
  O  O50  1  0.06295885  0.44736396  0.96031241  1
  O  O51  1  0.56272224  0.44974212  0.96226431  1
  O  O52  1  0.15809815  0.86563655  0.96800672  1
  O  O53  1  0.65611036  0.86450299  0.96862761  1
  O  O54  1  0.28450882  0.88748533  0.48836217  1
  O  O55  1  0.77764251  0.87449910  0.48021958  1
  O  O56  1  0.15824230  0.44320382  0.47391263  1
  O  O57  1  0.65551001  0.44121610  0.47301270  1
  O  O58  1  0.06180653  0.67874804  0.46372980  1
  O  O59  1  0.56189289  0.68119652  0.46269435  1
  O  O60  1  0.05240627  0.65320345  0.36120524  1
  O  O61  1  0.54824328  0.65187590  0.36044433  1
  O  O62  1  0.25676578  0.87216451  0.37699444  1
  O  O63  1  0.76634481  0.88378996  0.36662883  1
  O  O64  1  0.17647429  0.46856736  0.36091873  1
  O  O65  1  0.67534361  0.45990730  0.36007941  1
  O  O66  1  0.04773947  0.43987874  0.85820169  1
  O  O67  1  0.55071488  0.44767233  0.85920296  1
  O  O68  1  0.17804576  0.89944507  0.85585975  1
  O  O69  1  0.67206610  0.89027984  0.85608254  1
  O  O70  1  0.27242930  0.65067958  0.86057485  1
  O  O71  1  0.75921693  0.63380833  0.87281521  1
  O  O72  1  0.00787041  0.81351996  0.41342599  1
  O  O73  1  0.50550783  0.81354795  0.41363633  1
  O  O74  1  0.40800698  0.98210847  0.41798477  1
  O  O75  1  0.91009343  0.98838254  0.41909962  1
  O  O76  1  0.08682246  0.17996442  0.41505454  1
  O  O77  1  0.58534813  0.17521508  0.41616107  1
  O  O78  1  0.00358564  0.19765003  0.91396118  1
  O  O79  1  0.50534113  0.20264247  0.91386262  1
  O  O80  1  0.08944127  0.00287848  0.91483772  1
  O  O81  1  0.58827280  0.00142184  0.91645273  1
  O  O82  1  0.41052826  0.82838219  0.92022556  1
  O  O83  1  0.90770916  0.82882272  0.91828925  1
  O  O84  1  0.49489532  0.16465730  0.57807837  1
  O  O85  1  0.99623346  0.16776467  0.58039833  1
  O  O86  1  0.09893118  0.00534758  0.58616617  1
  O  O87  1  0.60062891  0.00605206  0.58598874  1
  O  O88  1  0.40049183  0.80607725  0.58148921  1
  O  O89  1  0.90199602  0.80766814  0.58192132  1
  O  O90  1  0.49351023  0.82615231  0.08018894  1
  O  O91  1  0.99762907  0.82335445  0.08018195  1
  O  O92  1  0.40255079  -0.00240159  0.08210032  1
  O  O93  1  0.90873001  0.99243419  0.07905490  1
  O  O94  1  0.10265630  0.19850520  0.08606665  1
  O  O95  1  0.59833581  0.18680033  0.08506161  1
  O  O96  1  0.33337772  0.15692717  0.75052794  1
  O  O97  1  0.84238346  0.17209141  0.75198773  1
  O  O98  1  0.24736287  0.34698583  0.74807227  1
  O  O99  1  0.74243462  0.32798858  0.74826881  1
  O  O100  1  0.42548327  0.53399853  0.74860026  1
  O  O101  1  0.93597532  0.53074320  0.75025748  1
  O  O102  1  0.34271563  0.50990215  0.25316396  1
  O  O103  1  0.83754561  0.50859038  0.25010085  1
  O  O104  1  0.43335447  0.33724889  0.25077307  1
  O  O105  1  0.92644297  0.32113435  0.24989819  1
  O  O106  1  0.24185918  0.15790340  0.24813384  1
  O  O107  1  0.74570503  0.15532359  0.24905860  1
  O  O108  1  0.33438422  0.51187637  0.91862335  1
  O  O109  1  0.83520333  0.51038420  0.92168392  1
  O  O110  1  0.43308274  0.34074875  0.91652076  1
  O  O111  1  0.93172737  0.33752364  0.91674812  1
  O  O112  1  0.24963369  0.15756625  0.91633167  1
  O  O113  1  0.74833866  0.15448683  0.91516442  1
  O  O114  1  0.33785828  0.15462425  0.42144673  1
  O  O115  1  0.83678820  0.15546417  0.42039577  1
  O  O116  1  0.24768487  0.33925498  0.41492260  1
  O  O117  1  0.74640366  0.33595040  0.41702392  1
  O  O118  1  0.43092943  0.53139731  0.41827950  1
  O  O119  1  0.93279925  0.53017591  0.41651800  1
  O  O120  1  0.17954076  0.48504549  0.08233038  1
  O  O121  1  0.67054270  0.47255285  0.08189465  1
  O  O122  1  0.08347063  0.67928444  0.08790923  1
  O  O123  1  0.57946606  0.68070849  0.08584122  1
  O  O124  1  0.26000387  0.85864174  0.08411938  1
  O  O125  1  0.75039698  0.84033163  0.08786619  1
  O  O126  1  0.17433661  0.86977797  0.58281696  1
  O  O127  1  0.67751564  0.87393923  0.58208141  1
  O  O128  1  0.25730380  0.65281402  0.58629779  1
  O  O129  1  0.75916893  0.65865482  0.58452747  1
  O  O130  1  0.08151244  0.48682304  0.58642159  1
  O  O131  1  0.58106759  0.48310169  0.58605063  1
  O  O132  1  0.15477861  0.83345287  0.24825021  1
  O  O133  1  0.66081277  0.83717993  0.24839170  1
  O  O134  1  0.25135689  0.64193762  0.24720344  1
  O  O135  1  0.75493624  0.65984178  0.25080162  1
  O  O136  1  0.06885456  0.47545441  0.25276502  1
  O  O137  1  0.57549468  0.47054477  0.24955971  1
  O  O138  1  0.15667645  0.48129553  0.75006378  1
  O  O139  1  0.65567306  0.48013070  0.74931789  1
  O  O140  1  0.07797830  0.68306788  0.74797209  1
  O  O141  1  0.56800571  0.66335338  0.75186855  1
  O  O142  1  0.25352714  0.84035194  0.75012628  1
  O  O143  1  0.75210300  0.85635611  0.74732988  1
loop_
_geom_bond_atom_site_label_1
_geom_bond_atom_site_label_2
_geom_bond_distance
_geom_bond_site_symmetry_2
Na0 O133 2.455505 1_555
Na0 O33 2.476074 1_565
Na0 O107 2.504898 1_565
Na0 O135 2.849926 1_555
Na0 O105 2.981083 1_565
Na1 O134 2.435791 1_555
Na1 O102 2.601858 1_555
Na1 O64 2.613798 1_555
Na1 O106 2.674127 1_555
Na2 O103 2.453253 1_555
Na2 O135 2.482587 1_555
Na2 O65 2.616089 1_555
Na2 O107 2.787880 1_555
Na2 O137 2.933927 1_555
Na2 O35 3.022941 1_555
Na3 O31 2.416695 1_455
Na3 O132 2.624119 1_555
Na3 O103 2.790949 1_455
Na3 O136 2.810744 1_555
Na3 O22 2.922863 1_555
Na3 O105 2.954338 1_455
Na4 O30 2.543035 1_555
Na4 O102 2.707673 1_555
Na4 O133 2.719907 1_555
Na4 O104 2.761550 1_555
Na4 O137 2.883738 1_555
Na4 O23 2.969556 1_555
Na5 O98 2.415753 1_555
Na5 O138 2.531124 1_555
Na5 O70 2.607384 1_555
Na5 O142 2.749828 1_555
Na5 O100 2.921265 1_555
Na5 O28 3.014210 1_555
Na6 O97 2.616210 1_555
Na6 O25 2.649350 1_555
Na6 O101 2.711462 1_555
Na6 O138 2.715400 1_655
Na6 O66 2.873649 1_655
Na7 O139 2.557987 1_555
Na7 O24 2.702118 1_555
Na7 O141 2.733067 1_555
Na7 O67 2.836695 1_555
Na7 O96 2.904890 1_555
Na7 O100 2.962535 1_555
Na7 O15 3.000692 1_555
Na8 O68 2.314284 1_545
Na8 O96 2.451102 1_555
Na8 O142 2.583302 1_545
Na8 O98 2.931540 1_555
Na9 O69 2.359084 1_545
Na9 O143 2.500957 1_545
Na9 O97 2.558673 1_555
Na9 O99 2.682836 1_555
Na10 O130 2.444519 1_555
Na10 O85 2.459638 1_455
Na10 O14 2.692980 1_555
Na10 O86 2.780947 1_555
Na10 O56 2.813902 1_555
Na10 O128 2.892646 1_555
Na11 O131 2.412228 1_555
Na11 O84 2.510794 1_555
Na11 O15 2.660170 1_555
Na11 O87 2.804055 1_555
Na11 O57 2.864827 1_555
Na11 O129 2.915960 1_555
Na12 O54 2.247059 1_555
Na12 O88 2.512147 1_555
Na12 O84 2.608029 1_565
Na12 O128 2.809820 1_555
Na12 O126 2.895771 1_555
Na12 O12 3.014970 1_555
Na13 O89 2.545294 1_555
Na13 O85 2.615366 1_565
Na13 O55 2.648612 1_555
Na13 O13 2.701444 1_555
Na13 O129 2.782738 1_555
Na13 O127 2.838373 1_555
Na14 O122 2.447376 1_555
Na14 O91 2.454252 1_455
Na14 O22 2.643849 1_555
Na14 O94 2.766689 1_565
Na15 O123 2.380771 1_555
Na15 O125 2.679445 1_555
Na15 O90 2.736313 1_555
Na15 O23 2.852244 1_555
Na15 O95 2.934787 1_565
Na15 O53 2.956024 1_554
Na16 O90 2.572014 1_555
Na16 O92 2.582109 1_565
Na16 O124 2.776573 1_555
Na16 O120 2.788228 1_555
Na16 O48 2.795312 1_554
Na16 O18 2.883605 1_555
Na17 O49 2.297649 1_554
Na17 O93 2.428194 1_555
Na17 O125 2.587867 1_555
Na17 O91 2.803263 1_555
Na17 O121 2.866730 1_555
Na18 O82 2.502235 1_555
Na18 O38 2.505313 1_556
Na18 O81 2.658384 1_565
Na18 O108 2.663238 1_555
Na19 O39 2.448388 1_556
Na19 O83 2.496322 1_555
Na19 O109 2.526642 1_555
Na19 O80 2.768814 1_665
Na20 O10 2.587238 1_555
Na20 O82 2.769231 1_545
Na20 O112 2.792991 1_555
Na20 O79 2.852388 1_555
Na20 O110 2.860470 1_555
Na20 O40 2.865042 1_556
Na21 O41 2.546180 1_556
Na21 O113 2.726102 1_555
Na21 O83 2.775022 1_545
Na21 O111 2.831163 1_555
Na21 O78 2.882750 1_655
Na22 O80 2.463174 1_555
Na22 O112 2.496220 1_555
Na22 O6 2.518988 1_555
Na22 O108 2.854230 1_555
Na22 O78 2.925886 1_555
Na23 O113 2.501734 1_555
Na23 O81 2.610971 1_555
Na23 O7 2.695962 1_555
Na23 O109 2.734294 1_555
Na23 O71 2.895618 1_555
Na24 O114 2.490361 1_555
Na24 O74 2.530975 1_545
Na24 O46 2.642620 1_555
Na24 O77 2.647543 1_555
Na24 O4 2.824372 1_555
Na25 O75 2.485041 1_545
Na25 O115 2.516968 1_555
Na25 O47 2.622417 1_555
Na25 O76 2.640749 1_655
Na25 O5 2.811785 1_555
Na26 O0 2.389289 1_555
Na26 O116 2.501558 1_555
Na26 O76 2.624999 1_555
Na26 O114 2.897751 1_555
Na26 O72 2.907181 1_545
Na26 O62 2.959160 1_545
Na27 O1 2.334012 1_555
Na27 O117 2.440791 1_555
Na27 O77 2.597837 1_555
Na27 O115 2.857662 1_555
Na27 O73 2.965818 1_545
Na28 O2 2.356624 1_555
Na28 O74 2.760054 1_555
Na28 O116 2.767990 1_555
Na28 O118 2.824423 1_555
Na28 O64 2.834043 1_555
Na28 O73 2.940668 1_555
Na29 O3 2.285687 1_555
Na29 O75 2.770551 1_555
Na29 O117 2.835325 1_555
Na29 O65 2.946296 1_555
Na30 O75 2.364554 1_545
Na30 O76 2.454842 1_655
Na30 O85 2.485387 1_555
Na30 O72 2.884297 1_645
Na30 O89 2.897592 1_545
Na30 O86 3.022943 1_655
Na31 O77 2.394183 1_555
Na31 O74 2.408375 1_545
Na31 O84 2.448537 1_555
Na31 O73 2.842842 1_545
Na31 O88 2.919197 1_545
Na31 O87 3.028725 1_555
Na32 O93 2.358763 1_555
Na32 O91 2.438653 1_555
Na32 O83 2.488099 1_554
Na32 O80 2.841123 1_664
Na32 O78 2.933090 1_664
Na32 O94 2.987382 1_665
Na33 O90 2.408790 1_556
Na33 O81 2.432438 1_565
Na33 O82 2.437698 1_555
Na33 O95 2.889901 1_566
Na33 O92 2.890564 1_566
Na33 O79 2.954426 1_565
Na34 O112 2.418454 1_555
Na34 O98 2.577014 1_555
Na34 O108 2.634345 1_555
Na34 O96 2.654636 1_555
Na34 O110 2.884502 1_555
Na34 O100 2.910127 1_555
Na35 O113 2.480969 1_555
Na35 O99 2.534629 1_555
Na35 O109 2.579791 1_555
Na35 O97 2.703725 1_555
Na35 O101 2.898446 1_555
Na35 O111 2.914887 1_555
Na36 O106 2.376436 1_555
Na36 O102 2.479966 1_555
Na36 O116 2.601954 1_555
Na36 O104 2.746510 1_555
Na36 O114 2.842053 1_555
Na37 O107 2.407399 1_555
Na37 O103 2.440092 1_555
Na37 O117 2.616179 1_555
Na37 O105 2.736558 1_555
Na37 O115 2.897940 1_555
Na37 O119 3.000096 1_555
Na38 O132 2.355946 1_555
Na38 O122 2.518501 1_555
Na38 O134 2.656974 1_555
Na38 O136 2.718750 1_555
Na38 O124 2.742389 1_555
Na38 O120 3.016542 1_555
Na39 O125 2.354580 1_555
Na39 O123 2.453283 1_555
Na39 O133 2.536464 1_555
Na39 O135 2.829128 1_555
Na39 O137 2.839556 1_555
Na39 O121 2.865513 1_555
Na40 O138 2.410480 1_555
Na40 O140 2.482233 1_555
Na40 O130 2.508325 1_555
Na40 O142 2.677297 1_555
Na40 O128 2.807357 1_555
Na40 O126 2.985649 1_555
Na41 O139 2.327826 1_555
Na41 O143 2.511840 1_555
Na41 O131 2.704607 1_555
Na41 O141 2.712656 1_555
Na41 O129 2.739756 1_555
La0 O0 2.302048 1_665
La0 O3 2.327272 1_555
La0 O75 2.397508 1_555
La0 O76 2.427663 1_665
La0 O5 2.476130 1_565
La0 O72 2.514540 1_655
La1 O2 2.316262 1_555
La1 O1 2.342792 1_565
La1 O74 2.380668 1_555
La1 O77 2.421851 1_565
La1 O4 2.477185 1_565
La1 O73 2.502532 1_555
La2 O11 2.278248 1_565
La2 O83 2.363449 1_555
La2 O6 2.366021 1_665
La2 O80 2.406915 1_665
La2 O9 2.476067 1_655
La2 O78 2.499016 1_665
La3 O7 2.281835 1_555
La3 O10 2.327303 1_555
La3 O81 2.389354 1_555
La3 O82 2.408225 1_545
La3 O8 2.468900 1_545
La3 O79 2.487827 1_555
La4 O13 2.230496 1_545
La4 O14 2.264073 1_655
La4 O85 2.356696 1_555
La4 O16 2.512168 1_645
La4 O89 2.557061 1_545
La4 O86 2.562404 1_655
La5 O15 2.237741 1_555
La5 O12 2.245435 1_545
La5 O84 2.363485 1_555
La5 O17 2.523887 1_545
La5 O87 2.542832 1_555
La5 O88 2.562317 1_545
La6 O19 2.237624 1_555
La6 O22 2.327055 1_655
La6 O93 2.345243 1_555
La6 O91 2.370463 1_555
La6 O20 2.513264 1_665
La6 O94 2.567885 1_665
La7 O18 2.241481 1_555
La7 O23 2.246141 1_555
La7 O90 2.332235 1_555
La7 O21 2.497481 1_565
La7 O95 2.533104 1_565
La7 O92 2.559727 1_565
La8 O24 2.278913 1_555
La8 O96 2.291478 1_555
La8 O98 2.399127 1_555
La8 O26 2.432299 1_555
La8 O100 2.445926 1_555
La8 O28 2.571465 1_555
La9 O97 2.303736 1_555
La9 O25 2.306859 1_555
La9 O99 2.335932 1_555
La9 O101 2.447285 1_555
La9 O27 2.471942 1_555
La9 O29 2.524971 1_555
La10 O30 2.300918 1_555
La10 O102 2.312393 1_555
La10 O106 2.353332 1_555
La10 O104 2.449127 1_555
La10 O34 2.450475 1_555
La10 O32 2.506987 1_555
La11 O31 2.284674 1_555
La11 O33 2.309963 1_555
La11 O103 2.402120 1_555
La11 O107 2.434900 1_555
La11 O35 2.469990 1_555
La11 O105 2.486705 1_555
La12 O38 2.285251 1_556
La12 O108 2.290102 1_555
La12 O112 2.391161 1_555
La12 O36 2.429059 1_556
La12 O110 2.446356 1_555
La12 O40 2.595233 1_556
La13 O41 2.299601 1_556
La13 O39 2.335993 1_556
La13 O109 2.381308 1_555
La13 O113 2.435543 1_555
La13 O37 2.458906 1_556
La13 O111 2.466270 1_555
La14 O114 2.269795 1_555
La14 O46 2.300825 1_555
La14 O116 2.399106 1_555
La14 O118 2.441288 1_555
La14 O42 2.455586 1_555
La14 O44 2.545065 1_555
La15 O115 2.274610 1_555
La15 O47 2.303287 1_555
La15 O117 2.394814 1_555
La15 O119 2.452670 1_555
La15 O43 2.457411 1_555
La15 O45 2.583309 1_555
La16 O52 2.257300 1_554
La16 O122 2.327636 1_555
La16 O48 2.336892 1_554
La16 O50 2.423822 1_554
La16 O124 2.512918 1_555
La16 O120 2.572187 1_555
La17 O53 2.259160 1_554
La17 O125 2.332711 1_555
La17 O49 2.349158 1_554
La17 O123 2.377021 1_555
La17 O51 2.501895 1_554
La17 O121 2.572514 1_555
La18 O56 2.257448 1_555
La18 O130 2.350350 1_555
La18 O54 2.390959 1_555
La18 O58 2.428815 1_555
La18 O128 2.521887 1_555
La18 O126 2.566892 1_555
La19 O57 2.265757 1_555
La19 O131 2.341571 1_555
La19 O55 2.342670 1_555
La19 O59 2.443357 1_555
La19 O129 2.505143 1_555
La19 O127 2.563527 1_555
La20 O62 2.234086 1_555
La20 O134 2.304058 1_555
La20 O64 2.361289 1_555
La20 O132 2.367257 1_555
La20 O60 2.570727 1_555
La20 O136 2.580792 1_555
La21 O63 2.242700 1_555
La21 O135 2.289297 1_555
La21 O65 2.330470 1_555
La21 O133 2.420221 1_555
La21 O61 2.557139 1_555
La21 O137 2.562398 1_555
La22 O70 2.271922 1_555
La22 O142 2.305608 1_555
La22 O68 2.322009 1_555
La22 O138 2.420031 1_555
La22 O66 2.528780 1_555
La22 O140 2.580093 1_555
La23 O71 2.215604 1_555
La23 O143 2.291608 1_555
La23 O69 2.362418 1_555
La23 O139 2.375018 1_555
La23 O67 2.606613 1_555
La23 O141 2.656636 1_555
O0 Si0 1.663787 1_545
O1 Si1 1.654432 1_555
O2 Si2 1.653253 1_555
O3 Si3 1.651248 1_555
O4 S1 1.490334 1_555
O5 S0 1.492658 1_655
O6 Si4 1.648565 1_555
O7 Si5 1.656516 1_555
O8 S3 1.486531 1_555
O9 S2 1.482572 1_555
O10 Si6 1.644810 1_545
O11 Si7 1.644989 1_555
O12 Si6 1.647081 1_555
O13 Si7 1.650687 1_565
O14 Si4 1.658440 1_555
O15 Si5 1.670756 1_555
O16 S2 1.480971 1_555
O17 S3 1.482124 1_555
O18 Si2 1.644350 1_555
O19 Si3 1.639009 1_555
O20 S0 1.476339 1_555
O21 S1 1.477786 1_555
O22 Si0 1.653415 1_555
O23 Si1 1.657049 1_565
O24 Si8 1.652426 1_555
O25 Si9 1.643930 1_555
O26 S4 1.492938 1_555
O27 S5 1.488477 1_555
O28 S6 1.487365 1_555
O29 S7 1.481897 1_555
O30 Si10 1.650810 1_555
O31 Si11 1.645685 1_555
O32 S8 1.484166 1_555
O33 Si12 1.656753 1_555
O34 S9 1.491853 1_555
O35 S10 1.492390 1_555
O36 S9 1.495954 1_555
O37 S10 1.490891 1_555
O38 Si10 1.661705 1_555
O39 Si11 1.652332 1_555
O40 S8 1.487363 1_555
O41 Si12 1.650695 1_555
O42 S4 1.495010 1_555
O43 S5 1.494181 1_555
O44 S6 1.482506 1_555
O45 S7 1.484386 1_555
O46 Si8 1.658108 1_555
O47 Si9 1.657778 1_555
O48 Si13 1.648718 1_555
O49 Si14 1.643746 1_555
O50 S11 1.481750 1_555
O51 S12 1.473883 1_555
O52 Si15 1.652313 1_555
O53 Si16 1.649190 1_555
O54 Si17 1.650237 1_555
O55 Si18 1.650222 1_555
O56 Si19 1.662038 1_555
O57 Si20 1.656576 1_555
O58 S13 1.484751 1_555
O59 S14 1.481369 1_555
O60 S13 1.473766 1_555
O61 S14 1.479151 1_555
O62 Si17 1.633784 1_555
O63 Si18 1.644375 1_555
O64 Si19 1.643401 1_555
O65 Si20 1.646955 1_555
O66 S11 1.483835 1_555
O67 S12 1.483180 1_555
O68 Si15 1.650786 1_555
O69 Si16 1.646273 1_555
O70 Si13 1.655924 1_555
O71 Si14 1.640010 1_555
O72 S13 1.488118 1_555
O73 S14 1.486525 1_555
O74 Si17 1.658719 1_555
O75 Si18 1.656593 1_555
O76 Si19 1.656776 1_555
O77 Si20 1.659639 1_555
O78 S11 1.487419 1_555
O79 S12 1.489722 1_555
O80 Si15 1.647015 1_545
O81 Si16 1.663218 1_545
O82 Si13 1.654847 1_555
O83 Si14 1.664426 1_555
O84 Si8 1.683946 1_555
O85 Si9 1.685571 1_555
O86 S4 1.482478 1_555
O87 S5 1.486416 1_555
O88 S6 1.490381 1_555
O89 S7 1.490587 1_555
O90 Si10 1.678030 1_555
O91 Si11 1.664817 1_555
O92 S8 1.487175 1_555
O93 Si12 1.643099 1_565
O94 S9 1.475025 1_555
O95 S10 1.487200 1_555
O96 Si6 1.668414 1_545
O97 Si7 1.670457 1_555
O98 Si4 1.665512 1_555
O99 Si5 1.650098 1_555
O100 S3 1.500799 1_555
O101 S2 1.486863 1_655
O102 Si2 1.671024 1_555
O103 Si3 1.655792 1_555
O104 S1 1.488853 1_555
O105 S0 1.492583 1_655
O106 Si0 1.659800 1_545
O107 Si1 1.651426 1_555
O108 Si13 1.664537 1_555
O109 Si14 1.657512 1_555
O110 S12 1.500057 1_555
O111 S11 1.484717 1_655
O112 Si15 1.669833 1_545
O113 Si16 1.661680 1_545
O114 Si17 1.667250 1_545
O115 Si18 1.665268 1_545
O116 Si19 1.674883 1_555
O117 Si20 1.667828 1_555
O118 S14 1.494693 1_555
O119 S13 1.498594 1_655
O120 S9 1.482841 1_555
O121 S10 1.475189 1_555
O122 Si11 1.665389 1_455
O123 Si10 1.636251 1_555
O124 S8 1.501500 1_565
O125 Si12 1.664088 1_565
O126 S4 1.477871 1_565
O127 S5 1.480832 1_565
O128 S6 1.500792 1_555
O129 S7 1.504671 1_555
O130 Si9 1.660449 1_455
O131 Si8 1.652856 1_555
O132 Si0 1.648166 1_555
O133 Si1 1.657142 1_565
O134 Si2 1.645458 1_555
O135 Si3 1.654590 1_555
O136 S0 1.482826 1_555
O137 S1 1.486981 1_555
O138 Si4 1.656512 1_555
O139 Si5 1.644274 1_555
O140 S2 1.494119 1_555
O141 S3 1.479200 1_555
O142 Si6 1.651260 1_555
O143 Si7 1.645153 1_565
