# generated using pymatgen
data_MnSO3
_symmetry_space_group_name_H-M   'P 1'
_cell_length_a   12.44106800
_cell_length_b   5.49630600
_cell_length_c   8.42641884
_cell_angle_alpha   79.68425209
_cell_angle_beta   90.00000000
_cell_angle_gamma   90.00000000
_symmetry_Int_Tables_number   1
_chemical_formula_structural   MnSO3
_chemical_formula_sum   'Mn8 S8 O24'
_cell_volume   566.88407432
_cell_formula_units_Z   8
loop_
 _symmetry_equiv_pos_site_id
 _symmetry_equiv_pos_as_xyz
  1  'x, y, z'
loop_
 _atom_site_type_symbol
 _atom_site_label
 _atom_site_symmetry_multiplicity
 _atom_site_fract_x
 _atom_site_fract_y
 _atom_site_fract_z
 _atom_site_occupancy
  Mn  Mn0  1  0.92043400  0.66725400  0.61672900  1
  Mn  Mn1  1  0.42043400  0.33274600  0.88327100  1
  Mn  Mn2  1  0.07956600  0.33274600  0.38327100  1
  Mn  Mn3  1  0.57956600  0.66725400  0.11672900  1
  Mn  Mn4  1  0.24596000  0.88429100  0.15822300  1
  Mn  Mn5  1  0.74596000  0.11570900  0.34177700  1
  Mn  Mn6  1  0.75404000  0.11570900  0.84177700  1
  Mn  Mn7  1  0.25404000  0.88429100  0.65822300  1
  S  S0  1  0.67577300  0.52098000  0.50926900  1
  S  S1  1  0.17577300  0.47902000  0.99073100  1
  S  S2  1  0.32422700  0.47902000  0.49073100  1
  S  S3  1  0.82422700  0.52098000  0.00926900  1
  S  S4  1  0.51857600  0.91352400  0.74538300  1
  S  S5  1  0.01857600  0.08647600  0.75461700  1
  S  S6  1  0.48142400  0.08647600  0.25461700  1
  S  S7  1  0.98142400  0.91352400  0.24538300  1
  O  O0  1  0.26078400  0.26634500  0.00401500  1
  O  O1  1  0.76078400  0.73365500  0.49598500  1
  O  O2  1  0.73921600  0.73365500  0.99598500  1
  O  O3  1  0.23921600  0.26634500  0.50401500  1
  O  O4  1  0.98459300  0.67050500  0.37158500  1
  O  O5  1  0.48459300  0.32949500  0.12841500  1
  O  O6  1  0.01540700  0.32949500  0.62841500  1
  O  O7  1  0.51540700  0.67050500  0.87158500  1
  O  O8  1  0.92118500  0.09531100  0.33730100  1
  O  O9  1  0.42118500  0.90468900  0.16269900  1
  O  O10  1  0.07881500  0.90468900  0.66269900  1
  O  O11  1  0.57881500  0.09531100  0.83730100  1
  O  O12  1  0.75970600  0.28136200  0.07620100  1
  O  O13  1  0.25970600  0.71863800  0.42379900  1
  O  O14  1  0.24029400  0.71863800  0.92379900  1
  O  O15  1  0.74029400  0.28136200  0.57620100  1
  O  O16  1  0.90355100  0.97418800  0.75613400  1
  O  O17  1  0.40355100  0.02581200  0.74386600  1
  O  O18  1  0.09644900  0.02581200  0.24386600  1
  O  O19  1  0.59644900  0.97418800  0.25613400  1
  O  O20  1  0.84041700  0.47396700  0.83397900  1
  O  O21  1  0.34041700  0.52603300  0.66602100  1
  O  O22  1  0.15958300  0.52603300  0.16602100  1
  O  O23  1  0.65958300  0.47396700  0.33397900  1
loop_
_geom_bond_atom_site_label_1
_geom_bond_atom_site_label_2
_geom_bond_distance
_geom_bond_site_symmetry_2
Mn0 O20 2.185029 1_555
Mn0 O6 2.187840 1_655
Mn0 O4 2.211627 1_555
Mn0 O16 2.231528 1_555
Mn0 O1 2.231691 1_555
Mn0 O10 2.432437 1_655
Mn1 O21 2.185029 1_555
Mn1 O7 2.187840 1_555
Mn1 O5 2.211627 1_556
Mn1 O17 2.231528 1_555
Mn1 O0 2.231691 1_556
Mn1 O11 2.432437 1_555
Mn2 O22 2.185029 1_555
Mn2 O4 2.187840 1_455
Mn2 O6 2.211627 1_555
Mn2 O18 2.231528 1_555
Mn2 O3 2.231691 1_555
Mn2 O8 2.432437 1_455
Mn3 O23 2.185029 1_555
Mn3 O5 2.187840 1_555
Mn3 O7 2.211627 1_554
Mn3 O19 2.231528 1_555
Mn3 O2 2.231691 1_554
Mn3 O9 2.432437 1_555
Mn4 O9 2.183540 1_555
Mn4 O18 2.187867 1_565
Mn4 O22 2.233860 1_555
Mn4 O13 2.266381 1_555
Mn4 O0 2.270414 1_565
Mn4 O14 2.319504 1_554
Mn5 O8 2.183540 1_555
Mn5 O19 2.187867 1_545
Mn5 O23 2.233860 1_555
Mn5 O12 2.266381 1_555
Mn5 O1 2.270414 1_545
Mn5 O15 2.319504 1_555
Mn6 O11 2.183540 1_555
Mn6 O16 2.187867 1_545
Mn6 O20 2.233860 1_555
Mn6 O15 2.266381 1_555
Mn6 O2 2.270414 1_545
Mn6 O12 2.319504 1_556
Mn7 O10 2.183540 1_555
Mn7 O17 2.187867 1_565
Mn7 O21 2.233860 1_555
Mn7 O14 2.266381 1_555
Mn7 O3 2.270414 1_565
Mn7 O13 2.319504 1_555
O0 S1 1.565450 1_554
O1 S0 1.565450 1_555
O2 S3 1.565450 1_556
O3 S2 1.565450 1_555
O4 S7 1.551719 1_555
O5 S6 1.551719 1_555
O6 S5 1.551719 1_555
O7 S4 1.551719 1_555
O8 S7 1.561104 1_545
O9 S6 1.561104 1_565
O10 S5 1.561104 1_565
O11 S4 1.561104 1_545
O12 S3 1.559145 1_555
O13 S2 1.559145 1_555
O14 S1 1.559145 1_555
O15 S0 1.559145 1_555
O16 S5 1.557592 1_665
O17 S4 1.557592 1_545
O18 S7 1.557592 1_445
O19 S6 1.557592 1_565
O20 S3 1.557485 1_556
O21 S2 1.557485 1_555
O22 S1 1.557485 1_554
O23 S0 1.557485 1_555
