# generated using pymatgen
data_Na4Mg(Fe2O5)2
_symmetry_space_group_name_H-M   'P 1'
_cell_length_a   5.73585398
_cell_length_b   7.91578440
_cell_length_c   5.90999909
_cell_angle_alpha   68.88643617
_cell_angle_beta   89.97347025
_cell_angle_gamma   68.74679156
_symmetry_Int_Tables_number   1
_chemical_formula_structural   Na4Mg(Fe2O5)2
_chemical_formula_sum   'Na4 Mg1 Fe4 O10'
_cell_volume   230.67011239
_cell_formula_units_Z   1
loop_
 _symmetry_equiv_pos_site_id
 _symmetry_equiv_pos_as_xyz
  1  'x, y, z'
loop_
 _atom_site_type_symbol
 _atom_site_label
 _atom_site_symmetry_multiplicity
 _atom_site_fract_x
 _atom_site_fract_y
 _atom_site_fract_z
 _atom_site_occupancy
  Na  Na0  1  0.56972032  0.58328597  0.38271365  1
  Na  Na1  1  0.90994651  0.19280339  0.43887032  1
  Na  Na2  1  0.15116015  0.41924509  0.61549789  1
  Na  Na3  1  0.10346804  0.80753025  0.56149296  1
  Mg  Mg0  1  0.54875834  0.00074909  0.99958098  1
  Fe  Fe0  1  0.03934337  -0.00014203  -0.00004687  1
  Fe  Fe1  1  0.18898493  0.50104678  0.11969823  1
  Fe  Fe2  1  0.53503359  -0.00040556  0.50031039  1
  Fe  Fe3  1  0.69054325  0.49860780  0.88041929  1
  O  O0  1  0.77953108  0.02506169  0.22703490  1
  O  O1  1  0.30044540  0.00479706  0.23900547  1
  O  O2  1  0.86273655  0.48980521  0.15847180  1
  O  O3  1  0.17395454  0.71218667  0.19889594  1
  O  O4  1  0.42240900  0.29058954  0.38666499  1
  O  O5  1  0.88713122  0.28726125  0.80145923  1
  O  O6  1  0.71455317  0.70881908  0.61353307  1
  O  O7  1  0.35272980  0.50997517  0.84174122  1
  O  O8  1  0.30563605  0.99393591  0.76181673  1
  O  O9  1  0.80441670  0.97484864  0.77283982  1
loop_
_geom_bond_atom_site_label_1
_geom_bond_atom_site_label_2
_geom_bond_distance
_geom_bond_site_symmetry_2
Na0 O3 2.213349 1_555
Na0 O2 2.220687 1_555
Na0 O6 2.261535 1_555
Na0 O4 2.731834 1_555
Na0 O5 2.768307 1_555
Na0 O1 2.909160 1_565
Na1 O2 2.253614 1_555
Na1 O9 2.354024 1_545
Na1 O0 2.410101 1_555
Na1 O5 2.500269 1_555
Na1 O8 2.553679 1_645
Na1 O4 2.602672 1_555
Na1 O1 2.733915 1_655
Na2 O5 2.216123 1_455
Na2 O7 2.221631 1_555
Na2 O4 2.264594 1_555
Na2 O6 2.710184 1_455
Na2 O3 2.750009 1_555
Na3 O7 2.255089 1_555
Na3 O0 2.357182 1_465
Na3 O9 2.408202 1_455
Na3 O3 2.503686 1_555
Na3 O1 2.545643 1_565
Na3 O6 2.602180 1_455
Na3 O8 2.724678 1_555
Mg0 O9 1.991550 1_545
Mg0 O0 1.992208 1_556
Mg0 O1 2.007374 1_556
Mg0 O8 2.008249 1_545
Fe0 O5 1.988058 1_454
Fe0 O3 1.990288 1_545
Fe0 O0 2.009288 1_455
Fe0 O9 2.010740 1_444
Fe0 O8 2.075948 1_544
Fe0 O1 2.079584 1_555
Fe1 O3 1.865199 1_555
Fe1 O4 1.883765 1_555
Fe1 O7 1.883805 1_554
Fe1 O2 1.915170 1_455
Fe2 O6 1.994670 1_545
Fe2 O4 1.995331 1_555
Fe2 O8 2.028019 1_545
Fe2 O1 2.028070 1_555
Fe2 O9 2.139066 1_545
Fe2 O0 2.141048 1_555
Fe3 O5 1.866121 1_555
Fe3 O2 1.884112 1_556
Fe3 O6 1.884347 1_555
Fe3 O7 1.916773 1_555
