# generated using pymatgen
data_MgZn2(CuO2)4
_symmetry_space_group_name_H-M   'P 1'
_cell_length_a   6.39444643
_cell_length_b   6.29609557
_cell_length_c   6.00134744
_cell_angle_alpha   61.56470302
_cell_angle_beta   57.74569360
_cell_angle_gamma   56.32785002
_symmetry_Int_Tables_number   1
_chemical_formula_structural   MgZn2(CuO2)4
_chemical_formula_sum   'Mg1 Zn2 Cu4 O8'
_cell_volume   164.37563825
_cell_formula_units_Z   1
loop_
 _symmetry_equiv_pos_site_id
 _symmetry_equiv_pos_as_xyz
  1  'x, y, z'
loop_
 _atom_site_type_symbol
 _atom_site_label
 _atom_site_symmetry_multiplicity
 _atom_site_fract_x
 _atom_site_fract_y
 _atom_site_fract_z
 _atom_site_occupancy
  Mg  Mg0  1  0.17470104  0.07717846  0.23536687  1
  Zn  Zn0  1  0.90729943  0.03113590  0.98205675  1
  Zn  Zn1  1  0.12953981  0.58350412  0.64804215  1
  Cu  Cu0  1  0.20718441  0.52385939  0.15419035  1
  Cu  Cu1  1  0.61960660  0.10180493  0.62719413  1
  Cu  Cu2  1  0.64322560  0.58968036  0.13623827  1
  Cu  Cu3  1  0.63128076  0.60118959  0.62894439  1
  O  O0  1  0.45642719  0.36156330  0.36183639  1
  O  O1  1  0.34229363  0.29837032  0.89233834  1
  O  O2  1  0.42815908  0.76740892  0.41131882  1
  O  O3  1  0.93811180  0.39011114  0.38968113  1
  O  O4  1  0.33471884  0.79406988  0.88740164  1
  O  O5  1  0.83601195  0.41600529  0.85503443  1
  O  O6  1  0.91984362  0.91710603  0.35694962  1
  O  O7  1  0.80659724  0.84909138  0.88131973  1
loop_
_geom_bond_atom_site_label_1
_geom_bond_atom_site_label_2
_geom_bond_distance
_geom_bond_site_symmetry_2
Mg0 O1 1.973776 1_554
Mg0 O2 1.976324 1_545
Mg0 O3 1.991301 1_455
Mg0 O6 2.013877 1_445
Cu0 O3 1.882725 1_455
Cu0 O4 1.916674 1_554
Cu0 O0 2.058752 1_555
Cu0 O1 2.132349 1_554
Cu0 O6 2.534773 1_455
Cu1 O1 1.907425 1_555
Cu1 O6 1.914553 1_545
Cu1 O0 1.923680 1_555
Cu1 O7 1.952710 1_545
Cu2 O2 1.870379 1_555
Cu2 O5 1.898808 1_554
Cu2 O0 1.909710 1_555
Cu2 O7 1.976357 1_554
Cu2 O3 2.462065 1_555
Cu2 O4 2.505401 1_554
Cu3 O2 1.868065 1_555
Cu3 O4 1.891411 1_555
Cu3 O3 1.896419 1_555
Cu3 O5 1.900285 1_555
O0 Zn1 2.118203 1_555
O1 Zn1 2.034026 1_555
O2 Zn1 2.234920 1_555
O4 Zn0 2.155725 1_465
O5 Zn0 2.011858 1_555
O5 Zn1 2.153348 1_655
O6 Zn0 2.043097 1_564
O6 Zn1 2.268103 1_655
O7 Zn0 1.996917 1_565
O7 Zn1 2.082083 1_655
