# generated using pymatgen
data_Yb2Ti2O7
_symmetry_space_group_name_H-M   'P 1'
_cell_length_a   7.20879524
_cell_length_b   7.20879524
_cell_length_c   7.20879524
_cell_angle_alpha   60.00000000
_cell_angle_beta   60.00000000
_cell_angle_gamma   60.00000000
_symmetry_Int_Tables_number   1
_chemical_formula_structural   Yb2Ti2O7
_chemical_formula_sum   'Yb4 Ti4 O14'
_cell_volume   264.89458001
_cell_formula_units_Z   2
loop_
 _symmetry_equiv_pos_site_id
 _symmetry_equiv_pos_as_xyz
  1  'x, y, z'
loop_
 _atom_site_type_symbol
 _atom_site_label
 _atom_site_symmetry_multiplicity
 _atom_site_fract_x
 _atom_site_fract_y
 _atom_site_fract_z
 _atom_site_occupancy
  Yb  Yb0  1  0.62500000  0.12500000  0.12500000  1
  Yb  Yb1  1  0.12500000  0.62500000  0.12500000  1
  Yb  Yb2  1  0.12500000  0.12500000  0.62500000  1
  Yb  Yb3  1  0.12500000  0.12500000  0.12500000  1
  Ti  Ti0  1  0.12500000  0.62500000  0.62500000  1
  Ti  Ti1  1  0.62500000  0.12500000  0.62500000  1
  Ti  Ti2  1  0.62500000  0.62500000  0.12500000  1
  Ti  Ti3  1  0.62500000  0.62500000  0.62500000  1
  O  O0  1  0.25000000  0.25000000  0.25000000  1
  O  O1  1  0.00000000  0.00000000  0.00000000  1
  O  O2  1  0.69978200  0.69978200  0.30021800  1
  O  O3  1  0.30021800  0.30021800  0.69978200  1
  O  O4  1  0.69978200  0.30021800  0.69978200  1
  O  O5  1  0.30021800  0.69978200  0.30021800  1
  O  O6  1  0.30021800  0.69978200  0.69978200  1
  O  O7  1  0.69978200  0.30021800  0.30021800  1
  O  O8  1  0.55021800  0.55021800  0.94978200  1
  O  O9  1  0.94978200  0.94978200  0.55021800  1
  O  O10  1  0.55021800  0.94978200  0.55021800  1
  O  O11  1  0.94978200  0.55021800  0.94978200  1
  O  O12  1  0.94978200  0.55021800  0.55021800  1
  O  O13  1  0.55021800  0.94978200  0.94978200  1
loop_
_geom_bond_atom_site_label_1
_geom_bond_atom_site_label_2
_geom_bond_distance
_geom_bond_site_symmetry_2
O0 Yb3 2.207234 1_555
O0 Yb2 2.207234 1_555
O0 Yb0 2.207234 1_555
O0 Yb1 2.207234 1_555
O1 Yb2 2.207234 1_554
O1 Yb3 2.207234 1_555
O1 Yb1 2.207234 1_545
O1 Yb0 2.207234 1_455
O2 Ti3 1.956822 1_555
O2 Ti2 1.956822 1_555
O2 Yb0 2.537483 1_565
O2 Yb1 2.537483 1_655
O3 Ti0 1.956822 1_555
O3 Ti1 1.956822 1_555
O3 Yb3 2.537483 1_556
O3 Yb2 2.537483 1_555
O4 Ti3 1.956822 1_555
O4 Ti1 1.956822 1_555
O4 Yb0 2.537483 1_556
O4 Yb2 2.537483 1_655
O5 Ti0 1.956822 1_555
O5 Ti2 1.956822 1_555
O5 Yb1 2.537483 1_555
O5 Yb3 2.537483 1_565
O6 Ti3 1.956822 1_555
O6 Ti0 1.956822 1_555
O6 Yb2 2.537483 1_565
O6 Yb1 2.537483 1_556
O7 Ti2 1.956822 1_555
O7 Ti1 1.956822 1_555
O7 Yb3 2.537483 1_655
O7 Yb0 2.537483 1_555
O8 Ti3 1.956822 1_555
O8 Ti2 1.956822 1_556
O8 Yb0 2.537483 1_556
O8 Yb1 2.537483 1_556
O9 Ti1 1.956822 1_565
O9 Ti0 1.956822 1_655
O9 Yb2 2.537483 1_665
O9 Yb3 2.537483 1_665
O10 Ti3 1.956822 1_555
O10 Ti1 1.956822 1_565
O10 Yb2 2.537483 1_565
O10 Yb0 2.537483 1_565
O11 Ti2 1.956822 1_556
O11 Ti0 1.956822 1_655
O11 Yb1 2.537483 1_656
O11 Yb3 2.537483 1_656
O12 Ti3 1.956822 1_555
O12 Ti0 1.956822 1_655
O12 Yb2 2.537483 1_655
O12 Yb1 2.537483 1_655
O13 Ti1 1.956822 1_565
O13 Ti2 1.956822 1_556
O13 Yb3 2.537483 1_566
O13 Yb0 2.537483 1_566
