# generated using pymatgen
data_MgZr(SO4)3
_symmetry_space_group_name_H-M   'P 1'
_cell_length_a   8.84706461
_cell_length_b   8.84706431
_cell_length_c   22.71272666
_cell_angle_alpha   90.00000000
_cell_angle_beta   90.00000000
_cell_angle_gamma   120.00000108
_symmetry_Int_Tables_number   1
_chemical_formula_structural   MgZr(SO4)3
_chemical_formula_sum   'Mg6 Zr6 S18 O72'
_cell_volume   1539.56590449
_cell_formula_units_Z   6
loop_
 _symmetry_equiv_pos_site_id
 _symmetry_equiv_pos_as_xyz
  1  'x, y, z'
loop_
 _atom_site_type_symbol
 _atom_site_label
 _atom_site_symmetry_multiplicity
 _atom_site_fract_x
 _atom_site_fract_y
 _atom_site_fract_z
 _atom_site_occupancy
  Mg  Mg0  1  -0.00000000  -0.00000000  0.35379227  1
  Mg  Mg1  1  -0.00000000  -0.00000000  0.85379227  1
  Mg  Mg2  1  0.66666700  0.33333300  0.68712527  1
  Mg  Mg3  1  0.66666700  0.33333300  0.18712527  1
  Mg  Mg4  1  0.33333300  0.66666700  0.02045927  1
  Mg  Mg5  1  0.33333300  0.66666700  0.52045927  1
  Zr  Zr0  1  -0.00000000  -0.00000000  0.64463606  1
  Zr  Zr1  1  -0.00000000  -0.00000000  0.14463606  1
  Zr  Zr2  1  0.66666700  0.33333300  0.97796906  1
  Zr  Zr3  1  0.66666700  0.33333300  0.47796906  1
  Zr  Zr4  1  0.33333300  0.66666700  0.31130306  1
  Zr  Zr5  1  0.33333300  0.66666700  0.81130306  1
  S  S0  1  0.29335683  0.00662390  0.25122533  1
  S  S1  1  0.71326706  0.70664317  0.25122533  1
  S  S2  1  0.99337610  0.28673294  0.25122533  1
  S  S3  1  0.29335683  0.28673294  0.75122533  1
  S  S4  1  0.99337610  0.70664317  0.75122533  1
  S  S5  1  0.71326706  0.00662390  0.75122533  1
  S  S6  1  0.96002383  0.33995690  0.58455833  1
  S  S7  1  0.37993406  0.03997617  0.58455833  1
  S  S8  1  0.66004310  0.62006594  0.58455833  1
  S  S9  1  0.96002383  0.62006594  0.08455833  1
  S  S10  1  0.66004310  0.03997617  0.08455833  1
  S  S11  1  0.37993406  0.33995690  0.08455833  1
  S  S12  1  0.62668983  0.67329090  0.91789233  1
  S  S13  1  0.04660006  0.37331017  0.91789233  1
  S  S14  1  0.32670910  0.95339994  0.91789233  1
  S  S15  1  0.62668983  0.95339994  0.41789233  1
  S  S16  1  0.32670910  0.37331017  0.41789233  1
  S  S17  1  0.04660006  0.67329090  0.41789233  1
  O  O0  1  0.20855681  0.02906291  0.30272044  1
  O  O1  1  0.82050610  0.79144319  0.30272044  1
  O  O2  1  0.97093709  0.17949390  0.30272044  1
  O  O3  1  0.20855681  0.17949390  0.80272044  1
  O  O4  1  0.97093709  0.79144319  0.80272044  1
  O  O5  1  0.82050610  0.02906291  0.80272044  1
  O  O6  1  0.78998983  0.96869850  0.69758085  1
  O  O7  1  0.17870868  0.21001017  0.69758085  1
  O  O8  1  0.03130150  0.82129132  0.69758085  1
  O  O9  1  0.78998983  0.82129132  0.19758085  1
  O  O10  1  0.03130150  0.21001017  0.19758085  1
  O  O11  1  0.17870868  0.96869850  0.19758085  1
  O  O12  1  0.87522381  0.36239591  0.63605344  1
  O  O13  1  0.48717310  0.12477619  0.63605344  1
  O  O14  1  0.63760409  0.51282690  0.63605344  1
  O  O15  1  0.87522381  0.51282690  0.13605344  1
  O  O16  1  0.63760409  0.12477619  0.13605344  1
  O  O17  1  0.48717310  0.36239591  0.13605344  1
  O  O18  1  0.45665683  0.30203150  0.03091385  1
  O  O19  1  0.84537568  0.54334317  0.03091385  1
  O  O20  1  0.69796850  0.15462432  0.03091385  1
  O  O21  1  0.45665683  0.15462432  0.53091385  1
  O  O22  1  0.69796850  0.54334317  0.53091385  1
  O  O23  1  0.84537568  0.30203150  0.53091385  1
  O  O24  1  0.54188981  0.69572991  0.96938744  1
  O  O25  1  0.15383910  0.45811019  0.96938744  1
  O  O26  1  0.30427009  0.84616090  0.96938744  1
  O  O27  1  0.54188981  0.84616090  0.46938744  1
  O  O28  1  0.30427009  0.45811019  0.46938744  1
  O  O29  1  0.15383910  0.69572991  0.46938744  1
  O  O30  1  0.12332283  0.63536550  0.36424785  1
  O  O31  1  0.51204168  0.87667717  0.36424785  1
  O  O32  1  0.36463450  0.48795832  0.36424785  1
  O  O33  1  0.12332283  0.48795832  0.86424785  1
  O  O34  1  0.36463450  0.87667717  0.86424785  1
  O  O35  1  0.51204168  0.63536550  0.86424785  1
  O  O36  1  0.02345375  0.82247241  0.40746134  1
  O  O37  1  0.79901866  0.97654625  0.40746134  1
  O  O38  1  0.17752759  0.20098134  0.40746134  1
  O  O39  1  0.02345375  0.20098134  0.90746134  1
  O  O40  1  0.17752759  0.97654625  0.90746134  1
  O  O41  1  0.79901866  0.82247241  0.90746134  1
  O  O42  1  0.97433275  0.17779892  0.59153593  1
  O  O43  1  0.20346617  0.02566725  0.59153593  1
  O  O44  1  0.82220108  0.79653383  0.59153593  1
  O  O45  1  0.97433275  0.79653383  0.09153593  1
  O  O46  1  0.82220108  0.02566725  0.09153593  1
  O  O47  1  0.20346617  0.17779892  0.09153593  1
  O  O48  1  0.69012075  0.15580541  0.74079434  1
  O  O49  1  0.46568566  0.30987925  0.74079434  1
  O  O50  1  0.84419459  0.53431434  0.74079434  1
  O  O51  1  0.69012075  0.53431434  0.24079434  1
  O  O52  1  0.84419459  0.30987925  0.24079434  1
  O  O53  1  0.46568566  0.15580541  0.24079434  1
  O  O54  1  0.64099975  0.51113192  0.92486893  1
  O  O55  1  0.87013317  0.35900025  0.92486893  1
  O  O56  1  0.48886808  0.12986683  0.92486893  1
  O  O57  1  0.64099975  0.12986683  0.42486893  1
  O  O58  1  0.48886808  0.35900025  0.42486893  1
  O  O59  1  0.87013317  0.51113192  0.42486893  1
  O  O60  1  0.35678675  0.48913941  0.07412834  1
  O  O61  1  0.13235166  0.64321325  0.07412834  1
  O  O62  1  0.51086059  0.86764834  0.07412834  1
  O  O63  1  0.35678675  0.86764834  0.57412834  1
  O  O64  1  0.51086059  0.64321325  0.57412834  1
  O  O65  1  0.13235166  0.48913941  0.57412834  1
  O  O66  1  0.30766575  0.84446592  0.25820293  1
  O  O67  1  0.53679917  0.69233425  0.25820293  1
  O  O68  1  0.15553408  0.46320083  0.25820293  1
  O  O69  1  0.30766575  0.46320083  0.75820293  1
  O  O70  1  0.15553408  0.69233425  0.75820293  1
  O  O71  1  0.53679917  0.84446592  0.75820293  1
loop_
_geom_bond_atom_site_label_1
_geom_bond_atom_site_label_2
_geom_bond_distance
_geom_bond_site_symmetry_2
Mg0 O38 2.078850 1_555
Mg0 O36 2.078850 1_545
Mg0 O37 2.078850 1_445
Mg0 O1 2.083674 1_445
Mg0 O2 2.083674 1_455
Mg0 O0 2.083674 1_555
Mg1 O39 2.078850 1_555
Mg1 O41 2.078850 1_445
Mg1 O40 2.078850 1_545
Mg1 O4 2.083674 1_445
Mg1 O3 2.083674 1_555
Mg1 O5 2.083674 1_455
Mg2 O50 2.078850 1_555
Mg2 O48 2.078850 1_555
Mg2 O49 2.078850 1_555
Mg2 O13 2.083674 1_555
Mg2 O14 2.083674 1_555
Mg2 O12 2.083674 1_555
Mg3 O51 2.078850 1_555
Mg3 O53 2.078850 1_555
Mg3 O52 2.078850 1_555
Mg3 O16 2.083674 1_555
Mg3 O15 2.083674 1_555
Mg3 O17 2.083674 1_555
Mg4 O62 2.078850 1_555
Mg4 O60 2.078850 1_555
Mg4 O61 2.078850 1_555
Mg4 O25 2.083674 1_554
Mg4 O26 2.083674 1_554
Mg4 O24 2.083674 1_554
Mg5 O63 2.078850 1_555
Mg5 O65 2.078850 1_555
Mg5 O64 2.078850 1_555
Mg5 O28 2.083674 1_555
Mg5 O27 2.083674 1_555
Mg5 O29 2.083674 1_555
O0 S0 1.455728 1_555
O1 S1 1.455728 1_555
O2 S2 1.455728 1_555
O3 S3 1.455728 1_555
O4 S4 1.455728 1_555
O5 S5 1.455728 1_555
O6 S5 1.511815 1_565
O6 Zr0 2.111939 1_665
O7 S3 1.511815 1_555
O7 Zr0 2.111939 1_555
O8 S4 1.511815 1_455
O8 Zr0 2.111939 1_565
O9 S1 1.511815 1_555
O9 Zr1 2.111939 1_665
O10 S2 1.511815 1_455
O10 Zr1 2.111939 1_555
O11 S0 1.511815 1_565
O11 Zr1 2.111939 1_565
O12 S6 1.455728 1_555
O13 S7 1.455728 1_555
O14 S8 1.455728 1_555
O15 S9 1.455728 1_555
O16 S10 1.455728 1_555
O17 S11 1.455728 1_555
O18 S11 1.511815 1_555
O18 Zr2 2.111939 1_554
O19 S9 1.511815 1_555
O19 Zr2 2.111939 1_554
O20 S10 1.511815 1_555
O20 Zr2 2.111939 1_554
O21 S7 1.511815 1_555
O21 Zr3 2.111939 1_555
O22 S8 1.511815 1_555
O22 Zr3 2.111939 1_555
O23 S6 1.511815 1_555
O23 Zr3 2.111939 1_555
O24 S12 1.455728 1_555
O25 S13 1.455728 1_555
O26 S14 1.455728 1_555
O27 S15 1.455728 1_555
O28 S16 1.455728 1_555
O29 S17 1.455728 1_555
O30 S17 1.511815 1_555
O30 Zr4 2.111939 1_555
O31 S15 1.511815 1_555
O31 Zr4 2.111939 1_555
O32 S16 1.511815 1_555
O32 Zr4 2.111939 1_555
O33 S13 1.511815 1_555
O33 Zr5 2.111939 1_555
O34 S14 1.511815 1_555
O34 Zr5 2.111939 1_555
O35 S12 1.511815 1_555
O35 Zr5 2.111939 1_555
O36 S17 1.452671 1_555
O37 S15 1.452679 1_555
O38 S16 1.452676 1_555
O39 S13 1.452679 1_555
O40 S14 1.452671 1_555
O41 S12 1.452676 1_555
O42 S6 1.510263 1_555
O42 Zr0 2.082700 1_655
O43 S7 1.510272 1_555
O43 Zr0 2.082700 1_555
O44 S8 1.510268 1_555
O44 Zr0 2.082700 1_665
O45 S9 1.510271 1_555
O45 Zr1 2.082700 1_665
O46 S10 1.510263 1_555
O46 Zr1 2.082700 1_655
O47 S11 1.510268 1_555
O47 Zr1 2.082700 1_555
O48 S5 1.452671 1_555
O49 S3 1.452679 1_555
O50 S4 1.452676 1_555
O51 S1 1.452679 1_555
O52 S2 1.452671 1_555
O53 S0 1.452676 1_555
O54 S12 1.510274 1_555
O54 Zr2 2.082700 1_555
O55 S13 1.510257 1_655
O55 Zr2 2.082700 1_555
O56 S14 1.510264 1_545
O56 Zr2 2.082700 1_555
O57 S15 1.510256 1_545
O57 Zr3 2.082700 1_555
O58 S16 1.510274 1_555
O58 Zr3 2.082700 1_555
O59 S17 1.510264 1_655
O59 Zr3 2.082700 1_555
O60 S11 1.452681 1_555
O61 S9 1.452664 1_455
O62 S10 1.452670 1_565
O63 S7 1.452664 1_565
O64 S8 1.452681 1_555
O65 S6 1.452670 1_455
O66 S0 1.510263 1_565
O66 Zr4 2.082700 1_555
O67 S1 1.510272 1_555
O67 Zr4 2.082700 1_555
O68 S2 1.510268 1_455
O68 Zr4 2.082700 1_555
O69 S3 1.510271 1_555
O69 Zr5 2.082700 1_555
O70 S4 1.510263 1_455
O70 Zr5 2.082700 1_555
O71 S5 1.510268 1_565
O71 Zr5 2.082700 1_555
