# generated using pymatgen
data_Na2Sc4Ti4Si3(S3O16)3
_symmetry_space_group_name_H-M   'P 1'
_cell_length_a   17.53623622
_cell_length_b   8.75989787
_cell_length_c   22.80333086
_cell_angle_alpha   89.90397516
_cell_angle_beta   89.90677526
_cell_angle_gamma   120.05845952
_symmetry_Int_Tables_number   1
_chemical_formula_structural   Na2Sc4Ti4Si3(S3O16)3
_chemical_formula_sum   'Na6 Sc12 Ti12 Si9 S27 O144'
_cell_volume   3031.83695579
_cell_formula_units_Z   3
loop_
 _symmetry_equiv_pos_site_id
 _symmetry_equiv_pos_as_xyz
  1  'x, y, z'
loop_
 _atom_site_type_symbol
 _atom_site_label
 _atom_site_symmetry_multiplicity
 _atom_site_fract_x
 _atom_site_fract_y
 _atom_site_fract_z
 _atom_site_occupancy
  Na  Na0  1  0.99704792  0.00501749  0.50038548  1
  Na  Na1  1  0.49761074  0.98964947  0.00310865  1
  Na  Na2  1  0.32933719  0.32632708  0.83676259  1
  Na  Na3  1  0.83060336  0.33151730  0.83165499  1
  Na  Na4  1  0.33211667  0.33000696  0.33074997  1
  Na  Na5  1  0.82705307  0.32961304  0.33447704  1
  Sc  Sc0  1  0.00412608  0.00222381  0.35014165  1
  Sc  Sc1  1  0.50514618  0.00757262  0.85156076  1
  Sc  Sc2  1  0.99936133  0.00626574  0.64639164  1
  Sc  Sc3  1  0.50240008  0.99072927  0.14802071  1
  Sc  Sc4  1  0.33100261  0.33531265  0.98148347  1
  Sc  Sc5  1  0.83786887  0.34331351  0.98301013  1
  Sc  Sc6  1  0.33767385  0.33026302  0.48083119  1
  Sc  Sc7  1  0.83139088  0.32710073  0.48022611  1
  Sc  Sc8  1  0.16696802  0.67626527  0.30736125  1
  Sc  Sc9  1  0.66837333  0.66659824  0.31014646  1
  Sc  Sc10  1  0.16912009  0.67577554  0.81291690  1
  Sc  Sc11  1  0.66566759  0.65722801  0.80795690  1
  Ti  Ti0  1  0.51387390  0.01691642  0.35526961  1
  Ti  Ti1  1  0.00447414  0.99866967  0.85908541  1
  Ti  Ti2  1  0.50791093  0.02300830  0.64481598  1
  Ti  Ti3  1  0.00717383  0.99080468  0.14487171  1
  Ti  Ti4  1  0.33987994  0.33979281  0.68283273  1
  Ti  Ti5  1  0.83457947  0.33413307  0.68440533  1
  Ti  Ti6  1  0.33722998  0.33839442  0.18664839  1
  Ti  Ti7  1  0.83531216  0.33210521  0.18783027  1
  Ti  Ti8  1  0.16153684  0.68127762  0.02418249  1
  Ti  Ti9  1  0.66270619  0.66834505  0.02712912  1
  Ti  Ti10  1  0.16312667  0.65818075  0.52373314  1
  Ti  Ti11  1  0.66050095  0.64337502  0.51987857  1
  Si  Si0  1  0.14845403  0.00821561  0.24921683  1
  Si  Si1  1  0.64787140  0.00349693  0.24909237  1
  Si  Si2  1  0.64887684  0.28977624  0.74924993  1
  Si  Si3  1  0.48004697  0.33436504  0.58227973  1
  Si  Si4  1  0.97662400  0.33150796  0.58257437  1
  Si  Si5  1  0.47532981  0.62377484  0.08227624  1
  Si  Si6  1  0.97648364  0.62022400  0.08472164  1
  Si  Si7  1  0.16989000  0.95886556  0.91596411  1
  Si  Si8  1  0.66908447  0.37852939  0.41445910  1
  S  S0  1  0.35675632  0.70894483  0.25113125  1
  S  S1  1  0.85735671  0.71067259  0.24750329  1
  S  S2  1  0.99848231  0.28609547  0.24828195  1
  S  S3  1  0.49786862  0.28542773  0.24993274  1
  S  S4  1  0.14571757  0.28686709  0.75104883  1
  S  S5  1  0.99858812  0.71045643  0.75059277  1
  S  S6  1  0.49701963  0.70918927  0.74825294  1
  S  S7  1  0.35635409  0.00356849  0.74751437  1
  S  S8  1  0.85722021  0.00527367  0.75132027  1
  S  S9  1  0.18974169  0.04214106  0.58307359  1
  S  S10  1  0.68804455  0.04036247  0.58449154  1
  S  S11  1  0.33404290  0.62505837  0.58382946  1
  S  S12  1  0.83201399  0.62199624  0.58303393  1
  S  S13  1  0.33271365  0.04344428  0.08326468  1
  S  S14  1  0.83408225  0.04311274  0.08429794  1
  S  S15  1  0.18804338  0.33616772  0.08464876  1
  S  S16  1  0.68910045  0.33699930  0.08259442  1
  S  S17  1  0.31077588  0.66873060  0.91754931  1
  S  S18  1  0.81129773  0.66904184  0.91588145  1
  S  S19  1  0.02261785  0.37522214  0.91599784  1
  S  S20  1  0.52373786  0.38044798  0.91820031  1
  S  S21  1  0.66702961  0.95308898  0.91780534  1
  S  S22  1  0.31101941  0.95153272  0.41643965  1
  S  S23  1  0.81117364  0.95253964  0.41794749  1
  S  S24  1  0.16659835  0.37996467  0.41777984  1
  S  S25  1  0.02388654  0.66754771  0.41787954  1
  S  S26  1  0.52257732  0.66979211  0.41637445  1
  O  O0  1  0.10534538  0.04540754  0.30656671  1
  O  O1  1  0.59916115  0.03826025  0.30777418  1
  O  O2  1  0.41188475  0.78930683  0.30347395  1
  O  O3  1  0.91069420  0.78485119  0.30136451  1
  O  O4  1  0.48128762  0.17221209  0.30304048  1
  O  O5  1  0.98004492  0.17728435  0.30211187  1
  O  O6  1  0.10242201  0.17240849  0.80381246  1
  O  O7  1  0.60497001  0.16467535  0.80619846  1
  O  O8  1  0.47832827  0.77966010  0.80186512  1
  O  O9  1  0.98439469  0.79613279  0.80329447  1
  O  O10  1  0.40954330  0.03772455  0.80124531  1
  O  O11  1  0.91321412  0.03386669  0.80342358  1
  O  O12  1  0.39932530  0.97823361  0.69573513  1
  O  O13  1  0.89586754  0.97557543  0.69820553  1
  O  O14  1  0.09232892  0.20639918  0.69839654  1
  O  O15  1  0.58384764  0.18674592  0.69250350  1
  O  O16  1  0.01204846  0.81672917  0.69788632  1
  O  O17  1  0.50848811  0.81627000  0.69601778  1
  O  O18  1  0.39294104  0.81385681  0.19778383  1
  O  O19  1  0.90071676  0.82376799  0.19572358  1
  O  O20  1  0.00957227  0.20124834  0.19613455  1
  O  O21  1  0.50930771  0.20695712  0.19691138  1
  O  O22  1  0.08358943  0.98048378  0.19250448  1
  O  O23  1  0.58820584  0.97695796  0.19330754  1
  O  O24  1  0.42861485  0.36315678  0.64038102  1
  O  O25  1  0.92954541  0.36445275  0.64070904  1
  O  O26  1  0.24515840  0.12772942  0.63602534  1
  O  O27  1  0.74527969  0.12958699  0.63698044  1
  O  O28  1  0.31607310  0.50456201  0.63674375  1
  O  O29  1  0.81699896  0.51032368  0.63650414  1
  O  O30  1  0.42909821  0.49544946  0.14021268  1
  O  O31  1  0.92701070  0.49169233  0.14093716  1
  O  O32  1  0.31630528  0.12259757  0.13612055  1
  O  O33  1  0.81469685  0.12184890  0.13620810  1
  O  O34  1  0.24494358  0.36310792  0.13653793  1
  O  O35  1  0.74362400  0.36493258  0.13507063  1
  O  O36  1  0.22307052  0.29428944  0.03219242  1
  O  O37  1  0.72760513  0.30351751  0.02972071  1
  O  O38  1  0.41963231  0.53178279  0.02501873  1
  O  O39  1  0.91933633  0.54004692  0.02650217  1
  O  O40  1  0.34572380  0.14910714  0.03021045  1
  O  O41  1  0.84835649  0.15083162  0.03130740  1
  O  O42  1  0.22711498  0.15348796  0.53063910  1
  O  O43  1  0.72323110  0.15341475  0.53266454  1
  O  O44  1  0.34849684  0.54466971  0.53181063  1
  O  O45  1  0.84749202  0.54425117  0.53090541  1
  O  O46  1  0.41759300  0.29723339  0.52748192  1
  O  O47  1  0.91902990  0.30329144  0.52591941  1
  O  O48  1  0.26756519  0.68959198  0.97011708  1
  O  O49  1  0.77247897  0.69682958  0.96901885  1
  O  O50  1  0.07607938  0.45224404  0.96904742  1
  O  O51  1  0.58005013  0.46703524  0.97059769  1
  O  O52  1  0.15157777  0.83008144  0.97418814  1
  O  O53  1  0.65656044  0.84343487  0.97108417  1
  O  O54  1  0.26782862  0.84438753  0.47007380  1
  O  O55  1  0.76747082  0.84526332  0.47126701  1
  O  O56  1  0.15617858  0.46919627  0.47154525  1
  O  O57  1  0.65237412  0.47392463  0.47418971  1
  O  O58  1  0.08014124  0.69225050  0.47090944  1
  O  O59  1  0.57672002  0.69675763  0.47007622  1
  O  O60  1  0.06403578  0.64252025  0.36503995  1
  O  O61  1  0.56116412  0.63755564  0.36444938  1
  O  O62  1  0.25504356  0.87162019  0.36444769  1
  O  O63  1  0.75966137  0.87553037  0.36456997  1
  O  O64  1  0.17844332  0.48377386  0.36499062  1
  O  O65  1  0.68217969  0.49773415  0.35894855  1
  O  O66  1  0.06193770  0.48284493  0.86315843  1
  O  O67  1  0.56395139  0.48544832  0.86479200  1
  O  O68  1  0.18026419  0.86522666  0.85882808  1
  O  O69  1  0.67861535  0.87321734  0.86459173  1
  O  O70  1  0.25862530  0.64232746  0.86354923  1
  O  O71  1  0.75718634  0.64121383  0.86340766  1
  O  O72  1  0.01580288  0.82831745  0.41422802  1
  O  O73  1  0.51224663  0.82671172  0.40901922  1
  O  O74  1  0.39804548  0.96911013  0.40858457  1
  O  O75  1  0.90012125  0.97016845  0.41327162  1
  O  O76  1  0.08538219  0.20396942  0.41517992  1
  O  O77  1  0.57648010  0.18584107  0.40681390  1
  O  O78  1  0.01277552  0.19621279  0.90640030  1
  O  O79  1  0.51497121  0.20242957  0.91358532  1
  O  O80  1  0.07816337  0.97215278  0.90362818  1
  O  O81  1  0.58563568  0.96662979  0.91443235  1
  O  O82  1  0.39958896  0.82910830  0.91156490  1
  O  O83  1  0.90062122  0.82911741  0.90629954  1
  O  O84  1  0.48862217  0.16147858  0.59652880  1
  O  O85  1  0.99405232  0.16859243  0.59145413  1
  O  O86  1  0.10054061  0.01590033  0.59141043  1
  O  O87  1  0.59838034  0.01629354  0.59561087  1
  O  O88  1  0.41092280  0.79706224  0.59578161  1
  O  O89  1  0.91131753  0.79779306  0.59141728  1
  O  O90  1  0.49103302  0.81927766  0.08741564  1
  O  O91  1  0.98893925  0.81567210  0.09627867  1
  O  O92  1  0.41034884  0.02408979  0.09046947  1
  O  O93  1  0.91074127  0.02282864  0.09477177  1
  O  O94  1  0.09812810  0.18140586  0.09508267  1
  O  O95  1  0.59921461  0.18776812  0.08865903  1
  O  O96  1  0.34495478  0.16326155  0.73925462  1
  O  O97  1  0.84871911  0.16666551  0.74388574  1
  O  O98  1  0.23433484  0.30286791  0.74391280  1
  O  O99  1  0.74585525  0.30980111  0.73651399  1
  O  O100  1  0.41536536  0.52644819  0.74034633  1
  O  O101  1  0.91698069  0.53318025  0.74499844  1
  O  O102  1  0.34774442  0.52875378  0.24352413  1
  O  O103  1  0.84801884  0.53144269  0.24020302  1
  O  O104  1  0.41598178  0.30201815  0.24421957  1
  O  O105  1  0.91796329  0.30554593  0.24136018  1
  O  O106  1  0.24541718  0.18192163  0.23627330  1
  O  O107  1  0.74555313  0.18505500  0.23911764  1
  O  O108  1  0.32088046  0.51118107  0.92180643  1
  O  O109  1  0.82232735  0.51167357  0.92109007  1
  O  O110  1  0.43528109  0.35914547  0.92336118  1
  O  O111  1  0.93250378  0.34977409  0.92215520  1
  O  O112  1  0.25100273  0.15358825  0.92235722  1
  O  O113  1  0.74499629  0.13156829  0.92414908  1
  O  O114  1  0.31930990  0.13004646  0.42234428  1
  O  O115  1  0.82155755  0.13063519  0.42298630  1
  O  O116  1  0.24465343  0.35894508  0.42504435  1
  O  O117  1  0.75115210  0.34923032  0.42397443  1
  O  O118  1  0.43254735  0.51267449  0.42373119  1
  O  O119  1  0.93565485  0.51160776  0.42381838  1
  O  O120  1  0.18020878  0.49386364  0.07505189  1
  O  O121  1  0.68387155  0.50131855  0.07275478  1
  O  O122  1  0.07414119  0.63918203  0.07356624  1
  O  O123  1  0.57540156  0.64058702  0.07101018  1
  O  O124  1  0.25318819  0.86383911  0.07518418  1
  O  O125  1  0.75422757  0.86500304  0.07397865  1
  O  O126  1  0.18360911  0.86835910  0.57466961  1
  O  O127  1  0.68050873  0.86796584  0.57651820  1
  O  O128  1  0.25412632  0.64109840  0.57543894  1
  O  O129  1  0.75403558  0.64351319  0.57554509  1
  O  O130  1  0.07644726  0.51215463  0.57011050  1
  O  O131  1  0.57544567  0.51157352  0.57373599  1
  O  O132  1  0.15588507  0.83446387  0.25627101  1
  O  O133  1  0.66023011  0.83979689  0.26186340  1
  O  O134  1  0.26747661  0.68091844  0.25955312  1
  O  O135  1  0.77024771  0.69107642  0.25320340  1
  O  O136  1  0.07591369  0.46021767  0.25637684  1
  O  O137  1  0.57393789  0.46163200  0.25773329  1
  O  O138  1  0.15545778  0.46108386  0.75938463  1
  O  O139  1  0.65629593  0.47838179  0.75645193  1
  O  O140  1  0.07486867  0.68652188  0.75839785  1
  O  O141  1  0.57377766  0.68774576  0.75595684  1
  O  O142  1  0.26896953  0.84693891  0.75370469  1
  O  O143  1  0.76884007  0.85251922  0.75921076  1
loop_
_geom_bond_atom_site_label_1
_geom_bond_atom_site_label_2
_geom_bond_distance
_geom_bond_site_symmetry_2
Na0 O75 2.534091 1_545
Na0 O85 2.540381 1_555
Na0 O76 2.546849 1_655
Na0 O72 2.623378 1_645
Na0 O89 2.666040 1_545
Na0 O86 2.729627 1_655
Na1 O90 2.398712 1_555
Na1 O81 2.610637 1_554
Na1 O92 2.618354 1_565
Na1 O82 2.624884 1_554
Na1 O95 2.630078 1_565
Na1 O79 2.674160 1_564
Na2 O112 2.426001 1_555
Na2 O108 2.579749 1_555
Na2 O110 2.629193 1_555
Na2 O98 2.640189 1_555
Na2 O96 2.731298 1_555
Na2 O100 2.740422 1_555
Na3 O101 2.572527 1_555
Na3 O97 2.580546 1_555
Na3 O99 2.584646 1_555
Na3 O109 2.628709 1_555
Na3 O113 2.667092 1_555
Na3 O111 2.684114 1_555
Na4 O104 2.543589 1_555
Na4 O102 2.563420 1_555
Na4 O106 2.584564 1_555
Na4 O114 2.659562 1_555
Na4 O118 2.712603 1_555
Na4 O116 2.724112 1_555
Na5 O117 2.487495 1_555
Na5 O107 2.565346 1_555
Na5 O115 2.634442 1_555
Na5 O103 2.686264 1_555
Na5 O119 2.702054 1_555
Na5 O105 2.724316 1_555
O0 Si0 1.622597 1_555
O0 Sc0 1.897748 1_555
O1 Si1 1.694471 1_555
O1 Ti0 1.777289 1_555
O2 S0 1.476356 1_555
O2 Ti0 2.238671 1_565
O3 S1 1.484307 1_555
O3 Sc0 2.105981 1_665
O4 S3 1.496889 1_555
O4 Ti0 2.090734 1_555
O5 S2 1.485227 1_555
O5 Sc0 2.091447 1_655
O6 S4 1.503261 1_555
O6 Ti1 2.054985 1_545
O7 Si2 1.620767 1_555
O7 Sc1 1.898500 1_555
O8 S6 1.478864 1_555
O8 Sc1 2.135435 1_565
O9 S5 1.502887 1_555
O9 Ti1 2.067248 1_655
O10 S7 1.478555 1_555
O10 Sc1 2.155398 1_555
O11 S8 1.482219 1_555
O11 Ti1 2.183314 1_645
O12 S7 1.475383 1_565
O12 Ti2 2.090709 1_565
O13 S8 1.472751 1_565
O13 Sc2 2.065258 1_565
O14 S4 1.469812 1_555
O14 Sc2 2.070697 1_455
O15 Si2 1.663472 1_555
O15 Ti2 1.763415 1_555
O16 S5 1.463585 1_455
O16 Sc2 2.132930 1_465
O17 S6 1.464793 1_555
O17 Ti2 2.157402 1_565
O18 S0 1.461733 1_555
O18 Sc3 2.092961 1_555
O19 S1 1.480660 1_555
O19 Ti3 2.054664 1_655
O20 S2 1.466730 1_455
O20 Ti3 2.167099 1_545
O21 S3 1.454206 1_555
O21 Sc3 2.150121 1_545
O22 Si0 1.659623 1_565
O22 Ti3 1.763366 1_555
O23 Si1 1.590171 1_565
O23 Sc3 1.879265 1_555
O24 Si3 1.690432 1_555
O24 Ti4 1.753784 1_555
O25 Si4 1.660920 1_555
O25 Ti5 1.840487 1_555
O26 S9 1.497156 1_555
O26 Ti4 2.066532 1_555
O27 S10 1.507344 1_555
O27 Ti5 2.008357 1_555
O28 S11 1.526656 1_555
O28 Ti4 1.990511 1_555
O29 S12 1.499966 1_555
O29 Ti5 2.035292 1_555
O30 Si5 1.656778 1_555
O30 Ti6 1.838112 1_555
O31 Si6 1.636048 1_555
O31 Ti7 1.849594 1_555
O32 S13 1.489236 1_555
O32 Ti6 2.085539 1_555
O33 S14 1.492914 1_555
O33 Ti7 2.061634 1_555
O34 S15 1.490062 1_555
O34 Ti6 2.080345 1_555
O35 S16 1.475241 1_555
O35 Ti7 2.140953 1_555
O36 S15 1.472254 1_555
O36 Sc4 2.087764 1_554
O37 S16 1.480739 1_555
O37 Sc5 2.076470 1_554
O38 Si5 1.589756 1_555
O38 Sc4 1.922063 1_554
O39 Si6 1.600770 1_555
O39 Sc5 1.881092 1_554
O40 S13 1.468410 1_555
O40 Sc4 2.092506 1_554
O41 S14 1.473690 1_555
O41 Sc5 2.096392 1_554
O42 S9 1.470959 1_555
O42 Sc6 2.103857 1_555
O43 S10 1.462790 1_555
O43 Sc7 2.106632 1_555
O44 S11 1.465552 1_555
O44 Sc6 2.136804 1_555
O45 S12 1.461966 1_555
O45 Sc7 2.122281 1_555
O46 Si3 1.586083 1_555
O46 Sc6 1.894612 1_555
O47 Si4 1.582864 1_555
O47 Sc7 1.953638 1_555
O48 S17 1.476825 1_555
O48 Ti8 2.199771 1_556
O49 S18 1.468058 1_555
O49 Ti9 2.243483 1_556
O50 S19 1.473198 1_555
O50 Ti8 2.203274 1_556
O51 S20 1.494874 1_555
O51 Ti9 2.079818 1_556
O52 Si7 1.664116 1_555
O52 Ti8 1.803617 1_556
O53 S21 1.500382 1_555
O53 Ti9 2.038834 1_556
O54 S22 1.493791 1_555
O54 Ti10 2.124818 1_555
O55 S23 1.490111 1_555
O55 Ti11 2.130395 1_555
O56 S24 1.514296 1_555
O56 Ti10 1.994172 1_555
O57 Si8 1.699179 1_555
O57 Ti11 1.761499 1_555
O58 S25 1.507719 1_555
O58 Ti10 2.024196 1_555
O59 S26 1.495642 1_555
O59 Ti11 2.087787 1_555
O60 S25 1.465728 1_555
O60 Sc8 2.128836 1_555
O61 S26 1.459303 1_555
O61 Sc9 2.155197 1_555
O62 S22 1.475607 1_555
O62 Sc8 2.091613 1_555
O63 S23 1.465775 1_555
O63 Sc9 2.128756 1_555
O64 S24 1.457887 1_555
O64 Sc8 2.223534 1_555
O65 Si8 1.581092 1_555
O65 Sc9 1.959416 1_555
O66 S19 1.469132 1_555
O66 Sc10 2.122725 1_555
O67 S20 1.473173 1_555
O67 Sc11 2.103044 1_555
O68 Si7 1.598675 1_555
O68 Sc10 1.889451 1_555
O69 S21 1.465508 1_555
O69 Sc11 2.208631 1_555
O70 S17 1.482861 1_555
O70 Sc10 2.085181 1_555
O71 S18 1.471258 1_555
O71 Sc11 2.103753 1_555
O72 S25 1.486624 1_555
O72 Sc0 2.191878 1_565
O73 S26 1.482992 1_555
O73 Ti0 2.055390 1_565
O74 S22 1.465750 1_555
O74 Ti0 2.217505 1_565
O75 S23 1.492084 1_555
O75 Sc0 2.225919 1_665
O76 S24 1.486522 1_555
O76 Sc0 2.201408 1_555
O77 Si8 1.665124 1_555
O77 Ti0 1.777390 1_555
O78 S19 1.505583 1_555
O78 Ti1 1.983480 1_545
O79 S20 1.492298 1_555
O79 Sc1 2.158238 1_555
O80 Si7 1.693811 1_555
O80 Ti1 1.749197 1_555
O81 S21 1.492389 1_555
O81 Sc1 2.165260 1_565
O82 S17 1.491557 1_555
O82 Sc1 2.197349 1_565
O83 S18 1.505039 1_555
O83 Ti1 1.990081 1_655
O84 Si3 1.627408 1_555
O84 Ti2 1.790515 1_555
O85 Si4 1.614702 1_555
O85 Sc2 1.930566 1_555
O86 S9 1.474633 1_555
O86 Sc2 2.137656 1_455
O87 S10 1.499173 1_555
O87 Ti2 1.966547 1_555
O88 S11 1.459371 1_555
O88 Ti2 2.168363 1_565
O89 S12 1.482734 1_555
O89 Sc2 2.116538 1_565
O90 Si5 1.597139 1_555
O90 Sc3 1.978205 1_555
O91 Si6 1.635708 1_555
O91 Ti3 1.788606 1_655
O92 S13 1.463246 1_555
O92 Sc3 2.211699 1_545
O93 S14 1.461499 1_555
O93 Ti3 2.173480 1_645
O94 S15 1.495673 1_555
O94 Ti3 1.985128 1_545
O95 S16 1.465299 1_555
O95 Sc3 2.177859 1_545
O96 S7 1.520433 1_555
O96 Ti4 2.046017 1_555
O97 S8 1.503377 1_555
O97 Ti5 2.100494 1_555
O98 S4 1.497324 1_555
O98 Ti4 2.204691 1_555
O99 Si2 1.645192 1_555
O99 Ti5 1.881244 1_555
O100 S6 1.533289 1_555
O100 Ti4 1.997598 1_555
O101 S5 1.500272 1_555
O101 Ti5 2.127915 1_555
O102 S0 1.515817 1_555
O102 Ti6 2.048600 1_555
O103 S1 1.504312 1_555
O103 Ti7 2.035471 1_555
O104 S3 1.519789 1_555
O104 Ti6 2.043905 1_555
O105 S2 1.513054 1_555
O105 Ti7 1.996868 1_555
O106 Si0 1.642775 1_555
O106 Ti6 1.878747 1_555
O107 Si1 1.668478 1_555
O107 Ti7 1.860774 1_555
O108 S17 1.479912 1_555
O108 Sc4 2.127087 1_555
O109 S18 1.489460 1_555
O109 Sc5 2.154063 1_555
O110 S20 1.471137 1_555
O110 Sc4 2.180121 1_555
O111 S19 1.487586 1_655
O111 Sc5 2.140358 1_555
O112 Si7 1.589036 1_545
O112 Sc4 2.023912 1_555
O113 S21 1.481446 1_545
O113 Sc5 2.209927 1_555
O114 S22 1.502544 1_545
O114 Sc6 2.098086 1_555
O115 S23 1.482009 1_545
O115 Sc7 2.099120 1_555
O116 S24 1.479207 1_555
O116 Sc6 2.181420 1_555
O117 Si8 1.598430 1_555
O117 Sc7 1.985232 1_555
O118 S26 1.495525 1_555
O118 Sc6 2.083140 1_555
O119 S25 1.469600 1_655
O119 Sc7 2.152872 1_555
O120 S15 1.471137 1_555
O120 Ti8 2.163660 1_555
O121 S16 1.503957 1_555
O121 Ti9 1.975136 1_555
O122 Si6 1.654883 1_455
O122 Ti8 1.783197 1_555
O123 Si5 1.704935 1_555
O123 Ti9 1.739427 1_555
O124 S13 1.502649 1_565
O124 Ti8 1.982606 1_555
O125 S14 1.504737 1_565
O125 Ti9 1.981638 1_555
O126 S9 1.484172 1_565
O126 Ti10 2.052801 1_555
O127 S10 1.460216 1_565
O127 Ti11 2.231678 1_555
O128 S11 1.489436 1_555
O128 Ti10 2.050337 1_555
O129 S12 1.481032 1_555
O129 Ti11 2.075218 1_555
O130 Si4 1.694438 1_455
O130 Ti10 1.762845 1_555
O131 Si3 1.625664 1_555
O131 Ti11 1.824882 1_555
O132 Si0 1.599195 1_565
O132 Sc8 1.892261 1_555
O133 Si1 1.580589 1_565
O133 Sc9 1.935583 1_555
O134 S0 1.470430 1_555
O134 Sc8 2.053862 1_555
O135 S1 1.454788 1_555
O135 Sc9 2.128705 1_555
O136 S2 1.459909 1_455
O136 Sc8 2.114045 1_555
O137 S3 1.460354 1_555
O137 Sc9 2.104688 1_555
O138 S4 1.460924 1_555
O138 Sc10 2.154474 1_555
O139 Si2 1.599749 1_555
O139 Sc11 1.899937 1_555
O140 S5 1.465133 1_455
O140 Sc10 2.109124 1_555
O141 S6 1.460116 1_555
O141 Sc11 2.123875 1_555
O142 S7 1.463935 1_565
O142 Sc10 2.119600 1_555
O143 S8 1.464825 1_565
O143 Sc11 2.078959 1_555
