# generated using pymatgen
data_Li3Ni2(PO4)3
_symmetry_space_group_name_H-M   'P 1'
_cell_length_a   8.52576756
_cell_length_b   8.52576756
_cell_length_c   6.31662298
_cell_angle_alpha   74.24037973
_cell_angle_beta   74.24037973
_cell_angle_gamma   94.51291013
_symmetry_Int_Tables_number   1
_chemical_formula_structural   Li3Ni2(PO4)3
_chemical_formula_sum   'Li6 Ni4 P6 O24'
_cell_volume   419.47685831
_cell_formula_units_Z   2
loop_
 _symmetry_equiv_pos_site_id
 _symmetry_equiv_pos_as_xyz
  1  'x, y, z'
loop_
 _atom_site_type_symbol
 _atom_site_label
 _atom_site_symmetry_multiplicity
 _atom_site_fract_x
 _atom_site_fract_y
 _atom_site_fract_z
 _atom_site_occupancy
  Li  Li0  1  0.01932300  0.98067700  0.75000000  1
  Li  Li1  1  0.28715600  0.71284400  0.75000000  1
  Li  Li2  1  0.50000000  0.50000000  0.50000000  1
  Li  Li3  1  0.71284400  0.28715600  0.25000000  1
  Li  Li4  1  0.98067700  0.01932300  0.25000000  1
  Li  Li5  1  0.50000000  0.50000000  0.00000000  1
  Ni  Ni0  1  0.94635000  0.62487100  0.63097200  1
  Ni  Ni1  1  0.62487100  0.94635000  0.13097200  1
  Ni  Ni2  1  0.37512900  0.05365000  0.86902800  1
  Ni  Ni3  1  0.05365000  0.37512900  0.36902800  1
  P  P0  1  0.33548700  0.13533800  0.36507300  1
  P  P1  1  0.13533800  0.33548700  0.86507300  1
  P  P2  1  0.28752100  0.71247900  0.25000000  1
  P  P3  1  0.71247900  0.28752100  0.75000000  1
  P  P4  1  0.66451300  0.86466200  0.63492700  1
  P  P5  1  0.86466200  0.66451300  0.13492700  1
  O  O0  1  0.84754900  0.85004700  0.10380600  1
  O  O1  1  0.14995300  0.15245100  0.39619400  1
  O  O2  1  0.39890700  0.04738400  0.17661100  1
  O  O3  1  0.33660100  0.00809000  0.59446400  1
  O  O4  1  0.99191000  0.66339900  0.90553600  1
  O  O5  1  0.85004700  0.84754900  0.60380600  1
  O  O6  1  0.60109300  0.95261600  0.82338900  1
  O  O7  1  0.66339900  0.99191000  0.40553600  1
  O  O8  1  0.00809000  0.33660100  0.09446400  1
  O  O9  1  0.95261600  0.60109300  0.32338900  1
  O  O10  1  0.54817000  0.70249000  0.69849000  1
  O  O11  1  0.73454000  0.46613900  0.76819900  1
  O  O12  1  0.73903700  0.17773300  0.97284700  1
  O  O13  1  0.70249000  0.54817000  0.19849000  1
  O  O14  1  0.15245100  0.14995300  0.89619400  1
  O  O15  1  0.82226700  0.26096300  0.52715300  1
  O  O16  1  0.17773300  0.73903700  0.47284700  1
  O  O17  1  0.53386100  0.26546000  0.73180100  1
  O  O18  1  0.29751000  0.45183000  0.80151000  1
  O  O19  1  0.26096300  0.82226700  0.02715300  1
  O  O20  1  0.26546000  0.53386100  0.23180100  1
  O  O21  1  0.45183000  0.29751000  0.30151000  1
  O  O22  1  0.04738400  0.39890700  0.67661100  1
  O  O23  1  0.46613900  0.73454000  0.26819900  1
loop_
_geom_bond_atom_site_label_1
_geom_bond_atom_site_label_2
_geom_bond_distance
_geom_bond_site_symmetry_2
Li0 O1 2.234534 1_565
Li0 O0 2.234534 1_456
Li0 O5 2.293338 1_455
Li0 O14 2.293338 1_565
Li0 O3 2.582489 1_565
Li0 O4 2.582489 1_455
Li1 O19 2.166251 1_556
Li1 O16 2.166251 1_555
Li1 O18 2.172331 1_555
Li1 O10 2.172331 1_555
Li1 O3 2.396642 1_565
Li1 O4 2.396642 1_455
Li2 O18 2.110404 1_555
Li2 O13 2.110404 1_555
Li2 O23 2.226160 1_555
Li2 O17 2.226160 1_555
Li2 O21 2.462711 1_555
Li2 O10 2.462711 1_555
Li3 O15 2.166251 1_555
Li3 O12 2.166251 1_554
Li3 O21 2.172331 1_555
Li3 O13 2.172331 1_555
Li3 O8 2.396642 1_655
Li3 O7 2.396642 1_545
Li4 O5 2.234534 1_545
Li4 O14 2.234534 1_654
Li4 O1 2.293338 1_655
Li4 O0 2.293338 1_545
Li4 O7 2.582489 1_545
Li4 O8 2.582489 1_655
Li5 O10 2.110404 1_554
Li5 O21 2.110404 1_555
Li5 O11 2.226160 1_554
Li5 O20 2.226160 1_555
Li5 O13 2.462711 1_555
Li5 O18 2.462711 1_554
Ni0 O4 1.980393 1_555
Ni0 O16 1.983954 1_655
Ni0 O11 1.992936 1_555
Ni0 O9 1.994501 1_555
Ni0 O5 2.110155 1_555
Ni0 O22 2.151958 1_655
Ni1 O7 1.980393 1_555
Ni1 O12 1.983954 1_564
Ni1 O23 1.992936 1_555
Ni1 O6 1.994501 1_554
Ni1 O0 2.110155 1_555
Ni1 O2 2.151958 1_565
Ni2 O3 1.980393 1_555
Ni2 O19 1.983954 1_546
Ni2 O17 1.992936 1_555
Ni2 O2 1.994501 1_556
Ni2 O14 2.110155 1_555
Ni2 O6 2.151958 1_545
Ni3 O8 1.980393 1_555
Ni3 O15 1.983954 1_455
Ni3 O20 1.992936 1_555
Ni3 O22 1.994501 1_555
Ni3 O1 2.110155 1_555
Ni3 O9 2.151958 1_455
O0 P5 1.563673 1_555
O1 P0 1.563673 1_555
O2 P0 1.571909 1_555
O3 P0 1.559422 1_555
O4 P5 1.559422 1_556
O5 P4 1.563673 1_555
O6 P4 1.571909 1_555
O7 P4 1.559422 1_555
O8 P1 1.559422 1_554
O9 P5 1.571909 1_555
O10 P4 1.524166 1_555
O11 P3 1.558668 1_555
O12 P3 1.549075 1_555
O13 P5 1.524166 1_555
O14 P1 1.563673 1_555
O15 P3 1.549075 1_555
O16 P2 1.549075 1_555
O17 P3 1.558668 1_555
O18 P1 1.524166 1_555
O19 P2 1.549075 1_555
O20 P2 1.558668 1_555
O21 P0 1.524166 1_555
O22 P1 1.571909 1_555
O23 P2 1.558668 1_555
