# generated using pymatgen
data_Na2ZrSiSn(PO6)2
_symmetry_space_group_name_H-M   'P 1'
_cell_length_a   8.97779524
_cell_length_b   8.97866336
_cell_length_c   22.95111262
_cell_angle_alpha   90.04968901
_cell_angle_beta   90.01439042
_cell_angle_gamma   119.79343863
_symmetry_Int_Tables_number   1
_chemical_formula_structural   Na2ZrSiSn(PO6)2
_chemical_formula_sum   'Na12 Zr6 Si6 Sn6 P12 O72'
_cell_volume   1605.51980396
_cell_formula_units_Z   6
loop_
 _symmetry_equiv_pos_site_id
 _symmetry_equiv_pos_as_xyz
  1  'x, y, z'
loop_
 _atom_site_type_symbol
 _atom_site_label
 _atom_site_symmetry_multiplicity
 _atom_site_fract_x
 _atom_site_fract_y
 _atom_site_fract_z
 _atom_site_occupancy
  Na  Na0  1  0.00126634  0.63364972  0.25072076  1
  Na  Na1  1  0.36780074  0.99878899  0.75186987  1
  Na  Na2  1  0.66381635  0.96884687  0.58631864  1
  Na  Na3  1  0.03160164  0.33455784  0.08599268  1
  Na  Na4  1  0.97254566  0.67014722  0.91960980  1
  Na  Na5  1  0.33024629  0.02759981  0.41901936  1
  Na  Na6  1  0.00491434  0.99509021  0.50039647  1
  Na  Na7  1  0.00357599  0.99500507  0.99956064  1
  Na  Na8  1  0.66505146  0.32520508  0.83478687  1
  Na  Na9  1  0.67510741  0.33565749  0.33259582  1
  Na  Na10  1  0.34510566  0.67239325  0.16673827  1
  Na  Na11  1  0.32927625  0.65440112  0.66800145  1
  Zr  Zr0  1  0.99350728  0.00342034  0.35157777  1
  Zr  Zr1  1  0.00429332  0.99969232  0.64892376  1
  Zr  Zr2  1  0.99969682  0.99484904  0.14711907  1
  Zr  Zr3  1  0.66939023  0.33234312  0.68757550  1
  Zr  Zr4  1  0.67221639  0.34180196  0.47985820  1
  Zr  Zr5  1  0.32417705  0.66458867  0.51964390  1
  Si  Si0  1  -0.00000618  0.29814723  0.24718649  1
  Si  Si1  1  0.70576826  0.99525197  0.75103893  1
  Si  Si2  1  0.37169410  0.04132890  0.58208166  1
  Si  Si3  1  0.95751231  0.62318708  0.08085100  1
  Si  Si4  1  0.33448102  0.96345097  0.91517767  1
  Si  Si5  1  0.03843718  0.66603355  0.41291529  1
  Sn  Sn0  1  0.99909377  0.00583184  0.85329256  1
  Sn  Sn1  1  0.66537118  0.33033228  0.18430946  1
  Sn  Sn2  1  0.66012236  0.32899619  0.98054355  1
  Sn  Sn3  1  0.33428487  0.67321282  0.01817629  1
  Sn  Sn4  1  0.33114575  0.65960447  0.31376023  1
  Sn  Sn5  1  0.34047583  0.66996841  0.81599944  1
  P  P0  1  0.29936828  0.00360097  0.25110341  1
  P  P1  1  0.70207716  0.70455888  0.24961330  1
  P  P2  1  0.28949807  0.29520211  0.75248284  1
  P  P3  1  0.00090353  0.70705321  0.75422979  1
  P  P4  1  0.95909019  0.33291515  0.58390809  1
  P  P5  1  0.66756227  0.62611745  0.58418649  1
  P  P6  1  0.66210046  0.04071146  0.08262231  1
  P  P7  1  0.37879053  0.33722936  0.08261629  1
  P  P8  1  0.62396680  0.66608665  0.91747125  1
  P  P9  1  0.04479322  0.37595560  0.91778545  1
  P  P10  1  0.62124606  0.95397623  0.41662203  1
  P  P11  1  0.33472300  0.37678034  0.41526047  1
  O  O0  1  0.21603513  0.02590098  0.30688594  1
  O  O1  1  0.81988453  0.78605323  0.30334438  1
  O  O2  1  0.97550950  0.17866326  0.30376992  1
  O  O3  1  0.21473748  0.17645538  0.80629891  1
  O  O4  1  0.97540151  0.78680195  0.81057985  1
  O  O5  1  0.82570820  0.02943754  0.80806924  1
  O  O6  1  0.79081696  0.97183507  0.69127466  1
  O  O7  1  0.17935261  0.20965746  0.69795910  1
  O  O8  1  0.03572412  0.82814622  0.70154620  1
  O  O9  1  0.78986751  0.81536275  0.19542982  1
  O  O10  1  0.02243545  0.20827123  0.18861221  1
  O  O11  1  0.17703824  0.96832532  0.19854405  1
  O  O12  1  0.87488527  0.35980919  0.63838555  1
  O  O13  1  0.49185153  0.13181329  0.64012574  1
  O  O14  1  0.64715695  0.51823194  0.63855056  1
  O  O15  1  0.87568282  0.50268090  0.13936035  1
  O  O16  1  0.62659551  0.11690486  0.13763577  1
  O  O17  1  0.48720943  0.36549365  0.13799615  1
  O  O18  1  0.45496022  0.30201306  0.02797622  1
  O  O19  1  0.84479177  0.53783161  0.02162569  1
  O  O20  1  0.69984639  0.15742946  0.02862695  1
  O  O21  1  0.46258462  0.15132036  0.52334668  1
  O  O22  1  0.69337428  0.54208932  0.52956918  1
  O  O23  1  0.84601974  0.30585335  0.52993983  1
  O  O24  1  0.54196562  0.69360722  0.97223371  1
  O  O25  1  0.15075135  0.45135391  0.97428448  1
  O  O26  1  0.28830859  0.83317787  0.97071407  1
  O  O27  1  0.54190635  0.84873576  0.47262983  1
  O  O28  1  0.31148154  0.46212019  0.46968818  1
  O  O29  1  0.16449196  0.69848709  0.46912440  1
  O  O30  1  0.12202585  0.63913164  0.35323795  1
  O  O31  1  0.50483436  0.86969852  0.36281811  1
  O  O32  1  0.36788884  0.48575843  0.36006528  1
  O  O33  1  0.12921897  0.49438306  0.86444773  1
  O  O34  1  0.36396256  0.88265787  0.85505406  1
  O  O35  1  0.51372506  0.63216389  0.86239351  1
  O  O36  1  0.03190714  0.84522889  0.41002290  1
  O  O37  1  0.80144937  0.97476665  0.41069277  1
  O  O38  1  0.17409633  0.19465823  0.41026707  1
  O  O39  1  0.02345597  0.19512598  0.91212105  1
  O  O40  1  0.15394985  0.97202012  0.91060457  1
  O  O41  1  0.80749201  0.82626794  0.91227027  1
  O  O42  1  0.96682597  0.16488629  0.58918999  1
  O  O43  1  0.18091013  0.01771863  0.58785425  1
  O  O44  1  0.82570608  0.80956678  0.58870950  1
  O  O45  1  0.98095941  0.81449663  0.08729822  1
  O  O46  1  0.82905829  0.03026017  0.08911626  1
  O  O47  1  0.19442212  0.18052518  0.08912390  1
  O  O48  1  0.67610710  0.16289836  0.74723565  1
  O  O49  1  0.46945313  0.31292649  0.74506474  1
  O  O50  1  0.84158446  0.53041059  0.74632564  1
  O  O51  1  0.68736385  0.52501154  0.24348346  1
  O  O52  1  0.82977941  0.32415666  0.24520963  1
  O  O53  1  0.47524765  0.16707234  0.24330396  1
  O  O54  1  0.65235605  0.50809065  0.92193907  1
  O  O55  1  0.86626604  0.36659547  0.92196349  1
  O  O56  1  0.50613568  0.15299612  0.92161692  1
  O  O57  1  0.63318405  0.13185074  0.42130115  1
  O  O58  1  0.49046062  0.34719642  0.42052425  1
  O  O59  1  0.85038156  0.49702596  0.41945080  1
  O  O60  1  0.35769739  0.49914197  0.07642519  1
  O  O61  1  0.14509598  0.62902473  0.07718404  1
  O  O62  1  0.50537977  0.85871500  0.07609970  1
  O  O63  1  0.36626701  0.85503464  0.57917470  1
  O  O64  1  0.50764591  0.64807784  0.57868631  1
  O  O65  1  0.13971562  0.48894188  0.57859377  1
  O  O66  1  0.31600605  0.83935269  0.25500997  1
  O  O67  1  0.52535418  0.69161168  0.25596373  1
  O  O68  1  0.17024875  0.49235544  0.25174381  1
  O  O69  1  0.30191856  0.47210117  0.75873007  1
  O  O70  1  0.16643042  0.69211623  0.75757922  1
  O  O71  1  0.51086802  0.82524576  0.75443263  1
loop_
_geom_bond_atom_site_label_1
_geom_bond_atom_site_label_2
_geom_bond_distance
_geom_bond_site_symmetry_2
Na0 O68 2.413333 1_555
Na0 O52 2.419921 1_455
Na0 O51 2.487729 1_455
Na0 O66 2.493713 1_555
Na0 O30 2.580574 1_555
Na0 O15 2.803950 1_455
Na0 O1 2.862754 1_455
Na0 O11 2.872077 1_555
Na1 O48 2.406500 1_565
Na1 O70 2.433362 1_555
Na1 O71 2.463768 1_555
Na1 O49 2.501108 1_565
Na1 O34 2.581737 1_555
Na1 O13 2.815883 1_565
Na1 O8 2.832957 1_555
Na1 O3 2.858205 1_565
Na2 O63 2.343913 1_555
Na2 O42 2.396714 1_565
Na2 O44 2.495262 1_555
Na2 O64 2.505494 1_555
Na2 O6 2.659219 1_555
Na2 O27 2.826662 1_555
Na2 O13 2.879637 1_565
Na2 O23 2.931743 1_565
Na3 O61 2.322348 1_555
Na3 O46 2.416569 1_455
Na3 O47 2.462471 1_555
Na3 O60 2.550405 1_555
Na3 O10 2.598382 1_555
Na3 O25 2.776414 1_554
Na3 O15 2.799258 1_455
Na3 O20 2.901893 1_455
Na4 O40 2.378226 1_655
Na4 O55 2.399503 1_555
Na4 O54 2.495398 1_555
Na4 O41 2.500705 1_555
Na4 O19 2.619356 1_556
Na4 O4 2.708764 1_555
Na4 O26 2.725149 1_655
Na4 O33 2.876649 1_655
Na5 O36 2.353425 1_545
Na5 O57 2.397030 1_555
Na5 O58 2.490492 1_555
Na5 O38 2.519031 1_555
Na5 O21 2.657304 1_555
Na5 O0 2.767312 1_555
Na5 O29 2.811718 1_545
Na5 O31 2.887339 1_545
Na6 O43 2.499120 1_565
Na6 O36 2.547723 1_555
Na6 O44 2.610700 1_455
Na6 O38 2.664607 1_565
Na6 O42 2.665943 1_465
Na6 O37 2.697199 1_455
Na7 O40 2.512166 1_555
Na7 O45 2.530159 1_456
Na7 O41 2.598185 1_455
Na7 O39 2.641126 1_565
Na7 O47 2.663045 1_566
Na7 O46 2.696856 1_466
Na8 O56 2.492443 1_555
Na8 O48 2.511973 1_555
Na8 O55 2.595068 1_555
Na8 O54 2.625023 1_555
Na8 O50 2.671115 1_555
Na8 O49 2.672385 1_555
Na9 O52 2.470813 1_555
Na9 O59 2.505363 1_555
Na9 O51 2.627889 1_555
Na9 O57 2.637704 1_555
Na9 O58 2.646377 1_555
Na9 O53 2.646565 1_555
Na10 O68 2.523681 1_555
Na10 O67 2.561693 1_555
Na10 O66 2.608460 1_555
Na10 O62 2.609979 1_555
Na10 O60 2.626457 1_555
Na10 O61 2.627248 1_555
Na11 O71 2.540442 1_555
Na11 O69 2.584995 1_555
Na11 O65 2.606626 1_555
Na11 O64 2.619429 1_555
Na11 O63 2.631311 1_555
Na11 O70 2.640294 1_555
O0 P0 1.545253 1_555
O0 Zr0 2.164431 1_455
O1 P1 1.550323 1_555
O1 Zr0 2.106280 1_565
O2 Si0 1.629094 1_655
O2 Zr0 1.990312 1_555
O3 P2 1.550605 1_555
O3 Sn0 2.077230 1_455
O4 P3 1.548935 1_655
O4 Sn0 2.110593 1_565
O5 Si1 1.623913 1_545
O5 Sn0 1.967919 1_555
O6 Si1 1.633468 1_555
O6 Zr1 2.050727 1_655
O7 P2 1.541649 1_555
O7 Zr1 2.083677 1_545
O8 P3 1.551318 1_555
O8 Zr1 2.084615 1_555
O9 P1 1.543003 1_555
O9 Zr2 2.088658 1_555
O10 Si0 1.630605 1_555
O10 Zr2 2.056348 1_445
O11 P0 1.553907 1_565
O11 Zr2 2.088291 1_455
O12 P4 1.540928 1_555
O12 Zr3 2.070848 1_555
O13 Si2 1.650729 1_555
O13 Zr3 2.027839 1_555
O14 P5 1.534450 1_555
O14 Zr3 2.103746 1_555
O15 Si3 1.651291 1_555
O15 Sn1 2.030800 1_555
O16 P6 1.542477 1_555
O16 Sn1 2.067410 1_555
O17 P7 1.542952 1_555
O17 Sn1 2.071099 1_555
O18 P7 1.534559 1_555
O18 Sn2 2.048033 1_554
O19 Si3 1.638869 1_555
O19 Sn2 2.015060 1_554
O20 P6 1.548671 1_555
O20 Sn2 2.065598 1_554
O21 Si2 1.631070 1_555
O21 Zr4 2.066042 1_555
O22 P5 1.538340 1_555
O22 Zr4 2.056354 1_555
O23 P4 1.541900 1_555
O23 Zr4 2.088148 1_555
O24 P8 1.537345 1_555
O24 Sn3 2.069738 1_556
O25 P9 1.550026 1_555
O25 Sn3 2.105178 1_556
O26 Si4 1.638799 1_555
O26 Sn3 2.002867 1_556
O27 P10 1.544768 1_555
O27 Zr5 2.124004 1_555
O28 P11 1.532466 1_555
O28 Zr5 2.103023 1_555
O29 Si5 1.643414 1_555
O29 Zr5 1.981334 1_555
O30 Si5 1.636323 1_555
O30 Sn4 2.009400 1_555
O31 P10 1.549704 1_555
O31 Sn4 2.080859 1_555
O32 P11 1.537416 1_555
O32 Sn4 2.046720 1_555
O33 P9 1.550976 1_555
O33 Sn5 2.086081 1_555
O34 Si4 1.640020 1_555
O34 Sn5 2.022748 1_555
O35 P8 1.539287 1_555
O35 Sn5 2.047611 1_555
O36 Si5 1.640254 1_555
O36 Zr0 2.103619 1_465
O37 P10 1.539732 1_555
O37 Zr0 2.107364 1_565
O38 P11 1.556556 1_555
O38 Zr0 2.149346 1_455
O39 P9 1.542804 1_555
O39 Sn0 2.094266 1_455
O40 Si4 1.663637 1_555
O40 Sn0 2.043138 1_465
O41 P8 1.563009 1_555
O41 Sn0 2.153950 1_565
O42 P4 1.549211 1_555
O42 Zr1 2.166035 1_645
O43 Si2 1.623446 1_555
O43 Zr1 2.061896 1_545
O44 P5 1.554116 1_555
O44 Zr1 2.160910 1_655
O45 Si3 1.630011 1_555
O45 Zr2 2.064180 1_555
O46 P6 1.554815 1_555
O46 Zr2 2.168847 1_545
O47 P7 1.558159 1_555
O47 Zr2 2.171632 1_445
O48 Si1 1.656147 1_545
O48 Zr3 2.070722 1_555
O49 P2 1.552146 1_555
O49 Zr3 2.164241 1_555
O50 P3 1.529453 1_655
O50 Zr3 2.152531 1_555
O51 P1 1.556944 1_555
O51 Sn1 2.142799 1_555
O52 Si0 1.657244 1_655
O52 Sn1 2.053239 1_555
O53 P0 1.541786 1_555
O53 Sn1 2.100877 1_555
O54 P8 1.564423 1_555
O54 Sn2 2.124822 1_555
O55 P9 1.565694 1_655
O55 Sn2 2.174372 1_555
O56 Si4 1.638976 1_545
O56 Sn2 2.015398 1_555
O57 P10 1.550247 1_545
O57 Zr4 2.195780 1_555
O58 P11 1.552127 1_555
O58 Zr4 2.144059 1_555
O59 Si5 1.621789 1_655
O59 Zr4 2.052362 1_555
O60 P7 1.563134 1_555
O60 Sn3 2.145716 1_555
O61 Si3 1.660826 1_455
O61 Sn3 2.051546 1_555
O62 P6 1.544987 1_565
O62 Sn3 2.086532 1_555
O63 Si2 1.650296 1_565
O63 Zr5 2.070524 1_555
O64 P5 1.548323 1_555
O64 Zr5 2.193904 1_555
O65 P4 1.532947 1_455
O65 Zr5 2.114150 1_555
O66 P0 1.557018 1_565
O66 Sn4 2.159388 1_555
O67 P1 1.539111 1_555
O67 Sn4 2.094296 1_555
O68 Si0 1.654943 1_555
O68 Sn4 2.051138 1_555
O69 P2 1.542510 1_555
O69 Sn5 2.094826 1_555
O70 P3 1.558944 1_555
O70 Sn5 2.141740 1_555
O71 Si1 1.656450 1_555
O71 Sn5 2.040981 1_555
