# generated using pymatgen
data_In3(PO4)2
_symmetry_space_group_name_H-M   'P 1'
_cell_length_a   9.66534785
_cell_length_b   9.66533609
_cell_length_c   9.66536276
_cell_angle_alpha   109.47130781
_cell_angle_beta   109.47133285
_cell_angle_gamma   109.47120282
_symmetry_Int_Tables_number   1
_chemical_formula_structural   In3(PO4)2
_chemical_formula_sum   'In12 P8 O32'
_cell_volume   695.07191957
_cell_formula_units_Z   4
loop_
 _symmetry_equiv_pos_site_id
 _symmetry_equiv_pos_as_xyz
  1  'x, y, z'
loop_
 _atom_site_type_symbol
 _atom_site_label
 _atom_site_symmetry_multiplicity
 _atom_site_fract_x
 _atom_site_fract_y
 _atom_site_fract_z
 _atom_site_occupancy
  In  In0  1  0.99418636  0.24999932  0.24418569  1
  In  In1  1  0.75581287  0.25000037  0.00581379  1
  In  In2  1  0.74999925  0.49418737  0.74418690  1
  In  In3  1  0.00581333  0.75581277  0.25000010  1
  In  In4  1  0.25000018  0.00581403  0.75581325  1
  In  In5  1  0.49418663  0.74418607  0.74999896  1
  In  In6  1  0.50581404  0.74999993  0.25581354  1
  In  In7  1  0.24418561  0.99418548  0.24999921  1
  In  In8  1  0.25581398  0.50581450  0.75000050  1
  In  In9  1  0.24999965  0.24418674  0.99418672  1
  In  In10  1  0.75000037  0.25581381  0.50581468  1
  In  In11  1  0.74418586  0.74999917  0.49418606  1
  P  P0  1  0.50000081  -0.00000375  0.09004167  1
  P  P1  1  0.59004140  0.50000081  0.00000240  1
  P  P2  1  0.90995739  0.90995606  0.90995881  1
  P  P3  1  0.00000242  0.59004252  0.50000034  1
  P  P4  1  0.40995997  0.40995783  0.40995858  1
  P  P5  1  -0.00000148  0.09004375  0.50000650  1
  P  P6  1  0.09004324  0.50000231  -0.00000023  1
  P  P7  1  0.49999460  -0.00000435  0.59003801  1
  O  O0  1  0.50000046  0.00000057  0.92782700  1
  O  O1  1  0.42782840  0.49999990  0.00000034  1
  O  O2  1  0.07217263  0.07217294  0.07217297  1
  O  O3  1  0.00000027  0.42782796  0.49999990  1
  O  O4  1  0.57217253  0.57217273  0.57217296  1
  O  O5  1  0.00000026  0.92782713  0.49999953  1
  O  O6  1  0.92782654  0.49999994  0.00000025  1
  O  O7  1  0.50000005  -0.00000004  0.42782788  1
  O  O8  1  0.24452865  0.65665968  0.16325485  1
  O  O9  1  0.16325424  0.24452782  0.65665922  1
  O  O10  1  0.41872529  0.41213064  0.25547089  1
  O  O11  1  0.50659464  0.84334280  0.08786909  1
  O  O12  1  0.33674380  0.99340497  0.08127385  1
  O  O13  1  0.65666063  0.16325586  0.24452892  1
  O  O14  1  0.58786962  0.34333990  0.00659433  1
  O  O15  1  0.83674390  0.58127431  0.49340488  1
  O  O16  1  0.91213084  0.91872572  0.75547065  1
  O  O17  1  0.49340500  0.83674625  0.58127438  1
  O  O18  1  0.34334202  0.00659485  0.58786914  1
  O  O19  1  0.15665965  0.74452862  0.66325445  1
  O  O20  1  0.66325819  0.15666336  0.74453284  1
  O  O21  1  0.08127427  0.33674336  0.99340500  1
  O  O22  1  0.84334286  0.08786850  0.50659431  1
  O  O23  1  0.41213118  0.25547237  0.41872601  1
  O  O24  1  0.08786866  0.50659460  0.84334104  1
  O  O25  1  0.99340458  0.08127367  0.33673974  1
  O  O26  1  0.25546977  0.41872529  0.41213084  1
  O  O27  1  0.00659432  0.58786922  0.34333975  1
  O  O28  1  0.91872490  0.75547189  0.91213061  1
  O  O29  1  0.75547143  0.91213076  0.91872566  1
  O  O30  1  0.58127460  0.49340502  0.83674337  1
  O  O31  1  0.74452935  0.66325463  0.15665992  1
loop_
_geom_bond_atom_site_label_1
_geom_bond_atom_site_label_2
_geom_bond_distance
_geom_bond_site_symmetry_2
In0 O25 2.104436 1_555
In0 O26 2.104457 1_655
In0 O2 2.465868 1_655
In0 O3 2.465887 1_655
In1 O20 2.104445 1_554
In1 O14 2.104452 1_555
In1 O0 2.465867 1_554
In1 O6 2.465874 1_555
In2 O30 2.104445 1_555
In2 O28 2.104461 1_555
In2 O4 2.465870 1_555
In2 O6 2.465883 1_556
In3 O27 2.104458 1_555
In3 O31 2.104462 1_455
In3 O6 2.465869 1_455
In3 O5 2.465875 1_555
In4 O19 2.104471 1_545
In4 O18 2.104480 1_555
In4 O5 2.465875 1_545
In4 O0 2.465879 1_555
In5 O29 2.104467 1_555
In5 O17 2.104470 1_555
In5 O4 2.465867 1_555
In5 O0 2.465884 1_565
In6 O8 2.104474 1_555
In6 O11 2.104489 1_555
In6 O1 2.465876 1_555
In6 O7 2.465881 1_565
In7 O12 2.104466 1_555
In7 O23 2.104480 1_565
In7 O2 2.465878 1_565
In7 O7 2.465884 1_565
In8 O24 2.104480 1_555
In8 O9 2.104480 1_555
In8 O3 2.465880 1_555
In8 O1 2.465886 1_556
In9 O21 2.104450 1_555
In9 O10 2.104462 1_556
In9 O1 2.465879 1_556
In9 O2 2.465880 1_556
In10 O13 2.104481 1_555
In10 O22 2.104488 1_555
In10 O7 2.465877 1_555
In10 O3 2.465887 1_655
In11 O15 2.104454 1_555
In11 O16 2.104467 1_555
In11 O4 2.465879 1_555
In11 O5 2.465888 1_655
O0 P0 1.567876 1_556
O1 P1 1.567836 1_555
O2 P2 1.567864 1_444
O3 P3 1.567850 1_555
O4 P4 1.567850 1_555
O5 P5 1.567861 1_565
O6 P6 1.567875 1_655
O7 P7 1.567851 1_555
O8 P6 1.530101 1_555
O9 P5 1.530085 1_555
O10 P4 1.530117 1_555
O11 P0 1.530050 1_565
O12 P0 1.530150 1_565
O13 P0 1.530131 1_555
O14 P1 1.530118 1_555
O15 P3 1.530150 1_655
O16 P2 1.530139 1_555
O17 P7 1.530092 1_565
O18 P7 1.530074 1_555
O19 P3 1.530100 1_555
O20 P7 1.530192 1_555
O21 P6 1.530152 1_556
O22 P5 1.530044 1_655
O23 P4 1.530094 1_555
O24 P6 1.530094 1_556
O25 P5 1.530231 1_655
O26 P4 1.530145 1_555
O27 P3 1.530114 1_555
O28 P2 1.530084 1_555
O29 P2 1.530109 1_555
O30 P1 1.530160 1_556
O31 P1 1.530105 1_555
