# generated using pymatgen
data_CsSbSI2
_symmetry_space_group_name_H-M   'P 1'
_cell_length_a   11.81509226
_cell_length_b   12.06875600
_cell_length_c   11.94371549
_cell_angle_alpha   90.00000000
_cell_angle_beta   90.01669477
_cell_angle_gamma   90.00000000
_symmetry_Int_Tables_number   1
_chemical_formula_structural   CsSbSI2
_chemical_formula_sum   'Cs8 Sb8 S8 I16'
_cell_volume   1703.09571183
_cell_formula_units_Z   8
loop_
 _symmetry_equiv_pos_site_id
 _symmetry_equiv_pos_as_xyz
  1  'x, y, z'
loop_
 _atom_site_type_symbol
 _atom_site_label
 _atom_site_symmetry_multiplicity
 _atom_site_fract_x
 _atom_site_fract_y
 _atom_site_fract_z
 _atom_site_occupancy
  Cs  Cs0  1  0.23365100  0.25000000  0.99165200  1
  Cs  Cs1  1  0.76634900  0.75000000  0.00834800  1
  Cs  Cs2  1  0.75767900  0.25000000  0.99352300  1
  Cs  Cs3  1  0.24232100  0.75000000  0.00647700  1
  Cs  Cs4  1  0.24502300  0.25000000  0.51453200  1
  Cs  Cs5  1  0.75497700  0.75000000  0.48546800  1
  Cs  Cs6  1  0.74781400  0.25000000  0.50543600  1
  Cs  Cs7  1  0.25218600  0.75000000  0.49456400  1
  Sb  Sb0  1  0.93912600  0.45992900  0.24892000  1
  Sb  Sb1  1  0.06087400  0.95992900  0.75108000  1
  Sb  Sb2  1  0.06087400  0.54007100  0.75108000  1
  Sb  Sb3  1  0.93912600  0.04007100  0.24892000  1
  Sb  Sb4  1  0.50657500  0.49722200  0.20999500  1
  Sb  Sb5  1  0.49342500  0.99722200  0.79000500  1
  Sb  Sb6  1  0.49342500  0.50277800  0.79000500  1
  Sb  Sb7  1  0.50657500  0.00277800  0.20999500  1
  S  S0  1  0.97394000  0.25000000  0.24499400  1
  S  S1  1  0.02606000  0.75000000  0.75500600  1
  S  S2  1  0.25770600  0.50596000  0.74440700  1
  S  S3  1  0.74229400  0.00596000  0.25559300  1
  S  S4  1  0.74229400  0.49404000  0.25559300  1
  S  S5  1  0.25770600  0.99404000  0.74440700  1
  S  S6  1  0.50000000  0.00000000  0.00000000  1
  S  S7  1  0.50000000  0.50000000  0.00000000  1
  I  I0  1  0.26073900  0.49691300  0.23796900  1
  I  I1  1  0.73926100  0.99691300  0.76203100  1
  I  I2  1  0.73926100  0.50308700  0.76203100  1
  I  I3  1  0.26073900  0.00308700  0.23796900  1
  I  I4  1  0.00000000  0.00000000  0.00000000  1
  I  I5  1  0.00000000  0.50000000  0.00000000  1
  I  I6  1  0.00528300  0.25000000  0.74999200  1
  I  I7  1  0.99471700  0.75000000  0.25000800  1
  I  I8  1  0.00000000  0.00000000  0.50000000  1
  I  I9  1  0.00000000  0.50000000  0.50000000  1
  I  I10  1  0.51300600  0.25000000  0.24374700  1
  I  I11  1  0.48699400  0.75000000  0.75625300  1
  I  I12  1  0.48423300  0.25000000  0.76063800  1
  I  I13  1  0.51576700  0.75000000  0.23936200  1
  I  I14  1  0.50000000  0.00000000  0.50000000  1
  I  I15  1  0.50000000  0.50000000  0.50000000  1
loop_
_geom_bond_atom_site_label_1
_geom_bond_atom_site_label_2
_geom_bond_distance
_geom_bond_site_symmetry_2
Cs0 I6 3.950509 1_555
Cs0 I12 4.047617 1_555
Cs0 I4 4.090781 1_556
Cs0 I5 4.090781 1_556
Cs0 I3 4.199630 1_556
Cs0 I0 4.199630 1_556
Cs1 I7 3.950509 1_555
Cs1 I13 4.047617 1_555
Cs1 I5 4.090781 1_655
Cs1 I4 4.090781 1_665
Cs1 I1 4.199630 1_554
Cs1 I2 4.199630 1_554
Cs2 S0 3.942751 1_556
Cs2 I2 4.125672 1_555
Cs2 I1 4.125672 1_545
Cs2 I6 4.125970 1_655
Cs2 I10 4.158571 1_556
Cs2 I5 4.160086 1_656
Cs2 I4 4.160086 1_656
Cs2 I12 4.262578 1_555
Cs3 S1 3.942751 1_554
Cs3 I3 4.125672 1_565
Cs3 I0 4.125672 1_555
Cs3 I7 4.125970 1_455
Cs3 I11 4.158571 1_554
Cs3 I5 4.160086 1_555
Cs3 I4 4.160086 1_565
Cs3 I13 4.262578 1_555
Cs4 I6 3.992096 1_555
Cs4 I12 4.077162 1_555
Cs4 S5 4.135575 1_545
Cs4 S2 4.135575 1_555
Cs4 I9 4.184986 1_555
Cs4 I8 4.184986 1_555
Cs4 I15 4.267257 1_555
Cs4 I14 4.267257 1_555
Cs4 I0 4.452628 1_555
Cs4 I3 4.452628 1_555
Cs4 I10 4.526697 1_555
Cs5 I7 3.992096 1_555
Cs5 I13 4.077162 1_555
Cs5 S4 4.135575 1_555
Cs5 S3 4.135575 1_565
Cs5 I8 4.184986 1_665
Cs5 I9 4.184986 1_655
Cs5 I14 4.267257 1_565
Cs5 I15 4.267257 1_555
Cs5 I1 4.452628 1_555
Cs5 I2 4.452628 1_555
Cs5 I11 4.526697 1_555
Cs6 S0 4.101089 1_555
Cs6 I10 4.178584 1_555
Cs6 S4 4.193241 1_555
Cs6 S3 4.193241 1_555
Cs6 I15 4.204806 1_555
Cs6 I14 4.204806 1_555
Cs6 I6 4.216682 1_655
Cs6 I8 4.240964 1_655
Cs6 I9 4.240964 1_655
Cs6 I2 4.328094 1_555
Cs6 I1 4.328094 1_545
Cs6 I12 4.358286 1_555
Cs7 S1 4.101089 1_555
Cs7 I11 4.178584 1_555
Cs7 S2 4.193241 1_555
Cs7 S5 4.193241 1_555
Cs7 I15 4.204806 1_555
Cs7 I14 4.204806 1_565
Cs7 I7 4.216682 1_455
Cs7 I8 4.240964 1_565
Cs7 I9 4.240964 1_555
Cs7 I3 4.328094 1_565
Cs7 I0 4.328094 1_555
Cs7 I13 4.358286 1_555
S0 Sb0 2.567185 1_555
S0 Sb3 2.567185 1_555
S1 Sb1 2.567185 1_555
S1 Sb2 2.567185 1_555
S2 Sb2 2.363112 1_555
S2 Sb6 2.837895 1_555
S3 Sb3 2.363112 1_555
S3 Sb7 2.837895 1_555
S4 Sb0 2.363112 1_555
S4 Sb4 2.837895 1_555
S5 Sb1 2.363112 1_555
S5 Sb5 2.837895 1_555
S6 Sb7 2.509525 1_555
S6 Sb5 2.509525 1_544
S7 Sb4 2.509525 1_555
S7 Sb6 2.509525 1_554
I0 Sb4 2.923828 1_555
I1 Sb5 2.923828 1_555
I2 Sb6 2.923828 1_555
I3 Sb7 2.923828 1_555
I4 Sb1 3.096986 1_544
I4 Sb3 3.096986 1_455
I5 Sb2 3.096986 1_554
I5 Sb0 3.096986 1_455
I8 Sb3 3.121359 1_455
I8 Sb1 3.121359 1_545
I9 Sb2 3.121359 1_555
I9 Sb0 3.121359 1_455
I10 Sb4 3.011728 1_555
I10 Sb7 3.011728 1_555
I11 Sb5 3.011728 1_555
I11 Sb6 3.011728 1_555
I12 Sb6 3.072730 1_555
I12 Sb5 3.072730 1_545
I13 Sb7 3.072730 1_565
I13 Sb4 3.072730 1_555
I14 Sb5 3.464793 1_545
I14 Sb7 3.464793 1_555
I15 Sb6 3.464793 1_555
I15 Sb4 3.464793 1_555
