# generated using pymatgen
data_Gd(LuS2)3
_symmetry_space_group_name_H-M   'P 1'
_cell_length_a   3.87894252
_cell_length_b   10.86115314
_cell_length_c   11.08928537
_cell_angle_alpha   70.95151172
_cell_angle_beta   90.00000000
_cell_angle_gamma   90.00000000
_symmetry_Int_Tables_number   1
_chemical_formula_structural   Gd(LuS2)3
_chemical_formula_sum   'Gd2 Lu6 S12'
_cell_volume   441.60723478
_cell_formula_units_Z   2
loop_
 _symmetry_equiv_pos_site_id
 _symmetry_equiv_pos_as_xyz
  1  'x, y, z'
loop_
 _atom_site_type_symbol
 _atom_site_label
 _atom_site_symmetry_multiplicity
 _atom_site_fract_x
 _atom_site_fract_y
 _atom_site_fract_z
 _atom_site_occupancy
  Gd  Gd0  1  0.25000000  0.45263630  0.19406632  1
  Gd  Gd1  1  0.75000000  0.54736370  0.80593368  1
  Lu  Lu0  1  0.75000000  0.93867467  0.66716928  1
  Lu  Lu1  1  0.25000000  0.06132533  0.33283072  1
  Lu  Lu2  1  0.75000000  0.18106168  0.99848618  1
  Lu  Lu3  1  0.25000000  0.81893832  0.00151382  1
  Lu  Lu4  1  0.25000000  0.33865057  0.58643918  1
  Lu  Lu5  1  0.75000000  0.66134943  0.41356082  1
  S  S0  1  0.75000000  0.61567718  0.03659241  1
  S  S1  1  0.25000000  0.38432282  0.96340759  1
  S  S2  1  0.75000000  0.97655921  0.88774396  1
  S  S3  1  0.25000000  0.02344079  0.11225604  1
  S  S4  1  0.75000000  0.30329002  0.74938669  1
  S  S5  1  0.25000000  0.69670998  0.25061331  1
  S  S6  1  0.75000000  0.23724366  0.22725387  1
  S  S7  1  0.25000000  0.76275634  0.77274613  1
  S  S8  1  0.25000000  0.58107487  0.59411475  1
  S  S9  1  0.75000000  0.41892513  0.40588525  1
  S  S10  1  0.25000000  0.10523663  0.55995886  1
  S  S11  1  0.75000000  0.89476337  0.44004114  1
loop_
_geom_bond_atom_site_label_1
_geom_bond_atom_site_label_2
_geom_bond_distance
_geom_bond_site_symmetry_2
Gd0 S0 2.815728 1_555
Gd0 S0 2.815728 1_455
Gd0 S1 2.886492 1_554
Gd0 S5 2.916443 1_555
Gd0 S6 2.967804 1_455
Gd0 S6 2.967804 1_555
Gd0 S9 2.975174 1_455
Gd0 S9 2.975174 1_555
Gd1 S1 2.815728 1_655
Gd1 S1 2.815728 1_555
Gd1 S0 2.886492 1_556
Gd1 S4 2.916443 1_555
Gd1 S7 2.967804 1_555
Gd1 S7 2.967804 1_655
Gd1 S8 2.975174 1_655
Gd1 S8 2.975174 1_555
Lu0 S2 2.609455 1_555
Lu0 S10 2.654016 1_665
Lu0 S10 2.654016 1_565
Lu0 S7 2.706065 1_655
Lu0 S7 2.706065 1_555
Lu0 S11 2.712073 1_555
Lu1 S3 2.609455 1_555
Lu1 S11 2.654016 1_445
Lu1 S11 2.654016 1_545
Lu1 S6 2.706065 1_555
Lu1 S6 2.706065 1_455
Lu1 S10 2.712073 1_555
Lu2 S3 2.621870 1_556
Lu2 S3 2.621870 1_656
Lu2 S4 2.645601 1_555
Lu2 S6 2.796157 1_556
Lu2 S2 2.867401 1_545
Lu2 S1 2.868107 1_655
Lu2 S1 2.868107 1_555
Lu3 S2 2.621870 1_554
Lu3 S2 2.621870 1_454
Lu3 S5 2.645601 1_555
Lu3 S7 2.796157 1_554
Lu3 S3 2.867401 1_565
Lu3 S0 2.868107 1_555
Lu3 S0 2.868107 1_455
Lu4 S4 2.592529 1_455
Lu4 S4 2.592529 1_555
Lu4 S10 2.645583 1_555
Lu4 S8 2.662003 1_555
Lu4 S9 2.718659 1_455
Lu4 S9 2.718659 1_555
Lu5 S5 2.592529 1_555
Lu5 S5 2.592529 1_655
Lu5 S11 2.645583 1_555
Lu5 S9 2.662003 1_555
Lu5 S8 2.718659 1_555
Lu5 S8 2.718659 1_655
