# generated using pymatgen
data_Na6MgMo2(NO3)2
_symmetry_space_group_name_H-M   'P 1'
_cell_length_a   6.00655078
_cell_length_b   6.53554378
_cell_length_c   7.03799100
_cell_angle_alpha   90.00000000
_cell_angle_beta   90.00000000
_cell_angle_gamma   90.43518172
_symmetry_Int_Tables_number   1
_chemical_formula_structural   Na6MgMo2(NO3)2
_chemical_formula_sum   'Na6 Mg1 Mo2 N2 O6'
_cell_volume   276.27593704
_cell_formula_units_Z   1
loop_
 _symmetry_equiv_pos_site_id
 _symmetry_equiv_pos_as_xyz
  1  'x, y, z'
loop_
 _atom_site_type_symbol
 _atom_site_label
 _atom_site_symmetry_multiplicity
 _atom_site_fract_x
 _atom_site_fract_y
 _atom_site_fract_z
 _atom_site_occupancy
  Na  Na0  1  0.50472600  0.85218400  0.00000000  1
  Na  Na1  1  0.54915200  0.32657100  0.25397100  1
  Na  Na2  1  0.54915200  0.32657100  0.74602900  1
  Na  Na3  1  0.98968600  0.71404500  0.78796800  1
  Na  Na4  1  0.98664600  0.05595000  0.50000000  1
  Na  Na5  1  0.98968600  0.71404500  0.21203200  1
  Mg  Mg0  1  0.14378100  0.44850800  0.50000000  1
  Mo  Mo0  1  0.49733800  0.81280000  0.50000000  1
  Mo  Mo1  1  0.01407700  0.20390500  0.00000000  1
  N  N0  1  0.72659700  0.16607000  0.00000000  1
  N  N1  1  0.19440800  0.75023400  0.50000000  1
  O  O0  1  0.62195700  0.67973900  0.71928600  1
  O  O1  1  0.11953100  0.32310600  0.74854800  1
  O  O2  1  0.11953100  0.32310600  0.25145100  1
  O  O3  1  0.62195700  0.67973900  0.28071400  1
  O  O4  1  0.13604100  0.92961700  0.00000000  1
  O  O5  1  0.59964700  0.08964200  0.50000000  1
loop_
_geom_bond_atom_site_label_1
_geom_bond_atom_site_label_2
_geom_bond_distance
_geom_bond_site_symmetry_2
Na0 O4 2.275357 1_555
Na0 O3 2.383550 1_555
Na0 O0 2.383550 1_554
Na1 O5 2.344167 1_555
Na1 O3 2.353479 1_555
Na1 O2 2.580529 1_555
Na2 O5 2.344167 1_555
Na2 O0 2.353479 1_555
Na2 O1 2.580529 1_555
Na3 O4 2.228413 1_656
Na3 O0 2.270491 1_555
Na3 O1 2.691382 1_655
Na4 O5 2.336599 1_555
Na4 O1 2.593154 1_655
Na4 O2 2.593159 1_655
Na5 O4 2.228413 1_655
Na5 O3 2.270491 1_555
Na5 O2 2.691381 1_655
Mg0 O1 1.936769 1_555
Mg0 O2 1.936775 1_555
Mg0 N1 1.992969 1_555
Mo0 N1 1.861911 1_555
Mo0 O5 1.906401 1_565
Mo0 O0 1.925698 1_555
Mo0 O3 1.925698 1_555
Mo1 N0 1.742518 1_455
Mo1 O4 1.941679 1_545
Mo1 O2 2.032855 1_555
Mo1 O1 2.032861 1_554
N0 Na1 2.334152 1_555
N0 Na2 2.334152 1_554
N0 Na0 2.437788 1_545
N1 Na4 2.363747 1_465
N1 Na5 2.381427 1_455
N1 Na3 2.381427 1_455
