# generated using pymatgen
data_MgCo6(O2F)4
_symmetry_space_group_name_H-M   'P 1'
_cell_length_a   5.18210553
_cell_length_b   5.18210176
_cell_length_c   8.81254495
_cell_angle_alpha   88.13340174
_cell_angle_beta   91.86655372
_cell_angle_gamma   106.12589373
_symmetry_Int_Tables_number   1
_chemical_formula_structural   MgCo6(O2F)4
_chemical_formula_sum   'Mg1 Co6 O8 F4'
_cell_volume   227.15353708
_cell_formula_units_Z   1
loop_
 _symmetry_equiv_pos_site_id
 _symmetry_equiv_pos_as_xyz
  1  'x, y, z'
loop_
 _atom_site_type_symbol
 _atom_site_label
 _atom_site_symmetry_multiplicity
 _atom_site_fract_x
 _atom_site_fract_y
 _atom_site_fract_z
 _atom_site_occupancy
  Mg  Mg0  1  0.72165978  0.27834022  0.01569855  1
  Co  Co0  1  0.04573131  0.95426869  0.00304789  1
  Co  Co1  1  -0.00092828  0.00092828  0.35632352  1
  Co  Co2  1  0.00540941  0.99459059  0.65279674  1
  Co  Co3  1  0.46034937  0.53965063  0.17874869  1
  Co  Co4  1  0.45722285  0.54277715  0.82421722  1
  Co  Co5  1  0.41954261  0.58045739  0.50040760  1
  O  O0  1  0.17112541  0.82887459  0.48612097  1
  O  O1  1  0.28942281  0.32827733  0.35010304  1
  O  O2  1  0.33574402  0.27805265  0.98862539  1
  O  O3  1  0.27513818  0.35035135  0.65950913  1
  O  O4  1  0.64964865  0.72486182  0.65950813  1
  O  O5  1  0.72194735  0.66425598  0.98862439  1
  O  O6  1  0.67172167  0.71057819  0.35010304  1
  O  O7  1  0.89610294  0.10389706  0.16543195  1
  F  F0  1  0.22285131  0.77714769  0.15099659  1
  F  F1  1  0.19332304  0.80667796  0.82338386  1
  F  F2  1  0.85036605  0.14963295  0.84332907  1
  F  F3  1  0.82195451  0.17804649  0.49588022  1
loop_
_geom_bond_atom_site_label_1
_geom_bond_atom_site_label_2
_geom_bond_distance
_geom_bond_site_symmetry_2
Mg0 O7 1.916785 1_555
Mg0 O5 2.005899 1_554
Mg0 O2 2.005900 1_554
Co0 O2 1.920380 1_564
Co0 O5 1.920381 1_454
Co0 F0 1.922732 1_555
Co0 O7 1.931014 1_465
Co0 F1 2.039483 1_554
Co0 F2 2.101130 1_464
Co1 O0 1.790811 1_545
Co1 O7 1.854883 1_455
Co1 O1 1.930288 1_555
Co1 O6 1.930288 1_445
Co1 F3 1.952547 1_455
Co2 O3 1.981493 1_565
Co2 O4 1.981493 1_455
Co2 F3 2.012613 1_465
Co2 O0 2.050955 1_555
Co2 F1 2.119545 1_555
Co2 F2 2.155158 1_465
Co3 O1 1.924865 1_555
Co3 O6 1.924866 1_555
Co3 F0 1.972674 1_555
Co3 O2 2.157106 1_554
Co3 O5 2.157113 1_554
Co4 O3 1.863850 1_555
Co4 O4 1.863855 1_555
Co4 O5 1.956420 1_555
Co4 O2 1.956425 1_555
Co4 F1 2.185882 1_555
Co5 O4 1.847015 1_555
Co5 O3 1.847020 1_555
Co5 O6 1.866014 1_555
Co5 O1 1.866017 1_555
Co5 O0 2.056626 1_555
F2 Mg0 1.891090 1_556
