# generated using pymatgen
data_MgV4O7F5
_symmetry_space_group_name_H-M   'P 1'
_cell_length_a   5.14910033
_cell_length_b   5.45359312
_cell_length_c   8.91368698
_cell_angle_alpha   73.82257496
_cell_angle_beta   90.87157271
_cell_angle_gamma   60.34390433
_symmetry_Int_Tables_number   1
_chemical_formula_structural   MgV4O7F5
_chemical_formula_sum   'Mg1 V4 O7 F5'
_cell_volume   205.36234853
_cell_formula_units_Z   1
loop_
 _symmetry_equiv_pos_site_id
 _symmetry_equiv_pos_as_xyz
  1  'x, y, z'
loop_
 _atom_site_type_symbol
 _atom_site_label
 _atom_site_symmetry_multiplicity
 _atom_site_fract_x
 _atom_site_fract_y
 _atom_site_fract_z
 _atom_site_occupancy
  Mg  Mg0  1  0.56484900  0.88032700  0.85586400  1
  V  V0  1  0.69484200  0.49298300  0.26473200  1
  V  V1  1  0.45940100  0.00407700  0.48781600  1
  V  V2  1  0.25346400  0.54163500  0.75581400  1
  V  V3  1  0.00259000  0.98531800  0.01228300  1
  O  O0  1  0.53787100  0.72367100  0.37478100  1
  O  O1  1  0.43601100  0.74754600  0.06558600  1
  O  O2  1  0.45074000  0.74405300  0.68844900  1
  O  O3  1  0.57563400  0.24983300  0.32161100  1
  O  O4  1  0.61347800  0.22003800  0.91633200  1
  O  O5  1  0.02054200  0.72473100  0.87771100  1
  O  O6  1  0.08305200  0.23576700  0.41258900  1
  F  F0  1  0.92609000  0.76616300  0.56892200  1
  F  F1  1  0.94272200  0.73268900  0.18251400  1
  F  F2  1  0.97396500  0.25387100  0.12356100  1
  F  F3  1  0.47349900  0.22786200  0.63626400  1
  F  F4  1  0.11625100  0.21943400  0.82660000  1
loop_
_geom_bond_atom_site_label_1
_geom_bond_atom_site_label_2
_geom_bond_distance
_geom_bond_site_symmetry_2
Mg0 O2 2.036636 1_555
Mg0 O5 2.046289 1_655
Mg0 O1 2.053756 1_556
Mg0 O4 2.190180 1_565
O0 V0 1.704061 1_555
O0 V1 1.943308 1_565
O1 V0 1.891683 1_555
O1 V3 1.910100 1_555
O2 V2 1.835719 1_555
O2 V1 1.965468 1_565
O3 V0 1.683007 1_555
O3 V1 2.015851 1_555
O4 V3 1.784432 1_646
O4 V2 1.965514 1_555
O5 V2 1.753618 1_555
O5 V3 2.071310 1_556
O6 V1 1.693149 1_555
O6 V0 1.953282 1_455
F0 V2 1.962500 1_655
F0 V1 2.078391 1_565
F1 V3 1.888187 1_655
F1 V0 2.240731 1_555
F2 V3 1.936722 1_645
F2 V0 2.112884 1_555
F3 V1 2.056756 1_555
F3 V2 2.116994 1_555
F3 Mg0 2.160449 1_545
F4 V3 2.074483 1_546
F4 Mg0 2.075873 1_545
F4 V2 2.146901 1_555
