# generated using pymatgen
data_RbTe6
_symmetry_space_group_name_H-M   'P 1'
_cell_length_a   7.03054984
_cell_length_b   7.03054878
_cell_length_c   12.52901150
_cell_angle_alpha   93.08637037
_cell_angle_beta   105.50243489
_cell_angle_gamma   115.32403105
_symmetry_Int_Tables_number   1
_chemical_formula_structural   RbTe6
_chemical_formula_sum   'Rb2 Te12'
_cell_volume   529.26558037
_cell_formula_units_Z   2
loop_
 _symmetry_equiv_pos_site_id
 _symmetry_equiv_pos_as_xyz
  1  'x, y, z'
loop_
 _atom_site_type_symbol
 _atom_site_label
 _atom_site_symmetry_multiplicity
 _atom_site_fract_x
 _atom_site_fract_y
 _atom_site_fract_z
 _atom_site_occupancy
  Rb  Rb0  1  0.88119450  0.63119450  0.25000000  1
  Rb  Rb1  1  0.11880550  0.36880550  0.75000000  1
  Te  Te0  1  0.15226235  0.22942512  0.35245185  1
  Te  Te1  1  0.37697326  0.79981050  0.14754815  1
  Te  Te2  1  0.54886823  0.77095453  0.40642983  1
  Te  Te3  1  0.86452470  0.14243840  0.09357017  1
  Te  Te4  1  0.45113177  0.22904547  0.59357017  1
  Te  Te5  1  0.13547530  0.85756160  0.90642983  1
  Te  Te6  1  0.81833801  0.21333742  0.43669449  1
  Te  Te7  1  0.27664392  0.38164551  0.06330551  1
  Te  Te8  1  0.18166199  0.78666258  0.56330551  1
  Te  Te9  1  0.72335608  0.61835449  0.93669449  1
  Te  Te10  1  0.62302674  0.20018950  0.85245185  1
  Te  Te11  1  0.84773765  0.77057488  0.64754815  1
loop_
_geom_bond_atom_site_label_1
_geom_bond_atom_site_label_2
_geom_bond_distance
_geom_bond_site_symmetry_2
Rb0 Te9 3.767759 1_554
Rb0 Te8 3.767761 1_655
Rb0 Te0 3.771353 1_665
Rb0 Te1 3.771353 1_655
Rb0 Te3 3.803960 1_555
Rb0 Te2 3.803960 1_555
Rb0 Te7 3.805129 1_555
Rb0 Te6 3.805134 1_555
Rb0 Te0 4.116571 1_655
Rb0 Te1 4.116572 1_555
Rb0 Te3 4.215485 1_565
Rb0 Te2 4.215486 1_655
Rb1 Te7 3.767759 1_556
Rb1 Te6 3.767761 1_455
Rb1 Te11 3.771353 1_445
Rb1 Te10 3.771353 1_455
Rb1 Te5 3.803960 1_555
Rb1 Te4 3.803960 1_555
Rb1 Te9 3.805129 1_555
Rb1 Te8 3.805134 1_555
Rb1 Te11 4.116571 1_455
Rb1 Te10 4.116572 1_555
Rb1 Te5 4.215485 1_545
Rb1 Te4 4.215486 1_455
Te0 Te6 2.783644 1_455
Te0 Te4 3.186509 1_555
Te0 Te3 3.194897 1_455
Te0 Te2 3.515745 1_555
Te1 Te7 2.783633 1_555
Te1 Te5 3.186509 1_554
Te1 Te2 3.194897 1_555
Te1 Te3 3.515745 1_565
Te2 Te6 2.802598 1_565
Te3 Te7 2.802607 1_655
Te4 Te8 2.802598 1_545
Te5 Te9 2.802607 1_455
Te10 Te9 2.783633 1_555
Te10 Te3 3.186509 1_556
Te10 Te4 3.194897 1_555
Te10 Te5 3.515745 1_545
Te11 Te8 2.783644 1_655
Te11 Te2 3.186509 1_555
Te11 Te5 3.194897 1_655
Te11 Te4 3.515745 1_555
