# generated using pymatgen
data_Na2Mg(Cu2O3)2
_symmetry_space_group_name_H-M   'P 1'
_cell_length_a   4.27997979
_cell_length_b   9.66600533
_cell_length_c   3.85086784
_cell_angle_alpha   90.00000000
_cell_angle_beta   80.78352214
_cell_angle_gamma   90.00000000
_symmetry_Int_Tables_number   1
_chemical_formula_structural   Na2Mg(Cu2O3)2
_chemical_formula_sum   'Na2 Mg1 Cu4 O6'
_cell_volume   157.25491305
_cell_formula_units_Z   1
loop_
 _symmetry_equiv_pos_site_id
 _symmetry_equiv_pos_as_xyz
  1  'x, y, z'
loop_
 _atom_site_type_symbol
 _atom_site_label
 _atom_site_symmetry_multiplicity
 _atom_site_fract_x
 _atom_site_fract_y
 _atom_site_fract_z
 _atom_site_occupancy
  Na  Na0  1  0.37599999  0.25000000  0.46788281  1
  Na  Na1  1  0.67037490  0.75000000  0.62847308  1
  Mg  Mg0  1  0.99254136  0.25000000  0.06856701  1
  Cu  Cu0  1  0.20945723  0.58755092  0.16085053  1
  Cu  Cu1  1  0.20945723  0.91244908  0.16085053  1
  Cu  Cu2  1  0.74170774  0.06084455  0.79400275  1
  Cu  Cu3  1  0.74170774  0.43915545  0.79400275  1
  O  O0  1  0.25441797  0.08519133  0.92538680  1
  O  O1  1  0.18980680  0.75000000  0.40442256  1
  O  O2  1  0.25441797  0.41480767  0.92538680  1
  O  O3  1  0.84248590  0.25000000  0.58143259  1
  O  O4  1  0.71416958  0.57889204  0.12770438  1
  O  O5  1  0.71416958  0.92110796  0.12770438  1
loop_
_geom_bond_atom_site_label_1
_geom_bond_atom_site_label_2
_geom_bond_distance
_geom_bond_site_symmetry_2
Na0 O3 2.111177 1_555
Na0 O3 2.255086 1_455
Na0 O2 2.370392 1_555
Na0 O0 2.370398 1_555
Na0 O2 2.742448 1_554
Na0 O0 2.742453 1_554
Na1 O1 2.252200 1_655
Na1 O1 2.354438 1_555
Na1 O4 2.524587 1_555
Na1 O5 2.524587 1_555
Na1 O4 2.565532 1_556
Na1 O5 2.565532 1_556
Mg0 O2 1.974854 1_654
Mg0 O0 1.974862 1_654
Mg0 O3 1.976536 1_555
Mg0 O3 2.077824 1_554
Cu0 O1 1.824065 1_555
Cu0 O2 1.895082 1_554
Cu0 O4 2.145055 1_555
Cu0 O4 2.145603 1_455
Cu1 O1 1.824065 1_555
Cu1 O0 1.895074 1_564
Cu1 O5 2.145055 1_555
Cu1 O5 2.145603 1_455
Cu2 O5 1.855015 1_546
Cu2 O3 2.021381 1_555
Cu2 O0 2.079192 1_555
Cu2 O0 2.341441 1_655
Cu3 O4 1.855015 1_556
Cu3 O3 2.021381 1_555
Cu3 O2 2.079193 1_555
Cu3 O2 2.341442 1_655
