# generated using pymatgen
data_Tb2MgV2O8
_symmetry_space_group_name_H-M   'P 1'
_cell_length_a   6.05598295
_cell_length_b   6.21777979
_cell_length_c   6.05598286
_cell_angle_alpha   105.50782153
_cell_angle_beta   105.90997668
_cell_angle_gamma   116.07931960
_symmetry_Int_Tables_number   1
_chemical_formula_structural   Tb2MgV2O8
_chemical_formula_sum   'Tb2 Mg1 V2 O8'
_cell_volume   175.99714926
_cell_formula_units_Z   1
loop_
 _symmetry_equiv_pos_site_id
 _symmetry_equiv_pos_as_xyz
  1  'x, y, z'
loop_
 _atom_site_type_symbol
 _atom_site_label
 _atom_site_symmetry_multiplicity
 _atom_site_fract_x
 _atom_site_fract_y
 _atom_site_fract_z
 _atom_site_occupancy
  Tb  Tb0  1  0.15310900  0.91244200  0.29619300  1
  Tb  Tb1  1  0.88375100  0.08755800  0.74066700  1
  Mg  Mg0  1  0.73620900  0.50000000  0.73620900  1
  V  V0  1  0.35602500  0.64635100  0.75848000  1
  V  V1  1  0.61212900  0.35364900  0.20967400  1
  O  O0  1  0.82978400  0.71198800  0.46482100  1
  O  O1  1  0.39051700  0.80264800  0.55460700  1
  O  O2  1  0.73761700  0.80463100  0.94552100  1
  O  O3  1  0.77460700  0.35378900  0.00519100  1
  O  O4  1  0.64089000  0.19536900  0.43298600  1
  O  O5  1  0.25283300  0.28801200  0.61779600  1
  O  O6  1  0.15140300  0.64621100  0.92081900  1
  O  O7  1  0.25195900  0.19735200  0.08786800  1
loop_
_geom_bond_atom_site_label_1
_geom_bond_atom_site_label_2
_geom_bond_distance
_geom_bond_site_symmetry_2
Mg0 O4 1.972449 1_555
Mg0 O2 1.972449 1_555
Mg0 O3 2.074637 1_556
Mg0 O6 2.074643 1_655
Mg0 O5 2.402493 1_555
Mg0 O0 2.402493 1_555
O0 V1 1.884011 1_555
O0 Tb1 2.300929 1_565
O0 Tb0 2.462001 1_655
O1 V0 1.765490 1_555
O1 Tb0 2.276600 1_555
O1 Tb1 2.401046 1_565
O2 V0 1.887083 1_555
O2 Tb1 2.411868 1_565
O2 Tb0 2.473201 1_656
O3 V1 1.780323 1_555
O3 Tb1 2.422369 1_554
O3 Tb0 2.817268 1_655
O4 V1 1.887083 1_555
O4 Tb0 2.411868 1_545
O4 Tb1 2.473201 1_555
O5 V0 1.884011 1_555
O5 Tb0 2.300929 1_545
O5 Tb1 2.462001 1_455
O6 V0 1.780322 1_555
O6 Tb0 2.422368 1_556
O6 Tb1 2.817267 1_455
O7 V1 1.765490 1_555
O7 Tb1 2.276596 1_454
O7 Tb0 2.401051 1_545
