# generated using pymatgen
data_MgCr4(PbO4)4
_symmetry_space_group_name_H-M   'P 1'
_cell_length_a   7.04657416
_cell_length_b   7.79344415
_cell_length_c   7.54070722
_cell_angle_alpha   90.37262829
_cell_angle_beta   88.49206663
_cell_angle_gamma   97.30883962
_symmetry_Int_Tables_number   1
_chemical_formula_structural   MgCr4(PbO4)4
_chemical_formula_sum   'Mg1 Cr4 Pb4 O16'
_cell_volume   410.60456728
_cell_formula_units_Z   1
loop_
 _symmetry_equiv_pos_site_id
 _symmetry_equiv_pos_as_xyz
  1  'x, y, z'
loop_
 _atom_site_type_symbol
 _atom_site_label
 _atom_site_symmetry_multiplicity
 _atom_site_fract_x
 _atom_site_fract_y
 _atom_site_fract_z
 _atom_site_occupancy
  Mg  Mg0  1  0.14243300  0.98064600  0.10302400  1
  Cr  Cr0  1  0.38375700  0.71699300  0.34831400  1
  Cr  Cr1  1  0.86918900  0.19552500  0.14667500  1
  Cr  Cr2  1  0.09795600  0.74886200  0.82799200  1
  Cr  Cr3  1  0.62234800  0.30338200  0.65801500  1
  Pb  Pb0  1  0.87991600  0.68175200  0.37454100  1
  Pb  Pb1  1  0.61570700  0.84352500  0.87316800  1
  Pb  Pb2  1  0.09660500  0.28751400  0.67414900  1
  Pb  Pb3  1  0.47024400  0.33009800  0.15132400  1
  O  O0  1  0.29370400  0.89787400  0.29973700  1
  O  O1  1  0.16789800  0.54980500  0.82279400  1
  O  O2  1  0.70718100  0.11979800  0.70112300  1
  O  O3  1  0.80037200  0.39533300  0.20177600  1
  O  O4  1  0.20178200  0.56278600  0.39475000  1
  O  O5  1  0.29411500  0.90648100  0.88972500  1
  O  O6  1  0.81659400  0.44187100  0.59324800  1
  O  O7  1  0.65449400  0.07815900  0.08504100  1
  O  O8  1  0.05152100  0.19830500  0.98163800  1
  O  O9  1  0.45812500  0.27773400  0.50309000  1
  O  O10  1  0.95370600  0.78106000  0.02000000  1
  O  O11  1  0.53561500  0.74487500  0.51294400  1
  O  O12  1  0.96508700  0.08020700  0.30301400  1
  O  O13  1  0.52115000  0.37844300  0.84027800  1
  O  O14  1  0.98346800  0.82040400  0.65524200  1
  O  O15  1  0.50962400  0.65078900  0.17172900  1
loop_
_geom_bond_atom_site_label_1
_geom_bond_atom_site_label_2
_geom_bond_distance
_geom_bond_site_symmetry_2
Mg0 O0 2.005822 1_555
Mg0 O10 2.021095 1_455
Mg0 O5 2.029322 1_554
Mg0 O8 2.110275 1_564
Mg0 O12 2.137833 1_465
Cr0 O11 1.655497 1_555
Cr0 O0 1.664518 1_555
Cr0 O4 1.673612 1_555
Cr0 O15 1.694489 1_555
Cr1 O12 1.692454 1_555
Cr1 O3 1.733710 1_555
Cr1 O7 1.738046 1_555
Cr1 O8 1.763266 1_654
Cr2 O14 1.684587 1_455
Cr2 O1 1.686364 1_555
Cr2 O10 1.781919 1_456
Cr2 O5 1.797408 1_555
Cr3 O2 1.656487 1_555
Cr3 O9 1.659260 1_555
Cr3 O13 1.668463 1_555
Cr3 O6 1.694917 1_555
O1 Pb2 2.329349 1_555
O2 Pb1 2.524618 1_545
O3 Pb3 2.357519 1_555
O3 Pb0 2.583858 1_555
O4 Pb0 2.565534 1_455
O5 Pb1 2.378831 1_555
O6 Pb0 2.490609 1_555
O6 Pb2 2.527712 1_655
O7 Pb1 2.414307 1_544
O7 Pb3 2.528321 1_555
O8 Pb2 2.426230 1_555
O9 Pb3 2.683882 1_555
O10 Pb1 2.752525 1_554
O10 Pb0 2.805044 1_555
O11 Pb0 2.716824 1_555
O11 Pb1 2.869016 1_555
O13 Pb3 2.388485 1_556
O14 Pb0 2.455883 1_555
O15 Pb3 2.483526 1_555
O15 Pb1 2.748340 1_554
