# generated using pymatgen
data_Cs3BiO3
_symmetry_space_group_name_H-M   'P 1'
_cell_length_a   9.27482569
_cell_length_b   9.27482569
_cell_length_c   9.27482569
_cell_angle_alpha   90.00000000
_cell_angle_beta   90.00000000
_cell_angle_gamma   90.00000000
_symmetry_Int_Tables_number   1
_chemical_formula_structural   Cs3BiO3
_chemical_formula_sum   'Cs12 Bi4 O12'
_cell_volume   797.84268734
_cell_formula_units_Z   4
loop_
 _symmetry_equiv_pos_site_id
 _symmetry_equiv_pos_as_xyz
  1  'x, y, z'
loop_
 _atom_site_type_symbol
 _atom_site_label
 _atom_site_symmetry_multiplicity
 _atom_site_fract_x
 _atom_site_fract_y
 _atom_site_fract_z
 _atom_site_occupancy
  Cs  Cs0  1  0.02849744  0.02849744  0.02849744  1
  Cs  Cs1  1  0.47150256  0.97150256  0.52849744  1
  Cs  Cs2  1  0.52849744  0.47150256  0.97150256  1
  Cs  Cs3  1  0.97150256  0.52849744  0.47150256  1
  Cs  Cs4  1  0.96807366  0.46807366  0.03192634  1
  Cs  Cs5  1  0.53192634  0.53192634  0.53192634  1
  Cs  Cs6  1  0.23119563  0.26880437  0.73119563  1
  Cs  Cs7  1  0.26880437  0.73119563  0.23119563  1
  Cs  Cs8  1  0.73119563  0.23119563  0.26880437  1
  Cs  Cs9  1  0.76880437  0.76880437  0.76880437  1
  Cs  Cs10  1  0.46807366  0.03192634  0.96807366  1
  Cs  Cs11  1  0.03192634  0.96807366  0.46807366  1
  Bi  Bi0  1  0.74248861  0.75751139  0.24248861  1
  Bi  Bi1  1  0.75751139  0.24248861  0.74248861  1
  Bi  Bi2  1  0.24248861  0.74248861  0.75751139  1
  Bi  Bi3  1  0.25751139  0.25751139  0.25751139  1
  O  O0  1  0.53700227  0.24574660  0.70495535  1
  O  O1  1  0.03700227  0.25425340  0.29504465  1
  O  O2  1  0.46299773  0.74574660  0.79504465  1
  O  O3  1  0.25425340  0.29504465  0.03700227  1
  O  O4  1  0.24574660  0.70495535  0.53700227  1
  O  O5  1  0.70495535  0.53700227  0.24574660  1
  O  O6  1  0.74574660  0.79504465  0.46299773  1
  O  O7  1  0.75425340  0.20495535  0.96299773  1
  O  O8  1  0.20495535  0.96299773  0.75425340  1
  O  O9  1  0.96299773  0.75425340  0.20495535  1
  O  O10  1  0.79504465  0.46299773  0.74574660  1
  O  O11  1  0.29504465  0.03700227  0.25425340  1
loop_
_geom_bond_atom_site_label_1
_geom_bond_atom_site_label_2
_geom_bond_distance
_geom_bond_site_symmetry_2
Cs0 O9 3.085011 1_445
Cs0 O7 3.085011 1_454
Cs0 O8 3.085011 1_544
Cs0 O3 3.240692 1_555
Cs0 O11 3.240692 1_555
Cs0 O1 3.240692 1_555
Cs1 O11 3.085011 1_565
Cs1 O0 3.085011 1_565
Cs1 O6 3.085011 1_555
Cs1 O8 3.240692 1_555
Cs1 O2 3.240692 1_555
Cs1 O4 3.240692 1_555
Cs2 O5 3.085011 1_556
Cs2 O3 3.085011 1_556
Cs2 O2 3.085011 1_555
Cs2 O7 3.240692 1_555
Cs2 O10 3.240692 1_555
Cs2 O0 3.240692 1_555
Cs3 O4 3.085011 1_655
Cs3 O1 3.085011 1_655
Cs3 O10 3.085011 1_555
Cs3 O6 3.240692 1_555
Cs3 O9 3.240692 1_555
Cs3 O5 3.240692 1_555
Cs4 O10 3.102060 1_554
Cs4 O9 3.102060 1_555
Cs4 O3 3.102060 1_655
Cs4 O1 3.208895 1_655
Cs4 O5 3.208895 1_555
Cs4 O7 3.208895 1_554
Cs5 O4 3.102060 1_555
Cs5 O5 3.102060 1_555
Cs5 O0 3.102060 1_555
Cs5 O6 3.208895 1_555
Cs5 O10 3.208895 1_555
Cs5 O2 3.208895 1_555
Cs6 O3 2.854747 1_556
Cs6 O8 2.854747 1_545
Cs6 O0 2.854747 1_555
Cs7 O11 2.854747 1_565
Cs7 O9 2.854747 1_455
Cs7 O4 2.854747 1_555
Cs8 O1 2.854747 1_655
Cs8 O7 2.854747 1_554
Cs8 O5 2.854747 1_555
Cs9 O10 2.854747 1_555
Cs9 O2 2.854747 1_555
Cs9 O6 2.854747 1_555
Cs10 O2 3.102060 1_545
Cs10 O7 3.102060 1_555
Cs10 O11 3.102060 1_556
Cs10 O0 3.208895 1_555
Cs10 O3 3.208895 1_556
Cs10 O8 3.208895 1_545
Cs11 O6 3.102060 1_455
Cs11 O8 3.102060 1_555
Cs11 O1 3.102060 1_565
Cs11 O4 3.208895 1_555
Cs11 O9 3.208895 1_455
Cs11 O11 3.208895 1_565
Bi0 O5 2.074819 1_555
Bi0 O6 2.074819 1_555
Bi0 O9 2.074819 1_555
Bi1 O10 2.074819 1_555
Bi1 O7 2.074819 1_555
Bi1 O0 2.074819 1_555
Bi2 O8 2.074819 1_555
Bi2 O2 2.074819 1_555
Bi2 O4 2.074819 1_555
Bi3 O1 2.074819 1_555
Bi3 O11 2.074819 1_555
Bi3 O3 2.074819 1_555
