# generated using pymatgen
data_NaTi8O13
_symmetry_space_group_name_H-M   'P 1'
_cell_length_a   6.45651047
_cell_length_b   6.45651047
_cell_length_c   6.45651001
_cell_angle_alpha   73.46193069
_cell_angle_beta   73.46193058
_cell_angle_gamma   73.46193310
_symmetry_Int_Tables_number   1
_chemical_formula_structural   NaTi8O13
_chemical_formula_sum   'Na1 Ti8 O13'
_cell_volume   241.19280250
_cell_formula_units_Z   1
loop_
 _symmetry_equiv_pos_site_id
 _symmetry_equiv_pos_as_xyz
  1  'x, y, z'
loop_
 _atom_site_type_symbol
 _atom_site_label
 _atom_site_symmetry_multiplicity
 _atom_site_fract_x
 _atom_site_fract_y
 _atom_site_fract_z
 _atom_site_occupancy
  Na  Na0  1  0.50000000  0.50000000  0.50000000  1
  Ti  Ti0  1  0.68297069  0.12528640  0.95027584  1
  Ti  Ti1  1  0.95027584  0.68297069  0.12528640  1
  Ti  Ti2  1  0.12528640  0.95027584  0.68297069  1
  Ti  Ti3  1  0.31702931  0.87471360  0.04972416  1
  Ti  Ti4  1  0.04972416  0.31702931  0.87471360  1
  Ti  Ti5  1  0.87471360  0.04972416  0.31702931  1
  Ti  Ti6  1  0.27050228  0.27050228  0.27050228  1
  Ti  Ti7  1  0.72949772  0.72949772  0.72949772  1
  O  O0  1  -0.00000000  0.00000000  0.00000000  1
  O  O1  1  0.17277713  0.26797364  0.57738610  1
  O  O2  1  0.57738610  0.17277713  0.26797364  1
  O  O3  1  0.26797364  0.57738610  0.17277713  1
  O  O4  1  0.82722287  0.73202636  0.42261390  1
  O  O5  1  0.42261390  0.82722287  0.73202636  1
  O  O6  1  0.73202636  0.42261390  0.82722287  1
  O  O7  1  0.35578073  0.20580486  0.95218960  1
  O  O8  1  0.95218960  0.35578073  0.20580486  1
  O  O9  1  0.20580486  0.95218960  0.35578073  1
  O  O10  1  0.64421927  0.79419514  0.04781040  1
  O  O11  1  0.04781040  0.64421927  0.79419514  1
  O  O12  1  0.79419514  0.04781040  0.64421927  1
loop_
_geom_bond_atom_site_label_1
_geom_bond_atom_site_label_2
_geom_bond_distance
_geom_bond_site_symmetry_2
Na0 O6 2.780690 1_555
Na0 O3 2.780690 1_555
Na0 O2 2.780690 1_555
Na0 O5 2.780690 1_555
Na0 O1 2.780690 1_555
Na0 O4 2.780690 1_555
O0 Ti5 2.056904 1_455
O0 Ti2 2.056904 1_544
O0 Ti4 2.056905 1_554
O0 Ti1 2.056905 1_445
O0 Ti3 2.056905 1_545
O0 Ti0 2.056905 1_454
O1 Ti6 1.897375 1_555
O1 Ti4 1.936846 1_555
O1 Ti2 2.051641 1_545
O2 Ti6 1.897375 1_555
O2 Ti5 1.936846 1_555
O2 Ti0 2.051641 1_554
O3 Ti6 1.897375 1_555
O3 Ti3 1.936846 1_555
O3 Ti1 2.051641 1_455
O4 Ti7 1.897375 1_555
O4 Ti1 1.936846 1_555
O4 Ti5 2.051641 1_565
O5 Ti7 1.897375 1_555
O5 Ti2 1.936846 1_555
O5 Ti3 2.051641 1_556
O6 Ti7 1.897375 1_555
O6 Ti0 1.936846 1_555
O6 Ti4 2.051641 1_655
O7 Ti0 2.024023 1_555
O7 Ti4 2.054529 1_555
O7 Ti6 2.101200 1_556
O7 Ti3 2.115965 1_546
O8 Ti1 2.024022 1_555
O8 Ti5 2.054529 1_555
O8 Ti6 2.101200 1_655
O8 Ti4 2.115965 1_654
O9 Ti2 2.024022 1_555
O9 Ti3 2.054529 1_555
O9 Ti6 2.101200 1_565
O9 Ti5 2.115965 1_465
O10 Ti3 2.024023 1_555
O10 Ti1 2.054529 1_555
O10 Ti7 2.101200 1_554
O10 Ti0 2.115965 1_564
O11 Ti4 2.024022 1_555
O11 Ti2 2.054529 1_555
O11 Ti7 2.101200 1_455
O11 Ti1 2.115965 1_456
O12 Ti5 2.024022 1_555
O12 Ti0 2.054529 1_555
O12 Ti7 2.101200 1_545
O12 Ti2 2.115965 1_645
