# generated using pymatgen
data_Na2La2MgTi2O8
_symmetry_space_group_name_H-M   'P 1'
_cell_length_a   3.94019000
_cell_length_b   3.94019000
_cell_length_c   12.21478400
_cell_angle_alpha   90.00000000
_cell_angle_beta   90.00000000
_cell_angle_gamma   90.00000000
_symmetry_Int_Tables_number   1
_chemical_formula_structural   Na2La2MgTi2O8
_chemical_formula_sum   'Na2 La2 Mg1 Ti2 O8'
_cell_volume   189.63570932
_cell_formula_units_Z   1
loop_
 _symmetry_equiv_pos_site_id
 _symmetry_equiv_pos_as_xyz
  1  'x, y, z'
loop_
 _atom_site_type_symbol
 _atom_site_label
 _atom_site_symmetry_multiplicity
 _atom_site_fract_x
 _atom_site_fract_y
 _atom_site_fract_z
 _atom_site_occupancy
  Na  Na0  1  0.25000000  0.25000000  0.63598500  1
  Na  Na1  1  0.75000000  0.75000000  0.36401500  1
  La  La0  1  0.75000000  0.75000000  0.10963100  1
  La  La1  1  0.25000000  0.25000000  0.89036900  1
  Mg  Mg0  1  0.25000000  0.75000000  0.50000000  1
  Ti  Ti0  1  0.25000000  0.25000000  0.26622100  1
  Ti  Ti1  1  0.75000000  0.75000000  0.73377900  1
  O  O0  1  0.75000000  0.75000000  0.91900800  1
  O  O1  1  0.25000000  0.25000000  0.08099200  1
  O  O2  1  0.75000000  0.75000000  0.56629400  1
  O  O3  1  0.25000000  0.25000000  0.43370600  1
  O  O4  1  0.75000000  0.25000000  0.24368000  1
  O  O5  1  0.25000000  0.75000000  0.26083300  1
  O  O6  1  0.75000000  0.25000000  0.75632000  1
  O  O7  1  0.25000000  0.75000000  0.73916700  1
loop_
_geom_bond_atom_site_label_1
_geom_bond_atom_site_label_2
_geom_bond_distance
_geom_bond_site_symmetry_2
Na0 O7 2.338749 1_545
Na0 O7 2.338749 1_555
Na0 O6 2.458003 1_555
Na0 O6 2.458003 1_455
Na0 O3 2.470794 1_555
Na1 O5 2.338749 1_555
Na1 O5 2.338749 1_655
Na1 O4 2.458003 1_555
Na1 O4 2.458003 1_565
Na1 O2 2.470794 1_555
La0 O0 2.328419 1_554
La0 O4 2.561696 1_555
La0 O4 2.561696 1_565
La0 O5 2.700428 1_655
La0 O5 2.700428 1_555
La0 O1 2.808010 1_655
La0 O1 2.808010 1_565
La0 O1 2.808010 1_555
La0 O1 2.808010 1_665
La1 O1 2.328419 1_556
La1 O6 2.561696 1_455
La1 O6 2.561696 1_555
La1 O7 2.700428 1_555
La1 O7 2.700428 1_545
La1 O0 2.808010 1_455
La1 O0 2.808010 1_555
La1 O0 2.808010 1_445
La1 O0 2.808010 1_545
Mg0 O2 2.130023 1_555
Mg0 O2 2.130023 1_455
Mg0 O3 2.130023 1_555
Mg0 O3 2.130023 1_565
O0 Ti1 2.262532 1_555
O1 Ti0 2.262532 1_555
O2 Ti1 2.045793 1_555
O3 Ti0 2.045793 1_555
O4 Ti0 1.989242 1_555
O4 Ti0 1.989242 1_655
O5 Ti0 1.971194 1_555
O5 Ti0 1.971194 1_565
O6 Ti1 1.989242 1_545
O6 Ti1 1.989242 1_555
O7 Ti1 1.971194 1_555
O7 Ti1 1.971194 1_455
