# generated using pymatgen
data_Na4Nb3InSi4(PO12)2
_symmetry_space_group_name_H-M   'P 1'
_cell_length_a   9.00582892
_cell_length_b   9.02411524
_cell_length_c   22.76581974
_cell_angle_alpha   89.99648491
_cell_angle_beta   89.90217708
_cell_angle_gamma   120.04108833
_symmetry_Int_Tables_number   1
_chemical_formula_structural   Na4Nb3InSi4(PO12)2
_chemical_formula_sum   'Na12 Nb9 In3 Si12 P6 O72'
_cell_volume   1601.62711380
_cell_formula_units_Z   3
loop_
 _symmetry_equiv_pos_site_id
 _symmetry_equiv_pos_as_xyz
  1  'x, y, z'
loop_
 _atom_site_type_symbol
 _atom_site_label
 _atom_site_symmetry_multiplicity
 _atom_site_fract_x
 _atom_site_fract_y
 _atom_site_fract_z
 _atom_site_occupancy
  Na  Na0  1  0.63317311  0.62455206  0.74575262  1
  Na  Na1  1  0.99528996  0.37062830  0.74666746  1
  Na  Na2  1  0.31316496  0.97511743  0.08464478  1
  Na  Na3  1  0.02660642  0.34224355  0.08453452  1
  Na  Na4  1  0.96467949  0.29432238  0.41266316  1
  Na  Na5  1  0.70675494  0.67715678  0.41464845  1
  Na  Na6  1  0.00828388  0.99622860  0.49980510  1
  Na  Na7  1  0.98968465  0.98952716  0.99554316  1
  Na  Na8  1  0.65287316  0.31851591  0.83316633  1
  Na  Na9  1  0.65516748  0.32280778  0.32490793  1
  Na  Na10  1  0.34569178  0.66480093  0.16540305  1
  Na  Na11  1  0.33402150  0.67368705  0.66571254  1
  Nb  Nb0  1  0.00426730  0.00794506  0.85699108  1
  Nb  Nb1  1  0.99422840  0.00159688  0.64392188  1
  Nb  Nb2  1  0.99542081  0.99632483  0.14615528  1
  Nb  Nb3  1  0.66688742  0.33456769  0.97771273  1
  Nb  Nb4  1  0.66939035  0.33159190  0.48188044  1
  Nb  Nb5  1  0.33777394  0.66727212  0.01784641  1
  Nb  Nb6  1  0.33503075  0.66932136  0.52204691  1
  Nb  Nb7  1  0.33125097  0.67266638  0.30994758  1
  Nb  Nb8  1  0.33622004  0.66988590  0.81403978  1
  In  In0  1  0.00402520  0.99885108  0.35208655  1
  In  In1  1  0.65941215  0.32663561  0.68531965  1
  In  In2  1  0.66759252  0.33462343  0.18333184  1
  Si  Si0  1  0.28977555  0.28821559  0.75009432  1
  Si  Si1  1  0.70914455  0.99923508  0.75092679  1
  Si  Si2  1  0.96026761  0.33445272  0.58590067  1
  Si  Si3  1  0.66792811  0.62532702  0.58505738  1
  Si  Si4  1  0.95528373  0.62220113  0.08323464  1
  Si  Si5  1  0.66407572  0.04194001  0.08355921  1
  Si  Si6  1  0.37989770  0.33852622  0.08447198  1
  Si  Si7  1  0.62527490  0.66492849  0.91511685  1
  Si  Si8  1  0.04135988  0.37845831  0.91612156  1
  Si  Si9  1  0.33433865  0.95790340  0.91711007  1
  Si  Si10  1  0.61839229  0.95887625  0.41602870  1
  Si  Si11  1  0.04537970  0.66849449  0.41705481  1
  P  P0  1  0.29373761  0.00219384  0.25037658  1
  P  P1  1  0.70533713  0.70475154  0.25252320  1
  P  P2  1  0.00035455  0.29323873  0.25201974  1
  P  P3  1  0.00708042  0.72092173  0.75060607  1
  P  P4  1  0.37335795  0.04077117  0.58306363  1
  P  P5  1  0.33728286  0.38398219  0.41646375  1
  O  O0  1  0.21114905  0.02092465  0.30588813  1
  O  O1  1  0.80019101  0.78238068  0.31026437  1
  O  O2  1  0.98173047  0.19573308  0.30942049  1
  O  O3  1  0.18847723  0.17080952  0.80761448  1
  O  O4  1  0.98463804  0.81001074  0.80508448  1
  O  O5  1  0.83135384  0.01575063  0.80677143  1
  O  O6  1  0.80333844  0.96682995  0.69255990  1
  O  O7  1  0.16415798  0.18936327  0.69302151  1
  O  O8  1  0.02760915  0.82777780  0.69441654  1
  O  O9  1  0.80665668  0.82694639  0.19894600  1
  O  O10  1  0.02178843  0.19782085  0.19711447  1
  O  O11  1  0.18024422  0.97690575  0.19445286  1
  O  O12  1  0.89012047  0.37046867  0.64555710  1
  O  O13  1  0.47994719  0.10637772  0.63865542  1
  O  O14  1  0.62751632  0.51909246  0.64506692  1
  O  O15  1  0.89515931  0.50018424  0.13955156  1
  O  O16  1  0.60850371  0.10554910  0.14043649  1
  O  O17  1  0.48630612  0.37801067  0.14336073  1
  O  O18  1  0.46552411  0.29331723  0.02801358  1
  O  O19  1  0.83097645  0.53161458  0.02612251  1
  O  O20  1  0.70706052  0.17179357  0.02716473  1
  O  O21  1  0.46831011  0.15839818  0.52883085  1
  O  O22  1  0.68870474  0.52424146  0.52641363  1
  O  O23  1  0.83461992  0.30562023  0.52725342  1
  O  O24  1  0.52685445  0.69161888  0.97116208  1
  O  O25  1  0.15879639  0.46919949  0.97406491  1
  O  O26  1  0.30748349  0.84107874  0.97526829  1
  O  O27  1  0.52306618  0.83189892  0.47147926  1
  O  O28  1  0.31269455  0.47231862  0.47103649  1
  O  O29  1  0.16373221  0.68197504  0.47278086  1
  O  O30  1  0.13709370  0.63278372  0.35911785  1
  O  O31  1  0.49712379  0.85742612  0.35801850  1
  O  O32  1  0.36685309  0.49943437  0.36132289  1
  O  O33  1  0.13614409  0.49458138  0.85731216  1
  O  O34  1  0.35874510  0.85760551  0.86014128  1
  O  O35  1  0.50526834  0.63929182  0.85652913  1
  O  O36  1  0.01189762  0.82725384  0.41553161  1
  O  O37  1  0.80988930  0.98392719  0.41356032  1
  O  O38  1  0.17388975  0.20891211  0.41314883  1
  O  O39  1  0.02414845  0.18913441  0.91053537  1
  O  O40  1  0.16274012  0.97312226  0.90934734  1
  O  O41  1  0.81293885  0.83473972  0.90892472  1
  O  O42  1  0.97709182  0.16039275  0.58868692  1
  O  O43  1  0.19492360  0.02479674  0.58693665  1
  O  O44  1  0.84476435  0.81363350  0.58829240  1
  O  O45  1  0.98099196  0.81719461  0.09284165  1
  O  O46  1  0.84124952  0.02940469  0.09304016  1
  O  O47  1  0.18368980  0.16129464  0.09294043  1
  O  O48  1  0.70451737  0.17468109  0.74895853  1
  O  O49  1  0.48308510  0.32253041  0.75000404  1
  O  O50  1  0.84597090  0.54129960  0.74859409  1
  O  O51  1  0.68321552  0.52712321  0.24646883  1
  O  O52  1  0.84587681  0.31819509  0.24686317  1
  O  O53  1  0.47505174  0.15240461  0.24629355  1
  O  O54  1  0.63682893  0.49214654  0.92314311  1
  O  O55  1  0.85304224  0.36009009  0.92248461  1
  O  O56  1  0.50603056  0.14471281  0.92339361  1
  O  O57  1  0.63503727  0.14800205  0.42276105  1
  O  O58  1  0.50305659  0.37262659  0.42302646  1
  O  O59  1  0.85474803  0.48921284  0.42370657  1
  O  O60  1  0.33480198  0.49190778  0.07377535  1
  O  O61  1  0.15202007  0.65814970  0.07249146  1
  O  O62  1  0.50069528  0.84945455  0.07253536  1
  O  O63  1  0.34960826  0.85973631  0.57215712  1
  O  O64  1  0.50446670  0.65452524  0.57213074  1
  O  O65  1  0.15108772  0.49811941  0.57272391  1
  O  O66  1  0.30028009  0.82852876  0.25518820  1
  O  O67  1  0.52605091  0.69619527  0.25458696  1
  O  O68  1  0.17250894  0.47205148  0.25544514  1
  O  O69  1  0.29448133  0.47497879  0.75462844  1
  O  O70  1  0.16768200  0.69830430  0.75525193  1
  O  O71  1  0.52324155  0.82019490  0.75492688  1
loop_
_geom_bond_atom_site_label_1
_geom_bond_atom_site_label_2
_geom_bond_distance
_geom_bond_site_symmetry_2
Na0 O49 2.361273 1_555
Na0 O50 2.383956 1_555
Na0 O71 2.426969 1_555
Na0 O14 2.472764 1_555
Na0 O69 2.653698 1_555
Na0 O35 2.801453 1_555
Na0 O6 2.934150 1_555
Na1 O48 2.313027 1_555
Na1 O69 2.375074 1_655
Na1 O12 2.490324 1_555
Na1 O50 2.501166 1_555
Na1 O70 2.568444 1_655
Na1 O33 2.792102 1_655
Na2 O62 2.475926 1_555
Na2 O47 2.485705 1_565
Na2 O61 2.491892 1_555
Na2 O45 2.596989 1_455
Na2 O16 2.636332 1_565
Na2 O26 2.757692 1_554
Na2 O11 2.773391 1_555
Na2 O18 2.799795 1_565
Na3 O60 2.414984 1_555
Na3 O46 2.464609 1_455
Na3 O61 2.500555 1_555
Na3 O15 2.585734 1_455
Na3 O47 2.649159 1_555
Na3 O25 2.771012 1_554
Na3 O20 2.816816 1_455
Na3 O10 2.865636 1_555
Na4 O38 2.366034 1_655
Na4 O59 2.424658 1_555
Na4 O37 2.424847 1_545
Na4 O2 2.544666 1_555
Na4 O57 2.585030 1_555
Na4 O23 2.880455 1_555
Na4 O30 2.910402 1_655
Na5 O36 2.379126 1_655
Na5 O58 2.430009 1_555
Na5 O37 2.439760 1_555
Na5 O1 2.539651 1_555
Na5 O59 2.638098 1_555
Na5 O22 2.859770 1_555
Na5 O32 2.917830 1_555
Na5 O27 2.943860 1_555
Na6 O36 2.461078 1_555
Na6 O43 2.530621 1_565
Na6 O44 2.549865 1_455
Na6 O42 2.604434 1_465
Na6 O37 2.621666 1_455
Na6 O38 2.631234 1_565
Na7 O41 2.481575 1_555
Na7 O40 2.553851 1_655
Na7 O39 2.554206 1_665
Na7 O45 2.684825 1_556
Na7 O46 2.704574 1_566
Na7 O47 2.770181 1_666
Na8 O49 2.447278 1_555
Na8 O48 2.485537 1_555
Na8 O56 2.518277 1_555
Na8 O55 2.619280 1_555
Na8 O54 2.626390 1_555
Na8 O50 2.694542 1_555
Na9 O53 2.389921 1_555
Na9 O52 2.483857 1_555
Na9 O51 2.486737 1_555
Na9 O57 2.682499 1_555
Na9 O58 2.770312 1_555
Na9 O59 2.802933 1_555
Na10 O67 2.528132 1_555
Na10 O60 2.577416 1_555
Na10 O62 2.618338 1_555
Na10 O68 2.632955 1_555
Na10 O66 2.670365 1_555
Na10 O61 2.725371 1_555
Na11 O71 2.556041 1_555
Na11 O70 2.602207 1_555
Na11 O69 2.607216 1_555
Na11 O65 2.665474 1_555
Na11 O63 2.671594 1_555
Na11 O64 2.679487 1_555
Nb0 O3 1.930805 1_555
Nb0 O5 1.962889 1_455
Nb0 O39 1.974666 1_555
Nb0 O40 2.002773 1_545
Nb0 O41 2.026364 1_445
Nb0 O4 2.074350 1_445
Nb1 O6 1.932181 1_545
Nb1 O7 1.967818 1_655
Nb1 O42 1.969868 1_555
Nb1 O44 2.003229 1_545
Nb1 O8 2.084544 1_645
Nb1 O43 2.146332 1_655
Nb2 O45 1.973204 1_555
Nb2 O46 1.974776 1_565
Nb2 O47 2.006044 1_665
Nb2 O9 2.015381 1_555
Nb2 O10 2.068203 1_665
Nb2 O11 2.075687 1_655
Nb3 O19 1.983708 1_556
Nb3 O54 2.006266 1_555
Nb3 O55 2.012617 1_555
Nb3 O18 2.013817 1_556
Nb3 O56 2.021009 1_555
Nb3 O20 2.022197 1_556
Nb4 O23 1.921082 1_555
Nb4 O22 1.943841 1_555
Nb4 O21 2.005970 1_555
Nb4 O57 2.034807 1_555
Nb4 O59 2.044163 1_555
Nb4 O58 2.176799 1_555
Nb5 O24 1.922668 1_554
Nb5 O26 1.975640 1_554
Nb5 O25 1.976731 1_554
Nb5 O62 1.999267 1_555
Nb5 O60 2.020764 1_555
Nb5 O61 2.051315 1_555
Nb6 O29 1.957838 1_555
Nb6 O27 1.962395 1_555
Nb6 O64 1.963722 1_555
Nb6 O65 1.973034 1_555
Nb6 O63 2.011515 1_555
Nb6 O28 2.047572 1_555
Nb7 O31 1.929015 1_555
Nb7 O30 1.950175 1_555
Nb7 O66 2.000993 1_555
Nb7 O68 2.067797 1_555
Nb7 O67 2.081025 1_555
Nb7 O32 2.101778 1_555
Nb8 O34 1.915518 1_555
Nb8 O35 1.937911 1_555
Nb8 O33 1.964563 1_555
Nb8 O71 2.047518 1_555
Nb8 O69 2.098654 1_555
Nb8 O70 2.134801 1_555
In0 O0 2.060710 1_565
In0 O2 2.120856 1_465
In0 O1 2.123225 1_455
In0 O36 2.144562 1_555
In0 O37 2.188459 1_455
In0 O38 2.229384 1_565
In1 O14 2.106843 1_555
In1 O12 2.112695 1_555
In1 O13 2.116868 1_555
In1 O49 2.150503 1_555
In1 O48 2.168829 1_555
In1 O50 2.323854 1_555
In2 O17 2.071689 1_555
In2 O15 2.086341 1_555
In2 O16 2.100172 1_555
In2 O51 2.204485 1_555
In2 O53 2.213953 1_555
In2 O52 2.222175 1_555
O0 P0 1.517094 1_555
O1 P1 1.534023 1_555
O2 P2 1.536674 1_655
O3 Si0 1.642418 1_555
O4 P3 1.545105 1_655
O5 Si1 1.640250 1_545
O6 Si1 1.677891 1_555
O7 Si0 1.660879 1_555
O8 P3 1.555930 1_555
O9 P1 1.588990 1_555
O10 P2 1.583295 1_555
O11 P0 1.577536 1_565
O12 Si2 1.597476 1_555
O13 P4 1.519511 1_555
O14 Si3 1.602100 1_555
O15 Si4 1.596837 1_555
O16 Si5 1.594408 1_555
O17 Si6 1.582783 1_555
O18 Si6 1.650702 1_555
O19 Si4 1.643429 1_555
O20 Si5 1.647801 1_555
O21 P4 1.571546 1_555
O22 Si3 1.679210 1_555
O23 Si2 1.685580 1_555
O24 Si7 1.637538 1_555
O25 Si8 1.633083 1_555
O26 Si9 1.632908 1_555
O27 Si10 1.629351 1_555
O28 P5 1.550471 1_555
O29 Si11 1.623313 1_555
O30 Si11 1.669913 1_555
O31 Si10 1.667027 1_555
O32 P5 1.566246 1_555
O33 Si8 1.649113 1_555
O34 Si9 1.657689 1_555
O35 Si7 1.659878 1_555
O36 Si11 1.605369 1_555
O37 Si10 1.624127 1_555
O38 P5 1.529602 1_555
O39 Si8 1.641356 1_555
O40 Si9 1.628418 1_555
O41 Si7 1.621892 1_555
O42 Si2 1.653029 1_555
O43 P4 1.542212 1_555
O44 Si3 1.649274 1_555
O45 Si4 1.670359 1_555
O46 Si5 1.669492 1_555
O47 Si6 1.699016 1_555
O48 Si1 1.605137 1_545
O49 Si0 1.608383 1_555
O50 P3 1.542778 1_655
O51 P1 1.519369 1_555
O52 P2 1.521247 1_655
O53 P0 1.515155 1_555
O54 Si7 1.624132 1_555
O55 Si8 1.625552 1_655
O56 Si9 1.626070 1_545
O57 Si10 1.643995 1_545
O58 P5 1.554220 1_555
O59 Si11 1.675078 1_655
O60 Si6 1.644137 1_555
O61 Si4 1.651443 1_455
O62 Si5 1.639355 1_565
O63 P4 1.557781 1_565
O64 Si3 1.647106 1_555
O65 Si2 1.637525 1_455
O66 P0 1.601237 1_565
O67 P1 1.578001 1_555
O68 P2 1.584032 1_555
O69 Si0 1.667769 1_555
O70 P3 1.562326 1_555
O71 Si1 1.647060 1_555
