# generated using pymatgen
data_Na3CaNb5Si6(SO12)3
_symmetry_space_group_name_H-M   'P 1'
_cell_length_a   8.94946846
_cell_length_b   8.94946816
_cell_length_c   23.25914881
_cell_angle_alpha   90.23652542
_cell_angle_beta   89.76347458
_cell_angle_gamma   120.07418160
_symmetry_Int_Tables_number   1
_chemical_formula_structural   Na3CaNb5Si6(SO12)3
_chemical_formula_sum   'Na6 Ca2 Nb10 Si12 S6 O72'
_cell_volume   1612.08844669
_cell_formula_units_Z   2
loop_
 _symmetry_equiv_pos_site_id
 _symmetry_equiv_pos_as_xyz
  1  'x, y, z'
loop_
 _atom_site_type_symbol
 _atom_site_label
 _atom_site_symmetry_multiplicity
 _atom_site_fract_x
 _atom_site_fract_y
 _atom_site_fract_z
 _atom_site_occupancy
  Na  Na0  1  0.00287776  0.99811564  0.49981125  1
  Na  Na1  1  0.00188436  0.99712224  0.99981125  1
  Na  Na2  1  0.66705313  0.32361317  0.83110386  1
  Na  Na3  1  0.67638683  0.33294687  0.33110386  1
  Na  Na4  1  0.32604400  0.65712040  0.16509932  1
  Na  Na5  1  0.34287960  0.67395600  0.66509932  1
  Ca  Ca0  1  0.66024030  0.32581563  0.68610672  1
  Ca  Ca1  1  0.67418437  0.33975970  0.18610672  1
  Nb  Nb0  1  0.99488725  0.00624192  0.35858265  1
  Nb  Nb1  1  0.99375808  0.00511275  0.85858265  1
  Nb  Nb2  1  0.98659333  0.98788146  0.64220899  1
  Nb  Nb3  1  0.01211854  0.01340667  0.14220899  1
  Nb  Nb4  1  0.66397968  0.34720660  0.97684458  1
  Nb  Nb5  1  0.65279340  0.33602032  0.47684458  1
  Nb  Nb6  1  0.32154006  0.65768122  0.01758199  1
  Nb  Nb7  1  0.34231878  0.67845994  0.51758199  1
  Nb  Nb8  1  0.32367923  0.65600863  0.31616822  1
  Nb  Nb9  1  0.34399137  0.67632077  0.81616822  1
  Si  Si0  1  0.00082637  0.28971170  0.25164915  1
  Si  Si1  1  0.71028830  0.99917363  0.75164915  1
  Si  Si2  1  0.37494190  0.04127459  0.58397429  1
  Si  Si3  1  0.65713832  0.61672701  0.58352277  1
  Si  Si4  1  0.95872541  0.62505810  0.08397429  1
  Si  Si5  1  0.38327299  0.34286168  0.08352277  1
  Si  Si6  1  0.61886895  0.66860959  0.91765407  1
  Si  Si7  1  0.04269603  0.38315332  0.91484805  1
  Si  Si8  1  0.33507156  0.95808333  0.91758185  1
  Si  Si9  1  0.61684668  0.95730397  0.41484805  1
  Si  Si10  1  0.33139041  0.38113105  0.41765407  1
  Si  Si11  1  0.04191667  0.66492844  0.41758185  1
  S  S0  1  0.28143491  0.99470078  0.25145131  1
  S  S1  1  0.71294861  0.71891300  0.25159491  1
  S  S2  1  0.28108700  0.28705139  0.75159491  1
  S  S3  1  0.00529922  0.71856509  0.75145131  1
  S  S4  1  0.96210948  0.33547961  0.58197884  1
  S  S5  1  0.66452039  0.03789052  0.08197884  1
  O  O0  1  0.19117143  0.01023465  0.30258828  1
  O  O1  1  0.82055492  0.80671914  0.30354706  1
  O  O2  1  0.99341639  0.16560275  0.30610542  1
  O  O3  1  0.19328086  0.17944508  0.80354706  1
  O  O4  1  0.98976535  0.80882857  0.80258828  1
  O  O5  1  0.83439725  0.00658361  0.80610542  1
  O  O6  1  0.81238168  0.97291360  0.69473030  1
  O  O7  1  0.17707583  0.20351078  0.69917832  1
  O  O8  1  0.03021437  0.82418713  0.69763957  1
  O  O9  1  0.79648922  0.82292417  0.19917832  1
  O  O10  1  0.02708640  0.18761832  0.19473030  1
  O  O11  1  0.17581287  0.96978563  0.19763957  1
  O  O12  1  0.89527211  0.36593152  0.63522875  1
  O  O13  1  0.48217318  0.09960695  0.64067871  1
  O  O14  1  0.62932776  0.52357263  0.64234492  1
  O  O15  1  0.90039305  0.51782682  0.14067871  1
  O  O16  1  0.63406848  0.10472789  0.13522875  1
  O  O17  1  0.47642737  0.37067224  0.14234492  1
  O  O18  1  0.46829841  0.30328637  0.02549221  1
  O  O19  1  0.83437832  0.52919135  0.02602598  1
  O  O20  1  0.69795966  0.14746534  0.03104834  1
  O  O21  1  0.47080865  0.16562168  0.52602598  1
  O  O22  1  0.69671363  0.53170159  0.52549221  1
  O  O23  1  0.85253466  0.30204034  0.53104834  1
  O  O24  1  0.53327363  0.70155113  0.97325316  1
  O  O25  1  0.16464270  0.46695532  0.97131002  1
  O  O26  1  0.30288749  0.83362312  0.97184325  1
  O  O27  1  0.53304468  0.83535730  0.47131002  1
  O  O28  1  0.29844887  0.46672637  0.47325316  1
  O  O29  1  0.16637688  0.69711251  0.47184325  1
  O  O30  1  0.13792976  0.63642821  0.36017769  1
  O  O31  1  0.49855445  0.86117527  0.35853124  1
  O  O32  1  0.36232822  0.49978255  0.35999609  1
  O  O33  1  0.13882473  0.50144555  0.85853124  1
  O  O34  1  0.36357179  0.86207024  0.86017769  1
  O  O35  1  0.50021745  0.63767178  0.85999609  1
  O  O36  1  0.02355148  0.83427549  0.40459973  1
  O  O37  1  0.80758799  0.97195011  0.40748326  1
  O  O38  1  0.16625119  0.18669675  0.40728647  1
  O  O39  1  0.02804989  0.19241201  0.90748326  1
  O  O40  1  0.16572451  0.97644852  0.90459973  1
  O  O41  1  0.81330325  0.83374881  0.90728647  1
  O  O42  1  0.98069943  0.17491393  0.58916228  1
  O  O43  1  0.17993132  0.02358950  0.59223118  1
  O  O44  1  0.83626077  0.81798286  0.58975575  1
  O  O45  1  0.97641050  0.82006868  0.09223118  1
  O  O46  1  0.82508607  0.01930057  0.08916228  1
  O  O47  1  0.18201714  0.16373923  0.08975575  1
  O  O48  1  0.69576751  0.16702295  0.75505076  1
  O  O49  1  0.45279750  0.30837069  0.75009577  1
  O  O50  1  0.85274821  0.54891298  0.74806111  1
  O  O51  1  0.69162931  0.54720250  0.25009577  1
  O  O52  1  0.83297705  0.30423249  0.25505076  1
  O  O53  1  0.45108702  0.14725179  0.24806111  1
  O  O54  1  0.64048645  0.49792137  0.92288623  1
  O  O55  1  0.85141080  0.35370657  0.92587543  1
  O  O56  1  0.50722037  0.14539933  0.92609860  1
  O  O57  1  0.64629343  0.14858920  0.42587543  1
  O  O58  1  0.50207863  0.35951355  0.42288623  1
  O  O59  1  0.85460067  0.49277963  0.42609860  1
  O  O60  1  0.34853796  0.50251640  0.06994941  1
  O  O61  1  0.15653578  0.66339625  0.06971960  1
  O  O62  1  0.51510829  0.86169580  0.07328297  1
  O  O63  1  0.33660375  0.84346422  0.56971960  1
  O  O64  1  0.49748360  0.65146204  0.56994941  1
  O  O65  1  0.13830420  0.48489171  0.57328297  1
  O  O66  1  0.29590811  0.83511016  0.25587710  1
  O  O67  1  0.54027632  0.70785735  0.25718711  1
  O  O68  1  0.18357943  0.48003625  0.25791517  1
  O  O69  1  0.29214265  0.45972368  0.75718711  1
  O  O70  1  0.16488984  0.70409189  0.75587710  1
  O  O71  1  0.51996375  0.81642057  0.75791517  1
loop_
_geom_bond_atom_site_label_1
_geom_bond_atom_site_label_2
_geom_bond_distance
_geom_bond_site_symmetry_2
Na0 O44 2.606104 1_455
Na0 O43 2.616404 1_565
Na0 O42 2.673228 1_465
Na0 O38 2.673626 1_565
Na0 O36 2.707416 1_555
Na0 O37 2.708821 1_455
Na1 O47 2.606104 1_566
Na1 O45 2.616404 1_456
Na1 O46 2.673228 1_466
Na1 O41 2.673626 1_455
Na1 O40 2.707416 1_555
Na1 O39 2.708821 1_565
Na2 O48 2.344310 1_555
Na2 O49 2.647829 1_555
Na2 O56 2.681086 1_555
Na2 O50 2.684275 1_555
Na2 O55 2.689509 1_555
Na2 O54 2.717967 1_555
Na3 O52 2.344310 1_555
Na3 O51 2.647829 1_555
Na3 O59 2.681086 1_555
Na3 O53 2.684275 1_555
Na3 O57 2.689509 1_555
Na3 O58 2.717967 1_555
Na4 O68 2.603475 1_555
Na4 O60 2.665141 1_555
Na4 O61 2.709281 1_555
Na4 O66 2.732450 1_555
Na4 O67 2.760997 1_555
Na4 O62 2.770065 1_555
Na5 O71 2.603475 1_555
Na5 O64 2.665141 1_555
Na5 O63 2.709281 1_555
Na5 O70 2.732450 1_555
Na5 O69 2.760997 1_555
Na5 O65 2.770065 1_555
Ca0 O13 2.125381 1_555
Ca0 O14 2.180082 1_555
Ca0 O48 2.273322 1_555
Ca0 O12 2.275899 1_555
Ca0 O49 2.318344 1_555
Ca0 O50 2.362268 1_555
Ca1 O15 2.125381 1_555
Ca1 O17 2.180083 1_555
Ca1 O52 2.273322 1_555
Ca1 O16 2.275899 1_555
Ca1 O51 2.318344 1_555
Ca1 O53 2.362268 1_555
Nb0 O2 1.886089 1_555
Nb0 O37 1.915500 1_545
Nb0 O38 1.939153 1_655
Nb0 O36 1.997871 1_645
Nb0 O1 2.113457 1_545
Nb0 O0 2.168373 1_655
Nb1 O5 1.886089 1_555
Nb1 O39 1.915500 1_655
Nb1 O41 1.939153 1_545
Nb1 O40 1.997871 1_645
Nb1 O3 2.113457 1_655
Nb1 O4 2.168373 1_545
Nb2 O44 1.886381 1_555
Nb2 O6 1.928046 1_555
Nb2 O43 1.969649 1_665
Nb2 O42 2.105450 1_565
Nb2 O8 2.133942 1_655
Nb2 O7 2.255282 1_665
Nb3 O47 1.886381 1_555
Nb3 O10 1.928046 1_555
Nb3 O45 1.969649 1_445
Nb3 O46 2.105450 1_455
Nb3 O11 2.133942 1_545
Nb3 O9 2.255282 1_445
Nb4 O54 1.933645 1_555
Nb4 O19 1.948443 1_556
Nb4 O18 1.949120 1_556
Nb4 O56 2.019854 1_555
Nb4 O55 2.027029 1_555
Nb4 O20 2.333230 1_556
Nb5 O58 1.933645 1_555
Nb5 O21 1.948443 1_555
Nb5 O22 1.949120 1_555
Nb5 O59 2.019854 1_555
Nb5 O57 2.027029 1_555
Nb5 O23 2.333230 1_555
Nb6 O25 1.907520 1_554
Nb6 O61 1.927238 1_555
Nb6 O60 1.955236 1_555
Nb6 O26 1.979314 1_554
Nb6 O24 2.012324 1_554
Nb6 O62 2.200466 1_555
Nb7 O27 1.907520 1_555
Nb7 O63 1.927238 1_555
Nb7 O64 1.955237 1_555
Nb7 O29 1.979314 1_555
Nb7 O28 2.012324 1_555
Nb7 O65 2.200466 1_555
Nb8 O30 1.880804 1_555
Nb8 O32 1.900782 1_555
Nb8 O68 1.976217 1_555
Nb8 O31 1.977204 1_555
Nb8 O67 2.221848 1_555
Nb8 O66 2.240121 1_555
Nb9 O34 1.880804 1_555
Nb9 O35 1.900782 1_555
Nb9 O71 1.976218 1_555
Nb9 O33 1.977204 1_555
Nb9 O69 2.221848 1_555
Nb9 O70 2.240121 1_555
O0 S0 1.479803 1_545
O1 S1 1.499457 1_555
O2 Si0 1.667172 1_655
O3 S2 1.499457 1_555
O4 S3 1.479803 1_655
O5 Si1 1.667172 1_545
O6 Si1 1.686822 1_555
O7 S2 1.488674 1_555
O8 S3 1.518551 1_555
O9 S1 1.488674 1_555
O10 Si0 1.686822 1_555
O11 S0 1.518551 1_555
O12 S4 1.456209 1_555
O13 Si2 1.560650 1_555
O14 Si3 1.558031 1_555
O15 Si4 1.560650 1_555
O16 S5 1.456208 1_555
O17 Si5 1.558031 1_555
O18 Si5 1.668516 1_555
O19 Si4 1.684361 1_555
O20 S5 1.472081 1_555
O21 Si2 1.684361 1_555
O22 Si3 1.668516 1_555
O23 S4 1.472081 1_555
O24 Si6 1.600333 1_555
O25 Si7 1.631425 1_555
O26 Si8 1.613543 1_555
O27 Si9 1.631425 1_555
O28 Si10 1.600333 1_555
O29 Si11 1.613544 1_555
O30 Si11 1.671362 1_555
O31 Si9 1.632787 1_555
O32 Si10 1.648252 1_555
O33 Si7 1.632787 1_555
O34 Si8 1.671362 1_555
O35 Si6 1.648252 1_555
O36 Si11 1.633699 1_555
O37 Si9 1.653483 1_555
O38 Si10 1.640818 1_555
O39 Si7 1.653483 1_555
O40 Si8 1.633699 1_555
O41 Si6 1.640818 1_555
O42 S4 1.536983 1_555
O43 Si2 1.681797 1_555
O44 Si3 1.714891 1_555
O45 Si4 1.681797 1_555
O46 S5 1.536983 1_555
O47 Si5 1.714891 1_555
O48 Si1 1.572966 1_545
O49 S2 1.450819 1_555
O50 S3 1.448361 1_655
O51 S1 1.450819 1_555
O52 Si0 1.572966 1_655
O53 S0 1.448361 1_545
O54 Si6 1.638178 1_555
O55 Si7 1.615741 1_655
O56 Si8 1.623068 1_545
O57 Si9 1.615741 1_545
O58 Si10 1.638178 1_555
O59 Si11 1.623068 1_655
O60 Si5 1.639371 1_555
O61 Si4 1.657991 1_455
O62 S5 1.483823 1_565
O63 Si2 1.657991 1_565
O64 Si3 1.639371 1_555
O65 S4 1.483823 1_455
O66 S0 1.501337 1_555
O67 S1 1.503311 1_555
O68 Si0 1.674912 1_555
O69 S2 1.503311 1_555
O70 S3 1.501337 1_555
O71 Si1 1.674912 1_555
