# generated using pymatgen
data_K2RbTbMgV2O8
_symmetry_space_group_name_H-M   'P 1'
_cell_length_a   6.19861200
_cell_length_b   6.22052788
_cell_length_c   8.38343734
_cell_angle_alpha   93.47537620
_cell_angle_beta   90.00000000
_cell_angle_gamma   119.88352325
_symmetry_Int_Tables_number   1
_chemical_formula_structural   K2RbTbMgV2O8
_chemical_formula_sum   'K2 Rb1 Tb1 Mg1 V2 O8'
_cell_volume   279.58825582
_cell_formula_units_Z   1
loop_
 _symmetry_equiv_pos_site_id
 _symmetry_equiv_pos_as_xyz
  1  'x, y, z'
loop_
 _atom_site_type_symbol
 _atom_site_label
 _atom_site_symmetry_multiplicity
 _atom_site_fract_x
 _atom_site_fract_y
 _atom_site_fract_z
 _atom_site_occupancy
  K  K0  1  0.70171400  0.40342600  0.74706000  1
  K  K1  1  0.29828600  0.59657400  0.25294000  1
  Rb  Rb0  1  0.00000000  0.00000000  0.50000000  1
  Tb  Tb0  1  0.00000000  0.00000000  0.00000000  1
  Mg  Mg0  1  0.50000000  0.00000000  0.00000000  1
  V  V0  1  0.69362900  0.38725700  0.24508300  1
  V  V1  1  0.30637100  0.61274300  0.75491600  1
  O  O0  1  0.81463400  0.19135400  0.13282400  1
  O  O1  1  0.85021000  0.70042100  0.18781000  1
  O  O2  1  0.37671900  0.19135400  0.13282400  1
  O  O3  1  0.62328100  0.80864600  0.86717600  1
  O  O4  1  0.14979000  0.29957900  0.81219000  1
  O  O5  1  0.18536600  0.80864600  0.86717600  1
  O  O6  1  0.32616900  0.65234000  0.55374100  1
  O  O7  1  0.67383100  0.34766000  0.44625900  1
loop_
_geom_bond_atom_site_label_1
_geom_bond_atom_site_label_2
_geom_bond_distance
_geom_bond_site_symmetry_2
K0 O7 2.518652 1_555
K0 O5 2.918500 1_655
K0 O3 2.918503 1_555
K0 O4 3.203167 1_655
K0 O4 3.203173 1_555
K1 O6 2.518652 1_555
K1 O0 2.918500 1_455
K1 O2 2.918503 1_555
K1 O1 3.203167 1_455
K1 O1 3.203173 1_555
Mg0 O0 1.996609 1_555
Mg0 O5 1.996609 1_544
Mg0 O3 1.996614 1_544
Mg0 O2 1.996614 1_555
O0 V0 1.924865 1_555
O0 Tb0 2.275787 1_655
O1 V0 1.787952 1_555
O1 Tb0 2.333549 1_665
O1 Rb0 2.978127 1_665
O2 V0 1.924874 1_555
O2 Tb0 2.275783 1_555
O3 V1 1.924878 1_555
O3 Tb0 2.275783 1_666
O4 V1 1.787955 1_555
O4 Tb0 2.333549 1_556
O4 Rb0 2.978127 1_555
O5 V1 1.924869 1_555
O5 Tb0 2.275787 1_566
O6 V1 1.714755 1_555
O7 V0 1.714763 1_555
