# generated using pymatgen
data_YbNiB4
_symmetry_space_group_name_H-M   'P 1'
_cell_length_a   3.37061600
_cell_length_b   5.87816600
_cell_length_c   11.40257300
_cell_angle_alpha   90.00000000
_cell_angle_beta   90.00000000
_cell_angle_gamma   90.00000000
_symmetry_Int_Tables_number   1
_chemical_formula_structural   YbNiB4
_chemical_formula_sum   'Yb4 Ni4 B16'
_cell_volume   225.91963917
_cell_formula_units_Z   4
loop_
 _symmetry_equiv_pos_site_id
 _symmetry_equiv_pos_as_xyz
  1  'x, y, z'
loop_
 _atom_site_type_symbol
 _atom_site_label
 _atom_site_symmetry_multiplicity
 _atom_site_fract_x
 _atom_site_fract_y
 _atom_site_fract_z
 _atom_site_occupancy
  Yb  Yb0  1  0.00000000  0.62782700  0.34967700  1
  Yb  Yb1  1  0.00000000  0.12782700  0.15032300  1
  Yb  Yb2  1  0.00000000  0.87217300  0.84967700  1
  Yb  Yb3  1  0.00000000  0.37217300  0.65032300  1
  Ni  Ni0  1  0.00000000  0.13555100  0.41137500  1
  Ni  Ni1  1  0.00000000  0.36444900  0.91137500  1
  Ni  Ni2  1  0.00000000  0.63555100  0.08862500  1
  Ni  Ni3  1  0.00000000  0.86444900  0.58862500  1
  B  B0  1  0.50000000  0.01993500  0.69058600  1
  B  B1  1  0.50000000  0.78208100  0.18407500  1
  B  B2  1  0.50000000  0.61224900  0.95271000  1
  B  B3  1  0.50000000  0.28208100  0.31592500  1
  B  B4  1  0.50000000  0.88775100  0.45271000  1
  B  B5  1  0.50000000  0.86055100  0.03257800  1
  B  B6  1  0.50000000  0.63944900  0.53257800  1
  B  B7  1  0.50000000  0.11224900  0.54729000  1
  B  B8  1  0.50000000  0.21791900  0.81592500  1
  B  B9  1  0.50000000  0.48006500  0.19058600  1
  B  B10  1  0.50000000  0.51993500  0.80941400  1
  B  B11  1  0.50000000  0.98006500  0.30941400  1
  B  B12  1  0.50000000  0.38775100  0.04729000  1
  B  B13  1  0.50000000  0.71791900  0.68407500  1
  B  B14  1  0.50000000  0.36055100  0.46742200  1
  B  B15  1  0.50000000  0.13944900  0.96742200  1
loop_
_geom_bond_atom_site_label_1
_geom_bond_atom_site_label_2
_geom_bond_distance
_geom_bond_site_symmetry_2
B0 B7 1.721692 1_555
B0 B13 1.776852 1_545
B0 B8 1.843086 1_555
B0 Ni3 2.242162 1_545
B0 Ni3 2.242162 1_645
B0 Yb2 2.624013 1_645
B0 Yb2 2.624013 1_545
B0 Yb3 2.708886 1_555
B0 Yb3 2.708886 1_655
B1 B9 1.776852 1_555
B1 B5 1.787977 1_555
B1 B11 1.843086 1_555
B1 Ni2 2.183280 1_655
B1 Ni2 2.183280 1_555
B1 Yb1 2.668115 1_665
B1 Yb1 2.668115 1_565
B1 Yb0 2.688505 1_555
B1 Yb0 2.688505 1_655
B2 B5 1.720376 1_556
B2 Ni1 2.276867 1_555
B2 Ni1 2.276867 1_655
B2 Ni2 2.293653 1_656
B2 Ni2 2.293653 1_556
B2 Yb2 2.560258 1_555
B2 Yb2 2.560258 1_655
B3 B9 1.843086 1_555
B3 Ni0 2.183280 1_555
B3 Ni0 2.183280 1_655
B3 Yb0 2.668115 1_555
B3 Yb0 2.668115 1_655
B3 Yb1 2.688505 1_555
B3 Yb1 2.688505 1_655
B4 B7 1.704261 1_565
B4 B6 1.720376 1_555
B4 Ni0 2.276867 1_565
B4 Ni0 2.276867 1_665
B4 Ni3 2.293653 1_655
B4 Ni3 2.293653 1_555
B4 Yb0 2.560258 1_555
B4 Yb0 2.560258 1_655
B5 Ni2 2.235604 1_555
B5 Ni2 2.235604 1_655
B5 Yb1 2.666676 1_565
B5 Yb1 2.666676 1_665
B5 Yb2 2.682241 1_554
B5 Yb2 2.682241 1_654
B6 Ni3 2.235604 1_655
B6 Ni3 2.235604 1_555
B6 Yb3 2.666676 1_555
B6 Yb3 2.666676 1_655
B6 Yb0 2.682241 1_555
B6 Yb0 2.682241 1_655
B7 Ni3 2.276867 1_545
B7 Ni3 2.276867 1_645
B7 Ni0 2.293653 1_655
B7 Ni0 2.293653 1_555
B7 Yb3 2.560258 1_555
B7 Yb3 2.560258 1_655
B8 Ni1 2.183280 1_655
B8 Ni1 2.183280 1_555
B8 Yb2 2.668115 1_545
B8 Yb2 2.668115 1_645
B8 Yb3 2.688505 1_655
B8 Yb3 2.688505 1_555
B9 Ni2 2.242162 1_555
B9 Ni2 2.242162 1_655
B9 Yb0 2.624013 1_555
B9 Yb0 2.624013 1_655
B9 Yb1 2.708886 1_655
B9 Yb1 2.708886 1_555
B10 B2 1.721692 1_555
B10 B8 1.776852 1_555
B10 B13 1.843086 1_555
B10 Ni1 2.242162 1_555
B10 Ni1 2.242162 1_655
B10 Yb3 2.624013 1_555
B10 Yb3 2.624013 1_655
B10 Yb2 2.708886 1_555
B10 Yb2 2.708886 1_655
B11 B4 1.721692 1_555
B11 B3 1.776852 1_565
B11 Ni0 2.242162 1_665
B11 Ni0 2.242162 1_565
B11 Yb1 2.624013 1_565
B11 Yb1 2.624013 1_665
B11 Yb0 2.708886 1_555
B11 Yb0 2.708886 1_655
B12 B2 1.704261 1_554
B12 B15 1.720376 1_554
B12 B9 1.721692 1_555
B12 Ni2 2.276867 1_655
B12 Ni2 2.276867 1_555
B12 Ni1 2.293653 1_654
B12 Ni1 2.293653 1_554
B12 Yb1 2.560258 1_655
B12 Yb1 2.560258 1_555
B13 B6 1.787977 1_555
B13 Ni3 2.183280 1_655
B13 Ni3 2.183280 1_555
B13 Yb3 2.668115 1_555
B13 Yb3 2.668115 1_655
B13 Yb2 2.688505 1_655
B13 Yb2 2.688505 1_555
B14 B7 1.720376 1_555
B14 B3 1.787977 1_555
B14 B6 1.799897 1_555
B14 Ni0 2.235604 1_555
B14 Ni0 2.235604 1_655
B14 Yb0 2.666676 1_555
B14 Yb0 2.666676 1_655
B14 Yb3 2.682241 1_655
B14 Yb3 2.682241 1_555
B15 B8 1.787977 1_555
B15 B5 1.799897 1_546
B15 Ni1 2.235604 1_555
B15 Ni1 2.235604 1_655
B15 Yb2 2.666676 1_545
B15 Yb2 2.666676 1_645
B15 Yb1 2.682241 1_556
B15 Yb1 2.682241 1_656
