# generated using pymatgen
data_Na4Hf2Sc2Si3(SO8)3
_symmetry_space_group_name_H-M   'P 1'
_cell_length_a   9.04063685
_cell_length_b   8.99259744
_cell_length_c   23.01574010
_cell_angle_alpha   90.11620575
_cell_angle_beta   89.76986673
_cell_angle_gamma   119.75652043
_symmetry_Int_Tables_number   1
_chemical_formula_structural   Na4Hf2Sc2Si3(SO8)3
_chemical_formula_sum   'Na12 Hf6 Sc6 Si9 S9 O72'
_cell_volume   1624.41336769
_cell_formula_units_Z   3
loop_
 _symmetry_equiv_pos_site_id
 _symmetry_equiv_pos_as_xyz
  1  'x, y, z'
loop_
 _atom_site_type_symbol
 _atom_site_label
 _atom_site_symmetry_multiplicity
 _atom_site_fract_x
 _atom_site_fract_y
 _atom_site_fract_z
 _atom_site_occupancy
  Na  Na0  1  0.99522584  0.64446623  0.25233121  1
  Na  Na1  1  0.99483550  0.35436876  0.74081252  1
  Na  Na2  1  0.66296596  0.97749923  0.58871523  1
  Na  Na3  1  0.67005718  0.69631079  0.08121401  1
  Na  Na4  1  0.33554824  0.30704847  0.90430577  1
  Na  Na5  1  0.32122997  0.02165025  0.42088440  1
  Na  Na6  1  0.01023167  0.99903243  0.50287381  1
  Na  Na7  1  0.98647078  0.97900377  0.99510985  1
  Na  Na8  1  0.65451760  0.32748074  0.82112389  1
  Na  Na9  1  0.66330231  0.34348160  0.33240032  1
  Na  Na10  1  0.33084331  0.67583537  0.16923687  1
  Na  Na11  1  0.32840421  0.66635096  0.66061915  1
  Hf  Hf0  1  0.01228152  0.01611618  0.64673863  1
  Hf  Hf1  1  -0.00008154  0.98557839  0.15094051  1
  Hf  Hf2  1  0.67828467  0.34946765  0.98042258  1
  Hf  Hf3  1  0.67725857  0.33754774  0.48454409  1
  Hf  Hf4  1  0.33351983  0.67016358  0.31349799  1
  Hf  Hf5  1  0.35415691  0.67172066  0.80935747  1
  Sc  Sc0  1  0.00080845  0.98330253  0.35074685  1
  Sc  Sc1  1  0.98624549  0.99473324  0.84778433  1
  Sc  Sc2  1  0.65269658  0.31500213  0.68501480  1
  Sc  Sc3  1  0.66756960  0.33793800  0.18959086  1
  Sc  Sc4  1  0.33195887  0.67250823  0.01830831  1
  Sc  Sc5  1  0.30807476  0.66101728  0.52201669  1
  Si  Si0  1  0.29997849  0.00501780  0.25247652  1
  Si  Si1  1  0.70186177  0.70563475  0.24986181  1
  Si  Si2  1  0.29617337  0.28900984  0.75452080  1
  Si  Si3  1  0.71055966  0.00309605  0.74770860  1
  Si  Si4  1  0.96142315  0.33623068  0.58741158  1
  Si  Si5  1  0.37174290  0.03945869  0.58049843  1
  Si  Si6  1  0.96733194  0.62675177  0.08619899  1
  Si  Si7  1  0.63080467  0.67522473  0.92001318  1
  Si  Si8  1  0.03368855  0.66195186  0.41567066  1
  S  S0  1  0.00183706  0.28883596  0.25047626  1
  S  S1  1  0.00108103  0.70813682  0.75096004  1
  S  S2  1  0.66766504  0.62546555  0.58415537  1
  S  S3  1  0.66853777  0.04441962  0.08349627  1
  S  S4  1  0.37354644  0.33102259  0.08290082  1
  S  S5  1  0.04213633  0.37658844  0.91736286  1
  S  S6  1  0.33420033  0.95995558  0.91766848  1
  S  S7  1  0.62672034  0.95802433  0.41757165  1
  S  S8  1  0.33304752  0.37597711  0.41692992  1
  O  O0  1  0.21523293  0.03204600  0.31032910  1
  O  O1  1  0.83076924  0.80034812  0.30282399  1
  O  O2  1  0.98004309  0.18818050  0.30199982  1
  O  O3  1  0.21096127  0.18353007  0.81451099  1
  O  O4  1  0.97951324  0.78992686  0.80359531  1
  O  O5  1  0.82809032  0.02821132  0.80452772  1
  O  O6  1  0.79280626  0.96688973  0.68974766  1
  O  O7  1  0.16666588  0.19755974  0.69898718  1
  O  O8  1  0.02861675  0.81352266  0.69866872  1
  O  O9  1  0.78812199  0.82152791  0.18940925  1
  O  O10  1  0.02457495  0.20863165  0.19682171  1
  O  O11  1  0.16791208  0.96789577  0.19630999  1
  O  O12  1  0.87738106  0.36306892  0.64534944  1
  O  O13  1  0.49626955  0.13195533  0.63519285  1
  O  O14  1  0.64330416  0.52311982  0.63534907  1
  O  O15  1  0.87339392  0.51466194  0.14262800  1
  O  O16  1  0.64450416  0.12316945  0.13467287  1
  O  O17  1  0.48223591  0.35651421  0.13304596  1
  O  O18  1  0.45177616  0.30318742  0.02887586  1
  O  O19  1  0.83545746  0.53122538  0.02961223  1
  O  O20  1  0.68371245  0.14573778  0.02993366  1
  O  O21  1  0.45692653  0.15437418  0.52038770  1
  O  O22  1  0.69109203  0.54197797  0.53065518  1
  O  O23  1  0.83444461  0.30384988  0.53042010  1
  O  O24  1  0.53739736  0.68765244  0.97909067  1
  O  O25  1  0.14835319  0.46342234  0.96841948  1
  O  O26  1  0.31144178  0.85528370  0.96986783  1
  O  O27  1  0.55265843  0.85808308  0.46972987  1
  O  O28  1  0.32007019  0.46149737  0.46849673  1
  O  O29  1  0.16357120  0.69823702  0.46884025  1
  O  O30  1  0.12596565  0.63787607  0.35636335  1
  O  O31  1  0.51341425  0.87052824  0.36573305  1
  O  O32  1  0.35633604  0.48171375  0.36380592  1
  O  O33  1  0.11199749  0.47906725  0.86440483  1
  O  O34  1  0.35434348  0.87748314  0.86552698  1
  O  O35  1  0.49780657  0.63418554  0.86541894  1
  O  O36  1  0.02442621  0.83988992  0.41218731  1
  O  O37  1  0.79842930  0.98758026  0.40802875  1
  O  O38  1  0.17949266  0.20540414  0.41145116  1
  O  O39  1  0.03036178  0.20739638  0.91406718  1
  O  O40  1  0.18641849  0.98742136  0.91435129  1
  O  O41  1  0.82072210  0.83483208  0.91332184  1
  O  O42  1  0.96317445  0.15196232  0.58843724  1
  O  O43  1  0.18052263  0.01193895  0.58877837  1
  O  O44  1  0.82377875  0.79690577  0.58751524  1
  O  O45  1  0.97121774  0.81567396  0.08765206  1
  O  O46  1  0.82549259  0.02887110  0.08629782  1
  O  O47  1  0.20033916  0.18090756  0.08860548  1
  O  O48  1  0.70079747  0.17830342  0.74618835  1
  O  O49  1  0.48688096  0.32520211  0.74597750  1
  O  O50  1  0.85114425  0.53667942  0.74601686  1
  O  O51  1  0.69637323  0.52217827  0.24360246  1
  O  O52  1  0.85321682  0.31469043  0.24437760  1
  O  O53  1  0.48768797  0.16328073  0.24112686  1
  O  O54  1  0.63283618  0.48758931  0.92498950  1
  O  O55  1  0.86567948  0.35103005  0.92567061  1
  O  O56  1  0.49073991  0.13241637  0.92441778  1
  O  O57  1  0.62947672  0.12751115  0.42013911  1
  O  O58  1  0.48565146  0.35166440  0.41924187  1
  O  O59  1  0.84315325  0.49223639  0.42184788  1
  O  O60  1  0.36242935  0.48988084  0.07666995  1
  O  O61  1  0.15482459  0.65119542  0.07602281  1
  O  O62  1  0.52003509  0.86755636  0.07795917  1
  O  O63  1  0.37207682  0.85795417  0.57570943  1
  O  O64  1  0.52061423  0.65146052  0.57544105  1
  O  O65  1  0.15191170  0.49393802  0.57859821  1
  O  O66  1  0.30033689  0.82027726  0.25611184  1
  O  O67  1  0.51206535  0.68141286  0.25680014  1
  O  O68  1  0.15704217  0.46355603  0.25424774  1
  O  O69  1  0.29217033  0.47389031  0.75903560  1
  O  O70  1  0.15411949  0.68739304  0.75864665  1
  O  O71  1  0.51845619  0.83535041  0.75644264  1
loop_
_geom_bond_atom_site_label_1
_geom_bond_atom_site_label_2
_geom_bond_distance
_geom_bond_site_symmetry_2
Na0 O51 2.367213 1_555
Na0 O66 2.405904 1_655
Na0 O52 2.587788 1_555
Na0 O68 2.674316 1_655
Na0 O30 2.688205 1_655
Na0 O1 2.752164 1_555
Na0 O15 2.772184 1_555
Na0 O11 2.837397 1_655
Na1 O48 2.325715 1_555
Na1 O69 2.386696 1_655
Na1 O12 2.462328 1_555
Na1 O50 2.549841 1_555
Na1 O70 2.632437 1_655
Na1 O7 2.735917 1_655
Na2 O63 2.315163 1_555
Na2 O42 2.366612 1_565
Na2 O64 2.569027 1_555
Na2 O6 2.632144 1_555
Na2 O44 2.663642 1_555
Na2 O13 2.720938 1_565
Na2 O23 2.880861 1_565
Na2 O27 2.931597 1_555
Na3 O45 2.385112 1_555
Na3 O60 2.463448 1_555
Na3 O62 2.508203 1_555
Na3 O46 2.600068 1_565
Na3 O24 2.626452 1_554
Na3 O9 2.724929 1_555
Na3 O19 2.834165 1_555
Na3 O17 2.914037 1_555
Na4 O3 2.353967 1_555
Na4 O54 2.400383 1_555
Na4 O39 2.451042 1_555
Na4 O40 2.507233 1_545
Na4 O56 2.616134 1_555
Na4 O35 2.706231 1_555
Na5 O36 2.358218 1_545
Na5 O57 2.457405 1_555
Na5 O38 2.554431 1_555
Na5 O58 2.576686 1_555
Na5 O21 2.594674 1_555
Na5 O0 2.740631 1_555
Na5 O29 2.755679 1_545
Na5 O31 2.965795 1_545
Na6 O43 2.477691 1_565
Na6 O42 2.552149 1_465
Na6 O36 2.566911 1_555
Na6 O44 2.624297 1_455
Na6 O38 2.717393 1_565
Na6 O37 2.877373 1_455
Na7 O41 2.356712 1_555
Na7 O45 2.553849 1_556
Na7 O40 2.562408 1_655
Na7 O39 2.656226 1_665
Na7 O46 2.709867 1_566
Na7 O47 2.863291 1_666
Na8 O49 2.297546 1_555
Na8 O48 2.343331 1_555
Na8 O50 2.521159 1_555
Na8 O54 2.844035 1_555
Na8 O56 2.886486 1_555
Na8 O55 3.018726 1_555
Na9 O51 2.525883 1_555
Na9 O59 2.555024 1_555
Na9 O58 2.582773 1_555
Na9 O53 2.649310 1_555
Na9 O57 2.713795 1_555
Na9 O52 2.744163 1_555
Na10 O66 2.470187 1_555
Na10 O67 2.587057 1_555
Na10 O61 2.619083 1_555
Na10 O68 2.637098 1_555
Na10 O62 2.714789 1_555
Na10 O60 2.805622 1_555
Na11 O65 2.463772 1_555
Na11 O63 2.505188 1_555
Na11 O64 2.661463 1_555
Na11 O71 2.747851 1_555
Na11 O69 2.771404 1_555
Na11 O70 2.806145 1_555
Hf0 O7 1.949720 1_555
Hf0 O42 2.009919 1_455
Hf0 O43 2.033380 1_555
Hf0 O6 2.055964 1_445
Hf0 O8 2.246500 1_545
Hf0 O44 2.306778 1_445
Hf1 O11 1.917149 1_555
Hf1 O9 1.953036 1_455
Hf1 O45 2.030766 1_455
Hf1 O10 2.176608 1_565
Hf1 O47 2.292788 1_565
Hf1 O46 2.341449 1_465
Hf2 O19 1.916339 1_556
Hf2 O54 1.963809 1_555
Hf2 O55 2.101831 1_555
Hf2 O18 2.178952 1_556
Hf2 O20 2.180722 1_556
Hf2 O56 2.251302 1_555
Hf3 O23 1.914918 1_555
Hf3 O21 2.024116 1_555
Hf3 O59 2.046093 1_555
Hf3 O22 2.070376 1_555
Hf3 O57 2.266112 1_555
Hf3 O58 2.348557 1_555
Hf4 O30 2.006013 1_555
Hf4 O66 2.017208 1_555
Hf4 O67 2.034740 1_555
Hf4 O31 2.105949 1_555
Hf4 O32 2.147542 1_555
Hf4 O68 2.218528 1_555
Hf5 O71 1.917788 1_555
Hf5 O69 1.956421 1_555
Hf5 O35 1.978820 1_555
Hf5 O70 2.218843 1_555
Hf5 O34 2.254387 1_555
Hf5 O33 2.370919 1_555
O0 Si0 1.610698 1_555
O0 Sc0 1.989752 1_545
O1 Si1 1.609778 1_555
O1 Sc0 1.944809 1_655
O2 S0 1.445621 1_655
O2 Sc0 2.245395 1_645
O3 Si2 1.634321 1_555
O3 Sc1 2.040891 1_445
O4 S1 1.477639 1_655
O4 Sc1 2.076469 1_555
O5 Si3 1.631548 1_555
O5 Sc1 1.888425 1_545
O6 Si3 1.633728 1_565
O7 Si2 1.653117 1_555
O8 S1 1.475331 1_555
O9 Si1 1.679464 1_555
O10 S0 1.492965 1_555
O11 Si0 1.680212 1_565
O12 Si4 1.608194 1_555
O12 Sc2 2.064358 1_555
O13 Si5 1.619125 1_555
O13 Sc2 1.928484 1_555
O14 S2 1.443941 1_555
O14 Sc2 2.232411 1_555
O15 Si6 1.603356 1_555
O15 Sc3 2.052276 1_555
O16 S3 1.443391 1_555
O16 Sc3 2.227914 1_555
O17 S4 1.461010 1_555
O17 Sc3 2.196646 1_555
O18 S4 1.508760 1_555
O19 Si6 1.687269 1_555
O20 S3 1.499275 1_555
O21 Si5 1.668022 1_555
O22 S2 1.508880 1_555
O23 Si4 1.673892 1_555
O24 Si7 1.630418 1_555
O24 Sc4 2.004689 1_556
O25 S5 1.474370 1_555
O25 Sc4 2.125448 1_556
O26 S6 1.477181 1_555
O26 Sc4 2.071381 1_556
O27 S7 1.448356 1_555
O27 Sc5 2.361286 1_555
O28 S8 1.448638 1_555
O28 Sc5 2.220667 1_555
O29 Si8 1.616293 1_555
O29 Sc5 1.940406 1_555
O30 Si8 1.665835 1_555
O31 S7 1.515868 1_555
O32 S8 1.499111 1_555
O33 S5 1.467794 1_555
O34 S6 1.466994 1_555
O35 Si7 1.652446 1_555
O36 Si8 1.645423 1_555
O36 Sc0 1.997905 1_555
O37 S7 1.454869 1_555
O37 Sc0 2.266599 1_655
O38 S8 1.477442 1_555
O38 Sc0 2.314059 1_545
O39 S5 1.473365 1_555
O39 Sc1 2.319388 1_445
O40 S6 1.476581 1_555
O40 Sc1 2.401540 1_455
O41 Si7 1.607591 1_555
O41 Sc1 2.106411 1_555
O42 Si4 1.665182 1_555
O43 Si5 1.630651 1_555
O44 S2 1.488384 1_555
O45 Si6 1.682009 1_555
O46 S3 1.494958 1_555
O47 S4 1.480670 1_555
O48 Si3 1.621638 1_555
O48 Sc2 2.055512 1_555
O49 Si2 1.599284 1_555
O49 Sc2 2.084086 1_555
O50 S1 1.467515 1_655
O50 Sc2 2.371216 1_555
O51 Si1 1.631787 1_555
O51 Sc3 1.980939 1_555
O52 S0 1.480139 1_655
O52 Sc3 2.194766 1_555
O53 Si0 1.604412 1_555
O53 Sc3 1.993770 1_555
O54 Si7 1.700617 1_555
O55 S5 1.506017 1_655
O56 S6 1.501437 1_545
O57 S7 1.512951 1_545
O58 S8 1.501359 1_555
O59 Si8 1.644994 1_655
O60 S4 1.488248 1_555
O60 Sc4 2.244615 1_555
O61 Si6 1.613552 1_455
O61 Sc4 2.011222 1_555
O62 S3 1.493074 1_565
O62 Sc4 2.213838 1_555
O63 Si5 1.637188 1_565
O63 Sc5 1.994491 1_555
O64 S2 1.474136 1_555
O64 Sc5 2.322663 1_555
O65 Si4 1.610037 1_455
O65 Sc5 1.958094 1_555
O66 Si0 1.665181 1_565
O67 Si1 1.626080 1_555
O68 S0 1.502351 1_555
O69 Si2 1.683803 1_555
O70 S1 1.496208 1_555
O71 Si3 1.652290 1_565
