# generated using pymatgen
data_CsAlBr4
_symmetry_space_group_name_H-M   'P 1'
_cell_length_a   7.57379411
_cell_length_b   10.00449482
_cell_length_c   12.25043921
_cell_angle_alpha   90.00000000
_cell_angle_beta   90.00000000
_cell_angle_gamma   90.00000000
_symmetry_Int_Tables_number   1
_chemical_formula_structural   CsAlBr4
_chemical_formula_sum   'Cs4 Al4 Br16'
_cell_volume   928.24008309
_cell_formula_units_Z   4
loop_
 _symmetry_equiv_pos_site_id
 _symmetry_equiv_pos_as_xyz
  1  'x, y, z'
loop_
 _atom_site_type_symbol
 _atom_site_label
 _atom_site_symmetry_multiplicity
 _atom_site_fract_x
 _atom_site_fract_y
 _atom_site_fract_z
 _atom_site_occupancy
  Cs  Cs0  1  0.25000000  0.33095307  0.68115880  1
  Cs  Cs1  1  0.75000000  0.66904693  0.31884120  1
  Cs  Cs2  1  0.75000000  0.83095307  0.81884120  1
  Cs  Cs3  1  0.25000000  0.16904693  0.18115880  1
  Al  Al0  1  0.25000000  0.69400782  0.07194537  1
  Al  Al1  1  0.25000000  0.80599218  0.57194537  1
  Al  Al2  1  0.75000000  0.19400782  0.42805463  1
  Al  Al3  1  0.75000000  0.30599218  0.92805463  1
  Br  Br0  1  0.50471684  0.33135079  0.41682263  1
  Br  Br1  1  0.99528316  0.16864921  0.91682263  1
  Br  Br2  1  0.49528316  0.83135079  0.08317737  1
  Br  Br3  1  0.00471684  0.66864921  0.58317737  1
  Br  Br4  1  0.25000000  0.58047716  0.90896038  1
  Br  Br5  1  0.75000000  0.41952284  0.09103962  1
  Br  Br6  1  0.75000000  0.08047716  0.59103962  1
  Br  Br7  1  0.25000000  0.91952284  0.40896038  1
  Br  Br8  1  0.25000000  0.55292586  0.22050425  1
  Br  Br9  1  0.75000000  0.44707414  0.77949575  1
  Br  Br10  1  0.75000000  0.05292586  0.27949575  1
  Br  Br11  1  0.25000000  0.94707414  0.72050425  1
  Br  Br12  1  0.00471684  0.83135079  0.08317737  1
  Br  Br13  1  0.50471684  0.16864921  0.91682263  1
  Br  Br14  1  0.99528316  0.33135079  0.41682263  1
  Br  Br15  1  0.49528316  0.66864921  0.58317737  1
loop_
_geom_bond_atom_site_label_1
_geom_bond_atom_site_label_2
_geom_bond_distance
_geom_bond_site_symmetry_2
Al0 Br4 2.297094 1_554
Al0 Br8 2.303102 1_555
Al0 Br2 2.314752 1_555
Al0 Br12 2.314752 1_555
Al1 Br7 2.297094 1_555
Al1 Br11 2.303102 1_555
Al1 Br3 2.314752 1_555
Al1 Br15 2.314752 1_555
Al2 Br6 2.297094 1_555
Al2 Br10 2.303102 1_555
Al2 Br0 2.314752 1_555
Al2 Br14 2.314752 1_555
Al3 Br5 2.297094 1_556
Al3 Br9 2.303102 1_555
Al3 Br13 2.314752 1_555
Al3 Br1 2.314752 1_555
Br0 Cs0 3.769335 1_555
Br0 Cs3 3.833147 1_555
Br0 Cs1 4.038071 1_555
Br1 Cs3 3.769335 1_656
Br1 Cs0 3.833147 1_655
Br1 Cs2 4.038071 1_545
Br2 Cs2 3.769335 1_554
Br2 Cs1 3.833147 1_555
Br2 Cs3 4.038071 1_565
Br3 Cs1 3.769335 1_455
Br3 Cs2 3.833147 1_455
Br3 Cs0 4.038071 1_555
Br4 Cs0 3.744284 1_555
Br5 Cs1 3.744284 1_555
Br6 Cs2 3.744284 1_545
Br7 Cs3 3.744284 1_565
Br8 Cs3 3.870643 1_555
Br8 Cs1 4.140223 1_455
Br8 Cs1 4.140223 1_555
Br9 Cs2 3.870643 1_555
Br9 Cs0 4.140223 1_555
Br9 Cs0 4.140223 1_655
Br10 Cs1 3.870643 1_545
Br10 Cs3 4.140223 1_555
Br10 Cs3 4.140223 1_655
Br11 Cs0 3.870643 1_565
Br11 Cs2 4.140223 1_455
Br11 Cs2 4.140223 1_555
Br12 Cs2 3.769335 1_454
Br12 Cs1 3.833147 1_455
Br12 Cs3 4.038071 1_565
Br13 Cs3 3.769335 1_556
Br13 Cs0 3.833147 1_555
Br13 Cs2 4.038071 1_545
Br14 Cs0 3.769335 1_655
Br14 Cs3 3.833147 1_655
Br14 Cs1 4.038071 1_555
Br15 Cs1 3.769335 1_555
Br15 Cs2 3.833147 1_555
Br15 Cs0 4.038071 1_555
