# generated using pymatgen
data_Ba2GdMgSbO6
_symmetry_space_group_name_H-M   'P 1'
_cell_length_a   6.65124251
_cell_length_b   6.31183029
_cell_length_c   6.65124251
_cell_angle_alpha   118.32621128
_cell_angle_beta   83.41086694
_cell_angle_gamma   61.67378872
_symmetry_Int_Tables_number   1
_chemical_formula_structural   Ba2GdMgSbO6
_chemical_formula_sum   'Ba2 Gd1 Mg1 Sb1 O6'
_cell_volume   194.43658818
_cell_formula_units_Z   1
loop_
 _symmetry_equiv_pos_site_id
 _symmetry_equiv_pos_as_xyz
  1  'x, y, z'
loop_
 _atom_site_type_symbol
 _atom_site_label
 _atom_site_symmetry_multiplicity
 _atom_site_fract_x
 _atom_site_fract_y
 _atom_site_fract_z
 _atom_site_occupancy
  Ba  Ba0  1  0.30784300  0.50000000  0.30784300  1
  Ba  Ba1  1  0.69215700  0.50000000  0.69215700  1
  Gd  Gd0  1  0.50000000  0.00000000  0.50000000  1
  Mg  Mg0  1  0.00000000  0.50000000  0.00000000  1
  Sb  Sb0  1  0.00000000  0.00000000  0.00000000  1
  O  O0  1  0.76953300  0.96286400  0.23046700  1
  O  O1  1  0.74508200  0.00000000  0.74508200  1
  O  O2  1  0.23046700  0.03713600  0.76953300  1
  O  O3  1  0.25491800  0.00000000  0.25491800  1
  O  O4  1  0.76953100  0.49808100  0.23046900  1
  O  O5  1  0.23046900  0.50191900  0.76953100  1
loop_
_geom_bond_atom_site_label_1
_geom_bond_atom_site_label_2
_geom_bond_distance
_geom_bond_site_symmetry_2
Ba0 O2 3.048050 1_565
Ba0 O0 3.048050 1_545
Ba0 O4 3.048098 1_555
Ba0 O5 3.048098 1_555
Ba0 Mg0 3.057282 1_555
Ba0 O1 3.163824 1_465
Ba0 O1 3.163824 1_554
Ba0 O3 3.199386 1_555
Ba0 O3 3.199386 1_565
Ba1 O2 3.048050 1_565
Ba1 O0 3.048050 1_545
Ba1 O4 3.048098 1_555
Ba1 O5 3.048098 1_555
Ba1 Mg0 3.057282 1_656
Ba1 O3 3.163824 1_566
Ba1 O3 3.163824 1_655
Ba1 O1 3.199386 1_555
Ba1 O1 3.199386 1_565
Gd0 O5 2.224241 1_555
Gd0 O4 2.224241 1_545
Gd0 O0 2.224316 1_545
Gd0 O2 2.224316 1_555
Gd0 O1 2.433984 1_555
Gd0 O3 2.433984 1_555
Mg0 O4 2.048343 1_455
Mg0 O5 2.048343 1_554
Mg0 O0 2.048349 1_455
Mg0 O2 2.048349 1_554
O0 Sb0 2.212948 1_665
O1 Sb0 2.531668 1_656
O2 Sb0 2.212948 1_556
O3 Sb0 2.531668 1_555
O4 Sb0 2.212972 1_655
O5 Sb0 2.212972 1_566
