# generated using pymatgen
data_Na9Ca4Ta8Si3(P5O24)3
_symmetry_space_group_name_H-M   'P 1'
_cell_length_a   8.97833103
_cell_length_b   8.96656995
_cell_length_c   22.86234238
_cell_angle_alpha   89.92040083
_cell_angle_beta   90.04049056
_cell_angle_gamma   119.89435610
_symmetry_Int_Tables_number   1
_chemical_formula_structural   Na9Ca4Ta8Si3(P5O24)3
_chemical_formula_sum   'Na9 Ca4 Ta8 Si3 P15 O72'
_cell_volume   1595.63748707
_cell_formula_units_Z   1
loop_
 _symmetry_equiv_pos_site_id
 _symmetry_equiv_pos_as_xyz
  1  'x, y, z'
loop_
 _atom_site_type_symbol
 _atom_site_label
 _atom_site_symmetry_multiplicity
 _atom_site_fract_x
 _atom_site_fract_y
 _atom_site_fract_z
 _atom_site_occupancy
  Na  Na0  1  0.98452946  0.63302415  0.24243777  1
  Na  Na1  1  0.36795189  0.01723925  0.74289077  1
  Na  Na2  1  0.32016942  0.02981568  0.41069129  1
  Na  Na3  1  0.99321957  0.00555639  0.49677808  1
  Na  Na4  1  0.00078888  -0.00004047  0.99572648  1
  Na  Na5  1  0.68162173  0.34679512  0.82447484  1
  Na  Na6  1  0.66510177  0.32965127  0.32339573  1
  Na  Na7  1  0.33911415  0.66771940  0.16589521  1
  Na  Na8  1  0.33362016  0.66229228  0.66537374  1
  Ca  Ca0  1  0.99232320  0.00234903  0.35760499  1
  Ca  Ca1  1  0.99823343  0.00008252  0.85935672  1
  Ca  Ca2  1  0.67195808  0.33568748  0.68052656  1
  Ca  Ca3  1  0.66299537  0.32701466  0.17955784  1
  Ta  Ta0  1  0.00145445  0.00113381  0.64726375  1
  Ta  Ta1  1  0.00047414  0.00087222  0.14698513  1
  Ta  Ta2  1  0.66876274  0.33690596  0.98118556  1
  Ta  Ta3  1  0.66524516  0.33625291  0.48219433  1
  Ta  Ta4  1  0.33145548  0.66779829  0.02037866  1
  Ta  Ta5  1  0.33188318  0.66317016  0.52069979  1
  Ta  Ta6  1  0.33717620  0.66040318  0.31150309  1
  Ta  Ta7  1  0.33438105  0.66412887  0.81177430  1
  Si  Si0  1  0.36630908  0.03494259  0.58555097  1
  Si  Si1  1  0.96370824  0.63344453  0.08561676  1
  Si  Si2  1  0.34370530  0.38031419  0.41846221  1
  P  P0  1  0.29152148  0.99596206  0.25367930  1
  P  P1  1  0.70596779  0.71251926  0.25027365  1
  P  P2  1  0.00523705  0.29615683  0.25098964  1
  P  P3  1  0.28675314  0.29340091  0.75144388  1
  P  P4  1  0.00414574  0.70976424  0.75261153  1
  P  P5  1  0.70660882  0.99456687  0.75216762  1
  P  P6  1  0.96269199  0.33022907  0.58249103  1
  P  P7  1  0.66953897  0.63341637  0.58299307  1
  P  P8  1  0.66949244  0.03688669  0.08158096  1
  P  P9  1  0.36861176  0.33152628  0.08182327  1
  P  P10  1  0.61198488  0.65297150  0.91867279  1
  P  P11  1  0.04176511  0.38787710  0.91855008  1
  P  P12  1  0.34714581  0.95961399  0.91752215  1
  P  P13  1  0.61264198  0.95567635  0.41899799  1
  P  P14  1  0.04207272  0.65070253  0.41711114  1
  O  O0  1  0.21331693  0.00829011  0.31052429  1
  O  O1  1  0.81166192  0.78860769  0.30409662  1
  O  O2  1  0.98863366  0.19906145  0.30574352  1
  O  O3  1  0.20860945  0.18667709  0.80485291  1
  O  O4  1  0.99158181  0.79437702  0.80679711  1
  O  O5  1  0.80559133  0.01339243  0.80643504  1
  O  O6  1  0.79839764  0.97185309  0.69558556  1
  O  O7  1  0.16691187  0.19935806  0.69525002  1
  O  O8  1  0.03011118  0.83201992  0.69635399  1
  O  O9  1  0.80184508  0.83347871  0.19460787  1
  O  O10  1  0.02605926  0.20261504  0.19477889  1
  O  O11  1  0.16562864  0.97475890  0.19893117  1
  O  O12  1  0.90967562  0.37978770  0.63738211  1
  O  O13  1  0.46366951  0.08723944  0.64580227  1
  O  O14  1  0.62249298  0.52877688  0.63741116  1
  O  O15  1  0.91474077  0.53659103  0.14601545  1
  O  O16  1  0.61681462  0.08725726  0.13647950  1
  O  O17  1  0.47196788  0.37923437  0.13656877  1
  O  O18  1  0.46334115  0.30079991  0.02831423  1
  O  O19  1  0.82685593  0.52230576  0.03028856  1
  O  O20  1  0.69411532  0.16095104  0.02840685  1
  O  O21  1  0.47536247  0.17010481  0.52902642  1
  O  O22  1  0.69915861  0.53749462  0.52920800  1
  O  O23  1  0.84133966  0.30646404  0.52880689  1
  O  O24  1  0.50720381  0.65745931  0.97099018  1
  O  O25  1  0.15227819  0.49331028  0.97112421  1
  O  O26  1  0.34248802  0.84658381  0.96961068  1
  O  O27  1  0.50746860  0.84837891  0.47178235  1
  O  O28  1  0.33641014  0.49309745  0.47235454  1
  O  O29  1  0.15679037  0.66531196  0.46960586  1
  O  O30  1  0.13227049  0.63426259  0.35974745  1
  O  O31  1  0.49889067  0.86754848  0.36246656  1
  O  O32  1  0.36263223  0.50073460  0.35911655  1
  O  O33  1  0.13417729  0.49860788  0.86215418  1
  O  O34  1  0.36428457  0.86834615  0.86042439  1
  O  O35  1  0.50066462  0.63504470  0.86228321  1
  O  O36  1  0.02940920  0.81243506  0.41747095  1
  O  O37  1  0.78650400  0.97200969  0.42049474  1
  O  O38  1  0.18844181  0.18866532  0.42184753  1
  O  O39  1  0.02402041  0.21293601  0.92052280  1
  O  O40  1  0.18922341  0.97600327  0.92010536  1
  O  O41  1  0.78753638  0.80813759  0.91993286  1
  O  O42  1  0.97170412  0.16082709  0.58855941  1
  O  O43  1  0.17520502  0.02316922  0.59116696  1
  O  O44  1  0.83533358  0.81359938  0.58888397  1
  O  O45  1  0.97864245  0.82583510  0.09118271  1
  O  O46  1  0.83977500  0.02989190  0.08821754  1
  O  O47  1  0.18763514  0.16591716  0.08884247  1
  O  O48  1  0.66243055  0.13665614  0.74600379  1
  O  O49  1  0.46641343  0.32324841  0.74246485  1
  O  O50  1  0.86103654  0.52853759  0.74486565  1
  O  O51  1  0.67573134  0.53252630  0.24149224  1
  O  O52  1  0.86131796  0.33767147  0.24557328  1
  O  O53  1  0.47101168  0.14259129  0.24545384  1
  O  O54  1  0.62076787  0.48213097  0.92425109  1
  O  O55  1  0.86186711  0.37767107  0.92471020  1
  O  O56  1  0.51605235  0.13786880  0.92430127  1
  O  O57  1  0.62114313  0.13556031  0.42414512  1
  O  O58  1  0.52547066  0.37274887  0.42472573  1
  O  O59  1  0.86529170  0.48420030  0.42442291  1
  O  O60  1  0.33428842  0.48242399  0.06682704  1
  O  O61  1  0.15865338  0.67070021  0.06814574  1
  O  O62  1  0.52362186  0.84990669  0.06619849  1
  O  O63  1  0.32908867  0.84083379  0.56838184  1
  O  O64  1  0.51882189  0.66755920  0.56830915  1
  O  O65  1  0.14894333  0.47863644  0.56823235  1
  O  O66  1  0.28838037  0.81512674  0.25420276  1
  O  O67  1  0.52693367  0.70944949  0.25555208  1
  O  O68  1  0.18168083  0.48074769  0.25475209  1
  O  O69  1  0.29297724  0.47432811  0.75696320  1
  O  O70  1  0.18588442  0.71094288  0.75571294  1
  O  O71  1  0.52158996  0.81716749  0.75719206  1
loop_
_geom_bond_atom_site_label_1
_geom_bond_atom_site_label_2
_geom_bond_distance
_geom_bond_site_symmetry_2
Na0 O52 2.306880 1_555
Na0 O15 2.337330 1_555
Na0 O66 2.395998 1_655
Na0 O51 2.451285 1_555
Na0 O68 2.735722 1_655
Na1 O48 2.306496 1_555
Na1 O13 2.349592 1_555
Na1 O70 2.413343 1_545
Na1 O49 2.427423 1_555
Na1 O71 2.773518 1_545
Na2 O38 2.274458 1_555
Na2 O36 2.359195 1_545
Na2 O57 2.396119 1_555
Na2 O0 2.452653 1_555
Na3 O38 2.414621 1_655
Na3 O37 2.452969 1_545
Na3 O42 2.579816 1_555
Na3 O36 2.638569 1_645
Na3 O44 2.639742 1_545
Na3 O43 2.662734 1_655
Na4 O39 2.498155 1_555
Na4 O40 2.502969 1_545
Na4 O41 2.519493 1_445
Na4 O45 2.630883 1_446
Na4 O46 2.650646 1_456
Na4 O47 2.660071 1_556
Na5 O50 2.437679 1_555
Na5 O48 2.546346 1_555
Na5 O49 2.623499 1_555
Na5 O55 2.738060 1_555
Na5 O54 2.764950 1_555
Na5 O56 2.853942 1_555
Na6 O53 2.472986 1_555
Na6 O52 2.480341 1_555
Na6 O51 2.577251 1_555
Na6 O58 2.752692 1_555
Na6 O57 2.792041 1_555
Na6 O59 2.829478 1_555
Na7 O67 2.559973 1_555
Na7 O68 2.562800 1_555
Na7 O66 2.576694 1_555
Na7 O61 2.767312 1_555
Na7 O60 2.798359 1_555
Na7 O62 2.811680 1_555
Na8 O69 2.595489 1_555
Na8 O70 2.607407 1_555
Na8 O71 2.617282 1_555
Na8 O63 2.745291 1_555
Na8 O64 2.760127 1_555
Na8 O65 2.770667 1_555
Ca0 O2 2.137853 1_555
Ca0 O1 2.169233 1_545
Ca0 O0 2.235127 1_655
Ca0 O37 2.248921 1_545
Ca0 O38 2.262639 1_655
Ca0 O36 2.332811 1_645
Ca1 O5 2.161496 1_555
Ca1 O4 2.178493 1_545
Ca1 O3 2.183371 1_655
Ca1 O41 2.282624 1_545
Ca1 O39 2.284347 1_655
Ca1 O40 2.298006 1_645
Ca2 O12 2.201183 1_555
Ca2 O14 2.219809 1_555
Ca2 O13 2.222682 1_555
Ca2 O50 2.261216 1_555
Ca2 O49 2.285040 1_555
Ca2 O48 2.296454 1_555
Ca3 O16 2.209146 1_555
Ca3 O17 2.218926 1_555
Ca3 O15 2.234442 1_555
Ca3 O53 2.265125 1_555
Ca3 O51 2.282693 1_555
Ca3 O52 2.298821 1_555
O0 P0 1.507737 1_545
O1 P1 1.495155 1_555
O2 P2 1.488309 1_655
O3 P3 1.492542 1_555
O4 P4 1.486975 1_655
O5 P5 1.485616 1_545
O6 P5 1.601118 1_555
O6 Ta0 2.034221 1_665
O7 P3 1.617387 1_555
O7 Ta0 1.985116 1_555
O8 P4 1.628514 1_555
O8 Ta0 2.002234 1_565
O9 P1 1.613705 1_555
O9 Ta1 1.987121 1_665
O10 P2 1.596744 1_555
O10 Ta1 2.027291 1_555
O11 P0 1.632444 1_555
O11 Ta1 2.001698 1_565
O12 P6 1.487329 1_555
O13 Si0 1.572567 1_555
O14 P7 1.486285 1_555
O15 Si1 1.572000 1_555
O16 P8 1.489403 1_555
O17 P9 1.488218 1_555
O18 P9 1.591171 1_555
O18 Ta2 2.018417 1_554
O19 Si1 1.698123 1_555
O19 Ta2 1.920781 1_554
O20 P8 1.586111 1_555
O20 Ta2 2.014795 1_554
O21 Si0 1.706477 1_555
O21 Ta3 1.933574 1_555
O22 P7 1.598098 1_555
O22 Ta3 1.990297 1_555
O23 P6 1.583127 1_555
O23 Ta3 2.030875 1_555
O24 P10 1.535173 1_555
O24 Ta4 1.980409 1_556
O25 P11 1.545772 1_555
O25 Ta4 1.948664 1_556
O26 P12 1.549693 1_555
O26 Ta4 1.939998 1_556
O27 P13 1.538308 1_555
O27 Ta5 1.970165 1_555
O28 Si2 1.616991 1_555
O28 Ta5 1.901412 1_555
O29 P14 1.543557 1_555
O29 Ta5 1.965614 1_555
O30 P14 1.586987 1_555
O30 Ta6 2.056296 1_555
O31 P13 1.591977 1_555
O31 Ta6 2.056934 1_555
O32 Si2 1.687888 1_555
O32 Ta6 1.899574 1_555
O33 P11 1.585374 1_555
O33 Ta7 2.024671 1_555
O34 P12 1.589404 1_555
O34 Ta7 2.043870 1_555
O35 P10 1.589157 1_555
O35 Ta7 2.003791 1_555
O36 P14 1.510107 1_555
O37 P13 1.493776 1_555
O38 Si2 1.585619 1_555
O39 P11 1.496226 1_555
O40 P12 1.497768 1_555
O41 P10 1.494984 1_555
O42 P6 1.566821 1_555
O42 Ta0 2.073252 1_655
O43 Si0 1.670720 1_555
O43 Ta0 1.952513 1_555
O44 P7 1.564366 1_555
O44 Ta0 2.082540 1_665
O45 Si1 1.667364 1_555
O45 Ta1 1.956489 1_665
O46 P8 1.568303 1_555
O46 Ta1 2.079686 1_655
O47 P9 1.570219 1_555
O47 Ta1 2.073550 1_555
O48 P5 1.517747 1_545
O49 P3 1.511850 1_555
O50 P4 1.497360 1_655
O51 P1 1.510903 1_555
O52 P2 1.517453 1_655
O53 P0 1.499570 1_545
O54 P10 1.577629 1_555
O54 Ta2 2.032109 1_555
O55 P11 1.577966 1_655
O55 Ta2 2.043711 1_555
O56 P12 1.569296 1_545
O56 Ta2 2.078720 1_555
O57 P13 1.580840 1_545
O57 Ta3 2.109977 1_555
O58 Si2 1.672830 1_555
O58 Ta3 1.952959 1_555
O59 P14 1.553607 1_655
O59 Ta3 2.086544 1_555
O60 P9 1.567611 1_555
O60 Ta4 1.982002 1_555
O61 Si1 1.659041 1_455
O61 Ta4 1.908684 1_555
O62 P8 1.569093 1_565
O62 Ta4 1.983527 1_555
O63 Si0 1.648331 1_565
O63 Ta5 1.942024 1_555
O64 P7 1.565107 1_555
O64 Ta5 1.983686 1_555
O65 P6 1.566786 1_455
O65 Ta5 1.976111 1_555
O66 P0 1.607630 1_555
O66 Ta6 2.105421 1_555
O67 P1 1.598532 1_555
O67 Ta6 1.996736 1_555
O68 P2 1.625747 1_555
O68 Ta6 1.997230 1_555
O69 P3 1.600338 1_555
O69 Ta7 1.994856 1_555
O70 P4 1.627964 1_555
O70 Ta7 2.037265 1_555
O71 P5 1.633621 1_555
O71 Ta7 1.991101 1_555
