# generated using pymatgen
data_Na2YTi(PO4)3
_symmetry_space_group_name_H-M   'P 1'
_cell_length_a   9.04771492
_cell_length_b   9.04771461
_cell_length_c   22.82481085
_cell_angle_alpha   89.98300393
_cell_angle_beta   90.01699607
_cell_angle_gamma   120.30967180
_symmetry_Int_Tables_number   1
_chemical_formula_structural   Na2YTi(PO4)3
_chemical_formula_sum   'Na12 Y6 Ti6 P18 O72'
_cell_volume   1613.06519849
_cell_formula_units_Z   6
loop_
 _symmetry_equiv_pos_site_id
 _symmetry_equiv_pos_as_xyz
  1  'x, y, z'
loop_
 _atom_site_type_symbol
 _atom_site_label
 _atom_site_symmetry_multiplicity
 _atom_site_fract_x
 _atom_site_fract_y
 _atom_site_fract_z
 _atom_site_occupancy
  Na  Na0  1  0.36390055  0.35924876  0.25053796  1
  Na  Na1  1  0.64075124  0.63609945  0.75053796  1
  Na  Na2  1  0.03056755  0.69258176  0.58387096  1
  Na  Na3  1  0.30741824  0.96943245  0.08387096  1
  Na  Na4  1  0.69723355  0.02591576  0.91720496  1
  Na  Na5  1  0.97408424  0.30276645  0.41720496  1
  Na  Na6  1  0.99937297  0.99855797  0.50251278  1
  Na  Na7  1  0.00144203  0.00062703  0.00251278  1
  Na  Na8  1  0.66603997  0.33189097  0.83584578  1
  Na  Na9  1  0.66810903  0.33396003  0.33584578  1
  Na  Na10  1  0.33270597  0.66522497  0.16917978  1
  Na  Na11  1  0.33477503  0.66729403  0.66917978  1
  Y  Y0  1  0.99772939  0.98878029  0.35292731  1
  Y  Y1  1  0.01121971  0.00227061  0.85292731  1
  Y  Y2  1  0.66439639  0.32211329  0.68626031  1
  Y  Y3  1  0.67788671  0.33560361  0.18626031  1
  Y  Y4  1  0.33106239  0.65544729  0.01959431  1
  Y  Y5  1  0.34455271  0.66893761  0.51959431  1
  Ti  Ti0  1  0.00333338  0.01442405  0.65000601  1
  Ti  Ti1  1  0.98557595  0.99666662  0.15000601  1
  Ti  Ti2  1  0.67000038  0.34775705  0.98333901  1
  Ti  Ti3  1  0.65224295  0.32999962  0.48333901  1
  Ti  Ti4  1  0.33666638  0.68109105  0.31667301  1
  Ti  Ti5  1  0.31890895  0.66333362  0.81667301  1
  P  P0  1  0.28540271  0.98704345  0.24791450  1
  P  P1  1  0.69486510  0.71083404  0.24916365  1
  P  P2  1  0.01236446  0.29870246  0.25188533  1
  P  P3  1  0.28916596  0.30513490  0.74916365  1
  P  P4  1  0.01295655  0.71459729  0.74791450  1
  P  P5  1  0.70129754  0.98763554  0.75188533  1
  P  P6  1  0.95206971  0.32037645  0.58124750  1
  P  P7  1  0.36153210  0.04416704  0.58249665  1
  P  P8  1  0.67903146  0.63203546  0.58521833  1
  P  P9  1  0.95583296  0.63846790  0.08249665  1
  P  P10  1  0.67962355  0.04793029  0.08124750  1
  P  P11  1  0.36796454  0.32096854  0.08521833  1
  P  P12  1  0.61873571  0.65371045  0.91458150  1
  P  P13  1  0.02819810  0.37750104  0.91583065  1
  P  P14  1  0.34569746  0.96536946  0.91855233  1
  P  P15  1  0.62249896  0.97180190  0.41583065  1
  P  P16  1  0.34628955  0.38126429  0.41458150  1
  P  P17  1  0.03463054  0.65430254  0.41855233  1
  O  O0  1  0.20892793  0.02272009  0.30157419  1
  O  O1  1  0.80159087  0.78490399  0.30393384  1
  O  O2  1  0.99006916  0.19996307  0.30834130  1
  O  O3  1  0.21509601  0.19840913  0.80393384  1
  O  O4  1  0.97727991  0.79107207  0.80157419  1
  O  O5  1  0.80003693  0.00993084  0.80834130  1
  O  O6  1  0.80806966  0.97114457  0.69824750  1
  O  O7  1  0.17071872  0.20037207  0.69463529  1
  O  O8  1  0.03615609  0.82751383  0.69214492  1
  O  O9  1  0.79962793  0.82928128  0.19463529  1
  O  O10  1  0.02885543  0.19193034  0.19824750  1
  O  O11  1  0.17248617  0.96384391  0.19214492  1
  O  O12  1  0.87559493  0.35605309  0.63490719  1
  O  O13  1  0.46825787  0.11823699  0.63726684  1
  O  O14  1  0.65673616  0.53329607  0.64167430  1
  O  O15  1  0.88176301  0.53174213  0.13726684  1
  O  O16  1  0.64394691  0.12440507  0.13490719  1
  O  O17  1  0.46670393  0.34326384  0.14167430  1
  O  O18  1  0.47473666  0.30447757  0.03158050  1
  O  O19  1  0.83738572  0.53370507  0.02796829  1
  O  O20  1  0.70282309  0.16084683  0.02547792  1
  O  O21  1  0.46629493  0.16261428  0.52796829  1
  O  O22  1  0.69552243  0.52526334  0.53158050  1
  O  O23  1  0.83915317  0.29717691  0.52547792  1
  O  O24  1  0.54226093  0.68938709  0.96824119  1
  O  O25  1  0.13492387  0.45157099  0.97060084  1
  O  O26  1  0.32340216  0.86663007  0.97500830  1
  O  O27  1  0.54842901  0.86507613  0.47060084  1
  O  O28  1  0.31061291  0.45773907  0.46824119  1
  O  O29  1  0.13336993  0.67659784  0.47500830  1
  O  O30  1  0.14140266  0.63781157  0.36491450  1
  O  O31  1  0.50405172  0.86703907  0.36130229  1
  O  O32  1  0.36948909  0.49418083  0.35881192  1
  O  O33  1  0.13296093  0.49594828  0.86130229  1
  O  O34  1  0.36218843  0.85859734  0.86491450  1
  O  O35  1  0.50581917  0.63051091  0.85881192  1
  O  O36  1  0.00840115  0.80659140  0.41246983  1
  O  O37  1  0.80540591  0.00568542  0.40919231  1
  O  O38  1  0.18797230  0.20146430  0.40920543  1
  O  O39  1  0.99431458  0.19459409  0.90919231  1
  O  O40  1  0.19340860  0.99159885  0.91246983  1
  O  O41  1  0.79853570  0.81202770  0.90920543  1
  O  O42  1  0.96534434  0.15513911  0.59111126  1
  O  O43  1  0.18554851  0.03510239  0.58705316  1
  O  O44  1  0.85045084  0.80743277  0.58714343  1
  O  O45  1  0.96489761  0.81445149  0.08705316  1
  O  O46  1  0.84486089  0.03465566  0.09111126  1
  O  O47  1  0.19256723  0.14954916  0.08714343  1
  O  O48  1  0.67506815  0.13992440  0.74580283  1
  O  O49  1  0.47207291  0.33901842  0.74252531  1
  O  O50  1  0.85463930  0.53479730  0.74253843  1
  O  O51  1  0.66098158  0.52792709  0.24252531  1
  O  O52  1  0.86007560  0.32493185  0.24580283  1
  O  O53  1  0.46520270  0.14536070  0.24253843  1
  O  O54  1  0.63201134  0.48847211  0.92444426  1
  O  O55  1  0.85221551  0.36843539  0.92038616  1
  O  O56  1  0.51711784  0.14076577  0.92047643  1
  O  O57  1  0.63156461  0.14778449  0.42038616  1
  O  O58  1  0.51152789  0.36798866  0.42444426  1
  O  O59  1  0.85923423  0.48288216  0.42047643  1
  O  O60  1  0.34173415  0.47325840  0.07913683  1
  O  O61  1  0.13873891  0.67235242  0.07585931  1
  O  O62  1  0.52130530  0.86813130  0.07587243  1
  O  O63  1  0.32764758  0.86126109  0.57585931  1
  O  O64  1  0.52674160  0.65826585  0.57913683  1
  O  O65  1  0.13186870  0.47869470  0.57587243  1
  O  O66  1  0.29867734  0.82180611  0.25777826  1
  O  O67  1  0.51888151  0.70176939  0.25372016  1
  O  O68  1  0.18378384  0.47409977  0.25381043  1
  O  O69  1  0.29823061  0.48111849  0.75372016  1
  O  O70  1  0.17819389  0.70132266  0.75777826  1
  O  O71  1  0.52590023  0.81621616  0.75381043  1
loop_
_geom_bond_atom_site_label_1
_geom_bond_atom_site_label_2
_geom_bond_distance
_geom_bond_site_symmetry_2
Na0 O51 2.333892 1_555
Na0 O68 2.334632 1_555
Na0 O53 2.531600 1_555
Na0 O67 2.681308 1_555
Na0 O17 2.682839 1_555
Na0 O32 2.745882 1_555
Na0 O10 2.876201 1_555
Na0 O0 2.878120 1_555
Na1 O49 2.333892 1_555
Na1 O71 2.334632 1_555
Na1 O50 2.531600 1_555
Na1 O69 2.681308 1_555
Na1 O14 2.682839 1_555
Na1 O35 2.745882 1_555
Na1 O6 2.876201 1_555
Na1 O4 2.878120 1_555
Na2 O63 2.333883 1_555
Na2 O44 2.334632 1_455
Na2 O65 2.531583 1_555
Na2 O43 2.681308 1_565
Na2 O29 2.682813 1_555
Na2 O8 2.745882 1_555
Na2 O22 2.876201 1_455
Na2 O12 2.878120 1_455
Na3 O61 2.333883 1_555
Na3 O47 2.334632 1_565
Na3 O62 2.531583 1_555
Na3 O45 2.681308 1_455
Na3 O26 2.682813 1_554
Na3 O11 2.745882 1_555
Na3 O18 2.876201 1_565
Na3 O16 2.878120 1_565
Na4 O39 2.333892 1_555
Na4 O56 2.334615 1_555
Na4 O41 2.531600 1_545
Na4 O55 2.681299 1_555
Na4 O5 2.682839 1_555
Na4 O20 2.745856 1_556
Na4 O34 2.876201 1_545
Na4 O24 2.878120 1_545
Na5 O37 2.333892 1_555
Na5 O59 2.334615 1_555
Na5 O38 2.531600 1_655
Na5 O57 2.681299 1_555
Na5 O2 2.682839 1_555
Na5 O23 2.745856 1_555
Na5 O30 2.876201 1_655
Na5 O28 2.878120 1_655
Na6 O43 2.471124 1_665
Na6 O44 2.486959 1_555
Na6 O42 2.575582 1_565
Na6 O36 2.718946 1_655
Na6 O38 2.766892 1_665
Na6 O37 2.780821 1_565
Na7 O45 2.471124 1_445
Na7 O47 2.486959 1_555
Na7 O46 2.575582 1_455
Na7 O40 2.718947 1_544
Na7 O41 2.766892 1_444
Na7 O39 2.780821 1_454
Na8 O55 2.471124 1_555
Na8 O56 2.486959 1_555
Na8 O54 2.575582 1_555
Na8 O48 2.718946 1_555
Na8 O50 2.766892 1_555
Na8 O49 2.780821 1_555
Na9 O57 2.471124 1_555
Na9 O59 2.486959 1_555
Na9 O58 2.575582 1_555
Na9 O52 2.718947 1_555
Na9 O53 2.766892 1_555
Na9 O51 2.780821 1_555
Na10 O67 2.471124 1_555
Na10 O68 2.486959 1_555
Na10 O66 2.575582 1_555
Na10 O60 2.718946 1_555
Na10 O62 2.766892 1_555
Na10 O61 2.780821 1_555
Na11 O69 2.471124 1_555
Na11 O71 2.486959 1_555
Na11 O70 2.575582 1_555
Na11 O64 2.718947 1_555
Na11 O65 2.766892 1_555
Na11 O63 2.780821 1_555
O0 P0 1.519602 1_545
O0 Y0 2.128009 1_445
O1 P1 1.513590 1_555
O1 Y0 2.120928 1_555
O2 P2 1.522121 1_655
O2 Y0 2.196310 1_545
O3 P3 1.513590 1_555
O3 Y1 2.120928 1_555
O4 P4 1.519602 1_655
O4 Y1 2.128009 1_665
O5 P5 1.522121 1_545
O5 Y1 2.196310 1_655
O6 P5 1.612651 1_555
O6 Ti0 1.946687 1_665
O7 P3 1.603302 1_555
O7 Ti0 1.894750 1_555
O8 P4 1.578319 1_555
O8 Ti0 2.092582 1_565
O9 P1 1.603302 1_555
O9 Ti1 1.894750 1_555
O10 P2 1.612651 1_555
O10 Ti1 1.946687 1_445
O11 P0 1.578319 1_555
O11 Ti1 2.092582 1_455
O12 P6 1.519602 1_555
O12 Y2 2.128009 1_555
O13 P7 1.513590 1_555
O13 Y2 2.120928 1_555
O14 P8 1.522121 1_555
O14 Y2 2.196310 1_555
O15 P9 1.513590 1_555
O15 Y3 2.120928 1_555
O16 P10 1.519602 1_555
O16 Y3 2.128009 1_555
O17 P11 1.522121 1_555
O17 Y3 2.196310 1_555
O18 P11 1.612651 1_555
O18 Ti2 1.946687 1_554
O19 P9 1.603302 1_555
O19 Ti2 1.894750 1_554
O20 P10 1.578319 1_555
O20 Ti2 2.092582 1_554
O21 P7 1.603302 1_555
O21 Ti3 1.894750 1_555
O22 P8 1.612651 1_555
O22 Ti3 1.946687 1_555
O23 P6 1.578319 1_555
O23 Ti3 2.092582 1_555
O24 P12 1.519602 1_555
O24 Y4 2.128009 1_556
O25 P13 1.513590 1_555
O25 Y4 2.120928 1_556
O26 P14 1.522121 1_555
O26 Y4 2.196310 1_556
O27 P15 1.513590 1_555
O27 Y5 2.120928 1_555
O28 P16 1.519602 1_555
O28 Y5 2.128009 1_555
O29 P17 1.522121 1_555
O29 Y5 2.196310 1_555
O30 P17 1.612651 1_555
O30 Ti4 1.946687 1_555
O31 P15 1.603302 1_555
O31 Ti4 1.894750 1_555
O32 P16 1.578319 1_555
O32 Ti4 2.092582 1_555
O33 P13 1.603302 1_555
O33 Ti5 1.894750 1_555
O34 P14 1.612651 1_555
O34 Ti5 1.946687 1_555
O35 P12 1.578319 1_555
O35 Ti5 2.092582 1_555
O36 P17 1.517900 1_555
O36 Y0 2.175494 1_455
O37 P15 1.530897 1_545
O37 Y0 2.229495 1_545
O38 P16 1.536647 1_555
O38 Y0 2.229954 1_445
O39 P13 1.530897 1_655
O39 Y1 2.229495 1_655
O40 P14 1.517900 1_555
O40 Y1 2.175494 1_565
O41 P12 1.536647 1_555
O41 Y1 2.229954 1_665
O42 P6 1.575189 1_555
O42 Ti0 1.996619 1_655
O43 P7 1.555984 1_555
O43 Ti0 2.123099 1_555
O44 P8 1.562530 1_555
O44 Ti0 2.205703 1_665
O45 P9 1.555984 1_555
O45 Ti1 2.123099 1_555
O46 P10 1.575189 1_555
O46 Ti1 1.996619 1_545
O47 P11 1.562530 1_555
O47 Ti1 2.205703 1_445
O48 P5 1.517900 1_545
O48 Y2 2.175494 1_555
O49 P3 1.530897 1_555
O49 Y2 2.229495 1_555
O50 P4 1.536647 1_655
O50 Y2 2.229954 1_555
O51 P1 1.530897 1_555
O51 Y3 2.229495 1_555
O52 P2 1.517900 1_655
O52 Y3 2.175494 1_555
O53 P0 1.536647 1_545
O53 Y3 2.229954 1_555
O54 P12 1.575200 1_555
O54 Ti2 1.996619 1_555
O55 P13 1.555969 1_655
O55 Ti2 2.123099 1_555
O56 P14 1.562529 1_545
O56 Ti2 2.205703 1_555
O57 P15 1.555969 1_545
O57 Ti3 2.123099 1_555
O58 P16 1.575200 1_555
O58 Ti3 1.996619 1_555
O59 P17 1.562529 1_655
O59 Ti3 2.205703 1_555
O60 P11 1.517913 1_555
O60 Y4 2.175494 1_555
O61 P9 1.530883 1_455
O61 Y4 2.229495 1_555
O62 P10 1.536644 1_565
O62 Y4 2.229954 1_555
O63 P7 1.530883 1_565
O63 Y5 2.229495 1_555
O64 P8 1.517913 1_555
O64 Y5 2.175494 1_555
O65 P6 1.536644 1_455
O65 Y5 2.229954 1_555
O66 P0 1.575189 1_555
O66 Ti4 1.996619 1_555
O67 P1 1.555984 1_555
O67 Ti4 2.123099 1_555
O68 P2 1.562530 1_555
O68 Ti4 2.205703 1_555
O69 P3 1.555984 1_555
O69 Ti5 2.123099 1_555
O70 P4 1.575189 1_555
O70 Ti5 1.996619 1_555
O71 P5 1.562530 1_555
O71 Ti5 2.205703 1_555
