# generated using pymatgen
data_MgV3CrO10
_symmetry_space_group_name_H-M   'P 1'
_cell_length_a   6.63448054
_cell_length_b   6.63721296
_cell_length_c   4.91281396
_cell_angle_alpha   86.40247223
_cell_angle_beta   86.40664670
_cell_angle_gamma   90.16749424
_symmetry_Int_Tables_number   1
_chemical_formula_structural   MgV3CrO10
_chemical_formula_sum   'Mg1 V3 Cr1 O10'
_cell_volume   215.47723643
_cell_formula_units_Z   1
loop_
 _symmetry_equiv_pos_site_id
 _symmetry_equiv_pos_as_xyz
  1  'x, y, z'
loop_
 _atom_site_type_symbol
 _atom_site_label
 _atom_site_symmetry_multiplicity
 _atom_site_fract_x
 _atom_site_fract_y
 _atom_site_fract_z
 _atom_site_occupancy
  Mg  Mg0  1  0.49593400  0.49936100  0.00376500  1
  V  V0  1  0.25902500  0.25818000  0.59491800  1
  V  V1  1  0.73753800  0.73613100  0.41237800  1
  V  V2  1  0.74928300  0.24574800  0.50385900  1
  Cr  Cr0  1  0.24538500  0.74999500  0.50373500  1
  O  O0  1  0.02498900  0.73911300  0.33929200  1
  O  O1  1  0.30552300  0.30559500  0.26029700  1
  O  O2  1  0.26278100  0.53681800  0.73487500  1
  O  O3  1  0.25630300  0.97050700  0.66744000  1
  O  O4  1  0.45848200  0.73248400  0.27248300  1
  O  O5  1  0.53661100  0.26203600  0.74065600  1
  O  O6  1  0.73678300  0.02738600  0.33658200  1
  O  O7  1  0.73326000  0.45841300  0.26721200  1
  O  O8  1  0.69034000  0.68975700  0.74707100  1
  O  O9  1  0.96776500  0.25847500  0.67099100  1
loop_
_geom_bond_atom_site_label_1
_geom_bond_atom_site_label_2
_geom_bond_distance
_geom_bond_site_symmetry_2
Mg0 O4 2.101461 1_555
Mg0 O2 2.101614 1_554
Mg0 O1 2.103736 1_555
Mg0 O8 2.106517 1_554
Mg0 O5 2.106921 1_554
Mg0 O7 2.107594 1_555
Cr0 O3 1.717135 1_555
Cr0 O0 1.717769 1_555
Cr0 O4 1.766131 1_555
Cr0 O2 1.766490 1_555
O0 V1 1.918164 1_455
O1 V0 1.663626 1_555
O2 V0 2.013717 1_555
O3 V0 1.920024 1_565
O4 V1 2.015418 1_555
O5 V2 1.779550 1_555
O5 V0 2.017977 1_555
O6 V2 1.714660 1_555
O6 V1 1.945661 1_545
O7 V2 1.779246 1_555
O7 V1 2.018485 1_555
O8 V1 1.663684 1_555
O9 V2 1.714524 1_555
O9 V0 1.945065 1_655
