# generated using pymatgen
data_Na6MgSi6Ge7(SO8)6
_symmetry_space_group_name_H-M   'P 1'
_cell_length_a   17.17558050
_cell_length_b   8.54688728
_cell_length_c   21.94049386
_cell_angle_alpha   89.79999143
_cell_angle_beta   90.43163632
_cell_angle_gamma   119.90040755
_symmetry_Int_Tables_number   1
_chemical_formula_structural   Na6MgSi6Ge7(SO8)6
_chemical_formula_sum   'Na18 Mg3 Si18 Ge21 S18 O144'
_cell_volume   2792.02339691
_cell_formula_units_Z   3
loop_
 _symmetry_equiv_pos_site_id
 _symmetry_equiv_pos_as_xyz
  1  'x, y, z'
loop_
 _atom_site_type_symbol
 _atom_site_label
 _atom_site_symmetry_multiplicity
 _atom_site_fract_x
 _atom_site_fract_y
 _atom_site_fract_z
 _atom_site_occupancy
  Na  Na0  1  0.68877825  0.37796746  0.25150414  1
  Na  Na1  1  0.99715096  0.64463163  0.25297237  1
  Na  Na2  1  0.99734778  0.36414909  0.75244243  1
  Na  Na3  1  0.49473824  0.36277212  0.74922358  1
  Na  Na4  1  0.19131048  0.01130495  0.75466132  1
  Na  Na5  1  0.68807791  0.00905745  0.74911162  1
  Na  Na6  1  0.99737978  0.99874302  0.49496660  1
  Na  Na7  1  0.50554075  0.00179303  0.49926815  1
  Na  Na8  1  0.00738051  0.01154633  0.00022748  1
  Na  Na9  1  0.50093043  0.99300633  0.99850901  1
  Na  Na10  1  0.33213995  0.34010187  0.82853987  1
  Na  Na11  1  0.82829762  0.33054872  0.83138062  1
  Na  Na12  1  0.33358834  0.33273586  0.33166847  1
  Na  Na13  1  0.83411552  0.33271907  0.33558756  1
  Na  Na14  1  0.17267371  0.66980762  0.16600829  1
  Na  Na15  1  0.66304177  0.66850062  0.16874515  1
  Na  Na16  1  0.17725220  0.66651228  0.66765066  1
  Na  Na17  1  0.67173500  0.66486903  0.66533025  1
  Mg  Mg0  1  0.33294748  0.33420030  0.68892543  1
  Mg  Mg1  1  0.83060486  0.33005225  0.68669908  1
  Mg  Mg2  1  0.83336809  0.33526348  0.18566338  1
  Si  Si0  1  0.14868908  0.00485788  0.25353900  1
  Si  Si1  1  0.85712436  0.72625236  0.25024342  1
  Si  Si2  1  0.49700339  0.28221559  0.24948956  1
  Si  Si3  1  0.14468671  0.29302361  0.75033515  1
  Si  Si4  1  0.64739648  0.29718938  0.75284514  1
  Si  Si5  1  0.49780385  0.71194253  0.75086121  1
  Si  Si6  1  0.35624075  0.98684330  0.75400714  1
  Si  Si7  1  0.86001388  0.99424069  0.75293011  1
  Si  Si8  1  0.47249320  0.61515009  0.08455942  1
  Si  Si9  1  0.18631535  0.33457220  0.08681012  1
  Si  Si10  1  0.02227795  0.38259063  0.91639430  1
  Si  Si11  1  0.16828440  0.95367568  0.91816596  1
  Si  Si12  1  0.66250901  0.95376015  0.91562996  1
  Si  Si13  1  0.81080821  0.94825363  0.41415019  1
  Si  Si14  1  0.16644860  0.37958372  0.41501278  1
  Si  Si15  1  0.66487942  0.37939391  0.41779471  1
  Si  Si16  1  0.02307391  0.66521091  0.41880525  1
  Si  Si17  1  0.52386470  0.66903940  0.41296875  1
  Ge  Ge0  1  0.00352077  0.98975899  0.35956504  1
  Ge  Ge1  1  0.50440313  0.01263229  0.35725548  1
  Ge  Ge2  1  0.01308433  0.03096310  0.85795872  1
  Ge  Ge3  1  0.50732845  0.99662084  0.84852730  1
  Ge  Ge4  1  0.99466643  0.00678521  0.65053384  1
  Ge  Ge5  1  0.50110273  0.00745199  0.65805963  1
  Ge  Ge6  1  0.00862770  0.99762254  0.15260210  1
  Ge  Ge7  1  0.49702609  0.99296816  0.14749150  1
  Ge  Ge8  1  0.33313109  0.33454915  0.18825845  1
  Ge  Ge9  1  0.32075182  0.32945971  0.98445206  1
  Ge  Ge10  1  0.83328685  0.32218201  0.97399318  1
  Ge  Ge11  1  0.33653895  0.35260816  0.47510436  1
  Ge  Ge12  1  0.83144094  0.32804963  0.47035724  1
  Ge  Ge13  1  0.16066502  0.65049263  0.01773143  1
  Ge  Ge14  1  0.65499368  0.66967387  0.01977163  1
  Ge  Ge15  1  0.16223478  0.65603935  0.51516029  1
  Ge  Ge16  1  0.66653421  0.67462647  0.50786202  1
  Ge  Ge17  1  0.16118287  0.66271132  0.31774200  1
  Ge  Ge18  1  0.66774690  0.65755609  0.31576100  1
  Ge  Ge19  1  0.17052239  0.66711535  0.81617886  1
  Ge  Ge20  1  0.67050589  0.68207249  0.80851144  1
  S  S0  1  0.64194594  0.99334473  0.24910309  1
  S  S1  1  0.35543420  0.71380948  0.25141006  1
  S  S2  1  0.00221062  0.28788647  0.25040787  1
  S  S3  1  0.99926593  0.71848501  0.74982119  1
  S  S4  1  0.47923860  0.33375944  0.58201188  1
  S  S5  1  0.98086191  0.33404743  0.58318999  1
  S  S6  1  0.18669346  0.03749609  0.58208823  1
  S  S7  1  0.68536914  0.03729146  0.58216821  1
  S  S8  1  0.33341669  0.63044335  0.58185802  1
  S  S9  1  0.83474879  0.62925035  0.58288371  1
  S  S10  1  0.97740614  0.62250514  0.08163279  1
  S  S11  1  0.33304832  0.04282116  0.08329756  1
  S  S12  1  0.83247417  0.03923098  0.08137941  1
  S  S13  1  0.68763417  0.33568995  0.08028565  1
  S  S14  1  0.31211005  0.66710829  0.91861531  1
  S  S15  1  0.80755638  0.66556506  0.91969344  1
  S  S16  1  0.52061584  0.37768096  0.91767926  1
  S  S17  1  0.31035108  0.95527363  0.41864347  1
  O  O0  1  0.10302350  0.04042745  0.31165628  1
  O  O1  1  0.60284293  0.03298609  0.30346635  1
  O  O2  1  0.41129172  0.79587457  0.30619524  1
  O  O3  1  0.92700286  0.81223327  0.30721397  1
  O  O4  1  0.47931516  0.15049962  0.30897207  1
  O  O5  1  0.98831560  0.18254398  0.30549913  1
  O  O6  1  0.10481096  0.15904034  0.80946542  1
  O  O7  1  0.60520120  0.16201076  0.81091871  1
  O  O8  1  0.47881549  0.79194300  0.81200272  1
  O  O9  1  0.98464546  0.79379742  0.80538278  1
  O  O10  1  0.42393878  0.03743330  0.81323689  1
  O  O11  1  0.92515794  0.02804255  0.81155795  1
  O  O12  1  0.39559592  0.94508807  0.69076508  1
  O  O13  1  0.89456789  0.94917232  0.68871777  1
  O  O14  1  0.07558930  0.20704112  0.68986614  1
  O  O15  1  0.57922338  0.21969679  0.69164733  1
  O  O16  1  0.01948728  0.83537517  0.69327213  1
  O  O17  1  0.52860904  0.85083513  0.69096991  1
  O  O18  1  0.39452655  0.82243138  0.19404053  1
  O  O19  1  0.90282276  0.84764261  0.18684304  1
  O  O20  1  0.01848126  0.21239633  0.19382030  1
  O  O21  1  0.52121445  0.19129200  0.18948216  1
  O  O22  1  0.08181430  0.93898943  0.19256516  1
  O  O23  1  0.58664776  0.96362651  0.19207722  1
  O  O24  1  0.43886729  0.35592128  0.63704174  1
  O  O25  1  0.94297563  0.35786645  0.63980277  1
  O  O26  1  0.23790023  0.11459606  0.63801828  1
  O  O27  1  0.73681325  0.11303672  0.63879316  1
  O  O28  1  0.31777166  0.52028951  0.63496208  1
  O  O29  1  0.82519803  0.52540586  0.63804820  1
  O  O30  1  0.43095707  0.49331080  0.14468600  1
  O  O31  1  0.93934950  0.51842117  0.13756422  1
  O  O32  1  0.31736757  0.11889458  0.13902674  1
  O  O33  1  0.81707754  0.11989633  0.13558364  1
  O  O34  1  0.25247318  0.37267856  0.14470160  1
  O  O35  1  0.73767857  0.36096371  0.13733479  1
  O  O36  1  0.22265644  0.28599083  0.02482209  1
  O  O37  1  0.73151796  0.30597841  0.02649142  1
  O  O38  1  0.41130996  0.52678605  0.02269811  1
  O  O39  1  0.92006077  0.53383365  0.02650724  1
  O  O40  1  0.35105238  0.15643658  0.02790604  1
  O  O41  1  0.84572635  0.15211986  0.02491920  1
  O  O42  1  0.22857171  0.15116998  0.52673781  1
  O  O43  1  0.72982026  0.15358366  0.52796979  1
  O  O44  1  0.34711977  0.54854015  0.52461122  1
  O  O45  1  0.84838477  0.54651233  0.52710558  1
  O  O46  1  0.42054043  0.30271500  0.52613091  1
  O  O47  1  0.92528631  0.31004181  0.52851181  1
  O  O48  1  0.27061910  0.69267261  0.97411829  1
  O  O49  1  0.76529337  0.69409026  0.97482363  1
  O  O50  1  0.08363234  0.45841127  0.97700544  1
  O  O51  1  0.58042053  0.45762881  0.97379911  1
  O  O52  1  0.15415750  0.82848924  0.97842448  1
  O  O53  1  0.64617947  0.83288181  0.97660885  1
  O  O54  1  0.27141478  0.84309724  0.47422190  1
  O  O55  1  0.77151779  0.83012187  0.47710702  1
  O  O56  1  0.15150830  0.46565697  0.47748019  1
  O  O57  1  0.64385481  0.46342110  0.47761568  1
  O  O58  1  0.08853930  0.70973814  0.47801389  1
  O  O59  1  0.58303945  0.71703357  0.47615024  1
  O  O60  1  0.06100712  0.62188086  0.35621709  1
  O  O61  1  0.56632713  0.62580039  0.35445356  1
  O  O62  1  0.25495995  0.88181143  0.36262628  1
  O  O63  1  0.74348711  0.86480035  0.35595367  1
  O  O64  1  0.19224630  0.51769312  0.35623304  1
  O  O65  1  0.68651148  0.49050524  0.35414885  1
  O  O66  1  0.06585351  0.50345184  0.85495830  1
  O  O67  1  0.56233574  0.48814113  0.86239085  1
  O  O68  1  0.18632307  0.87076846  0.85556956  1
  O  O69  1  0.68502210  0.86948637  0.85599915  1
  O  O70  1  0.25624983  0.63087971  0.86248075  1
  O  O71  1  0.75185765  0.62803109  0.86351757  1
  O  O72  1  0.01587884  0.84476492  0.41423362  1
  O  O73  1  0.50476251  0.83854388  0.40389375  1
  O  O74  1  0.39920799  0.96934727  0.41306522  1
  O  O75  1  0.91006687  0.97562696  0.40626699  1
  O  O76  1  0.07621710  0.18846218  0.40771749  1
  O  O77  1  0.57559040  0.17931058  0.41193307  1
  O  O78  1  0.00888838  0.18000352  0.91354985  1
  O  O79  1  0.51174904  0.19657062  0.91468439  1
  O  O80  1  0.07437137  0.96228655  0.91107895  1
  O  O81  1  0.57225215  0.97255937  0.91138541  1
  O  O82  1  0.40023961  0.83183117  0.91405894  1
  O  O83  1  0.89778351  0.82257874  0.91460299  1
  O  O84  1  0.48817291  0.16653626  0.58479616  1
  O  O85  1  0.98996347  0.16654991  0.58488564  1
  O  O86  1  0.09361793  0.01278874  0.58595007  1
  O  O87  1  0.59456470  0.02189023  0.58531515  1
  O  O88  1  0.41538317  0.81242229  0.58481959  1
  O  O89  1  0.92045972  0.81548164  0.58623840  1
  O  O90  1  0.48768344  0.82440057  0.09294828  1
  O  O91  1  0.98509959  0.80401409  0.08419095  1
  O  O92  1  0.41592310  0.02491395  0.08874807  1
  O  O93  1  0.91364036  0.02371259  0.08466281  1
  O  O94  1  0.08430467  0.15473129  0.09589874  1
  O  O95  1  0.59604313  0.17294681  0.08310263  1
  O  O96  1  0.34470633  0.15980553  0.74518043  1
  O  O97  1  0.85081400  0.17270158  0.74654090  1
  O  O98  1  0.23867025  0.30768154  0.74198504  1
  O  O99  1  0.74251545  0.31349298  0.74447593  1
  O  O100  1  0.41763053  0.51410367  0.74343646  1
  O  O101  1  0.92244448  0.53714464  0.74112013  1
  O  O102  1  0.34840372  0.53452242  0.24653183  1
  O  O103  1  0.84383406  0.52291159  0.24388522  1
  O  O104  1  0.40837527  0.30095153  0.24168098  1
  O  O105  1  0.92398826  0.31515856  0.24264396  1
  O  O106  1  0.24491446  0.18216654  0.24168810  1
  O  O107  1  0.73104398  0.15550519  0.24237105  1
  O  O108  1  0.32107660  0.50213496  0.92244729  1
  O  O109  1  0.81529877  0.49818210  0.92640209  1
  O  O110  1  0.43292427  0.36704197  0.92461442  1
  O  O111  1  0.92404560  0.37087162  0.92325835  1
  O  O112  1  0.25956914  0.15712036  0.92582883  1
  O  O113  1  0.75169513  0.15478689  0.92398969  1
  O  O114  1  0.31999884  0.13724687  0.42593846  1
  O  O115  1  0.81859885  0.14564925  0.42481128  1
  O  O116  1  0.25465542  0.35297392  0.42428079  1
  O  O117  1  0.75312313  0.35811424  0.42651871  1
  O  O118  1  0.42554852  0.48506504  0.42373721  1
  O  O119  1  0.92566737  0.48646877  0.42703051  1
  O  O120  1  0.17993098  0.52116126  0.07739120  1
  O  O121  1  0.68081906  0.50384356  0.07304084  1
  O  O122  1  0.06888585  0.64317570  0.07692807  1
  O  O123  1  0.57417372  0.63697527  0.07795293  1
  O  O124  1  0.25337180  0.86076599  0.07684734  1
  O  O125  1  0.75019717  0.85443417  0.07490620  1
  O  O126  1  0.18062656  0.85384666  0.57664960  1
  O  O127  1  0.67683970  0.85323719  0.57648658  1
  O  O128  1  0.25089973  0.65222418  0.57453454  1
  O  O129  1  0.75331594  0.64958439  0.57837180  1
  O  O130  1  0.07359197  0.49856294  0.57907421  1
  O  O131  1  0.56979385  0.49928356  0.57607991  1
  O  O132  1  0.15751362  0.81737063  0.26102090  1
  O  O133  1  0.64709861  0.82830415  0.25400494  1
  O  O134  1  0.26601901  0.69899999  0.25490513  1
  O  O135  1  0.75663342  0.70404538  0.25480648  1
  O  O136  1  0.08542661  0.47468794  0.25336773  1
  O  O137  1  0.58928863  0.47801442  0.25556198  1
  O  O138  1  0.14552504  0.48418307  0.75895293  1
  O  O139  1  0.64718040  0.48515383  0.76295290  1
  O  O140  1  0.08303392  0.70393025  0.75261114  1
  O  O141  1  0.59158187  0.70275249  0.75677000  1
  O  O142  1  0.25477710  0.80974597  0.75927564  1
  O  O143  1  0.76025389  0.81863320  0.75688182  1
loop_
_geom_bond_atom_site_label_1
_geom_bond_atom_site_label_2
_geom_bond_distance
_geom_bond_site_symmetry_2
Na0 O137 2.262448 1_555
Na0 O103 2.317567 1_555
Na0 O107 2.358659 1_555
Na0 O135 2.427445 1_555
Na0 O65 2.460140 1_555
Na0 O35 2.675286 1_555
Na0 O1 2.799122 1_555
Na0 O21 2.838735 1_555
Na1 O103 2.306214 1_555
Na1 O132 2.395305 1_655
Na1 O105 2.456085 1_555
Na1 O60 2.558151 1_655
Na1 O22 2.561049 1_655
Na1 O136 2.569814 1_655
Na1 O3 2.583430 1_555
Na1 O31 2.733918 1_555
Na2 O97 2.217939 1_555
Na2 O138 2.223176 1_655
Na2 O101 2.406674 1_555
Na2 O140 2.517636 1_655
Na2 O66 2.538356 1_655
Na2 O25 2.626562 1_555
Na2 O14 2.708083 1_655
Na2 O11 2.814063 1_555
Na3 O100 2.268725 1_555
Na3 O96 2.279998 1_555
Na3 O139 2.302197 1_555
Na3 O141 2.533400 1_555
Na3 O24 2.625226 1_555
Na3 O15 2.646566 1_555
Na3 O67 2.719555 1_555
Na3 O10 2.794736 1_555
Na4 O98 2.258274 1_555
Na4 O96 2.295247 1_555
Na4 O140 2.343252 1_545
Na4 O142 2.456737 1_545
Na4 O68 2.496698 1_545
Na4 O6 2.674927 1_555
Na4 O26 2.698148 1_555
Na4 O16 2.883503 1_545
Na5 O99 2.286683 1_555
Na5 O141 2.303057 1_545
Na5 O97 2.424080 1_555
Na5 O143 2.494213 1_545
Na5 O27 2.573489 1_555
Na5 O69 2.616384 1_545
Na5 O17 2.687866 1_545
Na5 O7 2.733284 1_555
Na6 O72 2.326396 1_655
Na6 O75 2.395550 1_555
Na6 O76 2.440423 1_665
Na6 O89 2.482707 1_555
Na6 O85 2.484174 1_565
Na6 O86 2.546698 1_665
Na7 O77 2.369756 1_555
Na7 O87 2.372467 1_555
Na7 O84 2.457348 1_555
Na7 O88 2.462646 1_545
Na7 O73 2.515382 1_545
Na7 O74 2.536967 1_545
Na8 O78 2.373764 1_554
Na8 O80 2.418588 1_544
Na8 O91 2.448962 1_445
Na8 O94 2.452247 1_555
Na8 O93 2.499639 1_455
Na8 O83 2.572555 1_444
Na9 O81 2.331557 1_555
Na9 O82 2.432292 1_555
Na9 O95 2.438891 1_566
Na9 O90 2.465997 1_556
Na9 O79 2.470739 1_565
Na9 O92 2.563275 1_566
Na10 O100 2.387263 1_555
Na10 O98 2.403066 1_555
Na10 O96 2.474560 1_555
Na10 O108 2.547022 1_555
Na10 O112 2.574717 1_555
Na10 O110 2.654026 1_555
Na11 O99 2.360751 1_555
Na11 O97 2.446035 1_555
Na11 O113 2.482889 1_555
Na11 O111 2.505337 1_555
Na11 O109 2.606885 1_555
Na11 O101 2.613742 1_555
Na12 O106 2.427261 1_555
Na12 O104 2.451887 1_555
Na12 O102 2.464851 1_555
Na12 O118 2.488055 1_555
Na12 O116 2.504897 1_555
Na12 O114 2.591998 1_555
Na13 O115 2.453737 1_555
Na13 O119 2.476983 1_555
Na13 O117 2.511659 1_555
Na13 O103 2.535767 1_555
Na13 O105 2.616157 1_555
Na13 O107 2.627699 1_555
Na14 O120 2.364045 1_555
Na14 O134 2.448342 1_555
Na14 O124 2.484940 1_555
Na14 O136 2.495977 1_555
Na14 O132 2.521514 1_555
Na14 O122 2.568178 1_555
Na15 O135 2.390213 1_555
Na15 O133 2.416235 1_555
Na15 O137 2.417043 1_555
Na15 O123 2.432787 1_555
Na15 O125 2.580134 1_555
Na15 O121 2.634690 1_555
Na16 O142 2.380052 1_555
Na16 O138 2.426168 1_555
Na16 O128 2.446135 1_555
Na16 O130 2.535074 1_555
Na16 O126 2.537778 1_555
Na16 O140 2.600265 1_555
Na17 O129 2.417658 1_555
Na17 O143 2.460453 1_555
Na17 O127 2.497852 1_555
Na17 O131 2.529881 1_555
Na17 O139 2.543554 1_555
Na17 O141 2.552568 1_555
Mg0 O100 1.914973 1_555
Mg0 O98 1.920756 1_555
Mg0 O96 2.017278 1_555
Mg0 O24 2.081571 1_555
Mg0 O26 2.089916 1_555
Mg0 O28 2.096405 1_555
Mg1 O99 1.931388 1_555
Mg1 O29 2.019022 1_555
Mg1 O97 2.024646 1_555
Mg1 O27 2.036984 1_555
Mg1 O101 2.061447 1_555
Mg1 O25 2.100241 1_555
Mg2 O103 1.989903 1_555
Mg2 O31 2.013500 1_555
Mg2 O33 2.042020 1_555
Mg2 O35 2.050806 1_555
Mg2 O105 2.061762 1_555
Mg2 O107 2.079610 1_555
Ge0 O72 1.807627 1_555
Ge0 O3 1.830313 1_455
Ge0 O76 1.854163 1_565
Ge0 O75 1.863217 1_455
Ge0 O0 1.870613 1_565
Ge0 O5 2.144996 1_465
Ge1 O4 1.785224 1_555
Ge1 O77 1.793549 1_555
Ge1 O73 1.805390 1_545
Ge1 O1 2.004271 1_555
Ge1 O74 2.065064 1_545
Ge1 O2 2.068434 1_545
Ge2 O6 1.763549 1_555
Ge2 O78 1.794213 1_555
Ge2 O11 1.804759 1_455
Ge2 O80 1.844908 1_545
Ge2 O9 2.167671 1_445
Ge2 O83 2.267958 1_445
Ge3 O8 1.758415 1_555
Ge3 O7 1.774418 1_565
Ge3 O10 1.803354 1_565
Ge3 O81 1.841534 1_555
Ge3 O82 2.208389 1_555
Ge3 O79 2.217988 1_565
Ge4 O13 1.753554 1_545
Ge4 O14 1.796244 1_655
Ge4 O16 1.953042 1_645
Ge4 O85 2.010023 1_555
Ge4 O89 2.049195 1_545
Ge4 O86 2.201777 1_655
Ge5 O12 1.771102 1_545
Ge5 O17 1.776231 1_545
Ge5 O15 1.789379 1_555
Ge5 O84 2.182268 1_555
Ge5 O87 2.231413 1_555
Ge5 O88 2.250481 1_545
Ge6 O19 1.789243 1_455
Ge6 O22 1.791199 1_555
Ge6 O94 1.820150 1_565
Ge6 O20 1.978798 1_565
Ge6 O91 2.120363 1_455
Ge6 O93 2.292834 1_465
Ge7 O21 1.788193 1_565
Ge7 O90 1.819946 1_555
Ge7 O18 1.930099 1_555
Ge7 O23 1.936427 1_555
Ge7 O92 2.006444 1_565
Ge7 O95 2.160359 1_565
Ge8 O30 1.822194 1_555
Ge8 O34 1.834845 1_555
Ge8 O106 1.847944 1_555
Ge8 O104 1.863152 1_555
Ge8 O32 2.036989 1_555
Ge8 O102 2.046435 1_555
Ge9 O36 1.776901 1_556
Ge9 O38 1.828297 1_556
Ge9 O112 1.837917 1_555
Ge9 O108 2.001685 1_555
Ge9 O40 2.028960 1_556
Ge9 O110 2.226402 1_555
Ge10 O113 1.789775 1_555
Ge10 O111 1.793990 1_555
Ge10 O41 1.923915 1_556
Ge10 O109 1.973841 1_555
Ge10 O39 2.030241 1_556
Ge10 O37 2.046724 1_556
Ge11 O118 1.783408 1_555
Ge11 O116 1.789449 1_555
Ge11 O44 1.929636 1_555
Ge11 O46 2.025475 1_555
Ge11 O114 2.029858 1_555
Ge11 O42 2.126338 1_555
Ge12 O117 1.767481 1_555
Ge12 O115 1.772661 1_555
Ge12 O119 1.784839 1_555
Ge12 O43 2.071958 1_555
Ge12 O47 2.112994 1_555
Ge12 O45 2.142499 1_555
Ge13 O50 1.752431 1_554
Ge13 O52 1.797100 1_554
Ge13 O120 1.841955 1_555
Ge13 O48 1.989518 1_554
Ge13 O122 2.026749 1_555
Ge13 O124 2.140021 1_555
Ge14 O53 1.750631 1_554
Ge14 O123 1.808856 1_555
Ge14 O51 1.903013 1_554
Ge14 O125 2.009956 1_555
Ge14 O121 2.044255 1_555
Ge14 O49 2.058554 1_554
Ge15 O58 1.743005 1_555
Ge15 O56 1.753092 1_555
Ge15 O54 1.976270 1_555
Ge15 O128 2.009117 1_555
Ge15 O130 2.017910 1_555
Ge15 O126 2.062809 1_555
Ge16 O55 1.759498 1_555
Ge16 O57 1.775982 1_555
Ge16 O59 1.781417 1_555
Ge16 O127 2.090783 1_555
Ge16 O131 2.187730 1_555
Ge16 O129 2.223006 1_555
Ge17 O64 1.783061 1_555
Ge17 O60 1.793315 1_555
Ge17 O132 1.835869 1_555
Ge17 O62 2.013124 1_555
Ge17 O136 2.043004 1_555
Ge17 O134 2.171819 1_555
Ge18 O65 1.816054 1_555
Ge18 O63 1.817621 1_555
Ge18 O61 1.837942 1_555
Ge18 O135 1.923398 1_555
Ge18 O137 1.959818 1_555
Ge18 O133 2.141585 1_555
Ge19 O68 1.840187 1_555
Ge19 O142 1.843029 1_555
Ge19 O66 1.849353 1_555
Ge19 O138 1.881925 1_555
Ge19 O70 1.930249 1_555
Ge19 O140 2.176918 1_555
Ge20 O143 1.801375 1_555
Ge20 O69 1.822931 1_555
Ge20 O139 1.823665 1_555
Ge20 O141 1.836257 1_555
Ge20 O71 2.058235 1_555
Ge20 O67 2.132078 1_555
O0 Si0 1.609048 1_555
O1 S0 1.493414 1_545
O2 S1 1.474736 1_555
O3 Si1 1.627083 1_555
O4 Si2 1.648512 1_555
O5 S2 1.452975 1_655
O6 Si3 1.638479 1_555
O7 Si4 1.628622 1_555
O8 Si5 1.615166 1_555
O9 S3 1.461066 1_555
O10 Si6 1.645492 1_545
O11 Si7 1.627463 1_545
O12 Si6 1.663637 1_555
O13 Si7 1.652200 1_555
O14 Si3 1.679960 1_555
O15 Si4 1.679855 1_555
O16 S3 1.519867 1_455
O17 Si5 1.670104 1_555
O18 S1 1.510028 1_555
O19 Si1 1.679868 1_555
O20 S2 1.492126 1_555
O21 Si2 1.687547 1_555
O22 Si0 1.662337 1_565
O23 S0 1.508587 1_555
O24 S4 1.455888 1_555
O25 S5 1.467562 1_555
O26 S6 1.457802 1_555
O27 S7 1.470413 1_555
O28 S8 1.435597 1_555
O29 S9 1.459418 1_555
O30 Si8 1.611702 1_555
O31 S10 1.466048 1_555
O32 S11 1.474938 1_555
O33 S12 1.466917 1_555
O34 Si9 1.619491 1_555
O35 S13 1.467228 1_555
O36 Si9 1.639165 1_555
O37 S13 1.493974 1_555
O38 Si8 1.646594 1_555
O39 S10 1.500520 1_555
O40 S11 1.487824 1_555
O41 S12 1.514672 1_555
O42 S6 1.498099 1_555
O43 S7 1.494565 1_555
O44 S8 1.515870 1_555
O45 S9 1.492677 1_555
O46 S4 1.518876 1_555
O47 S5 1.477043 1_555
O48 S14 1.486170 1_555
O49 S15 1.497057 1_555
O50 Si10 1.613372 1_555
O51 S16 1.524845 1_555
O52 Si11 1.639438 1_555
O53 Si12 1.625773 1_555
O54 S17 1.489400 1_555
O55 Si13 1.645546 1_555
O56 Si14 1.638914 1_555
O57 Si15 1.625149 1_555
O58 Si16 1.628347 1_555
O59 Si17 1.640116 1_555
O60 Si16 1.644671 1_555
O61 Si17 1.613347 1_555
O62 S17 1.483953 1_555
O63 Si13 1.624181 1_555
O64 Si14 1.652099 1_555
O65 Si15 1.623782 1_555
O66 Si10 1.636714 1_555
O67 S16 1.485567 1_555
O68 Si11 1.648152 1_555
O69 Si12 1.634601 1_555
O70 S14 1.490620 1_555
O71 S15 1.488708 1_555
O72 Si16 1.602570 1_555
O73 Si17 1.648336 1_555
O74 S17 1.475916 1_555
O75 Si13 1.611703 1_555
O76 Si14 1.603089 1_555
O77 Si15 1.636072 1_555
O78 Si10 1.630453 1_555
O79 S16 1.479570 1_555
O80 Si11 1.657074 1_555
O81 Si12 1.638201 1_555
O82 S14 1.469681 1_555
O83 S15 1.463939 1_555
O84 S4 1.512583 1_555
O85 S5 1.515885 1_555
O86 S6 1.507557 1_555
O87 S7 1.500462 1_555
O88 S8 1.490494 1_555
O89 S9 1.539204 1_555
O90 Si8 1.684292 1_555
O91 S10 1.491099 1_555
O92 S11 1.509425 1_555
O93 S12 1.465945 1_555
O94 Si9 1.670430 1_555
O95 S13 1.494191 1_555
O96 Si6 1.597340 1_545
O97 Si7 1.615418 1_545
O98 Si3 1.567688 1_555
O99 Si4 1.581001 1_555
O100 Si5 1.568131 1_555
O101 S3 1.462530 1_555
O102 S1 1.480066 1_555
O103 Si1 1.642456 1_555
O104 Si2 1.615894 1_555
O105 S2 1.482185 1_655
O106 Si0 1.613173 1_555
O107 S0 1.473763 1_545
O108 S14 1.494785 1_555
O109 S15 1.507938 1_555
O110 S16 1.471983 1_555
O111 Si10 1.647601 1_655
O112 Si11 1.670333 1_545
O113 Si12 1.645042 1_545
O114 S17 1.488772 1_545
O115 Si13 1.642010 1_545
O116 Si14 1.651322 1_555
O117 Si15 1.623910 1_555
O118 Si17 1.654078 1_555
O119 Si16 1.618597 1_655
O120 Si9 1.664236 1_555
O121 S13 1.506761 1_555
O122 S10 1.495379 1_455
O123 Si8 1.668721 1_555
O124 S11 1.479730 1_565
O125 S12 1.511647 1_565
O126 S6 1.525415 1_565
O127 S7 1.510943 1_565
O128 S8 1.525959 1_555
O129 S9 1.495454 1_555
O130 S5 1.513432 1_455
O131 S4 1.498489 1_555
O132 Si0 1.690456 1_565
O133 S0 1.460275 1_555
O134 S1 1.479310 1_555
O135 Si1 1.643458 1_555
O136 S2 1.523271 1_555
O137 Si2 1.638436 1_555
O138 Si3 1.638286 1_555
O139 Si4 1.624351 1_555
O140 S3 1.505431 1_455
O141 Si5 1.655361 1_555
O142 Si6 1.647238 1_555
O143 Si7 1.622793 1_555
