# generated using pymatgen
data_Na6Sc5Nb3(PO4)12
_symmetry_space_group_name_H-M   'P 1'
_cell_length_a   17.76015691
_cell_length_b   8.87967681
_cell_length_c   22.91515134
_cell_angle_alpha   90.03732066
_cell_angle_beta   89.98041796
_cell_angle_gamma   119.97575463
_symmetry_Int_Tables_number   1
_chemical_formula_structural   Na6Sc5Nb3(PO4)12
_chemical_formula_sum   'Na18 Sc15 Nb9 P36 O144'
_cell_volume   3130.42482276
_cell_formula_units_Z   3
loop_
 _symmetry_equiv_pos_site_id
 _symmetry_equiv_pos_as_xyz
  1  'x, y, z'
loop_
 _atom_site_type_symbol
 _atom_site_label
 _atom_site_symmetry_multiplicity
 _atom_site_fract_x
 _atom_site_fract_y
 _atom_site_fract_z
 _atom_site_occupancy
  Na  Na0  1  0.68334298  0.36727651  0.24949280  1
  Na  Na1  1  0.99997476  0.63254295  0.24959353  1
  Na  Na2  1  0.99947687  0.36569549  0.74810341  1
  Na  Na3  1  0.49951431  0.36571810  0.74824090  1
  Na  Na4  1  0.18295450  0.99874902  0.74811168  1
  Na  Na5  1  0.68287399  0.99868663  0.74831266  1
  Na  Na6  1  0.00009911  0.99964605  0.50366856  1
  Na  Na7  1  0.49989659  0.00006831  0.50377380  1
  Na  Na8  1  0.99909023  0.99848525  0.00432172  1
  Na  Na9  1  0.50094536  0.00188053  0.00397457  1
  Na  Na10  1  0.33323044  0.33996699  0.83554356  1
  Na  Na11  1  0.83285800  0.33950784  0.83607121  1
  Na  Na12  1  0.33323580  0.33343594  0.33773038  1
  Na  Na13  1  0.83313854  0.32582522  0.33622883  1
  Na  Na14  1  0.16937718  0.66569275  0.16932290  1
  Na  Na15  1  0.66754325  0.67544433  0.16902498  1
  Na  Na16  1  0.17032497  0.66616752  0.66565144  1
  Na  Na17  1  0.67026112  0.66602922  0.66581947  1
  Sc  Sc0  1  0.99916716  0.99888314  0.64449709  1
  Sc  Sc1  1  0.49906851  0.99866652  0.64459679  1
  Sc  Sc2  1  0.99842427  0.00045214  0.14663253  1
  Sc  Sc3  1  0.50078216  0.99937807  0.14668447  1
  Sc  Sc4  1  0.33296682  0.34007024  0.68142196  1
  Sc  Sc5  1  0.83293169  0.34006112  0.68143395  1
  Sc  Sc6  1  0.83290267  0.32386068  0.18377232  1
  Sc  Sc7  1  0.33372559  0.33317340  0.98026277  1
  Sc  Sc8  1  0.83314511  0.33275177  0.98181336  1
  Sc  Sc9  1  0.33322466  0.33301650  0.48149541  1
  Sc  Sc10  1  0.83359148  0.33408484  0.48120230  1
  Sc  Sc11  1  0.16992948  0.66618197  0.31525505  1
  Sc  Sc12  1  0.66625688  0.67331687  0.31546708  1
  Sc  Sc13  1  0.16972955  0.66612064  0.81642618  1
  Sc  Sc14  1  0.66931868  0.66616757  0.81661689  1
  Nb  Nb0  1  0.00015764  0.00297701  0.35519512  1
  Nb  Nb1  1  0.49953622  0.99805326  0.35535657  1
  Nb  Nb2  1  0.99947505  0.99851177  0.85516274  1
  Nb  Nb3  1  0.49980956  0.99877433  0.85534069  1
  Nb  Nb4  1  0.33347904  0.33557474  0.18684396  1
  Nb  Nb5  1  0.16609916  0.66698929  0.02159385  1
  Nb  Nb6  1  0.66742929  0.66605373  0.02165841  1
  Nb  Nb7  1  0.16654511  0.66699391  0.52082428  1
  Nb  Nb8  1  0.66658472  0.66689541  0.52106711  1
  P  P0  1  0.14444487  0.00053234  0.24919923  1
  P  P1  1  0.64430149  0.99711976  0.24948984  1
  P  P2  1  0.35567822  0.71332618  0.24878431  1
  P  P3  1  0.85418160  0.71143294  0.24971912  1
  P  P4  1  0.00061979  0.29063436  0.24949415  1
  P  P5  1  0.49957819  0.28831279  0.24940903  1
  P  P6  1  0.14497326  0.29044075  0.74986384  1
  P  P7  1  0.64501289  0.29058600  0.74984517  1
  P  P8  1  0.99909364  0.70921379  0.74994251  1
  P  P9  1  0.49904877  0.70930472  0.74997922  1
  P  P10  1  0.35465301  0.99750954  0.74964042  1
  P  P11  1  0.85451036  0.99737416  0.74952463  1
  P  P12  1  0.47844437  0.33196997  0.58292433  1
  P  P13  1  0.97851909  0.33219641  0.58290795  1
  P  P14  1  0.18757830  0.04321783  0.58305739  1
  P  P15  1  0.68764686  0.04356999  0.58298292  1
  P  P16  1  0.33394474  0.62516327  0.58186708  1
  P  P17  1  0.83402684  0.62510144  0.58186162  1
  P  P18  1  0.47749420  0.62369249  0.08204305  1
  P  P19  1  0.97780468  0.62564460  0.08320537  1
  P  P20  1  0.33469860  0.04574721  0.08237754  1
  P  P21  1  0.83466479  0.04374076  0.08195243  1
  P  P22  1  0.18820565  0.33111961  0.08204386  1
  P  P23  1  0.68705343  0.32987122  0.08330227  1
  P  P24  1  0.31122400  0.66468958  0.91686540  1
  P  P25  1  0.81129208  0.66398350  0.91652311  1
  P  P26  1  0.02100782  0.37777106  0.91571028  1
  P  P27  1  0.52118033  0.37795857  0.91576586  1
  P  P28  1  0.16783570  0.95793083  0.91576945  1
  P  P29  1  0.66792586  0.95779374  0.91598247  1
  P  P30  1  0.31058672  0.95743363  0.41588976  1
  P  P31  1  0.81067879  0.95754684  0.41612937  1
  P  P32  1  0.16821783  0.37858068  0.41617239  1
  P  P33  1  0.66800910  0.37874071  0.41501821  1
  P  P34  1  0.02127077  0.66448221  0.41505164  1
  P  P35  1  0.52113610  0.66322644  0.41605180  1
  O  O0  1  0.10153046  0.03072330  0.30490210  1
  O  O1  1  0.59711312  0.02640906  0.30453050  1
  O  O2  1  0.41393685  0.79803762  0.30454414  1
  O  O3  1  0.91546764  0.80413017  0.30460786  1
  O  O4  1  0.48423199  0.17086636  0.30484654  1
  O  O5  1  0.98869550  0.17188868  0.30482871  1
  O  O6  1  0.09814844  0.16945391  0.80511310  1
  O  O7  1  0.59822958  0.16962119  0.80504767  1
  O  O8  1  0.48782957  0.80399199  0.80533067  1
  O  O9  1  0.98785247  0.80410890  0.80536680  1
  O  O10  1  0.41483333  0.02572010  0.80486123  1
  O  O11  1  0.91487788  0.02571542  0.80484336  1
  O  O12  1  0.39730113  0.97142863  0.69644381  1
  O  O13  1  0.89740530  0.97146835  0.69648414  1
  O  O14  1  0.08661685  0.20659178  0.69700083  1
  O  O15  1  0.58664675  0.20664347  0.69696119  1
  O  O16  1  0.01724536  0.82717644  0.69742475  1
  O  O17  1  0.51719451  0.82707753  0.69738550  1
  O  O18  1  0.39737667  0.82070230  0.19523809  1
  O  O19  1  0.89703604  0.82179075  0.19636132  1
  O  O20  1  0.01449688  0.20630931  0.19630705  1
  O  O21  1  0.51503019  0.20680663  0.19621562  1
  O  O22  1  0.08809293  0.96920560  0.19605458  1
  O  O23  1  0.58892103  0.97305146  0.19608284  1
  O  O24  1  0.44371020  0.36952706  0.63996572  1
  O  O25  1  0.94363481  0.36942205  0.63999445  1
  O  O26  1  0.24107207  0.11273105  0.64011929  1
  O  O27  1  0.74106354  0.11271890  0.64009473  1
  O  O28  1  0.31480718  0.51447525  0.63752860  1
  O  O29  1  0.81472828  0.51446609  0.63751425  1
  O  O30  1  0.43337332  0.50399120  0.13759053  1
  O  O31  1  0.94372472  0.51749674  0.13957818  1
  O  O32  1  0.31852621  0.13367493  0.13776376  1
  O  O33  1  0.81455035  0.11492953  0.13713692  1
  O  O34  1  0.24805450  0.36354516  0.13765831  1
  O  O35  1  0.74116055  0.36944277  0.13973082  1
  O  O36  1  0.23106800  0.30796503  0.02865652  1
  O  O37  1  0.73007036  0.30765937  0.02906712  1
  O  O38  1  0.42287413  0.53796077  0.02863380  1
  O  O39  1  0.92398385  0.53971570  0.02901035  1
  O  O40  1  0.34597523  0.15358032  0.02869278  1
  O  O41  1  0.84641776  0.15138992  0.02762627  1
  O  O42  1  0.23043964  0.15302303  0.52954768  1
  O  O43  1  0.73050600  0.15314841  0.52948255  1
  O  O44  1  0.34646719  0.54106916  0.52803430  1
  O  O45  1  0.84640468  0.54111608  0.52801444  1
  O  O46  1  0.42359425  0.30808184  0.52942110  1
  O  O47  1  0.92353509  0.30800873  0.52944872  1
  O  O48  1  0.26724674  0.69655897  0.97130634  1
  O  O49  1  0.76751191  0.69636809  0.97096403  1
  O  O50  1  0.08171690  0.46730930  0.97006970  1
  O  O51  1  0.58119127  0.46655374  0.96995727  1
  O  O52  1  0.15245444  0.83741333  0.97008276  1
  O  O53  1  0.65176352  0.83698405  0.97004884  1
  O  O54  1  0.26764008  0.83845969  0.47075072  1
  O  O55  1  0.76761757  0.83858259  0.47093780  1
  O  O56  1  0.15172299  0.46484881  0.47094342  1
  O  O57  1  0.65174298  0.46627252  0.46968362  1
  O  O58  1  0.08125680  0.69616886  0.46974338  1
  O  O59  1  0.58070138  0.69701180  0.47087057  1
  O  O60  1  0.06226511  0.64223102  0.35971540  1
  O  O61  1  0.56304872  0.64033775  0.36223240  1
  O  O62  1  0.25694293  0.87317801  0.36197415  1
  O  O63  1  0.75738842  0.87331804  0.36230364  1
  O  O64  1  0.17942705  0.48522365  0.36222806  1
  O  O65  1  0.67870472  0.48163552  0.35965645  1
  O  O66  1  0.06202423  0.48233623  0.86025092  1
  O  O67  1  0.56154320  0.48186974  0.86000715  1
  O  O68  1  0.17901533  0.87633251  0.86013350  1
  O  O69  1  0.67879959  0.87621917  0.86010724  1
  O  O70  1  0.25742091  0.64057917  0.86255686  1
  O  O71  1  0.75751684  0.64077655  0.86242368  1
  O  O72  1  0.01451817  0.83542566  0.40853256  1
  O  O73  1  0.51419949  0.83427972  0.40877528  1
  O  O74  1  0.40275257  0.97076390  0.40859411  1
  O  O75  1  0.90300305  0.97141316  0.40892731  1
  O  O76  1  0.08286230  0.19418071  0.40918170  1
  O  O77  1  0.58225621  0.19341490  0.40837509  1
  O  O78  1  0.01464714  0.19428856  0.90917207  1
  O  O79  1  0.51425142  0.19389503  0.90895821  1
  O  O80  1  0.08259747  0.97109648  0.90946345  1
  O  O81  1  0.58259228  0.97134520  0.90924193  1
  O  O82  1  0.40279172  0.83465371  0.90946627  1
  O  O83  1  0.90274383  0.83452542  0.90922892  1
  O  O84  1  0.49229080  0.17593856  0.58903865  1
  O  O85  1  0.99225749  0.17598446  0.58906580  1
  O  O86  1  0.09581686  0.01599890  0.58931683  1
  O  O87  1  0.59580570  0.01600411  0.58930144  1
  O  O88  1  0.41212938  0.80812810  0.58881557  1
  O  O89  1  0.91207198  0.80816973  0.58882100  1
  O  O90  1  0.48988940  0.80335788  0.09030337  1
  O  O91  1  0.99310625  0.80984359  0.08880517  1
  O  O92  1  0.41142769  0.01898288  0.09086175  1
  O  O93  1  0.91220667  0.01552754  0.08809192  1
  O  O94  1  0.09824435  0.17723924  0.09065509  1
  O  O95  1  0.59527731  0.17529856  0.08871619  1
  O  O96  1  0.34784089  0.16553085  0.74730429  1
  O  O97  1  0.84793192  0.16557269  0.74731283  1
  O  O98  1  0.23365300  0.29875804  0.74698780  1
  O  O99  1  0.73364623  0.29878340  0.74690591  1
  O  O100  1  0.41886912  0.52567896  0.74699453  1
  O  O101  1  0.91890249  0.52578204  0.74700772  1
  O  O102  1  0.34783184  0.52732728  0.24172863  1
  O  O103  1  0.84802973  0.53013111  0.24685019  1
  O  O104  1  0.41594787  0.30606058  0.24222177  1
  O  O105  1  0.91876820  0.31037542  0.24683714  1
  O  O106  1  0.23689197  0.16808628  0.24203052  1
  O  O107  1  0.73290739  0.16898446  0.24687378  1
  O  O108  1  0.32384758  0.50893692  0.92384489  1
  O  O109  1  0.82410820  0.50845206  0.92366409  1
  O  O110  1  0.43081774  0.35257325  0.92329911  1
  O  O111  1  0.93082329  0.35304023  0.92329592  1
  O  O112  1  0.24547975  0.13820792  0.92345059  1
  O  O113  1  0.74557049  0.13872692  0.92321364  1
  O  O114  1  0.32412323  0.13891191  0.42356539  1
  O  O115  1  0.82401271  0.13891519  0.42371428  1
  O  O116  1  0.24550808  0.35169784  0.42356620  1
  O  O117  1  0.74507290  0.35184983  0.42319501  1
  O  O118  1  0.43036454  0.50895219  0.42355718  1
  O  O119  1  0.93108349  0.50952620  0.42321525  1
  O  O120  1  0.18149269  0.50205300  0.07578396  1
  O  O121  1  0.67824518  0.49956920  0.07294342  1
  O  O122  1  0.07161220  0.64263044  0.07266307  1
  O  O123  1  0.56946896  0.63744830  0.07596688  1
  O  O124  1  0.24917253  0.86117171  0.07563380  1
  O  O125  1  0.74991047  0.85672056  0.07269739  1
  O  O126  1  0.17846167  0.85659014  0.57371891  1
  O  O127  1  0.67854306  0.85664346  0.57372794  1
  O  O128  1  0.24980130  0.64338312  0.57334916  1
  O  O129  1  0.74975097  0.64316241  0.57329447  1
  O  O130  1  0.07179013  0.50083583  0.57372699  1
  O  O131  1  0.57182037  0.50055418  0.57363390  1
  O  O132  1  0.15406556  0.83936231  0.25714663  1
  O  O133  1  0.65448828  0.83833071  0.25682396  1
  O  O134  1  0.26458662  0.68555072  0.25664475  1
  O  O135  1  0.76202558  0.68253602  0.25678478  1
  O  O136  1  0.07955387  0.47479082  0.25699409  1
  O  O137  1  0.58019103  0.46783797  0.25738834  1
  O  O138  1  0.15148521  0.46819770  0.75768161  1
  O  O139  1  0.65153849  0.46836491  0.75765422  1
  O  O140  1  0.08106761  0.69114498  0.75783916  1
  O  O141  1  0.58103512  0.69105686  0.75772486  1
  O  O142  1  0.26230877  0.84136520  0.75692770  1
  O  O143  1  0.76228501  0.84126725  0.75690787  1
loop_
_geom_bond_atom_site_label_1
_geom_bond_atom_site_label_2
_geom_bond_distance
_geom_bond_site_symmetry_2
Na0 O107 2.329685 1_555
Na0 O137 2.412583 1_555
Na0 O135 2.430604 1_555
Na0 O103 2.534392 1_555
Na0 O35 2.712866 1_555
Na0 O65 2.736924 1_555
Na0 O21 2.863644 1_555
Na0 O1 2.910172 1_555
Na1 O103 2.379286 1_555
Na1 O132 2.422760 1_655
Na1 O136 2.442805 1_655
Na1 O105 2.478885 1_555
Na1 O31 2.715827 1_555
Na1 O60 2.739643 1_655
Na1 O22 2.866990 1_655
Na1 O3 2.905963 1_555
Na2 O97 2.371248 1_555
Na2 O138 2.389492 1_655
Na2 O101 2.470209 1_555
Na2 O140 2.513130 1_655
Na2 O25 2.675154 1_555
Na2 O66 2.785639 1_655
Na2 O14 2.818486 1_655
Na2 O11 2.921140 1_555
Na3 O96 2.373115 1_555
Na3 O139 2.389176 1_555
Na3 O100 2.470373 1_555
Na3 O141 2.511777 1_555
Na3 O24 2.678573 1_555
Na3 O67 2.774873 1_555
Na3 O15 2.819865 1_555
Na3 O10 2.920041 1_555
Na4 O98 2.347628 1_565
Na4 O140 2.417914 1_555
Na4 O142 2.439020 1_555
Na4 O96 2.536825 1_565
Na4 O26 2.677933 1_565
Na4 O68 2.775518 1_555
Na4 O16 2.801986 1_555
Na4 O6 2.924007 1_565
Na5 O99 2.348207 1_565
Na5 O141 2.417271 1_555
Na5 O143 2.439747 1_555
Na5 O97 2.539496 1_565
Na5 O27 2.683044 1_565
Na5 O69 2.770463 1_555
Na5 O17 2.803869 1_555
Na5 O7 2.920648 1_565
Na6 O89 2.547262 1_455
Na6 O85 2.552326 1_465
Na6 O86 2.553070 1_565
Na6 O76 2.701476 1_565
Na6 O72 2.704306 1_555
Na6 O75 2.705491 1_455
Na7 O88 2.545526 1_545
Na7 O84 2.545832 1_555
Na7 O87 2.554144 1_555
Na7 O73 2.709206 1_545
Na7 O74 2.711932 1_545
Na7 O77 2.712809 1_555
Na8 O93 2.513917 1_565
Na8 O91 2.528098 1_555
Na8 O94 2.596062 1_665
Na8 O83 2.702768 1_554
Na8 O80 2.709467 1_654
Na8 O78 2.716213 1_664
Na9 O95 2.523743 1_555
Na9 O90 2.591890 1_545
Na9 O92 2.598768 1_555
Na9 O81 2.697887 1_544
Na9 O79 2.702871 1_554
Na9 O82 2.710294 1_544
Na10 O108 2.572727 1_555
Na10 O100 2.577975 1_555
Na10 O98 2.595050 1_555
Na10 O110 2.620775 1_555
Na10 O112 2.628465 1_555
Na10 O96 2.636717 1_555
Na11 O109 2.555845 1_555
Na11 O101 2.590930 1_555
Na11 O99 2.602897 1_555
Na11 O113 2.609613 1_555
Na11 O111 2.613396 1_555
Na11 O97 2.646248 1_555
Na12 O116 2.563719 1_555
Na12 O118 2.566039 1_555
Na12 O114 2.569716 1_555
Na12 O104 2.713092 1_555
Na12 O106 2.716730 1_555
Na12 O102 2.725715 1_555
Na13 O115 2.556400 1_555
Na13 O105 2.594932 1_555
Na13 O107 2.611984 1_555
Na13 O119 2.612035 1_555
Na13 O117 2.613341 1_555
Na13 O103 2.661015 1_555
Na14 O134 2.568703 1_555
Na14 O136 2.598943 1_555
Na14 O132 2.629997 1_555
Na14 O120 2.657100 1_555
Na14 O124 2.678655 1_555
Na14 O122 2.758548 1_555
Na15 O133 2.554333 1_555
Na15 O135 2.600098 1_555
Na15 O137 2.655209 1_555
Na15 O123 2.666348 1_555
Na15 O125 2.693115 1_555
Na15 O121 2.759441 1_555
Na16 O128 2.605725 1_555
Na16 O142 2.631032 1_555
Na16 O138 2.658229 1_555
Na16 O126 2.660493 1_555
Na16 O130 2.661988 1_555
Na16 O140 2.715364 1_555
Na17 O129 2.610261 1_555
Na17 O143 2.627944 1_555
Na17 O139 2.653476 1_555
Na17 O127 2.663738 1_555
Na17 O131 2.666371 1_555
Na17 O141 2.710153 1_555
Nb0 O5 1.982593 1_455
Nb0 O3 2.017046 1_445
Nb0 O76 2.019173 1_555
Nb0 O75 2.021789 1_445
Nb0 O72 2.038191 1_545
Nb0 O0 2.045977 1_555
Nb1 O1 1.996520 1_565
Nb1 O73 2.015459 1_555
Nb1 O74 2.020969 1_555
Nb1 O77 2.023735 1_565
Nb1 O2 2.030221 1_555
Nb1 O4 2.046372 1_565
Nb2 O9 1.991505 1_555
Nb2 O11 2.002382 1_565
Nb2 O6 2.008306 1_665
Nb2 O83 2.026780 1_555
Nb2 O80 2.036590 1_655
Nb2 O78 2.038585 1_665
Nb3 O8 1.994979 1_555
Nb3 O10 2.008820 1_565
Nb3 O7 2.009007 1_565
Nb3 O81 2.026322 1_555
Nb3 O82 2.030454 1_555
Nb3 O79 2.032408 1_565
Nb4 O30 2.001866 1_555
Nb4 O34 2.002962 1_555
Nb4 O32 2.017771 1_555
Nb4 O102 2.027232 1_555
Nb4 O106 2.050694 1_555
Nb4 O104 2.051712 1_555
Nb5 O122 1.966877 1_555
Nb5 O52 2.027589 1_554
Nb5 O50 2.031502 1_554
Nb5 O124 2.034634 1_555
Nb5 O48 2.037531 1_554
Nb5 O120 2.040700 1_555
Nb6 O121 1.972218 1_555
Nb6 O125 1.974965 1_555
Nb6 O49 2.025404 1_554
Nb6 O51 2.043251 1_554
Nb6 O123 2.048774 1_555
Nb6 O53 2.050447 1_554
Nb7 O126 1.997441 1_555
Nb7 O128 1.997588 1_555
Nb7 O130 1.999585 1_555
Nb7 O56 2.030551 1_555
Nb7 O58 2.031107 1_555
Nb7 O54 2.031668 1_555
Nb8 O129 1.992733 1_555
Nb8 O127 1.995030 1_555
Nb8 O131 1.995523 1_555
Nb8 O59 2.032330 1_555
Nb8 O55 2.032436 1_555
Nb8 O57 2.039059 1_555
O0 P0 1.576430 1_555
O1 P1 1.605445 1_545
O2 P2 1.578272 1_555
O3 P3 1.596430 1_555
O4 P5 1.578976 1_555
O5 P4 1.594647 1_655
O6 P6 1.599034 1_555
O7 P7 1.597969 1_555
O8 P9 1.587856 1_555
O9 P8 1.590433 1_555
O10 P10 1.593518 1_545
O11 P11 1.597063 1_545
O12 P10 1.512486 1_555
O12 Sc1 2.073362 1_555
O13 P11 1.511516 1_555
O13 Sc0 2.074623 1_555
O14 P6 1.524633 1_555
O14 Sc0 2.096998 1_445
O15 P7 1.525213 1_555
O15 Sc1 2.097071 1_545
O16 P8 1.520974 1_455
O16 Sc0 2.095387 1_455
O17 P9 1.521385 1_555
O17 Sc1 2.093141 1_555
O18 P2 1.502808 1_555
O18 Sc3 2.053573 1_555
O19 P3 1.513340 1_555
O19 Sc2 2.050409 1_565
O20 P4 1.513234 1_555
O20 Sc2 2.048095 1_455
O21 P5 1.510636 1_555
O21 Sc3 2.067996 1_545
O22 P0 1.511388 1_565
O22 Sc2 2.083003 1_465
O23 P1 1.516992 1_555
O23 Sc3 2.038035 1_555
O24 P12 1.550730 1_555
O24 Sc4 2.079476 1_555
O25 P13 1.551734 1_555
O25 Sc5 2.078965 1_555
O26 P14 1.551510 1_555
O26 Sc4 2.083482 1_555
O27 P15 1.551615 1_555
O27 Sc5 2.083736 1_555
O28 P16 1.541415 1_555
O28 Sc4 2.003847 1_555
O29 P17 1.540721 1_555
O29 Sc5 2.004575 1_555
O30 P18 1.591483 1_555
O31 P19 1.541928 1_555
O31 Sc6 2.115438 1_555
O32 P20 1.589175 1_555
O33 P21 1.533176 1_555
O33 Sc6 2.020788 1_555
O34 P22 1.591059 1_555
O35 P23 1.543297 1_555
O35 Sc6 2.120802 1_555
O36 P22 1.507931 1_555
O36 Sc7 2.048198 1_554
O37 P23 1.522088 1_555
O37 Sc8 2.040764 1_554
O38 P18 1.509999 1_555
O38 Sc7 2.040521 1_554
O39 P19 1.519517 1_555
O39 Sc8 2.045912 1_554
O40 P20 1.509993 1_555
O40 Sc7 2.042367 1_554
O41 P21 1.519554 1_555
O41 Sc8 2.032948 1_554
O42 P14 1.514240 1_555
O42 Sc9 2.045674 1_555
O43 P15 1.513269 1_555
O43 Sc10 2.053980 1_555
O44 P16 1.514386 1_555
O44 Sc9 2.041833 1_555
O45 P17 1.513102 1_555
O45 Sc10 2.040012 1_555
O46 P12 1.513642 1_555
O46 Sc9 2.046386 1_555
O47 P13 1.513708 1_555
O47 Sc10 2.049093 1_555
O48 P24 1.570402 1_555
O49 P25 1.570311 1_555
O50 P26 1.577759 1_555
O51 P27 1.568021 1_555
O52 P28 1.574249 1_555
O53 P29 1.569059 1_555
O54 P30 1.572942 1_555
O55 P31 1.572248 1_555
O56 P32 1.571818 1_555
O57 P33 1.574679 1_555
O58 P34 1.576630 1_555
O59 P35 1.571751 1_555
O60 P34 1.523099 1_555
O60 Sc11 2.081361 1_555
O61 P35 1.505525 1_555
O61 Sc12 2.014125 1_555
O62 P30 1.510358 1_555
O62 Sc11 2.018150 1_555
O63 P31 1.506231 1_555
O63 Sc12 2.012930 1_555
O64 P32 1.509100 1_555
O64 Sc11 2.010539 1_555
O65 P33 1.519276 1_555
O65 Sc12 2.085591 1_555
O66 P26 1.527377 1_555
O66 Sc13 2.052373 1_555
O67 P27 1.528977 1_555
O67 Sc14 2.049695 1_555
O68 P28 1.527150 1_555
O68 Sc13 2.050520 1_555
O69 P29 1.529637 1_555
O69 Sc14 2.045564 1_555
O70 P24 1.517796 1_555
O70 Sc13 1.987162 1_555
O71 P25 1.515011 1_555
O71 Sc14 1.990134 1_555
O72 P34 1.588396 1_555
O73 P35 1.592909 1_555
O74 P30 1.589831 1_555
O75 P31 1.590311 1_555
O76 P32 1.588793 1_555
O77 P33 1.595669 1_555
O78 P26 1.582874 1_555
O79 P27 1.584147 1_555
O80 P28 1.582180 1_555
O81 P29 1.586698 1_555
O82 P24 1.580752 1_555
O83 P25 1.581634 1_555
O84 P12 1.529864 1_555
O84 Sc1 2.074907 1_545
O85 P13 1.530361 1_555
O85 Sc0 2.072954 1_545
O86 P14 1.530094 1_555
O86 Sc0 2.075203 1_445
O87 P15 1.530467 1_555
O87 Sc1 2.077369 1_545
O88 P16 1.529226 1_555
O88 Sc1 2.066061 1_555
O89 P17 1.528879 1_555
O89 Sc0 2.066204 1_555
O90 P18 1.509366 1_555
O90 Sc3 2.096920 1_555
O91 P19 1.523541 1_555
O91 Sc2 2.113526 1_565
O92 P20 1.508361 1_555
O92 Sc3 2.112527 1_545
O93 P21 1.524484 1_555
O93 Sc2 2.090122 1_555
O94 P22 1.509082 1_555
O94 Sc2 2.114880 1_455
O95 P23 1.523345 1_555
O95 Sc3 2.098268 1_545
O96 P10 1.556912 1_545
O96 Sc4 2.272328 1_555
O97 P11 1.556078 1_545
O97 Sc5 2.272965 1_555
O98 P6 1.540785 1_555
O98 Sc4 2.203489 1_555
O99 P7 1.540517 1_555
O99 Sc5 2.201733 1_555
O100 P9 1.539756 1_555
O100 Sc4 2.188033 1_555
O101 P8 1.538759 1_555
O101 Sc5 2.188846 1_555
O102 P2 1.594696 1_555
O103 P3 1.559533 1_555
O103 Sc6 2.240844 1_555
O104 P5 1.578652 1_555
O105 P4 1.549962 1_655
O105 Sc6 2.147686 1_555
O106 P0 1.579704 1_555
O107 P1 1.552169 1_545
O107 Sc6 2.167113 1_555
O108 P24 1.516173 1_555
O108 Sc7 2.101052 1_555
O109 P25 1.516701 1_555
O109 Sc8 2.118606 1_555
O110 P27 1.514773 1_555
O110 Sc7 2.099749 1_555
O111 P26 1.514014 1_655
O111 Sc8 2.127546 1_555
O112 P28 1.512966 1_545
O112 Sc7 2.106053 1_555
O113 P29 1.515330 1_545
O113 Sc8 2.123976 1_555
O114 P30 1.515947 1_545
O114 Sc9 2.116089 1_555
O115 P31 1.516092 1_545
O115 Sc10 2.114321 1_555
O116 P32 1.515786 1_555
O116 Sc9 2.115779 1_555
O117 P33 1.513994 1_555
O117 Sc10 2.124336 1_555
O118 P35 1.516058 1_555
O118 Sc9 2.118393 1_555
O119 P34 1.513819 1_655
O119 Sc10 2.120448 1_555
O120 P22 1.587367 1_555
O121 P23 1.608571 1_555
O122 P19 1.614143 1_455
O123 P18 1.582110 1_555
O124 P20 1.590429 1_565
O125 P21 1.603267 1_565
O126 P14 1.596790 1_565
O127 P15 1.599250 1_565
O128 P16 1.593532 1_555
O129 P17 1.595192 1_555
O130 P13 1.597532 1_455
O131 P12 1.598720 1_555
O132 P0 1.534676 1_565
O132 Sc11 2.157104 1_555
O133 P1 1.517993 1_555
O133 Sc12 2.074930 1_555
O134 P2 1.520426 1_555
O134 Sc11 2.090316 1_555
O135 P3 1.533320 1_555
O135 Sc12 2.137136 1_555
O136 P4 1.542045 1_555
O136 Sc11 2.125942 1_555
O137 P5 1.530880 1_555
O137 Sc12 2.155950 1_555
O138 P6 1.534315 1_555
O138 Sc13 2.105714 1_555
O139 P7 1.534378 1_555
O139 Sc14 2.110280 1_555
O140 P8 1.552958 1_455
O140 Sc13 2.163969 1_555
O141 P9 1.553685 1_555
O141 Sc14 2.162536 1_555
O142 P10 1.538796 1_555
O142 Sc13 2.104370 1_555
O143 P11 1.537615 1_555
O143 Sc14 2.109889 1_555
