# generated using pymatgen
data_Co2As2O7
_symmetry_space_group_name_H-M   'P 1'
_cell_length_a   5.44424489
_cell_length_b   5.45939559
_cell_length_c   9.71593660
_cell_angle_alpha   97.21133583
_cell_angle_beta   97.44182091
_cell_angle_gamma   105.55623115
_symmetry_Int_Tables_number   1
_chemical_formula_structural   Co2As2O7
_chemical_formula_sum   'Co4 As4 O14'
_cell_volume   271.94781796
_cell_formula_units_Z   2
loop_
 _symmetry_equiv_pos_site_id
 _symmetry_equiv_pos_as_xyz
  1  'x, y, z'
loop_
 _atom_site_type_symbol
 _atom_site_label
 _atom_site_symmetry_multiplicity
 _atom_site_fract_x
 _atom_site_fract_y
 _atom_site_fract_z
 _atom_site_occupancy
  Co  Co0  1  0.69329800  0.31048000  0.75029600  1
  Co  Co1  1  0.30649800  0.69089700  0.24906800  1
  Co  Co2  1  0.69317500  0.31047700  0.25033400  1
  Co  Co3  1  0.30682700  0.69101700  0.74899300  1
  As  As0  1  0.75868000  0.76204200  0.04983000  1
  As  As1  1  0.75870800  0.76200500  0.54978900  1
  As  As2  1  0.23875100  0.23549200  0.45003400  1
  As  As3  1  0.23870900  0.23548300  0.95008400  1
  O  O0  1  0.00338700  0.99992600  0.00342000  1
  O  O1  1  0.00341500  0.99992500  0.50342500  1
  O  O2  1  0.59561400  0.59836000  0.38584800  1
  O  O3  1  0.59560600  0.59836200  0.88584900  1
  O  O4  1  0.40670800  0.40529600  0.11214300  1
  O  O5  1  0.40669400  0.40534300  0.61212400  1
  O  O6  1  0.92798300  0.59908700  0.14680000  1
  O  O7  1  0.92798400  0.59897600  0.64672900  1
  O  O8  1  0.59364800  0.92966900  0.14446600  1
  O  O9  1  0.59370900  0.92964800  0.64453000  1
  O  O10  1  0.40521200  0.07034400  0.35499700  1
  O  O11  1  0.40507500  0.07029300  0.85499200  1
  O  O12  1  0.07018000  0.39845100  0.35312600  1
  O  O13  1  0.07013400  0.39842700  0.85312500  1
loop_
_geom_bond_atom_site_label_1
_geom_bond_atom_site_label_2
_geom_bond_distance
_geom_bond_site_symmetry_2
Co0 O13 2.063486 1_655
Co0 O9 2.094593 1_545
Co0 O5 2.137869 1_555
Co0 O3 2.144220 1_555
Co0 O7 2.185693 1_555
Co0 O11 2.204802 1_555
Co1 O6 2.067771 1_455
Co1 O10 2.088951 1_565
Co1 O2 2.133558 1_555
Co1 O4 2.149912 1_555
Co1 O8 2.197089 1_555
Co1 O12 2.206113 1_555
Co2 O12 2.064155 1_655
Co2 O8 2.094834 1_545
Co2 O4 2.137317 1_555
Co2 O2 2.143640 1_555
Co2 O6 2.186178 1_555
Co2 O10 2.203598 1_555
Co3 O7 2.069203 1_455
Co3 O11 2.088561 1_565
Co3 O3 2.132978 1_555
Co3 O5 2.148906 1_555
Co3 O9 2.194992 1_555
Co3 O13 2.207969 1_555
As0 O8 1.712876 1_555
As0 O6 1.718717 1_555
As0 O3 1.725033 1_554
As0 O0 1.743401 1_655
As1 O9 1.713345 1_555
As1 O7 1.718765 1_555
As1 O2 1.724702 1_555
As1 O1 1.743312 1_655
As2 O10 1.712550 1_555
As2 O12 1.716001 1_555
As2 O5 1.726741 1_555
As2 O1 1.737940 1_545
As3 O11 1.712594 1_555
As3 O13 1.716224 1_555
As3 O4 1.726530 1_556
As3 O0 1.737605 1_546
