# generated using pymatgen
data_KMgSb(PO4)2
_symmetry_space_group_name_H-M   'P 1'
_cell_length_a   8.76872045
_cell_length_b   8.76871995
_cell_length_c   8.76872006
_cell_angle_alpha   34.64864384
_cell_angle_beta   34.64864523
_cell_angle_gamma   34.64865017
_symmetry_Int_Tables_number   1
_chemical_formula_structural   KMgSb(PO4)2
_chemical_formula_sum   'K1 Mg1 Sb1 P2 O8'
_cell_volume   194.47700841
_cell_formula_units_Z   1
loop_
 _symmetry_equiv_pos_site_id
 _symmetry_equiv_pos_as_xyz
  1  'x, y, z'
loop_
 _atom_site_type_symbol
 _atom_site_label
 _atom_site_symmetry_multiplicity
 _atom_site_fract_x
 _atom_site_fract_y
 _atom_site_fract_z
 _atom_site_occupancy
  K  K0  1  0.48112600  0.48112600  0.48112600  1
  Mg  Mg0  1  0.89119600  0.89119600  0.89119600  1
  Sb  Sb0  1  0.01542900  0.01542900  0.01542900  1
  P  P0  1  0.75072800  0.75072800  0.75072800  1
  P  P1  1  0.24697300  0.24697300  0.24697300  1
  O  O0  1  0.81272900  0.81272900  0.81272900  1
  O  O1  1  0.99740100  0.43524600  0.75706600  1
  O  O2  1  0.18518600  0.18518600  0.18518600  1
  O  O3  1  0.75706600  0.99740100  0.43524600  1
  O  O4  1  0.19564400  0.02935800  0.58048900  1
  O  O5  1  0.43524600  0.75706600  0.99740100  1
  O  O6  1  0.58048900  0.19564400  0.02935800  1
  O  O7  1  0.02935800  0.58048900  0.19564400  1
loop_
_geom_bond_atom_site_label_1
_geom_bond_atom_site_label_2
_geom_bond_distance
_geom_bond_site_symmetry_2
K0 O5 2.885809 1_554
K0 O3 2.885809 1_545
K0 O1 2.885809 1_455
K0 O0 3.015400 1_554
K0 O0 3.015400 1_545
K0 O0 3.015401 1_455
K0 O2 3.153415 1_556
K0 O2 3.153415 1_565
K0 O2 3.153415 1_655
Mg0 O0 1.938304 1_555
Mg0 O4 1.985237 1_665
Mg0 O7 1.985237 1_656
Mg0 O6 1.985237 1_566
O0 P0 1.531559 1_555
O1 P0 1.560235 1_555
O1 Sb0 2.149234 1_656
O2 P1 1.526272 1_555
O3 P0 1.560235 1_555
O3 Sb0 2.149234 1_665
O4 P1 1.569148 1_555
O4 Sb0 2.587039 1_556
O5 P0 1.560235 1_555
O5 Sb0 2.149234 1_566
O6 P1 1.569148 1_555
O6 Sb0 2.587039 1_655
O7 P1 1.569148 1_555
O7 Sb0 2.587039 1_565
