# generated using pymatgen
data_Na6Y4Mg4SiS11O48
_symmetry_space_group_name_H-M   'P 1'
_cell_length_a   18.01711572
_cell_length_b   9.00132061
_cell_length_c   23.53859828
_cell_angle_alpha   89.93750460
_cell_angle_beta   89.98684013
_cell_angle_gamma   119.99639472
_symmetry_Int_Tables_number   1
_chemical_formula_structural   Na6Y4Mg4SiS11O48
_chemical_formula_sum   'Na18 Y12 Mg12 Si3 S33 O144'
_cell_volume   3306.11587919
_cell_formula_units_Z   3
loop_
 _symmetry_equiv_pos_site_id
 _symmetry_equiv_pos_as_xyz
  1  'x, y, z'
loop_
 _atom_site_type_symbol
 _atom_site_label
 _atom_site_symmetry_multiplicity
 _atom_site_fract_x
 _atom_site_fract_y
 _atom_site_fract_z
 _atom_site_occupancy
  Na  Na0  1  0.81970959  0.99578571  0.24677287  1
  Na  Na1  1  0.99549750  0.63726154  0.25329950  1
  Na  Na2  1  0.31772619  0.65139804  0.75001806  1
  Na  Na3  1  0.81786046  0.64775767  0.74651309  1
  Na  Na4  1  0.99246048  0.35295844  0.75072508  1
  Na  Na5  1  0.68891944  0.00285790  0.74860553  1
  Na  Na6  1  0.99790783  0.99794612  0.49888300  1
  Na  Na7  1  0.50321745  0.00256247  0.49393238  1
  Na  Na8  1  0.00174413  0.00177340  0.00076864  1
  Na  Na9  1  0.50032189  0.00035349  0.00064877  1
  Na  Na10  1  0.33467654  0.31032019  0.83694700  1
  Na  Na11  1  0.83416012  0.32231140  0.83615718  1
  Na  Na12  1  0.33447667  0.33550500  0.32841436  1
  Na  Na13  1  0.82810130  0.34744270  0.33513127  1
  Na  Na14  1  0.17483073  0.66955612  0.17037214  1
  Na  Na15  1  0.66684182  0.65580502  0.17020104  1
  Na  Na16  1  0.17254138  0.68709321  0.66530069  1
  Na  Na17  1  0.67117389  0.67330469  0.66272083  1
  Y  Y0  1  0.99768277  0.98898834  0.35291708  1
  Y  Y1  1  0.99630196  0.00135314  0.85179513  1
  Y  Y2  1  0.49721057  0.00774884  0.85278187  1
  Y  Y3  1  0.99200482  0.99457706  0.64621465  1
  Y  Y4  1  0.49645630  0.00084016  0.64761584  1
  Y  Y5  1  0.99889790  0.99804373  0.14800052  1
  Y  Y6  1  0.49711089  0.99566648  0.14891449  1
  Y  Y7  1  0.33401041  0.31691750  0.68286703  1
  Y  Y8  1  0.33207974  0.33019881  0.47806744  1
  Y  Y9  1  0.16751975  0.66764525  0.01990282  1
  Y  Y10  1  0.66683565  0.66829129  0.02039071  1
  Y  Y11  1  0.66658479  0.65538750  0.31767573  1
  Mg  Mg0  1  0.49812884  0.99955322  0.35110112  1
  Mg  Mg1  1  0.83360462  0.32213402  0.67701424  1
  Mg  Mg2  1  0.33424113  0.33664169  0.18415654  1
  Mg  Mg3  1  0.82883920  0.34190568  0.18337917  1
  Mg  Mg4  1  0.33300968  0.33289667  0.98322770  1
  Mg  Mg5  1  0.83282386  0.33262787  0.98321964  1
  Mg  Mg6  1  0.83265627  0.33331102  0.48336352  1
  Mg  Mg7  1  0.16523355  0.66476959  0.51463833  1
  Mg  Mg8  1  0.66906446  0.66877058  0.51566227  1
  Mg  Mg9  1  0.17262123  0.67116453  0.31992523  1
  Mg  Mg10  1  0.17229121  0.68666994  0.81857569  1
  Mg  Mg11  1  0.66858128  0.66994745  0.81877178  1
  Si  Si0  1  0.84930055  0.69267625  0.24797415  1
  Si  Si1  1  0.34445954  0.99065150  0.75169618  1
  Si  Si2  1  0.84547468  0.00002389  0.75044391  1
  S  S0  1  0.15333666  0.00141114  0.25017267  1
  S  S1  1  0.64752188  0.00501080  0.25151870  1
  S  S2  1  0.35071608  0.70098503  0.25297172  1
  S  S3  1  0.00223951  0.30438539  0.24992111  1
  S  S4  1  0.49438301  0.28793152  0.25101376  1
  S  S5  1  0.14801487  0.30135355  0.75113093  1
  S  S6  1  0.65132036  0.30387160  0.74997486  1
  S  S7  1  0.00049318  0.69855886  0.74954212  1
  S  S8  1  0.50298861  0.70387315  0.75168115  1
  S  S9  1  0.48791458  0.34558538  0.58014451  1
  S  S10  1  0.98077730  0.34430442  0.58147552  1
  S  S11  1  0.18320925  0.02484276  0.58050746  1
  S  S12  1  0.69018791  0.03896562  0.58186091  1
  S  S13  1  0.32853945  0.62881686  0.58224924  1
  S  S14  1  0.82866680  0.61414036  0.58194628  1
  S  S15  1  0.47349449  0.61434026  0.08317802  1
  S  S16  1  0.97472567  0.61526571  0.08294512  1
  S  S17  1  0.33369525  0.05356160  0.08327478  1
  S  S18  1  0.83396074  0.05360277  0.08362018  1
  S  S19  1  0.19341873  0.33346435  0.08299254  1
  S  S20  1  0.69098971  0.33062838  0.08242718  1
  S  S21  1  0.31212524  0.65541958  0.91591920  1
  S  S22  1  0.81157884  0.65504728  0.91606629  1
  S  S23  1  0.01767582  0.37796683  0.91556528  1
  S  S24  1  0.51844536  0.38073487  0.91645696  1
  S  S25  1  0.17082081  0.96672528  0.91667840  1
  S  S26  1  0.67102059  0.96695581  0.91574509  1
  S  S27  1  0.31233772  0.94912225  0.41550970  1
  S  S28  1  0.81204845  0.96668098  0.42029785  1
  S  S29  1  0.16601931  0.38443723  0.41687171  1
  S  S30  1  0.66627462  0.36506008  0.42065015  1
  S  S31  1  0.02150582  0.65823789  0.41797670  1
  S  S32  1  0.52188384  0.67690052  0.41798023  1
  O  O0  1  0.11358771  0.03174935  0.30079260  1
  O  O1  1  0.60552912  0.02765832  0.30136122  1
  O  O2  1  0.40664540  0.78803531  0.30188158  1
  O  O3  1  0.91087446  0.78440659  0.30351935  1
  O  O4  1  0.48587105  0.18405853  0.30147233  1
  O  O5  1  0.98731254  0.19361764  0.30018741  1
  O  O6  1  0.11147729  0.19093370  0.80143736  1
  O  O7  1  0.61408188  0.18880700  0.80002677  1
  O  O8  1  0.48836798  0.78532271  0.80158738  1
  O  O9  1  0.98512756  0.77832120  0.80022869  1
  O  O10  1  0.40614246  0.02143443  0.80605076  1
  O  O11  1  0.91145729  0.04429250  0.80405051  1
  O  O12  1  0.39067358  0.95896268  0.69604636  1
  O  O13  1  0.88954064  0.95530124  0.69705751  1
  O  O14  1  0.09599190  0.21914680  0.69986865  1
  O  O15  1  0.59793569  0.22315824  0.69930891  1
  O  O16  1  0.01769602  0.80923699  0.69923502  1
  O  O17  1  0.51999469  0.81321550  0.70030741  1
  O  O18  1  0.38869185  0.80538724  0.19995559  1
  O  O19  1  0.89462224  0.82501478  0.19453963  1
  O  O20  1  0.01903516  0.22939823  0.19904491  1
  O  O21  1  0.50884398  0.21164880  0.19892108  1
  O  O22  1  0.09688124  0.96881332  0.19967979  1
  O  O23  1  0.59671969  0.97961042  0.19903668  1
  O  O24  1  0.44839434  0.36687872  0.63286055  1
  O  O25  1  0.94292366  0.36183397  0.63600460  1
  O  O26  1  0.23400766  0.10516962  0.63289740  1
  O  O27  1  0.73733675  0.11542158  0.63628809  1
  O  O28  1  0.31944384  0.53317248  0.63631628  1
  O  O29  1  0.82080834  0.52121276  0.63650048  1
  O  O30  1  0.43398753  0.51659488  0.13517207  1
  O  O31  1  0.93635380  0.51977622  0.13583485  1
  O  O32  1  0.32457078  0.13320282  0.13499746  1
  O  O33  1  0.82501637  0.12984690  0.13706499  1
  O  O34  1  0.24200709  0.35123756  0.13507772  1
  O  O35  1  0.73982350  0.34939265  0.13413226  1
  O  O36  1  0.23380326  0.31704288  0.03113681  1
  O  O37  1  0.73123176  0.31339751  0.03061368  1
  O  O38  1  0.42487954  0.53508920  0.03129390  1
  O  O39  1  0.92430965  0.53197588  0.03190717  1
  O  O40  1  0.34272309  0.15054313  0.03115424  1
  O  O41  1  0.84087099  0.15316407  0.03263490  1
  O  O42  1  0.22609530  0.13754660  0.53133679  1
  O  O43  1  0.73323690  0.14899486  0.53289519  1
  O  O44  1  0.34009098  0.53762899  0.53394698  1
  O  O45  1  0.84004473  0.52822708  0.53272935  1
  O  O46  1  0.43102785  0.31708211  0.53135811  1
  O  O47  1  0.92530745  0.31832462  0.53265400  1
  O  O48  1  0.27143186  0.68345398  0.96644552  1
  O  O49  1  0.77090053  0.68280576  0.96649804  1
  O  O50  1  0.07111519  0.46129289  0.96623776  1
  O  O51  1  0.57050374  0.46096029  0.96808078  1
  O  O52  1  0.15731709  0.86084529  0.96828204  1
  O  O53  1  0.65840632  0.85891100  0.96651143  1
  O  O54  1  0.27226872  0.85087697  0.46773674  1
  O  O55  1  0.76721686  0.85111190  0.46803002  1
  O  O56  1  0.15814747  0.46533789  0.46872934  1
  O  O57  1  0.65347588  0.45328431  0.46923397  1
  O  O58  1  0.07579636  0.68095303  0.46736746  1
  O  O59  1  0.57368127  0.69360246  0.46839006  1
  O  O60  1  0.06007564  0.64223079  0.36384588  1
  O  O61  1  0.55872639  0.64760083  0.36586163  1
  O  O62  1  0.25949754  0.87108628  0.36476197  1
  O  O63  1  0.76549340  0.89361713  0.36543448  1
  O  O64  1  0.17543584  0.48265701  0.36498898  1
  O  O65  1  0.68098832  0.46876371  0.36761817  1
  O  O66  1  0.05903952  0.47681239  0.86316043  1
  O  O67  1  0.56157042  0.48193119  0.86532279  1
  O  O68  1  0.17940266  0.88127761  0.86592217  1
  O  O69  1  0.67932471  0.88376366  0.86360670  1
  O  O70  1  0.26192264  0.63774540  0.86389349  1
  O  O71  1  0.76215648  0.63809870  0.86377748  1
  O  O72  1  0.01391605  0.81827817  0.41519649  1
  O  O73  1  0.51223910  0.83014907  0.41136747  1
  O  O74  1  0.39966585  0.97159656  0.40923819  1
  O  O75  1  0.89909952  0.98308564  0.41574774  1
  O  O76  1  0.08948865  0.20839183  0.41327000  1
  O  O77  1  0.58784882  0.19441110  0.41238693  1
  O  O78  1  0.01036740  0.20453504  0.91342693  1
  O  O79  1  0.51129172  0.20755202  0.91418974  1
  O  O80  1  0.09277276  0.98447826  0.91208954  1
  O  O81  1  0.59327004  0.98474956  0.91229650  1
  O  O82  1  0.39960659  0.81083076  0.91272351  1
  O  O83  1  0.89899985  0.81103335  0.91255145  1
  O  O84  1  0.49519478  0.18857068  0.58528153  1
  O  O85  1  0.99051661  0.18696368  0.58609232  1
  O  O86  1  0.09809245  0.01157944  0.58614179  1
  O  O87  1  0.60262900  0.02025958  0.58699551  1
  O  O88  1  0.40858148  0.79977101  0.58486678  1
  O  O89  1  0.90818595  0.78956967  0.58502550  1
  O  O90  1  0.48494586  0.79159880  0.08686422  1
  O  O91  1  0.98680848  0.79270252  0.08543688  1
  O  O92  1  0.41065719  0.02990888  0.08669158  1
  O  O93  1  0.91188110  0.03430232  0.08525744  1
  O  O94  1  0.10514322  0.18006689  0.08598823  1
  O  O95  1  0.60268485  0.17647361  0.08652897  1
  O  O96  1  0.33647824  0.16346328  0.74765929  1
  O  O97  1  0.83833121  0.17369631  0.74132460  1
  O  O98  1  0.23755826  0.33594624  0.74418390  1
  O  O99  1  0.73870209  0.32546147  0.74179165  1
  O  O100  1  0.42185088  0.53759852  0.74400771  1
  O  O101  1  0.91982643  0.52950054  0.74153492  1
  O  O102  1  0.34278583  0.52914078  0.24490201  1
  O  O103  1  0.84644593  0.51078304  0.24182500  1
  O  O104  1  0.41720764  0.30512311  0.24398450  1
  O  O105  1  0.92173240  0.31198970  0.24184708  1
  O  O106  1  0.23860584  0.15266276  0.24144542  1
  O  O107  1  0.73611907  0.15418022  0.24438005  1
  O  O108  1  0.32023387  0.50095255  0.92297867  1
  O  O109  1  0.82008235  0.50102223  0.92297824  1
  O  O110  1  0.43214591  0.36055805  0.92229916  1
  O  O111  1  0.93153076  0.35867104  0.92207836  1
  O  O112  1  0.24824180  0.13778353  0.92297321  1
  O  O113  1  0.74864876  0.13784837  0.92224356  1
  O  O114  1  0.32202601  0.12600595  0.42021488  1
  O  O115  1  0.82171661  0.13854726  0.42680117  1
  O  O116  1  0.24368739  0.36300849  0.42019985  1
  O  O117  1  0.74373741  0.34805731  0.42722550  1
  O  O118  1  0.43432292  0.52039894  0.42287209  1
  O  O119  1  0.93412306  0.50668302  0.42393733  1
  O  O120  1  0.18247603  0.48887723  0.07958218  1
  O  O121  1  0.68033627  0.48599004  0.07888937  1
  O  O122  1  0.06272700  0.63614823  0.07903762  1
  O  O123  1  0.56212998  0.63749381  0.07956882  1
  O  O124  1  0.25651010  0.87600866  0.07981779  1
  O  O125  1  0.75695470  0.87658742  0.07971162  1
  O  O126  1  0.17601390  0.85572617  0.57407179  1
  O  O127  1  0.68039086  0.86509502  0.57621774  1
  O  O128  1  0.25237774  0.64724727  0.57534148  1
  O  O129  1  0.75282248  0.63692204  0.57648559  1
  O  O130  1  0.06748963  0.49674254  0.57559944  1
  O  O131  1  0.57267031  0.49930043  0.57360333  1
  O  O132  1  0.15645447  0.83930479  0.25802693  1
  O  O133  1  0.65749744  0.84957826  0.25656151  1
  O  O134  1  0.26416378  0.68303654  0.25929892  1
  O  O135  1  0.75773040  0.69034230  0.25317498  1
  O  O136  1  0.07578283  0.48113471  0.25795686  1
  O  O137  1  0.57166739  0.46268675  0.25531671  1
  O  O138  1  0.15086608  0.46809059  0.75882537  1
  O  O139  1  0.65947809  0.47374163  0.75910116  1
  O  O140  1  0.07304189  0.66822711  0.75850279  1
  O  O141  1  0.57784755  0.68202859  0.75955896  1
  O  O142  1  0.25287067  0.81313561  0.75712527  1
  O  O143  1  0.75155747  0.82712075  0.75916718  1
loop_
_geom_bond_atom_site_label_1
_geom_bond_atom_site_label_2
_geom_bond_distance
_geom_bond_site_symmetry_2
Na0 O135 2.399585 1_555
Na0 O105 2.502262 1_565
Na0 O107 2.539900 1_565
Na0 O133 2.545546 1_555
Na0 O19 2.788210 1_555
Na0 O33 2.830493 1_565
Na0 O5 2.915552 1_565
Na0 O63 2.948967 1_555
Na1 O103 2.350503 1_555
Na1 O136 2.472201 1_655
Na1 O132 2.541038 1_655
Na1 O105 2.553923 1_555
Na1 O3 2.738257 1_555
Na1 O60 2.841888 1_655
Na1 O22 2.894157 1_655
Na1 O31 2.963070 1_555
Na2 O142 2.283493 1_555
Na2 O98 2.463301 1_555
Na2 O100 2.551560 1_555
Na2 O138 2.615836 1_555
Na2 O12 2.712786 1_555
Na2 O70 2.843480 1_555
Na2 O28 2.887138 1_555
Na2 O8 2.945866 1_555
Na3 O143 2.460027 1_555
Na3 O139 2.492712 1_555
Na3 O99 2.515237 1_555
Na3 O101 2.545077 1_555
Na3 O13 2.665338 1_555
Na3 O29 2.841285 1_555
Na3 O9 2.919875 1_555
Na3 O71 2.923132 1_555
Na4 O97 2.425869 1_555
Na4 O140 2.465012 1_655
Na4 O138 2.509784 1_655
Na4 O101 2.522580 1_555
Na4 O11 2.713320 1_555
Na4 O25 2.857767 1_555
Na4 O66 2.890827 1_655
Na4 O14 2.934608 1_655
Na5 O97 2.345387 1_555
Na5 O143 2.371086 1_545
Na5 O141 2.575013 1_545
Na5 O99 2.580162 1_555
Na5 O27 2.808303 1_555
Na5 O17 2.877590 1_545
Na5 O69 2.883558 1_545
Na5 O7 2.888762 1_555
Na6 O75 2.603963 1_555
Na6 O72 2.655585 1_655
Na6 O89 2.683506 1_555
Na6 O76 2.690138 1_665
Na6 O86 2.696794 1_665
Na6 O85 2.713023 1_565
Na7 O77 2.519937 1_555
Na7 O73 2.543753 1_545
Na7 O74 2.648745 1_545
Na7 O84 2.774425 1_555
Na7 O88 2.774642 1_545
Na7 O87 2.783765 1_555
Na8 O91 2.659165 1_445
Na8 O94 2.662577 1_555
Na8 O93 2.671340 1_455
Na8 O78 2.700014 1_554
Na8 O80 2.706598 1_544
Na8 O83 2.741910 1_444
Na9 O95 2.662014 1_555
Na9 O90 2.682720 1_545
Na9 O92 2.685512 1_555
Na9 O79 2.698555 1_554
Na9 O81 2.717267 1_544
Na9 O82 2.720403 1_544
Na10 O96 2.492910 1_555
Na10 O112 2.551651 1_555
Na10 O110 2.556240 1_555
Na10 O108 2.750793 1_555
Na10 O100 2.865984 1_555
Na10 O98 2.878705 1_555
Na11 O113 2.582652 1_555
Na11 O111 2.589237 1_555
Na11 O97 2.623922 1_555
Na11 O109 2.691362 1_555
Na11 O101 2.816437 1_555
Na11 O99 2.818339 1_555
Na12 O104 2.579461 1_555
Na12 O102 2.579941 1_555
Na12 O106 2.655091 1_555
Na12 O116 2.794500 1_555
Na12 O114 2.800652 1_555
Na12 O118 2.822383 1_555
Na13 O103 2.569321 1_555
Na13 O117 2.648878 1_555
Na13 O119 2.709931 1_555
Na13 O107 2.731846 1_555
Na13 O115 2.824830 1_555
Na13 O105 2.882229 1_555
Na14 O134 2.606463 1_555
Na14 O132 2.685846 1_555
Na14 O136 2.697372 1_555
Na14 O124 2.723591 1_555
Na14 O120 2.731756 1_555
Na14 O122 2.861480 1_555
Na15 O135 2.467092 1_555
Na15 O137 2.643208 1_555
Na15 O121 2.719160 1_555
Na15 O133 2.739366 1_555
Na15 O123 2.798096 1_555
Na15 O125 2.808079 1_555
Na16 O142 2.533488 1_555
Na16 O126 2.610975 1_555
Na16 O128 2.682848 1_555
Na16 O130 2.782704 1_555
Na16 O140 2.783619 1_555
Na16 O138 2.846980 1_555
Na17 O127 2.619044 1_555
Na17 O129 2.621719 1_555
Na17 O143 2.678007 1_555
Na17 O131 2.689374 1_555
Na17 O139 2.833799 1_555
Na17 O141 2.856569 1_555
Mg0 O4 2.129391 1_565
Mg0 O2 2.133509 1_555
Mg0 O74 2.152887 1_555
Mg0 O1 2.165183 1_565
Mg0 O73 2.187528 1_555
Mg0 O77 2.223093 1_565
Mg1 O27 2.041377 1_555
Mg1 O97 2.047791 1_555
Mg1 O25 2.057549 1_555
Mg1 O29 2.140843 1_555
Mg1 O99 2.302082 1_555
Mg1 O101 2.304736 1_555
Mg2 O30 2.065731 1_555
Mg2 O34 2.081409 1_555
Mg2 O32 2.099613 1_555
Mg2 O106 2.161207 1_555
Mg2 O104 2.173091 1_555
Mg2 O102 2.193033 1_555
Mg3 O103 1.956178 1_555
Mg3 O35 2.007298 1_555
Mg3 O31 2.112400 1_555
Mg3 O33 2.170227 1_555
Mg3 O107 2.208818 1_555
Mg3 O105 2.284434 1_555
Mg4 O36 2.056849 1_556
Mg4 O40 2.069019 1_556
Mg4 O38 2.079769 1_556
Mg4 O108 2.167068 1_555
Mg4 O112 2.180153 1_555
Mg4 O110 2.205116 1_555
Mg5 O41 2.052729 1_556
Mg5 O39 2.073195 1_556
Mg5 O37 2.075257 1_556
Mg5 O109 2.168957 1_555
Mg5 O113 2.186746 1_555
Mg5 O111 2.206849 1_555
Mg6 O45 2.053591 1_555
Mg6 O43 2.084177 1_555
Mg6 O47 2.092038 1_555
Mg6 O117 2.131563 1_555
Mg6 O115 2.131817 1_555
Mg6 O119 2.208072 1_555
Mg7 O58 2.022645 1_555
Mg7 O56 2.044935 1_555
Mg7 O54 2.123411 1_555
Mg7 O126 2.149630 1_555
Mg7 O130 2.186045 1_555
Mg7 O128 2.186290 1_555
Mg8 O55 2.042343 1_555
Mg8 O57 2.120272 1_555
Mg8 O131 2.132773 1_555
Mg8 O59 2.150785 1_555
Mg8 O127 2.200306 1_555
Mg8 O129 2.200437 1_555
Mg9 O62 1.997684 1_555
Mg9 O64 2.022142 1_555
Mg9 O134 2.142560 1_555
Mg9 O60 2.172278 1_555
Mg9 O132 2.221375 1_555
Mg9 O136 2.262784 1_555
Mg10 O142 1.959283 1_555
Mg10 O68 2.026551 1_555
Mg10 O70 2.156524 1_555
Mg10 O140 2.220249 1_555
Mg10 O66 2.230216 1_555
Mg10 O138 2.290202 1_555
Mg11 O143 2.021107 1_555
Mg11 O69 2.118361 1_555
Mg11 O67 2.124736 1_555
Mg11 O71 2.128458 1_555
Mg11 O141 2.192117 1_555
Mg11 O139 2.198802 1_555
O0 S0 1.484269 1_555
O0 Y0 2.282214 1_445
O1 S1 1.464503 1_555
O2 S2 1.472354 1_555
O3 Si0 1.645921 1_555
O3 Y0 2.077254 1_555
O4 S4 1.470558 1_555
O5 S3 1.481745 1_655
O5 Y0 2.303779 1_545
O6 S5 1.471830 1_555
O6 Y1 2.253211 1_455
O7 S6 1.487642 1_555
O7 Y2 2.279264 1_555
O8 S8 1.477066 1_555
O8 Y2 2.274302 1_565
O9 S7 1.488638 1_655
O9 Y1 2.268374 1_565
O10 Si1 1.625526 1_545
O10 Y2 2.029767 1_555
O11 Si2 1.640851 1_555
O11 Y1 2.083223 1_555
O12 Si1 1.651768 1_555
O12 Y4 2.086582 1_565
O13 Si2 1.640661 1_565
O13 Y3 2.076255 1_555
O14 S5 1.480218 1_555
O14 Y3 2.326196 1_445
O15 S6 1.476135 1_555
O15 Y4 2.275081 1_555
O16 S7 1.476252 1_555
O16 Y3 2.307149 1_455
O17 S8 1.490169 1_555
O17 Y4 2.298321 1_565
O18 S2 1.504239 1_555
O18 Y6 2.200423 1_555
O19 Si0 1.640560 1_555
O19 Y5 2.055488 1_555
O20 S3 1.478899 1_555
O20 Y5 2.272056 1_445
O21 S4 1.491133 1_555
O21 Y6 2.191806 1_545
O22 S0 1.495398 1_565
O22 Y5 2.265013 1_455
O23 S1 1.485950 1_565
O23 Y6 2.212147 1_555
O24 S9 1.489983 1_555
O24 Y7 2.214943 1_555
O25 S10 1.498383 1_555
O26 S11 1.490632 1_555
O26 Y7 2.198810 1_555
O27 S12 1.501478 1_555
O28 S13 1.498053 1_555
O28 Y7 2.359025 1_555
O29 S14 1.499290 1_555
O30 S15 1.466177 1_555
O31 S16 1.473010 1_555
O32 S17 1.463846 1_555
O33 S18 1.480525 1_555
O34 S19 1.468315 1_555
O35 S20 1.461591 1_555
O36 S19 1.465840 1_555
O37 S20 1.466173 1_555
O38 S15 1.464663 1_555
O39 S16 1.466964 1_555
O40 S17 1.466036 1_555
O41 S18 1.464568 1_555
O42 S11 1.476160 1_555
O42 Y8 2.215600 1_555
O43 S12 1.462856 1_555
O44 S13 1.477323 1_555
O44 Y8 2.230049 1_555
O45 S14 1.463743 1_555
O46 S9 1.474213 1_555
O46 Y8 2.230880 1_555
O47 S10 1.463408 1_555
O48 S21 1.483562 1_555
O48 Y9 2.200195 1_556
O49 S22 1.480583 1_555
O49 Y10 2.212545 1_556
O50 S23 1.480766 1_555
O50 Y9 2.200666 1_556
O51 S24 1.484251 1_555
O51 Y10 2.186008 1_556
O52 S25 1.486084 1_555
O52 Y9 2.202195 1_556
O53 S26 1.483839 1_555
O53 Y10 2.198061 1_556
O54 S27 1.474245 1_555
O55 S28 1.467592 1_555
O56 S29 1.464766 1_555
O57 S30 1.475330 1_555
O58 S31 1.466723 1_555
O59 S32 1.470413 1_555
O60 S31 1.492405 1_555
O61 S32 1.480067 1_555
O61 Y11 2.220454 1_555
O62 S27 1.469816 1_555
O63 S28 1.501530 1_555
O63 Y11 2.285397 1_555
O64 S29 1.466098 1_555
O65 S30 1.499921 1_555
O65 Y11 2.168635 1_555
O66 S23 1.484193 1_555
O67 S24 1.473657 1_555
O68 S25 1.470952 1_555
O69 S26 1.484342 1_555
O70 S21 1.483296 1_555
O71 S22 1.481937 1_555
O72 S31 1.514927 1_555
O72 Y0 2.245097 1_455
O73 S32 1.482060 1_555
O74 S27 1.489924 1_555
O75 S28 1.503828 1_555
O75 Y0 2.291113 1_555
O76 S29 1.495031 1_555
O76 Y0 2.322787 1_445
O77 S30 1.491463 1_555
O78 S23 1.500529 1_555
O78 Y1 2.248611 1_455
O79 S24 1.499612 1_555
O79 Y2 2.222136 1_555
O80 S25 1.496437 1_555
O80 Y1 2.307176 1_465
O81 S26 1.489619 1_555
O81 Y2 2.315053 1_565
O82 S21 1.497310 1_555
O82 Y2 2.258706 1_565
O83 S22 1.499181 1_555
O83 Y1 2.245876 1_565
O84 S9 1.488071 1_555
O84 Y4 2.245414 1_555
O85 S10 1.515454 1_555
O85 Y3 2.245773 1_545
O86 S11 1.483392 1_555
O86 Y3 2.319940 1_445
O87 S12 1.505297 1_555
O87 Y4 2.321593 1_555
O88 S13 1.494255 1_555
O88 Y4 2.259578 1_565
O89 S14 1.513145 1_555
O89 Y3 2.231748 1_555
O90 S15 1.505676 1_555
O90 Y6 2.271318 1_555
O91 S16 1.501439 1_555
O91 Y5 2.288246 1_555
O92 S17 1.506569 1_555
O92 Y6 2.268602 1_545
O93 S18 1.498828 1_555
O93 Y5 2.292885 1_545
O94 S19 1.498335 1_555
O94 Y5 2.310183 1_445
O95 S20 1.502743 1_555
O95 Y6 2.306816 1_545
O96 Si1 1.634852 1_545
O96 Y7 2.071901 1_555
O97 Si2 1.645281 1_555
O98 S5 1.491290 1_555
O98 Y7 2.330110 1_555
O99 S6 1.499118 1_555
O100 S8 1.490889 1_555
O100 Y7 2.320699 1_555
O101 S7 1.500957 1_655
O102 S2 1.492927 1_555
O103 Si0 1.618827 1_555
O104 S4 1.483223 1_555
O105 S3 1.498047 1_655
O106 S0 1.471009 1_555
O107 S1 1.495152 1_555
O108 S21 1.478108 1_555
O109 S22 1.477849 1_555
O110 S24 1.478849 1_555
O111 S23 1.480853 1_655
O112 S25 1.480393 1_545
O113 S26 1.481622 1_545
O114 S27 1.516672 1_545
O114 Y8 2.222198 1_555
O115 S28 1.475851 1_545
O116 S29 1.507130 1_555
O116 Y8 2.224701 1_555
O117 S30 1.486223 1_555
O118 S32 1.504651 1_555
O118 Y8 2.202976 1_555
O119 S31 1.487060 1_655
O120 S19 1.509249 1_555
O120 Y9 2.250368 1_555
O121 S20 1.505861 1_555
O121 Y10 2.245503 1_555
O122 S16 1.503195 1_455
O122 Y9 2.246193 1_555
O123 S15 1.505998 1_555
O123 Y10 2.247468 1_555
O124 S17 1.507593 1_565
O124 Y9 2.253302 1_555
O125 S18 1.504056 1_565
O125 Y10 2.250393 1_555
O126 S11 1.469781 1_565
O127 S12 1.490794 1_565
O128 S13 1.471258 1_555
O129 S14 1.485294 1_555
O130 S10 1.482809 1_455
O131 S9 1.468612 1_555
O132 S0 1.499297 1_565
O133 S1 1.501649 1_565
O133 Y11 2.330752 1_555
O134 S2 1.492652 1_555
O135 Si0 1.643962 1_555
O135 Y11 2.140569 1_555
O136 S3 1.488492 1_555
O137 S4 1.494614 1_555
O137 Y11 2.264626 1_555
O138 S5 1.487114 1_555
O139 S6 1.477083 1_555
O140 S7 1.477981 1_555
O141 S8 1.468797 1_555
O142 Si1 1.629594 1_555
O143 Si2 1.641207 1_565
