# generated using pymatgen
data_K2PrI5
_symmetry_space_group_name_H-M   'P 1'
_cell_length_a   9.20568295
_cell_length_b   9.90948776
_cell_length_c   14.43492604
_cell_angle_alpha   90.00000000
_cell_angle_beta   90.00000000
_cell_angle_gamma   90.00000000
_symmetry_Int_Tables_number   1
_chemical_formula_structural   K2PrI5
_chemical_formula_sum   'K8 Pr4 I20'
_cell_volume   1316.80595541
_cell_formula_units_Z   4
loop_
 _symmetry_equiv_pos_site_id
 _symmetry_equiv_pos_as_xyz
  1  'x, y, z'
loop_
 _atom_site_type_symbol
 _atom_site_label
 _atom_site_symmetry_multiplicity
 _atom_site_fract_x
 _atom_site_fract_y
 _atom_site_fract_z
 _atom_site_occupancy
  K  K0  1  0.43597216  0.50511293  0.67276024  1
  K  K1  1  0.93597216  0.49488707  0.82723976  1
  K  K2  1  0.56402784  0.00511293  0.32723976  1
  K  K3  1  0.06402784  0.99488707  0.17276024  1
  K  K4  1  0.56402784  0.49488707  0.32723976  1
  K  K5  1  0.06402784  0.50511293  0.17276024  1
  K  K6  1  0.43597216  0.99488707  0.67276024  1
  K  K7  1  0.93597216  0.00511293  0.82723976  1
  Pr  Pr0  1  0.91825465  0.75000000  0.50617983  1
  Pr  Pr1  1  0.58174535  0.75000000  0.00617983  1
  Pr  Pr2  1  0.08174535  0.25000000  0.49382017  1
  Pr  Pr3  1  0.41825465  0.25000000  0.99382017  1
  I  I0  1  0.56479417  0.75000000  0.50557681  1
  I  I1  1  0.32832721  0.95368980  0.92447677  1
  I  I2  1  0.82832721  0.04631020  0.57552323  1
  I  I3  1  0.67167279  0.45368980  0.07552323  1
  I  I4  1  0.06479417  0.25000000  0.99442319  1
  I  I5  1  0.65978927  0.75000000  0.79053177  1
  I  I6  1  0.93520583  0.75000000  0.00557681  1
  I  I7  1  0.43520583  0.25000000  0.49442319  1
  I  I8  1  0.12392511  0.75000000  0.68597124  1
  I  I9  1  0.15978927  0.25000000  0.70946823  1
  I  I10  1  0.34021073  0.25000000  0.20946823  1
  I  I11  1  0.84021073  0.75000000  0.29053177  1
  I  I12  1  0.67167279  0.04631020  0.07552323  1
  I  I13  1  0.62392511  0.25000000  0.81402876  1
  I  I14  1  0.87607489  0.25000000  0.31402876  1
  I  I15  1  0.37607489  0.75000000  0.18597124  1
  I  I16  1  0.82832721  0.45368980  0.57552323  1
  I  I17  1  0.32832721  0.54631020  0.92447677  1
  I  I18  1  0.17167279  0.95368980  0.42447677  1
  I  I19  1  0.17167279  0.54631020  0.42447677  1
loop_
_geom_bond_atom_site_label_1
_geom_bond_atom_site_label_2
_geom_bond_distance
_geom_bond_site_symmetry_2
I0 Pr0 3.253857 1_555
I0 K2 3.608041 1_565
I0 K4 3.608041 1_555
I0 K6 3.622039 1_555
I0 K0 3.622039 1_555
I1 Pr3 3.210765 1_565
I1 Pr1 3.302648 1_556
I1 K6 3.788275 1_555
I1 K7 3.908399 1_465
I2 Pr0 3.210765 1_545
I2 Pr2 3.302648 1_655
I2 K7 3.788275 1_555
I2 K6 3.908399 1_545
I3 Pr1 3.210765 1_555
I3 Pr3 3.302648 1_554
I3 K4 3.788275 1_555
I3 K5 3.908399 1_655
I4 Pr3 3.253857 1_555
I4 K3 3.608041 1_546
I4 K5 3.608041 1_556
I4 K1 3.622039 1_455
I4 K7 3.622039 1_455
I5 Pr1 3.194697 1_556
I5 K0 3.608903 1_555
I5 K6 3.608903 1_555
I5 K7 3.624336 1_565
I5 K1 3.624336 1_555
I6 Pr1 3.253857 1_555
I6 K7 3.608041 1_564
I6 K1 3.608041 1_554
I6 K3 3.622039 1_655
I6 K5 3.622039 1_655
I7 Pr2 3.253857 1_555
I7 K0 3.608041 1_555
I7 K6 3.608041 1_545
I7 K4 3.622039 1_555
I7 K2 3.622039 1_555
I8 Pr0 3.212504 1_455
I8 K7 3.680086 1_465
I8 K1 3.680086 1_455
I8 K6 3.765253 1_555
I8 K0 3.765253 1_555
I9 Pr2 3.194697 1_555
I9 K7 3.608903 1_455
I9 K1 3.608903 1_455
I9 K0 3.624336 1_555
I9 K6 3.624336 1_545
I10 Pr3 3.194697 1_554
I10 K4 3.608903 1_555
I10 K2 3.608903 1_555
I10 K3 3.624336 1_545
I10 K5 3.624336 1_555
I11 Pr0 3.194697 1_555
I11 K3 3.608903 1_655
I11 K5 3.608903 1_655
I11 K2 3.624336 1_565
I11 K4 3.624336 1_555
I12 Pr1 3.210765 1_545
I12 Pr3 3.302648 1_554
I12 K2 3.788275 1_555
I12 K3 3.908399 1_645
I13 Pr3 3.212504 1_555
I13 K0 3.680086 1_555
I13 K6 3.680086 1_545
I13 K1 3.765253 1_555
I13 K7 3.765253 1_555
I14 Pr2 3.212504 1_655
I14 K3 3.680086 1_645
I14 K5 3.680086 1_655
I14 K2 3.765253 1_555
I14 K4 3.765253 1_555
I15 Pr1 3.212504 1_555
I15 K2 3.680086 1_565
I15 K4 3.680086 1_555
I15 K5 3.765253 1_555
I15 K3 3.765253 1_555
I16 Pr0 3.210765 1_555
I16 Pr2 3.302648 1_655
I16 K1 3.788275 1_555
I16 K0 3.908399 1_555
I17 Pr3 3.210765 1_555
I17 Pr1 3.302648 1_556
I17 K0 3.788275 1_555
I17 K1 3.908399 1_455
I18 Pr2 3.210765 1_565
I18 Pr0 3.302648 1_455
I18 K3 3.788275 1_555
I18 K2 3.908399 1_565
I19 Pr2 3.210765 1_555
I19 Pr0 3.302648 1_455
I19 K5 3.788275 1_555
I19 K4 3.908399 1_555
