# generated using pymatgen
data_NdCl2
_symmetry_space_group_name_H-M   'P 1'
_cell_length_a   3.60158800
_cell_length_b   8.76235700
_cell_length_c   10.08942500
_cell_angle_alpha   90.00000000
_cell_angle_beta   90.00000000
_cell_angle_gamma   90.00000000
_symmetry_Int_Tables_number   1
_chemical_formula_structural   NdCl2
_chemical_formula_sum   'Nd4 Cl8'
_cell_volume   318.40610813
_cell_formula_units_Z   4
loop_
 _symmetry_equiv_pos_site_id
 _symmetry_equiv_pos_as_xyz
  1  'x, y, z'
loop_
 _atom_site_type_symbol
 _atom_site_label
 _atom_site_symmetry_multiplicity
 _atom_site_fract_x
 _atom_site_fract_y
 _atom_site_fract_z
 _atom_site_occupancy
  Nd  Nd0  1  0.25000000  0.12763700  0.17890600  1
  Nd  Nd1  1  0.75000000  0.87236300  0.82109400  1
  Nd  Nd2  1  0.25000000  0.37236300  0.67890600  1
  Nd  Nd3  1  0.75000000  0.62763700  0.32109400  1
  Cl  Cl0  1  0.25000000  0.45011000  0.16167700  1
  Cl  Cl1  1  0.75000000  0.54989000  0.83832300  1
  Cl  Cl2  1  0.25000000  0.04989000  0.66167700  1
  Cl  Cl3  1  0.75000000  0.95011000  0.33832300  1
  Cl  Cl4  1  0.25000000  0.83298200  0.04695300  1
  Cl  Cl5  1  0.75000000  0.16701800  0.95304700  1
  Cl  Cl6  1  0.25000000  0.66701800  0.54695300  1
  Cl  Cl7  1  0.75000000  0.33298200  0.45304700  1
loop_
_geom_bond_atom_site_label_1
_geom_bond_atom_site_label_2
_geom_bond_distance
_geom_bond_site_symmetry_2
Cl0 Nd0 2.830965 1_555
Cl0 Nd3 2.872219 1_455
Cl0 Nd3 2.872219 1_555
Cl1 Nd1 2.830965 1_555
Cl1 Nd2 2.872219 1_655
Cl1 Nd2 2.872219 1_555
Cl2 Nd2 2.830965 1_555
Cl2 Nd1 2.872219 1_545
Cl2 Nd1 2.872219 1_445
Cl3 Nd3 2.830965 1_555
Cl3 Nd0 2.872219 1_565
Cl3 Nd0 2.872219 1_665
Cl4 Nd0 2.904910 1_565
Cl4 Nd1 2.924860 1_454
Cl4 Nd1 2.924860 1_554
Cl5 Nd1 2.904910 1_545
Cl5 Nd0 2.924860 1_556
Cl5 Nd0 2.924860 1_656
Cl6 Nd2 2.904910 1_555
Cl6 Nd3 2.924860 1_455
Cl6 Nd3 2.924860 1_555
Cl7 Nd3 2.904910 1_555
Cl7 Nd2 2.924860 1_655
Cl7 Nd2 2.924860 1_555
