# generated using pymatgen
data_Na4YInSi(PO6)2
_symmetry_space_group_name_H-M   'P 1'
_cell_length_a   9.35150499
_cell_length_b   9.36380950
_cell_length_c   23.08369498
_cell_angle_alpha   89.96486385
_cell_angle_beta   90.18164144
_cell_angle_gamma   120.00291318
_symmetry_Int_Tables_number   1
_chemical_formula_structural   Na4YInSi(PO6)2
_chemical_formula_sum   'Na24 Y6 In6 Si6 P12 O72'
_cell_volume   1750.47064733
_cell_formula_units_Z   6
loop_
 _symmetry_equiv_pos_site_id
 _symmetry_equiv_pos_as_xyz
  1  'x, y, z'
loop_
 _atom_site_type_symbol
 _atom_site_label
 _atom_site_symmetry_multiplicity
 _atom_site_fract_x
 _atom_site_fract_y
 _atom_site_fract_z
 _atom_site_occupancy
  Na  Na0  1  0.64293003  0.00848730  0.25049579  1
  Na  Na1  1  0.35954056  0.36365866  0.24722642  1
  Na  Na2  1  0.99608915  0.62446620  0.24877691  1
  Na  Na3  1  0.63392691  0.64188297  0.75007104  1
  Na  Na4  1  0.99719807  0.36062526  0.75320012  1
  Na  Na5  1  0.37192997  0.99580002  0.75161453  1
  Na  Na6  1  0.30366067  0.32895870  0.58108541  1
  Na  Na7  1  0.04152152  0.70424623  0.57961283  1
  Na  Na8  1  0.65822578  0.96611749  0.58650115  1
  Na  Na9  1  0.29451139  0.95750186  0.07964315  1
  Na  Na10  1  0.67021532  0.69679543  0.08069060  1
  Na  Na11  1  0.03379295  0.34039439  0.08634046  1
  Na  Na12  1  0.97041263  0.67091959  0.92044932  1
  Na  Na13  1  0.69607195  0.03379339  0.91293253  1
  Na  Na14  1  0.33339868  0.29522600  0.91671087  1
  Na  Na15  1  0.96798992  0.30821285  0.41292442  1
  Na  Na16  1  0.32758701  0.02502618  0.42146000  1
  Na  Na17  1  0.70555226  0.66646061  0.41712971  1
  Na  Na18  1  0.00713456  0.99493819  0.50014765  1
  Na  Na19  1  0.00344315  0.99277532  0.99825233  1
  Na  Na20  1  0.66359561  0.32335593  0.83484792  1
  Na  Na21  1  0.67895538  0.33851123  0.33166970  1
  Na  Na22  1  0.32170278  0.65885637  0.16516297  1
  Na  Na23  1  0.34060045  0.67819080  0.66670982  1
  Y  Y0  1  0.00068485  0.00131626  0.34821220  1
  Y  Y1  1  0.99914377  0.99888769  0.65258956  1
  Y  Y2  1  0.00076007  -0.00009531  0.14935718  1
  Y  Y3  1  0.66353705  0.32539501  0.68281847  1
  Y  Y4  1  0.66578288  0.33192633  0.48515610  1
  Y  Y5  1  0.32593843  0.66337271  0.31722426  1
  In  In0  1  0.00096458  0.00009341  0.84947748  1
  In  In1  1  0.67397112  0.33572848  0.17992440  1
  In  In2  1  0.66651870  0.33298198  0.98388558  1
  In  In3  1  0.32787902  0.66936717  0.01426328  1
  In  In4  1  0.33140388  0.67127773  0.51493259  1
  In  In5  1  0.33809319  0.67521093  0.81999336  1
  Si  Si0  1  0.99543392  0.30177729  0.24836139  1
  Si  Si1  1  0.69888260  0.99592081  0.75298565  1
  Si  Si2  1  0.36144724  0.02482214  0.58202391  1
  Si  Si3  1  0.96485558  0.62751742  0.08089590  1
  Si  Si4  1  0.33332965  0.96846525  0.91686045  1
  Si  Si5  1  0.03127212  0.66718122  0.41767594  1
  P  P0  1  0.30718214  0.00664236  0.24851554  1
  P  P1  1  0.69809408  0.69515355  0.24870534  1
  P  P2  1  0.29801524  0.30333382  0.75281489  1
  P  P3  1  0.00209944  0.70079806  0.75261930  1
  P  P4  1  0.97304876  0.33674440  0.58298188  1
  P  P5  1  0.66233667  0.63390199  0.58270906  1
  P  P6  1  0.66219328  0.03483641  0.08190893  1
  P  P7  1  0.37478092  0.33755338  0.08210993  1
  P  P8  1  0.62773904  0.66502116  0.91751543  1
  P  P9  1  0.03885244  0.37048657  0.91624636  1
  P  P10  1  0.63202951  0.96265269  0.41763962  1
  P  P11  1  0.33381550  0.37106612  0.41834464  1
  O  O0  1  0.22601476  0.03113610  0.30320695  1
  O  O1  1  0.80645507  0.77516063  0.30322342  1
  O  O2  1  0.96731883  0.19028178  0.30665819  1
  O  O3  1  0.22015424  0.19105648  0.80646232  1
  O  O4  1  0.97452097  0.78207789  0.80677195  1
  O  O5  1  0.81816918  0.02951350  0.80998801  1
  O  O6  1  0.77844771  0.96627326  0.69438533  1
  O  O7  1  0.19294403  0.22401488  0.69774045  1
  O  O8  1  0.03175509  0.80794665  0.69806010  1
  O  O9  1  0.78158772  0.80300460  0.19488569  1
  O  O10  1  0.02496697  0.21539216  0.19170946  1
  O  O11  1  0.19522567  0.97446153  0.19509350  1
  O  O12  1  0.89182908  0.36554218  0.63684556  1
  O  O13  1  0.47631721  0.11192124  0.63958842  1
  O  O14  1  0.63861936  0.52787293  0.63726541  1
  O  O15  1  0.88576940  0.51713981  0.13982930  1
  O  O16  1  0.62935138  0.11016742  0.13682579  1
  O  O17  1  0.47956097  0.36299726  0.13774144  1
  O  O18  1  0.45160652  0.30576511  0.02787086  1
  O  O19  1  0.84775597  0.54500808  0.02354499  1
  O  O20  1  0.69160042  0.14306855  0.02765440  1
  O  O21  1  0.44426509  0.13943912  0.52484885  1
  O  O22  1  0.69121044  0.55366264  0.52880609  1
  O  O23  1  0.86526626  0.31059077  0.52879950  1
  O  O24  1  0.54714466  0.69265819  0.97209754  1
  O  O25  1  0.14797294  0.44745066  0.97098892  1
  O  O26  1  0.29608484  0.85278697  0.97466029  1
  O  O27  1  0.55280462  0.85405610  0.47195865  1
  O  O28  1  0.30983495  0.45313568  0.47299499  1
  O  O29  1  0.14606481  0.69752692  0.47553304  1
  O  O30  1  0.11457954  0.63916989  0.35986131  1
  O  O31  1  0.52788875  0.88295763  0.36270900  1
  O  O32  1  0.36007668  0.47649771  0.36366733  1
  O  O33  1  0.11874438  0.47822498  0.86163301  1
  O  O34  1  0.37058990  0.89037499  0.85917839  1
  O  O35  1  0.51928285  0.63327373  0.86267268  1
  O  O36  1  0.01531567  0.83480223  0.41494879  1
  O  O37  1  0.80656140  0.98215889  0.41371343  1
  O  O38  1  0.17613719  0.19844558  0.41382389  1
  O  O39  1  0.01977195  0.19536816  0.91204610  1
  O  O40  1  0.16453753  0.98595321  0.91176640  1
  O  O41  1  0.80183756  0.82335498  0.91295517  1
  O  O42  1  0.98702977  0.17902810  0.58827709  1
  O  O43  1  0.17673174  0.00547746  0.58614571  1
  O  O44  1  0.81677022  0.80846707  0.58717558  1
  O  O45  1  0.98536291  0.81337524  0.08413100  1
  O  O46  1  0.81957113  0.01899902  0.08720741  1
  O  O47  1  0.19923461  0.18311354  0.08666752  1
  O  O48  1  0.68246547  0.16398480  0.75005435  1
  O  O49  1  0.47431290  0.32666990  0.74719750  1
  O  O50  1  0.84389907  0.52914179  0.74685876  1
  O  O51  1  0.67696160  0.51976374  0.24415142  1
  O  O52  1  0.82466312  0.31448540  0.24574112  1
  O  O53  1  0.47753469  0.16719930  0.24270027  1
  O  O54  1  0.64689917  0.50905932  0.92165039  1
  O  O55  1  0.86469841  0.35473058  0.92083045  1
  O  O56  1  0.50185477  0.15453285  0.92194189  1
  O  O57  1  0.64758775  0.13539323  0.42213432  1
  O  O58  1  0.48862148  0.35144362  0.42187766  1
  O  O59  1  0.84696248  0.50065399  0.41977532  1
  O  O60  1  0.36178550  0.49716782  0.07691455  1
  O  O61  1  0.14962232  0.64125397  0.07855049  1
  O  O62  1  0.50806663  0.85832968  0.07705735  1
  O  O63  1  0.35170711  0.84311418  0.58019264  1
  O  O64  1  0.50250215  0.64546637  0.57713229  1
  O  O65  1  0.14834875  0.49051908  0.57847205  1
  O  O66  1  0.33135071  0.85480753  0.25360563  1
  O  O67  1  0.52658227  0.68190940  0.25358760  1
  O  O68  1  0.16277261  0.48591526  0.25076815  1
  O  O69  1  0.30897524  0.47427289  0.75861534  1
  O  O70  1  0.15658748  0.67929090  0.75733525  1
  O  O71  1  0.51452296  0.82620494  0.75583170  1
loop_
_geom_bond_atom_site_label_1
_geom_bond_atom_site_label_2
_geom_bond_distance
_geom_bond_site_symmetry_2
Na0 O52 2.498220 1_555
Na0 O66 2.524617 1_545
Na0 O53 2.632492 1_555
Na0 O67 2.685716 1_545
Na0 O16 2.814845 1_555
Na0 O31 2.828060 1_545
Na0 O2 2.931583 1_555
Na1 O51 2.571917 1_555
Na1 O53 2.577523 1_555
Na1 O67 2.585712 1_555
Na1 O68 2.609761 1_555
Na1 O17 2.769846 1_555
Na1 O32 2.887779 1_555
Na1 O10 2.998598 1_555
Na1 O0 3.006833 1_555
Na2 O68 2.477266 1_655
Na2 O52 2.519107 1_555
Na2 O51 2.636432 1_555
Na2 O15 2.710877 1_555
Na2 O30 2.766211 1_655
Na2 O66 2.780155 1_655
Na3 O71 2.484356 1_555
Na3 O49 2.556921 1_555
Na3 O69 2.640091 1_555
Na3 O50 2.655113 1_555
Na3 O35 2.800540 1_555
Na3 O14 2.823699 1_555
Na3 O6 2.933619 1_555
Na4 O69 2.558050 1_655
Na4 O48 2.576276 1_555
Na4 O70 2.585734 1_655
Na4 O50 2.612896 1_555
Na4 O33 2.739216 1_655
Na4 O12 2.866272 1_555
Na4 O5 2.991973 1_555
Na4 O7 2.997457 1_655
Na5 O48 2.518210 1_565
Na5 O71 2.535013 1_555
Na5 O70 2.624657 1_555
Na5 O34 2.669203 1_555
Na5 O49 2.749469 1_565
Na5 O13 2.788105 1_565
Na6 O65 2.568750 1_555
Na6 O42 2.571268 1_455
Na6 O64 2.595937 1_555
Na6 O43 2.646178 1_555
Na6 O28 2.740663 1_555
Na6 O7 2.878520 1_555
Na6 O21 2.985061 1_555
Na6 O14 3.017474 1_555
Na7 O43 2.451566 1_565
Na7 O63 2.516482 1_555
Na7 O29 2.609321 1_555
Na7 O65 2.646429 1_555
Na7 O44 2.730221 1_455
Na7 O8 2.919012 1_555
Na8 O63 2.501981 1_555
Na8 O44 2.562481 1_555
Na8 O64 2.609318 1_555
Na8 O42 2.701751 1_565
Na8 O6 2.728825 1_555
Na8 O27 2.831317 1_555
Na8 O13 2.932148 1_565
Na9 O45 2.507936 1_455
Na9 O61 2.567658 1_555
Na9 O62 2.590308 1_555
Na9 O26 2.617643 1_554
Na9 O47 2.677112 1_565
Na9 O11 2.855395 1_555
Na10 O60 2.535249 1_555
Na10 O45 2.581584 1_555
Na10 O46 2.619341 1_565
Na10 O62 2.624310 1_555
Na10 O24 2.747179 1_554
Na10 O9 2.823553 1_555
Na11 O61 2.467996 1_555
Na11 O47 2.615587 1_555
Na11 O46 2.653555 1_455
Na11 O60 2.666644 1_555
Na11 O10 2.682192 1_555
Na11 O25 2.859979 1_554
Na11 O15 2.912766 1_455
Na12 O40 2.585277 1_655
Na12 O41 2.607832 1_555
Na12 O55 2.610775 1_555
Na12 O54 2.620182 1_555
Na12 O19 2.651549 1_556
Na12 O4 2.815678 1_555
Na12 O26 2.921106 1_655
Na13 O56 2.583870 1_555
Na13 O41 2.609650 1_545
Na13 O55 2.609710 1_555
Na13 O39 2.621601 1_655
Na13 O5 2.648655 1_555
Na13 O20 2.847553 1_556
Na13 O34 2.915089 1_545
Na14 O56 2.511166 1_555
Na14 O40 2.513776 1_545
Na14 O39 2.596767 1_555
Na14 O54 2.597031 1_555
Na14 O3 2.739082 1_555
Na14 O18 2.772939 1_556
Na15 O59 2.567922 1_555
Na15 O57 2.606899 1_555
Na15 O38 2.616540 1_655
Na15 O37 2.644129 1_545
Na15 O2 2.689437 1_555
Na15 O23 2.848813 1_555
Na15 O30 2.956491 1_655
Na16 O36 2.553136 1_545
Na16 O21 2.617578 1_555
Na16 O57 2.632510 1_555
Na16 O38 2.640454 1_555
Na16 O58 2.647041 1_555
Na16 O0 2.897338 1_555
Na16 O29 2.940488 1_545
Na17 O59 2.493123 1_555
Na17 O36 2.512512 1_655
Na17 O37 2.616262 1_555
Na17 O58 2.616285 1_555
Na17 O22 2.763395 1_555
Na17 O1 2.809260 1_555
Na18 O36 2.498305 1_555
Na18 O43 2.507923 1_565
Na18 O38 2.665182 1_565
Na18 O44 2.676454 1_455
Na18 O37 2.695446 1_455
Na18 O42 2.734266 1_465
Na19 O40 2.524815 1_555
Na19 O45 2.548417 1_456
Na19 O41 2.633843 1_455
Na19 O39 2.699928 1_565
Na19 O47 2.722425 1_566
Na19 O46 2.771042 1_466
Na20 O48 2.521608 1_555
Na20 O56 2.540233 1_555
Na20 O55 2.643280 1_555
Na20 O49 2.694441 1_555
Na20 O54 2.709393 1_555
Na20 O50 2.729301 1_555
Na21 O52 2.483139 1_555
Na21 O59 2.551050 1_555
Na21 O51 2.643762 1_555
Na21 O53 2.701245 1_555
Na21 O57 2.739592 1_555
Na21 O58 2.785358 1_555
Na22 O61 2.515714 1_555
Na22 O68 2.518713 1_555
Na22 O60 2.675577 1_555
Na22 O66 2.716752 1_555
Na22 O62 2.724838 1_555
Na22 O67 2.728714 1_555
Na23 O63 2.494265 1_555
Na23 O71 2.554689 1_555
Na23 O64 2.673291 1_555
Na23 O65 2.700129 1_555
Na23 O70 2.716279 1_555
Na23 O69 2.769215 1_555
In0 O5 2.071158 1_455
In0 O40 2.147832 1_545
In0 O4 2.167152 1_445
In0 O3 2.174866 1_555
In0 O39 2.267257 1_555
In0 O41 2.299091 1_445
In1 O15 2.076058 1_555
In1 O52 2.144772 1_555
In1 O16 2.177949 1_555
In1 O17 2.184334 1_555
In1 O53 2.253802 1_555
In1 O51 2.263452 1_555
In2 O19 2.068697 1_556
In2 O56 2.150246 1_555
In2 O18 2.152988 1_556
In2 O20 2.156768 1_556
In2 O54 2.261388 1_555
In2 O55 2.287797 1_555
In3 O26 2.093088 1_554
In3 O61 2.150963 1_555
In3 O25 2.154513 1_554
In3 O24 2.182779 1_554
In3 O62 2.253247 1_555
In3 O60 2.301654 1_555
In4 O29 2.075412 1_555
In4 O63 2.142445 1_555
In4 O27 2.160338 1_555
In4 O28 2.177012 1_555
In4 O64 2.247615 1_555
In4 O65 2.249826 1_555
In5 O34 2.087568 1_555
In5 O71 2.143543 1_555
In5 O35 2.156426 1_555
In5 O33 2.181791 1_555
In5 O70 2.241360 1_555
In5 O69 2.260577 1_555
O0 P0 1.550204 1_555
O0 Y0 2.241100 1_555
O1 P1 1.551039 1_555
O1 Y0 2.237437 1_665
O2 Si0 1.641961 1_555
O2 Y0 2.167151 1_655
O3 P2 1.551650 1_555
O4 P3 1.551738 1_655
O5 Si1 1.647720 1_545
O6 Si1 1.635217 1_555
O6 Y1 2.159969 1_555
O7 P2 1.548142 1_555
O7 Y1 2.232618 1_445
O8 P3 1.546645 1_555
O8 Y1 2.220903 1_455
O9 P1 1.545639 1_555
O9 Y2 2.221882 1_665
O10 Si0 1.633329 1_455
O10 Y2 2.150046 1_555
O11 P0 1.544155 1_565
O11 Y2 2.213441 1_565
O12 P4 1.551386 1_555
O12 Y3 2.244204 1_555
O13 Si2 1.643443 1_555
O13 Y3 2.132640 1_555
O14 P5 1.549491 1_555
O14 Y3 2.278713 1_555
O15 Si3 1.645021 1_555
O16 P6 1.555358 1_555
O17 P7 1.557215 1_555
O18 P7 1.546731 1_555
O19 Si3 1.641537 1_555
O20 P6 1.546974 1_555
O21 Si2 1.633109 1_555
O21 Y4 2.157630 1_555
O22 P5 1.546554 1_555
O22 Y4 2.211358 1_555
O23 P4 1.544584 1_555
O23 Y4 2.212556 1_555
O24 P8 1.556912 1_555
O25 P9 1.554021 1_555
O26 Si4 1.642760 1_555
O27 P10 1.551142 1_555
O28 P11 1.551662 1_555
O29 Si5 1.644122 1_555
O30 Si5 1.633458 1_555
O30 Y5 2.119146 1_555
O31 P10 1.542615 1_555
O31 Y5 2.236819 1_555
O32 P11 1.544654 1_555
O32 Y5 2.206240 1_555
O33 P9 1.554308 1_555
O34 Si4 1.639504 1_555
O35 P8 1.552581 1_555
O36 Si5 1.650403 1_555
O36 Y0 2.243242 1_565
O37 P10 1.551844 1_555
O37 Y0 2.303309 1_665
O38 P11 1.553526 1_555
O38 Y0 2.313439 1_555
O39 P9 1.561273 1_555
O40 Si4 1.670174 1_555
O41 P8 1.564205 1_555
O42 P4 1.551073 1_555
O42 Y1 2.291079 1_545
O43 Si2 1.647350 1_555
O43 Y1 2.242271 1_445
O44 P5 1.551322 1_555
O44 Y1 2.305162 1_555
O45 Si3 1.654514 1_555
O45 Y2 2.255834 1_665
O46 P6 1.555641 1_555
O46 Y2 2.290935 1_655
O47 P7 1.556921 1_555
O47 Y2 2.304704 1_555
O48 Si1 1.657157 1_545
O48 Y3 2.233274 1_555
O49 P2 1.556804 1_555
O49 Y3 2.318990 1_555
O50 P3 1.552675 1_655
O50 Y3 2.332274 1_555
O51 P1 1.556536 1_555
O52 Si0 1.660585 1_555
O53 P0 1.556273 1_555
O54 P8 1.560572 1_555
O55 P9 1.563996 1_655
O56 Si4 1.669152 1_545
O57 P10 1.553391 1_545
O57 Y4 2.284859 1_555
O58 P11 1.549648 1_555
O58 Y4 2.280113 1_555
O59 Si5 1.648375 1_655
O59 Y4 2.231769 1_555
O60 P7 1.563431 1_555
O61 Si3 1.668307 1_455
O62 P6 1.561545 1_565
O63 Si2 1.658368 1_565
O64 P5 1.556611 1_555
O65 P4 1.552988 1_455
O66 P0 1.551534 1_565
O66 Y5 2.297604 1_555
O67 P1 1.550084 1_555
O67 Y5 2.323798 1_555
O68 Si0 1.651063 1_455
O68 Y5 2.212531 1_555
O69 P2 1.557752 1_555
O70 P3 1.558686 1_555
O71 Si1 1.662129 1_555
