# generated using pymatgen
data_Cs2Pd(IBr2)2
_symmetry_space_group_name_H-M   'P 1'
_cell_length_a   7.54932971
_cell_length_b   7.54932971
_cell_length_c   8.92546272
_cell_angle_alpha   55.65624154
_cell_angle_beta   55.65624154
_cell_angle_gamma   68.19863224
_symmetry_Int_Tables_number   1
_chemical_formula_structural   Cs2Pd(IBr2)2
_chemical_formula_sum   'Cs2 Pd1 I2 Br4'
_cell_volume   345.72899788
_cell_formula_units_Z   1
loop_
 _symmetry_equiv_pos_site_id
 _symmetry_equiv_pos_as_xyz
  1  'x, y, z'
loop_
 _atom_site_type_symbol
 _atom_site_label
 _atom_site_symmetry_multiplicity
 _atom_site_fract_x
 _atom_site_fract_y
 _atom_site_fract_z
 _atom_site_occupancy
  Cs  Cs0  1  0.24576900  0.24576900  0.27588700  1
  Cs  Cs1  1  0.75423100  0.75423100  0.72411300  1
  Pd  Pd0  1  0.00000000  0.00000000  0.00000000  1
  I  I0  1  0.65691300  0.65691300  0.34916100  1
  I  I1  1  0.34308700  0.34308700  0.65083900  1
  Br  Br0  1  0.80849000  0.22292000  0.18146400  1
  Br  Br1  1  0.19151000  0.77708000  0.81853600  1
  Br  Br2  1  0.22292000  0.80849000  0.18146400  1
  Br  Br3  1  0.77708000  0.19151000  0.81853600  1
loop_
_geom_bond_atom_site_label_1
_geom_bond_atom_site_label_2
_geom_bond_distance
_geom_bond_site_symmetry_2
Cs0 I1 4.269510 1_555
Cs0 I0 4.311021 1_545
Cs0 I0 4.311021 1_455
Cs1 I0 4.269510 1_555
Cs1 I1 4.311021 1_565
Cs1 I1 4.311021 1_655
I0 I1 2.872235 1_555
I0 Pd0 3.145956 1_665
I1 Pd0 3.145956 1_556
Br0 Pd0 2.484302 1_655
Br0 Cs0 3.790389 1_555
Br0 Cs1 3.887354 1_554
Br0 Cs0 3.919666 1_655
Br0 Cs1 3.955691 1_545
Br1 Pd0 2.484302 1_566
Br1 Cs1 3.790389 1_555
Br1 Cs0 3.887354 1_556
Br1 Cs1 3.919666 1_455
Br1 Cs0 3.955691 1_565
Br2 Pd0 2.484302 1_565
Br2 Cs0 3.790389 1_555
Br2 Cs1 3.887354 1_554
Br2 Cs0 3.919666 1_565
Br2 Cs1 3.955691 1_455
Br3 Pd0 2.484302 1_656
Br3 Cs1 3.790389 1_555
Br3 Cs0 3.887354 1_556
Br3 Cs1 3.919666 1_545
Br3 Cs0 3.955691 1_655
