# generated using pymatgen
data_Na4Ca3HfSiS5O24
_symmetry_space_group_name_H-M   'P 1'
_cell_length_a   9.20664683
_cell_length_b   9.23725746
_cell_length_c   23.79098693
_cell_angle_alpha   89.93117456
_cell_angle_beta   90.17723383
_cell_angle_gamma   119.98339356
_symmetry_Int_Tables_number   1
_chemical_formula_structural   Na4Ca3HfSiS5O24
_chemical_formula_sum   'Na12 Ca9 Hf3 Si3 S15 O72'
_cell_volume   1752.50053687
_cell_formula_units_Z   3
loop_
 _symmetry_equiv_pos_site_id
 _symmetry_equiv_pos_as_xyz
  1  'x, y, z'
loop_
 _atom_site_type_symbol
 _atom_site_label
 _atom_site_symmetry_multiplicity
 _atom_site_fract_x
 _atom_site_fract_y
 _atom_site_fract_z
 _atom_site_occupancy
  Na  Na0  1  0.36069038  0.36081602  0.25035706  1
  Na  Na1  1  0.32319119  0.34954089  0.58926481  1
  Na  Na2  1  0.02325439  0.69429957  0.58064042  1
  Na  Na3  1  0.00528905  0.68601360  0.92059057  1
  Na  Na4  1  0.69647354  0.02662080  0.91089958  1
  Na  Na5  1  0.29947525  0.28840387  0.92015997  1
  Na  Na6  1  0.96032090  0.97643074  0.49939294  1
  Na  Na7  1  0.02344581  0.02041803  0.00108207  1
  Na  Na8  1  0.66467984  0.32210347  0.82514109  1
  Na  Na9  1  0.68416977  0.32722727  0.32975761  1
  Na  Na10  1  0.32992670  0.68197134  0.16714902  1
  Na  Na11  1  0.38481678  0.68168455  0.66407880  1
  Ca  Ca0  1  0.99373890  0.99171291  0.35077528  1
  Ca  Ca1  1  0.00237276  0.00304240  0.84556720  1
  Ca  Ca2  1  0.97693588  0.98804461  0.65015585  1
  Ca  Ca3  1  0.99365129  0.99331132  0.14612529  1
  Ca  Ca4  1  0.66497888  0.33452699  0.68603087  1
  Ca  Ca5  1  0.67523805  0.33104292  0.18445070  1
  Ca  Ca6  1  0.32501052  0.66035667  0.01887244  1
  Ca  Ca7  1  0.34707899  0.67267932  0.51311815  1
  Ca  Ca8  1  0.33541243  0.67782464  0.32113929  1
  Hf  Hf0  1  0.66755840  0.32635636  0.98119937  1
  Hf  Hf1  1  0.66558443  0.33942508  0.48315152  1
  Hf  Hf2  1  0.32118200  0.66886655  0.82093037  1
  Si  Si0  1  0.66639831  0.62963537  0.58323804  1
  Si  Si1  1  0.03391755  0.36961534  0.91822779  1
  Si  Si2  1  0.33669231  0.96611141  0.91828278  1
  S  S0  1  0.29904835  0.00262407  0.24964124  1
  S  S1  1  0.69111214  0.69302306  0.24988579  1
  S  S2  1  0.00753956  0.30097913  0.25084907  1
  S  S3  1  0.30761527  0.32047233  0.75286507  1
  S  S4  1  0.01006501  0.69433284  0.75258781  1
  S  S5  1  0.67853967  0.98690269  0.75515774  1
  S  S6  1  0.95871198  0.33470920  0.58000409  1
  S  S7  1  0.37265622  0.04275322  0.58104570  1
  S  S8  1  0.95477109  0.62819666  0.08016399  1
  S  S9  1  0.67202864  0.04190155  0.07999018  1
  S  S10  1  0.37683568  0.33152720  0.08184001  1
  S  S11  1  0.62089511  0.65698967  0.91698189  1
  S  S12  1  0.64250630  0.98611196  0.41866600  1
  S  S13  1  0.33970903  0.35780951  0.41860031  1
  S  S14  1  0.01963758  0.65759023  0.42154222  1
  O  O0  1  0.21394317  0.01709162  0.30013617  1
  O  O1  1  0.78646290  0.77511757  0.30100982  1
  O  O2  1  0.99252466  0.20361097  0.30172874  1
  O  O3  1  0.21912644  0.21990314  0.80258566  1
  O  O4  1  0.99137329  0.77615364  0.80277041  1
  O  O5  1  0.77243856  0.00263896  0.80728615  1
  O  O6  1  0.76346801  0.97021037  0.70504741  1
  O  O7  1  0.21215883  0.24523640  0.70023792  1
  O  O8  1  0.02929362  0.79108494  0.70076106  1
  O  O9  1  0.77416485  0.78802697  0.19874812  1
  O  O10  1  0.02182630  0.21680946  0.19987741  1
  O  O11  1  0.20238055  0.98844151  0.19830752  1
  O  O12  1  0.87883548  0.34575274  0.63157406  1
  O  O13  1  0.47012260  0.10969502  0.63254061  1
  O  O14  1  0.64447954  0.51672880  0.63755136  1
  O  O15  1  0.86543651  0.53517657  0.13046241  1
  O  O16  1  0.66159282  0.12724261  0.13036583  1
  O  O17  1  0.46378453  0.33428041  0.13421727  1
  O  O18  1  0.47895307  0.32831534  0.03106452  1
  O  O19  1  0.85686141  0.53110109  0.02781017  1
  O  O20  1  0.67611371  0.14452674  0.02771241  1
  O  O21  1  0.47194385  0.14453896  0.53080737  1
  O  O22  1  0.67504326  0.51573778  0.52772620  1
  O  O23  1  0.84940887  0.31462220  0.52974287  1
  O  O24  1  0.55777674  0.69462499  0.96681548  1
  O  O25  1  0.16410529  0.43504558  0.96919750  1
  O  O26  1  0.30025515  0.84748188  0.97098468  1
  O  O27  1  0.56031830  0.88488853  0.46858090  1
  O  O28  1  0.32183026  0.44165188  0.46858296  1
  O  O29  1  0.11507429  0.67588236  0.47346903  1
  O  O30  1  0.10185871  0.63574807  0.37188876  1
  O  O31  1  0.54246661  0.91265685  0.36725557  1
  O  O32  1  0.36904666  0.45898080  0.36710104  1
  O  O33  1  0.12754277  0.50207311  0.86346086  1
  O  O34  1  0.37525424  0.87471908  0.86280161  1
  O  O35  1  0.50854178  0.62818633  0.86689905  1
  O  O36  1  0.99185638  0.80077329  0.41656140  1
  O  O37  1  0.81348812  0.01014069  0.41516392  1
  O  O38  1  0.19472493  0.18838508  0.41461951  1
  O  O39  1  0.98144181  0.17661637  0.90647387  1
  O  O40  1  0.17902810  0.99725496  0.90968003  1
  O  O41  1  0.79381913  0.79474472  0.90633378  1
  O  O42  1  0.98933237  0.19151883  0.58012049  1
  O  O43  1  0.21593313  0.05415501  0.58212883  1
  O  O44  1  0.84539232  0.80647827  0.58085302  1
  O  O45  1  0.96354520  0.79209202  0.07647882  1
  O  O46  1  0.82908698  0.03718428  0.07737248  1
  O  O47  1  0.21167225  0.17787189  0.07734068  1
  O  O48  1  0.65457835  0.13348476  0.75125546  1
  O  O49  1  0.47715226  0.33945027  0.75192690  1
  O  O50  1  0.86703083  0.52192960  0.74991213  1
  O  O51  1  0.66734468  0.51930931  0.24819548  1
  O  O52  1  0.86028227  0.32630527  0.24858825  1
  O  O53  1  0.46616630  0.16217045  0.24806178  1
  O  O54  1  0.62597117  0.49569820  0.92279197  1
  O  O55  1  0.85564242  0.37708488  0.92730698  1
  O  O56  1  0.51175985  0.15503029  0.92496018  1
  O  O57  1  0.65827569  0.15671486  0.42479888  1
  O  O58  1  0.49582809  0.34042504  0.42544273  1
  O  O59  1  0.84879439  0.49770659  0.42530876  1
  O  O60  1  0.36563575  0.48461481  0.07961061  1
  O  O61  1  0.12242502  0.64424282  0.08046067  1
  O  O62  1  0.52357526  0.87447007  0.07760270  1
  O  O63  1  0.32723744  0.86600715  0.57411802  1
  O  O64  1  0.49622117  0.64245656  0.57879292  1
  O  O65  1  0.12147525  0.49369742  0.57438427  1
  O  O66  1  0.32439799  0.85598628  0.25269451  1
  O  O67  1  0.51723885  0.67029447  0.25214683  1
  O  O68  1  0.16688246  0.46797515  0.25366028  1
  O  O69  1  0.32564848  0.49217771  0.75878520  1
  O  O70  1  0.17081468  0.68616417  0.75817576  1
  O  O71  1  0.50997010  0.82866684  0.75785000  1
loop_
_geom_bond_atom_site_label_1
_geom_bond_atom_site_label_2
_geom_bond_distance
_geom_bond_site_symmetry_2
Na0 O68 2.436428 1_555
Na0 O51 2.446686 1_555
Na0 O53 2.468710 1_555
Na0 O67 2.476530 1_555
Na0 O32 2.911600 1_555
Na0 O10 2.962714 1_555
Na0 O17 2.974218 1_555
Na0 O0 3.003715 1_555
Na1 O64 2.369284 1_555
Na1 O43 2.399163 1_555
Na1 O42 2.671700 1_455
Na1 O65 2.795348 1_555
Na1 O14 2.805670 1_555
Na1 O7 2.823099 1_555
Na1 O28 2.995349 1_555
Na2 O44 2.334797 1_455
Na2 O63 2.436736 1_555
Na2 O65 2.439231 1_555
Na2 O29 2.720794 1_555
Na2 O43 2.881622 1_565
Na3 O55 2.477436 1_455
Na3 O40 2.509185 1_555
Na3 O41 2.619908 1_455
Na3 O26 2.640558 1_555
Na3 O33 2.815607 1_555
Na3 O19 2.912089 1_456
Na3 O4 2.943746 1_455
Na4 O39 2.276439 1_555
Na4 O56 2.536040 1_555
Na4 O5 2.604149 1_555
Na4 O41 2.706026 1_545
Na4 O34 2.803494 1_545
Na4 O55 2.835128 1_555
Na4 O24 2.981903 1_545
Na4 O20 3.026423 1_556
Na5 O40 2.354546 1_545
Na5 O25 2.539556 1_555
Na5 O39 2.592014 1_455
Na5 O54 2.636720 1_555
Na5 O56 2.784891 1_555
Na5 O3 2.880206 1_555
Na6 O44 2.384357 1_555
Na6 O37 2.518429 1_565
Na6 O36 2.661320 1_555
Na6 O42 2.680122 1_565
Na6 O43 2.866025 1_665
Na6 O38 2.890077 1_665
Na7 O47 2.424403 1_555
Na7 O45 2.608549 1_445
Na7 O46 2.611127 1_455
Na7 O40 2.674487 1_544
Na7 O39 2.800367 1_454
Na8 O48 2.445122 1_555
Na8 O49 2.509524 1_555
Na8 O50 2.580069 1_555
Na8 O56 2.800667 1_555
Na8 O55 2.888071 1_555
Na8 O54 2.946337 1_555
Na9 O52 2.528119 1_555
Na9 O53 2.656136 1_555
Na9 O51 2.683668 1_555
Na9 O57 2.696263 1_555
Na9 O59 2.747079 1_555
Na9 O58 2.905197 1_555
Na10 O66 2.611275 1_555
Na10 O67 2.690470 1_555
Na10 O61 2.708591 1_555
Na10 O68 2.727723 1_555
Na10 O62 2.779352 1_555
Na10 O60 2.895040 1_555
Na11 O64 2.384613 1_555
Na11 O71 2.564322 1_555
Na11 O69 2.735473 1_555
Na11 O63 2.940585 1_555
Na11 O70 3.000693 1_555
Na11 O65 3.035800 1_555
Ca0 O0 2.270663 1_665
Ca0 O2 2.282378 1_565
Ca0 O1 2.285173 1_555
Ca0 O37 2.329861 1_565
Ca0 O36 2.350259 1_555
Ca0 O38 2.379250 1_665
Ca1 O39 2.241355 1_455
Ca1 O40 2.246324 1_545
Ca1 O3 2.247878 1_555
Ca1 O4 2.287313 1_445
Ca1 O5 2.300223 1_455
Ca1 O41 2.407660 1_445
Ca2 O44 2.227606 1_555
Ca2 O6 2.299311 1_555
Ca2 O8 2.420674 1_655
Ca2 O42 2.470064 1_565
Ca2 O43 2.551560 1_665
Ca2 O7 2.569476 1_665
Ca3 O11 2.303842 1_655
Ca3 O9 2.329504 1_555
Ca3 O10 2.331070 1_665
Ca3 O46 2.394162 1_565
Ca3 O45 2.401412 1_555
Ca3 O47 2.491341 1_665
Ca4 O14 2.123677 1_555
Ca4 O12 2.318891 1_555
Ca4 O13 2.327952 1_555
Ca4 O50 2.353107 1_555
Ca4 O49 2.354934 1_555
Ca4 O48 2.383721 1_555
Ca5 O15 2.231490 1_555
Ca5 O16 2.232469 1_555
Ca5 O17 2.294084 1_555
Ca5 O52 2.300201 1_555
Ca5 O53 2.332366 1_555
Ca5 O51 2.337283 1_555
Ca6 O26 2.173742 1_554
Ca6 O25 2.199162 1_554
Ca6 O61 2.320931 1_555
Ca6 O60 2.336923 1_555
Ca6 O24 2.358802 1_554
Ca6 O62 2.362849 1_555
Ca7 O64 2.184827 1_555
Ca7 O27 2.231794 1_555
Ca7 O28 2.288875 1_555
Ca7 O29 2.346006 1_555
Ca7 O63 2.379614 1_555
Ca7 O65 2.398494 1_555
Ca8 O31 2.324399 1_555
Ca8 O30 2.326372 1_555
Ca8 O66 2.351515 1_555
Ca8 O67 2.373815 1_555
Ca8 O68 2.393359 1_555
Ca8 O32 2.448748 1_555
Hf0 O55 2.015760 1_555
Hf0 O56 2.019047 1_555
Hf0 O20 2.044273 1_556
Hf0 O18 2.113551 1_556
Hf0 O19 2.131355 1_556
Hf0 O54 2.261525 1_555
Hf1 O22 1.909581 1_555
Hf1 O58 2.080580 1_555
Hf1 O59 2.102656 1_555
Hf1 O21 2.122347 1_555
Hf1 O23 2.126203 1_555
Hf1 O57 2.161441 1_555
Hf2 O33 1.959067 1_555
Hf2 O34 1.977688 1_555
Hf2 O70 2.092557 1_555
Hf2 O71 2.213283 1_555
Hf2 O69 2.219169 1_555
Hf2 O35 2.224395 1_555
O0 S0 1.478456 1_555
O1 S1 1.468095 1_555
O2 S2 1.472230 1_655
O3 S3 1.474060 1_555
O4 S4 1.469581 1_655
O5 S5 1.474701 1_545
O6 S5 1.477546 1_555
O7 S3 1.485865 1_555
O8 S4 1.480189 1_555
O9 S1 1.472230 1_555
O10 S2 1.482508 1_555
O11 S0 1.475766 1_565
O12 S6 1.461972 1_555
O13 S7 1.459079 1_555
O14 Si0 1.608159 1_555
O15 S8 1.464242 1_555
O16 S9 1.464831 1_555
O17 S10 1.472344 1_555
O18 S10 1.542411 1_555
O19 S8 1.534939 1_555
O20 S9 1.552025 1_555
O21 S7 1.514326 1_555
O22 Si0 1.716140 1_555
O23 S6 1.511096 1_555
O24 S11 1.439216 1_555
O25 Si1 1.594074 1_555
O26 Si2 1.586603 1_555
O27 S12 1.467237 1_555
O28 S13 1.473699 1_555
O29 S14 1.473826 1_555
O30 S14 1.472402 1_555
O31 S12 1.474813 1_555
O32 S13 1.481382 1_555
O33 Si1 1.699044 1_555
O34 Si2 1.698870 1_555
O35 S11 1.509486 1_555
O36 S14 1.471848 1_655
O37 S12 1.478431 1_545
O38 S13 1.466832 1_555
O39 Si1 1.621543 1_655
O40 Si2 1.626981 1_555
O41 S11 1.481516 1_555
O42 S6 1.483799 1_555
O43 S7 1.498609 1_555
O44 Si0 1.642287 1_555
O45 S8 1.477744 1_555
O46 S9 1.469754 1_555
O47 S10 1.476625 1_555
O48 S5 1.479448 1_545
O49 S3 1.481301 1_555
O50 S4 1.475796 1_655
O51 S1 1.507818 1_555
O52 S2 1.487346 1_655
O53 S0 1.508150 1_555
O54 S11 1.519909 1_555
O55 Si1 1.691377 1_655
O56 Si2 1.690034 1_545
O57 S12 1.515777 1_545
O58 S13 1.532123 1_555
O59 S14 1.530344 1_655
O60 S10 1.469244 1_555
O61 S8 1.475049 1_455
O62 S9 1.466357 1_565
O63 S7 1.478318 1_565
O64 Si0 1.632286 1_555
O65 S6 1.490425 1_455
O66 S0 1.486650 1_565
O67 S1 1.508009 1_555
O68 S2 1.507964 1_555
O69 S3 1.516663 1_555
O70 S4 1.524480 1_555
O71 S5 1.510706 1_555
