# generated using pymatgen
data_Na6Ta3In(SiO4)6
_symmetry_space_group_name_H-M   'P 1'
_cell_length_a   9.10560437
_cell_length_b   9.10694462
_cell_length_c   22.40666908
_cell_angle_alpha   90.00674288
_cell_angle_beta   90.03211594
_cell_angle_gamma   119.91584315
_symmetry_Int_Tables_number   1
_chemical_formula_structural   Na6Ta3In(SiO4)6
_chemical_formula_sum   'Na18 Ta9 In3 Si18 O72'
_cell_volume   1610.48601036
_cell_formula_units_Z   3
loop_
 _symmetry_equiv_pos_site_id
 _symmetry_equiv_pos_as_xyz
  1  'x, y, z'
loop_
 _atom_site_type_symbol
 _atom_site_label
 _atom_site_symmetry_multiplicity
 _atom_site_fract_x
 _atom_site_fract_y
 _atom_site_fract_z
 _atom_site_occupancy
  Na  Na0  1  0.00975649  0.00095678  0.49980569  1
  Na  Na1  1  0.98569905  0.98694387  0.99711515  1
  Na  Na2  1  0.66667082  0.33240085  0.83336954  1
  Na  Na3  1  0.66678419  0.33294904  0.32507114  1
  Na  Na4  1  0.35118037  0.66734710  0.16155796  1
  Na  Na5  1  0.31716559  0.65045108  0.66431179  1
  Na  Na6  1  0.64130593  0.01692138  0.24353267  1
  Na  Na7  1  0.37405774  0.35829094  0.24337993  1
  Na  Na8  1  0.98545061  0.62432880  0.24303267  1
  Na  Na9  1  0.62996388  0.62002396  0.74516503  1
  Na  Na10  1  0.98715638  0.36771262  0.74585915  1
  Na  Na11  1  0.38222006  0.01102275  0.74602286  1
  Na  Na12  1  0.66216742  0.97063717  0.58768756  1
  Na  Na13  1  0.31174182  0.97580436  0.08226889  1
  Na  Na14  1  0.02511601  0.33958679  0.08236977  1
  Na  Na15  1  0.96287448  0.28582833  0.41119422  1
  Na  Na16  1  0.32418110  0.03606882  0.41122551  1
  Na  Na17  1  0.71329219  0.67807497  0.41216122  1
  Ta  Ta0  1  0.00078236  0.00089741  0.85775105  1
  Ta  Ta1  1  0.00321646  0.99956409  0.64357355  1
  Ta  Ta2  1  0.99766002  0.99746861  0.14596807  1
  Ta  Ta3  1  0.66737167  0.33466666  0.97775266  1
  Ta  Ta4  1  0.66634824  0.33454675  0.48215862  1
  Ta  Ta5  1  0.33594355  0.66635942  0.01699101  1
  Ta  Ta6  1  0.33067333  0.66338614  0.52237292  1
  Ta  Ta7  1  0.33291154  0.66654404  0.31074376  1
  Ta  Ta8  1  0.33379941  0.66685381  0.81294969  1
  In  In0  1  0.99951671  0.99968211  0.35312475  1
  In  In1  1  0.66773389  0.33537451  0.68536759  1
  In  In2  1  0.66534924  0.33430877  0.17989416  1
  Si  Si0  1  0.29414453  -0.00037303  0.25216044  1
  Si  Si1  1  0.70646088  0.70739214  0.25306252  1
  Si  Si2  1  0.00156208  0.29449738  0.25167185  1
  Si  Si3  1  0.28312041  0.28844027  0.75098603  1
  Si  Si4  1  0.00406465  0.71539099  0.75166415  1
  Si  Si5  1  0.71067992  0.99515065  0.75021297  1
  Si  Si6  1  0.96308268  0.33417651  0.58614036  1
  Si  Si7  1  0.37106846  0.03956106  0.58468819  1
  Si  Si8  1  0.66761745  0.62878436  0.58587504  1
  Si  Si9  1  0.96107870  0.62869347  0.08284577  1
  Si  Si10  1  0.66548629  0.03679850  0.08324766  1
  Si  Si11  1  0.37255488  0.33604174  0.08413493  1
  Si  Si12  1  0.62503396  0.66376435  0.91474995  1
  Si  Si13  1  0.03823046  0.37526174  0.91584836  1
  Si  Si14  1  0.33547982  0.96045169  0.91628891  1
  Si  Si15  1  0.61969276  0.95934735  0.41803956  1
  Si  Si16  1  0.34085607  0.38097754  0.41650128  1
  Si  Si17  1  0.04133063  0.66066054  0.41694343  1
  O  O0  1  0.22082624  0.03068183  0.31364109  1
  O  O1  1  0.80701688  0.77582543  0.31547102  1
  O  O2  1  0.96853751  0.18986688  0.31323239  1
  O  O3  1  0.18307111  0.17177773  0.80865008  1
  O  O4  1  0.99056091  0.81776285  0.80910789  1
  O  O5  1  0.83079712  0.00998158  0.80670287  1
  O  O6  1  0.79967215  0.97068079  0.68934849  1
  O  O7  1  0.16074557  0.19207679  0.69264926  1
  O  O8  1  0.02636078  0.83597138  0.69300363  1
  O  O9  1  0.81444087  0.83876758  0.19725414  1
  O  O10  1  0.02692408  0.19425678  0.19374676  1
  O  O11  1  0.16969228  0.97663250  0.19401218  1
  O  O12  1  0.89575947  0.36711155  0.64814413  1
  O  O13  1  0.48684743  0.10502743  0.64413548  1
  O  O14  1  0.63260309  0.52736021  0.64756183  1
  O  O15  1  0.90046725  0.51828060  0.14353684  1
  O  O16  1  0.61743880  0.09772926  0.14439509  1
  O  O17  1  0.46661138  0.36781781  0.14740399  1
  O  O18  1  0.47672019  0.30473030  0.03033523  1
  O  O19  1  0.83477535  0.52472440  0.02729671  1
  O  O20  1  0.69748290  0.17096532  0.02894329  1
  O  O21  1  0.47336153  0.16244734  0.52613328  1
  O  O22  1  0.68603135  0.52423376  0.52758976  1
  O  O23  1  0.83285379  0.30979071  0.52899902  1
  O  O24  1  0.51816499  0.68148254  0.97041932  1
  O  O25  1  0.15454271  0.47399216  0.97419295  1
  O  O26  1  0.31462747  0.84206688  0.97429614  1
  O  O27  1  0.51973285  0.84489925  0.47566914  1
  O  O28  1  0.32992586  0.48981039  0.47206287  1
  O  O29  1  0.16373432  0.67570116  0.47213796  1
  O  O30  1  0.13366921  0.63568897  0.35631063  1
  O  O31  1  0.49935985  0.86194473  0.35837036  1
  O  O32  1  0.36298838  0.49695553  0.35589199  1
  O  O33  1  0.13871970  0.49481514  0.85690786  1
  O  O34  1  0.35727703  0.86169208  0.85717864  1
  O  O35  1  0.50832781  0.64197737  0.85467515  1
  O  O36  1  0.02246341  0.82763524  0.41825582  1
  O  O37  1  0.80656460  0.97983140  0.41840058  1
  O  O38  1  0.17404445  0.19537105  0.41819848  1
  O  O39  1  0.01928172  0.18739608  0.91145273  1
  O  O40  1  0.16689053  0.97990110  0.91165485  1
  O  O41  1  0.81171648  0.83307094  0.91143679  1
  O  O42  1  0.96506832  0.15415309  0.58654304  1
  O  O43  1  0.18654008  0.02829395  0.58801732  1
  O  O44  1  0.83894225  0.81797366  0.58663901  1
  O  O45  1  0.98198104  0.81929069  0.08917754  1
  O  O46  1  0.84335932  0.03067267  0.08951335  1
  O  O47  1  0.18306379  0.15927378  0.08809325  1
  O  O48  1  0.68985557  0.16182386  0.75136222  1
  O  O49  1  0.46904269  0.30643895  0.74998606  1
  O  O50  1  0.83740081  0.52895606  0.75156829  1
  O  O51  1  0.67727827  0.51889631  0.24595203  1
  O  O52  1  0.84227745  0.32485528  0.24568815  1
  O  O53  1  0.48416535  0.15789240  0.24707949  1
  O  O54  1  0.63903929  0.49310027  0.92338711  1
  O  O55  1  0.85164126  0.35866190  0.92234311  1
  O  O56  1  0.50563976  0.14605238  0.92382970  1
  O  O57  1  0.63183467  0.14662773  0.42161134  1
  O  O58  1  0.51626429  0.37012250  0.42120283  1
  O  O59  1  0.85570868  0.48549715  0.42263493  1
  O  O60  1  0.33264518  0.49224396  0.07402389  1
  O  O61  1  0.15591059  0.66141442  0.07354857  1
  O  O62  1  0.50159580  0.84698800  0.07244051  1
  O  O63  1  0.34761573  0.85000675  0.57438062  1
  O  O64  1  0.50843224  0.66488894  0.57604374  1
  O  O65  1  0.15362479  0.49417140  0.57477991  1
  O  O66  1  0.29528175  0.81668878  0.25354185  1
  O  O67  1  0.52294650  0.70715400  0.25342546  1
  O  O68  1  0.18405801  0.47860910  0.25334347  1
  O  O69  1  0.29621485  0.47703766  0.75400451  1
  O  O70  1  0.17998423  0.70267020  0.75403083  1
  O  O71  1  0.52132277  0.82019215  0.75416119  1
loop_
_geom_bond_atom_site_label_1
_geom_bond_atom_site_label_2
_geom_bond_distance
_geom_bond_site_symmetry_2
Na0 O36 2.454676 1_545
Na0 O38 2.465388 1_555
Na0 O43 2.481216 1_555
Na0 O44 2.529923 1_445
Na0 O37 2.535414 1_445
Na0 O42 2.540808 1_455
Na1 O41 2.437324 1_555
Na1 O40 2.549897 1_655
Na1 O45 2.556705 1_556
Na1 O39 2.560234 1_665
Na1 O46 2.577281 1_566
Na1 O47 2.651440 1_666
Na2 O48 2.482146 1_555
Na2 O50 2.491732 1_555
Na2 O49 2.521239 1_555
Na2 O55 2.542193 1_555
Na2 O54 2.576916 1_555
Na2 O56 2.580791 1_555
Na3 O53 2.390061 1_555
Na3 O52 2.417311 1_555
Na3 O51 2.420552 1_555
Na3 O58 2.664340 1_555
Na3 O57 2.668835 1_555
Na3 O59 2.698065 1_555
Na4 O60 2.479664 1_555
Na4 O67 2.499097 1_555
Na4 O62 2.511667 1_555
Na4 O68 2.625851 1_555
Na4 O61 2.636925 1_555
Na4 O66 2.654758 1_555
Na5 O65 2.479836 1_555
Na5 O69 2.504016 1_555
Na5 O70 2.534341 1_555
Na5 O64 2.595695 1_555
Na5 O63 2.634189 1_555
Na5 O71 2.650881 1_555
Na6 O53 2.352498 1_555
Na6 O16 2.383806 1_555
Na6 O52 2.469110 1_555
Na6 O67 2.477238 1_545
Na6 O66 2.751879 1_545
Na7 O17 2.295989 1_555
Na7 O51 2.395310 1_555
Na7 O68 2.476856 1_555
Na7 O53 2.483507 1_555
Na7 O67 2.772306 1_555
Na8 O52 2.365352 1_555
Na8 O15 2.398695 1_555
Na8 O51 2.472474 1_555
Na8 O66 2.480522 1_655
Na8 O68 2.734654 1_655
Na8 O30 2.851556 1_655
Na9 O14 2.348484 1_555
Na9 O50 2.416271 1_555
Na9 O49 2.478037 1_555
Na9 O71 2.478131 1_555
Na9 O69 2.650254 1_555
Na9 O35 2.740695 1_555
Na10 O12 2.340899 1_555
Na10 O48 2.407651 1_555
Na10 O50 2.455514 1_555
Na10 O69 2.479671 1_655
Na10 O70 2.660588 1_655
Na10 O33 2.799612 1_655
Na11 O49 2.397746 1_555
Na11 O48 2.430947 1_555
Na11 O13 2.458006 1_555
Na11 O70 2.480211 1_545
Na11 O71 2.617870 1_545
Na11 O34 2.792423 1_545
Na12 O42 2.408981 1_565
Na12 O64 2.427399 1_555
Na12 O63 2.521858 1_555
Na12 O6 2.598600 1_555
Na12 O44 2.599355 1_555
Na12 O13 2.756237 1_565
Na12 O27 2.794198 1_555
Na12 O23 2.983229 1_565
Na13 O47 2.476786 1_565
Na13 O61 2.489253 1_555
Na13 O62 2.537019 1_555
Na13 O45 2.608300 1_455
Na13 O26 2.714484 1_554
Na13 O16 2.798440 1_565
Na13 O11 2.820533 1_555
Na13 O18 2.845728 1_565
Na14 O60 2.434467 1_555
Na14 O46 2.456706 1_455
Na14 O61 2.562454 1_555
Na14 O47 2.671499 1_555
Na14 O25 2.706911 1_554
Na14 O15 2.767398 1_455
Na14 O10 2.828847 1_555
Na14 O20 2.849083 1_455
Na15 O2 2.372558 1_555
Na15 O37 2.421092 1_545
Na15 O38 2.445445 1_655
Na15 O59 2.468692 1_555
Na15 O57 2.633817 1_555
Na16 O0 2.370796 1_555
Na16 O36 2.444302 1_545
Na16 O38 2.444683 1_555
Na16 O57 2.470104 1_555
Na16 O58 2.656341 1_555
Na16 O21 2.869646 1_555
Na16 O31 2.997697 1_545
Na17 O1 2.336510 1_555
Na17 O37 2.442246 1_555
Na17 O36 2.444173 1_655
Na17 O58 2.471203 1_555
Na17 O59 2.660978 1_555
Na17 O22 2.892832 1_555
In0 O0 2.087546 1_665
In0 O2 2.089447 1_565
In0 O1 2.091399 1_555
In0 O37 2.223715 1_555
In0 O36 2.226003 1_655
In0 O38 2.235926 1_665
In1 O14 2.105881 1_555
In1 O12 2.119826 1_555
In1 O13 2.125667 1_555
In1 O49 2.228568 1_555
In1 O50 2.230507 1_555
In1 O48 2.245660 1_555
In2 O17 2.108854 1_555
In2 O15 2.116273 1_555
In2 O16 2.127588 1_555
In2 O51 2.201264 1_555
In2 O52 2.216282 1_555
In2 O53 2.220082 1_555
O0 Si0 1.616375 1_555
O1 Si1 1.615975 1_555
O2 Si2 1.617404 1_655
O3 Si3 1.632283 1_555
O3 Ta0 1.952751 1_555
O4 Si4 1.629483 1_655
O4 Ta0 1.955194 1_665
O5 Si5 1.633307 1_545
O5 Ta0 1.958742 1_655
O6 Si5 1.657542 1_555
O6 Ta1 2.017961 1_655
O7 Si3 1.656230 1_555
O7 Ta1 1.956981 1_545
O8 Si4 1.659205 1_555
O8 Ta1 1.950385 1_555
O9 Si1 1.670400 1_555
O9 Ta2 1.946834 1_555
O10 Si2 1.667812 1_555
O10 Ta2 1.987905 1_445
O11 Si0 1.669483 1_565
O11 Ta2 1.985776 1_455
O12 Si6 1.606287 1_555
O13 Si7 1.616304 1_555
O14 Si8 1.603847 1_555
O15 Si9 1.616350 1_555
O16 Si10 1.618381 1_555
O17 Si11 1.605707 1_555
O18 Si11 1.644713 1_555
O18 Ta3 2.001614 1_554
O19 Si9 1.637170 1_555
O19 Ta3 1.979326 1_554
O20 Si10 1.644392 1_555
O20 Ta3 2.005272 1_554
O21 Si7 1.674330 1_555
O21 Ta4 1.941757 1_555
O22 Si8 1.673155 1_555
O22 Ta4 1.934703 1_555
O23 Si6 1.682354 1_555
O23 Ta4 1.946853 1_555
O24 Si12 1.639154 1_555
O24 Ta5 1.906567 1_556
O25 Si13 1.639360 1_555
O25 Ta5 1.956659 1_556
O26 Si14 1.638344 1_555
O26 Ta5 1.955327 1_556
O27 Si15 1.624065 1_555
O27 Ta6 1.988759 1_555
O28 Si16 1.624929 1_555
O28 Ta6 1.938660 1_555
O29 Si17 1.623771 1_555
O29 Ta6 1.938647 1_555
O30 Si17 1.672222 1_555
O30 Ta7 1.976476 1_555
O31 Si15 1.674384 1_555
O31 Ta7 1.977396 1_555
O32 Si16 1.669976 1_555
O32 Ta7 1.976261 1_555
O33 Si13 1.665773 1_555
O33 Ta8 1.951027 1_555
O34 Si14 1.667509 1_555
O34 Ta8 1.948653 1_555
O35 Si12 1.663911 1_555
O35 Ta8 1.951519 1_555
O36 Si17 1.613463 1_555
O37 Si15 1.616666 1_555
O38 Si16 1.613963 1_555
O39 Si13 1.634652 1_555
O39 Ta0 2.018624 1_555
O40 Si14 1.633936 1_555
O40 Ta0 2.017310 1_565
O41 Si12 1.630418 1_555
O41 Ta0 2.031007 1_665
O42 Si6 1.648581 1_555
O42 Ta1 2.055067 1_645
O43 Si7 1.633242 1_555
O43 Ta1 1.992811 1_545
O44 Si8 1.649681 1_555
O44 Ta1 2.032172 1_655
O45 Si9 1.655173 1_555
O45 Ta2 2.010188 1_555
O46 Si10 1.654066 1_555
O46 Ta2 2.021748 1_545
O47 Si11 1.675152 1_555
O47 Ta2 2.055390 1_445
O48 Si5 1.621009 1_545
O49 Si3 1.617607 1_555
O50 Si4 1.617305 1_655
O51 Si1 1.608627 1_555
O52 Si2 1.611761 1_655
O53 Si0 1.611488 1_555
O54 Si12 1.633122 1_555
O54 Ta3 2.000899 1_555
O55 Si13 1.635466 1_655
O55 Ta3 2.010263 1_555
O56 Si14 1.635111 1_545
O56 Ta3 2.013312 1_555
O57 Si15 1.655116 1_545
O57 Ta4 2.081009 1_555
O58 Si16 1.652034 1_555
O58 Ta4 2.068255 1_555
O59 Si17 1.651863 1_655
O59 Ta4 2.068904 1_555
O60 Si11 1.650025 1_555
O60 Ta5 2.025169 1_555
O61 Si9 1.659101 1_455
O61 Ta5 2.055245 1_555
O62 Si10 1.643211 1_565
O62 Ta5 2.011783 1_555
O63 Si7 1.646531 1_565
O63 Ta6 2.002006 1_555
O64 Si8 1.653076 1_555
O64 Ta6 2.010470 1_555
O65 Si6 1.636175 1_455
O65 Ta6 1.969054 1_555
O66 Si0 1.671487 1_565
O66 Ta7 2.024126 1_555
O67 Si1 1.669953 1_555
O67 Ta7 2.035863 1_555
O68 Si2 1.671783 1_555
O68 Ta7 2.025886 1_555
O69 Si3 1.662664 1_555
O69 Ta8 2.063643 1_555
O70 Si4 1.663483 1_555
O70 Ta8 2.065087 1_555
O71 Si5 1.667154 1_555
O71 Ta8 2.055576 1_555
