# generated using pymatgen
data_Na10Hf5Mg3Si6(SO8)6
_symmetry_space_group_name_H-M   'P 1'
_cell_length_a   18.04198958
_cell_length_b   9.00939628
_cell_length_c   22.88831194
_cell_angle_alpha   90.06640803
_cell_angle_beta   89.83901004
_cell_angle_gamma   119.79450426
_symmetry_Int_Tables_number   1
_chemical_formula_structural   Na10Hf5Mg3Si6(SO8)6
_chemical_formula_sum   'Na30 Hf15 Mg9 Si18 S18 O144'
_cell_volume   3228.63062440
_cell_formula_units_Z   3
loop_
 _symmetry_equiv_pos_site_id
 _symmetry_equiv_pos_as_xyz
  1  'x, y, z'
loop_
 _atom_site_type_symbol
 _atom_site_label
 _atom_site_symmetry_multiplicity
 _atom_site_fract_x
 _atom_site_fract_y
 _atom_site_fract_z
 _atom_site_occupancy
  Na  Na0  1  0.31741550  0.99918835  0.24651267  1
  Na  Na1  1  0.19517602  0.37080753  0.24593255  1
  Na  Na2  1  0.68899672  0.36921263  0.24568903  1
  Na  Na3  1  0.99784588  0.64140929  0.25053743  1
  Na  Na4  1  0.31856184  0.61984458  0.75285796  1
  Na  Na5  1  0.81885772  0.62882762  0.74875794  1
  Na  Na6  1  0.99468362  0.36254947  0.75010374  1
  Na  Na7  1  0.49782486  0.37282876  0.74490678  1
  Na  Na8  1  0.18044631  0.00670266  0.74826479  1
  Na  Na9  1  0.68522631  0.00893465  0.74921178  1
  Na  Na10  1  0.64646589  0.34516501  0.57877874  1
  Na  Na11  1  0.32352337  0.68361380  0.08115671  1
  Na  Na12  1  0.82571072  0.68561430  0.08618345  1
  Na  Na13  1  0.16531396  0.31555089  0.92114930  1
  Na  Na14  1  0.99141034  0.30693939  0.41933488  1
  Na  Na15  1  0.16458693  0.03033781  0.41786105  1
  Na  Na16  1  0.66310560  0.03076085  0.41469216  1
  Na  Na17  1  0.84405125  0.66778572  0.41682583  1
  Na  Na18  1  0.00140009  0.00354324  0.49941169  1
  Na  Na19  1  0.49549951  0.00895058  0.49631684  1
  Na  Na20  1  0.00548188  0.01868306  0.99973719  1
  Na  Na21  1  0.50214044  0.01666330  0.99656701  1
  Na  Na22  1  0.34125555  0.35131586  0.83361466  1
  Na  Na23  1  0.83705153  0.33448145  0.82892632  1
  Na  Na24  1  0.33554324  0.35506025  0.32754106  1
  Na  Na25  1  0.83222924  0.33427688  0.33086665  1
  Na  Na26  1  0.16923565  0.66324874  0.16019173  1
  Na  Na27  1  0.66561473  0.66341265  0.16104845  1
  Na  Na28  1  0.16248507  0.66068746  0.66277538  1
  Na  Na29  1  0.66052822  0.66398635  0.66255778  1
  Hf  Hf0  1  0.00098054  0.99231260  0.35344383  1
  Hf  Hf1  1  0.99813211  0.00508476  0.84930658  1
  Hf  Hf2  1  0.50216548  0.99875537  0.85651441  1
  Hf  Hf3  1  0.00120652  0.00196238  0.65113813  1
  Hf  Hf4  1  0.50257305  0.00622621  0.64687499  1
  Hf  Hf5  1  0.00571948  0.99902854  0.14692292  1
  Hf  Hf6  1  0.50005940  0.00174294  0.14624255  1
  Hf  Hf7  1  0.33478303  0.34078082  0.97904902  1
  Hf  Hf8  1  0.82960838  0.32706174  0.98126524  1
  Hf  Hf9  1  0.33800230  0.33859704  0.48391043  1
  Hf  Hf10  1  0.83307061  0.33536442  0.47758274  1
  Hf  Hf11  1  0.17173104  0.66584809  0.31646714  1
  Hf  Hf12  1  0.67383924  0.67206905  0.31683226  1
  Hf  Hf13  1  0.15916664  0.64669488  0.81884368  1
  Hf  Hf14  1  0.65945624  0.65605715  0.81306404  1
  Mg  Mg0  1  0.49685979  0.99610174  0.35176515  1
  Mg  Mg1  1  0.33885629  0.34765987  0.68294746  1
  Mg  Mg2  1  0.83556576  0.33524257  0.68942347  1
  Mg  Mg3  1  0.32870267  0.34431763  0.18546482  1
  Mg  Mg4  1  0.82856012  0.33660086  0.18163184  1
  Mg  Mg5  1  0.16659291  0.64371317  0.01637626  1
  Mg  Mg6  1  0.65874804  0.64178340  0.01909747  1
  Mg  Mg7  1  0.16214470  0.65769195  0.51531096  1
  Mg  Mg8  1  0.66236456  0.65452908  0.51638548  1
  Si  Si0  1  0.15055638  0.00110492  0.25056322  1
  Si  Si1  1  0.35876471  0.70848559  0.25204901  1
  Si  Si2  1  0.85254090  0.70364795  0.24795706  1
  Si  Si3  1  0.14973779  0.29388483  0.74939722  1
  Si  Si4  1  0.64700783  0.28956805  0.74985906  1
  Si  Si5  1  0.00145130  0.70820336  0.75029442  1
  Si  Si6  1  0.49720442  0.70681159  0.74959464  1
  Si  Si7  1  0.85220808  0.99970900  0.74883087  1
  Si  Si8  1  0.48269874  0.33993088  0.58655432  1
  Si  Si9  1  0.18618652  0.33662753  0.08415705  1
  Si  Si10  1  0.68609148  0.33801287  0.08552313  1
  Si  Si11  1  0.31395961  0.67311462  0.91937689  1
  Si  Si12  1  0.01593533  0.36838461  0.92008378  1
  Si  Si13  1  0.52011889  0.37349690  0.91863931  1
  Si  Si14  1  0.81037359  0.95361885  0.42069052  1
  Si  Si15  1  0.16957401  0.37631933  0.41890962  1
  Si  Si16  1  0.65857217  0.36305095  0.41872835  1
  Si  Si17  1  0.02493715  0.66790435  0.41822590  1
  S  S0  1  0.64540728  0.99843935  0.25071178  1
  S  S1  1  0.99728870  0.28931166  0.24956490  1
  S  S2  1  0.49951520  0.29110441  0.25080138  1
  S  S3  1  0.35442307  0.00004186  0.75012081  1
  S  S4  1  0.98006074  0.33543785  0.58410628  1
  S  S5  1  0.18794485  0.03852096  0.58407982  1
  S  S6  1  0.68900045  0.03846448  0.58406271  1
  S  S7  1  0.33076639  0.62567032  0.58447853  1
  S  S8  1  0.83443993  0.62729905  0.58435054  1
  S  S9  1  0.48028324  0.62209196  0.08506570  1
  S  S10  1  0.98026243  0.62131231  0.08395687  1
  S  S11  1  0.33194839  0.04323616  0.08518756  1
  S  S12  1  0.83187931  0.04258578  0.08440705  1
  S  S13  1  0.81254718  0.66792757  0.91877789  1
  S  S14  1  0.16617003  0.95386388  0.91877020  1
  S  S15  1  0.66794257  0.95449937  0.91910094  1
  S  S16  1  0.31418296  0.95809781  0.41899621  1
  S  S17  1  0.52155108  0.66704167  0.41744171  1
  O  O0  1  0.10390862  0.03482961  0.30689480  1
  O  O1  1  0.60836507  0.02975813  0.30361654  1
  O  O2  1  0.41435187  0.81145477  0.30670447  1
  O  O3  1  0.91145247  0.79741664  0.30591142  1
  O  O4  1  0.48753659  0.18665185  0.30259673  1
  O  O5  1  0.98572021  0.18926475  0.30348732  1
  O  O6  1  0.10455387  0.17488005  0.80738909  1
  O  O7  1  0.59929820  0.16421872  0.80430892  1
  O  O8  1  0.48251561  0.80198783  0.80469082  1
  O  O9  1  0.98420778  0.79830778  0.80644873  1
  O  O10  1  0.40891683  0.02955775  0.80166928  1
  O  O11  1  0.91515437  0.03483210  0.80482286  1
  O  O12  1  0.39345917  0.96661186  0.69765219  1
  O  O13  1  0.89752226  0.95905277  0.69315378  1
  O  O14  1  0.08275374  0.20554924  0.69468897  1
  O  O15  1  0.58447874  0.20739904  0.69188659  1
  O  O16  1  0.02037425  0.83643775  0.69382832  1
  O  O17  1  0.51510905  0.83237598  0.69279857  1
  O  O18  1  0.39928610  0.83267925  0.19221944  1
  O  O19  1  0.89684042  0.82356653  0.19021016  1
  O  O20  1  0.01303612  0.20724590  0.19842837  1
  O  O21  1  0.51779833  0.21211779  0.19810615  1
  O  O22  1  0.08325693  0.96444017  0.19611096  1
  O  O23  1  0.59112066  0.97702976  0.19839418  1
  O  O24  1  0.43554632  0.35228854  0.64427488  1
  O  O25  1  0.93721412  0.35319628  0.63620618  1
  O  O26  1  0.23769751  0.12180833  0.63666353  1
  O  O27  1  0.73986702  0.12410209  0.63643400  1
  O  O28  1  0.31825404  0.52276700  0.63711284  1
  O  O29  1  0.82294393  0.51883695  0.63583096  1
  O  O30  1  0.44052762  0.51727874  0.13649582  1
  O  O31  1  0.94155856  0.52160423  0.13763952  1
  O  O32  1  0.32553711  0.12517917  0.13888015  1
  O  O33  1  0.82324528  0.12658997  0.13638086  1
  O  O34  1  0.24384432  0.36276945  0.14099081  1
  O  O35  1  0.74338541  0.36560062  0.14302195  1
  O  O36  1  0.23155636  0.30413479  0.02531366  1
  O  O37  1  0.73540445  0.30836549  0.02861326  1
  O  O38  1  0.42503434  0.54618167  0.03207223  1
  O  O39  1  0.92255476  0.53785732  0.03256868  1
  O  O40  1  0.34760308  0.15142807  0.03281434  1
  O  O41  1  0.84684599  0.15205115  0.03122260  1
  O  O42  1  0.22925117  0.14784052  0.53022691  1
  O  O43  1  0.72875293  0.15175317  0.53101169  1
  O  O44  1  0.34429327  0.54009837  0.53202150  1
  O  O45  1  0.84578262  0.54254393  0.53057361  1
  O  O46  1  0.41996371  0.30955439  0.52859793  1
  O  O47  1  0.92671551  0.31203639  0.53041697  1
  O  O48  1  0.27400941  0.70311730  0.97692956  1
  O  O49  1  0.77429228  0.69546210  0.97059003  1
  O  O50  1  0.08004661  0.45930824  0.97195312  1
  O  O51  1  0.57927063  0.46359734  0.97254024  1
  O  O52  1  0.15442795  0.85059889  0.96892724  1
  O  O53  1  0.65772779  0.85297621  0.96978584  1
  O  O54  1  0.27254783  0.85280645  0.46973852  1
  O  O55  1  0.76698458  0.83184085  0.47476816  1
  O  O56  1  0.14815713  0.46015059  0.47274512  1
  O  O57  1  0.65208519  0.45234343  0.47667479  1
  O  O58  1  0.08623996  0.71368455  0.47276899  1
  O  O59  1  0.57473253  0.69543117  0.46869427  1
  O  O60  1  0.06140898  0.62824861  0.35748236  1
  O  O61  1  0.55994181  0.63654142  0.36371609  1
  O  O62  1  0.25907027  0.88337315  0.36447029  1
  O  O63  1  0.74954908  0.87644687  0.36136249  1
  O  O64  1  0.18216783  0.48553232  0.35777869  1
  O  O65  1  0.68205200  0.49140716  0.35983758  1
  O  O66  1  0.05682706  0.47845962  0.85759605  1
  O  O67  1  0.56185181  0.48840891  0.85765902  1
  O  O68  1  0.17893869  0.87940848  0.86285136  1
  O  O69  1  0.68154435  0.88211046  0.86353094  1
  O  O70  1  0.25453526  0.63692983  0.85883931  1
  O  O71  1  0.76135795  0.64279347  0.86449539  1
  O  O72  1  0.00806702  0.83119468  0.41053912  1
  O  O73  1  0.51267246  0.82047902  0.40966178  1
  O  O74  1  0.39951312  0.98206383  0.41001328  1
  O  O75  1  0.90697716  0.98553754  0.40850817  1
  O  O76  1  0.08260491  0.18602448  0.40896926  1
  O  O77  1  0.58368437  0.16789247  0.40791750  1
  O  O78  1  0.01224021  0.18110400  0.91132827  1
  O  O79  1  0.50986245  0.18409117  0.90763664  1
  O  O80  1  0.09050943  0.98019058  0.91129959  1
  O  O81  1  0.59191180  0.97700242  0.91198563  1
  O  O82  1  0.40979845  0.83298136  0.90944881  1
  O  O83  1  0.89988237  0.81812932  0.91122876  1
  O  O84  1  0.49162525  0.16070396  0.58765387  1
  O  O85  1  0.98706616  0.17592095  0.58731505  1
  O  O86  1  0.10117515  0.02514580  0.58707717  1
  O  O87  1  0.60284824  0.03069547  0.58816338  1
  O  O88  1  0.41045245  0.79596304  0.58894498  1
  O  O89  1  0.91353864  0.79829200  0.58765878  1
  O  O90  1  0.48390872  0.79538577  0.09094717  1
  O  O91  1  0.98091591  0.79224136  0.08804859  1
  O  O92  1  0.41106217  0.01986898  0.08973470  1
  O  O93  1  0.90955447  0.02011832  0.08841698  1
  O  O94  1  0.08894478  0.16111187  0.08942967  1
  O  O95  1  0.59103924  0.16183816  0.09147272  1
  O  O96  1  0.34339760  0.15004606  0.74313312  1
  O  O97  1  0.84360660  0.16776520  0.74224381  1
  O  O98  1  0.24150570  0.30633969  0.74176165  1
  O  O99  1  0.74064980  0.31284969  0.74158854  1
  O  O100  1  0.41534270  0.51664496  0.74583553  1
  O  O101  1  0.91878549  0.52192006  0.74256565  1
  O  O102  1  0.34241381  0.51651594  0.24610844  1
  O  O103  1  0.84567226  0.51512317  0.24623946  1
  O  O104  1  0.42296102  0.30473209  0.24078533  1
  O  O105  1  0.92329767  0.31348538  0.24175135  1
  O  O106  1  0.24550829  0.16181985  0.24532930  1
  O  O107  1  0.73162235  0.14955027  0.24276363  1
  O  O108  1  0.31700476  0.48995616  0.92280808  1
  O  O109  1  0.82149249  0.51081150  0.92431781  1
  O  O110  1  0.42296013  0.34763440  0.92448498  1
  O  O111  1  0.92057543  0.34866076  0.92460958  1
  O  O112  1  0.24335841  0.13056964  0.92231139  1
  O  O113  1  0.74520850  0.13114885  0.92336635  1
  O  O114  1  0.31796058  0.13004176  0.42388286  1
  O  O115  1  0.82228027  0.14816583  0.42553849  1
  O  O116  1  0.25078710  0.34004797  0.42477516  1
  O  O117  1  0.75090007  0.35459270  0.42482364  1
  O  O118  1  0.43413419  0.51151638  0.42402344  1
  O  O119  1  0.92772541  0.49852934  0.42557930  1
  O  O120  1  0.17967068  0.51028561  0.08064114  1
  O  O121  1  0.68392999  0.51573111  0.07893586  1
  O  O122  1  0.06607656  0.65192204  0.07571292  1
  O  O123  1  0.56710827  0.65373134  0.07664436  1
  O  O124  1  0.25737610  0.87182697  0.07860910  1
  O  O125  1  0.75684666  0.87176735  0.07573752  1
  O  O126  1  0.17969637  0.86861230  0.57683598  1
  O  O127  1  0.67804291  0.86996638  0.57608188  1
  O  O128  1  0.25608835  0.64801591  0.57581772  1
  O  O129  1  0.75799110  0.64356664  0.57858817  1
  O  O130  1  0.06532864  0.48758529  0.57842593  1
  O  O131  1  0.57895733  0.50138123  0.57967514  1
  O  O132  1  0.15219315  0.82090056  0.25705994  1
  O  O133  1  0.65063618  0.83875808  0.25527287  1
  O  O134  1  0.26007843  0.69260063  0.25585139  1
  O  O135  1  0.75482744  0.67852451  0.25487046  1
  O  O136  1  0.07677128  0.46214960  0.25478815  1
  O  O137  1  0.57798300  0.46425819  0.25613918  1
  O  O138  1  0.15794222  0.48532968  0.75484337  1
  O  O139  1  0.65598642  0.48032404  0.75677661  1
  O  O140  1  0.09161055  0.70219407  0.75595198  1
  O  O141  1  0.58679323  0.69861035  0.75618161  1
  O  O142  1  0.26826097  0.84453165  0.75633325  1
  O  O143  1  0.75987936  0.82727423  0.75880608  1
loop_
_geom_bond_atom_site_label_1
_geom_bond_atom_site_label_2
_geom_bond_distance
_geom_bond_site_symmetry_2
Na0 O106 2.391663 1_565
Na0 O134 2.430208 1_555
Na0 O104 2.451764 1_565
Na0 O132 2.600542 1_555
Na0 O32 2.686643 1_565
Na0 O18 2.857273 1_555
Na0 O62 2.895694 1_555
Na0 O4 2.964206 1_565
Na1 O102 2.305338 1_555
Na1 O106 2.463535 1_555
Na1 O134 2.540492 1_555
Na1 O34 2.568367 1_555
Na1 O136 2.650690 1_555
Na1 O64 2.812191 1_555
Na2 O135 2.435448 1_555
Na2 O107 2.454460 1_555
Na2 O103 2.454797 1_555
Na2 O137 2.550171 1_555
Na2 O35 2.550389 1_555
Na2 O65 2.860469 1_555
Na2 O21 2.898382 1_555
Na2 O1 2.967234 1_555
Na3 O103 2.395615 1_555
Na3 O132 2.432822 1_655
Na3 O105 2.574707 1_555
Na3 O136 2.632877 1_655
Na3 O60 2.733582 1_655
Na3 O31 2.791521 1_555
Na3 O22 2.817296 1_655
Na3 O3 2.858916 1_555
Na4 O100 2.355991 1_555
Na4 O98 2.464353 1_555
Na4 O138 2.525439 1_555
Na4 O142 2.598577 1_555
Na4 O70 2.720732 1_555
Na4 O28 2.788041 1_555
Na4 O8 2.835780 1_555
Na4 O12 2.997856 1_555
Na5 O101 2.433551 1_555
Na5 O99 2.475955 1_555
Na5 O143 2.503999 1_555
Na5 O139 2.559122 1_555
Na5 O29 2.780958 1_555
Na5 O71 2.867567 1_555
Na5 O13 2.878858 1_555
Na5 O9 2.909539 1_555
Na6 O97 2.406246 1_555
Na6 O101 2.433588 1_555
Na6 O138 2.583592 1_655
Na6 O140 2.668723 1_655
Na6 O66 2.691977 1_655
Na6 O25 2.793937 1_555
Na6 O11 2.851878 1_555
Na6 O14 2.890042 1_655
Na7 O100 2.410353 1_555
Na7 O96 2.497200 1_555
Na7 O24 2.531574 1_555
Na7 O139 2.532162 1_555
Na7 O141 2.564467 1_555
Na7 O67 2.809611 1_555
Na7 O15 2.905010 1_555
Na7 O10 2.982136 1_555
Na8 O98 2.359641 1_555
Na8 O140 2.399180 1_545
Na8 O96 2.559344 1_555
Na8 O142 2.642289 1_545
Na8 O26 2.755712 1_555
Na8 O16 2.803451 1_545
Na8 O6 2.836987 1_555
Na8 O68 2.858335 1_545
Na9 O99 2.409707 1_555
Na9 O141 2.461946 1_545
Na9 O97 2.484511 1_555
Na9 O143 2.595021 1_545
Na9 O27 2.772527 1_555
Na9 O69 2.843755 1_545
Na9 O7 2.844537 1_555
Na9 O17 2.963690 1_545
Na10 O131 2.273341 1_555
Na10 O129 2.429086 1_555
Na10 O84 2.447709 1_555
Na10 O57 2.512132 1_555
Na10 O87 2.545014 1_555
Na10 O15 2.846952 1_555
Na11 O120 2.268731 1_555
Na11 O124 2.512915 1_555
Na11 O90 2.558302 1_555
Na11 O48 2.586284 1_554
Na11 O92 2.637432 1_565
Na11 O34 2.857671 1_555
Na11 O18 2.884668 1_555
Na11 O38 2.896254 1_555
Na12 O121 2.241536 1_555
Na12 O91 2.468428 1_555
Na12 O125 2.546952 1_555
Na12 O93 2.615869 1_565
Na12 O19 2.699260 1_555
Na12 O35 2.820132 1_555
Na12 O49 2.822153 1_554
Na12 O39 2.937102 1_555
Na13 O108 2.384819 1_555
Na13 O78 2.413176 1_555
Na13 O80 2.636072 1_545
Na13 O112 2.663310 1_555
Na13 O36 2.694781 1_556
Na13 O50 2.713445 1_555
Na13 O6 2.866235 1_555
Na13 O70 2.893701 1_555
Na14 O76 2.393443 1_655
Na14 O119 2.507901 1_555
Na14 O75 2.526566 1_545
Na14 O115 2.652903 1_555
Na14 O56 2.744749 1_655
Na14 O47 2.804470 1_555
Na14 O5 2.837624 1_555
Na14 O60 2.888830 1_655
Na15 O116 2.432560 1_555
Na15 O114 2.452497 1_555
Na15 O72 2.487683 1_545
Na15 O76 2.502148 1_555
Na15 O58 2.776162 1_545
Na15 O0 2.776825 1_555
Na15 O42 2.807038 1_555
Na15 O62 2.894818 1_545
Na16 O77 2.316183 1_555
Na16 O73 2.420774 1_545
Na16 O115 2.532286 1_555
Na16 O117 2.546109 1_555
Na16 O1 2.728395 1_555
Na16 O63 2.827607 1_545
Na16 O43 2.899510 1_555
Na16 O59 2.899599 1_545
Na17 O117 2.471167 1_555
Na17 O75 2.508121 1_555
Na17 O72 2.571666 1_655
Na17 O119 2.633371 1_555
Na17 O3 2.804569 1_555
Na17 O55 2.811432 1_555
Na17 O45 2.845107 1_555
Na17 O65 2.858354 1_555
Na18 O76 2.594560 1_555
Na18 O72 2.596184 1_545
Na18 O85 2.629771 1_455
Na18 O86 2.641156 1_555
Na18 O75 2.646130 1_445
Na18 O89 2.662633 1_445
Na19 O84 2.516360 1_555
Na19 O77 2.529860 1_555
Na19 O74 2.561438 1_545
Na19 O73 2.724821 1_545
Na19 O88 2.756172 1_545
Na19 O87 2.802439 1_555
Na20 O78 2.465562 1_555
Na20 O94 2.493907 1_556
Na20 O80 2.660936 1_545
Na20 O93 2.667922 1_456
Na20 O91 2.747735 1_446
Na20 O83 2.755118 1_445
Na21 O79 2.496908 1_555
Na21 O82 2.600257 1_545
Na21 O95 2.632498 1_556
Na21 O81 2.656064 1_545
Na21 O92 2.697355 1_556
Na21 O90 2.846635 1_546
Na22 O100 2.460719 1_555
Na22 O108 2.539970 1_555
Na22 O110 2.562409 1_555
Na22 O98 2.667875 1_555
Na22 O96 2.763879 1_555
Na22 O112 2.773927 1_555
Na23 O97 2.524808 1_555
Na23 O101 2.539696 1_555
Na23 O99 2.596326 1_555
Na23 O111 2.628686 1_555
Na23 O113 2.783240 1_555
Na23 O109 2.793072 1_555
Na24 O102 2.330457 1_555
Na24 O106 2.531713 1_555
Na24 O116 2.661888 1_555
Na24 O104 2.706863 1_555
Na24 O118 2.747863 1_555
Na24 O114 2.905219 1_555
Na25 O103 2.465223 1_555
Na25 O117 2.656985 1_555
Na25 O107 2.672384 1_555
Na25 O105 2.679782 1_555
Na25 O115 2.691877 1_555
Na25 O119 2.708794 1_555
Na26 O120 2.345198 1_555
Na26 O124 2.562924 1_555
Na26 O122 2.654091 1_555
Na26 O134 2.671734 1_555
Na26 O132 2.729573 1_555
Na26 O136 2.781828 1_555
Na27 O121 2.416472 1_555
Na27 O123 2.600615 1_555
Na27 O125 2.639245 1_555
Na27 O135 2.649845 1_555
Na27 O137 2.761637 1_555
Na27 O133 2.762759 1_555
Na28 O130 2.554882 1_555
Na28 O140 2.604074 1_555
Na28 O138 2.611780 1_555
Na28 O126 2.627116 1_555
Na28 O128 2.645482 1_555
Na28 O142 2.800786 1_555
Na29 O131 2.403639 1_555
Na29 O141 2.617994 1_555
Na29 O127 2.623641 1_555
Na29 O129 2.668588 1_555
Na29 O139 2.695880 1_555
Na29 O143 2.761226 1_555
Hf0 O0 2.003330 1_565
Hf0 O72 2.005232 1_555
Hf0 O3 2.015615 1_455
Hf0 O76 2.069041 1_565
Hf0 O75 2.086597 1_455
Hf0 O5 2.241375 1_465
Hf1 O11 1.938469 1_555
Hf1 O6 2.005333 1_655
Hf1 O9 2.006973 1_545
Hf1 O78 2.047069 1_655
Hf1 O83 2.238799 1_545
Hf1 O80 2.286246 1_645
Hf2 O79 1.985568 1_565
Hf2 O82 1.998775 1_555
Hf2 O8 2.012021 1_555
Hf2 O7 2.029123 1_565
Hf2 O81 2.144692 1_555
Hf2 O10 2.227087 1_565
Hf3 O16 1.953465 1_545
Hf3 O14 1.960796 1_555
Hf3 O13 1.961053 1_445
Hf3 O86 2.249015 1_555
Hf3 O85 2.249465 1_455
Hf3 O89 2.258822 1_445
Hf4 O15 1.967900 1_555
Hf4 O17 1.991594 1_545
Hf4 O84 2.022957 1_555
Hf4 O12 2.154872 1_545
Hf4 O87 2.172134 1_555
Hf4 O88 2.233080 1_545
Hf5 O22 1.940231 1_555
Hf5 O94 1.983184 1_565
Hf5 O19 2.060607 1_455
Hf5 O91 2.157781 1_455
Hf5 O20 2.162376 1_565
Hf5 O93 2.276139 1_465
Hf6 O18 1.993476 1_545
Hf6 O95 1.996509 1_555
Hf6 O21 2.120852 1_555
Hf6 O23 2.132785 1_545
Hf6 O92 2.133178 1_555
Hf6 O90 2.145087 1_545
Hf7 O110 1.996456 1_555
Hf7 O108 2.000236 1_555
Hf7 O36 2.019297 1_556
Hf7 O38 2.135446 1_556
Hf7 O40 2.208336 1_556
Hf7 O112 2.212655 1_555
Hf8 O37 1.948617 1_556
Hf8 O111 2.020964 1_555
Hf8 O41 2.093748 1_556
Hf8 O113 2.127263 1_555
Hf8 O39 2.153759 1_556
Hf8 O109 2.169779 1_555
Hf9 O46 1.922227 1_555
Hf9 O44 2.076651 1_555
Hf9 O116 2.083415 1_555
Hf9 O42 2.137442 1_555
Hf9 O118 2.149520 1_555
Hf9 O114 2.206927 1_555
Hf10 O117 1.987930 1_555
Hf10 O115 1.992902 1_555
Hf10 O119 1.997986 1_555
Hf10 O45 2.139765 1_555
Hf10 O43 2.161467 1_555
Hf10 O47 2.173947 1_555
Hf11 O64 1.969061 1_555
Hf11 O134 2.032294 1_555
Hf11 O60 2.068338 1_555
Hf11 O132 2.102615 1_555
Hf11 O62 2.113460 1_555
Hf11 O136 2.275778 1_555
Hf12 O63 1.949118 1_555
Hf12 O65 1.970865 1_555
Hf12 O135 2.013415 1_555
Hf12 O61 2.193510 1_555
Hf12 O133 2.246955 1_555
Hf12 O137 2.283794 1_555
Hf13 O66 1.925101 1_555
Hf13 O70 1.991440 1_555
Hf13 O138 2.055036 1_555
Hf13 O140 2.103544 1_555
Hf13 O68 2.188940 1_555
Hf13 O142 2.366805 1_555
Hf14 O67 1.942790 1_555
Hf14 O139 2.016830 1_555
Hf14 O141 2.017658 1_555
Hf14 O143 2.102093 1_555
Hf14 O69 2.198044 1_555
Hf14 O71 2.238518 1_555
Mg0 O2 1.894928 1_555
Mg0 O77 2.024464 1_565
Mg0 O4 2.129436 1_565
Mg0 O74 2.155132 1_555
Mg0 O1 2.176184 1_565
Mg0 O73 2.190101 1_555
Mg1 O24 1.935860 1_555
Mg1 O100 2.052380 1_555
Mg1 O28 2.077587 1_555
Mg1 O98 2.091350 1_555
Mg1 O26 2.215598 1_555
Mg1 O96 2.285912 1_555
Mg2 O97 1.995517 1_555
Mg2 O99 2.011110 1_555
Mg2 O101 2.014561 1_555
Mg2 O25 2.136880 1_555
Mg2 O29 2.161729 1_555
Mg2 O27 2.193876 1_555
Mg3 O34 1.915702 1_555
Mg3 O102 2.002553 1_555
Mg3 O106 2.091622 1_555
Mg3 O30 2.149870 1_555
Mg3 O32 2.218429 1_555
Mg3 O104 2.288753 1_555
Mg4 O35 1.902077 1_555
Mg4 O103 2.091053 1_555
Mg4 O33 2.116023 1_555
Mg4 O31 2.136298 1_555
Mg4 O107 2.217933 1_555
Mg4 O105 2.286049 1_555
Mg5 O50 1.912885 1_554
Mg5 O48 1.953971 1_554
Mg5 O120 1.988022 1_555
Mg5 O52 2.261502 1_554
Mg5 O122 2.293033 1_555
Mg5 O124 2.365686 1_555
Mg6 O51 1.867034 1_554
Mg6 O121 1.972763 1_555
Mg6 O123 2.155084 1_555
Mg6 O49 2.190581 1_554
Mg6 O53 2.221363 1_554
Mg6 O125 2.338513 1_555
Mg7 O56 1.931663 1_555
Mg7 O58 1.942481 1_555
Mg7 O54 2.158379 1_555
Mg7 O130 2.194843 1_555
Mg7 O128 2.226800 1_555
Mg7 O126 2.256683 1_555
Mg8 O57 1.959596 1_555
Mg8 O55 2.004741 1_555
Mg8 O131 2.048336 1_555
Mg8 O59 2.101593 1_555
Mg8 O127 2.272588 1_555
Mg8 O129 2.279654 1_555
O0 Si0 1.646252 1_555
O1 S0 1.474654 1_545
O2 Si1 1.584650 1_555
O3 Si2 1.648009 1_555
O4 S2 1.461763 1_555
O5 S1 1.481020 1_555
O6 Si3 1.644547 1_555
O7 Si4 1.612658 1_555
O8 Si6 1.617783 1_555
O9 Si5 1.629122 1_655
O10 S3 1.474918 1_555
O11 Si7 1.637803 1_545
O12 S3 1.494707 1_565
O13 Si7 1.648396 1_555
O14 Si3 1.646886 1_555
O15 Si4 1.660592 1_555
O16 Si5 1.652466 1_555
O17 Si6 1.646784 1_555
O18 Si1 1.687214 1_555
O19 Si2 1.640810 1_555
O20 S1 1.483969 1_455
O21 S2 1.516232 1_555
O22 Si0 1.657017 1_565
O23 S0 1.499576 1_555
O24 Si8 1.602801 1_555
O25 S4 1.470537 1_555
O26 S5 1.466953 1_555
O27 S6 1.474701 1_555
O28 S7 1.467948 1_555
O29 S8 1.478569 1_555
O30 S9 1.454850 1_555
O31 S10 1.476023 1_555
O32 S11 1.466507 1_555
O33 S12 1.458155 1_555
O34 Si9 1.610336 1_555
O35 Si10 1.616742 1_555
O36 Si9 1.673531 1_555
O37 Si10 1.669867 1_555
O38 S9 1.503307 1_555
O39 S10 1.503207 1_555
O40 S11 1.481240 1_555
O41 S12 1.504543 1_555
O42 S5 1.520841 1_555
O43 S6 1.516919 1_555
O44 S7 1.509531 1_555
O45 S8 1.513828 1_555
O46 Si8 1.677928 1_555
O47 S4 1.511704 1_555
O48 Si11 1.585965 1_555
O49 S13 1.452280 1_555
O50 Si12 1.575517 1_555
O51 Si13 1.569732 1_555
O52 S14 1.426046 1_555
O53 S15 1.431825 1_555
O54 S16 1.450001 1_555
O55 Si14 1.578838 1_555
O56 Si15 1.588476 1_555
O57 Si16 1.584347 1_555
O58 Si17 1.582760 1_555
O59 S17 1.457370 1_555
O60 Si17 1.649534 1_555
O61 S17 1.500326 1_555
O62 S16 1.529458 1_555
O63 Si14 1.667203 1_555
O64 Si15 1.660335 1_555
O65 Si16 1.687358 1_555
O66 Si12 1.686306 1_555
O67 Si13 1.676187 1_555
O68 S14 1.513631 1_555
O69 S15 1.502889 1_555
O70 Si11 1.683924 1_555
O71 S13 1.498612 1_555
O72 Si17 1.653409 1_555
O73 S17 1.479571 1_555
O74 S16 1.458428 1_555
O75 Si14 1.642431 1_555
O76 Si15 1.667586 1_555
O77 Si16 1.618103 1_555
O78 Si12 1.667045 1_555
O79 Si13 1.641655 1_555
O80 S14 1.507340 1_555
O81 S15 1.492321 1_555
O82 Si11 1.624670 1_555
O83 S13 1.491275 1_555
O84 Si8 1.700725 1_555
O85 S4 1.505850 1_555
O86 S5 1.510614 1_555
O87 S6 1.523421 1_555
O88 S7 1.496566 1_555
O89 S8 1.493693 1_555
O90 S9 1.535593 1_555
O91 S10 1.536892 1_555
O92 S11 1.546625 1_555
O93 S12 1.515267 1_555
O94 Si9 1.683840 1_555
O95 Si10 1.665219 1_555
O96 S3 1.469489 1_555
O97 Si7 1.604193 1_545
O98 Si3 1.611889 1_555
O99 Si4 1.606338 1_555
O100 Si6 1.615488 1_555
O101 Si5 1.608003 1_655
O102 Si1 1.609170 1_555
O103 Si2 1.640879 1_555
O104 S2 1.464815 1_555
O105 S1 1.466921 1_555
O106 Si0 1.606191 1_555
O107 S0 1.483437 1_545
O108 Si11 1.680057 1_555
O109 S13 1.507776 1_555
O110 Si13 1.654640 1_555
O111 Si12 1.642431 1_655
O112 S14 1.509149 1_545
O113 S15 1.510409 1_545
O114 S16 1.520400 1_545
O115 Si14 1.660149 1_545
O116 Si15 1.657951 1_555
O117 Si16 1.711014 1_555
O118 S17 1.508801 1_555
O119 Si17 1.665004 1_655
O120 Si9 1.628267 1_555
O121 Si10 1.628044 1_555
O122 S10 1.443233 1_455
O123 S9 1.458421 1_555
O124 S11 1.467474 1_565
O125 S12 1.473366 1_565
O126 S5 1.471756 1_565
O127 S6 1.441627 1_565
O128 S7 1.471837 1_555
O129 S8 1.463992 1_555
O130 S4 1.471797 1_455
O131 Si8 1.626418 1_555
O132 Si0 1.645318 1_565
O133 S0 1.491556 1_555
O134 Si1 1.715854 1_555
O135 Si2 1.669193 1_555
O136 S1 1.508936 1_455
O137 S2 1.502845 1_555
O138 Si3 1.660805 1_555
O139 Si4 1.651584 1_555
O140 Si5 1.659643 1_555
O141 Si6 1.661593 1_555
O142 S3 1.494833 1_565
O143 Si7 1.633210 1_555
