# generated using pymatgen
data_Mg5Pd2
_symmetry_space_group_name_H-M   'P 1'
_cell_length_a   8.63939111
_cell_length_b   8.63939040
_cell_length_c   8.15856745
_cell_angle_alpha   90.00000000
_cell_angle_beta   90.00000000
_cell_angle_gamma   120.00055593
_symmetry_Int_Tables_number   1
_chemical_formula_structural   Mg5Pd2
_chemical_formula_sum   'Mg20 Pd8'
_cell_volume   527.36140385
_cell_formula_units_Z   4
loop_
 _symmetry_equiv_pos_site_id
 _symmetry_equiv_pos_as_xyz
  1  'x, y, z'
loop_
 _atom_site_type_symbol
 _atom_site_label
 _atom_site_symmetry_multiplicity
 _atom_site_fract_x
 _atom_site_fract_y
 _atom_site_fract_z
 _atom_site_occupancy
  Mg  Mg0  1  0.00000000  0.00000000  -0.00000000  1
  Mg  Mg1  1  0.00000000  0.00000000  0.50000000  1
  Mg  Mg2  1  0.46006923  0.92016631  0.25000000  1
  Mg  Mg3  1  0.53989623  0.46010477  0.75000000  1
  Mg  Mg4  1  0.92016631  0.46006923  0.75000000  1
  Mg  Mg5  1  0.07983369  0.53993077  0.25000000  1
  Mg  Mg6  1  0.46010477  0.53989623  0.25000000  1
  Mg  Mg7  1  0.53993077  0.07983369  0.75000000  1
  Mg  Mg8  1  0.19309296  0.38619265  0.93659696  1
  Mg  Mg9  1  0.80690265  0.19309735  0.43661277  1
  Mg  Mg10  1  0.38619265  0.19309296  0.43659696  1
  Mg  Mg11  1  0.61380835  0.80690704  0.93659696  1
  Mg  Mg12  1  0.19309735  0.80690265  0.93661277  1
  Mg  Mg13  1  0.80690704  0.61380835  0.06340304  1
  Mg  Mg14  1  0.80690265  0.19309735  0.06338723  1
  Mg  Mg15  1  0.80690704  0.61380835  0.43659696  1
  Mg  Mg16  1  0.38619265  0.19309296  0.06340304  1
  Mg  Mg17  1  0.61380835  0.80690704  0.56340304  1
  Mg  Mg18  1  0.19309296  0.38619265  0.56340304  1
  Mg  Mg19  1  0.19309735  0.80690265  0.56338723  1
  Pd  Pd0  1  0.33333702  0.66666298  0.75000000  1
  Pd  Pd1  1  0.66666298  0.33333702  0.25000000  1
  Pd  Pd2  1  0.12252001  0.24503969  0.25000000  1
  Pd  Pd3  1  0.87748053  0.12252047  0.75000000  1
  Pd  Pd4  1  0.24503969  0.12252001  0.75000000  1
  Pd  Pd5  1  0.75496131  0.87748099  0.25000000  1
  Pd  Pd6  1  0.12252047  0.87748053  0.25000000  1
  Pd  Pd7  1  0.87748099  0.75496131  0.75000000  1
loop_
_geom_bond_atom_site_label_1
_geom_bond_atom_site_label_2
_geom_bond_distance
_geom_bond_site_symmetry_2
Mg0 Pd7 2.742503 1_444
Mg0 Pd5 2.742503 1_445
Mg0 Pd2 2.742508 1_555
Mg0 Pd4 2.742508 1_554
Mg0 Pd3 2.742519 1_454
Mg0 Pd6 2.742519 1_545
Mg0 Mg13 2.935381 1_445
Mg0 Mg11 2.935381 1_444
Mg0 Mg8 2.935388 1_554
Mg0 Mg16 2.935388 1_555
Mg0 Mg12 2.935404 1_544
Mg0 Mg14 2.935404 1_455
Mg1 Pd7 2.742503 1_445
Mg1 Pd5 2.742503 1_445
Mg1 Pd2 2.742508 1_555
Mg1 Pd4 2.742508 1_555
Mg1 Pd3 2.742519 1_455
Mg1 Pd6 2.742519 1_545
Mg1 Mg15 2.935381 1_445
Mg1 Mg17 2.935381 1_445
Mg1 Mg18 2.935388 1_555
Mg1 Mg10 2.935388 1_555
Mg1 Mg19 2.935404 1_545
Mg1 Mg9 2.935404 1_455
Mg2 Pd6 2.750428 1_555
Mg2 Pd5 2.750682 1_555
Mg2 Pd1 3.091298 1_565
Mg2 Mg9 3.129052 1_565
Mg2 Mg5 3.284976 1_555
Mg2 Mg6 3.285455 1_555
Mg3 Pd4 2.750572 1_555
Mg3 Pd7 2.750572 1_555
Mg3 Pd0 3.090925 1_555
Mg3 Mg8 3.128757 1_555
Mg3 Mg4 3.285455 1_555
Mg3 Mg7 3.285460 1_555
Mg4 Pd3 2.750428 1_555
Mg4 Pd7 2.750681 1_555
Mg4 Pd0 3.091298 1_655
Mg4 Mg8 3.128850 1_655
Mg4 Mg9 3.249236 1_555
Mg4 Mg7 3.284976 1_555
Mg5 Pd6 2.750433 1_555
Mg5 Pd2 2.750678 1_555
Mg5 Pd1 3.091298 1_455
Mg5 Mg9 3.129052 1_455
Mg5 Mg8 3.249472 1_554
Mg5 Mg6 3.285460 1_555
Mg6 Pd5 2.750572 1_555
Mg6 Pd2 2.750572 1_555
Mg6 Pd1 3.090925 1_555
Mg6 Mg8 3.249507 1_554
Mg7 Pd3 2.750433 1_555
Mg7 Pd4 2.750678 1_555
Mg7 Pd0 3.091298 1_545
Mg7 Mg9 3.249236 1_555
Mg8 Pd0 2.592504 1_555
Mg8 Pd2 2.766436 1_556
Mg8 Pd3 2.954688 1_455
Mg8 Pd4 2.954741 1_555
Mg9 Pd1 2.592648 1_555
Mg9 Pd3 2.766325 1_555
Mg9 Pd5 2.954794 1_545
Mg9 Pd2 2.954799 1_655
Mg10 Pd1 2.592504 1_555
Mg10 Pd4 2.766436 1_555
Mg10 Pd6 2.954688 1_545
Mg10 Pd2 2.954742 1_555
Mg10 Mg16 3.044728 1_555
Mg10 Mg19 3.069017 1_545
Mg10 Mg18 3.069147 1_555
Mg10 Mg6 3.128757 1_555
Mg10 Mg2 3.128850 1_545
Mg10 Mg7 3.249472 1_555
Mg10 Mg3 3.249507 1_555
Mg11 Pd0 2.592510 1_555
Mg11 Pd5 2.766436 1_556
Mg11 Pd3 2.954692 1_565
Mg11 Pd7 2.954737 1_555
Mg11 Mg17 3.044728 1_555
Mg11 Mg14 3.069017 1_566
Mg11 Mg13 3.069133 1_556
Mg11 Mg3 3.128750 1_555
Mg11 Mg7 3.128855 1_565
Mg11 Mg2 3.249477 1_556
Mg11 Mg6 3.249503 1_556
Mg12 Pd0 2.592648 1_555
Mg12 Pd6 2.766325 1_556
Mg12 Pd7 2.954794 1_455
Mg12 Pd4 2.954799 1_565
Mg12 Mg19 3.044986 1_555
Mg12 Mg16 3.069017 1_566
Mg12 Mg13 3.069017 1_456
Mg12 Mg4 3.129052 1_455
Mg12 Mg7 3.129052 1_565
Mg12 Mg5 3.249236 1_556
Mg12 Mg2 3.249236 1_556
Mg13 Pd1 2.592510 1_555
Mg13 Pd7 2.766436 1_554
Mg13 Pd6 2.954692 1_655
Mg13 Pd5 2.954737 1_555
Mg13 Mg15 3.044728 1_555
Mg13 Mg6 3.128750 1_555
Mg13 Mg5 3.128855 1_655
Mg13 Mg4 3.249477 1_554
Mg13 Mg3 3.249503 1_554
Mg14 Pd1 2.592648 1_555
Mg14 Pd3 2.766325 1_554
Mg14 Pd5 2.954794 1_545
Mg14 Pd2 2.954799 1_655
Mg14 Mg9 3.044986 1_555
Mg14 Mg8 3.069017 1_654
Mg14 Mg5 3.129052 1_655
Mg14 Mg2 3.129052 1_545
Mg14 Mg4 3.249236 1_554
Mg14 Mg7 3.249236 1_554
Mg15 Pd1 2.592510 1_555
Mg15 Pd7 2.766436 1_555
Mg15 Pd6 2.954692 1_655
Mg15 Pd5 2.954737 1_555
Mg15 Mg19 3.069017 1_655
Mg15 Mg17 3.069133 1_555
Mg15 Mg6 3.128750 1_555
Mg15 Mg5 3.128855 1_655
Mg15 Mg4 3.249477 1_555
Mg15 Mg3 3.249503 1_555
Mg16 Pd1 2.592504 1_555
Mg16 Pd4 2.766436 1_554
Mg16 Pd6 2.954688 1_545
Mg16 Pd2 2.954742 1_555
Mg16 Mg8 3.069147 1_554
Mg16 Mg6 3.128757 1_555
Mg16 Mg2 3.128850 1_545
Mg16 Mg7 3.249472 1_554
Mg16 Mg3 3.249507 1_554
Mg17 Pd0 2.592510 1_555
Mg17 Pd5 2.766436 1_555
Mg17 Pd3 2.954692 1_565
Mg17 Pd7 2.954737 1_555
Mg17 Mg9 3.069017 1_565
Mg17 Mg3 3.128750 1_555
Mg17 Mg7 3.128855 1_565
Mg17 Mg2 3.249477 1_555
Mg17 Mg6 3.249503 1_555
Mg18 Pd0 2.592504 1_555
Mg18 Pd2 2.766436 1_555
Mg18 Pd3 2.954688 1_455
Mg18 Pd4 2.954741 1_555
Mg18 Mg8 3.044728 1_555
Mg18 Mg9 3.069017 1_455
Mg18 Mg3 3.128757 1_555
Mg18 Mg4 3.128850 1_455
Mg18 Mg5 3.249472 1_555
Mg18 Mg6 3.249507 1_555
Mg19 Pd0 2.592648 1_555
Mg19 Pd6 2.766325 1_555
Mg19 Pd7 2.954794 1_455
Mg19 Pd4 2.954799 1_565
Mg19 Mg4 3.129052 1_455
Mg19 Mg7 3.129052 1_565
Mg19 Mg5 3.249236 1_555
Mg19 Mg2 3.249236 1_555
Pd2 Pd5 3.175457 1_445
Pd2 Pd6 3.175489 1_545
Pd3 Pd7 3.175489 1_545
Pd3 Pd4 3.175489 1_655
Pd4 Pd7 3.175457 1_445
Pd5 Pd6 3.175489 1_655
