# generated using pymatgen
data_LiVPO5
_symmetry_space_group_name_H-M   'P 1'
_cell_length_a   6.28572402
_cell_length_b   6.28608256
_cell_length_c   8.78514588
_cell_angle_alpha   90.00000000
_cell_angle_beta   90.00000000
_cell_angle_gamma   90.00000000
_symmetry_Int_Tables_number   1
_chemical_formula_structural   LiVPO5
_chemical_formula_sum   'Li4 V4 P4 O20'
_cell_volume   347.12378062
_cell_formula_units_Z   4
loop_
 _symmetry_equiv_pos_site_id
 _symmetry_equiv_pos_as_xyz
  1  'x, y, z'
loop_
 _atom_site_type_symbol
 _atom_site_label
 _atom_site_symmetry_multiplicity
 _atom_site_fract_x
 _atom_site_fract_y
 _atom_site_fract_z
 _atom_site_occupancy
  Li  Li0  1  0.48659361  0.00991736  0.24373015  1
  Li  Li1  1  0.48659361  0.49008264  0.74373015  1
  Li  Li2  1  0.98659361  0.50991736  0.25626985  1
  Li  Li3  1  0.98659361  0.99008264  0.75626985  1
  V  V0  1  0.24822935  0.24700325  0.95771699  1
  V  V1  1  0.24822935  0.25299675  0.45771699  1
  V  V2  1  0.74822935  0.74700325  0.54228301  1
  V  V3  1  0.74822935  0.75299675  0.04228301  1
  P  P0  1  0.24751708  0.74894730  0.00002679  1
  P  P1  1  0.24751708  0.75105270  0.50002679  1
  P  P2  1  0.74751708  0.24894730  0.49997321  1
  P  P3  1  0.74751708  0.25105270  -0.00002679  1
  O  O0  1  0.05107173  0.73824499  0.10331208  1
  O  O1  1  0.05107173  0.76175501  0.60331208  1
  O  O2  1  0.23383443  0.55545617  0.39589763  1
  O  O3  1  0.23383443  0.94454383  0.89589763  1
  O  O4  1  0.25343659  0.24178195  0.14238747  1
  O  O5  1  0.25343659  0.25821805  0.64238747  1
  O  O6  1  0.26029046  0.55059999  0.89900000  1
  O  O7  1  0.26029046  0.94940001  0.39900000  1
  O  O8  1  0.44502575  0.73532009  0.60192802  1
  O  O9  1  0.44502575  0.76467991  0.10192802  1
  O  O10  1  0.55107173  0.23824499  0.39668792  1
  O  O11  1  0.55107173  0.26175501  0.89668792  1
  O  O12  1  0.73383443  0.05545617  0.10410237  1
  O  O13  1  0.73383443  0.44454383  0.60410237  1
  O  O14  1  0.75343659  0.74178195  0.35761253  1
  O  O15  1  0.75343659  0.75821805  0.85761253  1
  O  O16  1  0.76029046  0.05059999  0.60100000  1
  O  O17  1  0.76029046  0.44940001  0.10100000  1
  O  O18  1  0.94502575  0.23532009  0.89807198  1
  O  O19  1  0.94502575  0.26467991  0.39807198  1
loop_
_geom_bond_atom_site_label_1
_geom_bond_atom_site_label_2
_geom_bond_distance
_geom_bond_site_symmetry_2
Li0 O9 1.999161 1_545
Li0 O12 2.000451 1_555
Li0 O7 2.007199 1_545
Li0 O10 2.007483 1_555
Li0 O4 2.250530 1_555
Li0 O14 2.579781 1_545
Li1 O8 1.999161 1_555
Li1 O13 2.000451 1_555
Li1 O6 2.007199 1_555
Li1 O11 2.007483 1_555
Li1 O5 2.250530 1_555
Li1 O15 2.579781 1_555
Li2 O19 1.999161 1_555
Li2 O2 2.000451 1_655
Li2 O17 2.007199 1_555
Li2 O0 2.007483 1_655
Li2 O14 2.250530 1_555
Li2 O4 2.579781 1_655
Li3 O18 1.999161 1_565
Li3 O3 2.000451 1_655
Li3 O16 2.007199 1_565
Li3 O1 2.007483 1_655
Li3 O15 2.250530 1_555
Li3 O5 2.579781 1_665
O0 P0 1.533816 1_555
O0 V3 1.979820 1_455
O1 P1 1.533816 1_555
O1 V2 1.979820 1_455
O2 P1 1.534925 1_555
O2 V1 1.979399 1_555
O3 P0 1.534925 1_556
O3 V0 1.979399 1_565
O4 V0 1.623019 1_554
O5 V1 1.623019 1_555
O6 P0 1.532561 1_556
O6 V0 1.978372 1_555
O7 P1 1.532561 1_555
O7 V1 1.978372 1_565
O8 P1 1.533779 1_555
O8 V2 1.977938 1_555
O9 P0 1.533779 1_555
O9 V3 1.977938 1_555
O10 P2 1.533816 1_555
O10 V1 1.979820 1_555
O11 P3 1.533816 1_556
O11 V0 1.979820 1_555
O12 P3 1.534925 1_555
O12 V3 1.979399 1_545
O13 P2 1.534925 1_555
O13 V2 1.979399 1_555
O14 V2 1.623019 1_555
O15 V3 1.623019 1_556
O16 P2 1.532561 1_555
O16 V2 1.978372 1_545
O17 P3 1.532561 1_555
O17 V3 1.978372 1_555
O18 P3 1.533779 1_556
O18 V0 1.977938 1_655
O19 P2 1.533779 1_555
O19 V1 1.977938 1_655
