# generated using pymatgen
data_Na6Nb6Ga2Si9(SO16)3
_symmetry_space_group_name_H-M   'P 1'
_cell_length_a   17.80395562
_cell_length_b   8.89781204
_cell_length_c   22.78933595
_cell_angle_alpha   90.03145190
_cell_angle_beta   90.04678495
_cell_angle_gamma   119.98244141
_symmetry_Int_Tables_number   1
_chemical_formula_structural   Na6Nb6Ga2Si9(SO16)3
_chemical_formula_sum   'Na18 Nb18 Ga6 Si27 S9 O144'
_cell_volume   3127.07599883
_cell_formula_units_Z   3
loop_
 _symmetry_equiv_pos_site_id
 _symmetry_equiv_pos_as_xyz
  1  'x, y, z'
loop_
 _atom_site_type_symbol
 _atom_site_label
 _atom_site_symmetry_multiplicity
 _atom_site_fract_x
 _atom_site_fract_y
 _atom_site_fract_z
 _atom_site_occupancy
  Na  Na0  1  0.32055674  0.01256483  0.25051509  1
  Na  Na1  1  0.68403054  0.36708940  0.24652241  1
  Na  Na2  1  0.49431454  0.62118389  0.24939035  1
  Na  Na3  1  0.82026393  0.62886341  0.74906284  1
  Na  Na4  1  0.99441442  0.36657025  0.74780585  1
  Na  Na5  1  0.18596169  0.00636928  0.74408227  1
  Na  Na6  1  0.00242274  0.00778355  0.49954773  1
  Na  Na7  1  0.50361488  0.99899194  0.49557042  1
  Na  Na8  1  0.00351675  0.01077318  0.99348411  1
  Na  Na9  1  0.50263833  0.99713633  0.99817119  1
  Na  Na10  1  0.33851740  0.33488721  0.83078718  1
  Na  Na11  1  0.83082739  0.32479553  0.82703232  1
  Na  Na12  1  0.33032176  0.33917120  0.33157316  1
  Na  Na13  1  0.83811580  0.34108407  0.33460806  1
  Na  Na14  1  0.16666295  0.65805429  0.16632543  1
  Na  Na15  1  0.67118939  0.67012839  0.16523056  1
  Na  Na16  1  0.17247294  0.67233601  0.66379432  1
  Na  Na17  1  0.66153843  0.66894324  0.66231494  1
  Nb  Nb0  1  0.00195512  0.98562449  0.35762128  1
  Nb  Nb1  1  0.50232006  0.01873788  0.85567767  1
  Nb  Nb2  1  0.99737114  0.99117316  0.64355293  1
  Nb  Nb3  1  0.49893807  0.01297815  0.63941433  1
  Nb  Nb4  1  0.99984939  0.99726148  0.14428661  1
  Nb  Nb5  1  0.49733206  0.00302430  0.14411664  1
  Nb  Nb6  1  0.32938101  0.34218859  0.97573480  1
  Nb  Nb7  1  0.82896630  0.31177517  0.97697736  1
  Nb  Nb8  1  0.33504103  0.34655084  0.48131935  1
  Nb  Nb9  1  0.82873493  0.31475820  0.47612402  1
  Nb  Nb10  1  0.16583828  0.65426069  0.01477963  1
  Nb  Nb11  1  0.65975551  0.66498550  0.02675978  1
  Nb  Nb12  1  0.16003877  0.65300118  0.52706929  1
  Nb  Nb13  1  0.65934852  0.66872524  0.51750912  1
  Nb  Nb14  1  0.16460225  0.66039770  0.31274587  1
  Nb  Nb15  1  0.66913613  0.65838518  0.31685168  1
  Nb  Nb16  1  0.16914104  0.68018084  0.81499596  1
  Nb  Nb17  1  0.66179946  0.66682527  0.80960158  1
  Ga  Ga0  1  0.49664348  0.99893820  0.35493367  1
  Ga  Ga1  1  0.99758499  0.99650324  0.85358230  1
  Ga  Ga2  1  0.33621689  0.32137964  0.67570015  1
  Ga  Ga3  1  0.83169674  0.31062814  0.69056716  1
  Ga  Ga4  1  0.33114043  0.35335070  0.19099887  1
  Ga  Ga5  1  0.83012117  0.34010847  0.18046157  1
  Si  Si0  1  0.14741619  0.00645014  0.24891640  1
  Si  Si1  1  0.35791424  0.71416328  0.25345011  1
  Si  Si2  1  0.85620207  0.70190683  0.24828602  1
  Si  Si3  1  0.49799581  0.28656526  0.25227613  1
  Si  Si4  1  0.64737470  0.28587553  0.74788117  1
  Si  Si5  1  0.99776780  0.71057835  0.75213620  1
  Si  Si6  1  0.35682615  0.01087407  0.74764353  1
  Si  Si7  1  0.85835332  0.00213178  0.75327163  1
  Si  Si8  1  0.47793599  0.34131758  0.58350194  1
  Si  Si9  1  0.97027474  0.32774281  0.58769208  1
  Si  Si10  1  0.19053871  0.04769237  0.58438760  1
  Si  Si11  1  0.69190379  0.04713586  0.58671393  1
  Si  Si12  1  0.33315290  0.61643882  0.58902366  1
  Si  Si13  1  0.47038286  0.61303864  0.08769601  1
  Si  Si14  1  0.83351335  0.04986717  0.08803149  1
  Si  Si15  1  0.19115970  0.33618501  0.08616754  1
  Si  Si16  1  0.69047886  0.33368426  0.08471819  1
  Si  Si17  1  0.31349404  0.67241507  0.91420511  1
  Si  Si18  1  0.01925528  0.36491517  0.91251314  1
  Si  Si19  1  0.52271376  0.38398329  0.91835199  1
  Si  Si20  1  0.16037787  0.95761103  0.91850116  1
  Si  Si21  1  0.66364435  0.94802955  0.91595891  1
  Si  Si22  1  0.81124050  0.94986893  0.41688109  1
  Si  Si23  1  0.16781034  0.37706523  0.41698344  1
  Si  Si24  1  0.66102139  0.36321899  0.41878976  1
  Si  Si25  1  0.02242492  0.65934333  0.41900632  1
  Si  Si26  1  0.51776394  0.67274072  0.41265228  1
  S  S0  1  0.64611895  0.00231723  0.24990726  1
  S  S1  1  0.99676494  0.28624348  0.24985205  1
  S  S2  1  0.14564607  0.28971806  0.75039387  1
  S  S3  1  0.49600966  0.70973610  0.74998514  1
  S  S4  1  0.83125078  0.61752793  0.58433420  1
  S  S5  1  0.97794704  0.62025933  0.08373117  1
  S  S6  1  0.33080007  0.04353885  0.08396749  1
  S  S7  1  0.81120435  0.66818447  0.91713159  1
  S  S8  1  0.31098864  0.95402453  0.41727204  1
  O  O0  1  0.09751008  0.03017199  0.30579147  1
  O  O1  1  0.60846407  0.03347342  0.30208515  1
  O  O2  1  0.42121177  0.80579781  0.30783455  1
  O  O3  1  0.91659077  0.80443795  0.30552633  1
  O  O4  1  0.48398730  0.16189561  0.30671544  1
  O  O5  1  0.98623815  0.18441389  0.30256063  1
  O  O6  1  0.10693279  0.18249727  0.80296047  1
  O  O7  1  0.59872655  0.16676716  0.80655038  1
  O  O8  1  0.48861244  0.79338478  0.80424428  1
  O  O9  1  0.98375155  0.80493338  0.80757205  1
  O  O10  1  0.41641439  0.02628149  0.80605583  1
  O  O11  1  0.92099288  0.03816830  0.80853964  1
  O  O12  1  0.40205612  0.97250827  0.69217357  1
  O  O13  1  0.90321142  0.96484711  0.69449060  1
  O  O14  1  0.08994691  0.20929129  0.69700072  1
  O  O15  1  0.58219645  0.19264118  0.69302897  1
  O  O16  1  0.01926477  0.84068427  0.69397897  1
  O  O17  1  0.51362734  0.81525146  0.69753195  1
  O  O18  1  0.40370968  0.84065747  0.19408692  1
  O  O19  1  0.90301943  0.82996060  0.19150023  1
  O  O20  1  0.01296776  0.20859212  0.19615839  1
  O  O21  1  0.51891123  0.19724850  0.19363260  1
  O  O22  1  0.08212240  0.97366965  0.19292171  1
  O  O23  1  0.59086149  0.97258599  0.19613591  1
  O  O24  1  0.44107215  0.37510645  0.64316023  1
  O  O25  1  0.93608191  0.36918327  0.64698434  1
  O  O26  1  0.24114013  0.11687223  0.64624146  1
  O  O27  1  0.75091161  0.13506176  0.64278067  1
  O  O28  1  0.31412261  0.49370748  0.64506547  1
  O  O29  1  0.82163500  0.52459195  0.63875986  1
  O  O30  1  0.43525888  0.50196670  0.14658896  1
  O  O31  1  0.94052540  0.51942170  0.13755991  1
  O  O32  1  0.32016253  0.11648255  0.13862238  1
  O  O33  1  0.82031891  0.14347624  0.14389638  1
  O  O34  1  0.24989136  0.36795151  0.14247789  1
  O  O35  1  0.74355412  0.36841297  0.14534441  1
  O  O36  1  0.23404211  0.30500355  0.02625991  1
  O  O37  1  0.74060240  0.30987393  0.02755224  1
  O  O38  1  0.41416828  0.52263372  0.02786862  1
  O  O39  1  0.92524557  0.54177240  0.03078894  1
  O  O40  1  0.34518422  0.14925347  0.03132783  1
  O  O41  1  0.84909398  0.16857151  0.02742774  1
  O  O42  1  0.23630076  0.16972202  0.52681270  1
  O  O43  1  0.73475265  0.16649543  0.52657141  1
  O  O44  1  0.34886053  0.53219990  0.52788929  1
  O  O45  1  0.84629213  0.54096365  0.53139726  1
  O  O46  1  0.41698729  0.30593051  0.52540753  1
  O  O47  1  0.91466615  0.30568987  0.52763343  1
  O  O48  1  0.26632214  0.69630098  0.97300833  1
  O  O49  1  0.76845083  0.69033723  0.96941873  1
  O  O50  1  0.08208287  0.46856743  0.97099164  1
  O  O51  1  0.58511924  0.47391108  0.97468095  1
  O  O52  1  0.15181098  0.83180061  0.97466610  1
  O  O53  1  0.65560173  0.83422457  0.97363008  1
  O  O54  1  0.26865403  0.84657971  0.46856262  1
  O  O55  1  0.76644779  0.83319785  0.47420300  1
  O  O56  1  0.15517615  0.47639358  0.47275951  1
  O  O57  1  0.65187416  0.47152678  0.47344854  1
  O  O58  1  0.08542167  0.69701592  0.47447604  1
  O  O59  1  0.58040639  0.69619710  0.47061454  1
  O  O60  1  0.07035462  0.63988853  0.35965287  1
  O  O61  1  0.56757434  0.64067259  0.35573500  1
  O  O62  1  0.25754669  0.87177347  0.36136609  1
  O  O63  1  0.75025274  0.86284010  0.35835969  1
  O  O64  1  0.18088215  0.50084008  0.35863052  1
  O  O65  1  0.68134662  0.49098611  0.35879836  1
  O  O66  1  0.06660555  0.49429749  0.85616703  1
  O  O67  1  0.57031463  0.50154582  0.86010220  1
  O  O68  1  0.18073046  0.86922387  0.85970862  1
  O  O69  1  0.68178631  0.86145855  0.85829361  1
  O  O70  1  0.24945019  0.63578771  0.85848388  1
  O  O71  1  0.75844483  0.63831450  0.86248575  1
  O  O72  1  0.01408427  0.83509612  0.41129530  1
  O  O73  1  0.51071250  0.84429891  0.40885194  1
  O  O74  1  0.39673909  0.97038788  0.41131913  1
  O  O75  1  0.90774923  0.97802005  0.40705942  1
  O  O76  1  0.07981054  0.18977280  0.40731739  1
  O  O77  1  0.57659441  0.17902095  0.40855404  1
  O  O78  1  0.00968666  0.17744145  0.90985168  1
  O  O79  1  0.51406854  0.19210825  0.91125916  1
  O  O80  1  0.07618429  0.97398126  0.90941813  1
  O  O81  1  0.57976049  0.97079768  0.90878939  1
  O  O82  1  0.40867113  0.83882783  0.90875094  1
  O  O83  1  0.89721197  0.82226105  0.91227308  1
  O  O84  1  0.48714708  0.16514694  0.58679377  1
  O  O85  1  0.98608923  0.15976571  0.59259992  1
  O  O86  1  0.09227817  0.02426285  0.59091821  1
  O  O87  1  0.59368294  0.01995150  0.59230291  1
  O  O88  1  0.41976852  0.80828694  0.59290651  1
  O  O89  1  0.91299437  0.79844246  0.58781588  1
  O  O90  1  0.48637131  0.81260093  0.09240778  1
  O  O91  1  0.98647508  0.79744154  0.08832662  1
  O  O92  1  0.41128809  0.02397211  0.08753009  1
  O  O93  1  0.91989098  0.02818611  0.09257315  1
  O  O94  1  0.09259194  0.16402335  0.09230624  1
  O  O95  1  0.59320987  0.16023755  0.09011448  1
  O  O96  1  0.34001546  0.17532575  0.74463262  1
  O  O97  1  0.84875638  0.17195239  0.74761636  1
  O  O98  1  0.23279443  0.31043233  0.74430291  1
  O  O99  1  0.74569997  0.32579220  0.74270555  1
  O  O100  1  0.42064159  0.53417375  0.74662606  1
  O  O101  1  0.91379125  0.52071783  0.74361727  1
  O  O102  1  0.34873809  0.52565447  0.24743621  1
  O  O103  1  0.84291505  0.50589996  0.24243295  1
  O  O104  1  0.41333131  0.30592762  0.24294538  1
  O  O105  1  0.92168634  0.31024206  0.24268078  1
  O  O106  1  0.24472785  0.16463540  0.24157247  1
  O  O107  1  0.73374234  0.15803920  0.24321442  1
  O  O108  1  0.31945732  0.49595489  0.92128040  1
  O  O109  1  0.81984916  0.50919184  0.92344506  1
  O  O110  1  0.42598542  0.35586551  0.92522935  1
  O  O111  1  0.92833675  0.36708906  0.92555118  1
  O  O112  1  0.25173831  0.14130405  0.92603923  1
  O  O113  1  0.75082706  0.14432482  0.92221745  1
  O  O114  1  0.31723324  0.12622190  0.41998050  1
  O  O115  1  0.81966926  0.14183454  0.42124255  1
  O  O116  1  0.25228903  0.35358263  0.42146391  1
  O  O117  1  0.75227871  0.36098668  0.42491465  1
  O  O118  1  0.42644199  0.49066779  0.42166457  1
  O  O119  1  0.92584786  0.49511583  0.42422014  1
  O  O120  1  0.17657549  0.50628588  0.07597336  1
  O  O121  1  0.67998403  0.50453738  0.07456249  1
  O  O122  1  0.06669855  0.64453304  0.07829848  1
  O  O123  1  0.57005775  0.64324618  0.07747663  1
  O  O124  1  0.25401186  0.86505699  0.07744423  1
  O  O125  1  0.75043356  0.85713268  0.07575646  1
  O  O126  1  0.17946438  0.85486256  0.57427167  1
  O  O127  1  0.68100478  0.85377976  0.57559289  1
  O  O128  1  0.25036607  0.64499348  0.57526212  1
  O  O129  1  0.75588741  0.64421881  0.57788843  1
  O  O130  1  0.06990965  0.49617609  0.57781299  1
  O  O131  1  0.57679650  0.50534534  0.57595197  1
  O  O132  1  0.15519533  0.82937841  0.25797912  1
  O  O133  1  0.65168385  0.84027138  0.25333752  1
  O  O134  1  0.26182695  0.70299395  0.25715973  1
  O  O135  1  0.75885629  0.68167808  0.25538318  1
  O  O136  1  0.07846115  0.46339403  0.25427911  1
  O  O137  1  0.58642125  0.48329864  0.25506021  1
  O  O138  1  0.15021771  0.46261865  0.75443007  1
  O  O139  1  0.65554204  0.47920254  0.75944851  1
  O  O140  1  0.08625901  0.69016733  0.75575576  1
  O  O141  1  0.57813065  0.69198314  0.75612865  1
  O  O142  1  0.25924972  0.83370337  0.75690966  1
  O  O143  1  0.76225415  0.82083290  0.75831879  1
loop_
_geom_bond_atom_site_label_1
_geom_bond_atom_site_label_2
_geom_bond_distance
_geom_bond_site_symmetry_2
Na0 O104 2.294198 1_555
Na0 O106 2.349613 1_555
Na0 O134 2.413632 1_545
Na0 O132 2.560913 1_545
Na0 O32 2.714103 1_555
Na0 O62 2.795198 1_545
Na0 O4 2.828460 1_555
Na0 O18 2.906776 1_545
Na1 O107 2.427827 1_555
Na1 O135 2.433654 1_555
Na1 O137 2.433803 1_555
Na1 O103 2.458598 1_555
Na1 O35 2.536018 1_555
Na1 O65 2.795400 1_555
Na1 O21 2.816168 1_555
Na1 O1 2.870618 1_555
Na2 O102 2.289099 1_555
Na2 O104 2.434310 1_555
Na2 O133 2.489736 1_555
Na2 O137 2.494343 1_555
Na2 O30 2.568627 1_555
Na2 O61 2.715344 1_555
Na2 O2 2.881579 1_555
Na2 O23 2.973175 1_555
Na3 O101 2.305592 1_555
Na3 O99 2.340215 1_555
Na3 O143 2.406652 1_555
Na3 O139 2.555047 1_555
Na3 O29 2.683358 1_555
Na3 O71 2.827847 1_555
Na3 O9 2.852777 1_555
Na3 O13 2.873912 1_555
Na4 O97 2.288119 1_555
Na4 O101 2.432774 1_555
Na4 O138 2.465270 1_655
Na4 O140 2.508048 1_655
Na4 O25 2.525597 1_555
Na4 O66 2.752035 1_655
Na4 O11 2.890085 1_555
Na4 O14 2.927848 1_655
Na5 O96 2.379445 1_555
Na5 O98 2.400058 1_555
Na5 O26 2.438053 1_555
Na5 O140 2.479427 1_545
Na5 O142 2.480288 1_545
Na5 O16 2.811575 1_545
Na5 O68 2.886452 1_545
Na5 O6 2.905295 1_555
Na6 O86 2.583880 1_555
Na6 O76 2.591701 1_555
Na6 O72 2.600997 1_545
Na6 O85 2.607900 1_455
Na6 O75 2.627031 1_445
Na6 O89 2.663875 1_445
Na7 O73 2.446912 1_555
Na7 O77 2.472679 1_565
Na7 O74 2.623252 1_555
Na7 O84 2.650365 1_565
Na7 O87 2.675962 1_565
Na7 O88 2.739728 1_555
Na8 O78 2.384217 1_555
Na8 O80 2.424459 1_545
Na8 O83 2.576585 1_445
Na8 O94 2.697365 1_556
Na8 O93 2.752408 1_456
Na8 O91 2.792267 1_446
Na9 O81 2.532806 1_555
Na9 O82 2.563542 1_555
Na9 O79 2.574033 1_565
Na9 O95 2.597878 1_566
Na9 O90 2.630904 1_556
Na9 O92 2.691142 1_566
Na10 O96 2.430273 1_555
Na10 O100 2.525425 1_555
Na10 O110 2.606875 1_555
Na10 O108 2.627936 1_555
Na10 O98 2.656875 1_555
Na10 O112 2.723194 1_555
Na11 O97 2.378874 1_555
Na11 O99 2.449277 1_555
Na11 O101 2.503822 1_555
Na11 O113 2.652478 1_555
Na11 O111 2.745190 1_555
Na11 O109 2.806252 1_555
Na12 O102 2.449088 1_555
Na12 O116 2.515064 1_555
Na12 O106 2.562605 1_555
Na12 O118 2.578103 1_555
Na12 O104 2.606201 1_555
Na12 O114 2.695803 1_555
Na13 O119 2.518103 1_555
Na13 O103 2.539473 1_555
Na13 O115 2.563585 1_555
Na13 O117 2.622514 1_555
Na13 O105 2.662806 1_555
Na13 O107 2.721923 1_555
Na14 O120 2.515994 1_555
Na14 O134 2.575245 1_555
Na14 O136 2.602710 1_555
Na14 O122 2.643154 1_555
Na14 O132 2.652652 1_555
Na14 O124 2.657102 1_555
Na15 O135 2.549897 1_555
Na15 O125 2.564962 1_555
Na15 O121 2.587013 1_555
Na15 O137 2.594861 1_555
Na15 O123 2.619490 1_555
Na15 O133 2.639586 1_555
Na16 O128 2.528702 1_555
Na16 O126 2.572433 1_555
Na16 O142 2.593400 1_555
Na16 O130 2.600162 1_555
Na16 O140 2.649842 1_555
Na16 O138 2.678067 1_555
Na17 O131 2.462893 1_555
Na17 O127 2.483116 1_555
Na17 O129 2.635546 1_555
Na17 O141 2.669650 1_555
Na17 O143 2.719713 1_555
Na17 O139 2.754286 1_555
Nb0 O72 1.904523 1_555
Nb0 O0 1.943286 1_565
Nb0 O3 1.965820 1_455
Nb0 O75 1.994195 1_455
Nb0 O76 1.995553 1_565
Nb0 O5 2.297387 1_465
Nb1 O7 1.918227 1_555
Nb1 O79 1.924262 1_555
Nb1 O10 1.929362 1_555
Nb1 O81 2.033118 1_545
Nb1 O82 2.035490 1_545
Nb1 O8 2.227540 1_545
Nb2 O16 1.946316 1_655
Nb2 O13 1.955447 1_555
Nb2 O86 1.971581 1_665
Nb2 O85 1.985371 1_565
Nb2 O89 2.056860 1_555
Nb2 O14 2.182624 1_665
Nb3 O84 1.897579 1_555
Nb3 O88 1.963898 1_545
Nb3 O15 1.967800 1_555
Nb3 O87 1.974937 1_555
Nb3 O12 1.983330 1_545
Nb3 O17 2.319422 1_545
Nb4 O22 1.929520 1_655
Nb4 O19 1.945647 1_555
Nb4 O93 1.969848 1_565
Nb4 O94 1.971741 1_665
Nb4 O91 2.101925 1_555
Nb4 O20 2.132125 1_665
Nb5 O21 1.934191 1_555
Nb5 O18 1.939197 1_545
Nb5 O90 1.991111 1_545
Nb5 O95 2.000988 1_555
Nb5 O92 2.080130 1_555
Nb5 O23 2.167828 1_545
Nb6 O108 1.919969 1_555
Nb6 O36 1.938753 1_556
Nb6 O38 1.959779 1_556
Nb6 O112 1.978409 1_555
Nb6 O110 2.022860 1_555
Nb6 O40 2.261833 1_556
Nb7 O41 1.879145 1_556
Nb7 O113 1.906862 1_555
Nb7 O37 1.944254 1_556
Nb7 O111 1.969645 1_555
Nb7 O109 2.210709 1_555
Nb7 O39 2.262291 1_556
Nb8 O44 1.872699 1_555
Nb8 O46 1.947759 1_555
Nb8 O42 1.970064 1_555
Nb8 O118 2.015090 1_555
Nb8 O116 2.030809 1_555
Nb8 O114 2.296291 1_555
Nb9 O43 1.913225 1_555
Nb9 O115 1.925382 1_555
Nb9 O47 1.961036 1_555
Nb9 O117 1.985353 1_555
Nb9 O119 2.048448 1_555
Nb9 O45 2.259038 1_555
Nb10 O50 1.866183 1_554
Nb10 O48 1.892351 1_554
Nb10 O52 1.946558 1_554
Nb10 O120 1.992002 1_555
Nb10 O122 2.251671 1_555
Nb10 O124 2.252182 1_555
Nb11 O123 1.902142 1_555
Nb11 O51 1.949890 1_554
Nb11 O53 1.962715 1_554
Nb11 O121 1.967126 1_555
Nb11 O125 2.003115 1_555
Nb11 O49 2.252042 1_554
Nb12 O130 1.904261 1_555
Nb12 O56 1.967343 1_555
Nb12 O58 1.967921 1_555
Nb12 O126 1.969578 1_555
Nb12 O128 1.977190 1_555
Nb12 O54 2.271944 1_555
Nb13 O59 1.875753 1_555
Nb13 O57 1.967020 1_555
Nb13 O131 1.979196 1_555
Nb13 O55 1.991780 1_555
Nb13 O127 1.993562 1_555
Nb13 O129 2.294814 1_555
Nb14 O64 1.898805 1_555
Nb14 O60 1.920608 1_555
Nb14 O134 2.023131 1_555
Nb14 O132 2.024818 1_555
Nb14 O62 2.094621 1_555
Nb14 O136 2.123035 1_555
Nb15 O65 1.872031 1_555
Nb15 O63 1.913110 1_555
Nb15 O61 1.948741 1_555
Nb15 O135 2.056686 1_555
Nb15 O137 2.068793 1_555
Nb15 O133 2.305486 1_555
Nb16 O68 1.887093 1_555
Nb16 O70 1.935255 1_555
Nb16 O66 1.983743 1_555
Nb16 O142 2.001796 1_555
Nb16 O140 2.033697 1_555
Nb16 O138 2.260641 1_555
Nb17 O69 1.933508 1_555
Nb17 O67 1.936767 1_555
Nb17 O139 1.979285 1_555
Nb17 O143 1.999504 1_555
Nb17 O141 2.021077 1_555
Nb17 O71 2.216028 1_555
Ga0 O2 1.896821 1_555
Ga0 O4 1.920562 1_565
Ga0 O77 1.949945 1_565
Ga0 O73 1.952348 1_555
Ga0 O74 2.105221 1_555
Ga0 O1 2.213894 1_565
Ga1 O11 1.885219 1_565
Ga1 O9 1.908828 1_555
Ga1 O80 1.973634 1_655
Ga1 O78 1.983271 1_665
Ga1 O83 2.150164 1_555
Ga1 O6 2.155325 1_665
Ga2 O24 1.836903 1_555
Ga2 O26 1.882945 1_555
Ga2 O28 1.896535 1_555
Ga2 O96 2.061831 1_555
Ga2 O100 2.367506 1_555
Ga2 O98 2.381143 1_555
Ga3 O27 1.856050 1_555
Ga3 O97 1.918534 1_555
Ga3 O25 1.935889 1_555
Ga3 O99 1.995872 1_555
Ga3 O101 2.087149 1_555
Ga3 O29 2.322394 1_555
Ga4 O34 1.875495 1_555
Ga4 O102 1.902620 1_555
Ga4 O30 1.940039 1_555
Ga4 O106 1.984409 1_555
Ga4 O104 2.082227 1_555
Ga4 O32 2.343096 1_555
Ga5 O35 1.861577 1_555
Ga5 O33 1.865185 1_555
Ga5 O103 1.970773 1_555
Ga5 O31 2.058050 1_555
Ga5 O107 2.200506 1_555
Ga5 O105 2.273415 1_555
O0 Si0 1.644095 1_555
O1 S0 1.458405 1_555
O2 Si1 1.596596 1_555
O3 Si2 1.644978 1_555
O4 Si3 1.599187 1_555
O5 S1 1.459718 1_555
O6 S2 1.471642 1_555
O7 Si4 1.657416 1_555
O8 S3 1.482412 1_555
O9 Si5 1.603718 1_555
O10 Si6 1.663875 1_555
O11 Si7 1.603997 1_555
O12 Si6 1.624483 1_565
O13 Si7 1.675844 1_565
O14 S2 1.504625 1_555
O15 Si4 1.622267 1_555
O16 Si5 1.674193 1_455
O17 S3 1.454740 1_555
O18 Si1 1.687617 1_555
O19 Si2 1.649814 1_555
O20 S1 1.502251 1_455
O21 Si3 1.688718 1_555
O22 Si0 1.650187 1_565
O23 S0 1.508987 1_565
O24 Si8 1.602439 1_555
O25 Si9 1.599229 1_555
O26 Si10 1.618717 1_555
O27 Si11 1.588579 1_555
O28 Si12 1.603406 1_555
O29 S4 1.453101 1_555
O30 Si13 1.598197 1_555
O31 S5 1.469300 1_555
O32 S6 1.459749 1_555
O33 Si14 1.601456 1_555
O34 Si15 1.588110 1_555
O35 Si16 1.613344 1_555
O36 Si15 1.654325 1_555
O37 Si16 1.651979 1_555
O38 Si13 1.643045 1_555
O39 S5 1.471767 1_555
O40 S6 1.466438 1_555
O41 Si14 1.676130 1_555
O42 Si10 1.638135 1_555
O43 Si11 1.667935 1_555
O44 Si12 1.670346 1_555
O45 S4 1.474172 1_555
O46 Si8 1.638642 1_555
O47 Si9 1.641756 1_555
O48 Si17 1.651142 1_555
O49 S7 1.479634 1_555
O50 Si18 1.686117 1_555
O51 Si19 1.621910 1_555
O52 Si20 1.657090 1_555
O53 Si21 1.621756 1_555
O54 S8 1.459735 1_555
O55 Si22 1.611183 1_555
O56 Si23 1.626448 1_555
O57 Si24 1.631788 1_555
O58 Si25 1.609280 1_555
O59 Si26 1.672392 1_555
O60 Si25 1.654393 1_555
O61 Si26 1.674735 1_555
O62 S8 1.537912 1_555
O63 Si22 1.647251 1_555
O64 Si23 1.667768 1_555
O65 Si24 1.698191 1_555
O66 Si18 1.648722 1_555
O67 Si19 1.640719 1_555
O68 Si20 1.682097 1_555
O69 Si21 1.634910 1_555
O70 Si17 1.626234 1_555
O71 S7 1.500686 1_555
O72 Si25 1.652515 1_555
O73 Si26 1.595340 1_555
O74 S8 1.465811 1_555
O75 Si22 1.623487 1_555
O76 Si23 1.633971 1_555
O77 Si24 1.592719 1_555
O78 Si18 1.590951 1_555
O79 Si19 1.643654 1_555
O80 Si20 1.590205 1_555
O81 Si21 1.612516 1_555
O82 Si17 1.603793 1_555
O83 S7 1.462470 1_555
O84 Si8 1.657323 1_555
O85 Si9 1.657238 1_555
O86 Si10 1.661942 1_555
O87 Si11 1.646326 1_555
O88 Si12 1.633539 1_555
O89 S4 1.540714 1_555
O90 Si13 1.655327 1_555
O91 S5 1.509977 1_555
O92 S6 1.529571 1_555
O93 Si14 1.645975 1_555
O94 Si15 1.661216 1_555
O95 Si16 1.650836 1_555
O96 Si6 1.634996 1_555
O97 Si7 1.608491 1_555
O98 S2 1.474860 1_555
O99 Si4 1.607340 1_555
O100 S3 1.466739 1_555
O101 Si5 1.612974 1_555
O102 Si1 1.607698 1_555
O103 Si2 1.644002 1_555
O104 Si3 1.614346 1_555
O105 S1 1.464248 1_555
O106 Si0 1.604439 1_555
O107 S0 1.488973 1_555
O108 Si17 1.633822 1_555
O109 S7 1.504506 1_555
O110 Si19 1.619507 1_555
O111 Si18 1.655582 1_655
O112 Si20 1.639758 1_545
O113 Si21 1.664333 1_545
O114 S8 1.481005 1_545
O115 Si22 1.641194 1_545
O116 Si23 1.621768 1_555
O117 Si24 1.640594 1_555
O118 Si26 1.636629 1_555
O119 Si25 1.610967 1_655
O120 Si15 1.674882 1_555
O121 Si16 1.638219 1_555
O122 S5 1.489305 1_455
O123 Si13 1.673239 1_555
O124 S6 1.497541 1_565
O125 Si14 1.634197 1_565
O126 Si10 1.642329 1_565
O127 Si11 1.651543 1_565
O128 Si12 1.645907 1_555
O129 S4 1.482066 1_555
O130 Si9 1.669544 1_455
O131 Si8 1.640417 1_555
O132 Si0 1.662109 1_565
O133 S0 1.495914 1_565
O134 Si1 1.665519 1_555
O135 Si2 1.658625 1_555
O136 S1 1.522657 1_455
O137 Si3 1.670954 1_555
O138 S2 1.502183 1_555
O139 Si4 1.673057 1_555
O140 Si5 1.675634 1_455
O141 S3 1.553302 1_555
O142 Si6 1.676759 1_565
O143 Si7 1.668777 1_565
