# generated using pymatgen
data_MgSc2Cr2O8
_symmetry_space_group_name_H-M   'P 1'
_cell_length_a   6.08567653
_cell_length_b   5.71704813
_cell_length_c   6.08578762
_cell_angle_alpha   103.77411840
_cell_angle_beta   114.35234733
_cell_angle_gamma   112.79689696
_symmetry_Int_Tables_number   1
_chemical_formula_structural   MgSc2Cr2O8
_chemical_formula_sum   'Mg1 Sc2 Cr2 O8'
_cell_volume   156.60986280
_cell_formula_units_Z   1
loop_
 _symmetry_equiv_pos_site_id
 _symmetry_equiv_pos_as_xyz
  1  'x, y, z'
loop_
 _atom_site_type_symbol
 _atom_site_label
 _atom_site_symmetry_multiplicity
 _atom_site_fract_x
 _atom_site_fract_y
 _atom_site_fract_z
 _atom_site_occupancy
  Mg  Mg0  1  0.74724100  0.99999500  0.24724300  1
  Sc  Sc0  1  0.83158600  0.11337900  0.79819500  1
  Sc  Sc1  1  0.18481700  0.88662400  0.21820100  1
  Cr  Cr0  1  0.61806300  0.41930300  0.25591300  1
  Cr  Cr1  1  0.33658400  0.58067700  0.69874000  1
  O  O0  1  0.80673500  0.34270700  0.10878400  1
  O  O1  1  0.23414400  0.17424200  0.04751800  1
  O  O2  1  0.65352700  0.21501000  0.45801100  1
  O  O3  1  0.77186600  0.78131000  0.46439300  1
  O  O4  1  0.18308600  0.21871300  0.49056900  1
  O  O5  1  0.37327600  0.82576500  0.55989000  1
  O  O6  1  0.74299500  0.78497400  0.93850100  1
  O  O7  1  0.26607800  0.65730000  0.96404100  1
loop_
_geom_bond_atom_site_label_1
_geom_bond_atom_site_label_2
_geom_bond_distance
_geom_bond_site_symmetry_2
Mg0 O2 1.969096 1_565
Mg0 O6 1.969184 1_554
Mg0 O4 2.024991 1_665
Mg0 O3 2.024997 1_555
Mg0 O7 2.273234 1_554
Mg0 O0 2.273330 1_565
Cr0 O3 1.743047 1_555
Cr0 O1 1.789885 1_555
Cr0 O0 1.833748 1_555
Cr0 O2 1.893114 1_555
Cr1 O4 1.742844 1_555
Cr1 O5 1.790021 1_555
Cr1 O7 1.833851 1_555
Cr1 O6 1.893164 1_555
O0 Sc0 2.126946 1_554
O0 Sc1 2.759171 1_655
O1 Sc0 2.108913 1_454
O1 Sc1 2.135624 1_545
O2 Sc1 2.214305 1_545
O2 Sc0 2.237968 1_555
O3 Sc0 2.209744 1_565
O4 Sc1 2.209875 1_545
O5 Sc1 2.108903 1_555
O5 Sc0 2.135612 1_565
O6 Sc0 2.214372 1_565
O6 Sc1 2.237933 1_656
O7 Sc1 2.126851 1_556
O7 Sc0 2.759141 1_455
