# generated using pymatgen
data_KC60
_symmetry_space_group_name_H-M   'P 1'
_cell_length_a   9.12865000
_cell_length_b   10.06702800
_cell_length_c   14.46474400
_cell_angle_alpha   90.00000000
_cell_angle_beta   90.00000000
_cell_angle_gamma   90.00000000
_symmetry_Int_Tables_number   1
_chemical_formula_structural   KC60
_chemical_formula_sum   'K2 C120'
_cell_volume   1329.28647059
_cell_formula_units_Z   2
loop_
 _symmetry_equiv_pos_site_id
 _symmetry_equiv_pos_as_xyz
  1  'x, y, z'
loop_
 _atom_site_type_symbol
 _atom_site_label
 _atom_site_symmetry_multiplicity
 _atom_site_fract_x
 _atom_site_fract_y
 _atom_site_fract_z
 _atom_site_occupancy
  K  K0  1  0.50000000  0.50000000  0.00000000  1
  K  K1  1  0.00000000  0.00000000  0.50000000  1
  C  C0  1  0.42061500  0.15798600  0.46704600  1
  C  C1  1  0.42061500  0.84201400  0.53295400  1
  C  C2  1  0.58747200  0.93941700  0.96414100  1
  C  C3  1  0.58747200  0.06058300  0.03585900  1
  C  C4  1  0.91252800  0.43941700  0.53585900  1
  C  C5  1  0.91252800  0.56058300  0.46414100  1
  C  C6  1  0.41252800  0.06058300  0.03585900  1
  C  C7  1  0.41252800  0.93941700  0.96414100  1
  C  C8  1  0.08747200  0.56058300  0.46414100  1
  C  C9  1  0.08747200  0.43941700  0.53585900  1
  C  C10  1  0.66583800  0.96593500  0.87313600  1
  C  C11  1  0.66583800  0.03406500  0.12686400  1
  C  C12  1  0.83416200  0.46593500  0.62686400  1
  C  C13  1  0.83416200  0.53406500  0.37313600  1
  C  C14  1  0.33416200  0.03406500  0.12686400  1
  C  C15  1  0.33416200  0.96593500  0.87313600  1
  C  C16  1  0.16583800  0.53406500  0.37313600  1
  C  C17  1  0.16583800  0.46593500  0.62686400  1
  C  C18  1  0.66507100  0.81398700  0.99703500  1
  C  C19  1  0.66507100  0.18601300  0.00296500  1
  C  C20  1  0.83492900  0.31398700  0.50296500  1
  C  C21  1  0.83492900  0.68601300  0.49703500  1
  C  C22  1  0.33492900  0.18601300  0.00296500  1
  C  C23  1  0.33492900  0.81398700  0.99703500  1
  C  C24  1  0.16507100  0.68601300  0.49703500  1
  C  C25  1  0.16507100  0.31398700  0.50296500  1
  C  C26  1  0.92307100  0.22137400  0.81857700  1
  C  C27  1  0.92307100  0.77862600  0.18142300  1
  C  C28  1  0.57692900  0.72137400  0.68142300  1
  C  C29  1  0.57692900  0.27862600  0.31857700  1
  C  C30  1  0.07692900  0.77862600  0.18142300  1
  C  C31  1  0.07692900  0.22137400  0.81857700  1
  C  C32  1  0.42307100  0.27862600  0.31857700  1
  C  C33  1  0.42307100  0.72137400  0.68142300  1
  C  C34  1  0.00000000  0.78089500  0.80698600  1
  C  C35  1  0.00000000  0.21910500  0.19301400  1
  C  C36  1  0.50000000  0.28089500  0.69301400  1
  C  C37  1  0.50000000  0.71910500  0.30698600  1
  C  C38  1  0.00000000  0.68982400  0.88043500  1
  C  C39  1  0.00000000  0.31017600  0.11956500  1
  C  C40  1  0.50000000  0.18982400  0.61956500  1
  C  C41  1  0.50000000  0.81017600  0.38043500  1
  C  C42  1  0.87196000  0.86176700  0.78880200  1
  C  C43  1  0.87196000  0.13823300  0.21119800  1
  C  C44  1  0.62804000  0.36176700  0.71119800  1
  C  C45  1  0.62804000  0.63823300  0.28880200  1
  C  C46  1  0.12804000  0.13823300  0.21119800  1
  C  C47  1  0.12804000  0.86176700  0.78880200  1
  C  C48  1  0.37196000  0.63823300  0.28880200  1
  C  C49  1  0.37196000  0.36176700  0.71119800  1
  C  C50  1  0.87190300  0.67749900  0.93897200  1
  C  C51  1  0.87190300  0.32250100  0.06102800  1
  C  C52  1  0.62809700  0.17749900  0.56102800  1
  C  C53  1  0.62809700  0.82250100  0.43897200  1
  C  C54  1  0.12809700  0.32250100  0.06102800  1
  C  C55  1  0.12809700  0.67749900  0.93897200  1
  C  C56  1  0.37190300  0.82250100  0.43897200  1
  C  C57  1  0.37190300  0.17749900  0.56102800  1
  C  C58  1  0.84346300  0.10432000  0.78945900  1
  C  C59  1  0.84346300  0.89568000  0.21054100  1
  C  C60  1  0.65653700  0.60432000  0.71054100  1
  C  C61  1  0.65653700  0.39568000  0.28945900  1
  C  C62  1  0.15653700  0.89568000  0.21054100  1
  C  C63  1  0.15653700  0.10432000  0.78945900  1
  C  C64  1  0.34346300  0.39568000  0.28945900  1
  C  C65  1  0.34346300  0.60432000  0.71054100  1
  C  C66  1  0.84362800  0.71824600  0.10579100  1
  C  C67  1  0.84362800  0.28175400  0.89420900  1
  C  C68  1  0.65637200  0.21824600  0.39420900  1
  C  C69  1  0.65637200  0.78175400  0.60579100  1
  C  C70  1  0.15637200  0.28175400  0.89420900  1
  C  C71  1  0.15637200  0.71824600  0.10579100  1
  C  C72  1  0.34362800  0.78175400  0.60579100  1
  C  C73  1  0.34362800  0.21824600  0.39420900  1
  C  C74  1  0.71411700  0.09114300  0.84658800  1
  C  C75  1  0.71411700  0.90885700  0.15341200  1
  C  C76  1  0.78588300  0.59114300  0.65341200  1
  C  C77  1  0.78588300  0.40885700  0.34658800  1
  C  C78  1  0.28588300  0.90885700  0.15341200  1
  C  C79  1  0.28588300  0.09114300  0.84658800  1
  C  C80  1  0.21411700  0.40885700  0.34658800  1
  C  C81  1  0.21411700  0.59114300  0.65341200  1
  C  C82  1  0.71414600  0.79720500  0.08754200  1
  C  C83  1  0.71414600  0.20279500  0.91245800  1
  C  C84  1  0.78585400  0.29720500  0.41245800  1
  C  C85  1  0.78585400  0.70279500  0.58754200  1
  C  C86  1  0.28585400  0.20279500  0.91245800  1
  C  C87  1  0.28585400  0.79720500  0.08754200  1
  C  C88  1  0.21414600  0.70279500  0.58754200  1
  C  C89  1  0.21414600  0.29720500  0.41245800  1
  C  C90  1  0.74787900  0.85106400  0.84601000  1
  C  C91  1  0.74787900  0.14893600  0.15399000  1
  C  C92  1  0.75212100  0.35106400  0.65399000  1
  C  C93  1  0.75212100  0.64893600  0.34601000  1
  C  C94  1  0.25212100  0.14893600  0.15399000  1
  C  C95  1  0.25212100  0.85106400  0.84601000  1
  C  C96  1  0.24787900  0.64893600  0.34601000  1
  C  C97  1  0.24787900  0.35106400  0.65399000  1
  C  C98  1  0.74770500  0.75734200  0.92231800  1
  C  C99  1  0.74770500  0.24265800  0.07768200  1
  C  C100  1  0.75229500  0.25734200  0.57768200  1
  C  C101  1  0.75229500  0.74265800  0.42231800  1
  C  C102  1  0.25229500  0.24265800  0.07768200  1
  C  C103  1  0.25229500  0.75734200  0.92231800  1
  C  C104  1  0.24770500  0.74265800  0.42231800  1
  C  C105  1  0.24770500  0.25734200  0.57768200  1
  C  C106  1  0.92032700  0.99133100  0.75929000  1
  C  C107  1  0.92032700  0.00866900  0.24071000  1
  C  C108  1  0.57967300  0.49133100  0.74071000  1
  C  C109  1  0.57967300  0.50866900  0.25929000  1
  C  C110  1  0.07967300  0.00866900  0.24071000  1
  C  C111  1  0.07967300  0.99133100  0.75929000  1
  C  C112  1  0.42032700  0.50866900  0.25929000  1
  C  C113  1  0.42032700  0.49133100  0.74071000  1
  C  C114  1  0.92061500  0.65798600  0.03295400  1
  C  C115  1  0.92061500  0.34201400  0.96704600  1
  C  C116  1  0.57938500  0.15798600  0.46704600  1
  C  C117  1  0.57938500  0.84201400  0.53295400  1
  C  C118  1  0.07938500  0.34201400  0.96704600  1
  C  C119  1  0.07938500  0.65798600  0.03295400  1
loop_
_geom_bond_atom_site_label_1
_geom_bond_atom_site_label_2
_geom_bond_distance
_geom_bond_site_symmetry_2
C0 C73 1.404253 1_555
C0 C57 1.443732 1_555
C0 C116 1.449356 1_555
C1 C72 1.404253 1_555
C1 C56 1.443732 1_555
C1 C117 1.449356 1_555
C2 C7 1.597003 1_555
C2 C3 1.601259 1_566
C3 C6 1.597003 1_555
C4 C9 1.597003 1_655
C4 C5 1.601259 1_555
C5 C8 1.597003 1_655
C6 C7 1.601259 1_544
C8 C9 1.601259 1_555
C10 C74 1.389421 1_565
C10 C90 1.432524 1_555
C10 C2 1.521789 1_555
C11 C75 1.389421 1_545
C11 C91 1.432524 1_555
C11 C3 1.521789 1_555
C12 C76 1.389421 1_555
C12 C92 1.432524 1_555
C12 C4 1.521789 1_555
C13 C77 1.389421 1_555
C13 C93 1.432524 1_555
C13 C5 1.521789 1_555
C14 C78 1.389421 1_545
C14 C94 1.432524 1_555
C14 C6 1.521789 1_555
C15 C79 1.389421 1_565
C15 C95 1.432524 1_555
C15 C7 1.521789 1_555
C16 C80 1.389421 1_555
C16 C96 1.432524 1_555
C16 C8 1.521789 1_555
C17 C81 1.389421 1_555
C17 C97 1.432524 1_555
C17 C9 1.521789 1_555
C18 C82 1.393965 1_556
C18 C98 1.436055 1_555
C18 C2 1.524012 1_555
C18 K0 3.501985 1_556
C19 C83 1.393965 1_554
C19 C99 1.436055 1_555
C19 C3 1.524012 1_555
C19 K0 3.501985 1_555
C20 C84 1.393965 1_555
C20 C4 1.524012 1_555
C20 K1 3.501985 1_655
C21 C85 1.393965 1_555
C21 C5 1.524012 1_555
C21 K1 3.501985 1_665
C22 C86 1.393965 1_554
C22 C6 1.524012 1_555
C22 K0 3.501985 1_555
C23 C87 1.393965 1_556
C23 C7 1.524012 1_555
C23 K0 3.501985 1_556
C24 C88 1.393965 1_555
C24 C8 1.524012 1_555
C24 K1 3.501985 1_565
C25 C89 1.393965 1_555
C25 C9 1.524012 1_555
C25 K1 3.501985 1_555
C26 C31 1.404516 1_655
C26 C67 1.446456 1_555
C26 C58 1.447101 1_555
C27 C30 1.404516 1_655
C27 C66 1.446456 1_555
C27 C59 1.447101 1_555
C28 C33 1.404516 1_555
C28 C69 1.446456 1_555
C28 C60 1.447101 1_555
C29 C32 1.404516 1_555
C29 C68 1.446456 1_555
C29 C61 1.447101 1_555
C30 C71 1.446456 1_555
C30 C62 1.447101 1_555
C31 C70 1.446456 1_555
C31 C63 1.447101 1_555
C32 C73 1.446456 1_555
C32 C64 1.447101 1_555
C33 C72 1.446456 1_555
C33 C65 1.447101 1_555
C34 C38 1.403313 1_555
C34 C42 1.448509 1_455
C34 C47 1.448509 1_555
C35 C39 1.403313 1_555
C35 C43 1.448509 1_455
C35 C46 1.448509 1_555
C36 C40 1.403313 1_555
C36 C49 1.448509 1_555
C36 C44 1.448509 1_555
C37 C41 1.403313 1_555
C37 C48 1.448509 1_555
C37 C45 1.448509 1_555
C38 C55 1.449041 1_555
C38 C50 1.449041 1_455
C39 C54 1.449041 1_555
C39 C51 1.449041 1_455
C40 C57 1.449041 1_555
C40 C52 1.449041 1_555
C41 C56 1.449041 1_555
C41 C53 1.449041 1_555
C42 C90 1.406896 1_555
C43 C91 1.406896 1_555
C44 C92 1.406896 1_555
C45 C93 1.406896 1_555
C46 C94 1.406896 1_555
C47 C95 1.406896 1_555
C48 C96 1.406896 1_555
C49 C97 1.406896 1_555
C50 C98 1.410499 1_555
C51 C99 1.410499 1_555
C58 C74 1.447288 1_555
C59 C75 1.447288 1_555
C60 C76 1.447288 1_555
C61 C77 1.447288 1_555
C62 C78 1.447288 1_555
C63 C79 1.447288 1_555
C64 C80 1.447288 1_555
C65 C81 1.447288 1_555
C66 C82 1.448665 1_555
C67 C83 1.448665 1_555
C68 C84 1.448665 1_555
C69 C85 1.448665 1_555
C70 C86 1.448665 1_555
C71 C87 1.448665 1_555
C72 C88 1.448665 1_555
C73 C89 1.448665 1_555
C74 C83 1.473499 1_555
C75 C82 1.473499 1_555
C76 C85 1.473499 1_555
C77 C84 1.473499 1_555
C78 C87 1.473499 1_555
C79 C86 1.473499 1_555
C80 C89 1.473499 1_555
C81 C88 1.473499 1_555
C90 C98 1.452074 1_555
C91 C99 1.452074 1_555
C100 C52 1.410499 1_555
C100 C20 1.436055 1_555
C100 C92 1.452074 1_555
C101 C53 1.410499 1_555
C101 C21 1.436055 1_555
C101 C93 1.452074 1_555
C102 C54 1.410499 1_555
C102 C22 1.436055 1_555
C102 C94 1.452074 1_555
C103 C55 1.410499 1_555
C103 C23 1.436055 1_555
C103 C95 1.452074 1_555
C104 C56 1.410499 1_555
C104 C24 1.436055 1_555
C104 C96 1.452074 1_555
C105 C57 1.410499 1_555
C105 C25 1.436055 1_555
C105 C97 1.452074 1_555
C106 C58 1.405912 1_565
C106 C42 1.441678 1_555
C106 C111 1.454614 1_655
C107 C59 1.405912 1_545
C107 C43 1.441678 1_555
C107 C110 1.454614 1_655
C108 C60 1.405912 1_555
C108 C44 1.441678 1_555
C108 C113 1.454614 1_555
C109 C61 1.405912 1_555
C109 C45 1.441678 1_555
C109 C112 1.454614 1_555
C110 C62 1.405912 1_545
C110 C46 1.441678 1_555
C111 C63 1.405912 1_565
C111 C47 1.441678 1_555
C112 C64 1.405912 1_555
C112 C48 1.441678 1_555
C113 C65 1.405912 1_555
C113 C49 1.441678 1_555
C114 C66 1.404253 1_555
C114 C50 1.443732 1_554
C114 C119 1.449356 1_655
C115 C67 1.404253 1_555
C115 C51 1.443732 1_556
C115 C118 1.449356 1_655
C116 C68 1.404253 1_555
C116 C52 1.443732 1_555
C117 C69 1.404253 1_555
C117 C53 1.443732 1_555
C118 C70 1.404253 1_555
C118 C54 1.443732 1_556
C119 C71 1.404253 1_555
C119 C55 1.443732 1_554
