# generated using pymatgen
data_CS2NClO2
_symmetry_space_group_name_H-M   'P 1'
_cell_length_a   5.51225900
_cell_length_b   7.56041400
_cell_length_c   15.36043000
_cell_angle_alpha   90.00000000
_cell_angle_beta   90.00000000
_cell_angle_gamma   90.00000000
_symmetry_Int_Tables_number   1
_chemical_formula_structural   CS2NClO2
_chemical_formula_sum   'C4 S8 N4 Cl4 O8'
_cell_volume   640.14530760
_cell_formula_units_Z   4
loop_
 _symmetry_equiv_pos_site_id
 _symmetry_equiv_pos_as_xyz
  1  'x, y, z'
loop_
 _atom_site_type_symbol
 _atom_site_label
 _atom_site_symmetry_multiplicity
 _atom_site_fract_x
 _atom_site_fract_y
 _atom_site_fract_z
 _atom_site_occupancy
  C  C0  1  0.42294400  0.91971800  0.90469000  1
  C  C1  1  0.92294400  0.08028200  0.09531000  1
  C  C2  1  0.42294400  0.08028200  0.40469000  1
  C  C3  1  0.92294400  0.91971800  0.59531000  1
  S  S0  1  0.66013700  0.83543700  0.64640600  1
  S  S1  1  0.16013700  0.16456300  0.35359400  1
  S  S2  1  0.66013700  0.16456300  0.14640600  1
  S  S3  1  0.16013700  0.83543700  0.85359400  1
  S  S4  1  0.95025700  0.49709100  0.88395200  1
  S  S5  1  0.45025700  0.50290900  0.11604800  1
  S  S6  1  0.95025700  0.50290900  0.38395200  1
  S  S7  1  0.45025700  0.49709100  0.61604800  1
  N  N0  1  0.14328300  0.64055800  0.90218300  1
  N  N1  1  0.64328300  0.35944200  0.09781700  1
  N  N2  1  0.14328300  0.35944200  0.40218300  1
  N  N3  1  0.64328300  0.64055800  0.59781700  1
  Cl  Cl0  1  0.97478400  0.13206100  0.64191600  1
  Cl  Cl1  1  0.47478400  0.86793900  0.35808400  1
  Cl  Cl2  1  0.97478400  0.86793900  0.14191600  1
  Cl  Cl3  1  0.47478400  0.13206100  0.85808400  1
  O  O0  1  0.76072900  0.53284200  0.81884700  1
  O  O1  1  0.26072900  0.46715800  0.18115300  1
  O  O2  1  0.76072900  0.46715800  0.31884700  1
  O  O3  1  0.26072900  0.53284200  0.68115300  1
  O  O4  1  0.05046600  0.85415700  0.54090500  1
  O  O5  1  0.55046600  0.14584300  0.45909500  1
  O  O6  1  0.05046600  0.14584300  0.04090500  1
  O  O7  1  0.55046600  0.85415700  0.95909500  1
loop_
_geom_bond_atom_site_label_1
_geom_bond_atom_site_label_2
_geom_bond_distance
_geom_bond_site_symmetry_2
C0 O7 1.199238 1_555
C0 S3 1.766533 1_555
C0 Cl3 1.780861 1_565
C1 O6 1.199238 1_655
C1 S2 1.766533 1_555
C1 Cl2 1.780861 1_545
C2 O5 1.199238 1_555
C2 S1 1.766533 1_555
C2 Cl1 1.780861 1_545
C3 O4 1.199238 1_655
C3 S0 1.766533 1_555
C3 Cl0 1.780861 1_565
N0 S4 1.545006 1_455
N0 S3 1.654229 1_555
N1 S5 1.545006 1_555
N1 S2 1.654229 1_555
N2 S6 1.545006 1_455
N2 S1 1.654229 1_555
N3 S7 1.545006 1_555
N3 S0 1.654229 1_555
O0 S4 1.471256 1_555
O1 S5 1.471256 1_555
O2 S6 1.471256 1_555
O3 S7 1.471256 1_555
