# generated using pymatgen
data_YCuPb
_symmetry_space_group_name_H-M   'P 1'
_cell_length_a   4.57852558
_cell_length_b   4.57852558
_cell_length_c   7.40210942
_cell_angle_alpha   90.00000000
_cell_angle_beta   90.00000000
_cell_angle_gamma   119.99999771
_symmetry_Int_Tables_number   1
_chemical_formula_structural   YCuPb
_chemical_formula_sum   'Y2 Cu2 Pb2'
_cell_volume   134.38086507
_cell_formula_units_Z   2
loop_
 _symmetry_equiv_pos_site_id
 _symmetry_equiv_pos_as_xyz
  1  'x, y, z'
loop_
 _atom_site_type_symbol
 _atom_site_label
 _atom_site_symmetry_multiplicity
 _atom_site_fract_x
 _atom_site_fract_y
 _atom_site_fract_z
 _atom_site_occupancy
  Y  Y0  1  0.00000000  0.00000000  0.99831180  1
  Y  Y1  1  -0.00000000  0.00000000  0.49831180  1
  Cu  Cu0  1  0.66666700  0.33333300  0.32562533  1
  Cu  Cu1  1  0.33333300  0.66666700  0.82562533  1
  Pb  Pb0  1  0.33333300  0.66666700  0.22786287  1
  Pb  Pb1  1  0.66666700  0.33333300  0.72786287  1
loop_
_geom_bond_atom_site_label_1
_geom_bond_atom_site_label_2
_geom_bond_distance
_geom_bond_site_symmetry_2
Cu0 Pb0 2.740672 1_545
Cu0 Pb0 2.740672 1_655
Cu0 Pb0 2.740680 1_555
Cu0 Y1 2.936244 1_655
Cu0 Y1 2.936247 1_665
Cu0 Y1 2.936247 1_555
Cu0 Pb1 2.977406 1_555
Cu1 Pb1 2.740672 1_565
Cu1 Pb1 2.740672 1_455
Cu1 Pb1 2.740680 1_555
Cu1 Y0 2.936244 1_565
Cu1 Y0 2.936247 1_555
Cu1 Y0 2.936247 1_665
Cu1 Pb0 2.977406 1_556
Pb0 Y0 3.142415 1_564
Pb0 Y0 3.142418 1_554
Pb0 Y0 3.142418 1_664
Pb0 Y1 3.315900 1_565
Pb0 Y1 3.315903 1_665
Pb0 Y1 3.315903 1_555
Pb1 Y1 3.142415 1_655
Pb1 Y1 3.142418 1_555
Pb1 Y1 3.142418 1_665
Pb1 Y0 3.315900 1_655
Pb1 Y0 3.315903 1_555
Pb1 Y0 3.315903 1_665
