# generated using pymatgen
data_MgTe4Mo3W(SeS)2
_symmetry_space_group_name_H-M   'P 1'
_cell_length_a   6.77240805
_cell_length_b   6.77254913
_cell_length_c   77.19548208
_cell_angle_alpha   89.99805261
_cell_angle_beta   89.99671362
_cell_angle_gamma   120.01253036
_symmetry_Int_Tables_number   1
_chemical_formula_structural   MgTe4Mo3W(SeS)2
_chemical_formula_sum   'Mg8 Te32 Mo24 W8 Se16 S16'
_cell_volume   3065.93501192
_cell_formula_units_Z   8
loop_
 _symmetry_equiv_pos_site_id
 _symmetry_equiv_pos_as_xyz
  1  'x, y, z'
loop_
 _atom_site_type_symbol
 _atom_site_label
 _atom_site_symmetry_multiplicity
 _atom_site_fract_x
 _atom_site_fract_y
 _atom_site_fract_z
 _atom_site_occupancy
  Mg  Mg0_0  1  0.17536450  0.32933000  0.44106150  1
  Mg  Mg0_1  1  0.17536450  0.32933000  0.94106150  1
  Mg  Mg0_2  1  0.17536450  0.82933000  0.44106150  1
  Mg  Mg0_3  1  0.17536450  0.82933000  0.94106150  1
  Mg  Mg0_4  1  0.67536450  0.32933000  0.44106150  1
  Mg  Mg0_5  1  0.67536450  0.32933000  0.94106150  1
  Mg  Mg0_6  1  0.67536450  0.82933000  0.44106150  1
  Mg  Mg0_7  1  0.67536450  0.82933000  0.94106150  1
  Te  Te0_0  1  0.16669650  0.33332900  0.16525500  1
  Te  Te0_1  1  0.16669650  0.33332900  0.66525500  1
  Te  Te0_2  1  0.16669650  0.83332900  0.16525500  1
  Te  Te0_3  1  0.16669650  0.83332900  0.66525500  1
  Te  Te0_4  1  0.66669650  0.33332900  0.16525500  1
  Te  Te0_5  1  0.66669650  0.33332900  0.66525500  1
  Te  Te0_6  1  0.66669650  0.83332900  0.16525500  1
  Te  Te0_7  1  0.66669650  0.83332900  0.66525500  1
  Te  Te1_0  1  0.16675900  0.33333850  0.35312750  1
  Te  Te1_1  1  0.16675900  0.33333850  0.85312750  1
  Te  Te1_2  1  0.16675900  0.83333850  0.35312750  1
  Te  Te1_3  1  0.16675900  0.83333850  0.85312750  1
  Te  Te1_4  1  0.66675900  0.33333850  0.35312750  1
  Te  Te1_5  1  0.66675900  0.33333850  0.85312750  1
  Te  Te1_6  1  0.66675900  0.83333850  0.35312750  1
  Te  Te1_7  1  0.66675900  0.83333850  0.85312750  1
  Te  Te2_0  1  0.16675600  0.33336750  0.11661600  1
  Te  Te2_1  1  0.16675600  0.33336750  0.61661600  1
  Te  Te2_2  1  0.16675600  0.83336750  0.11661600  1
  Te  Te2_3  1  0.16675600  0.83336750  0.61661600  1
  Te  Te2_4  1  0.66675600  0.33336750  0.11661600  1
  Te  Te2_5  1  0.66675600  0.33336750  0.61661600  1
  Te  Te2_6  1  0.66675600  0.83336750  0.11661600  1
  Te  Te2_7  1  0.66675600  0.83336750  0.61661600  1
  Te  Te3_0  1  0.16681550  0.33337800  0.30443650  1
  Te  Te3_1  1  0.16681550  0.33337800  0.80443650  1
  Te  Te3_2  1  0.16681550  0.83337800  0.30443650  1
  Te  Te3_3  1  0.16681550  0.83337800  0.80443650  1
  Te  Te3_4  1  0.66681550  0.33337800  0.30443650  1
  Te  Te3_5  1  0.66681550  0.33337800  0.80443650  1
  Te  Te3_6  1  0.66681550  0.83337800  0.30443650  1
  Te  Te3_7  1  0.66681550  0.83337800  0.80443650  1
  Mo  Mo0_0  1  0.16673900  0.33330700  0.04688900  1
  Mo  Mo0_1  1  0.16673900  0.33330700  0.54688900  1
  Mo  Mo0_2  1  0.16673900  0.83330700  0.04688900  1
  Mo  Mo0_3  1  0.16673900  0.83330700  0.54688900  1
  Mo  Mo0_4  1  0.66673900  0.33330700  0.04688900  1
  Mo  Mo0_5  1  0.66673900  0.33330700  0.54688900  1
  Mo  Mo0_6  1  0.66673900  0.83330700  0.04688900  1
  Mo  Mo0_7  1  0.66673900  0.83330700  0.54688900  1
  Mo  Mo1_0  1  0.33339450  0.16669350  0.14092300  1
  Mo  Mo1_1  1  0.33339450  0.16669350  0.64092300  1
  Mo  Mo1_2  1  0.33339450  0.66669350  0.14092300  1
  Mo  Mo1_3  1  0.33339450  0.66669350  0.64092300  1
  Mo  Mo1_4  1  0.83339450  0.16669350  0.14092300  1
  Mo  Mo1_5  1  0.83339450  0.16669350  0.64092300  1
  Mo  Mo1_6  1  0.83339450  0.66669350  0.14092300  1
  Mo  Mo1_7  1  0.83339450  0.66669350  0.64092300  1
  Mo  Mo2_0  1  0.33344150  0.16669950  0.32880700  1
  Mo  Mo2_1  1  0.33344150  0.16669950  0.82880700  1
  Mo  Mo2_2  1  0.33344150  0.66669950  0.32880700  1
  Mo  Mo2_3  1  0.33344150  0.66669950  0.82880700  1
  Mo  Mo2_4  1  0.83344150  0.16669950  0.32880700  1
  Mo  Mo2_5  1  0.83344150  0.16669950  0.82880700  1
  Mo  Mo2_6  1  0.83344150  0.66669950  0.32880700  1
  Mo  Mo2_7  1  0.83344150  0.66669950  0.82880700  1
  W  W0_0  1  0.16671450  0.33329350  0.23484750  1
  W  W0_1  1  0.16671450  0.33329350  0.73484750  1
  W  W0_2  1  0.16671450  0.83329350  0.23484750  1
  W  W0_3  1  0.16671450  0.83329350  0.73484750  1
  W  W0_4  1  0.66671450  0.33329350  0.23484750  1
  W  W0_5  1  0.66671450  0.33329350  0.73484750  1
  W  W0_6  1  0.66671450  0.83329350  0.23484750  1
  W  W0_7  1  0.66671450  0.83329350  0.73484750  1
  Se  Se0_0  1  0.33342550  0.16665550  0.02550850  1
  Se  Se0_1  1  0.33342550  0.16665550  0.52550850  1
  Se  Se0_2  1  0.33342550  0.66665550  0.02550850  1
  Se  Se0_3  1  0.33342550  0.66665550  0.52550850  1
  Se  Se0_4  1  0.83342550  0.16665550  0.02550850  1
  Se  Se0_5  1  0.83342550  0.16665550  0.52550850  1
  Se  Se0_6  1  0.83342550  0.66665550  0.02550850  1
  Se  Se0_7  1  0.83342550  0.66665550  0.52550850  1
  Se  Se1_0  1  0.33339900  0.16662300  0.06835750  1
  Se  Se1_1  1  0.33339900  0.16662300  0.56835750  1
  Se  Se1_2  1  0.33339900  0.66662300  0.06835750  1
  Se  Se1_3  1  0.33339900  0.66662300  0.56835750  1
  Se  Se1_4  1  0.83339900  0.16662300  0.06835750  1
  Se  Se1_5  1  0.83339900  0.16662300  0.56835750  1
  Se  Se1_6  1  0.83339900  0.66662300  0.06835750  1
  Se  Se1_7  1  0.83339900  0.66662300  0.56835750  1
  S  S0_0  1  0.33337250  0.16668300  0.21529100  1
  S  S0_1  1  0.33337250  0.16668300  0.71529100  1
  S  S0_2  1  0.33337250  0.66668300  0.21529100  1
  S  S0_3  1  0.33337250  0.66668300  0.71529100  1
  S  S0_4  1  0.83337250  0.16668300  0.21529100  1
  S  S0_5  1  0.83337250  0.16668300  0.71529100  1
  S  S0_6  1  0.83337250  0.66668300  0.21529100  1
  S  S0_7  1  0.83337250  0.66668300  0.71529100  1
  S  S1_0  1  0.33334050  0.16665450  0.25436850  1
  S  S1_1  1  0.33334050  0.16665450  0.75436850  1
  S  S1_2  1  0.33334050  0.66665450  0.25436850  1
  S  S1_3  1  0.33334050  0.66665450  0.75436850  1
  S  S1_4  1  0.83334050  0.16665450  0.25436850  1
  S  S1_5  1  0.83334050  0.16665450  0.75436850  1
  S  S1_6  1  0.83334050  0.66665450  0.25436850  1
  S  S1_7  1  0.83334050  0.66665450  0.75436850  1
loop_
_geom_bond_atom_site_label_1
_geom_bond_atom_site_label_2
_geom_bond_distance
_geom_bond_site_symmetry_2
Mg0_0 Mg0_6 3.385598 1_555
Mg0_0 Mg0_6 3.385598 1_445
Mg0_0 Mg0_4 3.386204 1_455
Mg0_0 Mg0_4 3.386204 1_555
Mg0_0 Mg0_2 3.386275 1_545
Mg0_0 Mg0_2 3.386275 1_555
Mg0_1 Mg0_7 3.385598 1_445
Mg0_1 Mg0_7 3.385598 1_555
Mg0_1 Mg0_5 3.386204 1_555
Mg0_1 Mg0_5 3.386204 1_455
Mg0_1 Mg0_3 3.386275 1_545
Mg0_1 Mg0_3 3.386275 1_555
Mg0_2 Mg0_4 3.385598 1_565
Mg0_2 Mg0_4 3.385598 1_455
Mg0_2 Mg0_6 3.386204 1_555
Mg0_2 Mg0_6 3.386204 1_455
Mg0_3 Mg0_5 3.385598 1_565
Mg0_3 Mg0_5 3.385598 1_455
Mg0_3 Mg0_7 3.386204 1_555
Mg0_3 Mg0_7 3.386204 1_455
Mg0_4 Mg0_6 3.386275 1_545
Mg0_4 Mg0_6 3.386275 1_555
Mg0_5 Mg0_7 3.386275 1_545
Mg0_5 Mg0_7 3.386275 1_555
Mo0_0 Se0_2 2.558374 1_555
Mo0_0 Se0_4 2.558386 1_455
Mo0_0 Se0_0 2.558669 1_555
Mo0_0 Se1_4 2.562675 1_455
Mo0_0 Se1_2 2.562799 1_555
Mo0_0 Se1_0 2.563117 1_555
Mo0_1 Se0_3 2.558374 1_555
Mo0_1 Se0_5 2.558386 1_455
Mo0_1 Se0_1 2.558669 1_555
Mo0_1 Se1_5 2.562675 1_455
Mo0_1 Se1_3 2.562799 1_555
Mo0_1 Se1_1 2.563117 1_555
Mo0_2 Se0_0 2.558374 1_565
Mo0_2 Se0_6 2.558386 1_455
Mo0_2 Se0_2 2.558669 1_555
Mo0_2 Se1_6 2.562675 1_455
Mo0_2 Se1_0 2.562799 1_565
Mo0_2 Se1_2 2.563117 1_555
Mo0_3 Se0_1 2.558374 1_565
Mo0_3 Se0_7 2.558386 1_455
Mo0_3 Se0_3 2.558669 1_555
Mo0_3 Se1_7 2.562675 1_455
Mo0_3 Se1_1 2.562799 1_565
Mo0_3 Se1_3 2.563117 1_555
Mo0_4 Se0_6 2.558374 1_555
Mo0_4 Se0_0 2.558386 1_555
Mo0_4 Se0_4 2.558669 1_555
Mo0_4 Se1_0 2.562675 1_555
Mo0_4 Se1_6 2.562799 1_555
Mo0_4 Se1_4 2.563117 1_555
Mo0_5 Se0_7 2.558374 1_555
Mo0_5 Se0_1 2.558386 1_555
Mo0_5 Se0_5 2.558669 1_555
Mo0_5 Se1_1 2.562675 1_555
Mo0_5 Se1_7 2.562799 1_555
Mo0_5 Se1_5 2.563117 1_555
Mo0_6 Se0_4 2.558374 1_565
Mo0_6 Se0_2 2.558386 1_555
Mo0_6 Se0_6 2.558669 1_555
Mo0_6 Se1_2 2.562675 1_555
Mo0_6 Se1_4 2.562799 1_565
Mo0_6 Se1_6 2.563117 1_555
Mo0_7 Se0_5 2.558374 1_565
Mo0_7 Se0_3 2.558386 1_555
Mo0_7 Se0_7 2.558669 1_555
Mo0_7 Se1_3 2.562675 1_555
Mo0_7 Se1_5 2.562799 1_565
Mo0_7 Se1_7 2.563117 1_555
Mo1_0 Te2_4 2.709616 1_555
Mo1_0 Te2_2 2.709709 1_545
Mo1_0 Te2_0 2.709825 1_555
Mo1_0 Te0_4 2.710934 1_555
Mo1_0 Te0_2 2.711013 1_545
Mo1_0 Te0_0 2.711214 1_555
Mo1_1 Te2_5 2.709616 1_555
Mo1_1 Te2_3 2.709709 1_545
Mo1_1 Te2_1 2.709825 1_555
Mo1_1 Te0_5 2.710934 1_555
Mo1_1 Te0_3 2.711013 1_545
Mo1_1 Te0_1 2.711214 1_555
Mo1_2 Te2_6 2.709616 1_555
Mo1_2 Te2_0 2.709709 1_555
Mo1_2 Te2_2 2.709825 1_555
Mo1_2 Te0_6 2.710934 1_555
Mo1_2 Te0_0 2.711013 1_555
Mo1_2 Te0_2 2.711214 1_555
Mo1_3 Te2_7 2.709616 1_555
Mo1_3 Te2_1 2.709709 1_555
Mo1_3 Te2_3 2.709825 1_555
Mo1_3 Te0_7 2.710934 1_555
Mo1_3 Te0_1 2.711013 1_555
Mo1_3 Te0_3 2.711214 1_555
Mo1_4 Te2_0 2.709616 1_655
Mo1_4 Te2_6 2.709709 1_545
Mo1_4 Te2_4 2.709825 1_555
Mo1_4 Te0_0 2.710934 1_655
Mo1_4 Te0_6 2.711013 1_545
Mo1_4 Te0_4 2.711214 1_555
Mo1_5 Te2_1 2.709616 1_655
Mo1_5 Te2_7 2.709709 1_545
Mo1_5 Te2_5 2.709825 1_555
Mo1_5 Te0_1 2.710934 1_655
Mo1_5 Te0_7 2.711013 1_545
Mo1_5 Te0_5 2.711214 1_555
Mo1_6 Te2_2 2.709616 1_655
Mo1_6 Te2_4 2.709709 1_555
Mo1_6 Te2_6 2.709825 1_555
Mo1_6 Te0_2 2.710934 1_655
Mo1_6 Te0_4 2.711013 1_555
Mo1_6 Te0_6 2.711214 1_555
Mo1_7 Te2_3 2.709616 1_655
Mo1_7 Te2_5 2.709709 1_555
Mo1_7 Te2_7 2.709825 1_555
Mo1_7 Te0_3 2.710934 1_655
Mo1_7 Te0_5 2.711013 1_555
Mo1_7 Te0_7 2.711214 1_555
Mo2_0 Te1_2 2.710383 1_545
Mo2_0 Te1_4 2.710384 1_555
Mo2_0 Te1_0 2.710548 1_555
Mo2_0 Te3_4 2.713065 1_555
Mo2_0 Te3_2 2.713087 1_545
Mo2_0 Te3_0 2.713188 1_555
Mo2_1 Te1_3 2.710383 1_545
Mo2_1 Te1_5 2.710384 1_555
Mo2_1 Te1_1 2.710548 1_555
Mo2_1 Te3_5 2.713065 1_555
Mo2_1 Te3_3 2.713087 1_545
Mo2_1 Te3_1 2.713188 1_555
Mo2_2 Te1_0 2.710383 1_555
Mo2_2 Te1_6 2.710384 1_555
Mo2_2 Te1_2 2.710548 1_555
Mo2_2 Te3_6 2.713065 1_555
Mo2_2 Te3_0 2.713087 1_555
Mo2_2 Te3_2 2.713188 1_555
Mo2_3 Te1_1 2.710383 1_555
Mo2_3 Te1_7 2.710384 1_555
Mo2_3 Te1_3 2.710548 1_555
Mo2_3 Te3_7 2.713065 1_555
Mo2_3 Te3_1 2.713087 1_555
Mo2_3 Te3_3 2.713188 1_555
Mo2_4 Te1_6 2.710383 1_545
Mo2_4 Te1_0 2.710384 1_655
Mo2_4 Te1_4 2.710548 1_555
Mo2_4 Te3_0 2.713065 1_655
Mo2_4 Te3_6 2.713087 1_545
Mo2_4 Te3_4 2.713188 1_555
Mo2_5 Te1_7 2.710383 1_545
Mo2_5 Te1_1 2.710384 1_655
Mo2_5 Te1_5 2.710548 1_555
Mo2_5 Te3_1 2.713065 1_655
Mo2_5 Te3_7 2.713087 1_545
Mo2_5 Te3_5 2.713188 1_555
Mo2_6 Te1_4 2.710383 1_555
Mo2_6 Te1_2 2.710384 1_655
Mo2_6 Te1_6 2.710548 1_555
Mo2_6 Te3_2 2.713065 1_655
Mo2_6 Te3_4 2.713087 1_555
Mo2_6 Te3_6 2.713188 1_555
Mo2_7 Te1_5 2.710383 1_555
Mo2_7 Te1_3 2.710384 1_655
Mo2_7 Te1_7 2.710548 1_555
Mo2_7 Te3_3 2.713065 1_655
Mo2_7 Te3_5 2.713087 1_555
Mo2_7 Te3_7 2.713188 1_555
S0_0 W0_0 2.469865 1_555
S0_0 W0_4 2.470016 1_555
S0_0 W0_2 2.470080 1_545
S0_1 W0_1 2.469865 1_555
S0_1 W0_5 2.470016 1_555
S0_1 W0_3 2.470080 1_545
S0_2 W0_2 2.469865 1_555
S0_2 W0_6 2.470016 1_555
S0_2 W0_0 2.470080 1_555
S0_3 W0_3 2.469865 1_555
S0_3 W0_7 2.470016 1_555
S0_3 W0_1 2.470080 1_555
S0_4 W0_4 2.469865 1_555
S0_4 W0_0 2.470016 1_655
S0_4 W0_6 2.470080 1_545
S0_5 W0_5 2.469865 1_555
S0_5 W0_1 2.470016 1_655
S0_5 W0_7 2.470080 1_545
S0_6 W0_6 2.469865 1_555
S0_6 W0_2 2.470016 1_655
S0_6 W0_4 2.470080 1_555
S0_7 W0_7 2.469865 1_555
S0_7 W0_3 2.470016 1_655
S0_7 W0_5 2.470080 1_555
S1_0 W0_0 2.468207 1_555
S1_0 W0_4 2.468286 1_555
S1_0 W0_2 2.468447 1_545
S1_1 W0_1 2.468207 1_555
S1_1 W0_5 2.468286 1_555
S1_1 W0_3 2.468447 1_545
S1_2 W0_2 2.468207 1_555
S1_2 W0_6 2.468286 1_555
S1_2 W0_0 2.468447 1_555
S1_3 W0_3 2.468207 1_555
S1_3 W0_7 2.468286 1_555
S1_3 W0_1 2.468447 1_555
S1_4 W0_4 2.468207 1_555
S1_4 W0_0 2.468286 1_655
S1_4 W0_6 2.468447 1_545
S1_5 W0_5 2.468207 1_555
S1_5 W0_1 2.468286 1_655
S1_5 W0_7 2.468447 1_545
S1_6 W0_6 2.468207 1_555
S1_6 W0_2 2.468286 1_655
S1_6 W0_4 2.468447 1_555
S1_7 W0_7 2.468207 1_555
S1_7 W0_3 2.468286 1_655
S1_7 W0_5 2.468447 1_555
