# generated using pymatgen
data_Pb2O3
_symmetry_space_group_name_H-M   'P 1'
_cell_length_a   5.68097231
_cell_length_b   7.60067163
_cell_length_c   7.85062154
_cell_angle_alpha   67.07269080
_cell_angle_beta   90.00000000
_cell_angle_gamma   90.00000000
_symmetry_Int_Tables_number   1
_chemical_formula_structural   Pb2O3
_chemical_formula_sum   'Pb8 O12'
_cell_volume   312.20383581
_cell_formula_units_Z   4
loop_
 _symmetry_equiv_pos_site_id
 _symmetry_equiv_pos_as_xyz
  1  'x, y, z'
loop_
 _atom_site_type_symbol
 _atom_site_label
 _atom_site_symmetry_multiplicity
 _atom_site_fract_x
 _atom_site_fract_y
 _atom_site_fract_z
 _atom_site_occupancy
  Pb  Pb0  1  0.75435687  0.08860114  0.88293811  1
  Pb  Pb1  1  0.25435687  0.91139886  0.61706189  1
  Pb  Pb2  1  0.24564313  0.91139886  0.11706189  1
  Pb  Pb3  1  0.74564313  0.08860114  0.38293811  1
  Pb  Pb4  1  0.74169656  0.61225745  0.85385280  1
  Pb  Pb5  1  0.24169656  0.38774255  0.64614720  1
  Pb  Pb6  1  0.25830344  0.38774255  0.14614720  1
  Pb  Pb7  1  0.75830344  0.61225745  0.35385280  1
  O  O0  1  0.62692466  0.36872257  0.73486691  1
  O  O1  1  0.12692466  0.63127743  0.76513309  1
  O  O2  1  0.37307534  0.63127743  0.26513309  1
  O  O3  1  0.87307534  0.36872257  0.23486691  1
  O  O4  1  0.90880329  0.80944940  0.05043084  1
  O  O5  1  0.40880329  0.19055060  0.44956916  1
  O  O6  1  0.09119671  0.19055060  0.94956916  1
  O  O7  1  0.59119671  0.80944940  0.55043084  1
  O  O8  1  0.43250456  0.93369731  0.85960165  1
  O  O9  1  0.93250456  0.06630269  0.64039835  1
  O  O10  1  0.56749544  0.06630269  0.14039835  1
  O  O11  1  0.06749544  0.93369731  0.35960165  1
loop_
_geom_bond_atom_site_label_1
_geom_bond_atom_site_label_2
_geom_bond_distance
_geom_bond_site_symmetry_2
O0 Pb0 2.116640 1_555
O0 Pb5 2.284069 1_555
O0 Pb4 2.463973 1_555
O1 Pb1 2.116640 1_555
O1 Pb4 2.284069 1_455
O1 Pb5 2.463973 1_555
O2 Pb2 2.116640 1_555
O2 Pb7 2.284069 1_555
O2 Pb6 2.463973 1_555
O3 Pb3 2.116640 1_555
O3 Pb6 2.284069 1_655
O3 Pb7 2.463973 1_555
O4 Pb0 2.197030 1_564
O4 Pb2 2.202649 1_655
O4 Pb7 2.422790 1_555
O4 Pb4 2.707654 1_554
O5 Pb1 2.197030 1_545
O5 Pb3 2.202649 1_555
O5 Pb6 2.422790 1_555
O5 Pb5 2.707654 1_555
O6 Pb2 2.197030 1_546
O6 Pb0 2.202649 1_455
O6 Pb5 2.422790 1_555
O6 Pb6 2.707654 1_556
O7 Pb3 2.197030 1_565
O7 Pb1 2.202649 1_555
O7 Pb4 2.422790 1_555
O7 Pb7 2.707654 1_555
O8 Pb1 2.220351 1_555
O8 Pb0 2.220586 1_565
O8 Pb2 2.230261 1_556
O9 Pb0 2.220351 1_555
O9 Pb1 2.220586 1_645
O9 Pb3 2.230261 1_555
O10 Pb3 2.220351 1_555
O10 Pb2 2.220586 1_545
O10 Pb0 2.230261 1_554
O11 Pb2 2.220351 1_555
O11 Pb3 2.220586 1_465
O11 Pb1 2.230261 1_555
