# generated using pymatgen
data_MgMoH2O5
_symmetry_space_group_name_H-M   'P 1'
_cell_length_a   5.64020664
_cell_length_b   5.80428100
_cell_length_c   6.87881273
_cell_angle_alpha   100.65008233
_cell_angle_beta   95.14264597
_cell_angle_gamma   106.12633135
_symmetry_Int_Tables_number   1
_chemical_formula_structural   MgMoH2O5
_chemical_formula_sum   'Mg2 Mo2 H4 O10'
_cell_volume   210.22316735
_cell_formula_units_Z   2
loop_
 _symmetry_equiv_pos_site_id
 _symmetry_equiv_pos_as_xyz
  1  'x, y, z'
loop_
 _atom_site_type_symbol
 _atom_site_label
 _atom_site_symmetry_multiplicity
 _atom_site_fract_x
 _atom_site_fract_y
 _atom_site_fract_z
 _atom_site_occupancy
  Mg  Mg0  1  0.64123051  0.70660848  0.19281309  1
  Mg  Mg1  1  0.35876949  0.29339152  0.80718691  1
  Mo  Mo0  1  0.74591372  0.87979083  0.74827942  1
  Mo  Mo1  1  0.25408628  0.12020917  0.25172058  1
  H  H0  1  0.07820017  0.59485497  0.18839267  1
  H  H1  1  0.92179983  0.40514503  0.81160733  1
  H  H2  1  0.87285256  0.35021288  0.19581168  1
  H  H3  1  0.12714744  0.64978712  0.80418832  1
  O  O0  1  0.37982694  0.35993145  0.12389257  1
  O  O1  1  0.62017306  0.64006855  0.87610743  1
  O  O2  1  0.35557979  0.86269146  0.17150530  1
  O  O3  1  0.64442021  0.13730854  0.82849470  1
  O  O4  1  0.35577223  0.23117927  0.50570093  1
  O  O5  1  0.64422777  0.76882073  0.49429907  1
  O  O6  1  0.92277868  0.03038554  0.20704609  1
  O  O7  1  0.07722132  0.96961446  0.79295391  1
  O  O8  1  0.09018111  0.47199976  0.78228025  1
  O  O9  1  0.90981889  0.52800024  0.21771975  1
loop_
_geom_bond_atom_site_label_1
_geom_bond_atom_site_label_2
_geom_bond_distance
_geom_bond_site_symmetry_2
Mg0 O5 2.035957 1_555
Mg0 O2 2.062896 1_555
Mg0 O9 2.071359 1_555
Mg0 O6 2.075896 1_565
Mg0 O0 2.078832 1_555
Mg0 O1 2.127563 1_554
Mg1 O4 2.035957 1_555
Mg1 O3 2.062896 1_555
Mg1 O8 2.071359 1_555
Mg1 O7 2.075896 1_545
Mg1 O1 2.078832 1_555
Mg1 O0 2.127563 1_556
Mo0 O5 1.730701 1_555
Mo0 O3 1.758806 1_565
Mo0 O7 1.776152 1_655
Mo0 O1 1.796670 1_555
Mo1 O4 1.730701 1_555
Mo1 O2 1.758806 1_545
Mo1 O6 1.776152 1_455
Mo1 O0 1.796670 1_555
H0 O9 0.975590 1_455
H1 O8 0.975590 1_655
H2 O9 0.973870 1_555
H3 O8 0.973870 1_555
