# generated using pymatgen
data_MgCuH4(OF)2
_symmetry_space_group_name_H-M   'P 1'
_cell_length_a   6.46239602
_cell_length_b   6.46239602
_cell_length_c   3.04516667
_cell_angle_alpha   77.59694238
_cell_angle_beta   102.40305762
_cell_angle_gamma   77.66625422
_symmetry_Int_Tables_number   1
_chemical_formula_structural   MgCuH4(OF)2
_chemical_formula_sum   'Mg1 Cu1 H4 O2 F2'
_cell_volume   116.72300631
_cell_formula_units_Z   1
loop_
 _symmetry_equiv_pos_site_id
 _symmetry_equiv_pos_as_xyz
  1  'x, y, z'
loop_
 _atom_site_type_symbol
 _atom_site_label
 _atom_site_symmetry_multiplicity
 _atom_site_fract_x
 _atom_site_fract_y
 _atom_site_fract_z
 _atom_site_occupancy
  Mg  Mg0  1  0.50000000  0.50000000  0.50000000  1
  Cu  Cu0  1  -0.00000000  -0.00000000  -0.00000000  1
  H  H0  1  0.35219798  0.13987123  0.10020173  1
  H  H1  1  0.86012877  0.64780202  0.10020173  1
  H  H2  1  0.64780202  0.86012877  0.89979827  1
  H  H3  1  0.13987123  0.35219798  0.89979827  1
  O  O0  1  0.18906291  0.18906291  -0.00000000  1
  O  O1  1  0.81093709  0.81093709  -0.00000000  1
  F  F0  1  0.33512528  0.66487472  0.85091505  1
  F  F1  1  0.66487472  0.33512528  0.14908495  1
loop_
_geom_bond_atom_site_label_1
_geom_bond_atom_site_label_2
_geom_bond_distance
_geom_bond_site_symmetry_2
Cu0 O1 1.903504 1_445
Cu0 O0 1.903504 1_555
H0 O0 0.991242 1_555
H1 O1 0.991242 1_555
H2 O1 0.991242 1_556
H3 O0 0.991242 1_556
F0 Mg0 1.970528 1_556
F0 Mg0 1.976265 1_555
F1 Mg0 1.970528 1_554
F1 Mg0 1.976265 1_555
