# generated using pymatgen
data_Ba2EuMgCu3O7
_symmetry_space_group_name_H-M   'P 1'
_cell_length_a   3.76717654
_cell_length_b   3.93942681
_cell_length_c   14.72555233
_cell_angle_alpha   90.00323541
_cell_angle_beta   89.82451791
_cell_angle_gamma   89.98411962
_symmetry_Int_Tables_number   1
_chemical_formula_structural   Ba2EuMgCu3O7
_chemical_formula_sum   'Ba2 Eu1 Mg1 Cu3 O7'
_cell_volume   218.53376524
_cell_formula_units_Z   1
loop_
 _symmetry_equiv_pos_site_id
 _symmetry_equiv_pos_as_xyz
  1  'x, y, z'
loop_
 _atom_site_type_symbol
 _atom_site_label
 _atom_site_symmetry_multiplicity
 _atom_site_fract_x
 _atom_site_fract_y
 _atom_site_fract_z
 _atom_site_occupancy
  Ba  Ba0  1  0.50084089  0.50000094  0.91354501  1
  Ba  Ba1  1  0.50015780  0.49999982  0.22328058  1
  Eu  Eu0  1  0.50030041  0.50000370  0.47956076  1
  Mg  Mg0  1  0.49979846  -0.00000647  0.72511113  1
  Cu  Cu0  1  0.00004930  0.00000196  0.58671975  1
  Cu  Cu1  1  0.00001821  0.00001289  0.06436103  1
  Cu  Cu2  1  0.00028333  -0.00000465  0.35975088  1
  O  O0  1  0.00071414  0.49999652  0.37055131  1
  O  O1  1  0.00004656  0.00000072  0.19532550  1
  O  O2  1  0.50003363  -0.00001970  0.38145707  1
  O  O3  1  0.49989320  0.00001874  0.59376199  1
  O  O4  1  -0.00088272  0.50000012  0.57836072  1
  O  O5  1  -0.00049769  0.00000369  0.79234515  1
  O  O6  1  -0.00075551  0.49999272  0.02475711  1
loop_
_geom_bond_atom_site_label_1
_geom_bond_atom_site_label_2
_geom_bond_distance
_geom_bond_site_symmetry_2
Ba0 O6 2.495205 1_656
Ba0 O6 2.496712 1_556
Ba1 O1 2.754750 1_655
Ba1 O1 2.755534 1_665
Ba1 O1 2.757084 1_565
Ba1 O1 2.757792 1_555
Ba1 O0 2.866711 1_555
Ba1 O0 2.878171 1_655
Ba1 O2 3.050292 1_565
Ba1 O2 3.050562 1_555
Eu0 O4 2.380035 1_655
Eu0 O4 2.380037 1_555
Eu0 O2 2.442682 1_565
Eu0 O2 2.442700 1_555
Eu0 O0 2.472243 1_655
Eu0 O0 2.477355 1_555
Eu0 O3 2.589913 1_565
Eu0 O3 2.589968 1_555
Mg0 O3 1.934188 1_555
Mg0 O5 2.126239 1_555
Mg0 O5 2.129633 1_655
Cu0 O3 1.886171 1_555
Cu0 O3 1.886711 1_455
Cu0 O4 1.973558 1_555
Cu0 O4 1.973561 1_545
Cu1 O1 1.928524 1_555
Cu1 O6 2.054194 1_555
Cu1 O6 2.054285 1_545
Cu2 O2 1.910478 1_455
Cu2 O2 1.910554 1_555
Cu2 O0 1.976121 1_555
Cu2 O0 1.976129 1_545
Cu2 O1 2.421257 1_555
