# generated using pymatgen
data_MgMn3Cu3O8
_symmetry_space_group_name_H-M   'P 1'
_cell_length_a   6.35874590
_cell_length_b   6.35874609
_cell_length_c   6.35874651
_cell_angle_alpha   56.19778500
_cell_angle_beta   56.19777584
_cell_angle_gamma   56.19777596
_symmetry_Int_Tables_number   1
_chemical_formula_structural   MgMn3Cu3O8
_chemical_formula_sum   'Mg1 Mn3 Cu3 O8'
_cell_volume   165.80247696
_cell_formula_units_Z   1
loop_
 _symmetry_equiv_pos_site_id
 _symmetry_equiv_pos_as_xyz
  1  'x, y, z'
loop_
 _atom_site_type_symbol
 _atom_site_label
 _atom_site_symmetry_multiplicity
 _atom_site_fract_x
 _atom_site_fract_y
 _atom_site_fract_z
 _atom_site_occupancy
  Mg  Mg0  1  0.12500000  0.12500000  0.12500000  1
  Mn  Mn0  1  0.12500000  0.62500000  0.62500000  1
  Mn  Mn1  1  0.62500000  0.12500000  0.62500000  1
  Mn  Mn2  1  0.62500000  0.62500000  0.12500000  1
  Cu  Cu0  1  0.97190400  0.97190400  0.97190400  1
  Cu  Cu1  1  0.27809600  0.27809600  0.27809600  1
  Cu  Cu2  1  0.62500000  0.62500000  0.62500000  1
  O  O0  1  0.39381000  0.39381000  0.39381000  1
  O  O1  1  0.36556700  0.36556700  0.85489400  1
  O  O2  1  0.36556700  0.85489400  0.36556700  1
  O  O3  1  0.85489400  0.36556700  0.36556700  1
  O  O4  1  0.39510600  0.88443300  0.88443300  1
  O  O5  1  0.88443300  0.39510600  0.88443300  1
  O  O6  1  0.88443300  0.88443300  0.39510600  1
  O  O7  1  0.85619100  0.85619100  0.85619100  1
loop_
_geom_bond_atom_site_label_1
_geom_bond_atom_site_label_2
_geom_bond_distance
_geom_bond_site_symmetry_2
Mg0 O4 2.094498 1_544
Mg0 O3 2.094498 1_455
Mg0 O6 2.094498 1_445
Mg0 O1 2.094498 1_554
Mg0 O5 2.094498 1_454
Mg0 O2 2.094498 1_545
Mn0 O0 2.014147 1_555
Mn0 O7 2.014155 1_455
Mn0 O5 2.048281 1_455
Mn0 O2 2.048281 1_555
Mn0 O1 2.048281 1_555
Mn0 O6 2.048281 1_455
Mn1 O0 2.014147 1_555
Mn1 O7 2.014155 1_545
Mn1 O1 2.048281 1_555
Mn1 O6 2.048281 1_545
Mn1 O4 2.048281 1_545
Mn1 O3 2.048281 1_555
Mn2 O0 2.014147 1_555
Mn2 O7 2.014155 1_554
Mn2 O5 2.048281 1_554
Mn2 O2 2.048281 1_555
Mn2 O4 2.048281 1_554
Mn2 O3 2.048281 1_555
Cu0 O7 1.852374 1_555
Cu0 O4 2.207676 1_655
Cu0 O5 2.207676 1_565
Cu0 O6 2.207676 1_556
Cu1 O0 1.852390 1_555
Cu1 O3 2.207676 1_455
Cu1 O2 2.207676 1_545
Cu1 O1 2.207676 1_554
Cu2 O3 2.289394 1_555
Cu2 O4 2.289394 1_555
Cu2 O1 2.289394 1_555
Cu2 O6 2.289394 1_555
Cu2 O5 2.289394 1_555
Cu2 O2 2.289394 1_555
