# generated using pymatgen
data_MgMo2(RhO3)4
_symmetry_space_group_name_H-M   'P 1'
_cell_length_a   4.75453500
_cell_length_b   4.75453500
_cell_length_c   9.46814100
_cell_angle_alpha   90.00000000
_cell_angle_beta   90.00000000
_cell_angle_gamma   90.00000000
_symmetry_Int_Tables_number   1
_chemical_formula_structural   MgMo2(RhO3)4
_chemical_formula_sum   'Mg1 Mo2 Rh4 O12'
_cell_volume   214.03303722
_cell_formula_units_Z   1
loop_
 _symmetry_equiv_pos_site_id
 _symmetry_equiv_pos_as_xyz
  1  'x, y, z'
loop_
 _atom_site_type_symbol
 _atom_site_label
 _atom_site_symmetry_multiplicity
 _atom_site_fract_x
 _atom_site_fract_y
 _atom_site_fract_z
 _atom_site_occupancy
  Mg  Mg0  1  0.00000000  0.50000000  0.25000000  1
  Mo  Mo0  1  0.00000000  0.00000000  0.98905200  1
  Mo  Mo1  1  0.50000000  0.50000000  0.51094800  1
  Rh  Rh0  1  0.50000000  0.50000000  0.83293500  1
  Rh  Rh1  1  0.00000000  0.00000000  0.33905200  1
  Rh  Rh2  1  0.50000000  0.50000000  0.16094800  1
  Rh  Rh3  1  0.00000000  0.00000000  0.66706500  1
  O  O0  1  0.69446600  0.69474400  0.66597100  1
  O  O1  1  0.30553400  0.30525600  0.66597100  1
  O  O2  1  0.68901300  0.69540400  0.33770100  1
  O  O3  1  0.19540400  0.81098700  0.16229900  1
  O  O4  1  0.80459600  0.18901300  0.16229900  1
  O  O5  1  0.80525600  0.19446600  0.83402900  1
  O  O6  1  0.29642400  0.29899800  0.99925600  1
  O  O7  1  0.20100200  0.79642400  0.50074400  1
  O  O8  1  0.79899800  0.20357600  0.50074400  1
  O  O9  1  0.70357600  0.70100200  0.99925600  1
  O  O10  1  0.31098700  0.30459600  0.33770100  1
  O  O11  1  0.19474400  0.80553400  0.83402900  1
loop_
_geom_bond_atom_site_label_1
_geom_bond_atom_site_label_2
_geom_bond_distance
_geom_bond_site_symmetry_2
Mg0 O2 1.933625 1_455
Mg0 O3 1.933625 1_555
Mg0 O10 1.933625 1_555
Mg0 O4 1.933625 1_455
Mo0 O11 1.966361 1_545
Mo0 O5 1.966361 1_455
Mo0 O6 2.004136 1_555
Mo0 O9 2.004136 1_445
Mo0 O4 2.088402 1_456
Mo0 O3 2.088402 1_546
Mo1 O0 1.966361 1_555
Mo1 O1 1.966361 1_555
Mo1 O7 2.004136 1_555
Mo1 O8 2.004136 1_555
Mo1 O10 2.088402 1_555
Mo1 O2 2.088402 1_555
O0 Rh0 2.052133 1_555
O0 Rh3 2.053480 1_665
O1 Rh0 2.052133 1_555
O1 Rh3 2.053480 1_555
O2 Rh1 2.069719 1_665
O2 Rh2 2.114575 1_555
O3 Rh2 2.069719 1_555
O3 Rh1 2.114575 1_565
O4 Rh2 2.069719 1_555
O4 Rh1 2.114575 1_655
O5 Rh3 2.052133 1_655
O5 Rh0 2.053480 1_555
O6 Rh2 2.047896 1_556
O6 Rh0 2.080864 1_555
O7 Rh1 2.047896 1_565
O7 Rh3 2.080864 1_565
O8 Rh1 2.047896 1_655
O8 Rh3 2.080864 1_655
O9 Rh2 2.047896 1_556
O9 Rh0 2.080864 1_555
O10 Rh1 2.069719 1_555
O10 Rh2 2.114575 1_555
O11 Rh3 2.052133 1_565
O11 Rh0 2.053480 1_555
