# generated using pymatgen
data_Na8MgZr3Si5SO24
_symmetry_space_group_name_H-M   'P 1'
_cell_length_a   9.28142374
_cell_length_b   9.29636639
_cell_length_c   22.79091695
_cell_angle_alpha   90.07788744
_cell_angle_beta   90.37889447
_cell_angle_gamma   119.99300945
_symmetry_Int_Tables_number   1
_chemical_formula_structural   Na8MgZr3Si5SO24
_chemical_formula_sum   'Na24 Mg3 Zr9 Si15 S3 O72'
_cell_volume   1703.08001914
_cell_formula_units_Z   3
loop_
 _symmetry_equiv_pos_site_id
 _symmetry_equiv_pos_as_xyz
  1  'x, y, z'
loop_
 _atom_site_type_symbol
 _atom_site_label
 _atom_site_symmetry_multiplicity
 _atom_site_fract_x
 _atom_site_fract_y
 _atom_site_fract_z
 _atom_site_occupancy
  Na  Na0  1  0.64902075  0.02326503  0.24682207  1
  Na  Na1  1  0.36197823  0.36145857  0.24178811  1
  Na  Na2  1  0.98563147  0.60981646  0.24272242  1
  Na  Na3  1  0.63308964  0.61916360  0.74701707  1
  Na  Na4  1  0.98744306  0.36449225  0.75202287  1
  Na  Na5  1  0.38137791  0.01309435  0.74729849  1
  Na  Na6  1  0.31807377  0.33386882  0.58898767  1
  Na  Na7  1  0.03203171  0.70816340  0.58356199  1
  Na  Na8  1  0.65926049  0.96385436  0.59108379  1
  Na  Na9  1  0.30827004  0.96901292  0.07921359  1
  Na  Na10  1  0.66312189  0.69151303  0.07900138  1
  Na  Na11  1  0.03017126  0.34418383  0.08124505  1
  Na  Na12  1  0.96592229  0.66632534  0.91534088  1
  Na  Na13  1  0.69997412  0.03385188  0.91499171  1
  Na  Na14  1  0.33393473  0.30006516  0.91516528  1
  Na  Na15  1  0.96486731  0.28791909  0.41104034  1
  Na  Na16  1  0.31983689  0.02880412  0.41823593  1
  Na  Na17  1  0.71219432  0.68048869  0.41826953  1
  Na  Na18  1  0.00105542  0.99224858  0.49486865  1
  Na  Na19  1  0.00020726  0.99873943  0.99393547  1
  Na  Na20  1  0.66612884  0.33264008  0.82618349  1
  Na  Na21  1  0.68085369  0.33114539  0.33355814  1
  Na  Na22  1  0.32593854  0.65850238  0.15859909  1
  Na  Na23  1  0.34332125  0.67464233  0.67253415  1
  Mg  Mg0  1  0.99573745  0.00936364  0.35627577  1
  Mg  Mg1  1  0.65002956  0.32908125  0.68853186  1
  Mg  Mg2  1  0.67849903  0.33255112  0.17476321  1
  Zr  Zr0  1  0.99892493  0.99876831  0.84994715  1
  Zr  Zr1  1  0.00125612  0.99144963  0.65176698  1
  Zr  Zr2  1  0.00451996  0.01436963  0.14405247  1
  Zr  Zr3  1  0.66819728  0.33468553  0.98242609  1
  Zr  Zr4  1  0.65730820  0.33570000  0.48069911  1
  Zr  Zr5  1  0.33329416  0.66609593  0.01690927  1
  Zr  Zr6  1  0.34226905  0.67577601  0.51592300  1
  Zr  Zr7  1  0.32430162  0.65702169  0.31957386  1
  Zr  Zr8  1  0.33472595  0.66728267  0.81459404  1
  Si  Si0  1  0.99592534  0.29539425  0.25332412  1
  Si  Si1  1  0.29495887  0.29583585  0.74979072  1
  Si  Si2  1  0.99762267  0.69722345  0.75035050  1
  Si  Si3  1  0.70441725  0.00327263  0.74875148  1
  Si  Si4  1  0.37296183  0.03956922  0.58519419  1
  Si  Si5  1  0.66652767  0.62756067  0.58560760  1
  Si  Si6  1  0.96282035  0.62896868  0.08678991  1
  Si  Si7  1  0.66131237  0.03793193  0.08622509  1
  Si  Si8  1  0.38069620  0.33741421  0.08735413  1
  Si  Si9  1  0.62930249  0.66669877  0.91716060  1
  Si  Si10  1  0.03766193  0.37097553  0.91632455  1
  Si  Si11  1  0.33338864  0.96210908  0.91696155  1
  Si  Si12  1  0.63178579  0.96399089  0.41451533  1
  Si  Si13  1  0.32969292  0.36796311  0.41744545  1
  Si  Si14  1  0.03415808  0.66751787  0.41685140  1
  S  S0  1  0.29189801  -0.00008852  0.25201103  1
  S  S1  1  0.70863454  0.70840255  0.25162920  1
  S  S2  1  0.95834704  0.33434232  0.58374520  1
  O  O0  1  0.20814900  0.01592048  0.30408196  1
  O  O1  1  0.81183128  0.78908617  0.30403951  1
  O  O2  1  0.97329905  0.17937106  0.30913577  1
  O  O3  1  0.19977288  0.17659112  0.80670477  1
  O  O4  1  0.97078096  0.79155649  0.80707035  1
  O  O5  1  0.82197016  0.02616667  0.80678909  1
  O  O6  1  0.79382662  0.97010020  0.69101086  1
  O  O7  1  0.17460696  0.20768124  0.69097806  1
  O  O8  1  0.03334156  0.82133251  0.69244818  1
  O  O9  1  0.78861256  0.81001205  0.19799953  1
  O  O10  1  0.02848617  0.20571099  0.19474039  1
  O  O11  1  0.18767884  0.97334382  0.19792686  1
  O  O12  1  0.88233765  0.35900853  0.63573875  1
  O  O13  1  0.49368503  0.12040825  0.64088935  1
  O  O14  1  0.63563768  0.51068803  0.64124072  1
  O  O15  1  0.88633107  0.51825923  0.14481169  1
  O  O16  1  0.62675518  0.11297753  0.14471594  1
  O  O17  1  0.48977908  0.36551181  0.14621976  1
  O  O18  1  0.46207717  0.30227836  0.02891119  1
  O  O19  1  0.84297008  0.54573611  0.02839063  1
  O  O20  1  0.70092707  0.15848573  0.02857834  1
  O  O21  1  0.46135132  0.15403223  0.52538223  1
  O  O22  1  0.69849798  0.54320669  0.52563540  1
  O  O23  1  0.85630038  0.31083134  0.52931268  1
  O  O24  1  0.54175339  0.69640485  0.97504408  1
  O  O25  1  0.15497863  0.45798441  0.97484276  1
  O  O26  1  0.30357748  0.84470874  0.97489266  1
  O  O27  1  0.53695451  0.84427350  0.47162366  1
  O  O28  1  0.30206549  0.46119269  0.47381058  1
  O  O29  1  0.15448361  0.69502141  0.47391169  1
  O  O30  1  0.12445007  0.63254966  0.35954803  1
  O  O31  1  0.50746090  0.87524326  0.35694184  1
  O  O32  1  0.36710717  0.49230884  0.35982341  1
  O  O33  1  0.12607387  0.49086601  0.85962241  1
  O  O34  1  0.36472544  0.87375642  0.86005258  1
  O  O35  1  0.50946083  0.63494915  0.85989866  1
  O  O36  1  0.01764627  0.83137662  0.40860609  1
  O  O37  1  0.81056298  0.97474607  0.41191924  1
  O  O38  1  0.17045956  0.18437888  0.41171637  1
  O  O39  1  0.02079799  0.18680959  0.91246801  1
  O  O40  1  0.16610099  0.97935358  0.91283972  1
  O  O41  1  0.81334309  0.83402766  0.91309595  1
  O  O42  1  0.97599673  0.18247444  0.58636757  1
  O  O43  1  0.18689785  0.02600784  0.58663150  1
  O  O44  1  0.83186486  0.81829420  0.58661365  1
  O  O45  1  0.98214269  0.81614823  0.09343845  1
  O  O46  1  0.83033741  0.01675728  0.09114291  1
  O  O47  1  0.19121786  0.16597906  0.09024653  1
  O  O48  1  0.69166005  0.16991916  0.74468450  1
  O  O49  1  0.47586830  0.31101692  0.74779715  1
  O  O50  1  0.83492801  0.51616525  0.74373004  1
  O  O51  1  0.68349312  0.53809128  0.24645964  1
  O  O52  1  0.83200638  0.31894717  0.24750560  1
  O  O53  1  0.45869639  0.15081754  0.24707127  1
  O  O54  1  0.64497671  0.49896103  0.92273422  1
  O  O55  1  0.85373973  0.35463745  0.92234706  1
  O  O56  1  0.50067362  0.14604779  0.92293497  1
  O  O57  1  0.64766319  0.14764412  0.42187251  1
  O  O58  1  0.50361335  0.35953407  0.42086316  1
  O  O59  1  0.85433541  0.49429453  0.42198533  1
  O  O60  1  0.35238908  0.49818200  0.07979013  1
  O  O61  1  0.14983204  0.65165521  0.07863275  1
  O  O62  1  0.50033075  0.84961109  0.07853588  1
  O  O63  1  0.34266597  0.84771263  0.57722410  1
  O  O64  1  0.49738025  0.64598508  0.57739110  1
  O  O65  1  0.12843067  0.48403735  0.57720113  1
  O  O66  1  0.31122010  0.84740594  0.25439577  1
  O  O67  1  0.53959575  0.69679768  0.25455546  1
  O  O68  1  0.17249346  0.48444128  0.25393058  1
  O  O69  1  0.30636036  0.47844716  0.75376540  1
  O  O70  1  0.17102911  0.69031553  0.75419559  1
  O  O71  1  0.52227260  0.83093666  0.75356431  1
loop_
_geom_bond_atom_site_label_1
_geom_bond_atom_site_label_2
_geom_bond_distance
_geom_bond_site_symmetry_2
Na0 O52 2.402609 1_555
Na0 O16 2.514926 1_555
Na0 O53 2.573105 1_555
Na0 O67 2.682469 1_545
Na0 O66 2.723190 1_545
Na0 O31 2.857268 1_545
Na1 O17 2.478349 1_555
Na1 O53 2.532102 1_555
Na1 O68 2.548045 1_555
Na1 O51 2.590154 1_555
Na1 O67 2.715477 1_555
Na1 O10 2.880642 1_555
Na1 O32 2.941140 1_555
Na2 O52 2.346238 1_555
Na2 O15 2.395144 1_555
Na2 O68 2.539219 1_655
Na2 O51 2.539621 1_555
Na2 O66 2.719531 1_655
Na2 O30 2.911156 1_655
Na3 O49 2.481340 1_555
Na3 O50 2.495376 1_555
Na3 O14 2.616705 1_555
Na3 O69 2.640382 1_555
Na3 O71 2.642296 1_555
Na3 O35 2.857132 1_555
Na4 O48 2.421741 1_555
Na4 O50 2.453641 1_555
Na4 O69 2.597833 1_655
Na4 O70 2.630384 1_655
Na4 O33 2.736537 1_655
Na4 O12 2.809564 1_555
Na5 O49 2.451791 1_555
Na5 O48 2.495488 1_555
Na5 O71 2.609653 1_545
Na5 O13 2.638852 1_555
Na5 O70 2.643598 1_545
Na5 O34 2.849498 1_545
Na6 O43 2.488202 1_555
Na6 O64 2.537433 1_555
Na6 O7 2.653100 1_555
Na6 O65 2.751483 1_555
Na6 O42 2.755809 1_455
Na6 O14 2.812828 1_555
Na6 O28 2.914241 1_555
Na6 O21 2.984377 1_555
Na7 O63 2.506553 1_555
Na7 O44 2.531358 1_455
Na7 O43 2.560005 1_565
Na7 O65 2.650934 1_555
Na7 O8 2.691675 1_555
Na7 O29 2.779808 1_555
Na8 O44 2.564579 1_555
Na8 O64 2.576701 1_555
Na8 O6 2.576720 1_555
Na8 O63 2.591300 1_555
Na8 O42 2.610678 1_565
Na8 O13 2.832491 1_565
Na8 O27 2.937045 1_555
Na9 O62 2.527565 1_555
Na9 O61 2.555159 1_555
Na9 O47 2.566625 1_565
Na9 O26 2.632667 1_554
Na9 O45 2.645844 1_455
Na9 O18 2.925792 1_565
Na9 O11 2.942678 1_555
Na9 O16 2.956113 1_565
Na10 O60 2.523227 1_555
Na10 O62 2.581317 1_555
Na10 O45 2.602717 1_555
Na10 O24 2.626922 1_554
Na10 O46 2.632071 1_565
Na10 O19 2.869899 1_555
Na10 O9 2.931347 1_555
Na11 O61 2.496944 1_555
Na11 O60 2.591418 1_555
Na11 O46 2.668170 1_455
Na11 O25 2.675935 1_554
Na11 O47 2.737421 1_555
Na11 O10 2.887500 1_555
Na11 O20 2.903582 1_455
Na11 O15 2.946046 1_455
Na12 O55 2.548061 1_555
Na12 O40 2.553386 1_655
Na12 O41 2.577840 1_555
Na12 O54 2.587706 1_555
Na12 O4 2.720873 1_555
Na12 O19 2.822252 1_556
Na13 O56 2.544652 1_555
Na13 O41 2.552351 1_545
Na13 O39 2.580930 1_655
Na13 O55 2.588133 1_555
Na13 O5 2.736032 1_555
Na13 O20 2.832917 1_556
Na13 O34 2.962802 1_545
Na13 O24 3.050107 1_545
Na14 O54 2.537440 1_555
Na14 O39 2.548982 1_555
Na14 O40 2.583322 1_545
Na14 O56 2.586275 1_555
Na14 O3 2.738804 1_555
Na14 O18 2.840770 1_556
Na15 O37 2.521792 1_545
Na15 O38 2.530594 1_655
Na15 O2 2.548215 1_555
Na15 O57 2.569298 1_555
Na15 O59 2.601032 1_555
Na16 O38 2.457359 1_555
Na16 O36 2.475378 1_545
Na16 O57 2.668523 1_555
Na16 O58 2.668524 1_555
Na16 O21 2.732164 1_555
Na16 O0 2.774345 1_555
Na17 O37 2.417318 1_555
Na17 O36 2.467125 1_655
Na17 O58 2.623130 1_555
Na17 O59 2.650617 1_555
Na17 O22 2.735499 1_555
Na17 O1 2.785268 1_555
Na18 O36 2.520263 1_555
Na18 O37 2.528586 1_455
Na18 O38 2.548472 1_565
Na18 O43 2.618546 1_565
Na18 O44 2.639485 1_455
Na18 O42 2.817379 1_465
Na19 O41 2.458060 1_455
Na19 O40 2.476575 1_555
Na19 O39 2.494028 1_565
Na19 O47 2.749874 1_566
Na19 O46 2.780513 1_466
Na19 O45 2.789822 1_456
Na20 O49 2.439824 1_555
Na20 O48 2.480140 1_555
Na20 O50 2.504392 1_555
Na20 O55 2.733054 1_555
Na20 O54 2.751595 1_555
Na20 O56 2.760689 1_555
Na21 O52 2.454024 1_555
Na21 O59 2.541992 1_555
Na21 O57 2.558972 1_555
Na21 O58 2.685309 1_555
Na21 O53 2.725536 1_555
Na21 O51 2.757921 1_555
Na22 O61 2.419400 1_555
Na22 O60 2.423220 1_555
Na22 O62 2.505729 1_555
Na22 O68 2.667153 1_555
Na22 O67 2.841932 1_555
Na22 O66 2.846533 1_555
Na23 O71 2.412396 1_555
Na23 O69 2.502752 1_555
Na23 O70 2.512731 1_555
Na23 O64 2.690314 1_555
Na23 O63 2.706705 1_555
Na23 O65 2.870077 1_555
Mg0 O2 2.006537 1_555
Mg0 O37 2.035346 1_545
Mg0 O38 2.050098 1_655
Mg0 O36 2.130759 1_645
Mg0 O1 2.235201 1_545
Mg0 O0 2.283975 1_655
Mg1 O13 2.051083 1_555
Mg1 O49 2.055157 1_555
Mg1 O14 2.063571 1_555
Mg1 O50 2.129307 1_555
Mg1 O48 2.132279 1_555
Mg1 O12 2.368451 1_555
Mg2 O15 1.964316 1_555
Mg2 O16 1.969261 1_555
Mg2 O17 2.026627 1_555
Mg2 O52 2.223500 1_555
Mg2 O51 2.495039 1_555
Mg2 O53 2.517565 1_555
O0 S0 1.470409 1_555
O1 S1 1.473413 1_555
O2 Si0 1.614388 1_555
O3 Si1 1.652821 1_555
O3 Zr0 2.031463 1_445
O4 Si2 1.649784 1_555
O4 Zr0 2.054819 1_555
O5 Si3 1.653271 1_555
O5 Zr0 2.031593 1_545
O6 Si3 1.668741 1_565
O6 Zr1 2.046249 1_655
O7 Si1 1.666737 1_555
O7 Zr1 2.042213 1_545
O8 Si2 1.676321 1_455
O8 Zr1 1.980040 1_555
O9 S1 1.500445 1_555
O9 Zr2 2.317174 1_665
O10 Si0 1.680283 1_455
O10 Zr2 2.035560 1_555
O11 S0 1.503526 1_565
O11 Zr2 2.272634 1_565
O12 S2 1.458256 1_555
O13 Si4 1.602561 1_555
O14 Si5 1.602319 1_555
O15 Si6 1.611682 1_555
O16 Si7 1.610430 1_555
O17 Si8 1.615503 1_555
O18 Si8 1.646252 1_555
O18 Zr3 2.079548 1_554
O19 Si6 1.650658 1_555
O19 Zr3 2.090018 1_554
O20 Si7 1.647947 1_555
O20 Zr3 2.092779 1_554
O21 Si4 1.676157 1_555
O21 Zr4 2.038476 1_555
O22 Si5 1.675198 1_555
O22 Zr4 2.041668 1_555
O23 S2 1.503530 1_555
O23 Zr4 2.256697 1_555
O24 Si9 1.647552 1_555
O24 Zr5 2.052642 1_556
O25 Si10 1.648001 1_555
O25 Zr5 2.043029 1_556
O26 Si11 1.648557 1_555
O26 Zr5 2.051552 1_556
O27 Si12 1.657433 1_555
O27 Zr6 1.984105 1_555
O28 Si13 1.640326 1_555
O28 Zr6 2.070186 1_555
O29 Si14 1.642616 1_555
O29 Zr6 2.068015 1_555
O30 Si14 1.673111 1_555
O30 Zr7 1.980771 1_555
O31 Si12 1.661070 1_555
O31 Zr7 2.063715 1_555
O32 Si13 1.670424 1_555
O32 Zr7 1.987767 1_555
O33 Si10 1.639863 1_555
O33 Zr8 2.085356 1_555
O34 Si11 1.637800 1_555
O34 Zr8 2.071633 1_555
O35 Si9 1.636769 1_555
O35 Zr8 2.062220 1_555
O36 Si14 1.616481 1_555
O37 Si12 1.613147 1_555
O38 Si13 1.609054 1_555
O39 Si10 1.641618 1_555
O39 Zr0 2.182206 1_445
O40 Si11 1.640814 1_555
O40 Zr0 2.178529 1_455
O41 Si9 1.640745 1_555
O41 Zr0 2.187486 1_555
O42 S2 1.501655 1_555
O42 Zr1 2.418472 1_645
O43 Si4 1.668044 1_555
O43 Zr1 2.181155 1_545
O44 Si5 1.666859 1_555
O44 Zr1 2.168016 1_655
O45 Si6 1.664319 1_555
O45 Zr2 2.092340 1_665
O46 Si7 1.678959 1_555
O46 Zr2 2.019492 1_655
O47 Si8 1.684256 1_555
O47 Zr2 2.020881 1_555
O48 Si3 1.614402 1_555
O49 Si1 1.614143 1_555
O50 Si2 1.609736 1_555
O51 S1 1.484873 1_555
O52 Si0 1.646405 1_555
O53 S0 1.486202 1_555
O54 Si9 1.641943 1_555
O54 Zr3 2.135485 1_555
O55 Si10 1.643136 1_655
O55 Zr3 2.141825 1_555
O56 Si11 1.641760 1_545
O56 Zr3 2.137935 1_555
O57 Si12 1.646840 1_545
O57 Zr4 2.167354 1_555
O58 Si13 1.656128 1_555
O58 Zr4 2.057871 1_555
O59 Si14 1.645747 1_655
O59 Zr4 2.156528 1_555
O60 Si8 1.650796 1_555
O60 Zr5 2.191170 1_555
O61 Si6 1.652331 1_455
O61 Zr5 2.167964 1_555
O62 Si7 1.645776 1_565
O62 Zr5 2.146414 1_555
O63 Si4 1.670393 1_565
O63 Zr6 2.120079 1_555
O64 Si5 1.671562 1_555
O64 Zr6 2.117750 1_555
O65 S2 1.502728 1_455
O65 Zr6 2.360773 1_555
O66 S0 1.516379 1_565
O66 Zr7 2.360815 1_555
O67 S1 1.519795 1_555
O67 Zr7 2.372217 1_555
O68 Si0 1.701360 1_455
O68 Zr7 2.122033 1_555
O69 Si1 1.649597 1_555
O69 Zr8 2.144635 1_555
O70 Si2 1.644277 1_455
O70 Zr8 2.132484 1_555
O71 Si3 1.652818 1_565
O71 Zr8 2.160875 1_555
