# generated using pymatgen
data_CrBPbO4
_symmetry_space_group_name_H-M   'P 1'
_cell_length_a   6.03593300
_cell_length_b   7.07735300
_cell_length_c   8.21665000
_cell_angle_alpha   90.00000000
_cell_angle_beta   90.00000000
_cell_angle_gamma   90.00000000
_symmetry_Int_Tables_number   1
_chemical_formula_structural   CrBPbO4
_chemical_formula_sum   'Cr4 B4 Pb4 O16'
_cell_volume   351.00237574
_cell_formula_units_Z   4
loop_
 _symmetry_equiv_pos_site_id
 _symmetry_equiv_pos_as_xyz
  1  'x, y, z'
loop_
 _atom_site_type_symbol
 _atom_site_label
 _atom_site_symmetry_multiplicity
 _atom_site_fract_x
 _atom_site_fract_y
 _atom_site_fract_z
 _atom_site_occupancy
  Cr  Cr0  1  0.00000000  0.50000000  0.50000000  1
  Cr  Cr1  1  0.50000000  0.50000000  0.50000000  1
  Cr  Cr2  1  0.50000000  0.00000000  0.00000000  1
  Cr  Cr3  1  0.00000000  0.00000000  0.00000000  1
  B  B0  1  0.25000000  0.77708500  0.73512100  1
  B  B1  1  0.25000000  0.27708500  0.76487900  1
  B  B2  1  0.75000000  0.72291500  0.23512100  1
  B  B3  1  0.75000000  0.22291500  0.26487900  1
  Pb  Pb0  1  0.25000000  0.56374000  0.13608700  1
  Pb  Pb1  1  0.75000000  0.43626000  0.86391300  1
  Pb  Pb2  1  0.25000000  0.06374000  0.36391300  1
  Pb  Pb3  1  0.75000000  0.93626000  0.63608700  1
  O  O0  1  0.05047700  0.33080400  0.69475500  1
  O  O1  1  0.55047700  0.66919600  0.30524500  1
  O  O2  1  0.44952300  0.83080400  0.80524500  1
  O  O3  1  0.94952300  0.16919600  0.19475500  1
  O  O4  1  0.25000000  0.17090600  0.90852600  1
  O  O5  1  0.75000000  0.32909400  0.40852600  1
  O  O6  1  0.75000000  0.82909400  0.09147400  1
  O  O7  1  0.25000000  0.67090600  0.59147400  1
  O  O8  1  0.25000000  0.89610800  0.11950400  1
  O  O9  1  0.75000000  0.10389200  0.88049600  1
  O  O10  1  0.25000000  0.39610800  0.38049600  1
  O  O11  1  0.75000000  0.60389200  0.61950400  1
  O  O12  1  0.05047700  0.83080400  0.80524500  1
  O  O13  1  0.55047700  0.16919600  0.19475500  1
  O  O14  1  0.44952300  0.33080400  0.69475500  1
  O  O15  1  0.94952300  0.66919600  0.30524500  1
loop_
_geom_bond_atom_site_label_1
_geom_bond_atom_site_label_2
_geom_bond_distance
_geom_bond_site_symmetry_2
Cr0 O11 1.944695 1_455
Cr0 O10 1.944695 1_555
Cr0 O0 2.021753 1_555
Cr0 O15 2.021753 1_455
Cr0 O7 2.074847 1_555
Cr0 O5 2.074847 1_455
Cr1 O11 1.944695 1_555
Cr1 O10 1.944695 1_555
Cr1 O1 2.021753 1_555
Cr1 O14 2.021753 1_555
Cr1 O7 2.074847 1_555
Cr1 O5 2.074847 1_555
Cr2 O9 1.944695 1_554
Cr2 O8 1.944695 1_545
Cr2 O13 2.021753 1_555
Cr2 O2 2.021753 1_544
Cr2 O6 2.074847 1_545
Cr2 O4 2.074847 1_554
Cr3 O9 1.944695 1_454
Cr3 O8 1.944695 1_545
Cr3 O3 2.021753 1_455
Cr3 O12 2.021753 1_544
Cr3 O6 2.074847 1_445
Cr3 O4 2.074847 1_554
B0 O12 1.388124 1_555
B0 O2 1.388124 1_555
B0 O7 1.399215 1_555
B1 O0 1.388124 1_555
B1 O14 1.388124 1_555
B1 O4 1.399215 1_555
B2 O1 1.388124 1_555
B2 O15 1.388124 1_555
B2 O6 1.399215 1_555
B3 O3 1.388124 1_555
B3 O13 1.388124 1_555
B3 O5 1.399215 1_555
O0 Pb1 2.403800 1_455
O1 Pb0 2.403800 1_555
O2 Pb3 2.403800 1_555
O3 Pb2 2.403800 1_655
O8 Pb2 2.332484 1_565
O8 Pb0 2.356229 1_555
O9 Pb3 2.332484 1_545
O9 Pb1 2.356229 1_555
O10 Pb0 2.332484 1_555
O10 Pb2 2.356229 1_555
O11 Pb1 2.332484 1_555
O11 Pb3 2.356229 1_555
O12 Pb3 2.403800 1_455
O13 Pb2 2.403800 1_555
O14 Pb1 2.403800 1_555
O15 Pb0 2.403800 1_655
