# generated using pymatgen
data_YCo3
_symmetry_space_group_name_H-M   'P 1'
_cell_length_a   8.62248526
_cell_length_b   8.62248526
_cell_length_c   8.62248532
_cell_angle_alpha   33.66799743
_cell_angle_beta   33.66799743
_cell_angle_gamma   33.66799622
_symmetry_Int_Tables_number   1
_chemical_formula_structural   YCo3
_chemical_formula_sum   'Y3 Co9'
_cell_volume   175.52300363
_cell_formula_units_Z   3
loop_
 _symmetry_equiv_pos_site_id
 _symmetry_equiv_pos_as_xyz
  1  'x, y, z'
loop_
 _atom_site_type_symbol
 _atom_site_label
 _atom_site_symmetry_multiplicity
 _atom_site_fract_x
 _atom_site_fract_y
 _atom_site_fract_z
 _atom_site_occupancy
  Y  Y0  1  0.86030500  0.86030500  0.86030500  1
  Y  Y1  1  0.13969500  0.13969500  0.13969500  1
  Y  Y2  1  0.00000000  0.00000000  0.00000000  1
  Co  Co0  1  0.41783800  0.41783800  0.92123900  1
  Co  Co1  1  0.92123900  0.41783800  0.41783800  1
  Co  Co2  1  0.41783800  0.92123900  0.41783800  1
  Co  Co3  1  0.50000000  0.50000000  0.50000000  1
  Co  Co4  1  0.33472500  0.33472500  0.33472500  1
  Co  Co5  1  0.66527500  0.66527500  0.66527500  1
  Co  Co6  1  0.07876100  0.58216200  0.58216200  1
  Co  Co7  1  0.58216200  0.58216200  0.07876100  1
  Co  Co8  1  0.58216200  0.07876100  0.58216200  1
loop_
_geom_bond_atom_site_label_1
_geom_bond_atom_site_label_2
_geom_bond_distance
_geom_bond_site_symmetry_2
Y0 Y1 3.169094 1_656
Y0 Y1 3.169094 1_566
Y0 Y1 3.169094 1_665
Y0 Y2 3.405525 1_666
Y1 Y2 3.405525 1_555
Co0 Co5 2.424022 1_555
Co0 Co4 2.467264 1_556
Co0 Co1 2.480085 1_456
Co0 Co2 2.480085 1_546
Co0 Co2 2.514055 1_555
Co0 Co1 2.514055 1_555
Co0 Co3 2.542712 1_555
Co0 Y0 2.877656 1_455
Co0 Y0 2.877656 1_545
Co0 Y1 3.096225 1_556
Co0 Y2 3.183927 1_656
Co0 Y2 3.183927 1_566
Co1 Co5 2.424022 1_555
Co1 Co4 2.467264 1_655
Co1 Co2 2.480085 1_645
Co1 Co2 2.514055 1_555
Co1 Co3 2.542712 1_555
Co1 Y0 2.877657 1_545
Co1 Y0 2.877657 1_554
Co1 Y1 3.096225 1_655
Co1 Y2 3.183927 1_665
Co1 Y2 3.183927 1_656
Co2 Co5 2.424022 1_555
Co2 Co4 2.467264 1_565
Co2 Co3 2.542712 1_555
Co2 Y0 2.877657 1_455
Co2 Y0 2.877657 1_554
Co2 Y1 3.096225 1_565
Co2 Y2 3.183927 1_665
Co2 Y2 3.183927 1_566
Co3 Co8 2.542712 1_555
Co3 Co6 2.542712 1_555
Co3 Co7 2.542712 1_555
Co3 Y0 2.957389 1_455
Co3 Y0 2.957389 1_545
Co3 Y1 2.957389 1_655
Co3 Y1 2.957389 1_565
Co3 Y0 2.957389 1_554
Co3 Y1 2.957389 1_556
Co4 Co8 2.424022 1_555
Co4 Co6 2.424022 1_555
Co4 Co7 2.424022 1_555
Co4 Y2 2.883568 1_655
Co4 Y2 2.883568 1_565
Co4 Y2 2.883568 1_556
Co4 Co5 2.884166 1_455
Co4 Co5 2.884166 1_545
Co4 Co5 2.884166 1_554
Co5 Co6 2.467264 1_655
Co5 Co8 2.467264 1_565
Co5 Co7 2.467264 1_556
Co5 Y2 2.883568 1_656
Co5 Y2 2.883568 1_566
Co5 Y2 2.883568 1_665
Co6 Co8 2.480085 1_465
Co6 Co7 2.480085 1_456
Co6 Co8 2.514055 1_555
Co6 Co7 2.514055 1_555
Co6 Y1 2.877657 1_565
Co6 Y1 2.877657 1_556
Co6 Y0 3.096225 1_455
Co6 Y2 3.183927 1_556
Co6 Y2 3.183927 1_565
Co7 Co8 2.480085 1_564
Co7 Co8 2.514055 1_555
Co7 Y1 2.877656 1_565
Co7 Y1 2.877656 1_655
Co7 Y0 3.096225 1_554
Co7 Y2 3.183927 1_565
Co7 Y2 3.183927 1_655
Co8 Y1 2.877657 1_655
Co8 Y1 2.877657 1_556
Co8 Y0 3.096225 1_545
Co8 Y2 3.183927 1_556
Co8 Y2 3.183927 1_655
