# generated using pymatgen
data_Na5Ca2Nb2SiP5O24
_symmetry_space_group_name_H-M   'P 1'
_cell_length_a   9.17920630
_cell_length_b   9.17489539
_cell_length_c   22.77141594
_cell_angle_alpha   89.97572282
_cell_angle_beta   90.05181209
_cell_angle_gamma   119.91945682
_symmetry_Int_Tables_number   1
_chemical_formula_structural   Na5Ca2Nb2SiP5O24
_chemical_formula_sum   'Na15 Ca6 Nb6 Si3 P15 O72'
_cell_volume   1662.18227218
_cell_formula_units_Z   3
loop_
 _symmetry_equiv_pos_site_id
 _symmetry_equiv_pos_as_xyz
  1  'x, y, z'
loop_
 _atom_site_type_symbol
 _atom_site_label
 _atom_site_symmetry_multiplicity
 _atom_site_fract_x
 _atom_site_fract_y
 _atom_site_fract_z
 _atom_site_occupancy
  Na  Na0  1  0.61501738  0.00217949  0.25172889  1
  Na  Na1  1  0.99673235  0.60928231  0.24752424  1
  Na  Na2  1  0.33882871  0.99798968  0.75339451  1
  Na  Na3  1  0.30252500  0.31130114  0.58560388  1
  Na  Na4  1  0.01507136  0.70013530  0.58894581  1
  Na  Na5  1  0.67941891  0.98151716  0.59054570  1
  Na  Na6  1  0.65276521  0.68007781  0.07674657  1
  Na  Na7  1  0.03969620  0.35459658  0.07772888  1
  Na  Na8  1  0.98959299  0.68323764  0.90892948  1
  Na  Na9  1  0.00920687  0.99893573  0.50643396  1
  Na  Na10  1  0.01521102  0.01899572  0.98606107  1
  Na  Na11  1  0.67334736  0.32689890  0.83232017  1
  Na  Na12  1  0.64895278  0.33572885  0.34201713  1
  Na  Na13  1  0.32270702  0.66844667  0.16129680  1
  Na  Na14  1  0.34132217  0.65363579  0.67063883  1
  Ca  Ca0  1  0.99472367  0.00849563  0.84484335  1
  Ca  Ca1  1  0.99178535  -0.00002676  0.66134969  1
  Ca  Ca2  1  0.65724671  0.33268488  0.19138149  1
  Ca  Ca3  1  0.66532428  0.33190250  0.47863223  1
  Ca  Ca4  1  0.33648614  0.67599134  0.01630108  1
  Ca  Ca5  1  0.33475981  0.65789933  0.30938963  1
  Nb  Nb0  1  0.00347286  0.00468227  0.35917081  1
  Nb  Nb1  1  0.00728244  0.99975346  0.14291324  1
  Nb  Nb2  1  0.66546831  0.32838933  0.68316442  1
  Nb  Nb3  1  0.66381240  0.33136580  0.98192613  1
  Nb  Nb4  1  0.33519846  0.67167190  0.51383266  1
  Nb  Nb5  1  0.33961254  0.66694741  0.81938543  1
  Si  Si0  1  0.68594956  0.99871711  0.74744315  1
  Si  Si1  1  0.36481185  0.03223646  0.58042711  1
  Si  Si2  1  0.95964794  0.62817718  0.08840027  1
  P  P0  1  0.27955972  0.99907860  0.25185658  1
  P  P1  1  0.72473689  0.72637589  0.25054042  1
  P  P2  1  0.00052949  0.27943953  0.24974615  1
  P  P3  1  0.31680708  0.31486275  0.74706872  1
  P  P4  1  0.00123703  0.68165952  0.75216836  1
  P  P5  1  0.96784522  0.34048746  0.58112537  1
  P  P6  1  0.66147600  0.62667391  0.58074933  1
  P  P7  1  0.67637129  0.04434889  0.08728523  1
  P  P8  1  0.37063899  0.32480241  0.08314711  1
  P  P9  1  0.63197949  0.65776493  0.92154993  1
  P  P10  1  0.03081272  0.37126373  0.92203866  1
  P  P11  1  0.33890701  0.97075215  0.91734504  1
  P  P12  1  0.63324591  0.95659647  0.41126465  1
  P  P13  1  0.32374013  0.36825760  0.41523859  1
  P  P14  1  0.04431670  0.67679212  0.41128893  1
  O  O0  1  0.17639108  0.00068586  0.30631012  1
  O  O1  1  0.83061619  0.83300853  0.30482411  1
  O  O2  1  0.00606775  0.17752520  0.30496992  1
  O  O3  1  0.24099942  0.18068512  0.79452180  1
  O  O4  1  0.96844827  0.75432320  0.80718260  1
  O  O5  1  0.80825014  0.04414876  0.80145270  1
  O  O6  1  0.73239757  0.95464422  0.68490153  1
  O  O7  1  0.22268874  0.26509048  0.68870354  1
  O  O8  1  0.05348400  0.79819048  0.69823467  1
  O  O9  1  0.82820476  0.82797691  0.19354304  1
  O  O10  1  0.00254225  0.17908300  0.19338602  1
  O  O11  1  0.17857066  0.00485764  0.19528123  1
  O  O12  1  0.86833327  0.36290512  0.63528002  1
  O  O13  1  0.49454359  0.13551057  0.63888240  1
  O  O14  1  0.63686561  0.50638616  0.63467778  1
  O  O15  1  0.87564094  0.53055096  0.14756018  1
  O  O16  1  0.65396969  0.11452601  0.14440317  1
  O  O17  1  0.47423860  0.35197690  0.13726410  1
  O  O18  1  0.46406446  0.30156778  0.02779066  1
  O  O19  1  0.82322292  0.52031684  0.03004015  1
  O  O20  1  0.69082961  0.16435391  0.03338131  1
  O  O21  1  0.44524118  0.15238426  0.52665107  1
  O  O22  1  0.69825578  0.55743500  0.52652873  1
  O  O23  1  0.86390837  0.30932544  0.52687656  1
  O  O24  1  0.56491820  0.67632861  0.97990562  1
  O  O25  1  0.11334243  0.44350251  0.98073234  1
  O  O26  1  0.30943636  0.86628260  0.97172748  1
  O  O27  1  0.52825666  0.83235953  0.46626391  1
  O  O28  1  0.30508385  0.46420156  0.47220922  1
  O  O29  1  0.16683651  0.69327984  0.46689107  1
  O  O30  1  0.12487600  0.66650238  0.35508976  1
  O  O31  1  0.54192730  0.87865666  0.35465635  1
  O  O32  1  0.33153758  0.46377861  0.36125495  1
  O  O33  1  0.13700533  0.50120688  0.87127090  1
  O  O34  1  0.35733169  0.87133301  0.86235232  1
  O  O35  1  0.50796106  0.64799823  0.87025749  1
  O  O36  1  0.04112988  0.84941784  0.41308193  1
  O  O37  1  0.80896392  0.95995763  0.41257437  1
  O  O38  1  0.15188088  0.18994889  0.41432840  1
  O  O39  1  0.00313082  0.19705631  0.91220562  1
  O  O40  1  0.18810177  0.99401983  0.90691905  1
  O  O41  1  0.81177744  0.79663073  0.91072355  1
  O  O42  1  0.00168890  0.19526631  0.59211545  1
  O  O43  1  0.17401777  0.98944281  0.59210807  1
  O  O44  1  0.80568532  0.80659477  0.59134641  1
  O  O45  1  0.96214137  0.81500743  0.08820110  1
  O  O46  1  0.85488911  0.05120543  0.08665366  1
  O  O47  1  0.19203121  0.15972326  0.08648580  1
  O  O48  1  0.64923803  0.16271976  0.74033816  1
  O  O49  1  0.50164109  0.34753863  0.73802012  1
  O  O50  1  0.84555568  0.50631693  0.73820727  1
  O  O51  1  0.71788804  0.55808451  0.25545819  1
  O  O52  1  0.83395590  0.28023300  0.25507166  1
  O  O53  1  0.45514318  0.14956696  0.25626747  1
  O  O54  1  0.63227239  0.48321249  0.92157637  1
  O  O55  1  0.85375461  0.36974389  0.92247794  1
  O  O56  1  0.50893127  0.14379559  0.92242754  1
  O  O57  1  0.66408062  0.13131395  0.42044993  1
  O  O58  1  0.46904513  0.33642410  0.42010844  1
  O  O59  1  0.86979393  0.53257187  0.42026270  1
  O  O60  1  0.34035216  0.47281191  0.07530039  1
  O  O61  1  0.14154207  0.64874097  0.08121683  1
  O  O62  1  0.54261636  0.86121020  0.07898480  1
  O  O63  1  0.36802097  0.84816811  0.57292471  1
  O  O64  1  0.48829860  0.62876340  0.57540967  1
  O  O65  1  0.14190838  0.51338993  0.57740154  1
  O  O66  1  0.28076794  0.83330971  0.24501957  1
  O  O67  1  0.55820963  0.72390071  0.24433639  1
  O  O68  1  0.14996015  0.45596348  0.24423368  1
  O  O69  1  0.33582310  0.48814531  0.76696956  1
  O  O70  1  0.15750010  0.65523998  0.76424608  1
  O  O71  1  0.49046118  0.83400403  0.76373110  1
loop_
_geom_bond_atom_site_label_1
_geom_bond_atom_site_label_2
_geom_bond_distance
_geom_bond_site_symmetry_2
Na0 O52 2.332003 1_555
Na0 O67 2.343302 1_545
Na0 O53 2.443960 1_555
Na0 O31 2.543624 1_545
Na0 O16 2.606732 1_555
Na0 O66 2.663577 1_545
Na1 O51 2.367712 1_555
Na1 O66 2.383256 1_655
Na1 O68 2.436518 1_655
Na1 O15 2.476850 1_555
Na1 O52 2.622313 1_555
Na1 O30 2.653057 1_655
Na2 O3 2.448995 1_565
Na2 O48 2.489274 1_565
Na2 O71 2.518831 1_555
Na2 O8 2.646654 1_555
Na2 O70 2.738466 1_555
Na2 O34 2.780088 1_555
Na2 O49 2.803592 1_565
Na2 O13 2.939300 1_565
Na3 O42 2.418435 1_555
Na3 O7 2.433297 1_555
Na3 O64 2.547720 1_555
Na3 O43 2.580456 1_545
Na3 O21 2.748537 1_555
Na3 O65 2.893539 1_555
Na3 O14 2.896006 1_555
Na3 O28 2.932615 1_555
Na4 O43 2.305691 1_555
Na4 O65 2.520146 1_555
Na4 O44 2.554231 1_455
Na4 O8 2.609789 1_555
Na4 O63 2.843632 1_555
Na4 O12 2.888440 1_455
Na4 O22 2.896094 1_455
Na5 O6 2.243011 1_555
Na5 O44 2.403098 1_555
Na5 O63 2.517532 1_555
Na5 O42 2.609745 1_665
Na5 O64 2.829681 1_555
Na5 O13 2.912747 1_565
Na5 O23 2.989218 1_565
Na6 O62 2.337316 1_555
Na6 O24 2.341691 1_554
Na6 O45 2.481351 1_555
Na6 O60 2.529995 1_555
Na7 O25 2.334957 1_554
Na7 O61 2.376285 1_555
Na7 O60 2.410408 1_555
Na7 O46 2.440691 1_455
Na7 O47 2.772182 1_555
Na8 O41 2.332863 1_555
Na8 O4 2.440358 1_555
Na8 O40 2.503958 1_655
Na8 O55 2.518957 1_555
Na8 O33 2.759220 1_655
Na8 O54 2.864504 1_555
Na8 O26 2.925873 1_655
Na9 O43 2.495657 1_555
Na9 O36 2.625105 1_555
Na9 O38 2.626355 1_565
Na9 O44 2.656664 1_455
Na9 O42 2.680198 1_565
Na9 O37 2.722559 1_455
Na10 O39 2.384891 1_555
Na10 O40 2.487412 1_545
Na10 O41 2.605598 1_445
Na10 O47 2.726942 1_556
Na10 O46 2.817896 1_456
Na10 O45 2.870302 1_446
Na11 O48 2.524771 1_555
Na11 O55 2.541041 1_555
Na11 O56 2.604533 1_555
Na11 O54 2.621690 1_555
Na11 O50 2.684898 1_555
Na11 O49 2.724409 1_555
Na12 O58 2.430061 1_555
Na12 O53 2.619234 1_555
Na12 O59 2.624832 1_555
Na12 O57 2.642561 1_555
Na12 O51 2.675549 1_555
Na12 O52 2.816461 1_555
Na13 O61 2.412103 1_555
Na13 O66 2.579827 1_555
Na13 O68 2.607733 1_555
Na13 O62 2.675540 1_555
Na13 O60 2.715944 1_555
Na13 O67 2.720990 1_555
Na14 O71 2.616137 1_555
Na14 O64 2.624397 1_555
Na14 O69 2.653433 1_555
Na14 O65 2.675767 1_555
Na14 O70 2.724377 1_555
Na14 O63 2.785304 1_555
Ca0 O5 2.137368 1_555
Ca0 O39 2.284895 1_655
Ca0 O3 2.315118 1_655
Ca0 O40 2.323161 1_645
Ca0 O41 2.365346 1_545
Ca0 O4 2.381621 1_545
Ca1 O6 2.268025 1_545
Ca1 O43 2.336583 1_645
Ca1 O8 2.344658 1_645
Ca1 O42 2.353659 1_655
Ca1 O44 2.362436 1_545
Ca1 O7 2.377583 1_655
Ca2 O17 2.159772 1_555
Ca2 O15 2.163755 1_555
Ca2 O16 2.256842 1_555
Ca2 O53 2.311071 1_555
Ca2 O51 2.359729 1_555
Ca2 O52 2.395809 1_555
Ca3 O21 2.161670 1_555
Ca3 O22 2.222616 1_555
Ca3 O23 2.223832 1_555
Ca3 O58 2.256984 1_555
Ca3 O57 2.263526 1_555
Ca3 O59 2.287866 1_555
Ca4 O26 2.137883 1_554
Ca4 O61 2.237831 1_555
Ca4 O25 2.245311 1_554
Ca4 O24 2.253935 1_554
Ca4 O62 2.301087 1_555
Ca4 O60 2.311944 1_555
Ca5 O32 2.124517 1_555
Ca5 O31 2.221952 1_555
Ca5 O30 2.226264 1_555
Ca5 O68 2.318206 1_555
Ca5 O67 2.352402 1_555
Ca5 O66 2.403459 1_555
Nb0 O2 1.999855 1_555
Nb0 O38 2.002860 1_555
Nb0 O0 2.007782 1_555
Nb0 O1 2.008738 1_445
Nb0 O37 2.026734 1_445
Nb0 O36 2.035883 1_545
Nb1 O11 1.954363 1_565
Nb1 O45 1.974138 1_455
Nb1 O9 1.983094 1_455
Nb1 O10 2.025608 1_565
Nb1 O47 2.049515 1_565
Nb1 O46 2.115623 1_465
Nb2 O48 1.949458 1_555
Nb2 O13 1.959330 1_555
Nb2 O49 2.029728 1_555
Nb2 O12 2.042530 1_555
Nb2 O50 2.067503 1_555
Nb2 O14 2.093009 1_555
Nb3 O19 1.953225 1_556
Nb3 O18 2.007612 1_556
Nb3 O20 2.039468 1_556
Nb3 O54 2.076858 1_555
Nb3 O56 2.091961 1_555
Nb3 O55 2.094717 1_555
Nb4 O29 1.967924 1_555
Nb4 O27 1.970570 1_555
Nb4 O63 2.009503 1_555
Nb4 O28 2.018494 1_555
Nb4 O64 2.154991 1_555
Nb4 O65 2.187431 1_555
Nb5 O71 1.938314 1_555
Nb5 O35 2.006179 1_555
Nb5 O69 2.015371 1_555
Nb5 O34 2.048707 1_555
Nb5 O70 2.049311 1_555
Nb5 O33 2.085274 1_555
O0 P0 1.565461 1_545
O1 P1 1.574812 1_555
O2 P2 1.582587 1_555
O3 P3 1.520872 1_555
O4 P4 1.518550 1_655
O5 Si0 1.574088 1_545
O6 Si0 1.595962 1_555
O7 P3 1.525184 1_555
O8 P4 1.539447 1_555
O9 P1 1.604239 1_555
O10 P2 1.585330 1_555
O11 P0 1.602708 1_545
O12 P5 1.608439 1_555
O13 Si1 1.720567 1_555
O14 P6 1.589882 1_555
O15 Si2 1.588580 1_555
O16 P7 1.510571 1_555
O17 P8 1.498908 1_555
O18 P8 1.598248 1_555
O19 Si2 1.753700 1_555
O20 P7 1.609332 1_555
O21 Si1 1.564734 1_555
O22 P6 1.502443 1_555
O23 P5 1.498015 1_555
O24 P9 1.509972 1_555
O25 P10 1.515769 1_555
O26 P11 1.505452 1_555
O27 P12 1.643689 1_555
O28 P13 1.624486 1_555
O29 P14 1.648839 1_555
O30 P14 1.504960 1_555
O31 P12 1.508813 1_555
O32 P13 1.490303 1_555
O33 P10 1.596739 1_555
O34 P11 1.607496 1_555
O35 P9 1.601285 1_555
O36 P14 1.599154 1_555
O37 P12 1.598045 1_555
O38 P13 1.609622 1_555
O39 P10 1.504803 1_555
O40 P11 1.520626 1_555
O41 P9 1.520109 1_555
O42 P5 1.531954 1_455
O43 Si1 1.614590 1_565
O44 P6 1.534734 1_555
O45 Si2 1.702852 1_555
O46 P7 1.608276 1_555
O47 P8 1.584513 1_555
O48 Si0 1.705696 1_545
O49 P3 1.582422 1_555
O50 P4 1.561260 1_655
O51 P1 1.517773 1_555
O52 P2 1.537557 1_655
O53 P0 1.514601 1_545
O54 P9 1.602843 1_555
O55 P10 1.618383 1_655
O56 P11 1.580450 1_545
O57 P12 1.497025 1_545
O58 P13 1.504957 1_555
O59 P14 1.498248 1_655
O60 P8 1.526308 1_555
O61 Si2 1.592572 1_455
O62 P7 1.519327 1_565
O63 Si1 1.712310 1_565
O64 P6 1.603785 1_555
O65 P5 1.596325 1_455
O66 P0 1.534460 1_555
O67 P1 1.523824 1_555
O68 P2 1.517991 1_555
O69 P3 1.577049 1_555
O70 P4 1.593074 1_555
O71 Si0 1.713736 1_555
