# generated using pymatgen
data_Na6MgZr7(PO4)12
_symmetry_space_group_name_H-M   'P 1'
_cell_length_a   17.85161835
_cell_length_b   8.93702208
_cell_length_c   23.29399742
_cell_angle_alpha   90.03116129
_cell_angle_beta   89.97851157
_cell_angle_gamma   120.00686177
_symmetry_Int_Tables_number   1
_chemical_formula_structural   Na6MgZr7(PO4)12
_chemical_formula_sum   'Na18 Mg3 Zr21 P36 O144'
_cell_volume   3218.21443747
_cell_formula_units_Z   3
loop_
 _symmetry_equiv_pos_site_id
 _symmetry_equiv_pos_as_xyz
  1  'x, y, z'
loop_
 _atom_site_type_symbol
 _atom_site_label
 _atom_site_symmetry_multiplicity
 _atom_site_fract_x
 _atom_site_fract_y
 _atom_site_fract_z
 _atom_site_occupancy
  Na  Na0  1  0.68774515  0.36423800  0.24602530  1
  Na  Na1  1  0.99384856  0.62373976  0.24584949  1
  Na  Na2  1  0.99374017  0.36124354  0.74369587  1
  Na  Na3  1  0.49397006  0.36149331  0.74374444  1
  Na  Na4  1  0.18605249  0.00929427  0.74372956  1
  Na  Na5  1  0.68611235  0.00941885  0.74394038  1
  Na  Na6  1  0.99998910  0.99936367  0.50003554  1
  Na  Na7  1  0.49993752  0.00013016  0.50025813  1
  Na  Na8  1  0.99846879  0.99751798  0.00159684  1
  Na  Na9  1  0.50155155  0.00297941  0.00099550  1
  Na  Na10  1  0.33315571  0.34391080  0.83011783  1
  Na  Na11  1  0.83282190  0.34349016  0.83152079  1
  Na  Na12  1  0.33314986  0.33354057  0.33557907  1
  Na  Na13  1  0.83324597  0.32147882  0.33161593  1
  Na  Na14  1  0.16957616  0.66500233  0.16605514  1
  Na  Na15  1  0.66871155  0.67919835  0.16538458  1
  Na  Na16  1  0.17155068  0.66544345  0.66094630  1
  Na  Na17  1  0.67156592  0.66554438  0.66118308  1
  Mg  Mg0  1  0.33294823  0.34098060  0.68083486  1
  Mg  Mg1  1  0.83288331  0.34079271  0.68086915  1
  Mg  Mg2  1  0.83317709  0.32365602  0.18251641  1
  Zr  Zr0  1  0.00000564  0.00302443  0.35334572  1
  Zr  Zr1  1  0.49962019  0.99854085  0.35400081  1
  Zr  Zr2  1  0.99950234  0.99810595  0.85323359  1
  Zr  Zr3  1  0.49990531  0.99811339  0.85333691  1
  Zr  Zr4  1  0.99870472  0.99774065  0.64393246  1
  Zr  Zr5  1  0.49882526  0.99755886  0.64394498  1
  Zr  Zr6  1  0.99738744  0.00062172  0.14609306  1
  Zr  Zr7  1  0.50138214  -0.00034436  0.14597817  1
  Zr  Zr8  1  0.33314613  0.33430498  0.18630889  1
  Zr  Zr9  1  0.33356739  0.33229115  0.98027446  1
  Zr  Zr10  1  0.83336282  0.33264331  0.98296547  1
  Zr  Zr11  1  0.33329132  0.33296986  0.48281804  1
  Zr  Zr12  1  0.83357671  0.33483712  0.48209207  1
  Zr  Zr13  1  0.16470885  0.66600150  0.02086984  1
  Zr  Zr14  1  0.66807438  0.66682711  0.02110003  1
  Zr  Zr15  1  0.16629580  0.66706641  0.52061673  1
  Zr  Zr16  1  0.66658599  0.66619216  0.52086827  1
  Zr  Zr17  1  0.16966767  0.66530909  0.31495155  1
  Zr  Zr18  1  0.66641250  0.67424078  0.31526410  1
  Zr  Zr19  1  0.16944482  0.66552460  0.81579399  1
  Zr  Zr20  1  0.66942648  0.66618819  0.81600939  1
  P  P0  1  0.14492974  0.00012371  0.24994130  1
  P  P1  1  0.64742669  0.00369205  0.24951234  1
  P  P2  1  0.35542993  0.71062485  0.24954071  1
  P  P3  1  0.85359048  0.70555772  0.24980320  1
  P  P4  1  0.99792221  0.29192220  0.24973418  1
  P  P5  1  0.49972314  0.28989612  0.25036459  1
  P  P6  1  0.14677498  0.28995213  0.74945416  1
  P  P7  1  0.64689805  0.29033368  0.74938995  1
  P  P8  1  0.99765034  0.70430671  0.74997650  1
  P  P9  1  0.49762872  0.70427332  0.74994725  1
  P  P10  1  0.35429304  0.00208363  0.74952221  1
  P  P11  1  0.85418192  0.00206258  0.74942499  1
  P  P12  1  0.47808868  0.33491341  0.58633586  1
  P  P13  1  0.97801145  0.33516772  0.58623081  1
  P  P14  1  0.18959634  0.04389185  0.58645891  1
  P  P15  1  0.68983320  0.04416033  0.58626153  1
  P  P16  1  0.33204820  0.61981154  0.58500265  1
  P  P17  1  0.83218959  0.61974146  0.58510286  1
  P  P18  1  0.47851179  0.62338214  0.08309302  1
  P  P19  1  0.97751612  0.62269455  0.08637048  1
  P  P20  1  0.33353638  0.04293013  0.08350438  1
  P  P21  1  0.83271109  0.04497879  0.08495612  1
  P  P22  1  0.18794282  0.33310824  0.08312133  1
  P  P23  1  0.68921531  0.33396562  0.08636598  1
  P  P24  1  0.31256905  0.66639007  0.91818045  1
  P  P25  1  0.81309436  0.66508807  0.91769519  1
  P  P26  1  0.02023200  0.37473674  0.91630471  1
  P  P27  1  0.52105341  0.37552826  0.91646247  1
  P  P28  1  0.16698763  0.95853279  0.91627637  1
  P  P29  1  0.66738169  0.95896264  0.91676255  1
  P  P30  1  0.31199508  0.95869820  0.41709610  1
  P  P31  1  0.81229444  0.95926134  0.41761588  1
  P  P32  1  0.16734877  0.37534263  0.41757412  1
  P  P33  1  0.66716852  0.37651065  0.41575236  1
  P  P34  1  0.02100316  0.66635516  0.41576553  1
  P  P35  1  0.52030337  0.66506454  0.41752358  1
  O  O0  1  0.10227332  0.02468828  0.30381902  1
  O  O1  1  0.60060122  0.02633860  0.30265906  1
  O  O2  1  0.41018526  0.79592886  0.30349329  1
  O  O3  1  0.91200331  0.79759826  0.30264139  1
  O  O4  1  0.48743265  0.17906775  0.30383416  1
  O  O5  1  0.98923630  0.18079824  0.30316981  1
  O  O6  1  0.10117503  0.17580363  0.80325341  1
  O  O7  1  0.60110534  0.17583218  0.80322558  1
  O  O8  1  0.48853433  0.79678896  0.80368941  1
  O  O9  1  0.98864058  0.79697651  0.80368905  1
  O  O10  1  0.41175902  0.02605480  0.80298300  1
  O  O11  1  0.91170719  0.02613100  0.80286696  1
  O  O12  1  0.39750855  0.97368169  0.69665822  1
  O  O13  1  0.89759010  0.97363865  0.69662642  1
  O  O14  1  0.08656296  0.20544704  0.69712499  1
  O  O15  1  0.58651496  0.20545599  0.69709118  1
  O  O16  1  0.01615042  0.82527345  0.69788499  1
  O  O17  1  0.51598226  0.82504401  0.69787851  1
  O  O18  1  0.39850804  0.82138957  0.19595222  1
  O  O19  1  0.89719953  0.82040598  0.19663937  1
  O  O20  1  0.01245197  0.20482651  0.19672932  1
  O  O21  1  0.51475410  0.20501787  0.19707808  1
  O  O22  1  0.08740024  0.97027886  0.19681998  1
  O  O23  1  0.58921647  0.97487655  0.19624185  1
  O  O24  1  0.44041302  0.35950117  0.64168639  1
  O  O25  1  0.94044535  0.35944424  0.64166595  1
  O  O26  1  0.23977846  0.11882787  0.64180274  1
  O  O27  1  0.73968030  0.11870353  0.64173362  1
  O  O28  1  0.31885268  0.51477264  0.63815262  1
  O  O29  1  0.81877387  0.51472132  0.63820597  1
  O  O30  1  0.43498015  0.51248079  0.13680420  1
  O  O31  1  0.94024793  0.52119433  0.14124030  1
  O  O32  1  0.32138845  0.13062969  0.13695612  1
  O  O33  1  0.81883854  0.12341397  0.13776268  1
  O  O34  1  0.24375449  0.35799668  0.13684629  1
  O  O35  1  0.73970111  0.36009577  0.14132358  1
  O  O36  1  0.23195801  0.30954914  0.02954127  1
  O  O37  1  0.73239788  0.30928948  0.03193656  1
  O  O38  1  0.42285139  0.53608327  0.02944453  1
  O  O39  1  0.92247975  0.53531106  0.03189531  1
  O  O40  1  0.34544978  0.15381182  0.02972941  1
  O  O41  1  0.84547065  0.15305856  0.02965437  1
  O  O42  1  0.23299416  0.15568350  0.53243496  1
  O  O43  1  0.73327231  0.15623240  0.53225849  1
  O  O44  1  0.34528839  0.53708379  0.52997901  1
  O  O45  1  0.84527493  0.53734458  0.52996299  1
  O  O46  1  0.42233812  0.31058110  0.53230058  1
  O  O47  1  0.92215577  0.31060913  0.53220627  1
  O  O48  1  0.26817169  0.69051261  0.97075439  1
  O  O49  1  0.76902192  0.69039068  0.97028220  1
  O  O50  1  0.07773304  0.46510211  0.96868351  1
  O  O51  1  0.57775633  0.46581318  0.96876635  1
  O  O52  1  0.15541232  0.84517546  0.96878875  1
  O  O53  1  0.65496040  0.84412271  0.96887814  1
  O  O54  1  0.26851200  0.84654420  0.47008518  1
  O  O55  1  0.76839944  0.84658726  0.47032333  1
  O  O56  1  0.15486066  0.46295385  0.47039101  1
  O  O57  1  0.65487406  0.46569555  0.46836312  1
  O  O58  1  0.07777519  0.69030911  0.46843721  1
  O  O59  1  0.57674516  0.69051626  0.47028260  1
  O  O60  1  0.06295762  0.64320259  0.36044054  1
  O  O61  1  0.56395511  0.64207911  0.36322838  1
  O  O62  1  0.25683613  0.87122211  0.36297894  1
  O  O63  1  0.75694203  0.87211036  0.36335873  1
  O  O64  1  0.17920361  0.48574341  0.36336234  1
  O  O65  1  0.67828393  0.48267469  0.36029457  1
  O  O66  1  0.06270317  0.48192525  0.86100338  1
  O  O67  1  0.56227487  0.48161294  0.86089152  1
  O  O68  1  0.17884293  0.87539915  0.86093872  1
  O  O69  1  0.67844584  0.87490524  0.86111206  1
  O  O70  1  0.25753358  0.64210951  0.86381235  1
  O  O71  1  0.75764822  0.64193487  0.86354212  1
  O  O72  1  0.01157493  0.82862593  0.40947321  1
  O  O73  1  0.51152681  0.82764562  0.41027128  1
  O  O74  1  0.40234608  0.97673105  0.41002147  1
  O  O75  1  0.90249738  0.97690348  0.41026001  1
  O  O76  1  0.08596994  0.19490310  0.41051065  1
  O  O77  1  0.58586788  0.19517272  0.40956164  1
  O  O78  1  0.01173826  0.19460521  0.90984720  1
  O  O79  1  0.51143161  0.19444226  0.90998658  1
  O  O80  1  0.08576745  0.97697962  0.91032359  1
  O  O81  1  0.58578274  0.97681047  0.91029683  1
  O  O82  1  0.40272110  0.82877601  0.91074301  1
  O  O83  1  0.90290442  0.82849649  0.91040003  1
  O  O84  1  0.48846737  0.17144253  0.58957047  1
  O  O85  1  0.98851163  0.17159076  0.58961508  1
  O  O86  1  0.09748003  0.02346226  0.58998609  1
  O  O87  1  0.59750913  0.02345415  0.58999370  1
  O  O88  1  0.41412109  0.80397744  0.58945168  1
  O  O89  1  0.91410118  0.80405205  0.58945476  1
  O  O90  1  0.48750144  0.80392027  0.08903370  1
  O  O91  1  0.98908712  0.80737596  0.08965460  1
  O  O92  1  0.41451823  0.02431307  0.08984634  1
  O  O93  1  0.91434952  0.02372498  0.08879221  1
  O  O94  1  0.09767580  0.17132455  0.08949212  1
  O  O95  1  0.59682193  0.17071487  0.08956134  1
  O  O96  1  0.34466660  0.16324128  0.74522369  1
  O  O97  1  0.84469023  0.16322902  0.74511822  1
  O  O98  1  0.23476842  0.30317680  0.74448439  1
  O  O99  1  0.73469594  0.30324256  0.74440475  1
  O  O100  1  0.42142896  0.52203014  0.74502604  1
  O  O101  1  0.92151939  0.52225548  0.74500770  1
  O  O102  1  0.34533187  0.52886921  0.24309741  1
  O  O103  1  0.84474759  0.52622579  0.24484653  1
  O  O104  1  0.42011725  0.31215443  0.24349591  1
  O  O105  1  0.92032965  0.31890579  0.24489424  1
  O  O106  1  0.23570256  0.15961756  0.24329635  1
  O  O107  1  0.73482356  0.16817760  0.24440701  1
  O  O108  1  0.32168336  0.50416101  0.92327227  1
  O  O109  1  0.82199359  0.50323699  0.92304648  1
  O  O110  1  0.43074626  0.35723200  0.92266442  1
  O  O111  1  0.93049870  0.35749746  0.92265174  1
  O  O112  1  0.24800609  0.13893424  0.92260650  1
  O  O113  1  0.74804252  0.13930439  0.92281593  1
  O  O114  1  0.32162831  0.13947509  0.42297933  1
  O  O115  1  0.82155267  0.13963167  0.42315842  1
  O  O116  1  0.24824937  0.35622123  0.42309874  1
  O  O117  1  0.74781739  0.35678495  0.42251659  1
  O  O118  1  0.43009092  0.50309931  0.42300497  1
  O  O119  1  0.93084228  0.50415577  0.42266084  1
  O  O120  1  0.17886941  0.49565801  0.07689049  1
  O  O121  1  0.67695271  0.49305175  0.07607450  1
  O  O122  1  0.06931073  0.64509306  0.07602026  1
  O  O123  1  0.56902436  0.64292190  0.07701261  1
  O  O124  1  0.25242527  0.86230150  0.07694627  1
  O  O125  1  0.75302687  0.86073376  0.07566592  1
  O  O126  1  0.17762710  0.86087478  0.57667489  1
  O  O127  1  0.67767026  0.86073292  0.57660105  1
  O  O128  1  0.25272076  0.64553496  0.57605249  1
  O  O129  1  0.75276770  0.64524212  0.57612137  1
  O  O130  1  0.06966670  0.49479204  0.57669321  1
  O  O131  1  0.56964254  0.49438672  0.57670126  1
  O  O132  1  0.15060742  0.83254973  0.25636429  1
  O  O133  1  0.65483401  0.83880755  0.25615430  1
  O  O134  1  0.26452791  0.69071675  0.25568788  1
  O  O135  1  0.76134046  0.68204843  0.25638188  1
  O  O136  1  0.08047501  0.47628226  0.25628888  1
  O  O137  1  0.58381042  0.46868318  0.25666447  1
  O  O138  1  0.15099584  0.46804914  0.75711581  1
  O  O139  1  0.65091653  0.46825192  0.75710946  1
  O  O140  1  0.08277433  0.69231767  0.75732222  1
  O  O141  1  0.58269793  0.69214001  0.75720133  1
  O  O142  1  0.26189841  0.84130014  0.75656393  1
  O  O143  1  0.76181513  0.84115931  0.75647492  1
loop_
_geom_bond_atom_site_label_1
_geom_bond_atom_site_label_2
_geom_bond_distance
_geom_bond_site_symmetry_2
Na0 O107 2.291447 1_555
Na0 O103 2.427671 1_555
Na0 O137 2.471210 1_555
Na0 O135 2.473583 1_555
Na0 O35 2.615819 1_555
Na0 O65 2.899899 1_555
Na0 O21 2.909852 1_555
Na0 O1 2.929801 1_555
Na1 O103 2.350439 1_555
Na1 O105 2.359782 1_555
Na1 O132 2.479967 1_655
Na1 O136 2.495238 1_655
Na1 O31 2.610654 1_555
Na1 O60 2.909415 1_655
Na1 O22 2.917906 1_655
Na1 O3 2.926774 1_555
Na2 O97 2.345826 1_555
Na2 O101 2.364160 1_555
Na2 O138 2.491940 1_655
Na2 O25 2.557421 1_555
Na2 O140 2.584024 1_655
Na2 O14 2.857611 1_655
Na2 O11 2.937696 1_555
Na2 O66 2.969342 1_655
Na3 O96 2.349668 1_555
Na3 O100 2.365273 1_555
Na3 O139 2.486694 1_555
Na3 O24 2.559450 1_555
Na3 O141 2.580114 1_555
Na3 O15 2.855930 1_555
Na3 O10 2.940643 1_555
Na3 O67 2.962393 1_555
Na4 O98 2.317361 1_555
Na4 O96 2.452579 1_555
Na4 O142 2.492137 1_545
Na4 O140 2.510169 1_545
Na4 O26 2.564586 1_555
Na4 O16 2.838265 1_545
Na4 O6 2.946896 1_555
Na4 O68 2.958394 1_545
Na5 O99 2.317279 1_555
Na5 O97 2.451939 1_555
Na5 O143 2.491222 1_545
Na5 O141 2.511674 1_545
Na5 O27 2.569678 1_555
Na5 O17 2.843484 1_545
Na5 O7 2.945407 1_555
Na5 O69 2.958417 1_545
Na6 O89 2.657242 1_555
Na6 O85 2.660245 1_565
Na6 O76 2.660335 1_665
Na6 O86 2.663256 1_665
Na6 O75 2.663707 1_555
Na6 O72 2.670801 1_655
Na7 O84 2.650277 1_555
Na7 O88 2.655594 1_545
Na7 O87 2.661920 1_555
Na7 O73 2.669835 1_545
Na7 O74 2.671148 1_545
Na7 O77 2.679941 1_555
Na8 O93 2.604672 1_565
Na8 O91 2.615732 1_555
Na8 O94 2.643669 1_665
Na8 O83 2.669581 1_554
Na8 O80 2.695543 1_654
Na8 O78 2.704188 1_664
Na9 O95 2.616312 1_555
Na9 O90 2.643983 1_545
Na9 O92 2.650916 1_555
Na9 O81 2.669862 1_544
Na9 O79 2.674891 1_554
Na9 O82 2.684820 1_544
Na10 O100 2.537348 1_555
Na10 O98 2.560994 1_555
Na10 O96 2.624499 1_555
Na10 O108 2.662952 1_555
Na10 O110 2.737103 1_555
Na10 O112 2.743106 1_555
Na11 O101 2.567419 1_555
Na11 O99 2.586020 1_555
Na11 O109 2.625531 1_555
Na11 O97 2.651142 1_555
Na11 O111 2.710458 1_555
Na11 O113 2.717074 1_555
Na12 O116 2.607470 1_555
Na12 O118 2.610513 1_555
Na12 O114 2.615714 1_555
Na12 O104 2.709542 1_555
Na12 O106 2.712524 1_555
Na12 O102 2.712842 1_555
Na13 O105 2.555659 1_555
Na13 O107 2.585117 1_555
Na13 O115 2.626017 1_555
Na13 O103 2.665264 1_555
Na13 O119 2.711570 1_555
Na13 O117 2.717904 1_555
Na14 O120 2.622859 1_555
Na14 O134 2.626374 1_555
Na14 O124 2.645438 1_555
Na14 O136 2.666591 1_555
Na14 O132 2.699144 1_555
Na14 O122 2.705147 1_555
Na15 O125 2.612323 1_555
Na15 O133 2.629924 1_555
Na15 O123 2.633350 1_555
Na15 O135 2.681137 1_555
Na15 O121 2.712566 1_555
Na15 O137 2.740004 1_555
Na16 O128 2.509425 1_555
Na16 O130 2.590507 1_555
Na16 O126 2.594186 1_555
Na16 O142 2.737849 1_555
Na16 O138 2.760680 1_555
Na16 O140 2.826070 1_555
Na17 O129 2.514118 1_555
Na17 O131 2.595907 1_555
Na17 O127 2.598108 1_555
Na17 O143 2.730543 1_555
Na17 O139 2.755247 1_555
Na17 O141 2.819537 1_555
Mg0 O28 1.963920 1_555
Mg0 O24 2.054408 1_555
Mg0 O26 2.056962 1_555
Mg0 O98 2.188739 1_555
Mg0 O100 2.188987 1_555
Mg0 O96 2.269752 1_555
Mg1 O29 1.964869 1_555
Mg1 O25 2.056072 1_555
Mg1 O27 2.057902 1_555
Mg1 O99 2.187599 1_555
Mg1 O101 2.190524 1_555
Mg1 O97 2.267129 1_555
Mg2 O33 1.973543 1_555
Mg2 O31 2.078438 1_555
Mg2 O35 2.087204 1_555
Mg2 O105 2.145106 1_555
Mg2 O107 2.156855 1_555
Mg2 O103 2.247559 1_555
O0 P0 1.539266 1_555
O0 Zr0 2.084838 1_555
O1 P1 1.562217 1_555
O1 Zr1 2.071820 1_545
O2 P2 1.539694 1_555
O2 Zr1 2.078350 1_555
O3 P3 1.555896 1_555
O3 Zr0 2.085136 1_665
O4 P5 1.537621 1_555
O4 Zr1 2.090269 1_545
O5 P4 1.551404 1_555
O5 Zr0 2.057894 1_655
O6 P6 1.563291 1_555
O6 Zr2 2.071037 1_445
O7 P7 1.565879 1_555
O7 Zr3 2.068678 1_545
O8 P9 1.552462 1_555
O8 Zr3 2.061200 1_555
O9 P8 1.552153 1_555
O9 Zr2 2.061511 1_555
O10 P10 1.558829 1_555
O10 Zr3 2.075800 1_545
O11 P11 1.558936 1_555
O11 Zr2 2.071215 1_545
O12 P10 1.539733 1_565
O12 Zr5 2.106453 1_555
O13 P11 1.540607 1_565
O13 Zr4 2.102621 1_555
O14 P6 1.549072 1_555
O14 Zr4 2.127889 1_445
O15 P7 1.550359 1_555
O15 Zr5 2.127217 1_545
O16 P8 1.547325 1_455
O16 Zr4 2.129490 1_455
O17 P9 1.546228 1_555
O17 Zr5 2.126952 1_555
O18 P2 1.539071 1_555
O18 Zr7 2.083248 1_565
O19 P3 1.547459 1_555
O19 Zr6 2.073269 1_565
O20 P4 1.548635 1_455
O20 Zr6 2.073924 1_455
O21 P5 1.546104 1_555
O21 Zr7 2.098072 1_555
O22 P0 1.543908 1_565
O22 Zr6 2.118831 1_465
O23 P1 1.555279 1_565
O23 Zr7 2.056077 1_565
O24 P12 1.519831 1_555
O25 P13 1.519487 1_555
O26 P14 1.520810 1_555
O27 P15 1.520636 1_555
O28 P16 1.499804 1_555
O29 P17 1.498202 1_555
O30 P18 1.543324 1_555
O30 Zr8 2.067664 1_555
O31 P19 1.515290 1_555
O32 P20 1.542840 1_555
O32 Zr8 2.072382 1_555
O33 P21 1.496078 1_555
O34 P22 1.545087 1_555
O34 Zr8 2.063609 1_555
O35 P23 1.515153 1_555
O36 P22 1.543991 1_555
O36 Zr9 2.068453 1_554
O37 P23 1.555444 1_555
O37 Zr10 2.053263 1_554
O38 P18 1.543439 1_555
O38 Zr9 2.065184 1_554
O39 P19 1.554931 1_555
O39 Zr10 2.056121 1_554
O40 P20 1.544884 1_555
O40 Zr9 2.063242 1_554
O41 P21 1.557369 1_555
O41 Zr10 2.038247 1_554
O42 P14 1.551929 1_555
O42 Zr11 2.053038 1_555
O43 P15 1.552654 1_555
O43 Zr12 2.064308 1_555
O44 P16 1.555257 1_555
O44 Zr11 2.046352 1_555
O45 P17 1.554792 1_555
O45 Zr12 2.045104 1_555
O46 P12 1.551219 1_555
O46 Zr11 2.053122 1_555
O47 P13 1.551724 1_555
O47 Zr12 2.062566 1_555
O48 P24 1.531112 1_555
O48 Zr13 2.101452 1_556
O49 P25 1.532184 1_555
O49 Zr14 2.076581 1_556
O50 P26 1.537943 1_555
O50 Zr13 2.079151 1_556
O51 P27 1.530696 1_555
O51 Zr14 2.101188 1_556
O52 P28 1.535277 1_555
O52 Zr13 2.081227 1_556
O53 P29 1.532903 1_555
O53 Zr14 2.102028 1_556
O54 P30 1.534011 1_555
O54 Zr15 2.088284 1_555
O55 P31 1.531936 1_555
O55 Zr16 2.087700 1_555
O56 P32 1.532898 1_555
O56 Zr15 2.088883 1_555
O57 P33 1.535919 1_555
O57 Zr16 2.091261 1_555
O58 P34 1.536868 1_555
O58 Zr15 2.085112 1_555
O59 P35 1.532549 1_555
O59 Zr16 2.087665 1_555
O60 P34 1.555181 1_555
O60 Zr17 2.100698 1_555
O61 P35 1.551812 1_555
O61 Zr18 2.036976 1_555
O62 P30 1.549125 1_555
O62 Zr17 2.048029 1_555
O63 P31 1.552571 1_555
O63 Zr18 2.033410 1_555
O64 P32 1.550892 1_555
O64 Zr17 2.037480 1_555
O65 P33 1.556035 1_555
O65 Zr18 2.107427 1_555
O66 P26 1.557592 1_555
O66 Zr19 2.074955 1_555
O67 P27 1.555257 1_555
O67 Zr20 2.077832 1_555
O68 P28 1.553843 1_555
O68 Zr19 2.082145 1_555
O69 P29 1.559152 1_555
O69 Zr20 2.075261 1_555
O70 P24 1.550365 1_555
O70 Zr19 2.024469 1_555
O71 P25 1.552276 1_555
O71 Zr20 2.023919 1_555
O72 P34 1.548331 1_555
O72 Zr0 2.122656 1_565
O73 P35 1.546690 1_555
O73 Zr1 2.103091 1_555
O74 P30 1.547402 1_555
O74 Zr1 2.101510 1_555
O75 P31 1.546954 1_555
O75 Zr0 2.105772 1_665
O76 P32 1.547486 1_555
O76 Zr0 2.106113 1_555
O77 P33 1.549500 1_555
O77 Zr1 2.103930 1_545
O78 P26 1.546870 1_555
O78 Zr2 2.117737 1_445
O79 P27 1.546964 1_555
O79 Zr3 2.121052 1_545
O80 P28 1.545286 1_555
O80 Zr2 2.113835 1_455
O81 P29 1.550036 1_555
O81 Zr3 2.107293 1_555
O82 P24 1.546018 1_555
O82 Zr3 2.112506 1_555
O83 P25 1.546039 1_555
O83 Zr2 2.104900 1_555
O84 P12 1.563721 1_555
O84 Zr5 2.084012 1_545
O85 P13 1.566108 1_555
O85 Zr4 2.081608 1_545
O86 P14 1.563277 1_555
O86 Zr4 2.081924 1_445
O87 P15 1.566207 1_555
O87 Zr5 2.080216 1_545
O88 P16 1.566620 1_555
O88 Zr5 2.067197 1_555
O89 P17 1.566051 1_555
O89 Zr4 2.066864 1_555
O90 P18 1.545636 1_555
O90 Zr7 2.108341 1_565
O91 P19 1.559343 1_555
O91 Zr6 2.115355 1_565
O92 P20 1.542789 1_555
O92 Zr7 2.122822 1_555
O93 P21 1.563653 1_555
O93 Zr6 2.080755 1_555
O94 P22 1.542363 1_555
O94 Zr6 2.130617 1_455
O95 P23 1.564516 1_555
O95 Zr7 2.088605 1_555
O96 P10 1.536770 1_555
O97 P11 1.535465 1_555
O98 P6 1.519555 1_555
O99 P7 1.517351 1_555
O100 P9 1.516629 1_555
O101 P8 1.515198 1_555
O102 P2 1.549331 1_555
O102 Zr8 2.107154 1_555
O103 P3 1.534156 1_555
O104 P5 1.538711 1_555
O104 Zr8 2.129191 1_555
O105 P4 1.524389 1_555
O106 P0 1.539919 1_555
O106 Zr8 2.123594 1_555
O107 P1 1.521619 1_555
O108 P24 1.542316 1_555
O108 Zr9 2.120319 1_555
O109 P25 1.537236 1_555
O109 Zr10 2.150754 1_555
O110 P27 1.543618 1_555
O110 Zr9 2.114689 1_555
O111 P26 1.537734 1_655
O111 Zr10 2.154844 1_555
O112 P28 1.542891 1_545
O112 Zr9 2.117223 1_555
O113 P29 1.539342 1_545
O113 Zr10 2.152959 1_555
O114 P30 1.542863 1_545
O114 Zr11 2.148047 1_555
O115 P31 1.541350 1_545
O115 Zr12 2.144108 1_555
O116 P32 1.542242 1_555
O116 Zr11 2.144880 1_555
O117 P33 1.543612 1_555
O117 Zr12 2.147174 1_555
O118 P35 1.540619 1_555
O118 Zr11 2.147480 1_555
O119 P34 1.544046 1_655
O119 Zr12 2.143294 1_555
O120 P22 1.547020 1_555
O120 Zr13 2.114639 1_555
O121 P23 1.561566 1_555
O121 Zr14 2.079764 1_555
O122 P19 1.566889 1_455
O122 Zr13 2.065401 1_555
O123 P18 1.542396 1_555
O123 Zr14 2.118782 1_555
O124 P20 1.545262 1_565
O124 Zr13 2.118335 1_555
O125 P21 1.561631 1_565
O125 Zr14 2.070992 1_555
O126 P14 1.556582 1_565
O126 Zr15 2.096054 1_555
O127 P15 1.558427 1_565
O127 Zr16 2.097857 1_555
O128 P16 1.558081 1_555
O128 Zr15 2.093694 1_555
O129 P17 1.558638 1_555
O129 Zr16 2.085277 1_555
O130 P13 1.557893 1_455
O130 Zr15 2.096761 1_555
O131 P12 1.556618 1_555
O131 Zr16 2.094451 1_555
O132 P0 1.558069 1_565
O132 Zr17 2.173344 1_555
O133 P1 1.551776 1_565
O133 Zr18 2.099554 1_555
O134 P2 1.548078 1_555
O134 Zr17 2.106876 1_555
O135 P3 1.559933 1_555
O135 Zr18 2.153597 1_555
O136 P4 1.575141 1_455
O136 Zr17 2.136610 1_555
O137 P5 1.558457 1_555
O137 Zr18 2.168366 1_555
O138 P6 1.565454 1_555
O138 Zr19 2.123150 1_555
O139 P7 1.565688 1_555
O139 Zr20 2.129293 1_555
O140 P8 1.585249 1_455
O140 Zr19 2.163062 1_555
O141 P9 1.584755 1_555
O141 Zr20 2.165297 1_555
O142 P10 1.562583 1_565
O142 Zr19 2.121963 1_555
O143 P11 1.562727 1_565
O143 Zr20 2.123595 1_555
