# generated using pymatgen
data_Na3MgGe(PO4)3
_symmetry_space_group_name_H-M   'P 1'
_cell_length_a   8.74186921
_cell_length_b   8.74231773
_cell_length_c   21.76178066
_cell_angle_alpha   89.99999999
_cell_angle_beta   90.11919824
_cell_angle_gamma   120.00169934
_symmetry_Int_Tables_number   1
_chemical_formula_structural   Na3MgGe(PO4)3
_chemical_formula_sum   'Na18 Mg6 Ge6 P18 O72'
_cell_volume   1440.28109796
_cell_formula_units_Z   6
loop_
 _symmetry_equiv_pos_site_id
 _symmetry_equiv_pos_as_xyz
  1  'x, y, z'
loop_
 _atom_site_type_symbol
 _atom_site_label
 _atom_site_symmetry_multiplicity
 _atom_site_fract_x
 _atom_site_fract_y
 _atom_site_fract_z
 _atom_site_occupancy
  Na  Na0  1  0.99083990  0.98042747  0.49713442  1
  Na  Na1  1  0.99083990  0.01041243  0.99713442  1
  Na  Na2  1  0.66730448  0.33528625  0.83042798  1
  Na  Na3  1  0.66730448  0.33201723  0.33042798  1
  Na  Na4  1  0.33235082  0.66574441  0.16378170  1
  Na  Na5  1  0.33235082  0.66660741  0.66378170  1
  Na  Na6  1  0.36775356  0.36221987  0.24872676  1
  Na  Na7  1  0.99084067  0.63170448  0.24865078  1
  Na  Na8  1  0.99084067  0.35913618  0.74865078  1
  Na  Na9  1  0.36775356  0.00553369  0.74872676  1
  Na  Na10  1  0.30698472  0.34181959  0.58235114  1
  Na  Na11  1  0.66069421  0.96514064  0.58177953  1
  Na  Na12  1  0.30698472  0.96516414  0.08235114  1
  Na  Na13  1  0.66069421  0.69555257  0.08177953  1
  Na  Na14  1  0.97320922  0.67552937  0.91483414  1
  Na  Na15  1  0.32749928  0.29985378  0.91577139  1
  Na  Na16  1  0.97320922  0.29768085  0.41483414  1
  Na  Na17  1  0.32749928  0.02764650  0.41577139  1
  Mg  Mg0  1  0.99477867  0.99566361  0.35258860  1
  Mg  Mg1  1  0.99477867  0.99911507  0.85258860  1
  Mg  Mg2  1  0.66723853  0.33875817  0.68591669  1
  Mg  Mg3  1  0.66723853  0.32847936  0.18591669  1
  Mg  Mg4  1  0.33031007  0.66248675  0.01930008  1
  Mg  Mg5  1  0.33031007  0.66782432  0.51930008  1
  Ge  Ge0  1  0.99720489  0.99250639  0.64947348  1
  Ge  Ge1  1  0.99720489  0.00469850  0.14947348  1
  Ge  Ge2  1  0.66948948  0.32703949  0.98272205  1
  Ge  Ge3  1  0.66948948  0.34244898  0.48272205  1
  Ge  Ge4  1  0.33895244  0.67184148  0.31612145  1
  Ge  Ge5  1  0.33895244  0.66711195  0.81612145  1
  P  P0  1  0.29155384  0.99687649  0.25179049  1
  P  P1  1  0.70631947  0.71374305  0.25085675  1
  P  P2  1  0.00096814  0.29194606  0.25282332  1
  P  P3  1  0.29155384  0.29467735  0.75179049  1
  P  P4  1  0.00096814  0.70902208  0.75282332  1
  P  P5  1  0.70631947  0.99257643  0.75085675  1
  P  P6  1  0.95767705  0.33254979  0.58544232  1
  P  P7  1  0.37126056  0.04178543  0.58533042  1
  P  P8  1  0.67349976  0.62618113  0.58462936  1
  P  P9  1  0.95767705  0.62512626  0.08544232  1
  P  P10  1  0.67349976  0.04731763  0.08462936  1
  P  P11  1  0.37126056  0.32947413  0.08533042  1
  P  P12  1  0.62426319  0.66605198  0.91957466  1
  P  P13  1  0.03957880  0.37581590  0.91775744  1
  P  P14  1  0.34146726  0.96143123  0.91818371  1
  P  P15  1  0.62426319  0.95821221  0.41957466  1
  P  P16  1  0.34146726  0.38003703  0.41818371  1
  P  P17  1  0.03957880  0.66376391  0.41775744  1
  O  O0  1  0.20849529  0.02658631  0.30811507  1
  O  O1  1  0.82590919  0.79637244  0.30438427  1
  O  O2  1  0.97955399  0.18843445  0.31005716  1
  O  O3  1  0.20849529  0.18190899  0.80811507  1
  O  O4  1  0.97955399  0.79111955  0.81005716  1
  O  O5  1  0.82590919  0.02953675  0.80438427  1
  O  O6  1  0.78521268  0.95927335  0.68925293  1
  O  O7  1  0.16701494  0.21217166  0.69216707  1
  O  O8  1  0.04513358  0.83626930  0.69459411  1
  O  O9  1  0.78521268  0.82593934  0.18925293  1
  O  O10  1  0.04513358  0.20886428  0.19459411  1
  O  O11  1  0.16701494  0.95484328  0.19216707  1
  O  O12  1  0.87348483  0.35382598  0.64224722  1
  O  O13  1  0.48422252  0.12515905  0.64141815  1
  O  O14  1  0.63613578  0.50882388  0.63897042  1
  O  O15  1  0.87348483  0.51965785  0.14224722  1
  O  O16  1  0.63613578  0.12731090  0.13897042  1
  O  O17  1  0.48422252  0.35906247  0.14141815  1
  O  O18  1  0.45317096  0.28745130  0.02568496  1
  O  O19  1  0.83477216  0.54335283  0.02561931  1
  O  O20  1  0.70931852  0.16332437  0.02449475  1
  O  O21  1  0.45317096  0.16571867  0.52568496  1
  O  O22  1  0.70931852  0.54599315  0.52449475  1
  O  O23  1  0.83477216  0.29141833  0.52561931  1
  O  O24  1  0.54321929  0.68902445  0.97659815  1
  O  O25  1  0.15713634  0.46269488  0.97151531  1
  O  O26  1  0.30788090  0.84794874  0.97441003  1
  O  O27  1  0.54321929  0.85419584  0.47659815  1
  O  O28  1  0.30788090  0.45993316  0.47441003  1
  O  O29  1  0.15713634  0.69444245  0.47151531  1
  O  O30  1  0.11793235  0.62067736  0.35696568  1
  O  O31  1  0.49677431  0.87580153  0.36113123  1
  O  O32  1  0.37259175  0.49492215  0.35783325  1
  O  O33  1  0.11793235  0.49725599  0.85696568  1
  O  O34  1  0.37259175  0.87767060  0.85783325  1
  O  O35  1  0.49677431  0.62097378  0.86113123  1
  O  O36  1  0.01925239  0.82514734  0.40957706  1
  O  O37  1  0.81036578  0.99030684  0.41117859  1
  O  O38  1  0.18093802  0.19381222  0.41070202  1
  O  O39  1  0.01925239  0.19410505  0.90957706  1
  O  O40  1  0.18093802  0.98712580  0.91070202  1
  O  O41  1  0.81036578  0.82005894  0.91117859  1
  O  O42  1  0.97091223  0.15551866  0.58826092  1
  O  O43  1  0.18548039  0.03278397  0.59001676  1
  O  O44  1  0.84348709  0.81701094  0.58977756  1
  O  O45  1  0.97091223  0.81539357  0.08826092  1
  O  O46  1  0.84348709  0.02647614  0.08977756  1
  O  O47  1  0.18548039  0.15269642  0.09001676  1
  O  O48  1  0.67841177  0.15196977  0.74330351  1
  O  O49  1  0.47215905  0.31285621  0.74357770  1
  O  O50  1  0.84702622  0.52305744  0.74461403  1
  O  O51  1  0.67841177  0.52644101  0.24330351  1
  O  O52  1  0.84702622  0.32396778  0.24461403  1
  O  O53  1  0.47215905  0.15930184  0.24357770  1
  O  O54  1  0.63782137  0.48888229  0.92266674  1
  O  O55  1  0.85376562  0.36740483  0.92264653  1
  O  O56  1  0.51059735  0.15219810  0.92262783  1
  O  O57  1  0.63782137  0.14893809  0.42266674  1
  O  O58  1  0.51059735  0.35839824  0.42262783  1
  O  O59  1  0.85376562  0.48635978  0.42264653  1
  O  O60  1  0.35242706  0.49166467  0.07714361  1
  O  O61  1  0.14431685  0.65759738  0.07776924  1
  O  O62  1  0.51379083  0.86030964  0.07660271  1
  O  O63  1  0.35242706  0.86076339  0.57714361  1
  O  O64  1  0.51379083  0.65348219  0.57660271  1
  O  O65  1  0.14431685  0.48672047  0.57776924  1
  O  O66  1  0.30026465  0.82016303  0.25635153  1
  O  O67  1  0.51536687  0.69264950  0.25634025  1
  O  O68  1  0.17831807  0.48245674  0.25541570  1
  O  O69  1  0.30026465  0.48010262  0.75635153  1
  O  O70  1  0.17831807  0.69586233  0.75541570  1
  O  O71  1  0.51536687  0.82271837  0.75634025  1
loop_
_geom_bond_atom_site_label_1
_geom_bond_atom_site_label_2
_geom_bond_distance
_geom_bond_site_symmetry_2
Na0 O36 2.423685 1_655
Na0 O44 2.436250 1_555
Na0 O37 2.473761 1_555
Na0 O43 2.529251 1_665
Na0 O42 2.563999 1_565
Na0 O38 2.586942 1_665
Na1 O39 2.423685 1_655
Na1 O46 2.436250 1_556
Na1 O41 2.473761 1_545
Na1 O47 2.529251 1_656
Na1 O45 2.563999 1_546
Na1 O40 2.586942 1_645
Na2 O50 2.466478 1_555
Na2 O49 2.484528 1_555
Na2 O54 2.499386 1_555
Na2 O56 2.506596 1_555
Na2 O55 2.508363 1_555
Na2 O48 2.515736 1_555
Na3 O52 2.466478 1_555
Na3 O53 2.484528 1_555
Na3 O57 2.499386 1_555
Na3 O58 2.506596 1_555
Na3 O59 2.508363 1_555
Na3 O51 2.515736 1_555
Na4 O61 2.465916 1_555
Na4 O60 2.483963 1_555
Na4 O68 2.492118 1_555
Na4 O67 2.506477 1_555
Na4 O62 2.514506 1_555
Na4 O66 2.517993 1_555
Na5 O65 2.465916 1_555
Na5 O63 2.483963 1_555
Na5 O70 2.492118 1_555
Na5 O71 2.506477 1_555
Na5 O64 2.514506 1_555
Na5 O69 2.517993 1_555
Na6 O51 2.356379 1_555
Na6 O68 2.368612 1_555
Na6 O53 2.369002 1_555
Na6 O67 2.511693 1_555
Na6 O17 2.555129 1_555
Na6 O32 2.633579 1_555
Na6 O10 2.710004 1_555
Na6 O0 2.853136 1_555
Na7 O52 2.333074 1_555
Na7 O66 2.366557 1_655
Na7 O51 2.409373 1_555
Na7 O15 2.521671 1_555
Na7 O68 2.558828 1_655
Na7 O30 2.626006 1_655
Na7 O11 2.742303 1_655
Na7 O1 2.775827 1_555
Na8 O50 2.333067 1_555
Na8 O69 2.366555 1_655
Na8 O48 2.409374 1_555
Na8 O12 2.521669 1_555
Na8 O70 2.558836 1_655
Na8 O33 2.626009 1_655
Na8 O7 2.742303 1_655
Na8 O5 2.775827 1_555
Na9 O48 2.356379 1_555
Na9 O70 2.368605 1_545
Na9 O49 2.368994 1_555
Na9 O71 2.511685 1_545
Na9 O13 2.555127 1_555
Na9 O34 2.633575 1_545
Na9 O8 2.710004 1_545
Na9 O3 2.853136 1_555
Na10 O65 2.331881 1_555
Na10 O43 2.363490 1_555
Na10 O64 2.404714 1_555
Na10 O42 2.552810 1_455
Na10 O28 2.564379 1_555
Na10 O7 2.667991 1_555
Na10 O21 2.738257 1_555
Na10 O14 2.777265 1_555
Na11 O64 2.363401 1_555
Na11 O42 2.372535 1_565
Na11 O63 2.375849 1_555
Na11 O27 2.495735 1_555
Na11 O44 2.515761 1_555
Na11 O6 2.588978 1_555
Na11 O23 2.759081 1_565
Na11 O13 2.861445 1_565
Na12 O61 2.331866 1_555
Na12 O47 2.363498 1_565
Na12 O62 2.404701 1_555
Na12 O45 2.552810 1_455
Na12 O26 2.564372 1_554
Na12 O11 2.667993 1_555
Na12 O18 2.738257 1_565
Na12 O16 2.777265 1_565
Na13 O62 2.363416 1_555
Na13 O45 2.372534 1_555
Na13 O60 2.375846 1_555
Na13 O24 2.495739 1_554
Na13 O46 2.515768 1_565
Na13 O9 2.588980 1_555
Na13 O19 2.759081 1_555
Na13 O17 2.861445 1_555
Na14 O41 2.329732 1_555
Na14 O55 2.358650 1_555
Na14 O40 2.404158 1_655
Na14 O4 2.483490 1_555
Na14 O54 2.550582 1_555
Na14 O19 2.688091 1_556
Na14 O33 2.755718 1_655
Na14 O26 2.843664 1_655
Na15 O40 2.371643 1_545
Na15 O54 2.372286 1_555
Na15 O39 2.375120 1_555
Na15 O56 2.513130 1_555
Na15 O3 2.559541 1_555
Na15 O18 2.654833 1_556
Na15 O35 2.708804 1_555
Na15 O25 2.800718 1_555
Na16 O37 2.329739 1_545
Na16 O59 2.358634 1_555
Na16 O38 2.404165 1_655
Na16 O2 2.483494 1_555
Na16 O57 2.550581 1_555
Na16 O23 2.688087 1_555
Na16 O30 2.755718 1_655
Na16 O28 2.843664 1_655
Na17 O38 2.371635 1_555
Na17 O57 2.372288 1_555
Na17 O36 2.375121 1_545
Na17 O58 2.513115 1_555
Na17 O0 2.559540 1_555
Na17 O21 2.654829 1_555
Na17 O31 2.708804 1_545
Na17 O29 2.800718 1_545
Mg0 O1 1.933034 1_555
Mg0 O2 1.984511 1_565
Mg0 O0 2.000669 1_665
Mg0 O36 2.030726 1_655
Mg0 O37 2.039568 1_555
Mg0 O38 2.102550 1_665
Mg1 O5 1.933034 1_565
Mg1 O4 1.984511 1_555
Mg1 O3 2.000669 1_665
Mg1 O39 2.030726 1_665
Mg1 O41 2.039568 1_555
Mg1 O40 2.102550 1_655
Mg2 O14 1.931646 1_555
Mg2 O12 1.985149 1_555
Mg2 O13 1.997560 1_555
Mg2 O49 2.038819 1_555
Mg2 O50 2.038877 1_555
Mg2 O48 2.096356 1_555
Mg3 O16 1.931646 1_555
Mg3 O15 1.985149 1_555
Mg3 O17 1.997560 1_555
Mg3 O53 2.038819 1_555
Mg3 O52 2.038877 1_555
Mg3 O51 2.096357 1_555
Mg4 O25 1.942430 1_554
Mg4 O26 1.984619 1_554
Mg4 O24 1.989194 1_554
Mg4 O60 2.034657 1_555
Mg4 O61 2.050258 1_555
Mg4 O62 2.082366 1_555
Mg5 O29 1.942430 1_555
Mg5 O28 1.984619 1_555
Mg5 O27 1.989194 1_555
Mg5 O63 2.034657 1_555
Mg5 O65 2.050258 1_555
Mg5 O64 2.082366 1_555
Ge0 O8 1.891005 1_655
Ge0 O6 1.932978 1_555
Ge0 O44 1.943763 1_555
Ge0 O7 1.974355 1_665
Ge0 O43 1.984018 1_665
Ge0 O42 2.045612 1_565
Ge1 O10 1.891005 1_655
Ge1 O9 1.932978 1_545
Ge1 O46 1.943763 1_555
Ge1 O11 1.974356 1_645
Ge1 O47 1.984018 1_655
Ge1 O45 2.045612 1_545
Ge2 O20 1.868988 1_556
Ge2 O19 1.948637 1_556
Ge2 O56 1.960907 1_555
Ge2 O55 1.966981 1_555
Ge2 O18 1.980593 1_556
Ge2 O54 2.043710 1_555
Ge3 O22 1.868988 1_555
Ge3 O23 1.948637 1_555
Ge3 O58 1.960907 1_555
Ge3 O59 1.966981 1_555
Ge3 O21 1.980593 1_555
Ge3 O57 2.043710 1_555
Ge4 O31 1.891152 1_555
Ge4 O32 1.938149 1_555
Ge4 O67 1.957473 1_555
Ge4 O30 1.966242 1_555
Ge4 O66 1.980984 1_555
Ge4 O68 2.031142 1_555
Ge5 O35 1.891152 1_555
Ge5 O34 1.938149 1_555
Ge5 O71 1.957473 1_555
Ge5 O33 1.966242 1_555
Ge5 O69 1.980984 1_555
Ge5 O70 2.031143 1_555
O0 P0 1.513064 1_545
O1 P1 1.487059 1_555
O2 P2 1.495593 1_655
O3 P3 1.513064 1_555
O4 P4 1.495593 1_655
O5 P5 1.487060 1_545
O6 P5 1.600719 1_555
O7 P3 1.611795 1_555
O8 P4 1.601504 1_555
O9 P1 1.600719 1_555
O10 P2 1.601504 1_555
O11 P0 1.611795 1_555
O12 P6 1.498369 1_555
O13 P7 1.507112 1_555
O14 P8 1.491385 1_555
O15 P9 1.498369 1_555
O16 P10 1.491385 1_555
O17 P11 1.507112 1_555
O18 P11 1.612270 1_555
O19 P9 1.608204 1_555
O20 P10 1.588471 1_555
O21 P7 1.612270 1_555
O22 P8 1.588471 1_555
O23 P6 1.608204 1_555
O24 P12 1.492694 1_555
O25 P13 1.488621 1_555
O26 P14 1.509245 1_555
O27 P15 1.492694 1_555
O28 P16 1.509245 1_555
O29 P17 1.488621 1_555
O30 P17 1.619569 1_555
O31 P15 1.603068 1_555
O32 P16 1.592425 1_555
O33 P13 1.619569 1_555
O34 P14 1.592425 1_555
O35 P12 1.603068 1_555
O36 P17 1.518020 1_555
O37 P15 1.517763 1_555
O38 P16 1.536425 1_555
O39 P13 1.518029 1_555
O40 P14 1.536419 1_555
O41 P12 1.517759 1_555
O42 P6 1.609799 1_555
O43 P7 1.589674 1_555
O44 P8 1.588728 1_555
O45 P9 1.609808 1_555
O46 P10 1.588724 1_555
O47 P11 1.589670 1_555
O48 P5 1.538862 1_545
O49 P3 1.516621 1_555
O50 P4 1.515608 1_655
O51 P1 1.538871 1_555
O52 P2 1.515603 1_655
O53 P0 1.516618 1_545
O54 P12 1.612805 1_555
O55 P13 1.592647 1_655
O56 P14 1.584368 1_545
O57 P15 1.612788 1_545
O58 P16 1.584378 1_555
O59 P17 1.592655 1_655
O60 P11 1.517460 1_555
O61 P9 1.519365 1_455
O62 P10 1.539130 1_565
O63 P7 1.517443 1_565
O64 P8 1.539140 1_555
O65 P6 1.519371 1_455
O66 P0 1.587431 1_555
O67 P1 1.589886 1_555
O68 P2 1.611859 1_555
O69 P3 1.587439 1_555
O70 P4 1.611855 1_555
O71 P5 1.589882 1_555
