# generated using pymatgen
data_Na4Zr2Ga2Si3(SO8)3
_symmetry_space_group_name_H-M   'P 1'
_cell_length_a   8.96202688
_cell_length_b   8.95336776
_cell_length_c   22.81426372
_cell_angle_alpha   90.18723677
_cell_angle_beta   88.40795264
_cell_angle_gamma   119.85516249
_symmetry_Int_Tables_number   1
_chemical_formula_structural   Na4Zr2Ga2Si3(SO8)3
_chemical_formula_sum   'Na12 Zr6 Ga6 Si9 S9 O72'
_cell_volume   1586.94485558
_cell_formula_units_Z   3
loop_
 _symmetry_equiv_pos_site_id
 _symmetry_equiv_pos_as_xyz
  1  'x, y, z'
loop_
 _atom_site_type_symbol
 _atom_site_label
 _atom_site_symmetry_multiplicity
 _atom_site_fract_x
 _atom_site_fract_y
 _atom_site_fract_z
 _atom_site_occupancy
  Na  Na0  1  0.00059589  0.64256091  0.25301041  1
  Na  Na1  1  0.99735263  0.35902014  0.74010570  1
  Na  Na2  1  0.66435352  0.97144167  0.58742649  1
  Na  Na3  1  0.66904628  0.69902082  0.08159005  1
  Na  Na4  1  0.33430598  0.30296450  0.90342184  1
  Na  Na5  1  0.32555639  0.02794293  0.42123910  1
  Na  Na6  1  0.00952974  0.00237714  0.49995999  1
  Na  Na7  1  0.98843908  0.98175986  0.99270960  1
  Na  Na8  1  0.65663595  0.32951968  0.82004303  1
  Na  Na9  1  0.66464944  0.34403326  0.33112805  1
  Na  Na10  1  0.33533055  0.67712589  0.16724181  1
  Na  Na11  1  0.33423027  0.66654281  0.65896715  1
  Zr  Zr0  1  0.01096408  0.01317541  0.64558866  1
  Zr  Zr1  1  0.00319273  0.98766785  0.14946376  1
  Zr  Zr2  1  0.67709743  0.34892966  0.97995395  1
  Zr  Zr3  1  0.67627963  0.33958290  0.48366867  1
  Zr  Zr4  1  0.33803826  0.67206991  0.31325939  1
  Zr  Zr5  1  0.35095078  0.66904731  0.80957888  1
  Ga  Ga0  1  0.00274770  0.96565989  0.34700455  1
  Ga  Ga1  1  0.97675814  0.99010893  0.84202104  1
  Ga  Ga2  1  0.64251133  0.29217077  0.68442311  1
  Ga  Ga3  1  0.67547341  0.34629714  0.19077318  1
  Ga  Ga4  1  0.33220992  0.67650913  0.01610459  1
  Ga  Ga5  1  0.28050101  0.66452227  0.52380644  1
  Si  Si0  1  0.30790943  0.01545427  0.25087388  1
  Si  Si1  1  0.70619512  0.70169401  0.24952698  1
  Si  Si2  1  0.29580650  0.27850661  0.75386152  1
  Si  Si3  1  0.71212949  0.00912634  0.74842870  1
  Si  Si4  1  0.95720588  0.34041483  0.58817543  1
  Si  Si5  1  0.37357531  0.03346945  0.57989845  1
  Si  Si6  1  0.97110056  0.61966288  0.08521677  1
  Si  Si7  1  0.63270172  0.68554787  0.91936062  1
  Si  Si8  1  0.03442012  0.66992934  0.41486609  1
  S  S0  1  0.99693462  0.28486084  0.25189932  1
  S  S1  1  0.99523875  0.70679915  0.75293041  1
  S  S2  1  0.66111740  0.62198604  0.58601882  1
  S  S3  1  0.66331221  0.04235747  0.08455787  1
  S  S4  1  0.37507530  0.33814244  0.08385008  1
  S  S5  1  0.04722235  0.37551304  0.91850724  1
  S  S6  1  0.32897216  0.95653153  0.91951250  1
  S  S7  1  0.63488107  0.95766628  0.41700132  1
  S  S8  1  0.32614072  0.37432041  0.41882449  1
  O  O0  1  0.22144322  0.04368593  0.31090508  1
  O  O1  1  0.83446651  0.79686986  0.30310416  1
  O  O2  1  0.97720044  0.18094892  0.30387711  1
  O  O3  1  0.20420828  0.16629732  0.81536889  1
  O  O4  1  0.97611761  0.78975998  0.80735094  1
  O  O5  1  0.83098015  0.04204945  0.80528591  1
  O  O6  1  0.78864198  0.96706224  0.68946527  1
  O  O7  1  0.16746656  0.19422639  0.69903208  1
  O  O8  1  0.02715455  0.81321223  0.70009667  1
  O  O9  1  0.78544222  0.81517014  0.18797111  1
  O  O10  1  0.02061021  0.20825396  0.19666026  1
  O  O11  1  0.17361517  0.97368171  0.19630303  1
  O  O12  1  0.86702873  0.36630572  0.64722461  1
  O  O13  1  0.49831618  0.12112516  0.63482665  1
  O  O14  1  0.63934569  0.51663632  0.63783212  1
  O  O15  1  0.87391562  0.50327548  0.14369832  1
  O  O16  1  0.64271036  0.12500403  0.13700404  1
  O  O17  1  0.48358121  0.35933382  0.13368578  1
  O  O18  1  0.45048556  0.30852902  0.02820368  1
  O  O19  1  0.83982633  0.52928721  0.02967749  1
  O  O20  1  0.67800178  0.14104903  0.03013980  1
  O  O21  1  0.45210568  0.14560715  0.51861459  1
  O  O22  1  0.68805895  0.54346912  0.53096648  1
  O  O23  1  0.83848564  0.31094851  0.53064933  1
  O  O24  1  0.53678844  0.70063427  0.98074420  1
  O  O25  1  0.15316329  0.46572291  0.96967737  1
  O  O26  1  0.30718373  0.85294901  0.97328817  1
  O  O27  1  0.55666715  0.85720704  0.47091793  1
  O  O28  1  0.31483079  0.46469448  0.47125884  1
  O  O29  1  0.16628753  0.71029470  0.46850620  1
  O  O30  1  0.12296343  0.64495350  0.35445531  1
  O  O31  1  0.52062404  0.86945631  0.36567953  1
  O  O32  1  0.35203918  0.47875135  0.36431622  1
  O  O33  1  0.11678453  0.47724261  0.86400555  1
  O  O34  1  0.35118946  0.87529016  0.86656338  1
  O  O35  1  0.49908218  0.63697057  0.86581234  1
  O  O36  1  0.02707869  0.85109375  0.41190319  1
  O  O37  1  0.80923735  0.98514161  0.40652300  1
  O  O38  1  0.17048958  0.20218704  0.41448399  1
  O  O39  1  0.03672363  0.20581137  0.91582850  1
  O  O40  1  0.18015234  0.98339908  0.91743297  1
  O  O41  1  0.82604758  0.84951011  0.90831296  1
  O  O42  1  0.96677122  0.16060620  0.58818611  1
  O  O43  1  0.17908838  0.00140279  0.58670389  1
  O  O44  1  0.81983830  0.79635823  0.58770760  1
  O  O45  1  0.97865846  0.80981840  0.08667386  1
  O  O46  1  0.82265793  0.02590436  0.08504278  1
  O  O47  1  0.19890497  0.18770462  0.08856782  1
  O  O48  1  0.70120810  0.18482508  0.74557728  1
  O  O49  1  0.48942069  0.31323301  0.74250424  1
  O  O50  1  0.84395449  0.53559273  0.74947717  1
  O  O51  1  0.70524271  0.51922735  0.24444887  1
  O  O52  1  0.84442615  0.30863114  0.24766625  1
  O  O53  1  0.49759444  0.17833474  0.23810594  1
  O  O54  1  0.63818585  0.50018296  0.92511356  1
  O  O55  1  0.86827456  0.34753548  0.92521240  1
  O  O56  1  0.48845122  0.13198527  0.92365078  1
  O  O57  1  0.63878004  0.12852565  0.41851437  1
  O  O58  1  0.48080682  0.34934441  0.41947415  1
  O  O59  1  0.84352310  0.50032070  0.41971161  1
  O  O60  1  0.36632691  0.49904047  0.07830846  1
  O  O61  1  0.16268541  0.64254464  0.07347685  1
  O  O62  1  0.51180102  0.86348690  0.08119577  1
  O  O63  1  0.37388011  0.84942372  0.57474482  1
  O  O64  1  0.51222100  0.64720201  0.57899634  1
  O  O65  1  0.15176759  0.50259131  0.58027129  1
  O  O66  1  0.31091894  0.83197280  0.25475466  1
  O  O67  1  0.51339820  0.67367968  0.25466376  1
  O  O68  1  0.15306905  0.46278486  0.25399365  1
  O  O69  1  0.29725555  0.46602950  0.75960304  1
  O  O70  1  0.15046513  0.68432951  0.75868760  1
  O  O71  1  0.51719329  0.84224936  0.75551214  1
loop_
_geom_bond_atom_site_label_1
_geom_bond_atom_site_label_2
_geom_bond_distance
_geom_bond_site_symmetry_2
Na0 O51 2.319731 1_455
Na0 O66 2.433549 1_555
Na0 O68 2.578823 1_555
Na0 O30 2.583960 1_555
Na0 O52 2.598758 1_455
Na0 O1 2.715636 1_455
Na0 O15 2.791222 1_455
Na0 O11 2.864263 1_555
Na1 O48 2.313805 1_555
Na1 O69 2.416519 1_655
Na1 O12 2.464325 1_555
Na1 O50 2.565209 1_555
Na1 O70 2.567304 1_655
Na1 O7 2.744181 1_655
Na1 O5 2.860050 1_555
Na2 O63 2.293971 1_555
Na2 O42 2.376263 1_565
Na2 O64 2.528583 1_555
Na2 O44 2.564070 1_555
Na2 O6 2.617198 1_555
Na2 O13 2.658254 1_565
Na2 O27 2.860904 1_555
Na2 O23 2.922960 1_565
Na3 O60 2.397051 1_555
Na3 O45 2.444053 1_555
Na3 O62 2.494232 1_555
Na3 O46 2.541674 1_565
Na3 O24 2.620547 1_554
Na3 O9 2.665351 1_555
Na3 O19 2.873660 1_555
Na3 O17 2.882002 1_555
Na4 O3 2.363445 1_555
Na4 O39 2.366289 1_555
Na4 O54 2.461916 1_555
Na4 O40 2.498627 1_545
Na4 O56 2.571077 1_555
Na4 O35 2.722040 1_555
Na5 O36 2.349560 1_545
Na5 O57 2.483659 1_555
Na5 O58 2.495918 1_555
Na5 O21 2.503304 1_555
Na5 O38 2.561425 1_555
Na5 O29 2.679840 1_545
Na5 O0 2.736876 1_555
Na6 O36 2.464149 1_545
Na6 O38 2.526112 1_555
Na6 O43 2.531022 1_555
Na6 O42 2.585393 1_455
Na6 O44 2.648216 1_445
Na6 O37 2.779342 1_445
Na7 O41 2.377510 1_555
Na7 O40 2.390129 1_655
Na7 O39 2.530689 1_665
Na7 O45 2.617240 1_556
Na7 O46 2.684461 1_566
Na7 O47 2.912135 1_666
Na8 O48 2.277549 1_555
Na8 O49 2.307468 1_555
Na8 O50 2.366358 1_555
Na8 O56 2.856979 1_555
Na8 O54 2.883378 1_555
Na9 O51 2.432186 1_555
Na9 O59 2.557416 1_555
Na9 O52 2.579928 1_555
Na9 O58 2.583052 1_555
Na9 O53 2.625046 1_555
Na9 O57 2.702874 1_555
Na10 O66 2.493145 1_555
Na10 O62 2.522020 1_555
Na10 O67 2.598435 1_555
Na10 O61 2.601645 1_555
Na10 O68 2.644304 1_555
Na10 O60 2.669202 1_555
Na11 O65 2.410027 1_555
Na11 O63 2.429554 1_555
Na11 O64 2.452440 1_555
Na11 O71 2.761300 1_555
Na11 O70 2.822069 1_555
Na11 O69 2.827806 1_555
Ga0 O1 1.834750 1_455
Ga0 O36 1.882151 1_555
Ga0 O0 1.886425 1_565
Ga0 O37 2.247357 1_455
Ga0 O2 2.280421 1_465
Ga0 O38 2.460153 1_565
Ga1 O5 1.814881 1_565
Ga1 O3 1.936292 1_665
Ga1 O4 1.955533 1_555
Ga1 O41 1.975462 1_555
Ga1 O39 2.418610 1_665
Ga2 O13 1.842591 1_555
Ga2 O48 1.923513 1_555
Ga2 O12 1.946418 1_555
Ga2 O49 1.956714 1_555
Ga2 O14 2.289549 1_555
Ga2 O50 2.534228 1_555
Ga3 O53 1.870043 1_555
Ga3 O51 1.887460 1_555
Ga3 O15 1.925303 1_555
Ga3 O52 2.170623 1_555
Ga3 O16 2.222961 1_555
Ga3 O17 2.234437 1_555
Ga4 O61 1.883096 1_555
Ga4 O24 1.893044 1_554
Ga4 O26 1.968517 1_554
Ga4 O25 2.079603 1_554
Ga4 O62 2.243260 1_555
Ga4 O60 2.270401 1_555
Ga5 O29 1.816639 1_555
Ga5 O65 1.832155 1_555
Ga5 O63 1.858395 1_555
Ga5 O28 2.290498 1_555
Ga5 O27 2.480799 1_555
Ga5 O64 2.527692 1_555
O0 Si0 1.635200 1_555
O1 Si1 1.624101 1_555
O2 S0 1.461093 1_555
O3 Si2 1.666254 1_555
O4 S1 1.493803 1_555
O5 Si3 1.632699 1_555
O6 Si3 1.619928 1_565
O6 Zr0 2.053102 1_665
O7 Si2 1.633012 1_555
O7 Zr0 1.974845 1_555
O8 S1 1.469517 1_455
O8 Zr0 2.248565 1_565
O9 Si1 1.656606 1_555
O9 Zr1 1.969324 1_655
O10 S0 1.492667 1_455
O10 Zr1 2.184685 1_545
O11 Si0 1.664474 1_565
O11 Zr1 1.942245 1_555
O12 Si4 1.626563 1_555
O13 Si5 1.622951 1_555
O14 S2 1.461614 1_555
O15 Si6 1.632634 1_555
O16 S3 1.459884 1_555
O17 S4 1.466507 1_555
O18 S4 1.505750 1_555
O18 Zr2 2.148046 1_554
O19 Si6 1.665145 1_555
O19 Zr2 1.938201 1_554
O20 S3 1.490548 1_555
O20 Zr2 2.191947 1_554
O21 Si5 1.645950 1_555
O21 Zr3 2.033303 1_555
O22 S2 1.508758 1_555
O22 Zr3 2.075922 1_555
O23 Si4 1.649223 1_555
O23 Zr3 1.946074 1_555
O24 Si7 1.663061 1_555
O25 S5 1.486128 1_555
O26 S6 1.489031 1_555
O27 S7 1.464590 1_555
O28 S8 1.471261 1_555
O29 Si8 1.636180 1_555
O30 Si8 1.641063 1_555
O30 Zr4 2.022984 1_555
O31 S7 1.516118 1_555
O31 Zr4 2.108753 1_555
O32 S8 1.500021 1_555
O32 Zr4 2.146145 1_555
O33 S5 1.470824 1_555
O33 Zr5 2.275101 1_555
O34 S6 1.467336 1_555
O34 Zr5 2.253997 1_555
O35 Si7 1.635515 1_555
O35 Zr5 1.991841 1_555
O36 Si8 1.657438 1_555
O37 S7 1.468420 1_555
O38 S8 1.482277 1_555
O39 S5 1.475990 1_555
O40 S6 1.470362 1_555
O41 Si7 1.632988 1_555
O42 Si4 1.654240 1_555
O42 Zr0 2.043266 1_655
O43 Si5 1.622220 1_555
O43 Zr0 2.032446 1_555
O44 S2 1.501297 1_555
O44 Zr0 2.290090 1_665
O45 Si6 1.670105 1_555
O45 Zr1 2.071233 1_655
O46 S3 1.507155 1_555
O46 Zr1 2.362615 1_645
O47 S4 1.480803 1_555
O47 Zr1 2.228793 1_545
O48 Si3 1.625657 1_555
O49 Si2 1.616494 1_555
O50 S1 1.459487 1_555
O51 Si1 1.633210 1_555
O52 S0 1.489900 1_555
O53 Si0 1.615074 1_555
O54 Si7 1.690279 1_555
O54 Zr2 2.006590 1_555
O55 S5 1.498255 1_655
O55 Zr2 2.097066 1_555
O56 S6 1.513461 1_545
O56 Zr2 2.261856 1_555
O57 S7 1.512977 1_545
O57 Zr3 2.295746 1_555
O58 S8 1.510406 1_555
O58 Zr3 2.348893 1_555
O59 Si8 1.627624 1_655
O59 Zr3 2.047275 1_555
O60 S4 1.487142 1_555
O61 Si6 1.639008 1_455
O62 S3 1.501447 1_565
O63 Si5 1.652988 1_565
O64 S2 1.472875 1_555
O65 Si4 1.626270 1_455
O66 Si0 1.659060 1_565
O66 Zr4 2.065728 1_555
O67 Si1 1.618509 1_555
O67 Zr4 2.029282 1_555
O68 S0 1.510590 1_455
O68 Zr4 2.258913 1_555
O69 Si2 1.677256 1_555
O69 Zr5 1.995399 1_555
O70 S1 1.510620 1_455
O70 Zr5 2.226390 1_555
O71 Si3 1.642454 1_565
O71 Zr5 1.938072 1_555
