# generated using pymatgen
data_CeMgCu2
_symmetry_space_group_name_H-M   'P 1'
_cell_length_a   4.59179612
_cell_length_b   4.59179612
_cell_length_c   8.51929810
_cell_angle_alpha   90.00000000
_cell_angle_beta   90.00000000
_cell_angle_gamma   119.99999274
_symmetry_Int_Tables_number   1
_chemical_formula_structural   CeMgCu2
_chemical_formula_sum   'Ce2 Mg2 Cu4'
_cell_volume   155.56062207
_cell_formula_units_Z   2
loop_
 _symmetry_equiv_pos_site_id
 _symmetry_equiv_pos_as_xyz
  1  'x, y, z'
loop_
 _atom_site_type_symbol
 _atom_site_label
 _atom_site_symmetry_multiplicity
 _atom_site_fract_x
 _atom_site_fract_y
 _atom_site_fract_z
 _atom_site_occupancy
  Ce  Ce0  1  0.66666700  0.33333300  0.75016185  1
  Ce  Ce1  1  0.33333300  0.66666700  0.24983815  1
  Mg  Mg0  1  0.00000000  -0.00000000  0.50000000  1
  Mg  Mg1  1  0.00000000  -0.00000000  -0.00000000  1
  Cu  Cu0  1  0.33333300  0.66666700  0.58360484  1
  Cu  Cu1  1  0.66666700  0.33333300  0.08353891  1
  Cu  Cu2  1  0.66666700  0.33333300  0.41639516  1
  Cu  Cu3  1  0.33333300  0.66666700  0.91646109  1
loop_
_geom_bond_atom_site_label_1
_geom_bond_atom_site_label_2
_geom_bond_distance
_geom_bond_site_symmetry_2
Ce0 Cu1 2.840139 1_556
Ce0 Cu2 2.843458 1_555
Ce0 Cu3 3.005890 1_545
Ce0 Cu3 3.005890 1_655
Ce0 Cu3 3.005896 1_555
Ce0 Cu0 3.006925 1_545
Ce0 Cu0 3.006925 1_655
Ce0 Cu0 3.006932 1_555
Ce1 Cu3 2.840139 1_554
Ce1 Cu0 2.843458 1_555
Ce1 Cu1 3.005890 1_455
Ce1 Cu1 3.005890 1_565
Ce1 Cu1 3.005896 1_555
Ce1 Cu2 3.006925 1_455
Ce1 Cu2 3.006925 1_565
Ce1 Cu2 3.006932 1_555
Cu0 Mg0 2.745085 1_565
Cu0 Mg0 2.745089 1_555
Cu0 Mg0 2.745089 1_665
Cu0 Cu3 2.835702 1_555
Cu0 Cu2 3.009553 1_455
Cu0 Cu2 3.009553 1_565
Cu0 Cu2 3.009560 1_555
Cu1 Mg1 2.744939 1_655
Cu1 Mg1 2.744943 1_555
Cu1 Mg1 2.744943 1_665
Cu1 Cu2 2.835702 1_555
Cu1 Cu3 3.009022 1_544
Cu1 Cu3 3.009022 1_654
Cu1 Cu3 3.009028 1_554
Cu2 Mg0 2.745085 1_655
Cu2 Mg0 2.745089 1_555
Cu2 Mg0 2.745089 1_665
Cu3 Mg1 2.744939 1_566
Cu3 Mg1 2.744943 1_556
Cu3 Mg1 2.744943 1_666
