# generated using pymatgen
data_Na3NbSi3SnO12
_symmetry_space_group_name_H-M   'P 1'
_cell_length_a   15.73554764
_cell_length_b   9.11848495
_cell_length_c   9.07727457
_cell_angle_alpha   90.00000000
_cell_angle_beta   124.86282400
_cell_angle_gamma   90.00000000
_symmetry_Int_Tables_number   1
_chemical_formula_structural   Na3NbSi3SnO12
_chemical_formula_sum   'Na12 Nb4 Si12 Sn4 O48'
_cell_volume   1068.68753887
_cell_formula_units_Z   4
loop_
 _symmetry_equiv_pos_site_id
 _symmetry_equiv_pos_as_xyz
  1  'x, y, z'
loop_
 _atom_site_type_symbol
 _atom_site_label
 _atom_site_symmetry_multiplicity
 _atom_site_fract_x
 _atom_site_fract_y
 _atom_site_fract_z
 _atom_site_occupancy
  Na  Na0  1  0.25116277  0.73091580  0.99409569  1
  Na  Na1  1  0.75116277  0.76908420  0.49409569  1
  Na  Na2  1  0.75116277  0.23091580  0.99409569  1
  Na  Na3  1  0.25116277  0.26908420  0.49409569  1
  Na  Na4  1  0.49896327  0.10529732  0.74605525  1
  Na  Na5  1  0.49896327  0.89470268  0.24605525  1
  Na  Na6  1  0.99896327  0.60529732  0.74605525  1
  Na  Na7  1  0.99896327  0.39470268  0.24605525  1
  Na  Na8  1  0.18966994  0.94084972  0.29198022  1
  Na  Na9  1  0.18966994  0.05915028  0.79198022  1
  Na  Na10  1  0.68966994  0.44084972  0.29198022  1
  Na  Na11  1  0.68966994  0.55915028  0.79198022  1
  Nb  Nb0  1  0.89268430  0.75351742  0.93092769  1
  Nb  Nb1  1  0.89268430  0.24648258  0.43092769  1
  Nb  Nb2  1  0.39268430  0.25351742  0.93092769  1
  Nb  Nb3  1  0.39268430  0.74648258  0.43092769  1
  Si  Si0  1  0.99870656  0.95900780  0.75306974  1
  Si  Si1  1  0.99870656  0.04099220  0.25306974  1
  Si  Si2  1  0.49870656  0.45900780  0.75306974  1
  Si  Si3  1  0.49870656  0.54099220  0.25306974  1
  Si  Si4  1  0.35319906  0.89207183  0.75552912  1
  Si  Si5  1  0.64397995  0.89560163  0.74533117  1
  Si  Si6  1  0.64397995  0.10439837  0.24533117  1
  Si  Si7  1  0.35319906  0.10792817  0.25552912  1
  Si  Si8  1  0.85319906  0.39207183  0.75552912  1
  Si  Si9  1  0.14397995  0.39560163  0.74533117  1
  Si  Si10  1  0.14397995  0.60439837  0.24533117  1
  Si  Si11  1  0.85319906  0.60792817  0.25552912  1
  Sn  Sn0  1  0.10441213  0.74957359  0.56428959  1
  Sn  Sn1  1  0.10441213  0.25042641  0.06428959  1
  Sn  Sn2  1  0.60441213  0.24957359  0.56428959  1
  Sn  Sn3  1  0.60441213  0.75042641  0.06428959  1
  O  O0  1  0.15080832  0.57398613  0.74238697  1
  O  O1  1  0.84866229  0.57456815  0.75902231  1
  O  O2  1  0.84866229  0.42543185  0.25902231  1
  O  O3  1  0.15080832  0.42601387  0.24238697  1
  O  O4  1  0.65080832  0.07398613  0.74238697  1
  O  O5  1  0.34866229  0.07456815  0.75902231  1
  O  O6  1  0.34866229  0.92543185  0.25902231  1
  O  O7  1  0.65080832  0.92601387  0.24238697  1
  O  O8  1  0.43539414  0.57353455  0.58058655  1
  O  O9  1  0.57519584  0.55433411  0.93414634  1
  O  O10  1  0.57519584  0.44566589  0.43414634  1
  O  O11  1  0.43539414  0.42646545  0.08058655  1
  O  O12  1  0.93539414  0.07353455  0.58058655  1
  O  O13  1  0.07519584  0.05433411  0.93414634  1
  O  O14  1  0.07519584  0.94566589  0.43414634  1
  O  O15  1  0.93539414  0.92646545  0.08058655  1
  O  O16  1  0.25321647  0.83191465  0.74830404  1
  O  O17  1  0.74010199  0.80941577  0.75850424  1
  O  O18  1  0.74010199  0.19058423  0.25850424  1
  O  O19  1  0.25321647  0.16808535  0.24830404  1
  O  O20  1  0.75321647  0.33191465  0.74830404  1
  O  O21  1  0.24010199  0.30941577  0.75850424  1
  O  O22  1  0.24010199  0.69058423  0.25850424  1
  O  O23  1  0.75321647  0.66808535  0.24830404  1
  O  O24  1  0.35440937  0.85570047  0.57735895  1
  O  O25  1  0.64265183  0.85844690  0.91833451  1
  O  O26  1  0.64265183  0.14155310  0.41833451  1
  O  O27  1  0.35440937  0.14429953  0.07735895  1
  O  O28  1  0.85440937  0.35570047  0.57735895  1
  O  O29  1  0.14265183  0.35844690  0.91833451  1
  O  O30  1  0.14265183  0.64155310  0.41833451  1
  O  O31  1  0.85440937  0.64429953  0.07735895  1
  O  O32  1  0.45792108  0.83431932  0.93952091  1
  O  O33  1  0.53528957  0.83056590  0.56324797  1
  O  O34  1  0.53528957  0.16943410  0.06324797  1
  O  O35  1  0.45792108  0.16568068  0.43952091  1
  O  O36  1  0.95792108  0.33431932  0.93952091  1
  O  O37  1  0.03528957  0.33056590  0.56324797  1
  O  O38  1  0.03528957  0.66943410  0.06324797  1
  O  O39  1  0.95792108  0.66568068  0.43952091  1
  O  O40  1  0.07849055  0.85161595  0.74185304  1
  O  O41  1  0.91508057  0.85290598  0.75545569  1
  O  O42  1  0.91508057  0.14709402  0.25545569  1
  O  O43  1  0.07849055  0.14838405  0.24185304  1
  O  O44  1  0.57849055  0.35161595  0.74185304  1
  O  O45  1  0.41508057  0.35290598  0.75545569  1
  O  O46  1  0.41508057  0.64709402  0.25545569  1
  O  O47  1  0.57849055  0.64838405  0.24185304  1
loop_
_geom_bond_atom_site_label_1
_geom_bond_atom_site_label_2
_geom_bond_distance
_geom_bond_site_symmetry_2
Na0 O0 2.374223 1_555
Na0 O46 2.422780 1_556
Na0 O16 2.430951 1_555
Na0 O22 2.530539 1_556
Na0 O40 2.593109 1_555
Na0 O6 2.658003 1_556
Na1 O7 2.374223 1_555
Na1 O41 2.422780 1_555
Na1 O23 2.430951 1_555
Na1 O17 2.530539 1_555
Na1 O47 2.593109 1_555
Na1 O1 2.658003 1_555
Na2 O4 2.374223 1_555
Na2 O42 2.422780 1_556
Na2 O20 2.430951 1_555
Na2 O18 2.530539 1_556
Na2 O44 2.593109 1_555
Na2 O2 2.658003 1_556
Na3 O3 2.374223 1_555
Na3 O45 2.422780 1_555
Na3 O19 2.430951 1_555
Na3 O21 2.530539 1_555
Na3 O43 2.593109 1_555
Na3 O5 2.658003 1_555
Na4 O4 2.425417 1_555
Na4 O5 2.450341 1_555
Na4 O35 2.531435 1_555
Na4 O44 2.582014 1_555
Na4 O45 2.641215 1_555
Na4 O34 2.660316 1_556
Na4 O25 2.929513 1_545
Na4 O24 2.952413 1_545
Na5 O7 2.425417 1_555
Na5 O6 2.450341 1_555
Na5 O32 2.531435 1_554
Na5 O47 2.582014 1_555
Na5 O46 2.641215 1_555
Na5 O33 2.660316 1_555
Na5 O26 2.929513 1_565
Na5 O27 2.952413 1_565
Na6 O0 2.425417 1_655
Na6 O1 2.450341 1_555
Na6 O39 2.531435 1_555
Na6 O40 2.582014 1_655
Na6 O41 2.641215 1_555
Na6 O38 2.660316 1_656
Na6 O29 2.929513 1_655
Na6 O28 2.952413 1_555
Na7 O3 2.425417 1_655
Na7 O2 2.450341 1_555
Na7 O36 2.531435 1_554
Na7 O43 2.582014 1_655
Na7 O42 2.641215 1_555
Na7 O37 2.660316 1_655
Na7 O30 2.929513 1_655
Na7 O31 2.952413 1_555
Na8 O19 2.429742 1_565
Na8 O43 2.436965 1_565
Na8 O22 2.491084 1_555
Na8 O24 2.521154 1_555
Na8 O6 2.687768 1_555
Na8 O14 2.751272 1_555
Na8 O13 2.859565 1_564
Na9 O16 2.429742 1_545
Na9 O40 2.436965 1_545
Na9 O21 2.491084 1_555
Na9 O27 2.521154 1_556
Na9 O5 2.687768 1_555
Na9 O13 2.751272 1_555
Na9 O14 2.859565 1_545
Na10 O23 2.429742 1_555
Na10 O47 2.436965 1_555
Na10 O18 2.491084 1_555
Na10 O28 2.521154 1_555
Na10 O2 2.687768 1_555
Na10 O10 2.751272 1_555
Na10 O9 2.859565 1_554
Na11 O20 2.429742 1_555
Na11 O44 2.436965 1_555
Na11 O17 2.491084 1_555
Na11 O31 2.521154 1_556
Na11 O1 2.687768 1_555
Na11 O9 2.751272 1_555
Na11 O10 2.859565 1_555
Nb0 O15 1.934017 1_556
Nb0 O38 1.996154 1_656
Nb0 O31 2.009111 1_556
Nb0 O41 2.030836 1_555
Nb0 O17 2.044023 1_555
Nb0 O1 2.083662 1_555
Nb1 O12 1.934017 1_555
Nb1 O37 1.996154 1_655
Nb1 O28 2.009111 1_555
Nb1 O42 2.030836 1_555
Nb1 O18 2.044023 1_555
Nb1 O2 2.083662 1_555
Nb2 O11 1.934017 1_556
Nb2 O34 1.996154 1_556
Nb2 O27 2.009111 1_556
Nb2 O45 2.030836 1_555
Nb2 O21 2.044023 1_555
Nb2 O5 2.083662 1_555
Nb3 O8 1.934017 1_555
Nb3 O33 1.996154 1_555
Nb3 O24 2.009111 1_555
Nb3 O46 2.030836 1_555
Nb3 O22 2.044023 1_555
Nb3 O6 2.083662 1_555
O0 Si9 1.631367 1_555
O0 Sn0 2.088232 1_555
O1 Si8 1.666699 1_555
O2 Si11 1.666699 1_555
O3 Si10 1.631367 1_555
O3 Sn1 2.088232 1_555
O4 Si5 1.631367 1_545
O4 Sn2 2.088232 1_555
O5 Si4 1.666699 1_545
O6 Si7 1.666699 1_565
O7 Si6 1.631367 1_565
O7 Sn3 2.088232 1_555
O8 Si2 1.658684 1_555
O9 Si2 1.626106 1_555
O9 Sn3 2.045291 1_556
O10 Si3 1.626106 1_555
O10 Sn2 2.045291 1_555
O11 Si3 1.658684 1_555
O12 Si0 1.658684 1_545
O13 Si0 1.626106 1_445
O13 Sn1 2.045291 1_556
O14 Si1 1.626106 1_465
O14 Sn0 2.045291 1_555
O15 Si1 1.658684 1_565
O16 Si4 1.631702 1_555
O16 Sn0 2.089300 1_555
O17 Si5 1.647089 1_555
O18 Si6 1.647089 1_555
O19 Si7 1.631702 1_555
O19 Sn1 2.089300 1_555
O20 Si8 1.631702 1_555
O20 Sn2 2.089300 1_555
O21 Si9 1.647089 1_555
O22 Si10 1.647089 1_555
O23 Si11 1.631702 1_555
O23 Sn3 2.089300 1_555
O24 Si4 1.661694 1_555
O25 Si5 1.618299 1_555
O25 Sn3 1.999736 1_556
O26 Si6 1.618299 1_555
O26 Sn2 1.999736 1_555
O27 Si7 1.661694 1_555
O28 Si8 1.661694 1_555
O29 Si9 1.618299 1_555
O29 Sn1 1.999736 1_556
O30 Si10 1.618299 1_555
O30 Sn0 1.999736 1_555
O31 Si11 1.661694 1_555
O32 Si4 1.623514 1_555
O32 Sn3 2.048619 1_556
O33 Si5 1.666412 1_555
O34 Si6 1.666412 1_555
O35 Si7 1.623514 1_555
O35 Sn2 2.048619 1_555
O36 Si8 1.623514 1_555
O36 Sn1 2.048619 1_656
O37 Si9 1.666412 1_555
O38 Si10 1.666412 1_555
O39 Si11 1.623514 1_555
O39 Sn0 2.048619 1_655
O40 Si0 1.640602 1_455
O40 Sn0 2.093233 1_555
O41 Si0 1.643374 1_555
O42 Si1 1.643374 1_555
O43 Si1 1.640602 1_455
O43 Sn1 2.093233 1_555
O44 Si2 1.640602 1_555
O44 Sn2 2.093233 1_555
O45 Si2 1.643374 1_555
O46 Si3 1.643374 1_555
O47 Si3 1.640602 1_555
O47 Sn3 2.093233 1_555
