# generated using pymatgen
data_Na3Mg3In(SO4)6
_symmetry_space_group_name_H-M   'P 1'
_cell_length_a   8.76717279
_cell_length_b   8.76959932
_cell_length_c   22.76520864
_cell_angle_alpha   89.99950200
_cell_angle_beta   90.02990699
_cell_angle_gamma   120.07394265
_symmetry_Int_Tables_number   1
_chemical_formula_structural   Na3Mg3In(SO4)6
_chemical_formula_sum   'Na9 Mg9 In3 S18 O72'
_cell_volume   1514.66793931
_cell_formula_units_Z   3
loop_
 _symmetry_equiv_pos_site_id
 _symmetry_equiv_pos_as_xyz
  1  'x, y, z'
loop_
 _atom_site_type_symbol
 _atom_site_label
 _atom_site_symmetry_multiplicity
 _atom_site_fract_x
 _atom_site_fract_y
 _atom_site_fract_z
 _atom_site_occupancy
  Na  Na0  1  0.63556716  0.99861958  0.24896826  1
  Na  Na1  1  0.36396031  0.36300397  0.24866840  1
  Na  Na2  1  0.02907068  0.69683967  0.58680825  1
  Na  Na3  1  0.99888695  0.01127526  0.49932633  1
  Na  Na4  1  0.99989836  0.99907162  0.99834080  1
  Na  Na5  1  0.66579767  0.33236380  0.83023493  1
  Na  Na6  1  0.67961033  0.34520532  0.33561954  1
  Na  Na7  1  0.32030517  0.66541969  0.15926328  1
  Na  Na8  1  0.34555966  0.66546048  0.66878183  1
  Mg  Mg0  1  0.99979648  0.99698685  0.35282413  1
  Mg  Mg1  1  0.00007026  0.00063696  0.84997365  1
  Mg  Mg2  1  0.99938454  0.00661549  0.65316666  1
  Mg  Mg3  1  0.00009398  0.99703963  0.14714115  1
  Mg  Mg4  1  0.66336858  0.32999616  0.68720622  1
  Mg  Mg5  1  0.67392017  0.33985374  0.17917726  1
  Mg  Mg6  1  0.33313344  0.66680178  0.01715003  1
  Mg  Mg7  1  0.33985706  0.66591115  0.51631307  1
  Mg  Mg8  1  0.32605395  0.66579806  0.31944517  1
  In  In0  1  0.66711542  0.33373055  0.98408578  1
  In  In1  1  0.66338213  0.33003447  0.48332511  1
  In  In2  1  0.33355840  0.66676975  0.81542966  1
  S  S0  1  0.29083356  0.99792095  0.25003789  1
  S  S1  1  0.70914895  0.70692051  0.25044832  1
  S  S2  1  0.99986688  0.29219624  0.25027227  1
  S  S3  1  0.29372866  0.29024340  0.74987461  1
  S  S4  1  0.99652193  0.70586822  0.74841545  1
  S  S5  1  0.70987533  0.00357286  0.74978323  1
  S  S6  1  0.96286488  0.33141005  0.58443329  1
  S  S7  1  0.36866235  0.03601887  0.58484337  1
  S  S8  1  0.66591708  0.63010501  0.58513918  1
  S  S9  1  0.96682991  0.63312391  0.08448965  1
  S  S10  1  0.66631313  0.03312158  0.08605010  1
  S  S11  1  0.36679124  0.33373607  0.08598648  1
  S  S12  1  0.63110613  0.67068742  0.91779745  1
  S  S13  1  0.03972369  0.36889360  0.91768048  1
  S  S14  1  0.32923682  0.96030009  0.91772426  1
  S  S15  1  0.62805638  0.95808136  0.41497326  1
  S  S16  1  0.32996232  0.37183619  0.41496441  1
  S  S17  1  0.04132719  0.66997154  0.41766837  1
  O  O0  1  0.21143195  0.02928108  0.30262514  1
  O  O1  1  0.81397538  0.78746598  0.30375080  1
  O  O2  1  0.96829940  0.18037968  0.30284818  1
  O  O3  1  0.21022323  0.18921758  0.80334855  1
  O  O4  1  0.97953851  0.79372163  0.80082417  1
  O  O5  1  0.81097545  0.02142823  0.80330089  1
  O  O6  1  0.79043694  0.97843247  0.69646544  1
  O  O7  1  0.18850591  0.20922728  0.69650257  1
  O  O8  1  0.02016078  0.80763858  0.69346190  1
  O  O9  1  0.78890999  0.81808778  0.19831709  1
  O  O10  1  0.03124526  0.21175560  0.19796609  1
  O  O11  1  0.18617643  0.97417932  0.19717082  1
  O  O12  1  0.87502063  0.36347670  0.63410206  1
  O  O13  1  0.48260778  0.12457121  0.63501746  1
  O  O14  1  0.64107148  0.51618277  0.63550637  1
  O  O15  1  0.88061099  0.52065007  0.13619938  1
  O  O16  1  0.64149351  0.11678491  0.13964879  1
  O  O17  1  0.47509461  0.35809002  0.13961581  1
  O  O18  1  0.44698212  0.30302517  0.03286632  1
  O  O19  1  0.85930484  0.55762321  0.03015168  1
  O  O20  1  0.69715001  0.14402828  0.03290477  1
  O  O21  1  0.43874045  0.13866012  0.52902300  1
  O  O22  1  0.70625270  0.55891806  0.53011481  1
  O  O23  1  0.85865053  0.29903105  0.52865072  1
  O  O24  1  0.54260481  0.68916119  0.96981959  1
  O  O25  1  0.14672622  0.45762777  0.96971058  1
  O  O26  1  0.31102227  0.85351074  0.96972138  1
  O  O27  1  0.54010945  0.85368030  0.46745673  1
  O  O28  1  0.31277951  0.45933105  0.46747489  1
  O  O29  1  0.13942458  0.68708713  0.47255755  1
  O  O30  1  0.12602303  0.64588046  0.36541153  1
  O  O31  1  0.52625176  0.87931287  0.36014582  1
  O  O32  1  0.35394395  0.47406059  0.36019603  1
  O  O33  1  0.11315586  0.47445303  0.86298537  1
  O  O34  1  0.36115421  0.88702600  0.86297458  1
  O  O35  1  0.52574166  0.63869926  0.86307667  1
  O  O36  1  0.02215238  0.82759654  0.41171319  1
  O  O37  1  0.80588314  0.97855365  0.41067655  1
  O  O38  1  0.17221358  0.19418120  0.41046374  1
  O  O39  1  0.02281895  0.19374168  0.91160075  1
  O  O40  1  0.17087350  0.97706823  0.91152690  1
  O  O41  1  0.80670128  0.82898225  0.91165528  1
  O  O42  1  0.98554101  0.17726162  0.59165630  1
  O  O43  1  0.18778056  0.01056546  0.59112399  1
  O  O44  1  0.82740607  0.80712227  0.59157247  1
  O  O45  1  0.98528152  0.80904356  0.09125872  1
  O  O46  1  0.82417238  0.01502849  0.09201736  1
  O  O47  1  0.19042055  0.17589228  0.09178123  1
  O  O48  1  0.68936089  0.16080308  0.74422751  1
  O  O49  1  0.47186466  0.31131381  0.74450671  1
  O  O50  1  0.83914251  0.52787756  0.74373926  1
  O  O51  1  0.68182680  0.52506613  0.24380514  1
  O  O52  1  0.83898563  0.30873292  0.24312947  1
  O  O53  1  0.47300536  0.16016566  0.24431450  1
  O  O54  1  0.65003079  0.50960032  0.92198842  1
  O  O55  1  0.85921345  0.34908758  0.92183290  1
  O  O56  1  0.49039818  0.14076624  0.92203224  1
  O  O57  1  0.64530070  0.13817657  0.41862411  1
  O  O58  1  0.49301200  0.35500215  0.41879009  1
  O  O59  1  0.86049030  0.50708378  0.42004239  1
  O  O60  1  0.35391185  0.49466087  0.07895972  1
  O  O61  1  0.14155574  0.64735386  0.07778763  1
  O  O62  1  0.50523668  0.85905597  0.07896781  1
  O  O63  1  0.34844342  0.85681914  0.57788154  1
  O  O64  1  0.50800393  0.64657572  0.57678419  1
  O  O65  1  0.13771844  0.49667222  0.57704907  1
  O  O66  1  0.31808306  0.84351225  0.25676780  1
  O  O67  1  0.52733196  0.68688012  0.25632744  1
  O  O68  1  0.16065660  0.46972307  0.25747498  1
  O  O69  1  0.31239413  0.47148223  0.75277056  1
  O  O70  1  0.15937372  0.68845985  0.75204178  1
  O  O71  1  0.52842799  0.84089563  0.75269613  1
loop_
_geom_bond_atom_site_label_1
_geom_bond_atom_site_label_2
_geom_bond_distance
_geom_bond_site_symmetry_2
Na0 O52 2.394488 1_565
Na0 O67 2.408842 1_555
Na0 O66 2.415619 1_555
Na0 O53 2.464325 1_565
Na0 O16 2.686298 1_565
Na0 O31 2.723337 1_555
Na0 O9 2.788958 1_555
Na0 O2 2.809085 1_565
Na1 O68 2.401091 1_555
Na1 O53 2.406748 1_555
Na1 O51 2.414364 1_555
Na1 O67 2.464048 1_555
Na1 O17 2.675653 1_555
Na1 O32 2.736511 1_555
Na1 O10 2.778335 1_555
Na1 O0 2.818053 1_555
Na2 O43 2.382906 1_565
Na2 O65 2.390418 1_555
Na2 O44 2.405614 1_455
Na2 O63 2.431687 1_555
Na2 O8 2.630910 1_555
Na2 O12 2.752115 1_455
Na2 O22 2.775627 1_455
Na2 O29 2.791740 1_555
Na3 O37 2.555033 1_545
Na3 O38 2.556305 1_655
Na3 O42 2.592605 1_555
Na3 O36 2.635180 1_645
Na3 O43 2.667684 1_655
Na3 O44 2.679769 1_545
Na4 O41 2.540205 1_555
Na4 O40 2.546180 1_655
Na4 O39 2.551595 1_665
Na4 O45 2.655976 1_556
Na4 O47 2.668321 1_666
Na4 O46 2.675899 1_566
Na5 O49 2.532925 1_555
Na5 O48 2.540060 1_555
Na5 O50 2.553085 1_555
Na5 O56 2.639851 1_555
Na5 O55 2.644288 1_555
Na5 O54 2.648331 1_555
Na6 O59 2.442211 1_555
Na6 O57 2.531912 1_555
Na6 O58 2.532336 1_555
Na6 O51 2.612732 1_555
Na6 O52 2.634204 1_555
Na6 O53 2.699061 1_555
Na7 O61 2.381059 1_555
Na7 O62 2.469282 1_555
Na7 O60 2.472677 1_555
Na7 O66 2.719801 1_555
Na7 O68 2.738419 1_555
Na7 O67 2.804633 1_555
Na8 O71 2.472136 1_555
Na8 O69 2.477689 1_555
Na8 O70 2.575077 1_555
Na8 O64 2.584859 1_555
Na8 O63 2.656413 1_555
Na8 O65 2.676801 1_555
Mg0 O1 2.067914 1_555
Mg0 O0 2.074707 1_665
Mg0 O36 2.081788 1_655
Mg0 O38 2.091742 1_665
Mg0 O37 2.092325 1_555
Mg0 O2 2.098084 1_565
Mg1 O3 2.050471 1_555
Mg1 O5 2.052238 1_455
Mg1 O4 2.061418 1_445
Mg1 O39 2.130043 1_555
Mg1 O41 2.134620 1_445
Mg1 O40 2.134638 1_545
Mg2 O7 1.981214 1_655
Mg2 O6 1.984086 1_545
Mg2 O8 2.058607 1_645
Mg2 O42 2.096875 1_555
Mg2 O44 2.157392 1_545
Mg2 O43 2.160861 1_655
Mg3 O45 2.034362 1_455
Mg3 O47 2.052275 1_565
Mg3 O46 2.054337 1_465
Mg3 O11 2.079599 1_555
Mg3 O9 2.082844 1_455
Mg3 O10 2.107895 1_565
Mg4 O49 2.067344 1_555
Mg4 O48 2.068105 1_555
Mg4 O13 2.074887 1_555
Mg4 O50 2.088135 1_555
Mg4 O14 2.099771 1_555
Mg4 O12 2.108844 1_555
Mg5 O15 1.969037 1_555
Mg5 O17 2.037887 1_555
Mg5 O16 2.039557 1_555
Mg5 O52 2.163789 1_555
Mg5 O51 2.166720 1_555
Mg5 O53 2.237303 1_555
Mg6 O25 2.048345 1_554
Mg6 O26 2.049928 1_554
Mg6 O24 2.052611 1_554
Mg6 O61 2.114480 1_555
Mg6 O62 2.132585 1_555
Mg6 O60 2.137141 1_555
Mg7 O27 2.033574 1_555
Mg7 O28 2.035484 1_555
Mg7 O64 2.084579 1_555
Mg7 O29 2.107078 1_555
Mg7 O65 2.149785 1_555
Mg7 O63 2.155626 1_555
Mg8 O30 1.973810 1_555
Mg8 O31 2.037081 1_555
Mg8 O32 2.039492 1_555
Mg8 O68 2.132739 1_555
Mg8 O66 2.139790 1_555
Mg8 O67 2.210983 1_555
In0 O19 2.115764 1_556
In0 O20 2.123864 1_556
In0 O18 2.124099 1_556
In0 O56 2.151676 1_555
In0 O54 2.151941 1_555
In0 O55 2.153635 1_555
In1 O21 2.113553 1_555
In1 O23 2.129333 1_555
In1 O22 2.132675 1_555
In1 O57 2.181285 1_555
In1 O58 2.182400 1_555
In1 O59 2.187671 1_555
In2 O33 2.118075 1_555
In2 O35 2.118925 1_555
In2 O34 2.119524 1_555
In2 O71 2.162874 1_555
In2 O69 2.164126 1_555
In2 O70 2.177020 1_555
O0 S0 1.478570 1_545
O1 S1 1.471134 1_555
O2 S2 1.482920 1_555
O3 S3 1.467541 1_555
O4 S4 1.467786 1_555
O5 S5 1.467749 1_555
O6 S5 1.475709 1_565
O7 S3 1.474464 1_555
O8 S4 1.489775 1_455
O9 S1 1.471547 1_555
O10 S2 1.478540 1_455
O11 S0 1.463254 1_555
O12 S6 1.472652 1_555
O13 S7 1.458427 1_555
O14 S8 1.463703 1_555
O15 S9 1.477731 1_555
O16 S10 1.494927 1_555
O17 S11 1.494422 1_555
O18 S11 1.489919 1_555
O19 S9 1.493486 1_555
O20 S10 1.489837 1_555
O21 S7 1.499688 1_555
O22 S8 1.518428 1_555
O23 S6 1.505604 1_555
O24 S12 1.468938 1_555
O25 S13 1.468262 1_555
O26 S14 1.467662 1_555
O27 S15 1.467557 1_555
O28 S16 1.468501 1_555
O29 S17 1.480914 1_555
O30 S17 1.472887 1_555
O31 S15 1.487488 1_555
O32 S16 1.487869 1_555
O33 S13 1.491751 1_555
O34 S14 1.491741 1_555
O35 S12 1.490953 1_555
O36 S17 1.479962 1_555
O37 S15 1.480552 1_555
O38 S16 1.480144 1_555
O39 S13 1.473866 1_555
O40 S14 1.474311 1_555
O41 S12 1.474773 1_555
O42 S6 1.470813 1_555
O43 S7 1.493507 1_555
O44 S8 1.494264 1_555
O45 S9 1.476425 1_555
O46 S10 1.476116 1_555
O47 S11 1.476306 1_555
O48 S5 1.482592 1_555
O49 S3 1.482940 1_555
O50 S4 1.480836 1_555
O51 S1 1.496899 1_555
O52 S2 1.497222 1_555
O53 S0 1.521489 1_545
O54 S12 1.505707 1_555
O55 S13 1.506081 1_655
O56 S14 1.506452 1_545
O57 S15 1.511566 1_545
O58 S16 1.511350 1_555
O59 S17 1.512385 1_655
O60 S11 1.479743 1_555
O61 S9 1.481241 1_455
O62 S10 1.479760 1_565
O63 S7 1.498988 1_565
O64 S8 1.474412 1_555
O65 S6 1.500757 1_455
O66 S0 1.496101 1_555
O67 S1 1.519591 1_555
O68 S2 1.496007 1_455
O69 S3 1.515456 1_555
O70 S4 1.512257 1_455
O71 S5 1.515195 1_565
