# generated using pymatgen
data_Li4Mn(PO4)2
_symmetry_space_group_name_H-M   'P 1'
_cell_length_a   10.47298800
_cell_length_b   8.24564900
_cell_length_c   8.31223468
_cell_angle_alpha   75.49919086
_cell_angle_beta   90.00000000
_cell_angle_gamma   90.00000000
_symmetry_Int_Tables_number   1
_chemical_formula_structural   Li4Mn(PO4)2
_chemical_formula_sum   'Li16 Mn4 P8 O32'
_cell_volume   694.94950689
_cell_formula_units_Z   4
loop_
 _symmetry_equiv_pos_site_id
 _symmetry_equiv_pos_as_xyz
  1  'x, y, z'
loop_
 _atom_site_type_symbol
 _atom_site_label
 _atom_site_symmetry_multiplicity
 _atom_site_fract_x
 _atom_site_fract_y
 _atom_site_fract_z
 _atom_site_occupancy
  Li  Li0  1  0.33692200  0.09951400  0.40178400  1
  Li  Li1  1  0.83719800  0.15447900  0.34710700  1
  Li  Li2  1  0.57299200  0.22793000  0.52140600  1
  Li  Li3  1  0.65137500  0.15140200  0.84699400  1
  Li  Li4  1  0.15137500  0.34859800  0.15300600  1
  Li  Li5  1  0.07299200  0.27207000  0.47859400  1
  Li  Li6  1  0.33719800  0.34552100  0.65289300  1
  Li  Li7  1  0.83692200  0.40048600  0.59821600  1
  Li  Li8  1  0.16307800  0.59951400  0.40178400  1
  Li  Li9  1  0.66280200  0.65447900  0.34710700  1
  Li  Li10  1  0.92700800  0.72793000  0.52140600  1
  Li  Li11  1  0.84862500  0.65140200  0.84699400  1
  Li  Li12  1  0.34862500  0.84859800  0.15300600  1
  Li  Li13  1  0.42700800  0.77207000  0.47859400  1
  Li  Li14  1  0.16280200  0.84552100  0.65289300  1
  Li  Li15  1  0.66307800  0.90048600  0.59821600  1
  Mn  Mn0  1  0.15607600  0.09212700  0.90834800  1
  Mn  Mn1  1  0.65607600  0.40787300  0.09165200  1
  Mn  Mn2  1  0.34392400  0.59212700  0.90834800  1
  Mn  Mn3  1  0.84392400  0.90787300  0.09165200  1
  P  P0  1  0.40887600  0.96911700  0.76669200  1
  P  P1  1  0.09319800  0.97318500  0.29417800  1
  P  P2  1  0.59319800  0.52681500  0.70582200  1
  P  P3  1  0.09112400  0.46911700  0.76669200  1
  P  P4  1  0.59112400  0.03088300  0.23330800  1
  P  P5  1  0.90680200  0.02681500  0.70582200  1
  P  P6  1  0.40680200  0.47318500  0.29417800  1
  P  P7  1  0.90887600  0.53088300  0.23330800  1
  O  O0  1  0.05036700  0.99029100  0.75158800  1
  O  O1  1  0.34676800  0.91074500  0.62002200  1
  O  O2  1  0.39849100  0.82388300  0.92877500  1
  O  O3  1  0.45123500  0.97737500  0.27718500  1
  O  O4  1  0.94963300  0.00970900  0.24841200  1
  O  O5  1  0.65323200  0.08925500  0.37997800  1
  O  O6  1  0.60150900  0.17611700  0.07122500  1
  O  O7  1  0.54876500  0.02262500  0.72281500  1
  O  O8  1  0.15255700  0.12726500  0.34217000  1
  O  O9  1  0.83214400  0.06089900  0.85677700  1
  O  O10  1  0.33242200  0.12036100  0.79846000  1
  O  O11  1  0.89924000  0.18638600  0.55952000  1
  O  O12  1  0.39924000  0.31361400  0.44048000  1
  O  O13  1  0.83242200  0.37963900  0.20154000  1
  O  O14  1  0.33214400  0.43910100  0.14322300  1
  O  O15  1  0.65255700  0.37273500  0.65783000  1
  O  O16  1  0.04876500  0.47737500  0.27718500  1
  O  O17  1  0.10150900  0.32388300  0.92877500  1
  O  O18  1  0.15323200  0.41074500  0.62002200  1
  O  O19  1  0.55036700  0.50970900  0.24841200  1
  O  O20  1  0.44963300  0.49029100  0.75158800  1
  O  O21  1  0.84676800  0.58925500  0.37997800  1
  O  O22  1  0.89849100  0.67611700  0.07122500  1
  O  O23  1  0.95123500  0.52262500  0.72281500  1
  O  O24  1  0.34744300  0.62726500  0.34217000  1
  O  O25  1  0.66785600  0.56089900  0.85677700  1
  O  O26  1  0.16757800  0.62036100  0.79846000  1
  O  O27  1  0.60076000  0.68638600  0.55952000  1
  O  O28  1  0.10076000  0.81361400  0.44048000  1
  O  O29  1  0.66757800  0.87963900  0.20154000  1
  O  O30  1  0.16785600  0.93910100  0.14322300  1
  O  O31  1  0.84744300  0.87273500  0.65783000  1
loop_
_geom_bond_atom_site_label_1
_geom_bond_atom_site_label_2
_geom_bond_distance
_geom_bond_site_symmetry_2
Li0 O12 1.982523 1_555
Li0 O8 1.992314 1_555
Li0 O3 2.010618 1_545
Li0 O1 2.076086 1_545
Li1 O13 1.946408 1_555
Li1 O11 1.959969 1_555
Li1 O4 1.993738 1_555
Li1 O5 2.000595 1_555
Li2 O12 2.006235 1_555
Li2 O5 2.017146 1_555
Li2 O15 2.020895 1_555
Li2 O7 2.076946 1_555
Li3 O7 1.974005 1_555
Li3 O6 1.994609 1_556
Li3 O9 2.029112 1_555
Li3 O15 2.089543 1_555
Li4 O16 1.974005 1_555
Li4 O17 1.994609 1_554
Li4 O14 2.029112 1_555
Li4 O8 2.089543 1_555
Li5 O11 2.006235 1_455
Li5 O18 2.017146 1_555
Li5 O8 2.020895 1_555
Li5 O16 2.076946 1_555
Li6 O10 1.946408 1_555
Li6 O12 1.959969 1_555
Li6 O20 1.993738 1_555
Li6 O18 2.000595 1_555
Li7 O11 1.982523 1_555
Li7 O15 1.992314 1_555
Li7 O23 2.010618 1_555
Li7 O21 2.076086 1_555
Li8 O28 1.982523 1_555
Li8 O24 1.992314 1_555
Li8 O16 2.010618 1_555
Li8 O18 2.076086 1_555
Li9 O29 1.946408 1_555
Li9 O27 1.959969 1_555
Li9 O19 1.993738 1_555
Li9 O21 2.000595 1_555
Li10 O28 2.006235 1_655
Li10 O21 2.017146 1_555
Li10 O31 2.020895 1_555
Li10 O23 2.076946 1_555
Li11 O23 1.974005 1_555
Li11 O22 1.994609 1_556
Li11 O25 2.029112 1_555
Li11 O31 2.089543 1_555
Li12 O3 1.974005 1_555
Li12 O2 1.994609 1_554
Li12 O30 2.029112 1_555
Li12 O24 2.089543 1_555
Li13 O27 2.006235 1_555
Li13 O1 2.017146 1_555
Li13 O24 2.020895 1_555
Li13 O3 2.076946 1_555
Li14 O26 1.946408 1_555
Li14 O28 1.959969 1_555
Li14 O0 1.993738 1_555
Li14 O1 2.000595 1_555
Li15 O27 1.982523 1_555
Li15 O31 1.992314 1_555
Li15 O7 2.010618 1_565
Li15 O5 2.076086 1_565
Mn0 O17 2.041997 1_555
Mn0 O0 2.043665 1_545
Mn0 O30 2.045802 1_546
Mn0 O10 2.047672 1_555
Mn1 O6 2.041997 1_555
Mn1 O19 2.043665 1_555
Mn1 O25 2.045802 1_554
Mn1 O13 2.047672 1_555
Mn2 O2 2.041997 1_555
Mn2 O20 2.043665 1_555
Mn2 O14 2.045802 1_556
Mn2 O26 2.047672 1_555
Mn3 O22 2.041997 1_555
Mn3 O4 2.043665 1_565
Mn3 O9 2.045802 1_564
Mn3 O29 2.047672 1_555
O0 P5 1.561640 1_465
O1 P0 1.560435 1_555
O2 P0 1.566241 1_555
O3 P4 1.547090 1_565
O4 P1 1.561640 1_645
O5 P4 1.560435 1_555
O6 P4 1.566241 1_555
O7 P0 1.547090 1_545
O8 P1 1.553564 1_545
O9 P5 1.562498 1_555
O10 P0 1.559179 1_545
O11 P5 1.554058 1_555
O12 P6 1.554058 1_555
O13 P7 1.559179 1_555
O14 P6 1.562498 1_555
O15 P2 1.553564 1_555
O16 P7 1.547090 1_455
O17 P3 1.566241 1_555
O18 P3 1.560435 1_555
O19 P6 1.561640 1_555
O20 P2 1.561640 1_555
O21 P7 1.560435 1_555
O22 P7 1.566241 1_555
O23 P3 1.547090 1_655
O24 P6 1.553564 1_555
O25 P2 1.562498 1_555
O26 P3 1.559179 1_555
O27 P2 1.554058 1_555
O28 P1 1.554058 1_555
O29 P4 1.559179 1_565
O30 P1 1.562498 1_555
O31 P5 1.553564 1_565
