# generated using pymatgen
data_MgAg2(BiO3)2
_symmetry_space_group_name_H-M   'P 1'
_cell_length_a   7.56682758
_cell_length_b   7.57064495
_cell_length_c   3.30850331
_cell_angle_alpha   89.99264917
_cell_angle_beta   89.99664272
_cell_angle_gamma   85.06496119
_symmetry_Int_Tables_number   1
_chemical_formula_structural   MgAg2(BiO3)2
_chemical_formula_sum   'Mg1 Ag2 Bi2 O6'
_cell_volume   188.82752946
_cell_formula_units_Z   1
loop_
 _symmetry_equiv_pos_site_id
 _symmetry_equiv_pos_as_xyz
  1  'x, y, z'
loop_
 _atom_site_type_symbol
 _atom_site_label
 _atom_site_symmetry_multiplicity
 _atom_site_fract_x
 _atom_site_fract_y
 _atom_site_fract_z
 _atom_site_occupancy
  Mg  Mg0  1  0.70134923  0.70184555  0.00141816  1
  Ag  Ag0  1  0.48977157  0.49035222  0.50107802  1
  Ag  Ag1  1  0.98683570  0.98733712  0.50019507  1
  Bi  Bi0  1  0.02935908  0.42182749  0.00022124  1
  Bi  Bi1  1  0.42182019  0.02998772  0.00027431  1
  O  O0  1  0.20069642  0.49518212  0.50025317  1
  O  O1  1  0.52327979  0.78284082  0.50128155  1
  O  O2  1  0.87491702  0.87597106  0.00086029  1
  O  O3  1  0.12784552  0.12803072  0.00022201  1
  O  O4  1  0.78243715  0.52381420  0.50128487  1
  O  O5  1  0.49474434  0.20138099  0.50035029  1
loop_
_geom_bond_atom_site_label_1
_geom_bond_atom_site_label_2
_geom_bond_distance
_geom_bond_site_symmetry_2
Mg0 O2 1.939214 1_555
Mg0 O1 2.187336 1_555
Mg0 O4 2.187562 1_555
Mg0 O1 2.188020 1_554
Mg0 O4 2.188436 1_554
Ag0 O0 2.184542 1_555
Ag0 O5 2.184785 1_555
Ag0 O1 2.250363 1_555
Ag0 O4 2.250540 1_555
Ag1 O2 2.068977 1_555
Ag1 O2 2.072242 1_556
Ag1 O3 2.281259 1_665
Ag1 O3 2.281677 1_666
Bi0 O0 2.202011 1_554
Bi0 O0 2.202391 1_555
Bi0 O3 2.284159 1_555
Bi0 O4 2.562005 1_454
Bi0 O4 2.566532 1_455
Bi1 O5 2.201452 1_554
Bi1 O5 2.202129 1_555
Bi1 O3 2.283651 1_555
Bi1 O1 2.563066 1_544
Bi1 O1 2.567113 1_545
