# generated using pymatgen
data_Na3Hf2SiGe2P5O24
_symmetry_space_group_name_H-M   'P 1'
_cell_length_a   8.68748015
_cell_length_b   8.66096700
_cell_length_c   22.33044837
_cell_angle_alpha   90.17461970
_cell_angle_beta   89.85779912
_cell_angle_gamma   119.98667691
_symmetry_Int_Tables_number   1
_chemical_formula_structural   Na3Hf2SiGe2P5O24
_chemical_formula_sum   'Na9 Hf6 Si3 Ge6 P15 O72'
_cell_volume   1455.27239240
_cell_formula_units_Z   3
loop_
 _symmetry_equiv_pos_site_id
 _symmetry_equiv_pos_as_xyz
  1  'x, y, z'
loop_
 _atom_site_type_symbol
 _atom_site_label
 _atom_site_symmetry_multiplicity
 _atom_site_fract_x
 _atom_site_fract_y
 _atom_site_fract_z
 _atom_site_occupancy
  Na  Na0  1  0.36344332  0.99904670  0.75071059  1
  Na  Na1  1  0.66402784  0.97090314  0.58362296  1
  Na  Na2  1  0.66933886  0.69456132  0.08308738  1
  Na  Na3  1  0.01090204  0.00058179  0.49764675  1
  Na  Na4  1  0.00845985  0.00590456  0.00187741  1
  Na  Na5  1  0.67473269  0.33830000  0.83372967  1
  Na  Na6  1  0.66660205  0.33321800  0.33286623  1
  Na  Na7  1  0.32336698  0.66563279  0.16755316  1
  Na  Na8  1  0.32849994  0.65580278  0.66641621  1
  Hf  Hf0  1  0.99505697  0.00066864  0.85698656  1
  Hf  Hf1  1  0.00228804  0.99947004  0.64846138  1
  Hf  Hf2  1  0.66893306  0.33097336  0.68441373  1
  Hf  Hf3  1  0.67298576  0.33629481  0.18832491  1
  Hf  Hf4  1  0.67039068  0.33740910  0.98012747  1
  Hf  Hf5  1  0.66207411  0.33198277  0.47537841  1
  Si  Si0  1  0.69894868  0.99122240  0.75181681  1
  Si  Si1  1  0.36667762  0.02970086  0.57986487  1
  Si  Si2  1  0.97308374  0.63657191  0.08409679  1
  Ge  Ge0  1  0.00053585  0.00017052  0.35334799  1
  Ge  Ge1  1  0.00586088  0.00067874  0.14975827  1
  Ge  Ge2  1  0.32655725  0.66659803  0.01942531  1
  Ge  Ge3  1  0.32904210  0.66630958  0.51636011  1
  Ge  Ge4  1  0.33294883  0.66662741  0.31300059  1
  Ge  Ge5  1  0.33684987  0.66609350  0.81478342  1
  P  P0  1  0.27899723  0.99224020  0.25298020  1
  P  P1  1  0.71247289  0.72191596  0.25268463  1
  P  P2  1  0.00848631  0.28447954  0.25257045  1
  P  P3  1  0.29150605  0.30201383  0.75285063  1
  P  P4  1  0.00437840  0.70438572  0.75354660  1
  P  P5  1  0.96908281  0.34365641  0.57971956  1
  P  P6  1  0.65837540  0.62362571  0.58028464  1
  P  P7  1  0.66759291  0.03650999  0.08379983  1
  P  P8  1  0.36529865  0.33008938  0.08378404  1
  P  P9  1  0.60861287  0.66465068  0.91797406  1
  P  P10  1  0.05821659  0.39212733  0.91673040  1
  P  P11  1  0.33409442  0.94595230  0.91690145  1
  P  P12  1  0.62114261  0.94410149  0.41340926  1
  P  P13  1  0.32391265  0.38216514  0.41352024  1
  P  P14  1  0.05615246  0.67593515  0.41320490  1
  O  O0  1  0.19584777  0.02884609  0.30853117  1
  O  O1  1  0.83348052  0.80538663  0.30762458  1
  O  O2  1  0.97187256  0.16639422  0.30836425  1
  O  O3  1  0.21163335  0.17640869  0.80658823  1
  O  O4  1  0.97571266  0.79309629  0.80787075  1
  O  O5  1  0.82709414  0.02989685  0.80835055  1
  O  O6  1  0.77808784  0.95872602  0.68988726  1
  O  O7  1  0.17920341  0.21784939  0.69614197  1
  O  O8  1  0.04477617  0.82413324  0.69743008  1
  O  O9  1  0.79117610  0.83109157  0.19387382  1
  O  O10  1  0.03894922  0.20240640  0.19471426  1
  O  O11  1  0.16616477  0.95983176  0.19541254  1
  O  O12  1  0.88816730  0.37607643  0.63705279  1
  O  O13  1  0.49048075  0.10971304  0.64069027  1
  O  O14  1  0.62919526  0.51313235  0.63747358  1
  O  O15  1  0.87815083  0.50799476  0.14151443  1
  O  O16  1  0.62895127  0.11746498  0.13907311  1
  O  O17  1  0.48926571  0.37113400  0.13841406  1
  O  O18  1  0.44798867  0.29432822  0.02784555  1
  O  O19  1  0.83717976  0.55149202  0.02699688  1
  O  O20  1  0.70065423  0.15292881  0.02794675  1
  O  O21  1  0.46688418  0.15984135  0.52423546  1
  O  O22  1  0.69669511  0.54177937  0.52576230  1
  O  O23  1  0.84492467  0.30434436  0.52613218  1
  O  O24  1  0.52908222  0.69463343  0.97607680  1
  O  O25  1  0.17023436  0.47232071  0.97346421  1
  O  O26  1  0.30514650  0.83227883  0.97298610  1
  O  O27  1  0.54282249  0.83576148  0.47240488  1
  O  O28  1  0.29389760  0.46367193  0.47160894  1
  O  O29  1  0.16766937  0.70712577  0.47105588  1
  O  O30  1  0.13876599  0.63876510  0.35788901  1
  O  O31  1  0.49972925  0.86036362  0.35885382  1
  O  O32  1  0.36068934  0.50046192  0.35808060  1
  O  O33  1  0.13886454  0.50338929  0.85950120  1
  O  O34  1  0.36188838  0.86561033  0.85831608  1
  O  O35  1  0.49721950  0.63506998  0.86115772  1
  O  O36  1  0.03495611  0.84447741  0.40741798  1
  O  O37  1  0.81026737  0.96522389  0.40743283  1
  O  O38  1  0.15679245  0.19198188  0.40791889  1
  O  O39  1  0.03919736  0.20592500  0.91332709  1
  O  O40  1  0.16847698  0.96558044  0.91330334  1
  O  O41  1  0.79559849  0.82992567  0.91435186  1
  O  O42  1  0.97812922  0.17176266  0.58781694  1
  O  O43  1  0.17464657  0.01145085  0.58632059  1
  O  O44  1  0.82065990  0.81245018  0.58709304  1
  O  O45  1  0.97838126  0.82810282  0.09442331  1
  O  O46  1  0.83454432  0.01706187  0.09269639  1
  O  O47  1  0.18038743  0.16565571  0.09311853  1
  O  O48  1  0.67260439  0.16522215  0.74700084  1
  O  O49  1  0.47605829  0.31844127  0.74450374  1
  O  O50  1  0.83689064  0.52218650  0.74579522  1
  O  O51  1  0.69062508  0.53394513  0.24637506  1
  O  O52  1  0.84095019  0.30312419  0.24635862  1
  O  O53  1  0.46477335  0.15838283  0.24598273  1
  O  O54  1  0.62781659  0.49670412  0.92132538  1
  O  O55  1  0.87014052  0.36979849  0.92132544  1
  O  O56  1  0.50176626  0.13239706  0.92130247  1
  O  O57  1  0.64342779  0.13194505  0.41893886  1
  O  O58  1  0.49097998  0.36319774  0.41909131  1
  O  O59  1  0.87039720  0.51013354  0.41936440  1
  O  O60  1  0.35850189  0.50492449  0.07482678  1
  O  O61  1  0.16506796  0.65128324  0.07454553  1
  O  O62  1  0.50509163  0.84599163  0.07493339  1
  O  O63  1  0.36133444  0.83866362  0.57157659  1
  O  O64  1  0.49153994  0.64247130  0.57245042  1
  O  O65  1  0.15366456  0.50748144  0.57229372  1
  O  O66  1  0.29919635  0.82324998  0.25904877  1
  O  O67  1  0.52358491  0.70087195  0.25904649  1
  O  O68  1  0.17557484  0.47424823  0.25853730  1
  O  O69  1  0.30518267  0.48332372  0.76025517  1
  O  O70  1  0.17307783  0.68907348  0.75974148  1
  O  O71  1  0.49987418  0.81768561  0.75988554  1
loop_
_geom_bond_atom_site_label_1
_geom_bond_atom_site_label_2
_geom_bond_distance
_geom_bond_site_symmetry_2
Na0 O48 2.329718 1_565
Na0 O70 2.355141 1_555
Na0 O71 2.403792 1_555
Na0 O49 2.434131 1_565
Na0 O34 2.666605 1_555
Na0 O13 2.667599 1_565
Na0 O8 2.681007 1_555
Na0 O3 2.767891 1_565
Na1 O63 2.300044 1_555
Na1 O44 2.368292 1_555
Na1 O42 2.395065 1_565
Na1 O64 2.477064 1_555
Na1 O6 2.596430 1_555
Na1 O13 2.671215 1_565
Na1 O27 2.722138 1_555
Na1 O23 2.816717 1_565
Na2 O45 2.346817 1_555
Na2 O60 2.364514 1_555
Na2 O62 2.379645 1_555
Na2 O46 2.428654 1_565
Na2 O19 2.649124 1_555
Na2 O24 2.685157 1_554
Na2 O9 2.717149 1_555
Na2 O17 2.729742 1_555
Na3 O43 2.415023 1_555
Na3 O36 2.488966 1_545
Na3 O38 2.505293 1_555
Na3 O37 2.582684 1_445
Na3 O44 2.586028 1_445
Na3 O42 2.595070 1_455
Na4 O47 2.495726 1_555
Na4 O45 2.514948 1_445
Na4 O40 2.536535 1_544
Na4 O46 2.556278 1_455
Na4 O39 2.557000 1_554
Na4 O41 2.597134 1_444
Na5 O48 2.439870 1_555
Na5 O50 2.477792 1_555
Na5 O55 2.516489 1_555
Na5 O54 2.532409 1_555
Na5 O56 2.567169 1_555
Na5 O49 2.587799 1_555
Na6 O57 2.537966 1_555
Na6 O51 2.540069 1_555
Na6 O52 2.543774 1_555
Na6 O53 2.544888 1_555
Na6 O58 2.545766 1_555
Na6 O59 2.549596 1_555
Na7 O61 2.462104 1_555
Na7 O66 2.519812 1_555
Na7 O68 2.530640 1_555
Na7 O60 2.592677 1_555
Na7 O62 2.597784 1_555
Na7 O67 2.603077 1_555
Na8 O69 2.525480 1_555
Na8 O65 2.534516 1_555
Na8 O71 2.539648 1_555
Na8 O64 2.563132 1_555
Na8 O70 2.573028 1_555
Na8 O63 2.576941 1_555
Hf0 O5 1.936900 1_555
Hf0 O4 2.037170 1_545
Hf0 O39 2.048782 1_655
Hf0 O3 2.064129 1_655
Hf0 O41 2.066269 1_545
Hf0 O40 2.100725 1_645
Hf1 O43 2.003405 1_565
Hf1 O6 2.019884 1_455
Hf1 O7 2.040400 1_565
Hf1 O8 2.051952 1_555
Hf1 O42 2.105105 1_465
Hf1 O44 2.105650 1_455
Hf2 O13 2.013816 1_555
Hf2 O48 2.018258 1_555
Hf2 O12 2.036513 1_555
Hf2 O14 2.064763 1_555
Hf2 O50 2.081120 1_555
Hf2 O49 2.104248 1_555
Hf3 O15 1.957466 1_555
Hf3 O16 2.052475 1_555
Hf3 O52 2.078910 1_555
Hf3 O51 2.087938 1_555
Hf3 O17 2.091156 1_555
Hf3 O53 2.125653 1_555
Hf4 O19 1.985700 1_556
Hf4 O20 2.047919 1_556
Hf4 O18 2.068645 1_556
Hf4 O54 2.070731 1_555
Hf4 O55 2.078109 1_555
Hf4 O56 2.102270 1_555
Hf5 O21 1.939619 1_555
Hf5 O22 2.025060 1_555
Hf5 O23 2.062970 1_555
Hf5 O58 2.067673 1_555
Hf5 O57 2.079289 1_555
Hf5 O59 2.104722 1_555
Ge0 O2 1.874049 1_455
Ge0 O0 1.874597 1_555
Ge0 O1 1.882618 1_445
Ge0 O37 1.942863 1_445
Ge0 O36 1.944312 1_545
Ge0 O38 1.956828 1_555
Ge1 O45 1.857798 1_445
Ge1 O11 1.898858 1_545
Ge1 O10 1.905700 1_555
Ge1 O47 1.943225 1_555
Ge1 O9 1.966646 1_445
Ge1 O46 2.020010 1_455
Ge2 O61 1.818584 1_555
Ge2 O25 1.855025 1_554
Ge2 O26 1.856317 1_554
Ge2 O24 1.912460 1_554
Ge2 O62 1.986212 1_555
Ge2 O60 1.992217 1_555
Ge3 O63 1.843696 1_555
Ge3 O29 1.902217 1_555
Ge3 O28 1.904521 1_555
Ge3 O65 1.918250 1_555
Ge3 O27 1.960029 1_555
Ge3 O64 1.976366 1_555
Ge4 O30 1.869488 1_555
Ge4 O32 1.870648 1_555
Ge4 O31 1.878809 1_555
Ge4 O67 1.945161 1_555
Ge4 O66 1.945986 1_555
Ge4 O68 1.960441 1_555
Ge5 O71 1.837092 1_555
Ge5 O35 1.862434 1_555
Ge5 O33 1.875779 1_555
Ge5 O34 1.895626 1_555
Ge5 O69 1.902290 1_555
Ge5 O70 1.966677 1_555
O0 P0 1.543757 1_545
O1 P1 1.540844 1_555
O2 P2 1.542740 1_655
O3 P3 1.534328 1_555
O4 P4 1.519204 1_655
O5 Si0 1.605277 1_545
O6 Si0 1.628092 1_555
O7 P3 1.541562 1_555
O8 P4 1.552734 1_555
O9 P1 1.563050 1_555
O10 P2 1.557310 1_555
O11 P0 1.556022 1_555
O12 P5 1.550076 1_555
O13 Si1 1.654798 1_555
O14 P6 1.540872 1_555
O15 Si2 1.627768 1_555
O16 P7 1.534826 1_555
O17 P8 1.547770 1_555
O18 P8 1.545286 1_555
O19 Si2 1.641597 1_555
O20 P7 1.539848 1_555
O21 Si1 1.610517 1_555
O22 P6 1.524553 1_555
O23 P5 1.532350 1_555
O24 P9 1.549532 1_555
O25 P10 1.536088 1_555
O26 P11 1.536061 1_555
O27 P12 1.563282 1_555
O28 P13 1.557452 1_555
O29 P14 1.556559 1_555
O30 P14 1.539044 1_555
O31 P12 1.535901 1_555
O32 P13 1.537202 1_555
O33 P10 1.542992 1_555
O34 P11 1.553967 1_555
O35 P9 1.538865 1_555
O36 P14 1.565697 1_555
O37 P12 1.565053 1_555
O38 P13 1.563923 1_555
O39 P10 1.538444 1_555
O40 P11 1.533182 1_555
O41 P9 1.539500 1_555
O42 P5 1.540767 1_555
O43 Si1 1.601324 1_555
O44 P6 1.542767 1_555
O45 Si2 1.651805 1_555
O46 P7 1.554767 1_555
O47 P8 1.538023 1_555
O48 Si0 1.637341 1_545
O49 P3 1.547964 1_555
O50 P4 1.530258 1_655
O51 P1 1.547950 1_555
O52 P2 1.549121 1_655
O53 P0 1.542224 1_545
O54 P9 1.546782 1_555
O55 P10 1.549521 1_655
O56 P11 1.545166 1_545
O57 P12 1.543892 1_545
O58 P13 1.545433 1_555
O59 P14 1.539119 1_655
O60 P8 1.558108 1_555
O61 Si2 1.621559 1_455
O62 P7 1.557497 1_565
O63 Si1 1.641769 1_565
O64 P6 1.547855 1_555
O65 P5 1.529013 1_455
O66 P0 1.565054 1_555
O67 P1 1.564030 1_555
O68 P2 1.562367 1_555
O69 P3 1.522948 1_555
O70 P4 1.542735 1_555
O71 Si0 1.638373 1_555
