# generated using pymatgen
data_Na2La4Si3Sn4(S3O16)3
_symmetry_space_group_name_H-M   'P 1'
_cell_length_a   18.36720399
_cell_length_b   9.20243226
_cell_length_c   24.35003917
_cell_angle_alpha   89.80885417
_cell_angle_beta   89.40598579
_cell_angle_gamma   120.20358562
_symmetry_Int_Tables_number   1
_chemical_formula_structural   Na2La4Si3Sn4(S3O16)3
_chemical_formula_sum   'Na6 La12 Si9 Sn12 S27 O144'
_cell_volume   3556.61429511
_cell_formula_units_Z   3
loop_
 _symmetry_equiv_pos_site_id
 _symmetry_equiv_pos_as_xyz
  1  'x, y, z'
loop_
 _atom_site_type_symbol
 _atom_site_label
 _atom_site_symmetry_multiplicity
 _atom_site_fract_x
 _atom_site_fract_y
 _atom_site_fract_z
 _atom_site_occupancy
  Na  Na0  1  0.99571564  0.01587995  0.50080731  1
  Na  Na1  1  0.49549229  0.97486417  0.00452087  1
  Na  Na2  1  0.32120239  0.31097916  0.83719156  1
  Na  Na3  1  0.82733724  0.32991735  0.82587542  1
  Na  Na4  1  0.32844010  0.32533981  0.32479739  1
  Na  Na5  1  0.81733384  0.32537591  0.33205305  1
  La  La0  1  0.00920156  0.00490605  0.34684615  1
  La  La1  1  0.51017737  0.01466016  0.84900328  1
  La  La2  1  -0.00015036  0.01187359  0.64554500  1
  La  La3  1  0.50407055  0.98763164  0.14783816  1
  La  La4  1  0.32315996  0.32658286  0.98459133  1
  La  La5  1  0.84582406  0.34921023  0.98652388  1
  La  La6  1  0.34578293  0.33886170  0.48392163  1
  La  La7  1  0.82316030  0.32073455  0.48265557  1
  La  La8  1  0.16228746  0.67867944  0.30107263  1
  La  La9  1  0.67031551  0.66889426  0.30706038  1
  La  La10  1  0.17137842  0.68291575  0.80985325  1
  La  La11  1  0.66128555  0.64448952  0.80162596  1
  Si  Si0  1  0.15553205  0.02982014  0.24186283  1
  Si  Si1  1  0.65632891  0.02508927  0.24937153  1
  Si  Si2  1  0.65560810  0.28176700  0.74205029  1
  Si  Si3  1  0.48680352  0.33407728  0.58577587  1
  Si  Si4  1  0.98239922  0.34800779  0.58066879  1
  Si  Si5  1  0.48256137  0.61969266  0.08043235  1
  Si  Si6  1  0.98151027  0.63112134  0.08875241  1
  Si  Si7  1  0.16457574  0.95973995  0.91491552  1
  Si  Si8  1  0.66141949  0.36871223  0.41401952  1
  Sn  Sn0  1  0.51488781  0.02236031  0.35163919  1
  Sn  Sn1  1  0.00508217  0.99575757  0.85706722  1
  Sn  Sn2  1  0.50590041  0.01715126  0.64613392  1
  Sn  Sn3  1  0.00436506  0.99266848  0.14698061  1
  Sn  Sn4  1  0.33990377  0.33900343  0.67623185  1
  Sn  Sn5  1  0.83496116  0.33476184  0.67786091  1
  Sn  Sn6  1  0.33764520  0.33753826  0.17961245  1
  Sn  Sn7  1  0.83186985  0.32989429  0.18095021  1
  Sn  Sn8  1  0.15668889  0.68030193  0.02179724  1
  Sn  Sn9  1  0.66557686  0.67135929  0.02410123  1
  Sn  Sn10  1  0.16532948  0.66008697  0.52124465  1
  Sn  Sn11  1  0.65698564  0.63871810  0.51696122  1
  S  S0  1  0.36010050  0.69596819  0.25451776  1
  S  S1  1  0.85900448  0.69905071  0.24218594  1
  S  S2  1  0.98949658  0.27851480  0.24144243  1
  S  S3  1  0.48838387  0.28006866  0.25117249  1
  S  S4  1  0.15523877  0.28660139  0.75145109  1
  S  S5  1  0.98882684  0.69448865  0.75067755  1
  S  S6  1  0.48828314  0.69939084  0.74184542  1
  S  S7  1  0.35869393  0.01936259  0.74180945  1
  S  S8  1  0.85949483  0.02479828  0.75377799  1
  S  S9  1  0.18858965  0.02636476  0.58179177  1
  S  S10  1  0.67923302  0.01886867  0.58730426  1
  S  S11  1  0.33494519  0.64231107  0.58735475  1
  S  S12  1  0.82487675  0.62559006  0.58253381  1
  S  S13  1  0.32583523  0.02425972  0.08315146  1
  S  S14  1  0.83457081  0.02728983  0.08789052  1
  S  S15  1  0.17883313  0.33964216  0.08761208  1
  S  S16  1  0.68880971  0.35155550  0.08130043  1
  S  S17  1  0.31033649  0.67511142  0.92183142  1
  S  S18  1  0.81340332  0.67962039  0.91681146  1
  S  S19  1  0.02319572  0.36288017  0.91507535  1
  S  S20  1  0.52510850  0.37844750  0.92218414  1
  S  S21  1  0.66651624  0.95067384  0.92066869  1
  S  S22  1  0.31669759  0.94846493  0.41518489  1
  S  S23  1  0.81053734  0.94531359  0.42209357  1
  S  S24  1  0.16571725  0.37987883  0.42048554  1
  S  S25  1  0.02491980  0.67233566  0.42155888  1
  S  S26  1  0.52352097  0.68676287  0.41515460  1
  O  O0  1  0.12199137  0.06728533  0.30024471  1
  O  O1  1  0.61109050  0.05381649  0.30524400  1
  O  O2  1  0.41314966  0.78346848  0.30324614  1
  O  O3  1  0.90651294  0.76961442  0.29361210  1
  O  O4  1  0.47490080  0.17240908  0.30186053  1
  O  O5  1  0.97565591  0.18301194  0.29361050  1
  O  O6  1  0.11355759  0.17980075  0.80169667  1
  O  O7  1  0.62169878  0.17613171  0.80033827  1
  O  O8  1  0.47474256  0.76665120  0.79363924  1
  O  O9  1  0.97690502  0.77524856  0.80149356  1
  O  O10  1  0.40488160  0.04331661  0.79354627  1
  O  O11  1  0.91207915  0.04542584  0.80314083  1
  O  O12  1  0.40412303  0.00127218  0.69445559  1
  O  O13  1  0.89646709  0.99843469  0.70384024  1
  O  O14  1  0.10610964  0.20960925  0.70211880  1
  O  O15  1  0.59131656  0.18352624  0.69299810  1
  O  O16  1  0.00001880  0.79610043  0.70155488  1
  O  O17  1  0.49556325  0.80524258  0.69397434  1
  O  O18  1  0.39301016  0.79270856  0.20364873  1
  O  O19  1  0.90333663  0.81192190  0.19481005  1
  O  O20  1  0.99726001  0.18658809  0.19403130  1
  O  O21  1  0.49842842  0.20390825  0.20157216  1
  O  O22  1  0.09147281  -0.00010113  0.19284679  1
  O  O23  1  0.60336007  0.99250693  0.19474008  1
  O  O24  1  0.44347262  0.37401997  0.64031572  1
  O  O25  1  0.93484235  0.36743592  0.63836056  1
  O  O26  1  0.23830024  0.10769795  0.63274096  1
  O  O27  1  0.73578247  0.10489414  0.63529493  1
  O  O28  1  0.31342768  0.52304050  0.63633952  1
  O  O29  1  0.81319373  0.52038124  0.63310562  1
  O  O30  1  0.43488144  0.50182276  0.13775674  1
  O  O31  1  0.93189940  0.49716900  0.14038141  1
  O  O32  1  0.31309116  0.10559578  0.13286337  1
  O  O33  1  0.81454571  0.10567976  0.13510603  1
  O  O34  1  0.23542186  0.36648879  0.13498674  1
  O  O35  1  0.73846134  0.36825400  0.13129824  1
  O  O36  1  0.20860352  0.29316575  0.03834287  1
  O  O37  1  0.72632553  0.32175814  0.03208600  1
  O  O38  1  0.42649288  0.53310615  0.02780298  1
  O  O39  1  0.92814678  0.55817066  0.03330716  1
  O  O40  1  0.33865863  0.12455929  0.03345004  1
  O  O41  1  0.85262301  0.12928586  0.03768657  1
  O  O42  1  0.22556763  0.13387490  0.53327545  1
  O  O43  1  0.70907898  0.12725633  0.53857787  1
  O  O44  1  0.35297716  0.57332314  0.53862237  1
  O  O45  1  0.83919580  0.55165450  0.53377691  1
  O  O46  1  0.42850229  0.29857488  0.53298067  1
  O  O47  1  0.92568638  0.31765905  0.52830100  1
  O  O48  1  0.26239489  0.67629398  0.97224445  1
  O  O49  1  0.77391112  0.69778383  0.96886603  1
  O  O50  1  0.07059227  0.43952980  0.96607883  1
  O  O51  1  0.57745697  0.46992537  0.97082928  1
  O  O52  1  0.15186518  0.84554158  0.97149415  1
  O  O53  1  0.66202633  0.85177654  0.97204990  1
  O  O54  1  0.27690506  0.85072163  0.46858146  1
  O  O55  1  0.76250791  0.84775561  0.47365581  1
  O  O56  1  0.16083464  0.46846334  0.47233411  1
  O  O57  1  0.64968223  0.45700208  0.47107450  1
  O  O58  1  0.07656095  0.68449650  0.47113918  1
  O  O59  1  0.57076968  0.70433227  0.46711935  1
  O  O60  1  0.06598702  0.66332716  0.37061812  1
  O  O61  1  0.56357343  0.66095101  0.36734632  1
  O  O62  1  0.26222590  0.86635320  0.36817424  1
  O  O63  1  0.76584627  0.86644985  0.37194823  1
  O  O64  1  0.16993143  0.47185986  0.37062290  1
  O  O65  1  0.68254332  0.48246364  0.35939990  1
  O  O66  1  0.06392674  0.46439048  0.86583079  1
  O  O67  1  0.56588093  0.46916806  0.87050284  1
  O  O68  1  0.17512670  0.87279418  0.86046716  1
  O  O69  1  0.67039842  0.86767355  0.87047803  1
  O  O70  1  0.26554681  0.66473471  0.87080612  1
  O  O71  1  0.76237691  0.65961227  0.86842858  1
  O  O72  1  0.01788643  0.82662749  0.42138883  1
  O  O73  1  0.51550661  0.83970089  0.40882897  1
  O  O74  1  0.40004321  0.96088185  0.40761170  1
  O  O75  1  0.89489384  0.95961732  0.42259912  1
  O  O76  1  0.08755593  0.21082010  0.42226751  1
  O  O77  1  0.57114361  0.18666601  0.41014660  1
  O  O78  1  0.01572266  0.19251956  0.90953836  1
  O  O79  1  0.51799864  0.20962556  0.92147463  1
  O  O80  1  0.07523820  0.96568733  0.91033052  1
  O  O81  1  0.58816124  0.96268633  0.92201968  1
  O  O82  1  0.39484915  0.83070119  0.92081353  1
  O  O83  1  0.89817785  0.83760785  0.91053396  1
  O  O84  1  0.49251070  0.16462514  0.59521126  1
  O  O85  1  0.99757738  0.18870960  0.58744100  1
  O  O86  1  0.10183719  0.99399972  0.58842843  1
  O  O87  1  0.59214919  0.98668232  0.59948781  1
  O  O88  1  0.40871486  0.80756066  0.60073141  1
  O  O89  1  0.89999566  0.79491365  0.58915426  1
  O  O90  1  0.49695806  0.80754764  0.08445513  1
  O  O91  1  0.99086159  0.81492508  0.09759752  1
  O  O92  1  0.39922484  0.00292905  0.08933972  1
  O  O93  1  0.90775727  0.00736663  0.10050769  1
  O  O94  1  0.09161681  0.19698110  0.09923689  1
  O  O95  1  0.60162335  0.21326713  0.08648905  1
  O  O96  1  0.34912713  0.17311905  0.73580010  1
  O  O97  1  0.85421348  0.18119467  0.74724343  1
  O  O98  1  0.24086429  0.29854315  0.74547958  1
  O  O99  1  0.75021318  0.30271798  0.73268702  1
  O  O100  1  0.41045030  0.52603244  0.73664284  1
  O  O101  1  0.91033850  0.52538968  0.74594722  1
  O  O102  1  0.35507772  0.52827950  0.24853919  1
  O  O103  1  0.85271404  0.53194354  0.23555875  1
  O  O104  1  0.41001701  0.29443504  0.24698958  1
  O  O105  1  0.91376182  0.29750074  0.23574986  1
  O  O106  1  0.25038297  0.19860738  0.23274136  1
  O  O107  1  0.75106377  0.20210269  0.24124877  1
  O  O108  1  0.32099351  0.52654385  0.92241853  1
  O  O109  1  0.82563101  0.53270478  0.92110524  1
  O  O110  1  0.44107363  0.35978483  0.92480317  1
  O  O111  1  0.93651955  0.33594458  0.91864553  1
  O  O112  1  0.24468115  0.14848555  0.91623110  1
  O  O113  1  0.74132903  0.12058814  0.92427319  1
  O  O114  1  0.32751784  0.11976047  0.42045248  1
  O  O115  1  0.82066908  0.11466009  0.42362352  1
  O  O116  1  0.24058428  0.36063093  0.42468213  1
  O  O117  1  0.74341259  0.34388169  0.41658480  1
  O  O118  1  0.43665680  0.53924234  0.42015739  1
  O  O119  1  0.94098280  0.52232564  0.42479345  1
  O  O120  1  0.17436491  0.49460025  0.07772628  1
  O  O121  1  0.68914857  0.51440293  0.07468945  1
  O  O122  1  0.07333507  0.63943855  0.08029330  1
  O  O123  1  0.57649934  0.63229430  0.07663196  1
  O  O124  1  0.24816924  0.85428770  0.07759171  1
  O  O125  1  0.75864811  0.85636904  0.07896968  1
  O  O126  1  0.18696977  0.86349571  0.57527628  1
  O  O127  1  0.67449621  0.85587875  0.57782756  1
  O  O128  1  0.25940202  0.66116458  0.57887276  1
  O  O129  1  0.74903627  0.64240165  0.57672532  1
  O  O130  1  0.07732424  0.52145268  0.57643962  1
  O  O131  1  0.57755095  0.50983661  0.57728401  1
  O  O132  1  0.16486510  0.86540161  0.24754846  1
  O  O133  1  0.67016762  0.86833032  0.25771538  1
  O  O134  1  0.27408672  0.66497358  0.26317593  1
  O  O135  1  0.77521440  0.67842193  0.24470284  1
  O  O136  1  0.06520204  0.44473766  0.24488332  1
  O  O137  1  0.56080744  0.44774473  0.25815932  1
  O  O138  1  0.16622617  0.45351577  0.75822860  1
  O  O139  1  0.66499891  0.46507377  0.74768351  1
  O  O140  1  0.06146360  0.67122238  0.75669177  1
  O  O141  1  0.56300167  0.68198437  0.74492621  1
  O  O142  1  0.27496147  0.86961707  0.74392324  1
  O  O143  1  0.77431095  0.88041019  0.76113938  1
loop_
_geom_bond_atom_site_label_1
_geom_bond_atom_site_label_2
_geom_bond_distance
_geom_bond_site_symmetry_2
Na0 O75 2.537507 1_545
Na0 O76 2.566440 1_655
Na0 O85 2.636286 1_555
Na0 O72 2.767379 1_645
Na0 O89 2.854660 1_545
Na0 O86 2.978279 1_645
Na1 O90 2.486511 1_555
Na1 O82 2.638253 1_554
Na1 O81 2.658539 1_554
Na1 O92 2.801079 1_565
Na1 O79 2.825294 1_564
Na1 O95 2.898922 1_565
Na2 O112 2.392839 1_555
Na2 O98 2.660398 1_555
Na2 O108 2.876961 1_555
Na2 O96 2.935518 1_555
Na2 O110 2.951138 1_555
Na2 O100 3.036201 1_555
Na3 O97 2.541744 1_555
Na3 O101 2.550240 1_555
Na3 O99 2.632863 1_555
Na3 O113 2.962433 1_555
Na3 O109 2.991107 1_555
Na3 O111 3.018333 1_555
Na4 O102 2.492752 1_555
Na4 O104 2.507784 1_555
Na4 O106 2.615720 1_555
Na4 O114 2.990325 1_555
Na4 O116 3.012665 1_555
Na4 O118 3.067050 1_555
Na5 O117 2.507243 1_555
Na5 O107 2.518058 1_555
Na5 O103 2.872676 1_555
Na5 O115 2.971383 1_555
Na5 O105 3.012743 1_555
Na5 O119 3.087796 1_555
La0 O0 2.158526 1_555
La0 O5 2.400998 1_455
La0 O3 2.426190 1_445
La0 O72 2.502219 1_545
La0 O76 2.523651 1_555
La0 O75 2.649215 1_445
La1 O7 2.164119 1_555
La1 O8 2.448270 1_545
La1 O79 2.474022 1_555
La1 O81 2.485538 1_545
La1 O10 2.489639 1_555
La1 O82 2.589562 1_545
La2 O85 2.169302 1_455
La2 O13 2.311394 1_445
La2 O14 2.348871 1_555
La2 O89 2.370997 1_445
La2 O86 2.393292 1_545
La2 O16 2.406462 1_545
La3 O23 2.143199 1_555
La3 O90 2.224602 1_555
La3 O18 2.338852 1_555
La3 O21 2.430222 1_565
La3 O95 2.435973 1_565
La3 O92 2.466890 1_565
La4 O38 2.178710 1_556
La4 O112 2.285968 1_555
La4 O40 2.340401 1_556
La4 O36 2.350321 1_556
La4 O108 2.394976 1_555
La4 O110 2.483778 1_555
La5 O39 2.099186 1_556
La5 O37 2.345594 1_556
La5 O111 2.381305 1_555
La5 O41 2.429868 1_556
La5 O109 2.480087 1_555
La5 O113 2.535046 1_555
La6 O46 2.115241 1_555
La6 O118 2.329675 1_555
La6 O42 2.370043 1_555
La6 O114 2.432557 1_555
La6 O44 2.486537 1_555
La6 O116 2.509906 1_555
La7 O47 2.208870 1_555
La7 O117 2.267082 1_555
La7 O45 2.355323 1_555
La7 O43 2.363440 1_555
La7 O115 2.365763 1_555
La7 O119 2.447418 1_555
La8 O132 2.134326 1_555
La8 O134 2.303504 1_555
La8 O60 2.387698 1_555
La8 O136 2.427795 1_555
La8 O62 2.431704 1_555
La8 O64 2.600470 1_555
La9 O133 2.191443 1_555
La9 O65 2.235414 1_555
La9 O137 2.356361 1_555
La9 O63 2.397380 1_555
La9 O135 2.407054 1_555
La9 O61 2.408205 1_555
La10 O68 2.114705 1_555
La10 O70 2.359054 1_555
La10 O140 2.366321 1_555
La10 O66 2.393671 1_555
La10 O142 2.403796 1_555
La10 O138 2.421738 1_555
La11 O139 2.140526 1_555
La11 O143 2.324547 1_555
La11 O67 2.358588 1_555
La11 O71 2.432503 1_555
La11 O141 2.441142 1_555
La11 O69 2.596150 1_555
O0 Si0 1.648680 1_555
O1 Si1 1.676665 1_555
O1 Sn0 1.980925 1_555
O2 S0 1.498860 1_555
O2 Sn0 2.375496 1_565
O3 S1 1.486318 1_555
O4 S3 1.518192 1_555
O4 Sn0 2.223273 1_555
O5 S2 1.487188 1_555
O6 S4 1.504811 1_555
O6 Sn1 2.278116 1_545
O7 Si2 1.646402 1_555
O8 S6 1.479571 1_555
O9 S5 1.515130 1_555
O9 Sn1 2.278810 1_655
O10 S7 1.480273 1_555
O11 S8 1.501585 1_555
O11 Sn1 2.383109 1_645
O12 S7 1.474655 1_555
O12 Sn2 2.139802 1_555
O13 S8 1.466028 1_565
O14 S4 1.464283 1_555
O15 Si2 1.612671 1_555
O15 Sn2 1.933819 1_555
O16 S5 1.463356 1_455
O17 S6 1.477717 1_555
O17 Sn2 2.191712 1_565
O18 S0 1.458728 1_555
O19 S1 1.481305 1_555
O19 Sn3 2.098363 1_655
O20 S2 1.480952 1_555
O20 Sn3 2.181522 1_645
O21 S3 1.454330 1_555
O22 Si0 1.609369 1_555
O22 Sn3 1.934416 1_545
O23 Si1 1.594381 1_565
O24 Si3 1.675679 1_555
O24 Sn4 1.958110 1_555
O25 Si4 1.703455 1_555
O25 Sn5 1.946162 1_555
O26 S9 1.508335 1_555
O26 Sn4 2.279085 1_555
O27 S10 1.508347 1_555
O27 Sn5 2.245892 1_555
O28 S11 1.525990 1_555
O28 Sn4 2.208112 1_555
O29 S12 1.509091 1_555
O29 Sn5 2.224638 1_555
O30 Si5 1.703139 1_555
O30 Sn6 1.936315 1_555
O31 Si6 1.663148 1_555
O31 Sn7 1.956428 1_555
O32 S13 1.502250 1_555
O32 Sn6 2.261273 1_555
O33 S14 1.497064 1_555
O33 Sn7 2.228639 1_555
O34 S15 1.496822 1_555
O34 Sn6 2.306650 1_555
O35 S16 1.490214 1_555
O35 Sn7 2.275816 1_555
O36 S15 1.465037 1_555
O37 S16 1.470127 1_555
O38 Si5 1.595716 1_555
O39 Si6 1.614172 1_555
O40 S13 1.462863 1_555
O41 S14 1.468390 1_555
O42 S9 1.461245 1_555
O43 S10 1.460004 1_555
O44 S11 1.459202 1_555
O45 S12 1.456219 1_555
O46 Si3 1.607930 1_555
O47 Si4 1.589430 1_555
O48 S17 1.506556 1_555
O48 Sn8 2.291410 1_556
O49 S18 1.505011 1_555
O49 Sn9 2.298453 1_556
O50 S19 1.486010 1_555
O50 Sn8 2.406227 1_556
O51 S20 1.500695 1_555
O51 Sn9 2.186163 1_556
O52 Si7 1.671453 1_555
O52 Sn8 1.986405 1_556
O53 S21 1.521565 1_555
O53 Sn9 2.112775 1_556
O54 S22 1.531282 1_555
O54 Sn10 2.288014 1_555
O55 S23 1.527501 1_555
O55 Sn11 2.182121 1_555
O56 S24 1.531209 1_555
O56 Sn10 2.098666 1_555
O57 Si8 1.677583 1_555
O57 Sn11 1.962824 1_555
O58 S25 1.512468 1_555
O58 Sn10 2.145982 1_555
O59 S26 1.504433 1_555
O59 Sn11 2.311310 1_555
O60 S25 1.469232 1_555
O61 S26 1.453518 1_555
O62 S22 1.466694 1_555
O63 S23 1.455590 1_555
O64 S24 1.456681 1_555
O65 Si8 1.608275 1_555
O66 S19 1.463194 1_555
O67 S20 1.478469 1_555
O68 Si7 1.610370 1_555
O69 S21 1.463331 1_555
O70 S17 1.473961 1_555
O71 S18 1.466617 1_555
O72 S25 1.489037 1_555
O73 S26 1.494537 1_555
O73 Sn0 2.183754 1_565
O74 S22 1.486102 1_555
O74 Sn0 2.315523 1_565
O75 S23 1.487718 1_555
O76 S24 1.494754 1_555
O77 Si8 1.665591 1_555
O77 Sn0 1.963783 1_555
O78 S19 1.509996 1_555
O78 Sn1 2.147977 1_545
O79 S20 1.492327 1_555
O80 Si7 1.673937 1_555
O80 Sn1 1.951954 1_555
O81 S21 1.497866 1_555
O82 S17 1.490959 1_555
O83 S18 1.509125 1_555
O83 Sn1 2.174319 1_655
O84 Si3 1.630334 1_555
O84 Sn2 1.941824 1_555
O85 Si4 1.632296 1_555
O86 S9 1.473294 1_565
O87 S10 1.499002 1_565
O87 Sn2 2.071229 1_565
O88 S11 1.481154 1_555
O88 Sn2 2.172496 1_565
O89 S12 1.483502 1_555
O90 Si5 1.615467 1_555
O91 Si6 1.627193 1_555
O91 Sn3 1.947826 1_655
O92 S13 1.465768 1_555
O93 S14 1.480242 1_555
O93 Sn3 2.174740 1_645
O94 S15 1.497309 1_555
O94 Sn3 2.090450 1_545
O95 S16 1.464291 1_555
O96 S7 1.517771 1_555
O96 Sn4 2.171050 1_555
O97 S8 1.498454 1_555
O97 Sn5 2.340021 1_555
O98 S4 1.525736 1_555
O98 Sn4 2.354069 1_555
O99 Si2 1.662207 1_555
O99 Sn5 1.945414 1_555
O100 S6 1.521587 1_555
O100 Sn4 2.148872 1_555
O101 S5 1.503512 1_555
O101 Sn5 2.316492 1_555
O102 S0 1.506498 1_555
O102 Sn6 2.337902 1_555
O103 S1 1.492472 1_555
O103 Sn7 2.163959 1_555
O104 S3 1.514623 1_555
O104 Sn6 2.277576 1_555
O105 S2 1.494352 1_555
O105 Sn7 2.149863 1_555
O106 Si0 1.662542 1_555
O106 Sn6 1.939405 1_555
O107 Si1 1.690901 1_555
O107 Sn7 1.982109 1_555
O108 S17 1.475430 1_555
O109 S18 1.481308 1_555
O110 S20 1.465294 1_555
O111 S19 1.484387 1_655
O112 Si7 1.616403 1_545
O113 S21 1.477298 1_545
O114 S22 1.492467 1_545
O115 S23 1.474236 1_545
O116 S24 1.476675 1_555
O117 Si8 1.634684 1_555
O118 S26 1.489594 1_555
O119 S25 1.464276 1_655
O120 S15 1.487952 1_555
O120 Sn8 2.330736 1_555
O121 S16 1.503568 1_555
O121 Sn9 2.102247 1_555
O122 Si6 1.659999 1_455
O122 Sn8 1.971324 1_555
O123 Si5 1.671599 1_555
O123 Sn9 1.950382 1_555
O124 S13 1.503414 1_565
O124 Sn8 2.141862 1_555
O125 S14 1.505808 1_565
O125 Sn9 2.177185 1_555
O126 S9 1.493067 1_565
O126 Sn10 2.161368 1_555
O127 S10 1.477145 1_565
O127 Sn11 2.382571 1_555
O128 S11 1.498625 1_555
O128 Sn10 2.233336 1_555
O129 S12 1.484956 1_555
O129 Sn11 2.229600 1_555
O130 Si4 1.671298 1_455
O130 Sn10 1.978731 1_555
O131 Si3 1.647758 1_555
O131 Sn11 1.973771 1_555
O132 Si0 1.611811 1_565
O133 Si1 1.598410 1_565
O134 S0 1.470029 1_555
O135 S1 1.453375 1_555
O136 S2 1.464090 1_455
O137 S3 1.456235 1_555
O138 S4 1.455270 1_555
O139 Si2 1.613499 1_555
O140 S5 1.462343 1_455
O141 S6 1.462163 1_555
O142 S7 1.460267 1_565
O143 S8 1.465088 1_565
