# generated using pymatgen
data_ZnSnF4
_symmetry_space_group_name_H-M   'P 1'
_cell_length_a   5.01651585
_cell_length_b   5.42485224
_cell_length_c   6.64096912
_cell_angle_alpha   107.42295925
_cell_angle_beta   109.66708616
_cell_angle_gamma   89.49237396
_symmetry_Int_Tables_number   1
_chemical_formula_structural   ZnSnF4
_chemical_formula_sum   'Zn2 Sn2 F8'
_cell_volume   161.52370022
_cell_formula_units_Z   2
loop_
 _symmetry_equiv_pos_site_id
 _symmetry_equiv_pos_as_xyz
  1  'x, y, z'
loop_
 _atom_site_type_symbol
 _atom_site_label
 _atom_site_symmetry_multiplicity
 _atom_site_fract_x
 _atom_site_fract_y
 _atom_site_fract_z
 _atom_site_occupancy
  Zn  Zn0  1  0.25161006  0.24822761  0.50177297  1
  Zn  Zn1  1  0.75142763  0.74814596  0.50185553  1
  Sn  Sn0  1  0.01393510  0.51578978  0.05458062  1
  Sn  Sn1  1  0.48965871  0.98328696  0.94934986  1
  F  F0  1  0.43320364  0.70692583  0.19158366  1
  F  F1  1  0.07006996  0.79264278  0.81309427  1
  F  F2  1  0.60734894  0.08283074  0.62478182  1
  F  F3  1  0.48771341  0.60019620  0.62535512  1
  F  F4  1  0.89629300  0.41439515  0.37965594  1
  F  F5  1  0.01628473  0.89740217  0.37954958  1
  F  F6  1  0.27342168  0.22362666  0.19279943  1
  F  F7  1  0.23068913  0.27607515  0.81162119  1
loop_
_geom_bond_atom_site_label_1
_geom_bond_atom_site_label_2
_geom_bond_distance
_geom_bond_site_symmetry_2
F0 Zn1 2.088162 1_555
F0 Sn0 2.124213 1_555
F0 Sn1 2.583432 1_554
F1 Zn1 2.090389 1_455
F1 Sn1 2.124856 1_555
F1 Sn0 2.580827 1_556
F2 Zn1 1.992886 1_545
F2 Zn0 2.021477 1_555
F2 Sn1 2.616369 1_545
F3 Zn0 2.041930 1_555
F3 Zn1 2.051904 1_555
F3 Sn1 2.501411 1_555
F4 Zn1 1.989609 1_555
F4 Zn0 2.020822 1_655
F4 Sn0 2.624069 1_655
F5 Zn0 2.035749 1_565
F5 Zn1 2.054254 1_455
F5 Sn0 2.500222 1_555
F6 Zn0 2.055939 1_555
F6 Sn0 2.253765 1_555
F6 Sn1 2.320250 1_544
F7 Zn0 2.055933 1_555
F7 Sn1 2.254045 1_545
F7 Sn0 2.318644 1_556
