# generated using pymatgen
data_TiO2
_symmetry_space_group_name_H-M   'P 1'
_cell_length_a   5.96681451
_cell_length_b   5.96681451
_cell_length_c   5.96681451
_cell_angle_alpha   60.00000000
_cell_angle_beta   60.00000000
_cell_angle_gamma   60.00000000
_symmetry_Int_Tables_number   1
_chemical_formula_structural   TiO2
_chemical_formula_sum   'Ti4 O8'
_cell_volume   150.21476165
_cell_formula_units_Z   4
loop_
 _symmetry_equiv_pos_site_id
 _symmetry_equiv_pos_as_xyz
  1  'x, y, z'
loop_
 _atom_site_type_symbol
 _atom_site_label
 _atom_site_symmetry_multiplicity
 _atom_site_fract_x
 _atom_site_fract_y
 _atom_site_fract_z
 _atom_site_occupancy
  Ti  Ti0  1  0.12500000  0.12500000  0.62500000  1
  Ti  Ti1  1  0.62500000  0.12500000  0.12500000  1
  Ti  Ti2  1  0.12500000  0.62500000  0.12500000  1
  Ti  Ti3  1  0.12500000  0.12500000  0.12500000  1
  O  O0  1  0.89079900  0.89079900  0.89079900  1
  O  O1  1  0.89079900  0.32760300  0.89079900  1
  O  O2  1  0.89079900  0.89079900  0.32760300  1
  O  O3  1  0.32760300  0.89079900  0.89079900  1
  O  O4  1  0.35920100  0.35920100  0.92239700  1
  O  O5  1  0.92239700  0.35920100  0.35920100  1
  O  O6  1  0.35920100  0.92239700  0.35920100  1
  O  O7  1  0.35920100  0.35920100  0.35920100  1
loop_
_geom_bond_atom_site_label_1
_geom_bond_atom_site_label_2
_geom_bond_distance
_geom_bond_site_symmetry_2
O0 Ti2 1.985243 1_656
O0 Ti1 1.985243 1_566
O0 Ti0 1.985243 1_665
O1 Ti1 1.985243 1_556
O1 Ti3 1.985243 1_656
O1 Ti0 1.985243 1_655
O2 Ti3 1.985243 1_665
O2 Ti1 1.985243 1_565
O2 Ti2 1.985243 1_655
O3 Ti0 1.985243 1_565
O3 Ti2 1.985243 1_556
O3 Ti3 1.985243 1_566
O4 Ti3 1.985243 1_556
O4 Ti1 1.985243 1_556
O4 Ti2 1.985243 1_556
O5 Ti2 1.985243 1_655
O5 Ti3 1.985243 1_655
O5 Ti0 1.985243 1_655
O6 Ti0 1.985243 1_565
O6 Ti1 1.985243 1_565
O6 Ti3 1.985243 1_565
O7 Ti2 1.985243 1_555
O7 Ti0 1.985243 1_555
O7 Ti1 1.985243 1_555
