# generated using pymatgen
data_CsICl2
_symmetry_space_group_name_H-M   'P 1'
_cell_length_a   5.54102751
_cell_length_b   5.54102716
_cell_length_c   5.54102769
_cell_angle_alpha   70.13946878
_cell_angle_beta   70.13948231
_cell_angle_gamma   70.13946549
_symmetry_Int_Tables_number   1
_chemical_formula_structural   CsICl2
_chemical_formula_sum   'Cs1 I1 Cl2'
_cell_volume   145.57159169
_cell_formula_units_Z   1
loop_
 _symmetry_equiv_pos_site_id
 _symmetry_equiv_pos_as_xyz
  1  'x, y, z'
loop_
 _atom_site_type_symbol
 _atom_site_label
 _atom_site_symmetry_multiplicity
 _atom_site_fract_x
 _atom_site_fract_y
 _atom_site_fract_z
 _atom_site_occupancy
  Cs  Cs0  1  -0.00000000  0.00000000  -0.00000000  1
  I  I0  1  0.50000000  0.50000000  0.50000000  1
  Cl  Cl0  1  0.70555472  0.70555472  0.70555472  1
  Cl  Cl1  1  0.29444528  0.29444528  0.29444528  1
loop_
_geom_bond_atom_site_label_1
_geom_bond_atom_site_label_2
_geom_bond_distance
_geom_bond_site_symmetry_2
Cl0 I0 2.556605 1_555
Cl0 Cs0 3.662189 1_666
Cl0 Cs0 3.707930 1_656
Cl0 Cs0 3.707930 1_566
Cl0 Cs0 3.707930 1_665
Cl1 I0 2.556605 1_555
Cl1 Cs0 3.662189 1_555
Cl1 Cs0 3.707930 1_565
Cl1 Cs0 3.707930 1_655
Cl1 Cs0 3.707930 1_556
