# generated using pymatgen
data_MgCu10(P3O13)2
_symmetry_space_group_name_H-M   'P 1'
_cell_length_a   6.24354786
_cell_length_b   8.20219099
_cell_length_c   10.36154081
_cell_angle_alpha   92.53898599
_cell_angle_beta   90.10087581
_cell_angle_gamma   89.72696519
_symmetry_Int_Tables_number   1
_chemical_formula_structural   MgCu10(P3O13)2
_chemical_formula_sum   'Mg1 Cu10 P6 O26'
_cell_volume   530.09494048
_cell_formula_units_Z   1
loop_
 _symmetry_equiv_pos_site_id
 _symmetry_equiv_pos_as_xyz
  1  'x, y, z'
loop_
 _atom_site_type_symbol
 _atom_site_label
 _atom_site_symmetry_multiplicity
 _atom_site_fract_x
 _atom_site_fract_y
 _atom_site_fract_z
 _atom_site_occupancy
  Mg  Mg0  1  0.73026700  0.67532200  0.05977600  1
  Cu  Cu0  1  0.49511000  0.14496200  0.77312900  1
  Cu  Cu1  1  0.75221200  0.21750700  0.46688000  1
  Cu  Cu2  1  0.25331600  0.77670800  0.54648900  1
  Cu  Cu3  1  0.47718500  0.88346400  0.25274300  1
  Cu  Cu4  1  0.01301200  0.88185400  0.24723200  1
  Cu  Cu5  1  0.23715700  0.84761500  0.94488200  1
  Cu  Cu6  1  0.75643400  0.43127500  0.82426000  1
  Cu  Cu7  1  0.24483000  0.56162600  0.15336100  1
  Cu  Cu8  1  0.01274800  0.14456600  0.77786200  1
  Cu  Cu9  1  0.72832400  0.14549700  0.05674200  1
  P  P0  1  0.25279700  0.14011600  0.50952500  1
  P  P1  1  0.75230600  0.85669600  0.49410100  1
  P  P2  1  0.74722900  0.47688200  0.23180600  1
  P  P3  1  0.24788600  0.15780600  0.11001800  1
  P  P4  1  0.75338600  0.85442700  0.85896100  1
  P  P5  1  0.25451000  0.50844200  0.78950800  1
  O  O0  1  0.25470200  0.96752800  0.43629400  1
  O  O1  1  0.74827100  0.90050300  0.34302800  1
  O  O2  1  0.93615300  0.60483500  0.20298400  1
  O  O3  1  0.54804100  0.91245500  0.79309100  1
  O  O4  1  0.74587100  0.37163900  0.10425900  1
  O  O5  1  0.04535700  0.10213500  0.18376600  1
  O  O6  1  0.95140900  0.75398200  0.51811800  1
  O  O7  1  0.96916900  0.90639500  0.80211900  1
  O  O8  1  0.25955500  0.61648500  0.91800000  1
  O  O9  1  0.24618800  0.07874500  0.96915200  1
  O  O10  1  0.74912900  0.66501700  0.87012600  1
  O  O11  1  0.45426900  0.38728200  0.79242600  1
  O  O12  1  0.25272300  0.60619100  0.67093800  1
  O  O13  1  0.24797100  0.79670700  0.14974900  1
  O  O14  1  0.55087800  0.60195000  0.20929500  1
  O  O15  1  0.44912800  0.24167800  0.47864200  1
  O  O16  1  0.75342700  0.02757400  0.56767800  1
  O  O17  1  0.46152500  0.10171600  0.17802700  1
  O  O18  1  0.25284000  0.10269700  0.66053600  1
  O  O19  1  0.75364300  0.40606700  0.36060600  1
  O  O20  1  0.55610100  0.75356800  0.52094100  1
  O  O21  1  0.05465600  0.24113700  0.47899400  1
  O  O22  1  0.74504500  0.90757500  0.00950700  1
  O  O23  1  0.75013100  0.19841500  0.86597900  1
  O  O24  1  0.05704300  0.38924400  0.79492500  1
  O  O25  1  0.24806500  0.34121500  0.09854700  1
loop_
_geom_bond_atom_site_label_1
_geom_bond_atom_site_label_2
_geom_bond_distance
_geom_bond_site_symmetry_2
Mg0 O10 1.966851 1_554
Mg0 O22 1.999632 1_555
Mg0 O14 2.027791 1_555
Mg0 O2 2.061721 1_555
Cu0 O23 1.901816 1_555
Cu0 O18 1.931891 1_555
Cu0 O3 1.953868 1_545
Cu0 O11 2.003875 1_555
Cu1 O21 1.902521 1_655
Cu1 O15 1.905289 1_555
Cu1 O16 1.913594 1_555
Cu1 O19 1.937958 1_555
Cu2 O6 1.915939 1_455
Cu2 O20 1.916716 1_555
Cu2 O12 1.943901 1_555
Cu2 O0 1.977858 1_555
Cu3 O13 1.905349 1_555
Cu3 O1 1.935060 1_555
Cu3 O17 1.983525 1_565
Cu3 O14 2.375816 1_555
Cu3 O0 2.430243 1_555
Cu4 O13 1.895515 1_555
Cu4 O1 1.931505 1_455
Cu4 O5 1.961357 1_565
Cu4 O2 2.349580 1_455
Cu4 O0 2.546804 1_555
Cu5 O9 1.902394 1_565
Cu5 O8 1.908381 1_555
Cu5 O13 2.182358 1_556
Cu5 O7 2.294989 1_455
Cu5 O3 2.572695 1_555
Cu6 O24 1.928841 1_655
Cu6 O11 1.947292 1_555
Cu6 O10 1.955018 1_555
Cu6 O23 1.977445 1_555
Cu7 O25 1.870839 1_555
Cu7 O13 1.930393 1_555
Cu7 O14 2.020317 1_555
Cu7 O2 2.021154 1_455
Cu7 O8 2.501319 1_554
Cu8 O23 1.918289 1_455
Cu8 O18 1.951258 1_555
Cu8 O7 2.000567 1_445
Cu8 O24 2.027080 1_555
Cu8 O9 2.534058 1_555
Cu9 O4 1.901513 1_555
Cu9 O22 1.993072 1_545
Cu9 O23 2.047290 1_554
Cu9 O17 2.129812 1_555
Cu9 O5 2.408826 1_655
O0 P0 1.576238 1_565
O1 P1 1.621624 1_555
O2 P2 1.619502 1_555
O3 P4 1.534919 1_555
O4 P2 1.546210 1_555
O5 P3 1.559230 1_555
O6 P1 1.524639 1_555
O7 P4 1.540835 1_555
O8 P5 1.566674 1_555
O9 P3 1.570727 1_556
O10 P4 1.563336 1_555
O11 P5 1.592088 1_555
O12 P5 1.496480 1_555
O14 P2 1.617974 1_555
O15 P0 1.527632 1_555
O16 P1 1.565591 1_545
O17 P3 1.583347 1_555
O18 P0 1.607809 1_555
O19 P2 1.479295 1_555
O20 P1 1.524935 1_555
O21 P0 1.526153 1_555
O22 P4 1.601818 1_554
O24 P5 1.579760 1_555
O25 P3 1.514289 1_555
