# generated using pymatgen
data_In2(PS3)3
_symmetry_space_group_name_H-M   'P 1'
_cell_length_a   10.60483225
_cell_length_b   7.07246782
_cell_length_c   18.36895555
_cell_angle_alpha   73.24912567
_cell_angle_beta   90.00000000
_cell_angle_gamma   90.00000000
_symmetry_Int_Tables_number   1
_chemical_formula_structural   In2(PS3)3
_chemical_formula_sum   'In8 P12 S36'
_cell_volume   1319.25394130
_cell_formula_units_Z   4
loop_
 _symmetry_equiv_pos_site_id
 _symmetry_equiv_pos_as_xyz
  1  'x, y, z'
loop_
 _atom_site_type_symbol
 _atom_site_label
 _atom_site_symmetry_multiplicity
 _atom_site_fract_x
 _atom_site_fract_y
 _atom_site_fract_z
 _atom_site_occupancy
  In  In0  1  0.85111236  -0.00045439  0.82418854  1
  In  In1  1  0.35111236  0.00045439  0.67581146  1
  In  In2  1  0.14888764  0.00045439  0.17581146  1
  In  In3  1  0.64888764  -0.00045439  0.32418854  1
  In  In4  1  0.82096468  0.99759171  0.51081218  1
  In  In5  1  0.32096468  0.00240829  0.98918782  1
  In  In6  1  0.17903532  0.00240829  0.48918782  1
  In  In7  1  0.67903532  0.99759171  0.01081218  1
  P  P0  1  0.99620265  0.83567104  0.01512691  1
  P  P1  1  0.50886429  0.83651266  0.85279718  1
  P  P2  1  0.00886429  0.16348734  0.64720282  1
  P  P3  1  0.49113571  0.16348734  0.14720282  1
  P  P4  1  0.99113571  0.83651266  0.35279718  1
  P  P5  1  0.01352643  0.83524945  0.68496306  1
  P  P6  1  0.51352643  0.16475055  0.81503694  1
  P  P7  1  0.98647357  0.16475055  0.31503694  1
  P  P8  1  0.48647357  0.83524945  0.18496306  1
  P  P9  1  0.49620265  0.16432896  0.48487309  1
  P  P10  1  0.00379735  0.16432896  0.98487309  1
  P  P11  1  0.50379735  0.83567104  0.51512691  1
  S  S0  1  0.67315668  0.76280797  0.91408700  1
  S  S1  1  0.65640459  0.24249660  0.42022906  1
  S  S2  1  0.15640459  0.75750340  0.07977094  1
  S  S3  1  0.34359541  0.75750340  0.57977094  1
  S  S4  1  0.84359541  0.24249660  0.92022906  1
  S  S5  1  0.82684332  0.76280797  0.41408700  1
  S  S6  1  0.32684332  0.23719203  0.08591300  1
  S  S7  1  0.17315668  0.23719203  0.58591300  1
  S  S8  1  0.49139328  0.76021084  0.41842078  1
  S  S9  1  0.99139328  0.23978916  0.08157922  1
  S  S10  1  0.50860672  0.23978916  0.58157922  1
  S  S11  1  0.00860672  0.76021084  0.91842078  1
  S  S12  1  0.84536476  0.74875810  0.08310843  1
  S  S13  1  0.34536476  0.25124190  0.41689157  1
  S  S14  1  0.15463524  0.25124190  0.91689157  1
  S  S15  1  0.65463524  0.74875810  0.58310843  1
  S  S16  1  0.64954627  0.25017797  0.08666988  1
  S  S17  1  0.14954627  0.74982203  0.41333012  1
  S  S18  1  0.35045373  0.74982203  0.91333012  1
  S  S19  1  0.85045373  0.25017797  0.58666988  1
  S  S20  1  0.98371707  0.75267732  0.25762510  1
  S  S21  1  0.48371707  0.24732268  0.24237490  1
  S  S22  1  0.01628293  0.24732268  0.74237490  1
  S  S23  1  0.51628293  0.75267732  0.75762510  1
  S  S24  1  0.82640836  0.24937637  0.25711098  1
  S  S25  1  0.32640836  0.75062363  0.24288902  1
  S  S26  1  0.17359164  0.75062363  0.74288902  1
  S  S27  1  0.67359164  0.24937637  0.75711098  1
  S  S28  1  0.64521332  0.74773432  0.24424002  1
  S  S29  1  0.14521332  0.25226568  0.25575998  1
  S  S30  1  0.35478668  0.25226568  0.75575998  1
  S  S31  1  0.85478668  0.74773432  0.74424002  1
  S  S32  1  0.49462915  0.76246371  0.08365323  1
  S  S33  1  0.99462915  0.23753629  0.41634677  1
  S  S34  1  0.50537085  0.23753629  0.91634677  1
  S  S35  1  0.00537085  0.76246371  0.58365323  1
loop_
_geom_bond_atom_site_label_1
_geom_bond_atom_site_label_2
_geom_bond_distance
_geom_bond_site_symmetry_2
In0 S31 2.614862 1_545
In0 S22 2.622876 1_655
In0 S27 2.632367 1_555
In0 S11 2.638571 1_645
In0 S0 2.738252 1_545
In0 S4 2.796134 1_555
In1 S30 2.614862 1_555
In1 S23 2.622876 1_545
In1 S26 2.632367 1_545
In1 S10 2.638571 1_555
In1 S7 2.738252 1_555
In1 S3 2.796134 1_545
In2 S29 2.614862 1_555
In2 S20 2.622876 1_445
In2 S25 2.632367 1_545
In2 S9 2.638571 1_455
In2 S6 2.738252 1_555
In2 S2 2.796134 1_545
In3 S28 2.614862 1_545
In3 S21 2.622876 1_555
In3 S24 2.632367 1_555
In3 S8 2.638571 1_545
In3 S5 2.738252 1_545
In3 S1 2.796134 1_555
In4 S15 2.573888 1_555
In4 S19 2.581770 1_565
In4 S35 2.664101 1_655
In4 S1 2.674499 1_565
In4 S33 2.754133 1_565
In4 S5 2.760174 1_555
In5 S14 2.573888 1_555
In5 S18 2.581770 1_545
In5 S34 2.664101 1_555
In5 S2 2.674499 1_546
In5 S32 2.754133 1_546
In5 S6 2.760174 1_556
In6 S13 2.573888 1_555
In6 S17 2.581770 1_545
In6 S33 2.664101 1_455
In6 S3 2.674499 1_545
In6 S35 2.754133 1_545
In6 S7 2.760174 1_555
In7 S12 2.573888 1_555
In7 S16 2.581770 1_565
In7 S32 2.664101 1_555
In7 S4 2.674499 1_564
In7 S34 2.754133 1_564
In7 S0 2.760174 1_554
P0 S11 2.001041 1_654
P0 S12 2.013334 1_555
P0 S2 2.055131 1_655
P0 P10 2.230172 1_664
P1 S23 2.002869 1_555
P1 S18 2.010335 1_555
P1 S0 2.058282 1_555
P1 P6 2.223631 1_565
P2 S22 2.002869 1_555
P2 S19 2.010335 1_455
P2 S7 2.058282 1_555
P2 P5 2.223631 1_545
P3 S21 2.002869 1_555
P3 S16 2.010335 1_555
P3 S6 2.058282 1_555
P3 P8 2.223631 1_545
P4 S20 2.002869 1_555
P4 S17 2.010335 1_655
P4 S5 2.058282 1_555
P4 P7 2.223631 1_565
P5 S26 2.001173 1_555
P5 S31 2.003520 1_455
P5 S35 2.070707 1_555
P6 S27 2.001173 1_555
P6 S30 2.003520 1_555
P6 S34 2.070707 1_555
P7 S24 2.001173 1_555
P7 S29 2.003520 1_655
P7 S33 2.070707 1_555
P8 S25 2.001173 1_555
P8 S28 2.003520 1_555
P8 S32 2.070707 1_555
P9 S10 2.001041 1_555
P9 S13 2.013334 1_555
P9 S1 2.055131 1_555
P10 S9 2.001041 1_456
P10 S14 2.013334 1_555
P10 S4 2.055131 1_455
P11 S8 2.001041 1_555
P11 S15 2.013334 1_555
P11 S3 2.055131 1_555
P11 P9 2.230172 1_565
