# generated using pymatgen
data_NaLa2Zr2P3(SO8)3
_symmetry_space_group_name_H-M   'P 1'
_cell_length_a   9.24965849
_cell_length_b   9.25606567
_cell_length_c   24.17671420
_cell_angle_alpha   90.18013005
_cell_angle_beta   90.02348311
_cell_angle_gamma   120.07456912
_symmetry_Int_Tables_number   1
_chemical_formula_structural   NaLa2Zr2P3(SO8)3
_chemical_formula_sum   'Na3 La6 Zr6 P9 S9 O72'
_cell_volume   1791.22409200
_cell_formula_units_Z   3
loop_
 _symmetry_equiv_pos_site_id
 _symmetry_equiv_pos_as_xyz
  1  'x, y, z'
loop_
 _atom_site_type_symbol
 _atom_site_label
 _atom_site_symmetry_multiplicity
 _atom_site_fract_x
 _atom_site_fract_y
 _atom_site_fract_z
 _atom_site_occupancy
  Na  Na0  1  0.68117266  0.33557860  0.83457264  1
  Na  Na1  1  0.66218154  0.34202560  0.33036302  1
  Na  Na2  1  0.34712689  0.67712154  0.16777138  1
  La  La0  1  0.67377907  0.33401489  0.68715718  1
  La  La1  1  0.65208137  0.32759596  0.18493661  1
  La  La2  1  0.66576756  0.32345710  0.98729974  1
  La  La3  1  0.66458568  0.33729925  0.48247305  1
  La  La4  1  0.33589549  0.66732206  0.30983153  1
  La  La5  1  0.32710573  0.66793502  0.80591184  1
  Zr  Zr0  1  0.00855944  0.99234691  0.35540848  1
  Zr  Zr1  1  0.99249942  0.00119087  0.85672798  1
  Zr  Zr2  1  0.99367762  0.99173726  0.64919489  1
  Zr  Zr3  1  0.99782699  0.99853766  0.14602399  1
  Zr  Zr4  1  0.33188210  0.65584842  0.01830214  1
  Zr  Zr5  1  0.32367348  0.65831488  0.51306786  1
  P  P0  1  0.27833643  0.00038260  0.24944520  1
  P  P1  1  0.72563921  0.72227337  0.25017003  1
  P  P2  1  0.99315714  0.72302784  0.75185305  1
  P  P3  1  0.72599806  0.00421216  0.75112241  1
  P  P4  1  0.66255633  0.02091964  0.08409266  1
  P  P5  1  0.35763352  0.33275202  0.08345180  1
  P  P6  1  0.04525154  0.37329023  0.91531986  1
  P  P7  1  0.32329246  0.36898627  0.41535223  1
  P  P8  1  0.04446436  0.67176736  0.41574776  1
  S  S0  1  0.99669939  0.27506185  0.25024327  1
  S  S1  1  0.27739046  0.27197423  0.75057299  1
  S  S2  1  0.97681257  0.33321072  0.58314067  1
  S  S3  1  0.35795761  0.02282477  0.58355549  1
  S  S4  1  0.66281296  0.64119475  0.58362760  1
  S  S5  1  0.97767850  0.64132058  0.08371668  1
  S  S6  1  0.62792378  0.67203125  0.91603524  1
  S  S7  1  0.32410406  0.95500677  0.91615336  1
  S  S8  1  0.63113075  0.95490763  0.41737902  1
  O  O0  1  0.18704086  0.01066827  0.30314018  1
  O  O1  1  0.82619261  0.81794112  0.30338009  1
  O  O2  1  0.98804933  0.18080011  0.30090842  1
  O  O3  1  0.19374884  0.17382551  0.80093364  1
  O  O4  1  0.98218215  0.81700198  0.80351324  1
  O  O5  1  0.83341707  0.02144772  0.80336529  1
  O  O6  1  0.82013680  0.99683139  0.69816879  1
  O  O7  1  0.18090692  0.18664219  0.69941357  1
  O  O8  1  0.00372898  0.82399839  0.69819024  1
  O  O9  1  0.81877662  0.82443406  0.19799077  1
  O  O10  1  0.00699390  0.18978963  0.19934117  1
  O  O11  1  0.17682630  0.99501330  0.19782466  1
  O  O12  1  0.90495948  0.37168931  0.63179332  1
  O  O13  1  0.46801245  0.09825293  0.63223398  1
  O  O14  1  0.62872146  0.53269320  0.63215445  1
  O  O15  1  0.90655238  0.53307703  0.13222210  1
  O  O16  1  0.62231808  0.09595713  0.13442243  1
  O  O17  1  0.47332228  0.37945557  0.13392875  1
  O  O18  1  0.43276257  0.29969060  0.03213615  1
  O  O19  1  0.87328138  0.57094000  0.03420151  1
  O  O20  1  0.70159055  0.13160224  0.03289700  1
  O  O21  1  0.42917183  0.13242713  0.53516799  1
  O  O22  1  0.70399213  0.57198038  0.53520181  1
  O  O23  1  0.86717293  0.29498063  0.53479163  1
  O  O24  1  0.54496554  0.69418866  0.96618752  1
  O  O25  1  0.15774035  0.46569485  0.96735445  1
  O  O26  1  0.30534085  0.85236160  0.96594932  1
  O  O27  1  0.54150876  0.84805724  0.46697853  1
  O  O28  1  0.30677693  0.46610188  0.46783122  1
  O  O29  1  0.15779948  0.69140405  0.46820753  1
  O  O30  1  0.12195129  0.64323619  0.36490488  1
  O  O31  1  0.52900888  0.88500338  0.36766612  1
  O  O32  1  0.35784568  0.47857269  0.36505758  1
  O  O33  1  0.12621906  0.47892474  0.86419408  1
  O  O34  1  0.35352239  0.88146607  0.86657488  1
  O  O35  1  0.52741035  0.64713749  0.86655591  1
  O  O36  1  0.03282450  0.83289849  0.40925832  1
  O  O37  1  0.79569443  0.96679774  0.41101925  1
  O  O38  1  0.16200038  0.19801799  0.40758184  1
  O  O39  1  0.03311984  0.19901833  0.90641779  1
  O  O40  1  0.17024248  0.96741631  0.90829877  1
  O  O41  1  0.79533598  0.82785472  0.90960744  1
  O  O42  1  0.99895932  0.18831293  0.59562738  1
  O  O43  1  0.19072610  0.00359472  0.59590153  1
  O  O44  1  0.81196765  0.80940473  0.59543934  1
  O  O45  1  0.99868132  0.80864146  0.09430819  1
  O  O46  1  0.81463228  -0.00073054  0.09743137  1
  O  O47  1  0.18422279  0.18253089  0.09713500  1
  O  O48  1  0.71010285  0.16270486  0.74845654  1
  O  O49  1  0.44506501  0.28783222  0.74762337  1
  O  O50  1  0.83372687  0.54893208  0.74875367  1
  O  O51  1  0.71170791  0.54913603  0.24959753  1
  O  O52  1  0.84650275  0.29269716  0.24839803  1
  O  O53  1  0.45272740  0.15890141  0.25056736  1
  O  O54  1  0.65416969  0.52869696  0.92299161  1
  O  O55  1  0.86808578  0.34627123  0.92247557  1
  O  O56  1  0.46926803  0.12625157  0.92180985  1
  O  O57  1  0.65405504  0.12376638  0.42553564  1
  O  O58  1  0.47330904  0.34297936  0.42504237  1
  O  O59  1  0.86875762  0.52159280  0.42480541  1
  O  O60  1  0.33641692  0.49004324  0.07115566  1
  O  O61  1  0.14806473  0.66224733  0.07295864  1
  O  O62  1  0.50633639  0.84459133  0.07011206  1
  O  O63  1  0.33963845  0.85664551  0.57102263  1
  O  O64  1  0.51688650  0.66162412  0.57099391  1
  O  O65  1  0.14378797  0.48318568  0.57105997  1
  O  O66  1  0.29195650  0.84195035  0.24925353  1
  O  O67  1  0.55181481  0.70656196  0.24963647  1
  O  O68  1  0.14880018  0.44217045  0.25009752  1
  O  O69  1  0.29261902  0.43622023  0.75227684  1
  O  O70  1  0.14965164  0.70960395  0.75233583  1
  O  O71  1  0.55820724  0.84621033  0.75354197  1
loop_
_geom_bond_atom_site_label_1
_geom_bond_atom_site_label_2
_geom_bond_distance
_geom_bond_site_symmetry_2
Na0 O55 2.709150 1_555
Na0 O48 2.715774 1_555
Na0 O50 2.726018 1_555
Na0 O54 2.872483 1_555
Na0 O56 2.875248 1_555
Na0 O49 2.899462 1_555
Na1 O51 2.615677 1_555
Na1 O53 2.652055 1_555
Na1 O52 2.796314 1_555
Na1 O58 2.882777 1_555
Na1 O59 2.901134 1_555
Na1 O57 3.042785 1_555
Na2 O67 2.655675 1_555
Na2 O66 2.689069 1_555
Na2 O62 2.807877 1_555
Na2 O68 2.843946 1_555
Na2 O60 2.875228 1_555
Na2 O61 2.898987 1_555
La0 O48 2.317733 1_555
La0 O50 2.322424 1_555
La0 O12 2.396592 1_555
La0 O49 2.428037 1_555
La0 O13 2.442285 1_555
La0 O14 2.471223 1_555
La1 O17 2.298404 1_555
La1 O53 2.342706 1_555
La1 O16 2.357109 1_555
La1 O51 2.408029 1_555
La1 O52 2.505086 1_555
La1 O15 2.512520 1_555
La2 O20 2.253965 1_556
La2 O18 2.323066 1_556
La2 O55 2.368814 1_555
La2 O19 2.406762 1_556
La2 O56 2.407624 1_555
La2 O54 2.502076 1_555
La3 O58 2.269923 1_555
La3 O59 2.282227 1_555
La3 O57 2.366577 1_555
La3 O22 2.380169 1_555
La3 O21 2.416503 1_555
La3 O23 2.449810 1_555
La4 O32 2.290452 1_555
La4 O30 2.302285 1_555
La4 O67 2.348889 1_555
La4 O31 2.361893 1_555
La4 O66 2.365507 1_555
La4 O68 2.405825 1_555
La5 O70 2.270813 1_555
La5 O33 2.293120 1_555
La5 O71 2.318505 1_555
La5 O34 2.369505 1_555
La5 O69 2.383219 1_555
La5 O35 2.444671 1_555
O0 P0 1.577372 1_555
O0 Zr0 2.018302 1_545
O1 P1 1.571790 1_555
O1 Zr0 2.071216 1_655
O2 S0 1.484891 1_555
O2 Zr0 2.271731 1_645
O3 S1 1.486473 1_555
O3 Zr1 2.207369 1_455
O4 P2 1.551973 1_555
O4 Zr1 2.096174 1_565
O5 P3 1.564235 1_555
O5 Zr1 2.035012 1_555
O6 P3 1.569040 1_565
O6 Zr2 2.014412 1_555
O7 S1 1.495531 1_555
O7 Zr2 2.140338 1_445
O8 P2 1.575555 1_455
O8 Zr2 1.994621 1_455
O9 P1 1.555539 1_555
O9 Zr3 2.063453 1_555
O10 S0 1.488570 1_455
O10 Zr3 2.153526 1_445
O11 P0 1.547091 1_565
O11 Zr3 2.088892 1_455
O12 S2 1.478988 1_555
O13 S3 1.479965 1_555
O14 S4 1.474721 1_555
O15 S5 1.469442 1_555
O16 P4 1.534828 1_555
O17 P5 1.534024 1_555
O18 P5 1.525520 1_555
O19 S5 1.467512 1_555
O20 P4 1.532824 1_555
O21 S3 1.473081 1_555
O22 S4 1.471887 1_555
O23 S2 1.468608 1_555
O24 S6 1.502661 1_555
O24 Zr4 2.214024 1_556
O25 P6 1.580191 1_555
O25 Zr4 2.086359 1_556
O26 S7 1.491400 1_555
O26 Zr4 2.330799 1_556
O27 S8 1.513232 1_555
O27 Zr5 2.203045 1_555
O28 P7 1.603673 1_555
O28 Zr5 2.023565 1_555
O29 P8 1.595958 1_555
O29 Zr5 2.023811 1_555
O30 P8 1.510891 1_555
O31 S8 1.461875 1_555
O32 P7 1.514181 1_555
O33 P6 1.522882 1_555
O34 S7 1.467965 1_555
O35 S6 1.459836 1_555
O36 P8 1.556598 1_555
O36 Zr0 2.065760 1_555
O37 S8 1.478214 1_555
O37 Zr0 2.297334 1_655
O38 P7 1.548224 1_555
O38 Zr0 2.122494 1_545
O39 P6 1.573942 1_555
O39 Zr1 2.057566 1_455
O40 S7 1.496133 1_555
O40 Zr1 2.207059 1_465
O41 S6 1.505134 1_555
O41 Zr1 2.148649 1_565
O42 S2 1.486515 1_555
O42 Zr2 2.217218 1_545
O43 S3 1.496074 1_555
O43 Zr2 2.190086 1_445
O44 S4 1.501023 1_555
O44 Zr2 2.122192 1_555
O45 S5 1.482499 1_555
O45 Zr3 2.157069 1_555
O46 P4 1.550928 1_555
O46 Zr3 2.064325 1_545
O47 P5 1.543896 1_555
O47 Zr3 2.083614 1_445
O48 P3 1.547474 1_555
O49 S1 1.484593 1_555
O50 P2 1.547407 1_555
O51 P1 1.542049 1_555
O52 S0 1.478506 1_555
O53 P0 1.543745 1_555
O54 S6 1.473621 1_555
O55 P6 1.538714 1_655
O56 S7 1.483037 1_545
O57 S8 1.480738 1_545
O58 P7 1.540499 1_555
O59 P8 1.536065 1_655
O60 P5 1.592344 1_555
O60 Zr4 2.016610 1_555
O61 S5 1.511186 1_455
O61 Zr4 2.177790 1_555
O62 P4 1.580646 1_565
O62 Zr4 2.093817 1_555
O63 S3 1.490732 1_565
O63 Zr5 2.251005 1_555
O64 S4 1.485519 1_555
O64 Zr5 2.258089 1_555
O65 S2 1.500604 1_455
O65 Zr5 2.162150 1_555
O66 P0 1.533465 1_565
O67 P1 1.540135 1_555
O68 S0 1.480146 1_455
O69 S1 1.455245 1_555
O70 P2 1.513654 1_455
O71 P3 1.508877 1_565
