# generated using pymatgen
data_Sr2Mg(TiS3)2
_symmetry_space_group_name_H-M   'P 1'
_cell_length_a   6.08665645
_cell_length_b   7.66765565
_cell_length_c   7.66765565
_cell_angle_alpha   126.54798872
_cell_angle_beta   90.00000000
_cell_angle_gamma   90.00000000
_symmetry_Int_Tables_number   1
_chemical_formula_structural   Sr2Mg(TiS3)2
_chemical_formula_sum   'Sr2 Mg1 Ti2 S6'
_cell_volume   287.48376159
_cell_formula_units_Z   1
loop_
 _symmetry_equiv_pos_site_id
 _symmetry_equiv_pos_as_xyz
  1  'x, y, z'
loop_
 _atom_site_type_symbol
 _atom_site_label
 _atom_site_symmetry_multiplicity
 _atom_site_fract_x
 _atom_site_fract_y
 _atom_site_fract_z
 _atom_site_occupancy
  Sr  Sr0  1  0.25000000  0.67187558  0.32812442  1
  Sr  Sr1  1  0.75000000  0.34563433  0.65436567  1
  Mg  Mg0  1  0.25000000  0.10419768  0.89580232  1
  Ti  Ti0  1  0.52056099  0.92966912  0.07033088  1
  Ti  Ti1  1  0.97943901  0.92966912  0.07033088  1
  S  S0  1  0.75000000  0.79106911  0.75976611  1
  S  S1  1  0.75000000  0.78166567  0.21833433  1
  S  S2  1  0.75000000  0.24023389  0.20893089  1
  S  S3  1  0.25000000  0.21741315  0.26622246  1
  S  S4  1  0.25000000  0.26812781  0.73187219  1
  S  S5  1  0.25000000  0.73377754  0.78258685  1
loop_
_geom_bond_atom_site_label_1
_geom_bond_atom_site_label_2
_geom_bond_distance
_geom_bond_site_symmetry_2
Mg0 S4 2.245351 1_555
Mg0 S5 2.425718 1_545
Mg0 S3 2.425718 1_556
S0 Ti0 2.395043 1_556
S0 Ti1 2.395043 1_556
S0 Sr1 3.005149 1_555
S1 Ti0 2.461668 1_555
S1 Ti1 2.461668 1_555
S1 Sr0 3.394591 1_555
S1 Sr0 3.394591 1_655
S1 Sr1 3.557904 1_565
S1 Sr1 3.557904 1_554
S2 Ti1 2.395043 1_545
S2 Ti0 2.395043 1_545
S2 Sr1 3.005149 1_555
S3 Ti0 2.426734 1_545
S3 Ti1 2.426734 1_445
S3 Sr0 3.224637 1_555
S4 Sr1 3.223175 1_555
S4 Sr1 3.223175 1_455
S5 Ti0 2.426734 1_556
S5 Ti1 2.426734 1_456
S5 Sr0 3.224637 1_555
