# generated using pymatgen
data_K2ReF8
_symmetry_space_group_name_H-M   'P 1'
_cell_length_a   5.84411994
_cell_length_b   8.58699071
_cell_length_c   12.40501980
_cell_angle_alpha   90.00000000
_cell_angle_beta   90.00000000
_cell_angle_gamma   90.00000000
_symmetry_Int_Tables_number   1
_chemical_formula_structural   K2ReF8
_chemical_formula_sum   'K8 Re4 F32'
_cell_volume   622.52611570
_cell_formula_units_Z   4
loop_
 _symmetry_equiv_pos_site_id
 _symmetry_equiv_pos_as_xyz
  1  'x, y, z'
loop_
 _atom_site_type_symbol
 _atom_site_label
 _atom_site_symmetry_multiplicity
 _atom_site_fract_x
 _atom_site_fract_y
 _atom_site_fract_z
 _atom_site_occupancy
  K  K0  1  0.25000000  0.05137844  0.21115557  1
  K  K1  1  0.75000000  0.94862156  0.78884443  1
  K  K2  1  0.25000000  0.55137844  0.28884443  1
  K  K3  1  0.75000000  0.44862156  0.71115557  1
  K  K4  1  0.25000000  0.17016038  0.55986825  1
  K  K5  1  0.75000000  0.82983962  0.44013175  1
  K  K6  1  0.25000000  0.67016038  0.94013175  1
  K  K7  1  0.75000000  0.32983962  0.05986825  1
  Re  Re0  1  0.25000000  0.21478986  0.87800056  1
  Re  Re1  1  0.75000000  0.78521014  0.12199944  1
  Re  Re2  1  0.25000000  0.71478986  0.62199944  1
  Re  Re3  1  0.75000000  0.28521014  0.37800056  1
  F  F0  1  0.25000000  0.76670196  0.46756356  1
  F  F1  1  0.75000000  0.23329804  0.53243644  1
  F  F2  1  0.25000000  0.26670196  0.03243644  1
  F  F3  1  0.75000000  0.73329804  0.96756356  1
  F  F4  1  0.25000000  -0.00485914  0.83865612  1
  F  F5  1  0.75000000  0.00485914  0.16134388  1
  F  F6  1  0.25000000  0.49514086  0.66134388  1
  F  F7  1  0.75000000  0.50485914  0.33865612  1
  F  F8  1  0.02823879  0.87100078  0.06387205  1
  F  F9  1  0.52823879  0.12899922  0.93612795  1
  F  F10  1  0.47176121  0.37100078  0.43612795  1
  F  F11  1  0.97176121  0.62899922  0.56387205  1
  F  F12  1  0.54726050  0.10271715  0.38738010  1
  F  F13  1  0.04726050  0.89728285  0.61261990  1
  F  F14  1  0.95273950  0.60271715  0.11261990  1
  F  F15  1  0.45273950  0.39728285  0.88738010  1
  F  F16  1  0.45273950  0.89728285  0.61261990  1
  F  F17  1  0.95273950  0.10271715  0.38738010  1
  F  F18  1  0.04726050  0.39728285  0.88738010  1
  F  F19  1  0.54726050  0.60271715  0.11261990  1
  F  F20  1  0.54682101  0.29369358  0.25168674  1
  F  F21  1  0.04682101  0.70630642  0.74831326  1
  F  F22  1  0.95317899  0.79369358  0.24831326  1
  F  F23  1  0.45317899  0.20630642  0.75168674  1
  F  F24  1  0.45317899  0.70630642  0.74831326  1
  F  F25  1  0.95317899  0.29369358  0.25168674  1
  F  F26  1  0.04682101  0.20630642  0.75168674  1
  F  F27  1  0.54682101  0.79369358  0.24831326  1
  F  F28  1  0.02823879  0.37100078  0.43612795  1
  F  F29  1  0.52823879  0.62899922  0.56387205  1
  F  F30  1  0.47176121  0.87100078  0.06387205  1
  F  F31  1  0.97176121  0.12899922  0.93612795  1
loop_
_geom_bond_atom_site_label_1
_geom_bond_atom_site_label_2
_geom_bond_distance
_geom_bond_site_symmetry_2
F0 Re2 1.966958 1_555
F0 K2 2.886847 1_555
F0 K5 2.991350 1_455
F0 K5 2.991350 1_555
F1 Re3 1.966958 1_555
F1 K3 2.886847 1_555
F1 K4 2.991350 1_555
F1 K4 2.991350 1_655
F2 Re0 1.966958 1_554
F2 K0 2.886847 1_555
F2 K7 2.991350 1_555
F2 K7 2.991350 1_455
F3 Re1 1.966958 1_556
F3 K1 2.886847 1_555
F3 K6 2.991350 1_555
F3 K6 2.991350 1_655
F4 Re0 1.948249 1_555
F4 K1 3.013274 1_445
F4 K1 3.013274 1_545
F4 K6 3.061383 1_545
F5 Re1 1.948249 1_545
F5 K0 3.013274 1_655
F5 K0 3.013274 1_555
F5 K7 3.061383 1_555
F6 Re2 1.948249 1_555
F6 K3 3.013274 1_555
F6 K3 3.013274 1_455
F6 K4 3.061383 1_555
F7 Re3 1.948249 1_555
F7 K2 3.013274 1_655
F7 K2 3.013274 1_555
F7 K5 3.061383 1_555
F8 Re1 1.925284 1_455
F8 K6 2.647666 1_554
F8 K0 2.723387 1_565
F9 Re0 1.925284 1_555
F9 K7 2.647666 1_556
F9 K1 2.723387 1_545
F10 Re3 1.925284 1_555
F10 K4 2.647666 1_555
F10 K2 2.723387 1_555
F11 Re2 1.925284 1_655
F11 K5 2.647666 1_555
F11 K3 2.723387 1_555
F12 Re3 1.968010 1_555
F12 K5 2.706035 1_545
F12 K4 2.816336 1_555
F12 K0 2.826870 1_555
F13 Re2 1.968010 1_555
F13 K4 2.706035 1_565
F13 K5 2.816336 1_455
F13 K1 2.826870 1_455
F14 Re1 1.968010 1_555
F14 K7 2.706035 1_555
F14 K6 2.816336 1_654
F14 K2 2.826870 1_655
F15 Re0 1.968010 1_555
F15 K6 2.706035 1_555
F15 K7 2.816336 1_556
F15 K3 2.826870 1_555
F16 Re2 1.968010 1_555
F16 K4 2.706035 1_565
F16 K5 2.816336 1_555
F16 K1 2.826870 1_555
F17 Re3 1.968010 1_555
F17 K5 2.706035 1_545
F17 K4 2.816336 1_655
F17 K0 2.826870 1_655
F18 Re0 1.968010 1_555
F18 K6 2.706035 1_555
F18 K7 2.816336 1_456
F18 K3 2.826870 1_455
F19 Re1 1.968010 1_555
F19 K7 2.706035 1_555
F19 K6 2.816336 1_554
F19 K2 2.826870 1_555
F20 Re3 1.967355 1_555
F20 K7 2.677376 1_555
F20 K0 2.755247 1_555
F20 K2 2.849160 1_555
F21 Re2 1.967355 1_555
F21 K6 2.677376 1_555
F21 K1 2.755247 1_455
F21 K3 2.849160 1_455
F22 Re1 1.967355 1_555
F22 K5 2.677376 1_555
F22 K2 2.755247 1_655
F22 K0 2.849160 1_665
F23 Re0 1.967355 1_555
F23 K4 2.677376 1_555
F23 K3 2.755247 1_555
F23 K1 2.849160 1_545
F24 Re2 1.967355 1_555
F24 K6 2.677376 1_555
F24 K1 2.755247 1_555
F24 K3 2.849160 1_555
F25 Re3 1.967355 1_555
F25 K7 2.677376 1_555
F25 K0 2.755247 1_655
F25 K2 2.849160 1_655
F26 Re0 1.967355 1_555
F26 K4 2.677376 1_555
F26 K3 2.755247 1_455
F26 K1 2.849160 1_445
F27 Re1 1.967355 1_555
F27 K5 2.677376 1_555
F27 K2 2.755247 1_555
F27 K0 2.849160 1_565
F28 Re3 1.925284 1_455
F28 K4 2.647666 1_555
F28 K2 2.723387 1_555
F29 Re2 1.925284 1_555
F29 K5 2.647666 1_555
F29 K3 2.723387 1_555
F30 Re1 1.925284 1_555
F30 K6 2.647666 1_554
F30 K0 2.723387 1_565
F31 Re0 1.925284 1_655
F31 K7 2.647666 1_556
F31 K1 2.723387 1_545
