# generated using pymatgen
data_Na5ZnSiGe3P5O24
_symmetry_space_group_name_H-M   'P 1'
_cell_length_a   8.67644596
_cell_length_b   8.64859847
_cell_length_c   21.68846389
_cell_angle_alpha   90.10626367
_cell_angle_beta   89.89261221
_cell_angle_gamma   119.91002554
_symmetry_Int_Tables_number   1
_chemical_formula_structural   Na5ZnSiGe3P5O24
_chemical_formula_sum   'Na15 Zn3 Si3 Ge9 P15 O72'
_cell_volume   1410.71425609
_cell_formula_units_Z   3
loop_
 _symmetry_equiv_pos_site_id
 _symmetry_equiv_pos_as_xyz
  1  'x, y, z'
loop_
 _atom_site_type_symbol
 _atom_site_label
 _atom_site_symmetry_multiplicity
 _atom_site_fract_x
 _atom_site_fract_y
 _atom_site_fract_z
 _atom_site_occupancy
  Na  Na0  1  0.64001240  0.00949837  0.24586584  1
  Na  Na1  1  0.37014178  0.36084835  0.24590552  1
  Na  Na2  1  0.99088223  0.63127307  0.24632871  1
  Na  Na3  1  0.63105231  0.62365054  0.74848596  1
  Na  Na4  1  0.99285902  0.36926379  0.74846692  1
  Na  Na5  1  0.37807186  0.00826828  0.74602918  1
  Na  Na6  1  0.66238696  0.97352320  0.58361926  1
  Na  Na7  1  0.33307871  0.30265069  0.92128647  1
  Na  Na8  1  0.32608950  0.03416165  0.41508185  1
  Na  Na9  1  0.99975070  0.00023678  0.49624338  1
  Na  Na10  1  0.98877081  0.99206117  0.00128236  1
  Na  Na11  1  0.67580327  0.33575327  0.83693543  1
  Na  Na12  1  0.67579709  0.34172623  0.33228211  1
  Na  Na13  1  0.33360605  0.66735118  0.16072401  1
  Na  Na14  1  0.32474071  0.66191896  0.66253813  1
  Zn  Zn0  1  0.99362212  0.99945367  0.35413415  1
  Zn  Zn1  1  0.66407340  0.32989213  0.67769987  1
  Zn  Zn2  1  0.66884721  0.33420301  0.17604472  1
  Si  Si0  1  0.37013050  0.03876522  0.58280230  1
  Si  Si1  1  0.62516921  0.66894408  0.91819750  1
  Si  Si2  1  0.03961134  0.37872399  0.91760729  1
  Ge  Ge0  1  0.99317915  0.99681071  0.85859166  1
  Ge  Ge1  1  0.00727675  0.00007454  0.64363122  1
  Ge  Ge2  1  0.99853629  0.00053243  0.14436132  1
  Ge  Ge3  1  0.67738832  0.34084247  0.98215933  1
  Ge  Ge4  1  0.66651841  0.33629271  0.48244664  1
  Ge  Ge5  1  0.33565776  0.66429554  0.01826886  1
  Ge  Ge6  1  0.32985984  0.66565486  0.51930800  1
  Ge  Ge7  1  0.33160979  0.66424862  0.31606403  1
  Ge  Ge8  1  0.33038852  0.66193359  0.82064908  1
  P  P0  1  0.28842757  0.99733103  0.25194025  1
  P  P1  1  0.70964901  0.71186543  0.25105778  1
  P  P2  1  0.00256792  0.29059640  0.25100421  1
  P  P3  1  0.28150350  0.28626371  0.75179487  1
  P  P4  1  0.00513986  0.71889082  0.75189707  1
  P  P5  1  0.71340310  0.99607489  0.75140826  1
  P  P6  1  0.96351861  0.33789753  0.58362513  1
  P  P7  1  0.66550021  0.62437897  0.58353478  1
  P  P8  1  0.96599606  0.63060804  0.08338885  1
  P  P9  1  0.66364906  0.03682310  0.08298564  1
  P  P10  1  0.37105619  0.33361614  0.08333223  1
  P  P11  1  0.33404363  0.95284890  0.91705476  1
  P  P12  1  0.62242616  0.95624293  0.41857688  1
  P  P13  1  0.34024695  0.38541065  0.41858556  1
  P  P14  1  0.03936617  0.65640900  0.41843165  1
  O  O0  1  0.21508735  0.03117140  0.31086047  1
  O  O1  1  0.82346990  0.78708184  0.30756046  1
  O  O2  1  0.96643960  0.17829589  0.30773306  1
  O  O3  1  0.19799255  0.16746707  0.80942049  1
  O  O4  1  0.97156758  0.80652484  0.80830430  1
  O  O5  1  0.83727621  0.02978311  0.80667807  1
  O  O6  1  0.79183767  0.95856061  0.69138603  1
  O  O7  1  0.15922423  0.20287759  0.69428305  1
  O  O8  1  0.04179353  0.83740977  0.69331047  1
  O  O9  1  0.79039006  0.83627761  0.19299564  1
  O  O10  1  0.04527161  0.20929881  0.19275852  1
  O  O11  1  0.16266218  0.95619505  0.19500585  1
  O  O12  1  0.89792841  0.37487868  0.64386451  1
  O  O13  1  0.48833161  0.10178639  0.64451947  1
  O  O14  1  0.63185409  0.52429556  0.64381533  1
  O  O15  1  0.89814140  0.52834207  0.14307395  1
  O  O16  1  0.63236491  0.10511502  0.14334593  1
  O  O17  1  0.47433193  0.36482648  0.14240954  1
  O  O18  1  0.45860226  0.29964068  0.02499138  1
  O  O19  1  0.83950669  0.54199441  0.02714036  1
  O  O20  1  0.69873928  0.16332414  0.02673172  1
  O  O21  1  0.46516399  0.16718316  0.52209231  1
  O  O22  1  0.70562493  0.53970420  0.52726909  1
  O  O23  1  0.83272722  0.29444459  0.52835342  1
  O  O24  1  0.53250372  0.70763023  0.97522232  1
  O  O25  1  0.17872015  0.46786111  0.97341947  1
  O  O26  1  0.29550899  0.83108000  0.97217860  1
  O  O27  1  0.53010373  0.84071260  0.47602728  1
  O  O28  1  0.31189482  0.47699475  0.47459203  1
  O  O29  1  0.16646431  0.69250791  0.47326537  1
  O  O30  1  0.12091969  0.62431016  0.35769592  1
  O  O31  1  0.49800369  0.87430871  0.35978361  1
  O  O32  1  0.37130369  0.49730725  0.35795126  1
  O  O33  1  0.12076215  0.49750786  0.85329064  1
  O  O34  1  0.37005523  0.87594356  0.85598765  1
  O  O35  1  0.49827495  0.62165609  0.85474214  1
  O  O36  1  0.02587671  0.82369473  0.41473997  1
  O  O37  1  0.80281614  0.97475716  0.41513976  1
  O  O38  1  0.18126806  0.19907535  0.41558983  1
  O  O39  1  0.03282885  0.18544588  0.90875242  1
  O  O40  1  0.16896464  0.97758195  0.90907877  1
  O  O41  1  0.82161043  0.84216391  0.90971486  1
  O  O42  1  0.97019755  0.15956279  0.58889831  1
  O  O43  1  0.17424085  0.02240825  0.58853633  1
  O  O44  1  0.83069006  0.81849094  0.58832108  1
  O  O45  1  0.98142558  0.81928725  0.08862475  1
  O  O46  1  0.83597246  0.01973892  0.08751143  1
  O  O47  1  0.18216253  0.16084184  0.08779327  1
  O  O48  1  0.69298932  0.16095444  0.74861055  1
  O  O49  1  0.46759207  0.31041460  0.74758138  1
  O  O50  1  0.84259169  0.53302031  0.74750030  1
  O  O51  1  0.67849002  0.52296027  0.24316377  1
  O  O52  1  0.84505973  0.32141077  0.24355798  1
  O  O53  1  0.47570641  0.15567971  0.24432069  1
  O  O54  1  0.63436637  0.48451033  0.92546972  1
  O  O55  1  0.84285587  0.35337254  0.92513296  1
  O  O56  1  0.49672192  0.14116794  0.92331284  1
  O  O57  1  0.63082061  0.14217464  0.42303904  1
  O  O58  1  0.51390919  0.37104108  0.42293232  1
  O  O59  1  0.85535105  0.48411806  0.42551779  1
  O  O60  1  0.35119684  0.50120766  0.07536211  1
  O  O61  1  0.15244931  0.65155310  0.07283854  1
  O  O62  1  0.49530549  0.85092711  0.07393665  1
  O  O63  1  0.35216288  0.84017388  0.57319845  1
  O  O64  1  0.50165051  0.64997127  0.57395450  1
  O  O65  1  0.15113716  0.49700565  0.57324507  1
  O  O66  1  0.30302472  0.82028875  0.25660593  1
  O  O67  1  0.51904060  0.69803232  0.25677013  1
  O  O68  1  0.17950981  0.48141922  0.25599642  1
  O  O69  1  0.29762106  0.47547607  0.75538630  1
  O  O70  1  0.17859409  0.70448596  0.75612326  1
  O  O71  1  0.52488214  0.82454255  0.75669080  1
loop_
_geom_bond_atom_site_label_1
_geom_bond_atom_site_label_2
_geom_bond_distance
_geom_bond_site_symmetry_2
Na0 O53 2.330140 1_555
Na0 O67 2.365506 1_545
Na0 O52 2.378797 1_555
Na0 O16 2.386272 1_555
Na0 O66 2.551133 1_545
Na0 O9 2.683082 1_545
Na0 O31 2.748119 1_545
Na0 O2 2.799415 1_555
Na1 O51 2.320730 1_555
Na1 O68 2.364077 1_555
Na1 O53 2.368363 1_555
Na1 O17 2.412178 1_555
Na1 O67 2.543622 1_555
Na1 O32 2.697387 1_555
Na1 O10 2.704424 1_555
Na1 O0 2.847194 1_555
Na2 O52 2.324737 1_555
Na2 O66 2.375391 1_655
Na2 O51 2.386864 1_555
Na2 O15 2.395834 1_555
Na2 O68 2.553387 1_655
Na2 O11 2.680611 1_655
Na2 O30 2.681268 1_655
Na2 O1 2.761794 1_555
Na3 O50 2.327678 1_555
Na3 O71 2.343777 1_555
Na3 O49 2.349262 1_555
Na3 O14 2.427064 1_555
Na3 O69 2.517117 1_555
Na3 O35 2.570746 1_555
Na3 O6 2.801180 1_555
Na3 O4 2.874050 1_555
Na4 O48 2.310946 1_555
Na4 O69 2.331737 1_655
Na4 O50 2.355376 1_555
Na4 O12 2.423823 1_555
Na4 O70 2.523837 1_655
Na4 O33 2.530405 1_655
Na4 O7 2.755756 1_655
Na4 O5 2.844511 1_555
Na5 O49 2.325631 1_555
Na5 O70 2.326369 1_545
Na5 O48 2.369535 1_555
Na5 O13 2.375589 1_555
Na5 O71 2.494357 1_545
Na5 O34 2.632884 1_545
Na5 O8 2.776760 1_545
Na5 O3 2.890937 1_555
Na6 O42 2.334443 1_565
Na6 O63 2.351939 1_555
Na6 O44 2.427810 1_555
Na6 O64 2.434386 1_555
Na6 O27 2.601396 1_555
Na6 O6 2.626238 1_555
Na6 O13 2.629364 1_565
Na6 O23 2.690603 1_565
Na7 O54 2.283765 1_555
Na7 O39 2.292617 1_555
Na7 O56 2.438521 1_555
Na7 O40 2.451104 1_545
Na7 O18 2.506669 1_556
Na7 O25 2.647726 1_555
Na7 O3 2.694559 1_555
Na7 O35 2.795082 1_555
Na8 O36 2.317285 1_545
Na8 O38 2.323883 1_555
Na8 O57 2.330454 1_555
Na8 O0 2.453723 1_555
Na8 O58 2.537222 1_555
Na8 O21 2.604283 1_555
Na8 O31 2.760124 1_545
Na8 O29 2.857906 1_545
Na9 O37 2.386763 1_545
Na9 O38 2.407778 1_655
Na9 O36 2.416813 1_645
Na9 O43 2.460898 1_655
Na9 O44 2.512314 1_545
Na9 O42 2.518514 1_555
Na10 O46 2.370231 1_565
Na10 O45 2.395910 1_555
Na10 O41 2.419575 1_554
Na10 O47 2.454736 1_665
Na10 O39 2.518482 1_664
Na10 O40 2.577140 1_654
Na11 O55 2.360543 1_555
Na11 O54 2.433319 1_555
Na11 O56 2.479723 1_555
Na11 O48 2.488033 1_555
Na11 O50 2.511360 1_555
Na11 O49 2.585339 1_555
Na12 O59 2.474247 1_555
Na12 O52 2.477100 1_555
Na12 O51 2.483499 1_555
Na12 O58 2.499113 1_555
Na12 O57 2.518610 1_555
Na12 O53 2.541198 1_555
Na13 O60 2.392353 1_555
Na13 O62 2.410773 1_555
Na13 O61 2.432802 1_555
Na13 O66 2.545999 1_555
Na13 O68 2.549688 1_555
Na13 O67 2.565743 1_555
Na14 O63 2.414810 1_555
Na14 O65 2.431420 1_555
Na14 O64 2.490844 1_555
Na14 O70 2.513230 1_555
Na14 O69 2.518419 1_555
Na14 O71 2.594310 1_555
Ge0 O41 1.802207 1_555
Ge0 O39 1.843520 1_665
Ge0 O5 1.889542 1_565
Ge0 O4 1.902472 1_555
Ge0 O40 1.952628 1_655
Ge0 O3 1.963841 1_665
Ge1 O43 1.810819 1_555
Ge1 O8 1.912270 1_545
Ge1 O7 1.927048 1_555
Ge1 O44 1.962927 1_445
Ge1 O42 1.966038 1_455
Ge1 O6 2.005128 1_445
Ge2 O45 1.924060 1_545
Ge2 O47 1.939560 1_655
Ge2 O46 1.943766 1_555
Ge2 O10 1.946946 1_655
Ge2 O9 1.957563 1_545
Ge2 O11 1.983275 1_645
Ge3 O55 1.855071 1_555
Ge3 O19 1.874896 1_556
Ge3 O20 1.901514 1_556
Ge3 O54 1.914376 1_555
Ge3 O18 1.978247 1_556
Ge3 O56 2.089976 1_555
Ge4 O21 1.838863 1_555
Ge4 O22 1.885375 1_555
Ge4 O23 1.931113 1_555
Ge4 O59 1.937177 1_555
Ge4 O58 1.978474 1_555
Ge4 O57 2.012335 1_555
Ge5 O24 1.812749 1_554
Ge5 O25 1.838022 1_554
Ge5 O26 1.925884 1_554
Ge5 O60 1.933310 1_555
Ge5 O62 1.936759 1_555
Ge5 O61 1.938671 1_555
Ge6 O28 1.835259 1_555
Ge6 O63 1.839752 1_555
Ge6 O29 1.842687 1_555
Ge6 O27 1.888864 1_555
Ge6 O65 1.909035 1_555
Ge6 O64 1.963066 1_555
Ge7 O32 1.878949 1_555
Ge7 O30 1.908295 1_555
Ge7 O31 1.914927 1_555
Ge7 O68 1.963877 1_555
Ge7 O66 1.971583 1_555
Ge7 O67 1.975722 1_555
Ge8 O33 1.803052 1_555
Ge8 O35 1.816859 1_555
Ge8 O34 1.868718 1_555
Ge8 O69 2.054413 1_555
Ge8 O70 2.078634 1_555
Ge8 O71 2.093179 1_555
O0 P0 1.518180 1_545
O0 Zn0 2.029018 1_445
O1 P1 1.503694 1_555
O1 Zn0 1.966693 1_555
O2 P2 1.501574 1_655
O2 Zn0 1.957359 1_545
O3 P3 1.549706 1_555
O4 P4 1.539918 1_655
O5 P5 1.538869 1_545
O6 P5 1.574279 1_555
O7 P3 1.562097 1_555
O8 P4 1.563519 1_555
O9 P1 1.576164 1_555
O10 P2 1.575508 1_555
O11 P0 1.567905 1_555
O12 P6 1.519961 1_555
O12 Zn1 2.003758 1_555
O13 Si0 1.607967 1_555
O13 Zn1 1.932288 1_555
O14 P7 1.514759 1_555
O14 Zn1 1.979683 1_555
O15 P8 1.512165 1_555
O15 Zn2 1.989041 1_555
O16 P9 1.513936 1_555
O16 Zn2 1.974547 1_555
O17 P10 1.509742 1_555
O17 Zn2 1.975284 1_555
O18 P10 1.575427 1_555
O19 P8 1.562950 1_555
O20 P9 1.565112 1_555
O21 Si0 1.653839 1_555
O22 P7 1.547905 1_555
O23 P6 1.563379 1_555
O24 Si1 1.597188 1_555
O25 Si2 1.609479 1_555
O26 P11 1.517312 1_555
O27 P12 1.547653 1_555
O28 P13 1.533951 1_555
O29 P14 1.545341 1_555
O30 P14 1.582401 1_555
O31 P12 1.591362 1_555
O32 P13 1.575396 1_555
O33 Si2 1.666502 1_555
O34 P11 1.580071 1_555
O35 Si1 1.681679 1_555
O36 P14 1.510840 1_555
O36 Zn0 2.133010 1_455
O37 P12 1.493501 1_555
O37 Zn0 2.043820 1_555
O38 P13 1.512293 1_555
O38 Zn0 2.145767 1_445
O39 Si2 1.653872 1_555
O40 P11 1.560055 1_555
O41 Si1 1.623760 1_555
O42 P6 1.576414 1_555
O43 Si0 1.638199 1_555
O44 P7 1.575968 1_555
O45 P8 1.573255 1_555
O46 P9 1.577299 1_555
O47 P10 1.576664 1_555
O48 P5 1.523386 1_545
O48 Zn1 2.222229 1_555
O49 P3 1.523832 1_555
O49 Zn1 2.221838 1_555
O50 P4 1.523557 1_655
O50 Zn1 2.249977 1_555
O51 P1 1.526512 1_555
O51 Zn2 2.155581 1_555
O52 P2 1.526083 1_655
O52 Zn2 2.161367 1_555
O53 P0 1.524385 1_545
O53 Zn2 2.191739 1_555
O54 Si1 1.644229 1_555
O55 Si2 1.617048 1_655
O56 P11 1.539681 1_545
O57 P12 1.575798 1_545
O58 P13 1.575441 1_555
O59 P14 1.555770 1_655
O60 P10 1.552589 1_555
O61 P8 1.552033 1_455
O62 P9 1.553949 1_565
O63 Si0 1.658128 1_565
O64 P7 1.558296 1_555
O65 P6 1.536228 1_455
O66 P0 1.601491 1_555
O67 P1 1.602092 1_555
O68 P2 1.601716 1_555
O69 P3 1.573165 1_555
O70 P4 1.573654 1_555
O71 P5 1.571429 1_555
