# generated using pymatgen
data_Ca2Si
_symmetry_space_group_name_H-M   'P 1'
_cell_length_a   4.83215368
_cell_length_b   7.60545113
_cell_length_c   9.02186365
_cell_angle_alpha   90.00000000
_cell_angle_beta   90.00000000
_cell_angle_gamma   90.00000000
_symmetry_Int_Tables_number   1
_chemical_formula_structural   Ca2Si
_chemical_formula_sum   'Ca8 Si4'
_cell_volume   331.55988262
_cell_formula_units_Z   4
loop_
 _symmetry_equiv_pos_site_id
 _symmetry_equiv_pos_as_xyz
  1  'x, y, z'
loop_
 _atom_site_type_symbol
 _atom_site_label
 _atom_site_symmetry_multiplicity
 _atom_site_fract_x
 _atom_site_fract_y
 _atom_site_fract_z
 _atom_site_occupancy
  Ca  Ca0  1  0.75000000  0.34566195  0.92493003  1
  Ca  Ca1  1  0.25000000  0.65433805  0.07506997  1
  Ca  Ca2  1  0.75000000  0.84566195  0.57506997  1
  Ca  Ca3  1  0.25000000  0.15433805  0.42493003  1
  Ca  Ca4  1  0.25000000  0.01909100  0.82141002  1
  Ca  Ca5  1  0.75000000  0.98090900  0.17858998  1
  Ca  Ca6  1  0.25000000  0.51909100  0.67858998  1
  Ca  Ca7  1  0.75000000  0.48090900  0.32141002  1
  Si  Si0  1  0.25000000  0.75305103  0.39599024  1
  Si  Si1  1  0.75000000  0.24694897  0.60400976  1
  Si  Si2  1  0.25000000  0.25305103  0.10400976  1
  Si  Si3  1  0.75000000  0.74694897  0.89599024  1
loop_
_geom_bond_atom_site_label_1
_geom_bond_atom_site_label_2
_geom_bond_distance
_geom_bond_site_symmetry_2
Ca0 Si2 2.990619 1_556
Ca0 Si2 2.990619 1_656
Ca0 Si1 2.991052 1_555
Ca0 Si3 3.063116 1_555
Ca1 Si3 2.990619 1_554
Ca1 Si3 2.990619 1_454
Ca1 Si0 2.991052 1_555
Ca1 Si2 3.063116 1_555
Ca2 Si0 2.990619 1_655
Ca2 Si0 2.990619 1_555
Ca2 Si3 2.991052 1_555
Ca2 Si1 3.063116 1_565
Ca3 Si1 2.990619 1_555
Ca3 Si1 2.990619 1_455
Ca3 Si2 2.991052 1_555
Ca3 Si0 3.063116 1_545
Ca4 Si2 3.109100 1_556
Ca4 Si3 3.251780 1_545
Ca4 Si3 3.251780 1_445
Ca5 Si3 3.109100 1_554
Ca5 Si2 3.251780 1_565
Ca5 Si2 3.251780 1_665
Ca6 Si0 3.109100 1_555
Ca6 Si1 3.251780 1_555
Ca6 Si1 3.251780 1_455
Ca7 Si1 3.109100 1_555
Ca7 Si0 3.251780 1_555
Ca7 Si0 3.251780 1_655
