# generated using pymatgen
data_LiCr(PO3)4
_symmetry_space_group_name_H-M   'P 1'
_cell_length_a   6.94165880
_cell_length_b   6.94165880
_cell_length_c   9.54001153
_cell_angle_alpha   88.85870239
_cell_angle_beta   88.85870239
_cell_angle_gamma   109.26074893
_symmetry_Int_Tables_number   1
_chemical_formula_structural   LiCr(PO3)4
_chemical_formula_sum   'Li2 Cr2 P8 O24'
_cell_volume   433.71320881
_cell_formula_units_Z   2
loop_
 _symmetry_equiv_pos_site_id
 _symmetry_equiv_pos_as_xyz
  1  'x, y, z'
loop_
 _atom_site_type_symbol
 _atom_site_label
 _atom_site_symmetry_multiplicity
 _atom_site_fract_x
 _atom_site_fract_y
 _atom_site_fract_z
 _atom_site_occupancy
  Li  Li0  1  0.16662800  0.83337200  0.25000000  1
  Li  Li1  1  0.83337200  0.16662800  0.75000000  1
  Cr  Cr0  1  0.11320700  0.88679300  0.75000000  1
  Cr  Cr1  1  0.88679300  0.11320700  0.25000000  1
  P  P0  1  0.37676300  0.73105600  0.96355000  1
  P  P1  1  0.26894400  0.62323700  0.53645000  1
  P  P2  1  0.80235800  0.72250000  0.02609000  1
  P  P3  1  0.73105600  0.37676300  0.46355000  1
  P  P4  1  0.62323700  0.26894400  0.03645000  1
  P  P5  1  0.19764200  0.27750000  0.97391000  1
  P  P6  1  0.27750000  0.19764200  0.47391000  1
  P  P7  1  0.72250000  0.80235800  0.52609000  1
  O  O0  1  0.50055700  0.69477400  0.59589100  1
  O  O1  1  0.71038200  0.26760800  0.89495500  1
  O  O2  1  0.28961800  0.73239200  0.10504500  1
  O  O3  1  0.89857800  0.85953000  0.14615100  1
  O  O4  1  0.87343300  0.35322400  0.34747100  1
  O  O5  1  0.05872900  0.28665000  0.09487500  1
  O  O6  1  0.73239200  0.28961800  0.60504500  1
  O  O7  1  0.69477400  0.50055700  0.09589100  1
  O  O8  1  0.49944300  0.30522600  0.40410900  1
  O  O9  1  0.21337200  0.37778900  0.53854500  1
  O  O10  1  0.71335000  0.94127100  0.40512500  1
  O  O11  1  0.64677600  0.12656700  0.15252900  1
  O  O12  1  0.10142200  0.14047000  0.85384900  1
  O  O13  1  0.35322400  0.87343300  0.84747100  1
  O  O14  1  0.85953000  0.89857800  0.64615100  1
  O  O15  1  0.78662800  0.62221100  0.46145500  1
  O  O16  1  0.28665000  0.05872900  0.59487500  1
  O  O17  1  0.14047000  0.10142200  0.35384900  1
  O  O18  1  0.30522600  0.49944300  0.90410900  1
  O  O19  1  0.26760800  0.71038200  0.39495500  1
  O  O20  1  0.37778900  0.21337200  0.03854500  1
  O  O21  1  0.94127100  0.71335000  0.90512500  1
  O  O22  1  0.12656700  0.64677600  0.65252900  1
  O  O23  1  0.62221100  0.78662800  0.96145500  1
loop_
_geom_bond_atom_site_label_1
_geom_bond_atom_site_label_2
_geom_bond_distance
_geom_bond_site_symmetry_2
Li0 O2 1.875899 1_555
Li0 O19 1.875899 1_555
Li0 O17 2.183099 1_565
Li0 O3 2.183099 1_455
Li1 O6 1.875899 1_555
Li1 O1 1.875899 1_555
Li1 O12 2.183099 1_655
Li1 O14 2.183099 1_545
Cr0 O13 1.951777 1_555
Cr0 O22 1.951777 1_555
Cr0 O16 1.993687 1_565
Cr0 O21 1.993687 1_455
Cr0 O14 2.061659 1_455
Cr0 O12 2.061659 1_565
Cr1 O4 1.951777 1_555
Cr1 O11 1.951777 1_555
Cr1 O5 1.993687 1_655
Cr1 O10 1.993687 1_545
Cr1 O3 2.061659 1_545
Cr1 O17 2.061659 1_655
O0 P7 1.598439 1_555
O0 P1 1.635212 1_555
O1 P4 1.469636 1_556
O2 P0 1.469636 1_554
O3 P2 1.522353 1_555
O4 P3 1.516567 1_555
O5 P5 1.504864 1_554
O6 P3 1.469636 1_555
O7 P2 1.598439 1_555
O7 P4 1.635212 1_555
O8 P6 1.598439 1_555
O8 P3 1.635212 1_555
O9 P6 1.590352 1_555
O9 P1 1.617688 1_555
O10 P7 1.504864 1_555
O11 P4 1.516567 1_555
O12 P5 1.522353 1_555
O13 P0 1.516567 1_555
O14 P7 1.522353 1_555
O15 P7 1.590352 1_555
O15 P3 1.617688 1_555
O16 P6 1.504864 1_555
O17 P6 1.522353 1_555
O18 P5 1.598439 1_555
O18 P0 1.635212 1_555
O19 P1 1.469636 1_555
O20 P5 1.590352 1_554
O20 P4 1.617688 1_555
O21 P2 1.504864 1_556
O22 P1 1.516567 1_555
O23 P2 1.590352 1_556
O23 P0 1.617688 1_555
