# generated using pymatgen
data_MgNb2(I3O)2
_symmetry_space_group_name_H-M   'P 1'
_cell_length_a   3.90389755
_cell_length_b   8.21730200
_cell_length_c   12.60942267
_cell_angle_alpha   83.50180511
_cell_angle_beta   80.97799278
_cell_angle_gamma   76.24402059
_symmetry_Int_Tables_number   1
_chemical_formula_structural   MgNb2(I3O)2
_chemical_formula_sum   'Mg1 Nb2 I6 O2'
_cell_volume   386.82489784
_cell_formula_units_Z   1
loop_
 _symmetry_equiv_pos_site_id
 _symmetry_equiv_pos_as_xyz
  1  'x, y, z'
loop_
 _atom_site_type_symbol
 _atom_site_label
 _atom_site_symmetry_multiplicity
 _atom_site_fract_x
 _atom_site_fract_y
 _atom_site_fract_z
 _atom_site_occupancy
  Mg  Mg0  1  0.71209500  0.50853000  0.09852500  1
  Nb  Nb0  1  0.90080900  0.04395700  0.18269500  1
  Nb  Nb1  1  0.14075400  0.95225300  0.79205000  1
  I  I0  1  0.69097400  0.34138800  0.29549800  1
  I  I1  1  0.90483700  0.25649500  0.96620900  1
  I  I2  1  0.11453400  0.17459600  0.62163400  1
  I  I3  1  0.11907800  0.75170400  0.03993300  1
  I  I4  1  0.33115900  0.65711300  0.70574800  1
  I  I5  1  0.91263900  0.83409600  0.36486500  1
  O  O0  1  0.62163700  0.95673800  0.82294100  1
  O  O1  1  0.40735300  0.04813000  0.16545800  1
loop_
_geom_bond_atom_site_label_1
_geom_bond_atom_site_label_2
_geom_bond_distance
_geom_bond_site_symmetry_2
Nb0 O1 1.963331 1_655
Nb0 O1 1.964091 1_555
Nb1 O0 1.985673 1_555
Nb1 O0 1.995059 1_455
I0 Mg0 2.698061 1_555
I0 Nb0 2.852545 1_555
I1 Mg0 2.699321 1_556
I1 Nb0 3.069623 1_556
I1 Nb1 3.381480 1_645
I2 Nb1 2.656609 1_545
I3 Mg0 2.805476 1_455
I3 Mg0 2.810801 1_555
I3 Nb0 3.042729 1_465
I3 Nb1 3.363064 1_554
I4 Nb1 2.665510 1_555
I5 Nb0 2.711323 1_565
