# generated using pymatgen
data_Na6Ca2Si3Sn2(SO8)3
_symmetry_space_group_name_H-M   'P 1'
_cell_length_a   9.26887104
_cell_length_b   9.29634574
_cell_length_c   22.86788460
_cell_angle_alpha   90.18000813
_cell_angle_beta   90.52688501
_cell_angle_gamma   119.78052267
_symmetry_Int_Tables_number   1
_chemical_formula_structural   Na6Ca2Si3Sn2(SO8)3
_chemical_formula_sum   'Na18 Ca6 Si9 Sn6 S9 O72'
_cell_volume   1710.08019567
_cell_formula_units_Z   3
loop_
 _symmetry_equiv_pos_site_id
 _symmetry_equiv_pos_as_xyz
  1  'x, y, z'
loop_
 _atom_site_type_symbol
 _atom_site_label
 _atom_site_symmetry_multiplicity
 _atom_site_fract_x
 _atom_site_fract_y
 _atom_site_fract_z
 _atom_site_occupancy
  Na  Na0  1  0.37202554  0.34951422  0.24560387  1
  Na  Na1  1  0.00435059  0.64250366  0.23624481  1
  Na  Na2  1  0.98699008  0.34686626  0.74171755  1
  Na  Na3  1  0.38472468  0.02614637  0.74448787  1
  Na  Na4  1  0.29663043  0.33327715  0.57887554  1
  Na  Na5  1  0.65494292  0.97882602  0.59255536  1
  Na  Na6  1  0.30173232  0.96305179  0.07210653  1
  Na  Na7  1  0.65562683  0.67764606  0.08425639  1
  Na  Na8  1  0.99221590  0.68586547  0.92151200  1
  Na  Na9  1  0.32447218  0.28245518  0.90963619  1
  Na  Na10  1  0.99104386  0.30618903  0.42833181  1
  Na  Na11  1  0.32470606  0.04121595  0.41379986  1
  Na  Na12  1  0.01149033  0.00201276  0.50520624  1
  Na  Na13  1  0.01392673  0.01123943  0.99890162  1
  Na  Na14  1  0.64939728  0.30896600  0.82666007  1
  Na  Na15  1  0.64321002  0.31900086  0.33244412  1
  Na  Na16  1  0.31140716  0.65014011  0.15666730  1
  Na  Na17  1  0.31802740  0.66642385  0.66160909  1
  Ca  Ca0  1  0.00323354  0.00113291  0.35075751  1
  Ca  Ca1  1  0.00118133  0.00246826  0.84955309  1
  Ca  Ca2  1  0.66599386  0.33967437  0.68501094  1
  Ca  Ca3  1  0.66309983  0.32417809  0.18291783  1
  Ca  Ca4  1  0.32210839  0.65976347  0.01834129  1
  Ca  Ca5  1  0.32241030  0.66312840  0.52031516  1
  Si  Si0  1  0.30458146  0.99140450  0.25577232  1
  Si  Si1  1  0.30026688  0.31054444  0.75578010  1
  Si  Si2  1  0.70267093  0.99541952  0.74779277  1
  Si  Si3  1  0.96046496  0.32899988  0.58496276  1
  Si  Si4  1  0.35681793  0.03276526  0.58830898  1
  Si  Si5  1  0.95951172  0.62930293  0.08632308  1
  Si  Si6  1  0.36607286  0.33151127  0.08731198  1
  Si  Si7  1  0.34423250  0.97040487  0.91947815  1
  Si  Si8  1  0.34499249  0.37208695  0.41848894  1
  Sn  Sn0  1  0.00607025  0.02484464  0.65020249  1
  Sn  Sn1  1  0.02213312  0.99479541  0.14592619  1
  Sn  Sn2  1  0.65640883  0.32393148  0.98664439  1
  Sn  Sn3  1  0.64781488  0.32832108  0.49141123  1
  Sn  Sn4  1  0.34228816  0.66625001  0.31795460  1
  Sn  Sn5  1  0.35629075  0.68842807  0.81159305  1
  S  S0  1  0.69849568  0.70630181  0.24886788  1
  S  S1  1  0.00602275  0.29911702  0.25155264  1
  S  S2  1  0.00920325  0.71044861  0.75171146  1
  S  S3  1  0.67942522  0.63985288  0.58256277  1
  S  S4  1  0.67854897  0.03812919  0.08295152  1
  S  S5  1  0.62848749  0.65780956  0.91872578  1
  S  S6  1  0.02896724  0.37342438  0.91527498  1
  S  S7  1  0.62969783  0.97114869  0.41863612  1
  S  S8  1  0.02647557  0.65562083  0.41496588  1
  O  O0  1  0.21380389  0.00710927  0.31238533  1
  O  O1  1  0.79504517  0.79610251  0.30009831  1
  O  O2  1  0.98894269  0.20977303  0.30571341  1
  O  O3  1  0.22222239  0.20156259  0.81304933  1
  O  O4  1  0.99205065  0.77907756  0.80712398  1
  O  O5  1  0.81232399  0.01829005  0.80328814  1
  O  O6  1  0.78472875  0.96350986  0.68621446  1
  O  O7  1  0.17569222  0.22729774  0.69538113  1
  O  O8  1  0.02984313  0.81966243  0.70078242  1
  O  O9  1  0.77233476  0.80138907  0.19349627  1
  O  O10  1  0.02152815  0.20961369  0.19919658  1
  O  O11  1  0.17892420  0.94968588  0.19490670  1
  O  O12  1  0.88000568  0.34872892  0.64285067  1
  O  O13  1  0.46549609  0.12268526  0.64457937  1
  O  O14  1  0.65253130  0.53617251  0.63283318  1
  O  O15  1  0.88001185  0.53663584  0.14587352  1
  O  O16  1  0.65200859  0.11377321  0.13433402  1
  O  O17  1  0.46001946  0.34478332  0.14765312  1
  O  O18  1  0.45062313  0.28980853  0.02844620  1
  O  O19  1  0.83794304  0.53390943  0.02579800  1
  O  O20  1  0.70374397  0.14131721  0.02912573  1
  O  O21  1  0.43368017  0.15474057  0.52662423  1
  O  O22  1  0.70125377  0.55912299  0.52729106  1
  O  O23  1  0.83835445  0.30359177  0.52263254  1
  O  O24  1  0.55420069  0.67628897  0.97213432  1
  O  O25  1  0.13405551  0.45249196  0.96670285  1
  O  O26  1  0.32342117  0.86737516  0.97717442  1
  O  O27  1  0.55278746  0.87700437  0.47075266  1
  O  O28  1  0.31808637  0.46005050  0.47304910  1
  O  O29  1  0.13771414  0.68773305  0.46464094  1
  O  O30  1  0.10505539  0.63030326  0.35958469  1
  O  O31  1  0.52184076  0.88852942  0.36434451  1
  O  O32  1  0.36848786  0.48224329  0.35463349  1
  O  O33  1  0.10582941  0.47560176  0.86177612  1
  O  O34  1  0.36049861  0.87470474  0.85829254  1
  O  O35  1  0.51912485  0.63288255  0.86615526  1
  O  O36  1  0.00020359  0.79838368  0.40936937  1
  O  O37  1  0.79891798  0.99774229  0.41187982  1
  O  O38  1  0.18034443  0.18767797  0.41370688  1
  O  O39  1  0.00564372  0.20565101  0.91135216  1
  O  O40  1  0.17947273  0.99138570  0.91623505  1
  O  O41  1  0.79839862  0.79745541  0.91272740  1
  O  O42  1  0.95626590  0.14407466  0.58241338  1
  O  O43  1  0.16991878  0.02168493  0.59092371  1
  O  O44  1  0.83266443  0.80478143  0.58603298  1
  O  O45  1  0.95369276  0.81189770  0.08446131  1
  O  O46  1  0.83122722  0.02108341  0.08826567  1
  O  O47  1  0.17896958  0.15374299  0.08626718  1
  O  O48  1  0.68335899  0.15899934  0.74741643  1
  O  O49  1  0.48172526  0.33248756  0.74933146  1
  O  O50  1  0.87070572  0.54125447  0.74511003  1
  O  O51  1  0.68727437  0.54149153  0.24780387  1
  O  O52  1  0.86885059  0.33453123  0.24680717  1
  O  O53  1  0.48199563  0.15779081  0.25111944  1
  O  O54  1  0.63772568  0.49844931  0.92005696  1
  O  O55  1  0.86354587  0.36983479  0.92100988  1
  O  O56  1  0.51521866  0.16434890  0.92121606  1
  O  O57  1  0.64008143  0.13915929  0.41964066  1
  O  O58  1  0.51529554  0.34796146  0.42172670  1
  O  O59  1  0.86531891  0.49660901  0.42014986  1
  O  O60  1  0.36265582  0.50134770  0.08017744  1
  O  O61  1  0.15163218  0.67941436  0.08197902  1
  O  O62  1  0.53328191  0.87051672  0.07593765  1
  O  O63  1  0.35774689  0.86198118  0.57965634  1
  O  O64  1  0.53358852  0.66261008  0.57542281  1
  O  O65  1  0.15167498  0.47164799  0.57968842  1
  O  O66  1  0.30524374  0.80628191  0.25766550  1
  O  O67  1  0.52252458  0.67909610  0.25100185  1
  O  O68  1  0.16936388  0.46605122  0.25244889  1
  O  O69  1  0.29096557  0.48908032  0.76024601  1
  O  O70  1  0.16986551  0.70215508  0.75277173  1
  O  O71  1  0.50893700  0.82993719  0.74835024  1
loop_
_geom_bond_atom_site_label_1
_geom_bond_atom_site_label_2
_geom_bond_distance
_geom_bond_site_symmetry_2
Na0 O17 2.398547 1_555
Na0 O53 2.456679 1_555
Na0 O51 2.557780 1_555
Na0 O68 2.598580 1_555
Na0 O67 2.664113 1_555
Na0 O32 2.786102 1_555
Na1 O15 2.320423 1_455
Na1 O66 2.467465 1_555
Na1 O52 2.504123 1_455
Na1 O51 2.619813 1_455
Na1 O11 2.668662 1_555
Na1 O68 2.766419 1_555
Na1 O30 2.982991 1_555
Na2 O12 2.463991 1_555
Na2 O48 2.472495 1_555
Na2 O69 2.477918 1_655
Na2 O50 2.523647 1_555
Na2 O7 2.715780 1_655
Na3 O48 2.406622 1_555
Na3 O13 2.441859 1_555
Na3 O49 2.526583 1_555
Na3 O71 2.597230 1_545
Na3 O70 2.669421 1_545
Na3 O34 2.919773 1_545
Na4 O65 2.275377 1_555
Na4 O43 2.545091 1_555
Na4 O28 2.660632 1_555
Na4 O64 2.743822 1_555
Na4 O42 2.747086 1_455
Na4 O21 2.811747 1_555
Na4 O7 2.880925 1_555
Na5 O63 2.421948 1_555
Na5 O42 2.442598 1_565
Na5 O6 2.485825 1_555
Na5 O64 2.600061 1_555
Na5 O44 2.829167 1_555
Na5 O27 2.931798 1_555
Na5 O13 2.940825 1_565
Na6 O61 2.303186 1_555
Na6 O26 2.391198 1_554
Na6 O47 2.559122 1_565
Na6 O62 2.680461 1_555
Na6 O45 2.824420 1_455
Na6 O18 2.829982 1_565
Na6 O11 3.019521 1_555
Na7 O60 2.375332 1_555
Na7 O45 2.401031 1_555
Na7 O62 2.560251 1_555
Na7 O24 2.720608 1_554
Na7 O9 2.725811 1_555
Na7 O46 2.772070 1_565
Na7 O19 2.949847 1_555
Na8 O41 2.487914 1_555
Na8 O40 2.490588 1_655
Na8 O55 2.563763 1_555
Na8 O4 2.758413 1_555
Na8 O19 2.793716 1_556
Na8 O54 2.853704 1_555
Na8 O26 2.942909 1_655
Na8 O33 2.974931 1_655
Na9 O40 2.354709 1_545
Na9 O3 2.363331 1_555
Na9 O56 2.514555 1_555
Na9 O54 2.590734 1_555
Na9 O39 2.674089 1_555
Na9 O18 2.935067 1_556
Na9 O35 3.011849 1_555
Na10 O38 2.516542 1_655
Na10 O37 2.538391 1_545
Na10 O59 2.563959 1_555
Na10 O23 2.583866 1_555
Na10 O28 2.811978 1_655
Na10 O57 2.828655 1_555
Na10 O2 2.938056 1_555
Na11 O38 2.335383 1_555
Na11 O0 2.482610 1_555
Na11 O58 2.504407 1_555
Na11 O57 2.596144 1_555
Na11 O36 2.720515 1_545
Na11 O21 2.768892 1_555
Na12 O43 2.389589 1_555
Na12 O42 2.407663 1_455
Na12 O44 2.565981 1_445
Na12 O38 2.684443 1_555
Na12 O36 2.858402 1_545
Na12 O37 2.877990 1_445
Na13 O47 2.449629 1_556
Na13 O40 2.508914 1_545
Na13 O45 2.566935 1_446
Na13 O46 2.696037 1_456
Na13 O39 2.727328 1_555
Na13 O41 2.789816 1_445
Na14 O48 2.399398 1_555
Na14 O49 2.424795 1_555
Na14 O56 2.537030 1_555
Na14 O55 2.777244 1_555
Na14 O54 2.801089 1_555
Na14 O50 2.836220 1_555
Na15 O53 2.375765 1_555
Na15 O58 2.450487 1_555
Na15 O57 2.597283 1_555
Na15 O51 2.718777 1_555
Na15 O59 2.741114 1_555
Na15 O52 2.829695 1_555
Na16 O61 2.353957 1_555
Na16 O60 2.418944 1_555
Na16 O68 2.701490 1_555
Na16 O66 2.740130 1_555
Na16 O62 2.782622 1_555
Na16 O67 2.819702 1_555
Na17 O65 2.513510 1_555
Na17 O63 2.514358 1_555
Na17 O71 2.573131 1_555
Na17 O70 2.616041 1_555
Na17 O69 2.737106 1_555
Na17 O64 2.831975 1_555
Ca0 O0 2.122850 1_555
Ca0 O38 2.210751 1_555
Ca0 O1 2.233846 1_445
Ca0 O2 2.259612 1_455
Ca0 O36 2.305174 1_545
Ca0 O37 2.351746 1_445
Ca1 O5 2.104250 1_455
Ca1 O3 2.143452 1_555
Ca1 O4 2.252237 1_445
Ca1 O40 2.278285 1_545
Ca1 O39 2.339062 1_555
Ca1 O41 2.400205 1_445
Ca2 O13 2.147187 1_555
Ca2 O12 2.177449 1_555
Ca2 O14 2.239097 1_555
Ca2 O49 2.240209 1_555
Ca2 O48 2.272216 1_555
Ca2 O50 2.324774 1_555
Ca3 O17 2.135742 1_555
Ca3 O15 2.181295 1_555
Ca3 O16 2.203481 1_555
Ca3 O53 2.264259 1_555
Ca3 O52 2.355061 1_555
Ca3 O51 2.420447 1_555
Ca4 O26 2.144690 1_554
Ca4 O25 2.181052 1_554
Ca4 O60 2.205162 1_555
Ca4 O61 2.230539 1_555
Ca4 O24 2.341466 1_554
Ca4 O62 2.351916 1_555
Ca5 O28 2.155277 1_555
Ca5 O63 2.177313 1_555
Ca5 O65 2.184696 1_555
Ca5 O29 2.225902 1_555
Ca5 O64 2.320239 1_555
Ca5 O27 2.374592 1_555
O0 Si0 1.595679 1_545
O1 S0 1.450074 1_555
O2 S1 1.458888 1_655
O3 Si1 1.600808 1_555
O4 S2 1.461990 1_655
O5 Si2 1.564812 1_545
O6 Si2 1.700180 1_555
O6 Sn0 2.020966 1_665
O7 Si1 1.707679 1_555
O7 Sn0 2.024837 1_555
O8 S2 1.497458 1_555
O8 Sn0 2.334831 1_565
O9 S0 1.508359 1_555
O9 Sn1 2.387518 1_655
O10 S1 1.504035 1_555
O10 Sn1 2.338390 1_545
O11 Si0 1.721140 1_555
O11 Sn1 2.029988 1_555
O12 Si3 1.579458 1_555
O13 Si4 1.581846 1_555
O14 S3 1.444381 1_555
O15 Si5 1.592117 1_555
O16 S4 1.451770 1_555
O17 Si6 1.596133 1_555
O18 Si6 1.701314 1_555
O18 Sn2 2.021629 1_554
O19 Si5 1.715453 1_555
O19 Sn2 2.035164 1_554
O20 S4 1.509962 1_555
O20 Sn2 2.181888 1_554
O21 Si4 1.734701 1_555
O21 Sn3 2.011906 1_555
O22 S3 1.533400 1_555
O22 Sn3 2.109022 1_555
O23 Si3 1.752462 1_555
O23 Sn3 2.015642 1_555
O24 S5 1.458404 1_555
O25 S6 1.460970 1_555
O26 Si7 1.588860 1_555
O27 S7 1.448086 1_555
O28 Si8 1.577809 1_555
O29 S8 1.453679 1_555
O30 S8 1.541155 1_555
O30 Sn4 2.272357 1_555
O31 S7 1.529441 1_555
O31 Sn4 2.168565 1_555
O32 Si8 1.738424 1_555
O32 Sn4 2.026459 1_555
O33 S6 1.502547 1_555
O33 Sn5 2.474155 1_555
O34 Si7 1.703305 1_555
O34 Sn5 2.015255 1_555
O35 S5 1.506304 1_555
O35 Sn5 2.201134 1_555
O36 S8 1.469215 1_555
O37 S7 1.471267 1_555
O38 Si8 1.636081 1_555
O39 S6 1.466700 1_555
O40 Si7 1.633885 1_555
O41 S5 1.469201 1_555
O42 Si3 1.700935 1_555
O42 Sn0 2.085826 1_655
O43 Si4 1.685197 1_555
O43 Sn0 2.055920 1_555
O44 S3 1.486069 1_555
O44 Sn0 2.365027 1_665
O45 Si5 1.725533 1_555
O45 Sn1 2.041116 1_655
O46 S4 1.504082 1_555
O46 Sn1 2.306100 1_645
O47 Si6 1.700368 1_555
O47 Sn1 2.018231 1_545
O48 Si2 1.617120 1_545
O49 Si1 1.598790 1_555
O50 S2 1.460789 1_655
O51 S0 1.483329 1_555
O52 S1 1.466353 1_655
O53 Si0 1.607974 1_545
O54 S5 1.526189 1_555
O54 Sn2 2.295760 1_555
O55 S6 1.523853 1_655
O55 Sn2 2.316065 1_555
O56 Si7 1.709960 1_545
O56 Sn2 2.042942 1_555
O57 S7 1.516471 1_545
O57 Sn3 2.376061 1_555
O58 Si8 1.702096 1_555
O58 Sn3 2.066408 1_555
O59 S8 1.497133 1_655
O59 Sn3 2.472015 1_555
O60 Si6 1.603625 1_555
O61 Si5 1.605432 1_455
O62 S4 1.475459 1_565
O63 Si4 1.603606 1_565
O64 S3 1.476094 1_555
O65 Si3 1.607621 1_455
O66 Si0 1.724699 1_555
O66 Sn4 2.039582 1_555
O67 S0 1.522645 1_555
O67 Sn4 2.235913 1_555
O68 S1 1.538251 1_555
O68 Sn4 2.291684 1_555
O69 Si1 1.706988 1_555
O69 Sn5 2.009561 1_555
O70 S2 1.528896 1_555
O70 Sn5 2.233566 1_555
O71 Si2 1.687521 1_555
O71 Sn5 2.006158 1_555
