# generated using pymatgen
data_BaYbCo4O7
_symmetry_space_group_name_H-M   'P 1'
_cell_length_a   6.32436410
_cell_length_b   6.32436410
_cell_length_c   10.24361500
_cell_angle_alpha   90.00000000
_cell_angle_beta   90.00000000
_cell_angle_gamma   120.00000103
_symmetry_Int_Tables_number   1
_chemical_formula_structural   BaYbCo4O7
_chemical_formula_sum   'Ba2 Yb2 Co8 O14'
_cell_volume   354.82777166
_cell_formula_units_Z   2
loop_
 _symmetry_equiv_pos_site_id
 _symmetry_equiv_pos_as_xyz
  1  'x, y, z'
loop_
 _atom_site_type_symbol
 _atom_site_label
 _atom_site_symmetry_multiplicity
 _atom_site_fract_x
 _atom_site_fract_y
 _atom_site_fract_z
 _atom_site_occupancy
  Ba  Ba0  1  0.33333300  0.66666700  0.98126400  1
  Ba  Ba1  1  0.66666700  0.33333300  0.48126400  1
  Yb  Yb0  1  0.33333300  0.66666700  0.36215700  1
  Yb  Yb1  1  0.66666700  0.33333300  0.86215700  1
  Co  Co0  1  0.84927700  0.67272200  0.17835300  1
  Co  Co1  1  0.32727800  0.17655400  0.17835300  1
  Co  Co2  1  0.82344600  0.15072300  0.17835300  1
  Co  Co3  1  0.67272200  0.84927700  0.67835300  1
  Co  Co4  1  0.17655400  0.32727800  0.67835300  1
  Co  Co5  1  0.15072300  0.82344600  0.67835300  1
  Co  Co6  1  0.00000000  0.00000000  0.97549300  1
  Co  Co7  1  0.00000000  0.00000000  0.47549300  1
  O  O0  1  0.89000000  0.66780100  0.99321300  1
  O  O1  1  0.33219900  0.22219900  0.99321300  1
  O  O2  1  0.77780100  0.11000000  0.99321300  1
  O  O3  1  0.66780100  0.89000000  0.49321300  1
  O  O4  1  0.22219900  0.33219900  0.49321300  1
  O  O5  1  0.11000000  0.77780100  0.49321300  1
  O  O6  1  0.00000000  0.00000000  0.76034700  1
  O  O7  1  0.00000000  0.00000000  0.26034700  1
  O  O8  1  0.49309600  0.01487900  0.23558000  1
  O  O9  1  0.98512100  0.47821800  0.23558000  1
  O  O10  1  0.52178200  0.50690400  0.23558000  1
  O  O11  1  0.01487900  0.49309600  0.73558000  1
  O  O12  1  0.50690400  0.52178200  0.73558000  1
  O  O13  1  0.47821800  0.98512100  0.73558000  1
loop_
_geom_bond_atom_site_label_1
_geom_bond_atom_site_label_2
_geom_bond_distance
_geom_bond_site_symmetry_2
Ba0 O0 2.810059 1_455
Ba0 O2 2.810062 1_565
Ba0 O1 2.810065 1_555
Ba0 O13 3.063360 1_555
Ba0 O11 3.063360 1_555
Ba0 O12 3.063366 1_555
Ba0 O9 3.229889 1_456
Ba0 O8 3.229889 1_566
Ba0 O10 3.229889 1_556
Ba1 O3 2.810059 1_545
Ba1 O5 2.810062 1_655
Ba1 O4 2.810065 1_555
Ba1 O9 3.063360 1_555
Ba1 O8 3.063360 1_555
Ba1 O10 3.063366 1_555
Ba1 O13 3.229889 1_545
Ba1 O11 3.229889 1_655
Ba1 O12 3.229889 1_555
Co0 O10 1.887117 1_555
Co0 O9 1.910955 1_555
Co0 O0 1.916256 1_554
Co0 O7 1.981227 1_665
Co1 O8 1.887106 1_555
Co1 O10 1.910964 1_555
Co1 O1 1.916257 1_554
Co1 O7 1.981227 1_555
Co2 O9 1.887117 1_555
Co2 O8 1.910966 1_555
Co2 O2 1.916257 1_554
Co2 O7 1.981222 1_655
Co3 O12 1.887117 1_555
Co3 O13 1.910955 1_555
Co3 O3 1.916256 1_555
Co3 O6 1.981227 1_665
Co4 O11 1.887106 1_555
Co4 O12 1.910964 1_555
Co4 O4 1.916257 1_555
Co4 O6 1.981227 1_555
Co5 O13 1.887117 1_555
Co5 O11 1.910966 1_555
Co5 O5 1.916257 1_555
Co5 O6 1.981222 1_565
Co6 O1 1.862609 1_555
Co6 O0 1.862609 1_445
Co6 O2 1.862609 1_455
Co6 O6 2.203873 1_555
Co7 O4 1.862609 1_555
Co7 O3 1.862609 1_445
Co7 O5 1.862609 1_545
Co7 O7 2.203873 1_555
O0 Yb1 2.298698 1_555
O1 Yb1 2.298699 1_555
O2 Yb1 2.298694 1_555
O3 Yb0 2.298698 1_555
O4 Yb0 2.298699 1_555
O5 Yb0 2.298694 1_555
O8 Yb0 2.307974 1_545
O9 Yb0 2.307974 1_655
O10 Yb0 2.307974 1_555
O11 Yb1 2.307974 1_455
O12 Yb1 2.307974 1_555
O13 Yb1 2.307974 1_565
