# generated using pymatgen
data_Na15Ta2Zn10P9(SO8)9
_symmetry_space_group_name_H-M   'P 1'
_cell_length_a   8.93414050
_cell_length_b   8.91358708
_cell_length_c   22.37508112
_cell_angle_alpha   90.28296063
_cell_angle_beta   90.09498881
_cell_angle_gamma   119.99491654
_symmetry_Int_Tables_number   1
_chemical_formula_structural   Na15Ta2Zn10P9(SO8)9
_chemical_formula_sum   'Na15 Ta2 Zn10 P9 S9 O72'
_cell_volume   1543.16568562
_cell_formula_units_Z   1
loop_
 _symmetry_equiv_pos_site_id
 _symmetry_equiv_pos_as_xyz
  1  'x, y, z'
loop_
 _atom_site_type_symbol
 _atom_site_label
 _atom_site_symmetry_multiplicity
 _atom_site_fract_x
 _atom_site_fract_y
 _atom_site_fract_z
 _atom_site_occupancy
  Na  Na0  1  0.98966014  0.35232283  0.74833263  1
  Na  Na1  1  0.29973470  0.33325318  0.58427902  1
  Na  Na2  1  0.66898498  0.96823489  0.58538923  1
  Na  Na3  1  0.30040090  0.96721716  0.08514595  1
  Na  Na4  1  0.66863814  0.70035734  0.08695804  1
  Na  Na5  1  0.96974921  0.67120925  0.91414942  1
  Na  Na6  1  0.32685877  0.29201494  0.91472757  1
  Na  Na7  1  0.33339315  0.04026089  0.41304344  1
  Na  Na8  1  0.70017468  0.66772448  0.41461774  1
  Na  Na9  1  0.99966445  0.00533212  0.49782837  1
  Na  Na10  1  0.99710743  0.01548437  0.99777751  1
  Na  Na11  1  0.65917005  0.32047420  0.82938829  1
  Na  Na12  1  0.66589150  0.32957728  0.32857858  1
  Na  Na13  1  0.32506866  0.65954716  0.16519146  1
  Na  Na14  1  0.33320768  0.67508961  0.66453768  1
  Ta  Ta0  1  0.34406126  0.67166505  0.31141148  1
  Ta  Ta1  1  0.33217881  0.67420852  0.81177090  1
  Zn  Zn0  1  0.00140311  0.00793280  0.34556806  1
  Zn  Zn1  1  0.00239674  0.00616641  0.84430722  1
  Zn  Zn2  1  0.99887162  0.99336873  0.66079589  1
  Zn  Zn3  1  0.99950598  0.99840852  0.15995702  1
  Zn  Zn4  1  0.66128839  0.33474067  0.68892410  1
  Zn  Zn5  1  0.65889978  0.33134152  0.18868940  1
  Zn  Zn6  1  0.67336302  0.31745892  0.98071169  1
  Zn  Zn7  1  0.66650198  0.32787269  0.48151253  1
  Zn  Zn8  1  0.32203641  0.66119493  0.01279840  1
  Zn  Zn9  1  0.33259495  0.66413510  0.51188498  1
  P  P0  1  0.29502581  0.00355412  0.25068214  1
  P  P1  1  0.71299621  0.70478420  0.25040332  1
  P  P2  1  0.29810139  0.29382110  0.75060637  1
  P  P3  1  0.99389263  0.70684692  0.75153525  1
  P  P4  1  0.70786695  0.00089991  0.74910711  1
  P  P5  1  0.04031432  0.37094338  0.91705829  1
  P  P6  1  0.33422412  0.96231322  0.91942508  1
  P  P7  1  0.63069543  0.96189101  0.41894974  1
  P  P8  1  0.32864740  0.37099981  0.41834773  1
  S  S0  1  0.99889198  0.29462476  0.25044801  1
  S  S1  1  0.96117952  0.33624678  0.58342844  1
  S  S2  1  0.37073831  0.03774623  0.58263237  1
  S  S3  1  0.67039952  0.62768955  0.58245641  1
  S  S4  1  0.95824261  0.62372703  0.08312249  1
  S  S5  1  0.67020129  0.04101417  0.08409835  1
  S  S6  1  0.37233450  0.33404328  0.08225151  1
  S  S7  1  0.62616563  0.67014395  0.91821757  1
  S  S8  1  0.04233734  0.66431897  0.41692755  1
  O  O0  1  0.21353109  0.02567354  0.30755080  1
  O  O1  1  0.81312913  0.78813014  0.30778007  1
  O  O2  1  0.97385027  0.19274860  0.30426456  1
  O  O3  1  0.21869218  0.19183324  0.80750545  1
  O  O4  1  0.97132534  0.78221017  0.80976864  1
  O  O5  1  0.82191249  0.03248026  0.80348419  1
  O  O6  1  0.77121694  0.96010121  0.69056581  1
  O  O7  1  0.18137330  0.22805374  0.69408515  1
  O  O8  1  0.03750049  0.81712094  0.69600250  1
  O  O9  1  0.77588116  0.81347522  0.19322047  1
  O  O10  1  0.03802712  0.22619553  0.19635862  1
  O  O11  1  0.18747550  0.96357297  0.19283808  1
  O  O12  1  0.88333610  0.35802252  0.63853253  1
  O  O13  1  0.48475233  0.12127731  0.63474447  1
  O  O14  1  0.64160249  0.51586703  0.63435243  1
  O  O15  1  0.87456301  0.51780878  0.13563284  1
  O  O16  1  0.63955855  0.12183806  0.13668556  1
  O  O17  1  0.48440301  0.36342887  0.13482930  1
  O  O18  1  0.44917852  0.30511564  0.02690424  1
  O  O19  1  0.85364756  0.54784787  0.02732564  1
  O  O20  1  0.69384340  0.14145836  0.02917647  1
  O  O21  1  0.44652637  0.14283453  0.52707504  1
  O  O22  1  0.69095237  0.54950394  0.52622963  1
  O  O23  1  0.85053308  0.30754091  0.53020218  1
  O  O24  1  0.54962665  0.69371840  0.97322816  1
  O  O25  1  0.15802893  0.45323167  0.97125093  1
  O  O26  1  0.30552249  0.85323296  0.97549984  1
  O  O27  1  0.54939588  0.85124997  0.47488021  1
  O  O28  1  0.30385657  0.44951406  0.47581353  1
  O  O29  1  0.14959306  0.69546885  0.47054399  1
  O  O30  1  0.13069430  0.64277174  0.36306747  1
  O  O31  1  0.50158139  0.85943258  0.36387837  1
  O  O32  1  0.35273709  0.49726896  0.36416004  1
  O  O33  1  0.13772758  0.49413114  0.86081431  1
  O  O34  1  0.35525470  0.86013140  0.86424150  1
  O  O35  1  0.50944402  0.64398134  0.86518347  1
  O  O36  1  0.02439431  0.82102456  0.41102963  1
  O  O37  1  0.80421720  0.97093282  0.40963648  1
  O  O38  1  0.17433102  0.18783296  0.41028364  1
  O  O39  1  0.02394152  0.19291999  0.90930680  1
  O  O40  1  0.16904737  0.97456991  0.91147259  1
  O  O41  1  0.80002467  0.82021023  0.91123328  1
  O  O42  1  0.97911309  0.17642830  0.58658617  1
  O  O43  1  0.19875247  0.02496521  0.58862788  1
  O  O44  1  0.82261483  0.80541022  0.58743508  1
  O  O45  1  0.97651417  0.80198165  0.08732673  1
  O  O46  1  0.82311728  0.01622739  0.08934378  1
  O  O47  1  0.19885828  0.17567027  0.08854028  1
  O  O48  1  0.68531447  0.16029397  0.74345172  1
  O  O49  1  0.47906130  0.32264135  0.74363301  1
  O  O50  1  0.84844818  0.51781302  0.74510392  1
  O  O51  1  0.68227228  0.52148587  0.24449591  1
  O  O52  1  0.85113612  0.32180107  0.24359525  1
  O  O53  1  0.47947567  0.15459090  0.24495759  1
  O  O54  1  0.63593809  0.50761413  0.91994879  1
  O  O55  1  0.86812910  0.37245232  0.91925750  1
  O  O56  1  0.49519488  0.14425987  0.91992193  1
  O  O57  1  0.63303771  0.13575816  0.41978111  1
  O  O58  1  0.50088303  0.36575876  0.41895417  1
  O  O59  1  0.86834976  0.50919725  0.42003338  1
  O  O60  1  0.35991479  0.49525162  0.07745745  1
  O  O61  1  0.13723096  0.64994676  0.07902317  1
  O  O62  1  0.51021637  0.86235749  0.07890735  1
  O  O63  1  0.35620085  0.86340591  0.57693414  1
  O  O64  1  0.50953163  0.64509046  0.57927302  1
  O  O65  1  0.13879785  0.49017728  0.57824528  1
  O  O66  1  0.30961587  0.82980815  0.26069459  1
  O  O67  1  0.52126740  0.68573179  0.25983708  1
  O  O68  1  0.16188865  0.47498892  0.25939118  1
  O  O69  1  0.31134619  0.48111288  0.76065731  1
  O  O70  1  0.16609215  0.68582289  0.75947919  1
  O  O71  1  0.52179456  0.83399132  0.76049285  1
loop_
_geom_bond_atom_site_label_1
_geom_bond_atom_site_label_2
_geom_bond_distance
_geom_bond_site_symmetry_2
Na0 O50 2.373668 1_555
Na0 O48 2.383024 1_555
Na0 O69 2.519759 1_655
Na0 O70 2.586506 1_655
Na0 O12 2.642435 1_555
Na0 O7 2.743076 1_655
Na0 O5 2.768685 1_555
Na0 O33 2.822692 1_655
Na1 O43 2.428743 1_555
Na1 O64 2.458964 1_555
Na1 O65 2.460528 1_555
Na1 O42 2.481853 1_455
Na1 O28 2.636706 1_555
Na1 O7 2.659682 1_555
Na1 O14 2.869382 1_555
Na1 O21 2.906677 1_555
Na2 O42 2.445350 1_565
Na2 O44 2.446346 1_555
Na2 O63 2.470556 1_555
Na2 O64 2.497496 1_555
Na2 O6 2.537405 1_555
Na2 O27 2.682294 1_555
Na2 O13 2.832984 1_565
Na2 O23 2.905425 1_565
Na3 O47 2.442413 1_565
Na3 O61 2.452568 1_555
Na3 O62 2.481595 1_555
Na3 O45 2.506950 1_455
Na3 O11 2.607921 1_555
Na3 O26 2.659978 1_554
Na3 O16 2.864961 1_565
Na3 O18 2.928856 1_565
Na4 O45 2.427979 1_555
Na4 O60 2.438763 1_555
Na4 O46 2.438834 1_565
Na4 O62 2.483151 1_555
Na4 O9 2.567221 1_555
Na4 O24 2.745222 1_554
Na4 O17 2.823317 1_555
Na4 O19 2.931959 1_555
Na5 O55 2.348380 1_555
Na5 O40 2.381967 1_655
Na5 O41 2.466093 1_555
Na5 O4 2.538275 1_555
Na5 O54 2.586967 1_555
Na5 O19 2.755635 1_556
Na5 O33 2.919498 1_655
Na5 O26 2.934925 1_655
Na6 O39 2.393067 1_555
Na6 O56 2.447705 1_555
Na6 O40 2.451210 1_545
Na6 O54 2.454133 1_555
Na6 O3 2.568136 1_555
Na6 O18 2.714447 1_556
Na6 O25 2.845209 1_555
Na6 O35 2.942083 1_555
Na7 O38 2.371302 1_555
Na7 O57 2.373385 1_555
Na7 O36 2.459012 1_545
Na7 O58 2.515788 1_555
Na7 O0 2.566037 1_555
Na7 O21 2.722491 1_555
Na7 O31 2.911283 1_545
Na7 O29 2.966020 1_545
Na8 O58 2.373982 1_555
Na8 O37 2.381676 1_555
Na8 O36 2.511659 1_655
Na8 O59 2.528389 1_555
Na8 O1 2.614418 1_555
Na8 O22 2.700688 1_555
Na8 O32 2.911053 1_555
Na8 O27 2.914852 1_555
Na9 O38 2.534143 1_655
Na9 O37 2.546420 1_545
Na9 O42 2.560254 1_555
Na9 O36 2.617715 1_645
Na9 O44 2.631533 1_545
Na9 O43 2.644844 1_655
Na10 O39 2.476057 1_655
Na10 O46 2.575787 1_556
Na10 O41 2.602083 1_545
Na10 O40 2.604764 1_645
Na10 O47 2.607267 1_656
Na10 O45 2.712756 1_546
Na11 O48 2.469461 1_555
Na11 O49 2.508497 1_555
Na11 O56 2.541120 1_555
Na11 O50 2.565043 1_555
Na11 O55 2.618557 1_555
Na11 O54 2.691777 1_555
Na12 O53 2.463915 1_555
Na12 O51 2.503887 1_555
Na12 O52 2.546252 1_555
Na12 O57 2.600950 1_555
Na12 O58 2.616343 1_555
Na12 O59 2.661263 1_555
Na13 O61 2.526836 1_555
Na13 O60 2.554337 1_555
Na13 O62 2.605127 1_555
Na13 O68 2.630717 1_555
Na13 O66 2.658386 1_555
Na13 O67 2.680567 1_555
Na14 O63 2.528045 1_555
Na14 O65 2.560571 1_555
Na14 O64 2.572721 1_555
Na14 O70 2.627239 1_555
Na14 O71 2.650747 1_555
Na14 O69 2.711753 1_555
O0 P0 1.527158 1_555
O0 Zn0 2.011799 1_555
O1 P1 1.524028 1_555
O1 Zn0 2.016603 1_665
O2 S0 1.460550 1_555
O2 Zn0 2.012028 1_655
O3 P2 1.523208 1_555
O3 Zn1 1.993071 1_555
O4 P3 1.522268 1_555
O4 Zn1 2.022201 1_665
O5 P4 1.517718 1_555
O5 Zn1 1.965908 1_655
O6 P4 1.540090 1_565
O6 Zn2 2.017868 1_555
O7 P2 1.551662 1_555
O7 Zn2 2.039509 1_445
O8 P3 1.514153 1_455
O8 Zn2 1.939359 1_455
O9 P1 1.536788 1_555
O9 Zn3 1.996747 1_555
O10 S0 1.471850 1_455
O10 Zn3 2.046565 1_445
O11 P0 1.540889 1_565
O11 Zn3 1.994350 1_455
O12 S1 1.475459 1_555
O12 Zn4 2.201805 1_555
O13 S2 1.476726 1_555
O13 Zn4 2.132577 1_555
O14 S3 1.471067 1_555
O14 Zn4 2.105021 1_555
O15 S4 1.462484 1_555
O15 Zn5 2.170113 1_555
O16 S5 1.472533 1_555
O16 Zn5 2.127515 1_555
O17 S6 1.478482 1_555
O17 Zn5 2.099414 1_555
O18 S6 1.499370 1_555
O18 Zn6 2.208983 1_554
O19 S4 1.498396 1_555
O19 Zn6 2.136696 1_554
O20 S5 1.476145 1_555
O20 Zn6 1.993410 1_554
O21 S2 1.503774 1_555
O21 Zn7 2.098652 1_555
O22 S3 1.490713 1_555
O22 Zn7 2.121275 1_555
O23 S1 1.483642 1_555
O23 Zn7 2.053511 1_555
O24 S7 1.473326 1_555
O24 Zn8 2.102734 1_556
O25 P5 1.526452 1_555
O25 Zn8 1.926170 1_556
O26 P6 1.532698 1_555
O26 Zn8 1.978521 1_556
O27 P7 1.537951 1_555
O27 Zn9 2.001986 1_555
O28 P8 1.529431 1_555
O28 Zn9 1.967239 1_555
O29 S8 1.470171 1_555
O29 Zn9 2.015158 1_555
O30 S8 1.504929 1_555
O30 Ta0 2.134336 1_555
O31 P7 1.616761 1_555
O31 Ta0 1.944217 1_555
O32 P8 1.598527 1_555
O32 Ta0 1.988404 1_555
O33 P5 1.615134 1_555
O33 Ta1 2.008559 1_555
O34 P6 1.596939 1_555
O34 Ta1 1.950813 1_555
O35 S7 1.516564 1_555
O35 Ta1 2.105367 1_555
O36 S8 1.489906 1_555
O36 Zn0 2.308345 1_565
O37 P7 1.526291 1_555
O37 Zn0 2.167824 1_665
O38 P8 1.531215 1_555
O38 Zn0 2.132521 1_555
O39 P5 1.527945 1_555
O39 Zn1 2.139644 1_555
O40 P6 1.543322 1_555
O40 Zn1 2.229486 1_565
O41 S7 1.466912 1_555
O41 Zn1 2.301281 1_665
O42 S1 1.513006 1_555
O42 Zn2 2.400945 1_545
O43 S2 1.489214 1_555
O43 Zn2 2.320976 1_445
O44 S3 1.488303 1_555
O44 Zn2 2.303782 1_555
O45 S4 1.516312 1_555
O45 Zn3 2.315147 1_555
O46 S5 1.493498 1_555
O46 Zn3 2.291165 1_545
O47 S6 1.493256 1_555
O47 Zn3 2.332978 1_445
O48 P4 1.537244 1_555
O48 Zn4 2.074625 1_555
O49 P2 1.513308 1_555
O49 Zn4 1.998242 1_555
O50 P3 1.534980 1_555
O50 Zn4 2.069670 1_555
O51 P1 1.520397 1_555
O51 Zn5 2.024783 1_555
O52 S0 1.464308 1_555
O52 Zn5 2.146219 1_555
O53 P0 1.525995 1_555
O53 Zn5 2.034213 1_555
O54 S7 1.494969 1_555
O54 Zn6 2.328313 1_555
O55 P5 1.545957 1_655
O55 Zn6 2.078611 1_555
O56 P6 1.538293 1_545
O56 Zn6 2.069363 1_555
O57 P7 1.539445 1_545
O57 Zn7 2.095952 1_555
O58 P8 1.562695 1_555
O58 Zn7 2.181776 1_555
O59 S8 1.478261 1_655
O59 Zn7 2.207387 1_555
O60 S6 1.499843 1_555
O60 Zn8 2.217091 1_555
O61 S4 1.499067 1_455
O61 Zn8 2.185374 1_555
O62 S5 1.521264 1_565
O62 Zn8 2.276207 1_555
O63 S2 1.498072 1_565
O63 Zn9 2.217375 1_555
O64 S3 1.522293 1_555
O64 Zn9 2.250356 1_555
O65 S1 1.496463 1_455
O65 Zn9 2.225705 1_555
O66 P0 1.634265 1_565
O66 Ta0 1.953937 1_555
O67 P1 1.648706 1_555
O67 Ta0 1.913865 1_555
O68 S0 1.549314 1_455
O68 Ta0 2.048856 1_555
O69 P2 1.627974 1_555
O69 Ta1 1.991135 1_555
O70 P3 1.649618 1_455
O70 Ta1 1.931452 1_555
O71 P4 1.604421 1_565
O71 Ta1 1.955736 1_555
