# generated using pymatgen
data_Tl2GeTe5
_symmetry_space_group_name_H-M   'P 1'
_cell_length_a   8.44875779
_cell_length_b   8.44875779
_cell_length_c   15.06317285
_cell_angle_alpha   90.00000000
_cell_angle_beta   90.00000000
_cell_angle_gamma   90.00000000
_symmetry_Int_Tables_number   1
_chemical_formula_structural   Tl2GeTe5
_chemical_formula_sum   'Tl8 Ge4 Te20'
_cell_volume   1075.23199622
_cell_formula_units_Z   4
loop_
 _symmetry_equiv_pos_site_id
 _symmetry_equiv_pos_as_xyz
  1  'x, y, z'
loop_
 _atom_site_type_symbol
 _atom_site_label
 _atom_site_symmetry_multiplicity
 _atom_site_fract_x
 _atom_site_fract_y
 _atom_site_fract_z
 _atom_site_occupancy
  Tl  Tl0  1  -0.00000000  0.00000000  0.62068401  1
  Tl  Tl1  1  0.50000000  0.50000000  0.37931599  1
  Tl  Tl2  1  -0.00000000  0.00000000  0.37931599  1
  Tl  Tl3  1  0.50000000  0.50000000  0.62068401  1
  Tl  Tl4  1  -0.00000000  0.00000000  0.87785733  1
  Tl  Tl5  1  0.50000000  0.50000000  0.12214267  1
  Tl  Tl6  1  -0.00000000  0.00000000  0.12214267  1
  Tl  Tl7  1  0.50000000  0.50000000  0.87785733  1
  Ge  Ge0  1  0.50000000  0.00000000  0.38157574  1
  Ge  Ge1  1  0.50000000  0.00000000  0.61842426  1
  Ge  Ge2  1  -0.00000000  0.50000000  0.38157574  1
  Ge  Ge3  1  -0.00000000  0.50000000  0.61842426  1
  Te  Te0  1  0.68617920  0.18617920  0.00000000  1
  Te  Te1  1  0.31382080  0.81382080  0.00000000  1
  Te  Te2  1  0.83514392  0.33514392  0.50000000  1
  Te  Te3  1  0.16485608  0.66485608  0.50000000  1
  Te  Te4  1  0.18617920  0.31382080  0.00000000  1
  Te  Te5  1  0.81382080  0.68617920  0.00000000  1
  Te  Te6  1  0.50000000  0.00000000  0.12800520  1
  Te  Te7  1  0.50000000  0.00000000  0.87199480  1
  Te  Te8  1  -0.00000000  0.50000000  0.12800520  1
  Te  Te9  1  -0.00000000  0.50000000  0.87199480  1
  Te  Te10  1  0.17667791  0.32332209  0.71920053  1
  Te  Te11  1  0.82332209  0.67667791  0.71920053  1
  Te  Te12  1  0.82332209  0.67667791  0.28079947  1
  Te  Te13  1  0.17667791  0.32332209  0.28079947  1
  Te  Te14  1  0.32332209  0.82332209  0.71920053  1
  Te  Te15  1  0.67667791  0.17667791  0.71920053  1
  Te  Te16  1  0.32332209  0.82332209  0.28079947  1
  Te  Te17  1  0.67667791  0.17667791  0.28079947  1
  Te  Te18  1  0.33514392  0.16485608  0.50000000  1
  Te  Te19  1  0.66485608  0.83514392  0.50000000  1
loop_
_geom_bond_atom_site_label_1
_geom_bond_atom_site_label_2
_geom_bond_distance
_geom_bond_site_symmetry_2
Ge0 Te16 2.600138 1_545
Ge0 Te17 2.600138 1_555
Ge0 Te19 2.657452 1_545
Ge0 Te18 2.657452 1_555
Ge1 Te14 2.600138 1_545
Ge1 Te15 2.600138 1_555
Ge1 Te18 2.657452 1_555
Ge1 Te19 2.657452 1_545
Ge2 Te13 2.600138 1_555
Ge2 Te12 2.600138 1_455
Ge2 Te3 2.657452 1_555
Ge2 Te2 2.657452 1_455
Ge3 Te10 2.600138 1_555
Ge3 Te11 2.600138 1_455
Ge3 Te3 2.657452 1_555
Ge3 Te2 2.657452 1_455
Te0 Te6 2.943870 1_555
Te0 Te7 2.943870 1_554
Te0 Tl7 3.590160 1_554
Te0 Tl6 3.590160 1_655
Te0 Tl5 3.590160 1_555
Te0 Tl4 3.590160 1_654
Te1 Te6 2.943870 1_565
Te1 Te7 2.943870 1_564
Te1 Tl6 3.590160 1_565
Te1 Tl7 3.590160 1_554
Te1 Tl4 3.590160 1_564
Te1 Tl5 3.590160 1_555
Te4 Te8 2.943870 1_555
Te4 Te9 2.943870 1_554
Te4 Tl4 3.590160 1_554
Te4 Tl7 3.590160 1_554
Te4 Tl5 3.590160 1_555
Te4 Tl6 3.590160 1_555
Te5 Te9 2.943870 1_654
Te5 Te8 2.943870 1_655
Te5 Tl7 3.590160 1_554
Te5 Tl6 3.590160 1_665
Te5 Tl5 3.590160 1_555
Te5 Tl4 3.590160 1_664
Te10 Te9 3.123070 1_555
Te10 Tl3 3.448532 1_555
Te10 Tl0 3.448532 1_555
Te11 Te9 3.123070 1_655
Te11 Tl3 3.448532 1_555
Te11 Tl0 3.448532 1_665
Te12 Te8 3.123070 1_655
Te12 Tl1 3.448532 1_555
Te12 Tl2 3.448532 1_665
Te13 Te8 3.123070 1_555
Te13 Tl2 3.448532 1_555
Te13 Tl1 3.448532 1_555
Te14 Te7 3.123070 1_565
Te14 Tl0 3.448532 1_565
Te14 Tl3 3.448532 1_555
Te15 Te7 3.123070 1_555
Te15 Tl3 3.448532 1_555
Te15 Tl0 3.448532 1_655
Te16 Te6 3.123070 1_565
Te16 Tl2 3.448532 1_565
Te16 Tl1 3.448532 1_555
Te17 Te6 3.123070 1_555
Te17 Tl2 3.448532 1_655
Te17 Tl1 3.448532 1_555
