# generated using pymatgen
data_Na3Ta2Ti2Si3(PO8)3
_symmetry_space_group_name_H-M   'P 1'
_cell_length_a   8.80269305
_cell_length_b   8.78288624
_cell_length_c   22.57920673
_cell_angle_alpha   90.12489414
_cell_angle_beta   89.88128587
_cell_angle_gamma   119.84797559
_symmetry_Int_Tables_number   1
_chemical_formula_structural   Na3Ta2Ti2Si3(PO8)3
_chemical_formula_sum   'Na9 Ta6 Ti6 Si9 P9 O72'
_cell_volume   1514.09830583
_cell_formula_units_Z   3
loop_
 _symmetry_equiv_pos_site_id
 _symmetry_equiv_pos_as_xyz
  1  'x, y, z'
loop_
 _atom_site_type_symbol
 _atom_site_label
 _atom_site_symmetry_multiplicity
 _atom_site_fract_x
 _atom_site_fract_y
 _atom_site_fract_z
 _atom_site_occupancy
  Na  Na0  1  0.00048973  0.63281774  0.25065840  1
  Na  Na1  1  0.66620430  0.96503719  0.58407002  1
  Na  Na2  1  0.66639140  0.70071214  0.08270337  1
  Na  Na3  1  0.00744320  0.00092805  0.50167202  1
  Na  Na4  1  0.00633389  0.00627083  0.00090994  1
  Na  Na5  1  0.66805547  0.33451582  0.83334937  1
  Na  Na6  1  0.66114536  0.32801042  0.33196022  1
  Na  Na7  1  0.33333362  0.66677607  0.16671899  1
  Na  Na8  1  0.32763606  0.66248324  0.66548148  1
  Ta  Ta0  1  0.99669689  0.99565732  0.35498441  1
  Ta  Ta1  1  0.99183897  0.99609627  0.85521241  1
  Ta  Ta2  1  0.66701261  0.33040267  0.68817633  1
  Ta  Ta3  1  0.67040099  0.33767772  0.97887923  1
  Ta  Ta4  1  0.66377241  0.33201577  0.47779372  1
  Ta  Ta5  1  0.33316387  0.66607349  0.81161336  1
  Ti  Ti0  1  0.00586744  0.99379369  0.64857863  1
  Ti  Ti1  1  0.99778486  0.99659691  0.14797239  1
  Ti  Ti2  1  0.66892531  0.33665595  0.18543436  1
  Ti  Ti3  1  0.32426220  0.66074848  0.01848408  1
  Ti  Ti4  1  0.32936969  0.67361552  0.51818055  1
  Ti  Ti5  1  0.34223297  0.67133056  0.31524799  1
  Si  Si0  1  0.70346381  0.70864243  0.24872746  1
  Si  Si1  1  0.00043896  0.71174515  0.74965186  1
  Si  Si2  1  0.71370258  0.99800564  0.74784377  1
  Si  Si3  1  0.36869731  0.04096066  0.58320719  1
  Si  Si4  1  0.96344503  0.62502750  0.08477336  1
  Si  Si5  1  0.61704644  0.66620081  0.91860310  1
  Si  Si6  1  0.04770083  0.37921151  0.91703000  1
  Si  Si7  1  0.61761771  0.95092578  0.41728575  1
  Si  Si8  1  0.04923444  0.66584340  0.41514169  1
  P  P0  1  0.29200563  0.00372960  0.24905916  1
  P  P1  1  0.00059421  0.28781416  0.24882830  1
  P  P2  1  0.28411818  0.28399031  0.74939558  1
  P  P3  1  0.96012540  0.33595161  0.58296600  1
  P  P4  1  0.66585010  0.62272988  0.58352399  1
  P  P5  1  0.66621450  0.04545498  0.08459388  1
  P  P6  1  0.37455006  0.32925371  0.08432193  1
  P  P7  1  0.33295081  0.95254559  0.91761885  1
  P  P8  1  0.33237289  0.38386289  0.41696173  1
  O  O0  1  0.20346047  0.03177827  0.30478392  1
  O  O1  1  0.83825510  0.80317622  0.30545788  1
  O  O2  1  0.97285853  0.17229509  0.30462547  1
  O  O3  1  0.20470863  0.17296001  0.80527375  1
  O  O4  1  0.97130019  0.80409162  0.80767363  1
  O  O5  1  0.83551590  0.03310040  0.80679278  1
  O  O6  1  0.80249440  0.97109477  0.68896521  1
  O  O7  1  0.17161131  0.20219932  0.69433858  1
  O  O8  1  0.03231302  0.83578531  0.69185832  1
  O  O9  1  0.80262184  0.83238062  0.19076321  1
  O  O10  1  0.02802299  0.19800727  0.19435659  1
  O  O11  1  0.16850576  0.96902048  0.19521739  1
  O  O12  1  0.86859497  0.36415957  0.63812217  1
  O  O13  1  0.50258420  0.13570884  0.63956185  1
  O  O14  1  0.64012617  0.50568241  0.63815478  1
  O  O15  1  0.86396938  0.50088931  0.14259913  1
  O  O16  1  0.63862580  0.13545242  0.13900934  1
  O  O17  1  0.49828909  0.36445642  0.13810708  1
  O  O18  1  0.46298834  0.30137821  0.02856154  1
  O  O19  1  0.82867577  0.53047877  0.02804510  1
  O  O20  1  0.69378142  0.16085714  0.02884112  1
  O  O21  1  0.47117842  0.16744515  0.52624833  1
  O  O22  1  0.69581192  0.53468869  0.52838711  1
  O  O23  1  0.83629181  0.30399920  0.52886520  1
  O  O24  1  0.53292367  0.69851402  0.97785970  1
  O  O25  1  0.16930280  0.47358598  0.97482548  1
  O  O26  1  0.30253121  0.83806653  0.97235022  1
  O  O27  1  0.53410681  0.83370344  0.47675682  1
  O  O28  1  0.30260830  0.46452923  0.47274833  1
  O  O29  1  0.17041366  0.69682719  0.47395683  1
  O  O30  1  0.13352131  0.63411887  0.35576705  1
  O  O31  1  0.49672280  0.86042127  0.35927205  1
  O  O32  1  0.36463369  0.49537123  0.36117205  1
  O  O33  1  0.13455033  0.50153126  0.85900865  1
  O  O34  1  0.36435771  0.86994382  0.86142293  1
  O  O35  1  0.49926554  0.63707001  0.85977957  1
  O  O36  1  0.03003536  0.84220823  0.40857109  1
  O  O37  1  0.81496826  0.97891576  0.40800472  1
  O  O38  1  0.17212849  0.19756487  0.40819608  1
  O  O39  1  0.03001413  0.18723130  0.90995871  1
  O  O40  1  0.17190607  0.97552541  0.90917819  1
  O  O41  1  0.81405259  0.83611044  0.91004529  1
  O  O42  1  0.96689189  0.16613959  0.58936165  1
  O  O43  1  0.17925449  0.02544065  0.59054230  1
  O  O44  1  0.82830945  0.80727502  0.58940782  1
  O  O45  1  0.97159493  0.81508044  0.09184904  1
  O  O46  1  0.83208283  0.02630924  0.09046012  1
  O  O47  1  0.19324144  0.16807286  0.09166633  1
  O  O48  1  0.69111818  0.17224610  0.74203113  1
  O  O49  1  0.47065542  0.30835016  0.74152898  1
  O  O50  1  0.82601886  0.52017462  0.74129416  1
  O  O51  1  0.69508206  0.51833883  0.24151904  1
  O  O52  1  0.83460755  0.30706558  0.24292946  1
  O  O53  1  0.47335960  0.16523788  0.24167572  1
  O  O54  1  0.63779367  0.49112089  0.92487071  1
  O  O55  1  0.85127670  0.35364999  0.92566939  1
  O  O56  1  0.49682292  0.13606466  0.92495811  1
  O  O57  1  0.64142469  0.14731326  0.42471108  1
  O  O58  1  0.49713421  0.36165374  0.42432879  1
  O  O59  1  0.85291626  0.49802291  0.42555248  1
  O  O60  1  0.36627373  0.50073945  0.07736342  1
  O  O61  1  0.15473858  0.64511815  0.07602417  1
  O  O62  1  0.50663467  0.86031359  0.07774007  1
  O  O63  1  0.36250588  0.85177556  0.57622578  1
  O  O64  1  0.50190668  0.64187446  0.57736528  1
  O  O65  1  0.14051427  0.49883842  0.57620255  1
  O  O66  1  0.30044132  0.83255519  0.25601197  1
  O  O67  1  0.51215009  0.68844684  0.25747995  1
  O  O68  1  0.15992297  0.47292321  0.25568243  1
  O  O69  1  0.30714799  0.47013651  0.75686998  1
  O  O70  1  0.17236441  0.69028059  0.75679921  1
  O  O71  1  0.52002995  0.82837181  0.75744675  1
loop_
_geom_bond_atom_site_label_1
_geom_bond_atom_site_label_2
_geom_bond_distance
_geom_bond_site_symmetry_2
Na0 O66 2.335263 1_555
Na0 O51 2.364704 1_455
Na0 O68 2.432667 1_555
Na0 O52 2.487692 1_455
Na0 O30 2.646119 1_555
Na0 O15 2.711759 1_455
Na0 O1 2.814383 1_455
Na0 O11 2.852188 1_555
Na1 O42 2.342364 1_565
Na1 O63 2.349864 1_555
Na1 O44 2.437254 1_555
Na1 O64 2.466482 1_555
Na1 O6 2.645639 1_555
Na1 O27 2.686670 1_555
Na1 O13 2.832796 1_565
Na1 O23 2.868784 1_565
Na2 O60 2.336742 1_555
Na2 O45 2.363190 1_555
Na2 O62 2.432837 1_555
Na2 O46 2.486542 1_565
Na2 O24 2.640739 1_554
Na2 O9 2.710711 1_555
Na2 O19 2.812466 1_555
Na2 O17 2.852182 1_555
Na3 O43 2.459028 1_555
Na3 O44 2.576005 1_445
Na3 O42 2.579399 1_455
Na3 O36 2.581337 1_545
Na3 O38 2.655181 1_555
Na3 O37 2.658567 1_445
Na4 O39 2.543517 1_554
Na4 O47 2.568978 1_555
Na4 O45 2.575016 1_445
Na4 O46 2.593538 1_455
Na4 O41 2.605907 1_444
Na4 O40 2.619919 1_544
Na5 O54 2.565772 1_555
Na5 O48 2.568514 1_555
Na5 O50 2.580420 1_555
Na5 O55 2.591775 1_555
Na5 O56 2.641233 1_555
Na5 O49 2.643084 1_555
Na6 O51 2.563007 1_555
Na6 O53 2.565329 1_555
Na6 O52 2.582966 1_555
Na6 O57 2.583299 1_555
Na6 O58 2.632668 1_555
Na6 O59 2.652745 1_555
Na7 O61 2.532837 1_555
Na7 O67 2.535160 1_555
Na7 O66 2.583247 1_555
Na7 O62 2.583403 1_555
Na7 O68 2.584397 1_555
Na7 O60 2.585910 1_555
Na8 O63 2.534529 1_555
Na8 O65 2.546990 1_555
Na8 O70 2.549003 1_555
Na8 O64 2.570357 1_555
Na8 O71 2.616887 1_555
Na8 O69 2.618166 1_555
O0 P0 1.561103 1_555
O0 Ta0 2.028886 1_445
O1 Si0 1.661033 1_555
O1 Ta0 1.924818 1_555
O2 P1 1.560117 1_655
O2 Ta0 2.019031 1_545
O3 P2 1.534474 1_555
O3 Ta1 2.072954 1_445
O4 Si1 1.625117 1_655
O4 Ta1 1.928230 1_555
O5 Si2 1.640596 1_545
O5 Ta1 1.909813 1_545
O6 Si2 1.616283 1_555
O6 Ti0 1.927431 1_655
O7 P2 1.528172 1_555
O7 Ti0 1.971376 1_545
O8 Si1 1.633661 1_555
O8 Ti0 1.806513 1_555
O9 Si0 1.647154 1_555
O9 Ti1 1.870266 1_555
O10 P1 1.541842 1_555
O10 Ti1 1.954827 1_445
O11 P0 1.557787 1_565
O11 Ti1 1.955792 1_455
O12 P3 1.566756 1_555
O12 Ta2 1.995851 1_555
O13 Si3 1.651052 1_555
O13 Ta2 1.938725 1_555
O14 P4 1.549941 1_555
O14 Ta2 2.018160 1_555
O15 Si4 1.646631 1_555
O15 Ti2 1.870273 1_555
O16 P5 1.542394 1_555
O16 Ti2 1.953632 1_555
O17 P6 1.557396 1_555
O17 Ti2 1.957189 1_555
O18 P6 1.560594 1_555
O18 Ta3 2.026627 1_554
O19 Si4 1.660923 1_555
O19 Ta3 1.921135 1_554
O20 P5 1.558968 1_555
O20 Ta3 2.013334 1_554
O21 Si3 1.644929 1_555
O21 Ta4 1.928832 1_555
O22 P4 1.553971 1_555
O22 Ta4 2.011432 1_555
O23 P3 1.568030 1_555
O23 Ta4 2.019164 1_555
O24 Si5 1.619408 1_555
O24 Ti3 1.926933 1_556
O25 Si6 1.629022 1_555
O25 Ti3 1.816900 1_556
O26 P7 1.531625 1_555
O26 Ti3 1.962519 1_556
O27 Si7 1.628523 1_555
O27 Ti4 1.891085 1_555
O28 P8 1.528643 1_555
O28 Ti4 2.010543 1_555
O29 Si8 1.640379 1_555
O29 Ti4 1.813046 1_555
O30 Si8 1.620325 1_555
O30 Ti5 1.927661 1_555
O31 Si7 1.624631 1_555
O31 Ti5 1.829180 1_555
O32 P8 1.534166 1_555
O32 Ti5 1.952852 1_555
O33 Si6 1.624615 1_555
O33 Ta5 1.942771 1_555
O34 P7 1.551432 1_555
O34 Ta5 2.012335 1_555
O35 Si5 1.626240 1_555
O35 Ta5 1.940120 1_555
O36 Si8 1.646705 1_555
O36 Ta0 1.941322 1_455
O37 Si7 1.641915 1_555
O37 Ta0 1.942304 1_555
O38 P8 1.551933 1_555
O38 Ta0 2.060465 1_445
O39 Si6 1.621858 1_555
O39 Ta1 1.972353 1_445
O40 P7 1.540394 1_555
O40 Ta1 2.079395 1_455
O41 Si5 1.641809 1_555
O41 Ta1 1.940905 1_555
O42 P3 1.529116 1_555
O42 Ti0 2.173572 1_645
O43 Si3 1.612331 1_555
O43 Ti0 1.922231 1_545
O44 P4 1.543527 1_555
O44 Ti0 2.088531 1_655
O45 Si4 1.642142 1_555
O45 Ti1 1.956310 1_555
O46 P5 1.556588 1_555
O46 Ti1 2.066450 1_545
O47 P6 1.526338 1_555
O47 Ti1 2.065130 1_445
O48 Si2 1.643925 1_545
O48 Ta2 1.937789 1_555
O49 P2 1.556550 1_555
O49 Ta2 2.033589 1_555
O50 Si1 1.628585 1_655
O50 Ta2 1.962567 1_555
O51 Si0 1.643677 1_555
O51 Ti2 1.956934 1_555
O52 P1 1.558220 1_655
O52 Ti2 2.065559 1_555
O53 P0 1.527840 1_555
O53 Ti2 2.064521 1_555
O54 Si5 1.642718 1_555
O54 Ta3 1.944063 1_555
O55 Si6 1.640276 1_655
O55 Ta3 1.941310 1_555
O56 P7 1.546523 1_545
O56 Ta3 2.063399 1_555
O57 Si7 1.638966 1_545
O57 Ta4 1.944659 1_555
O58 P8 1.565873 1_555
O58 Ta4 2.016324 1_555
O59 Si8 1.636636 1_655
O59 Ta4 1.967816 1_555
O60 P6 1.552016 1_555
O60 Ti3 2.099211 1_555
O61 Si4 1.615143 1_455
O61 Ti3 1.929371 1_555
O62 P5 1.538653 1_565
O62 Ti3 2.153435 1_555
O63 Si3 1.642393 1_565
O63 Ti4 1.946686 1_555
O64 P4 1.540373 1_555
O64 Ti4 2.145169 1_555
O65 P3 1.526481 1_455
O65 Ti4 2.072671 1_555
O66 P0 1.550029 1_565
O66 Ti5 2.111439 1_555
O67 Si0 1.614950 1_555
O67 Ti5 1.931346 1_555
O68 P1 1.537628 1_555
O68 Ti5 2.153133 1_555
O69 P2 1.552903 1_555
O69 Ta5 2.035037 1_555
O70 Si1 1.623923 1_555
O70 Ta5 1.971933 1_555
O71 Si2 1.626279 1_555
O71 Ta5 1.974537 1_555
