# generated using pymatgen
data_Tm3TlC
_symmetry_space_group_name_H-M   'P 1'
_cell_length_a   5.53238500
_cell_length_b   5.53238500
_cell_length_c   5.53238500
_cell_angle_alpha   90.00000000
_cell_angle_beta   90.00000000
_cell_angle_gamma   90.00000000
_symmetry_Int_Tables_number   1
_chemical_formula_structural   Tm3TlC
_chemical_formula_sum   'Tm3 Tl1 C1'
_cell_volume   169.33127772
_cell_formula_units_Z   1
loop_
 _symmetry_equiv_pos_site_id
 _symmetry_equiv_pos_as_xyz
  1  'x, y, z'
loop_
 _atom_site_type_symbol
 _atom_site_label
 _atom_site_symmetry_multiplicity
 _atom_site_fract_x
 _atom_site_fract_y
 _atom_site_fract_z
 _atom_site_occupancy
  Tm  Tm0  1  0.00000000  0.50000000  0.50000000  1
  Tm  Tm1  1  0.50000000  0.50000000  0.00000000  1
  Tm  Tm2  1  0.50000000  0.00000000  0.50000000  1
  Tl  Tl0  1  0.50000000  0.50000000  0.50000000  1
  C  C0  1  0.00000000  0.00000000  0.00000000  1
loop_
_geom_bond_atom_site_label_1
_geom_bond_atom_site_label_2
_geom_bond_distance
_geom_bond_site_symmetry_2
Tl0 Tm1 2.766192 1_556
Tl0 Tm2 2.766192 1_555
Tl0 Tm1 2.766192 1_555
Tl0 Tm2 2.766192 1_565
Tl0 Tm0 2.766192 1_555
Tl0 Tm0 2.766192 1_655
