# generated using pymatgen
data_Na3YMg3(SO4)6
_symmetry_space_group_name_H-M   'P 1'
_cell_length_a   8.82751036
_cell_length_b   8.82669585
_cell_length_c   23.02117610
_cell_angle_alpha   89.95537921
_cell_angle_beta   90.06446349
_cell_angle_gamma   120.01040938
_symmetry_Int_Tables_number   1
_chemical_formula_structural   Na3YMg3(SO4)6
_chemical_formula_sum   'Na9 Y3 Mg9 S18 O72'
_cell_volume   1553.27618747
_cell_formula_units_Z   3
loop_
 _symmetry_equiv_pos_site_id
 _symmetry_equiv_pos_as_xyz
  1  'x, y, z'
loop_
 _atom_site_type_symbol
 _atom_site_label
 _atom_site_symmetry_multiplicity
 _atom_site_fract_x
 _atom_site_fract_y
 _atom_site_fract_z
 _atom_site_occupancy
  Na  Na0  1  0.63526435  0.99801927  0.24805854  1
  Na  Na1  1  0.36383365  0.36306429  0.24757996  1
  Na  Na2  1  0.02566611  0.69366196  0.58875841  1
  Na  Na3  1  0.99853470  0.01573358  0.49879706  1
  Na  Na4  1  0.99986264  0.99876403  0.99769145  1
  Na  Na5  1  0.66557192  0.33200433  0.82685373  1
  Na  Na6  1  0.68586305  0.35093160  0.33285778  1
  Na  Na7  1  0.31619353  0.66511188  0.15741869  1
  Na  Na8  1  0.35111269  0.66503467  0.66542152  1
  Y  Y0  1  0.66660080  0.33327005  0.98440318  1
  Y  Y1  1  0.66161755  0.32780780  0.48115339  1
  Y  Y2  1  0.33265017  0.66664724  0.81133285  1
  Mg  Mg0  1  0.99958666  0.99547079  0.35152529  1
  Mg  Mg1  1  0.00006788  0.00065239  0.84885284  1
  Mg  Mg2  1  0.99974880  0.00603848  0.65193211  1
  Mg  Mg3  1  0.00038269  0.99638099  0.15008450  1
  Mg  Mg4  1  0.66239763  0.32919850  0.68561540  1
  Mg  Mg5  1  0.67473443  0.34059473  0.17808049  1
  Mg  Mg6  1  0.33328098  0.66678249  0.01659281  1
  Mg  Mg7  1  0.34075843  0.66586428  0.51508497  1
  Mg  Mg8  1  0.32520660  0.66577692  0.31745311  1
  S  S0  1  0.29319359  0.99943890  0.25043876  1
  S  S1  1  0.70755020  0.70525945  0.25068665  1
  S  S2  1  0.99906721  0.29161385  0.25052683  1
  S  S3  1  0.29512514  0.28246698  0.74799106  1
  S  S4  1  0.98759638  0.70478619  0.74595680  1
  S  S5  1  0.71751730  0.01252860  0.74784333  1
  S  S6  1  0.96918266  0.33423963  0.58574393  1
  S  S7  1  0.36267323  0.02902234  0.58649325  1
  S  S8  1  0.66647972  0.63523673  0.58632707  1
  S  S9  1  0.97402189  0.64002930  0.08657852  1
  S  S10  1  0.66583668  0.02589769  0.08903236  1
  S  S11  1  0.36009231  0.33420066  0.08893595  1
  S  S12  1  0.63680462  0.67961595  0.91813360  1
  S  S13  1  0.04257414  0.36283925  0.91814539  1
  S  S14  1  0.32019037  0.95723126  0.91804246  1
  S  S15  1  0.62860931  0.95091937  0.41258752  1
  S  S16  1  0.32254091  0.37131736  0.41266775  1
  S  S17  1  0.04784225  0.67746631  0.41679170  1
  O  O0  1  0.21205343  0.02802346  0.30215248  1
  O  O1  1  0.81059349  0.78500159  0.30347347  1
  O  O2  1  0.96814570  0.18040127  0.30228783  1
  O  O3  1  0.21030859  0.18739004  0.80154688  1
  O  O4  1  0.97773176  0.79535266  0.79793709  1
  O  O5  1  0.81300667  0.02356757  0.80144849  1
  O  O6  1  0.80133344  0.99342916  0.69564463  1
  O  O7  1  0.19275218  0.19800491  0.69574608  1
  O  O8  1  0.00509496  0.80255340  0.69171383  1
  O  O9  1  0.78907259  0.81600324  0.19935533  1
  O  O10  1  0.03005809  0.21083736  0.19915561  1
  O  O11  1  0.18985846  0.97679456  0.19797991  1
  O  O12  1  0.87943762  0.36329295  0.63480086  1
  O  O13  1  0.47447794  0.11865297  0.63625636  1
  O  O14  1  0.64296101  0.52298619  0.63649345  1
  O  O15  1  0.88587654  0.52770515  0.13764646  1
  O  O16  1  0.64376561  0.11127954  0.14216159  1
  O  O17  1  0.46745426  0.35591669  0.14209243  1
  O  O18  1  0.44645145  0.30977835  0.03738303  1
  O  O19  1  0.86820077  0.56032724  0.03341791  1
  O  O20  1  0.69088565  0.13712601  0.03743756  1
  O  O21  1  0.43833832  0.13098048  0.53204907  1
  O  O22  1  0.69914079  0.55683594  0.53303621  1
  O  O23  1  0.86472886  0.30641072  0.53151959  1
  O  O24  1  0.54599915  0.69146122  0.97011190  1
  O  O25  1  0.14551988  0.45418706  0.97008248  1
  O  O26  1  0.30885283  0.85469334  0.97003318  1
  O  O27  1  0.53823393  0.85066673  0.46469649  1
  O  O28  1  0.31153496  0.46114711  0.46480884  1
  O  O29  1  0.13990968  0.68792200  0.47177186  1
  O  O30  1  0.13621846  0.65838568  0.36571654  1
  O  O31  1  0.53039938  0.87057592  0.35842478  1
  O  O32  1  0.34175702  0.47017050  0.35850390  1
  O  O33  1  0.12222135  0.46633991  0.86475859  1
  O  O34  1  0.34364844  0.87747110  0.86466978  1
  O  O35  1  0.53336522  0.65631354  0.86474465  1
  O  O36  1  0.02984283  0.83496280  0.41182143  1
  O  O37  1  0.80498403  0.97029265  0.41010867  1
  O  O38  1  0.16514431  0.19514101  0.40979079  1
  O  O39  1  0.02758901  0.18901205  0.91316156  1
  O  O40  1  0.16133913  0.97223348  0.91289874  1
  O  O41  1  0.81108991  0.83802018  0.91306360  1
  O  O42  1  0.99312275  0.18199757  0.59239468  1
  O  O43  1  0.18327167  0.00419679  0.59175303  1
  O  O44  1  0.82666450  0.81048221  0.59188452  1
  O  O45  1  0.99314674  0.81522938  0.09315828  1
  O  O46  1  0.82226002  0.00704080  0.09434527  1
  O  O47  1  0.18475048  0.17768405  0.09403254  1
  O  O48  1  0.69844346  0.16981708  0.74383837  1
  O  O49  1  0.47165835  0.30189697  0.74434035  1
  O  O50  1  0.83049349  0.52824241  0.74319379  1
  O  O51  1  0.68006981  0.52465039  0.24396861  1
  O  O52  1  0.83999214  0.30835762  0.24314413  1
  O  O53  1  0.47333783  0.16073966  0.24495005  1
  O  O54  1  0.65784284  0.52154757  0.92161595  1
  O  O55  1  0.86306439  0.34085654  0.92156591  1
  O  O56  1  0.47794574  0.13659942  0.92152049  1
  O  O57  1  0.64787822  0.13018319  0.41569907  1
  O  O58  1  0.48262796  0.35235397  0.41611036  1
  O  O59  1  0.86773494  0.51766736  0.41811409  1
  O  O60  1  0.34653983  0.49373981  0.08181437  1
  O  O61  1  0.14790481  0.65487294  0.07982887  1
  O  O62  1  0.50603731  0.85304231  0.08179439  1
  O  O63  1  0.34258655  0.85113417  0.57995680  1
  O  O64  1  0.51034852  0.65354670  0.57805497  1
  O  O65  1  0.14212768  0.49813961  0.57870157  1
  O  O66  1  0.32085230  0.84639082  0.25675289  1
  O  O67  1  0.52729302  0.68615129  0.25577797  1
  O  O68  1  0.15795327  0.46763619  0.25739433  1
  O  O69  1  0.31624491  0.46268697  0.74945594  1
  O  O70  1  0.14714192  0.68510541  0.74835349  1
  O  O71  1  0.53742069  0.85337596  0.74944302  1
loop_
_geom_bond_atom_site_label_1
_geom_bond_atom_site_label_2
_geom_bond_distance
_geom_bond_site_symmetry_2
Na0 O66 2.412387 1_555
Na0 O52 2.414619 1_565
Na0 O67 2.427511 1_555
Na0 O53 2.482847 1_565
Na0 O16 2.621040 1_565
Na0 O31 2.745356 1_555
Na0 O9 2.805352 1_555
Na0 O2 2.836874 1_565
Na1 O51 2.419009 1_555
Na1 O53 2.419609 1_555
Na1 O68 2.425963 1_555
Na1 O67 2.476766 1_555
Na1 O17 2.607872 1_555
Na1 O32 2.764380 1_555
Na1 O10 2.786433 1_555
Na1 O0 2.855452 1_555
Na2 O43 2.374628 1_565
Na2 O65 2.421762 1_555
Na2 O63 2.431203 1_555
Na2 O44 2.442690 1_455
Na2 O8 2.598756 1_555
Na2 O12 2.743377 1_455
Na2 O22 2.815006 1_455
Na2 O29 2.886209 1_555
Na3 O38 2.557593 1_655
Na3 O37 2.560583 1_545
Na3 O42 2.621862 1_555
Na3 O36 2.660606 1_645
Na3 O43 2.721600 1_655
Na3 O44 2.725470 1_545
Na4 O41 2.493490 1_555
Na4 O40 2.497599 1_655
Na4 O39 2.500299 1_665
Na4 O45 2.712333 1_556
Na4 O47 2.737852 1_666
Na4 O46 2.745356 1_566
Na5 O49 2.479421 1_555
Na5 O48 2.491387 1_555
Na5 O50 2.511506 1_555
Na5 O56 2.759038 1_555
Na5 O55 2.766761 1_555
Na5 O54 2.771828 1_555
Na6 O59 2.495910 1_555
Na6 O51 2.571889 1_555
Na6 O52 2.603245 1_555
Na6 O57 2.624528 1_555
Na6 O58 2.631039 1_555
Na6 O53 2.698090 1_555
Na7 O61 2.294691 1_555
Na7 O60 2.408256 1_555
Na7 O62 2.410877 1_555
Na7 O66 2.780479 1_555
Na7 O68 2.802151 1_555
Na7 O67 2.877379 1_555
Na8 O64 2.486093 1_555
Na8 O71 2.544173 1_555
Na8 O69 2.544280 1_555
Na8 O63 2.587141 1_555
Na8 O65 2.614735 1_555
Na8 O70 2.691791 1_555
Mg0 O1 2.087343 1_555
Mg0 O0 2.087432 1_665
Mg0 O36 2.092830 1_655
Mg0 O37 2.107641 1_555
Mg0 O38 2.112808 1_665
Mg0 O2 2.115643 1_565
Mg1 O5 2.070821 1_455
Mg1 O3 2.070976 1_555
Mg1 O4 2.083732 1_445
Mg1 O39 2.148020 1_555
Mg1 O40 2.148358 1_545
Mg1 O41 2.153010 1_445
Mg2 O6 1.975258 1_545
Mg2 O7 1.975402 1_655
Mg2 O8 2.036926 1_645
Mg2 O42 2.093236 1_555
Mg2 O43 2.139058 1_655
Mg2 O44 2.141424 1_545
Mg3 O45 2.044291 1_455
Mg3 O47 2.066647 1_565
Mg3 O46 2.066653 1_465
Mg3 O11 2.080392 1_555
Mg3 O9 2.081373 1_455
Mg3 O10 2.105860 1_565
Mg4 O49 2.078343 1_555
Mg4 O48 2.078658 1_555
Mg4 O13 2.100465 1_555
Mg4 O50 2.106406 1_555
Mg4 O14 2.127017 1_555
Mg4 O12 2.134834 1_555
Mg5 O15 1.997588 1_555
Mg5 O17 2.072845 1_555
Mg5 O16 2.074617 1_555
Mg5 O52 2.205059 1_555
Mg5 O51 2.206681 1_555
Mg5 O53 2.286883 1_555
Mg6 O26 2.073868 1_554
Mg6 O25 2.074329 1_554
Mg6 O24 2.076889 1_554
Mg6 O61 2.154343 1_555
Mg6 O62 2.184567 1_555
Mg6 O60 2.185389 1_555
Mg7 O27 2.049973 1_555
Mg7 O28 2.051247 1_555
Mg7 O64 2.124184 1_555
Mg7 O29 2.125250 1_555
Mg7 O65 2.194718 1_555
Mg7 O63 2.209572 1_555
Mg8 O30 1.979179 1_555
Mg8 O32 2.035908 1_555
Mg8 O31 2.040051 1_555
Mg8 O66 2.133878 1_555
Mg8 O68 2.136922 1_555
Mg8 O67 2.216986 1_555
O0 S0 1.475525 1_545
O1 S1 1.469002 1_555
O2 S2 1.479496 1_555
O3 S3 1.468632 1_555
O4 S4 1.466271 1_555
O5 S5 1.469220 1_555
O6 S5 1.465254 1_565
O7 S3 1.464265 1_555
O8 S4 1.480986 1_455
O9 S1 1.471824 1_555
O10 S2 1.476129 1_455
O11 S0 1.464928 1_555
O12 S6 1.474619 1_555
O13 S7 1.459521 1_555
O14 S8 1.466816 1_555
O15 S9 1.482939 1_555
O16 S10 1.500250 1_555
O17 S11 1.499496 1_555
O18 S11 1.484238 1_555
O18 Y0 2.215649 1_554
O19 S9 1.485482 1_555
O19 Y0 2.210927 1_554
O20 S10 1.484993 1_555
O20 Y0 2.213907 1_554
O21 S7 1.491916 1_555
O21 Y1 2.202876 1_555
O22 S8 1.506254 1_555
O22 Y1 2.226224 1_555
O23 S6 1.496710 1_555
O23 Y1 2.220030 1_555
O24 S12 1.473607 1_555
O25 S13 1.473648 1_555
O26 S14 1.472984 1_555
O27 S15 1.467274 1_555
O28 S16 1.468935 1_555
O29 S17 1.481180 1_555
O30 S17 1.467420 1_555
O31 S15 1.480943 1_555
O32 S16 1.481767 1_555
O33 S13 1.482269 1_555
O33 Y2 2.192193 1_555
O34 S14 1.481885 1_555
O34 Y2 2.191471 1_555
O35 S12 1.482129 1_555
O35 Y2 2.194573 1_555
O36 S17 1.480401 1_555
O37 S15 1.480017 1_555
O38 S16 1.480446 1_555
O39 S13 1.477164 1_555
O40 S14 1.477579 1_555
O41 S12 1.477803 1_555
O42 S6 1.468866 1_555
O43 S7 1.491289 1_555
O44 S8 1.490134 1_555
O45 S9 1.477181 1_555
O46 S10 1.476090 1_555
O47 S11 1.476237 1_555
O48 S5 1.482542 1_555
O49 S3 1.482516 1_555
O50 S4 1.481153 1_555
O51 S1 1.495873 1_555
O52 S2 1.493196 1_555
O53 S0 1.518956 1_545
O54 S12 1.498849 1_555
O54 Y0 2.231949 1_555
O55 S13 1.499190 1_655
O55 Y0 2.234763 1_555
O56 S14 1.498930 1_545
O56 Y0 2.233648 1_555
O57 S15 1.506214 1_545
O57 Y1 2.262775 1_555
O58 S16 1.505886 1_555
O58 Y1 2.263220 1_555
O59 S17 1.508309 1_655
O59 Y1 2.275327 1_555
O60 S11 1.480658 1_555
O61 S9 1.482135 1_455
O62 S10 1.480697 1_565
O63 S7 1.497100 1_565
O64 S8 1.477883 1_555
O65 S6 1.496933 1_455
O66 S0 1.495075 1_555
O67 S1 1.518584 1_555
O68 S2 1.492044 1_455
O69 S3 1.506578 1_555
O69 Y2 2.243638 1_555
O70 S4 1.503772 1_455
O70 Y2 2.251991 1_555
O71 S5 1.506081 1_565
O71 Y2 2.244083 1_555
