# generated using pymatgen
data_Pt2PbO4
_symmetry_space_group_name_H-M   'P 1'
_cell_length_a   5.56775711
_cell_length_b   6.15495838
_cell_length_c   6.68889403
_cell_angle_alpha   115.47690863
_cell_angle_beta   97.07809732
_cell_angle_gamma   108.79728516
_symmetry_Int_Tables_number   1
_chemical_formula_structural   Pt2PbO4
_chemical_formula_sum   'Pt4 Pb2 O8'
_cell_volume   186.47685038
_cell_formula_units_Z   2
loop_
 _symmetry_equiv_pos_site_id
 _symmetry_equiv_pos_as_xyz
  1  'x, y, z'
loop_
 _atom_site_type_symbol
 _atom_site_label
 _atom_site_symmetry_multiplicity
 _atom_site_fract_x
 _atom_site_fract_y
 _atom_site_fract_z
 _atom_site_occupancy
  Pt  Pt0  1  0.50000000  0.50000000  0.50000000  1
  Pt  Pt1  1  0.00000000  0.00000000  0.50000000  1
  Pt  Pt2  1  0.50000000  0.50000000  0.00000000  1
  Pt  Pt3  1  0.50000000  0.00000000  0.50000000  1
  Pb  Pb0  1  0.85775814  0.24888424  0.13867523  1
  Pb  Pb1  1  0.14224186  0.75111576  0.86132477  1
  O  O0  1  0.52000958  0.86032173  0.72405545  1
  O  O1  1  0.47999042  0.13967827  0.27594455  1
  O  O2  1  0.83662722  0.83455250  0.15632796  1
  O  O3  1  0.16337278  0.16544750  0.84367204  1
  O  O4  1  0.87503321  0.65680820  0.49623893  1
  O  O5  1  0.12496679  0.34319180  0.50376107  1
  O  O6  1  0.36564667  0.60623783  0.27589838  1
  O  O7  1  0.63435333  0.39376217  0.72410162  1
loop_
_geom_bond_atom_site_label_1
_geom_bond_atom_site_label_2
_geom_bond_distance
_geom_bond_site_symmetry_2
O0 Pt0 2.029085 1_555
O0 Pt3 2.031400 1_565
O0 Pb1 2.411347 1_555
O0 Pb0 2.656647 1_566
O1 Pt0 2.029085 1_555
O1 Pt3 2.031400 1_555
O1 Pb0 2.411347 1_555
O1 Pb1 2.656647 1_544
O2 Pt1 2.005662 1_665
O2 Pt2 2.005957 1_555
O2 Pb0 2.569124 1_565
O2 Pb1 2.751665 1_654
O3 Pt1 2.005662 1_555
O3 Pt2 2.005957 1_556
O3 Pb1 2.569124 1_545
O3 Pb0 2.751665 1_456
O4 Pt1 1.987337 1_665
O4 Pt0 2.006828 1_555
O4 Pb1 2.417117 1_655
O4 Pb0 2.579732 1_555
O5 Pt1 1.987337 1_555
O5 Pt0 2.006828 1_555
O5 Pb0 2.417117 1_455
O5 Pb1 2.579732 1_555
O6 Pt2 2.002535 1_555
O6 Pt3 2.027375 1_565
O6 Pt0 2.028852 1_555
O6 Pb0 2.700370 1_455
O7 Pt2 2.002535 1_556
O7 Pt3 2.027375 1_555
O7 Pt0 2.028852 1_555
O7 Pb1 2.700370 1_655
