# generated using pymatgen
data_NaHfAlP2SO12
_symmetry_space_group_name_H-M   'P 1'
_cell_length_a   8.65389977
_cell_length_b   8.62309258
_cell_length_c   22.52266485
_cell_angle_alpha   91.03976613
_cell_angle_beta   90.00000000
_cell_angle_gamma   120.11825250
_symmetry_Int_Tables_number   1
_chemical_formula_structural   NaHfAlP2SO12
_chemical_formula_sum   'Na6 Hf6 Al6 P12 S6 O72'
_cell_volume   1453.48646500
_cell_formula_units_Z   6
loop_
 _symmetry_equiv_pos_site_id
 _symmetry_equiv_pos_as_xyz
  1  'x, y, z'
loop_
 _atom_site_type_symbol
 _atom_site_label
 _atom_site_symmetry_multiplicity
 _atom_site_fract_x
 _atom_site_fract_y
 _atom_site_fract_z
 _atom_site_occupancy
  Na  Na0  1  0.98707114  0.99103560  0.50385660  1
  Na  Na1  1  0.00396446  0.99103560  0.00385660  1
  Na  Na2  1  0.65373814  0.32436860  0.83718960  1
  Na  Na3  1  0.67063146  0.32436860  0.33718960  1
  Na  Na4  1  0.32040414  0.65770260  0.17052360  1
  Na  Na5  1  0.33729746  0.65770260  0.67052360  1
  Hf  Hf0  1  0.99947281  0.00244672  0.35458522  1
  Hf  Hf1  1  0.00297392  0.00244672  0.85458522  1
  Hf  Hf2  1  0.66613981  0.33577972  0.68791822  1
  Hf  Hf3  1  0.66964092  0.33577972  0.18791822  1
  Hf  Hf4  1  0.33280581  0.66911372  0.02125222  1
  Hf  Hf5  1  0.33630692  0.66911372  0.52125222  1
  Al  Al0  1  0.98384663  0.00990578  0.64711719  1
  Al  Al1  1  0.02605915  0.00990578  0.14711719  1
  Al  Al2  1  0.65051363  0.34323878  0.98045019  1
  Al  Al3  1  0.69272615  0.34323878  0.48045019  1
  Al  Al4  1  0.31717963  0.67657278  0.31378419  1
  Al  Al5  1  0.35939215  0.67657278  0.81378419  1
  P  P0  1  0.28490470  0.99067193  0.24905052  1
  P  P1  1  0.01470555  0.29428599  0.24856967  1
  P  P2  1  0.27958044  0.29428599  0.74856967  1
  P  P3  1  0.70576722  0.99067193  0.74905052  1
  P  P4  1  0.95157170  0.32400493  0.58238352  1
  P  P5  1  0.68137255  0.62761899  0.58190267  1
  P  P6  1  0.94624744  0.62761899  0.08190267  1
  P  P7  1  0.37243422  0.32400493  0.08238352  1
  P  P8  1  0.61823770  0.65733893  0.91571752  1
  P  P9  1  0.34803855  0.96095299  0.91523667  1
  P  P10  1  0.61291344  0.96095299  0.41523667  1
  P  P11  1  0.03910022  0.65733893  0.41571752  1
  S  S0  1  0.70407402  0.71763499  0.24838009  1
  S  S1  1  0.01356097  0.71763499  0.74838009  1
  S  S2  1  0.37074102  0.05096799  0.58171309  1
  S  S3  1  0.68022797  0.05096799  0.08171309  1
  S  S4  1  0.03740702  0.38430199  0.91504709  1
  S  S5  1  0.34689397  0.38430199  0.41504709  1
  O  O0  1  0.20233225  0.02318642  0.30509537  1
  O  O1  1  0.81429681  0.79400674  0.30294740  1
  O  O2  1  0.97740715  0.17905209  0.30436114  1
  O  O3  1  0.20164494  0.17905209  0.80436114  1
  O  O4  1  0.97970992  0.79400674  0.80294740  1
  O  O5  1  0.82085417  0.02318642  0.80509537  1
  O  O6  1  0.79304902  0.96290178  0.69381212  1
  O  O7  1  0.16459213  0.19778528  0.69336241  1
  O  O8  1  0.03290769  0.82375683  0.69604625  1
  O  O9  1  0.79084914  0.82375683  0.19604625  1
  O  O10  1  0.03319315  0.19778528  0.19336241  1
  O  O11  1  0.16985276  0.96290178  0.19381212  1
  O  O12  1  0.86899925  0.35651942  0.63842837  1
  O  O13  1  0.48096381  0.12733974  0.63628040  1
  O  O14  1  0.64407415  0.51238509  0.63769414  1
  O  O15  1  0.86831194  0.51238509  0.13769414  1
  O  O16  1  0.64637692  0.12733974  0.13628040  1
  O  O17  1  0.48752117  0.35651942  0.13842837  1
  O  O18  1  0.45971602  0.29623478  0.02714512  1
  O  O19  1  0.83125913  0.53111828  0.02669541  1
  O  O20  1  0.69957469  0.15708983  0.02937925  1
  O  O21  1  0.45751614  0.15708983  0.52937925  1
  O  O22  1  0.69986015  0.53111828  0.52669541  1
  O  O23  1  0.83651976  0.29623478  0.52714512  1
  O  O24  1  0.53566525  0.68985342  0.97176237  1
  O  O25  1  0.14762981  0.46067374  0.96961440  1
  O  O26  1  0.31074015  0.84571909  0.97102814  1
  O  O27  1  0.53497794  0.84571909  0.47102814  1
  O  O28  1  0.31304292  0.46067374  0.46961440  1
  O  O29  1  0.15418717  0.68985342  0.47176237  1
  O  O30  1  0.12638202  0.62956878  0.36047912  1
  O  O31  1  0.49792513  0.86445228  0.36002941  1
  O  O32  1  0.36624069  0.49042383  0.36271325  1
  O  O33  1  0.12418214  0.49042383  0.86271325  1
  O  O34  1  0.36652615  0.86445228  0.86002941  1
  O  O35  1  0.50318576  0.62956878  0.86047912  1
  O  O36  1  0.01842194  0.82539698  0.41005916  1
  O  O37  1  0.80335729  0.98507628  0.40927273  1
  O  O38  1  0.18324763  0.20211228  0.41096899  1
  O  O39  1  0.01886465  0.20211228  0.91096899  1
  O  O40  1  0.18171899  0.98507628  0.90927273  1
  O  O41  1  0.80697504  0.82539698  0.91005916  1
  O  O42  1  0.97109748  0.15745292  0.59040778  1
  O  O43  1  0.19310738  0.03013635  0.58985953  1
  O  O44  1  0.84955564  0.81315504  0.59224782  1
  O  O45  1  0.96359940  0.81315504  0.09224782  1
  O  O46  1  0.83702897  0.03013635  0.08985953  1
  O  O47  1  0.18635544  0.15745292  0.09040778  1
  O  O48  1  0.68508894  0.15872998  0.74339216  1
  O  O49  1  0.47002429  0.31840928  0.74260573  1
  O  O50  1  0.84991463  0.53544528  0.74430199  1
  O  O51  1  0.68553165  0.53544528  0.24430199  1
  O  O52  1  0.84838599  0.31840928  0.24260573  1
  O  O53  1  0.47364204  0.15872998  0.24339216  1
  O  O54  1  0.63776448  0.49078592  0.92374078  1
  O  O55  1  0.85977438  0.36346935  0.92319253  1
  O  O56  1  0.51622264  0.14648804  0.92558082  1
  O  O57  1  0.63026640  0.14648804  0.42558082  1
  O  O58  1  0.50369597  0.36346935  0.42319253  1
  O  O59  1  0.85302244  0.49078592  0.42374078  1
  O  O60  1  0.35175494  0.49206398  0.07672616  1
  O  O61  1  0.13669029  0.65174328  0.07593973  1
  O  O62  1  0.51658063  0.86877928  0.07763599  1
  O  O63  1  0.35219765  0.86877928  0.57763599  1
  O  O64  1  0.51505199  0.65174328  0.57593973  1
  O  O65  1  0.14030804  0.49206398  0.57672616  1
  O  O66  1  0.30443048  0.82411992  0.25707478  1
  O  O67  1  0.52644038  0.69680335  0.25652653  1
  O  O68  1  0.18288864  0.47982204  0.25891482  1
  O  O69  1  0.29693240  0.47982204  0.75891482  1
  O  O70  1  0.17036197  0.69680335  0.75652653  1
  O  O71  1  0.51968844  0.82411992  0.75707478  1
loop_
_geom_bond_atom_site_label_1
_geom_bond_atom_site_label_2
_geom_bond_distance
_geom_bond_site_symmetry_2
Na0 O42 2.444585 1_565
Na0 O44 2.451779 1_555
Na0 O43 2.533344 1_665
Na0 O36 2.618402 1_655
Na0 O37 2.642417 1_555
Na0 O38 2.758434 1_665
Na1 O47 2.444585 1_565
Na1 O45 2.451779 1_455
Na1 O46 2.533344 1_465
Na1 O41 2.618402 1_454
Na1 O40 2.642417 1_554
Na1 O39 2.758434 1_564
Na2 O54 2.444585 1_555
Na2 O56 2.451779 1_555
Na2 O55 2.533344 1_555
Na2 O48 2.618402 1_555
Na2 O49 2.642417 1_555
Na2 O50 2.758434 1_555
Na3 O59 2.444585 1_555
Na3 O57 2.451779 1_555
Na3 O58 2.533344 1_555
Na3 O53 2.618402 1_555
Na3 O52 2.642417 1_555
Na3 O51 2.758434 1_555
Na4 O66 2.444585 1_555
Na4 O68 2.451779 1_555
Na4 O67 2.533344 1_555
Na4 O60 2.618402 1_555
Na4 O61 2.642417 1_555
Na4 O62 2.758434 1_555
Na5 O71 2.444585 1_555
Na5 O69 2.451779 1_555
Na5 O70 2.533344 1_555
Na5 O65 2.618402 1_555
Na5 O64 2.642417 1_555
Na5 O63 2.758434 1_555
Hf0 O2 1.997390 1_555
Hf0 O0 2.012073 1_655
Hf0 O37 2.042421 1_545
Hf0 O1 2.045671 1_545
Hf0 O36 2.058953 1_645
Hf0 O38 2.068573 1_655
Hf1 O3 1.997390 1_555
Hf1 O5 2.012073 1_455
Hf1 O40 2.042421 1_545
Hf1 O4 2.045670 1_445
Hf1 O41 2.058953 1_445
Hf1 O39 2.068573 1_555
Hf2 O14 1.997390 1_555
Hf2 O12 2.012073 1_555
Hf2 O49 2.042421 1_555
Hf2 O13 2.045671 1_555
Hf2 O48 2.058953 1_555
Hf2 O50 2.068573 1_555
Hf3 O15 1.997390 1_555
Hf3 O17 2.012073 1_555
Hf3 O52 2.042421 1_555
Hf3 O16 2.045670 1_555
Hf3 O53 2.058953 1_555
Hf3 O51 2.068573 1_555
Hf4 O26 1.997390 1_554
Hf4 O24 2.012073 1_554
Hf4 O61 2.042421 1_555
Hf4 O25 2.045671 1_554
Hf4 O60 2.058953 1_555
Hf4 O62 2.068573 1_555
Hf5 O27 1.997390 1_555
Hf5 O29 2.012073 1_555
Hf5 O64 2.042421 1_555
Hf5 O28 2.045670 1_555
Hf5 O65 2.058953 1_555
Hf5 O63 2.068573 1_555
Al0 O6 1.827692 1_545
Al0 O42 1.860690 1_555
Al0 O7 1.884617 1_655
Al0 O44 1.923905 1_545
Al0 O43 2.159640 1_655
Al0 O8 2.172427 1_645
Al1 O11 1.827692 1_545
Al1 O47 1.860690 1_555
Al1 O10 1.884617 1_555
Al1 O45 1.923905 1_445
Al1 O46 2.159640 1_455
Al1 O9 2.172427 1_445
Al2 O18 1.827692 1_556
Al2 O54 1.860690 1_555
Al2 O19 1.884617 1_556
Al2 O56 1.923905 1_555
Al2 O55 2.159640 1_555
Al2 O20 2.172427 1_556
Al3 O23 1.827692 1_555
Al3 O59 1.860690 1_555
Al3 O22 1.884617 1_555
Al3 O57 1.923905 1_555
Al3 O58 2.159640 1_555
Al3 O21 2.172427 1_555
Al4 O30 1.827692 1_555
Al4 O66 1.860690 1_555
Al4 O31 1.884617 1_555
Al4 O68 1.923905 1_555
Al4 O67 2.159640 1_555
Al4 O32 2.172427 1_555
Al5 O35 1.827692 1_555
Al5 O71 1.860690 1_555
Al5 O34 1.884617 1_555
Al5 O69 1.923905 1_555
Al5 O70 2.159640 1_555
Al5 O33 2.172427 1_555
O0 P0 1.539739 1_545
O1 S0 1.481283 1_555
O2 P1 1.547249 1_655
O3 P2 1.547249 1_555
O4 S1 1.481283 1_655
O5 P3 1.539739 1_545
O6 P3 1.531795 1_555
O7 P2 1.536288 1_555
O8 S1 1.462926 1_555
O9 S0 1.462926 1_555
O10 P1 1.536288 1_555
O11 P0 1.531795 1_555
O12 P4 1.539739 1_555
O13 S2 1.481283 1_555
O14 P5 1.547249 1_555
O15 P6 1.547249 1_555
O16 S3 1.481283 1_555
O17 P7 1.539739 1_555
O18 P7 1.531795 1_555
O19 P6 1.536288 1_555
O20 S3 1.462926 1_555
O21 S2 1.462926 1_555
O22 P5 1.536288 1_555
O23 P4 1.531795 1_555
O24 P8 1.539739 1_555
O25 S4 1.481283 1_555
O26 P9 1.547249 1_555
O27 P10 1.547249 1_555
O28 S5 1.481283 1_555
O29 P11 1.539739 1_555
O30 P11 1.531795 1_555
O31 P10 1.536288 1_555
O32 S5 1.462926 1_555
O33 S4 1.462926 1_555
O34 P9 1.536288 1_555
O35 P8 1.531795 1_555
O36 P11 1.554138 1_555
O37 P10 1.560272 1_555
O38 S5 1.498033 1_555
O39 S4 1.498037 1_555
O40 P9 1.560263 1_555
O41 P8 1.554143 1_555
O42 P4 1.541698 1_555
O43 S2 1.467332 1_555
O44 P5 1.543327 1_555
O45 P6 1.543331 1_555
O46 S3 1.467323 1_555
O47 P7 1.541703 1_555
O48 P3 1.554138 1_545
O49 P2 1.560272 1_555
O50 S1 1.498033 1_655
O51 S0 1.498037 1_555
O52 P1 1.560263 1_655
O53 P0 1.554143 1_545
O54 P8 1.541709 1_555
O55 S4 1.467317 1_655
O56 P9 1.543323 1_545
O57 P10 1.543316 1_545
O58 S5 1.467334 1_555
O59 P11 1.541699 1_655
O60 P7 1.554149 1_555
O61 P6 1.560258 1_455
O62 S3 1.498031 1_565
O63 S2 1.498024 1_565
O64 P5 1.560275 1_555
O65 P4 1.554139 1_455
O66 P0 1.541698 1_555
O67 S0 1.467332 1_555
O68 P1 1.543327 1_555
O69 P2 1.543331 1_555
O70 S1 1.467323 1_555
O71 P3 1.541703 1_555
