# generated using pymatgen
data_Na3Ti3GaSi3(SO8)3
_symmetry_space_group_name_H-M   'P 1'
_cell_length_a   8.71998650
_cell_length_b   8.77466427
_cell_length_c   22.37501192
_cell_angle_alpha   89.92259651
_cell_angle_beta   90.13716623
_cell_angle_gamma   120.10091922
_symmetry_Int_Tables_number   1
_chemical_formula_structural   Na3Ti3GaSi3(SO8)3
_chemical_formula_sum   'Na9 Ti9 Ga3 Si9 S9 O72'
_cell_volume   1481.14109446
_cell_formula_units_Z   3
loop_
 _symmetry_equiv_pos_site_id
 _symmetry_equiv_pos_as_xyz
  1  'x, y, z'
loop_
 _atom_site_type_symbol
 _atom_site_label
 _atom_site_symmetry_multiplicity
 _atom_site_fract_x
 _atom_site_fract_y
 _atom_site_fract_z
 _atom_site_occupancy
  Na  Na0  1  0.35985360  0.36105349  0.24497594  1
  Na  Na1  1  0.63659554  0.63100162  0.75135507  1
  Na  Na2  1  0.96945654  0.29467796  0.41529736  1
  Na  Na3  1  0.99677665  0.99754937  0.49889438  1
  Na  Na4  1  0.99823949  0.99352061  0.00035462  1
  Na  Na5  1  0.66640492  0.33043715  0.83271584  1
  Na  Na6  1  0.66888136  0.32767244  0.33033060  1
  Na  Na7  1  0.31813811  0.66653046  0.16486118  1
  Na  Na8  1  0.31185698  0.65935498  0.66530975  1
  Ti  Ti0  1  0.00487835  0.98609138  0.85243796  1
  Ti  Ti1  1  0.01494880  0.01723230  0.64680693  1
  Ti  Ti2  1  0.01468523  0.01536783  0.14241208  1
  Ti  Ti3  1  0.66464497  0.35795203  0.98099805  1
  Ti  Ti4  1  0.66125010  0.31363276  0.47794188  1
  Ti  Ti5  1  0.34015977  0.65943745  0.02494709  1
  Ti  Ti6  1  0.33190491  0.64946088  0.51865242  1
  Ti  Ti7  1  0.33803508  0.66075524  0.31448157  1
  Ti  Ti8  1  0.32361196  0.64910100  0.81138067  1
  Ga  Ga0  1  0.99190875  0.01418246  0.35363242  1
  Ga  Ga1  1  0.68148863  0.34483681  0.68862592  1
  Ga  Ga2  1  0.69138728  0.34589419  0.18058061  1
  Si  Si0  1  0.98884917  0.29055816  0.24995733  1
  Si  Si1  1  0.29312858  0.28341468  0.75062582  1
  Si  Si2  1  0.00645185  0.71297343  0.74737871  1
  Si  Si3  1  0.95423595  0.33374841  0.58484530  1
  Si  Si4  1  0.96102062  0.63033556  0.08394499  1
  Si  Si5  1  0.38830615  0.33676880  0.08723762  1
  Si  Si6  1  0.62421457  0.67373200  0.91593244  1
  Si  Si7  1  0.61803710  0.94455579  0.41684482  1
  Si  Si8  1  0.33918499  0.37149408  0.41580524  1
  S  S0  1  0.28525432  0.99589176  0.25080863  1
  S  S1  1  0.71612702  0.71581183  0.25135478  1
  S  S2  1  0.71268855  0.00248515  0.75054773  1
  S  S3  1  0.37928471  0.04309477  0.58434350  1
  S  S4  1  0.66743062  0.62284037  0.58335411  1
  S  S5  1  0.66609787  0.04642979  0.08257450  1
  S  S6  1  0.04293512  0.37492113  0.91743285  1
  S  S7  1  0.33758648  0.95408139  0.91677615  1
  S  S8  1  0.04633452  0.67124779  0.41646036  1
  O  O0  1  0.20080472  0.02312279  0.30443803  1
  O  O1  1  0.82231460  0.79478543  0.30620354  1
  O  O2  1  0.96659318  0.18315021  0.31183743  1
  O  O3  1  0.19155136  0.16341991  0.80852850  1
  O  O4  1  0.96647716  0.80328270  0.80660590  1
  O  O5  1  0.82125116  0.02799505  0.80467538  1
  O  O6  1  0.79190170  0.96969488  0.69654836  1
  O  O7  1  0.16582834  0.20133209  0.69125000  1
  O  O8  1  0.02802958  0.83943847  0.69046795  1
  O  O9  1  0.79711783  0.81886513  0.19743291  1
  O  O10  1  0.03083050  0.19191926  0.19410267  1
  O  O11  1  0.17711156  0.96978835  0.19580732  1
  O  O12  1  0.86335982  0.36456195  0.64233792  1
  O  O13  1  0.48481892  0.12594296  0.63817428  1
  O  O14  1  0.63408830  0.52062498  0.63979983  1
  O  O15  1  0.88923517  0.50711566  0.14186797  1
  O  O16  1  0.63284169  0.11953031  0.13733651  1
  O  O17  1  0.49769630  0.36185608  0.14844423  1
  O  O18  1  0.47394266  0.30334036  0.02709028  1
  O  O19  1  0.83237795  0.53180757  0.02507942  1
  O  O20  1  0.69466900  0.15403844  0.02875382  1
  O  O21  1  0.46087800  0.15339912  0.52949376  1
  O  O22  1  0.68790374  0.53326929  0.53107515  1
  O  O23  1  0.83520329  0.30790698  0.52353550  1
  O  O24  1  0.52164288  0.69335291  0.97347790  1
  O  O25  1  0.15300814  0.46216259  0.97055578  1
  O  O26  1  0.30727548  0.84787460  0.97084934  1
  O  O27  1  0.51593864  0.82778565  0.47546250  1
  O  O28  1  0.29483973  0.46549179  0.47222924  1
  O  O29  1  0.15319965  0.69716072  0.47102593  1
  O  O30  1  0.12505835  0.63330290  0.36304884  1
  O  O31  1  0.49232600  0.85746609  0.35788287  1
  O  O32  1  0.36426592  0.49557879  0.35655231  1
  O  O33  1  0.12465564  0.48624384  0.86246104  1
  O  O34  1  0.35476695  0.86757243  0.86240585  1
  O  O35  1  0.50246872  0.64421916  0.85594422  1
  O  O36  1  0.02746331  0.82643055  0.40846787  1
  O  O37  1  0.81489782  0.97029367  0.41272680  1
  O  O38  1  0.16291869  0.17986889  0.41019574  1
  O  O39  1  0.03012176  0.20197977  0.91078129  1
  O  O40  1  0.17636906  0.97583939  0.91105288  1
  O  O41  1  0.82069320  0.84908577  0.90935829  1
  O  O42  1  0.97211301  0.15496369  0.59028736  1
  O  O43  1  0.19992799  0.02731660  0.58740719  1
  O  O44  1  0.82602938  0.80054000  0.58804799  1
  O  O45  1  0.97201511  0.82071553  0.09273535  1
  O  O46  1  0.82430838  0.02437518  0.08957052  1
  O  O47  1  0.18727287  0.16348039  0.09052775  1
  O  O48  1  0.69026515  0.15714723  0.74503356  1
  O  O49  1  0.48905786  0.31098572  0.74118414  1
  O  O50  1  0.82694556  0.52213837  0.74543563  1
  O  O51  1  0.68291228  0.53209504  0.24844469  1
  O  O52  1  0.81158139  0.30548981  0.24295299  1
  O  O53  1  0.46082867  0.15700200  0.24565676  1
  O  O54  1  0.64072976  0.49431349  0.92156064  1
  O  O55  1  0.86445459  0.35442342  0.92217856  1
  O  O56  1  0.49795290  0.13113350  0.92127996  1
  O  O57  1  0.64585765  0.14667182  0.42375272  1
  O  O58  1  0.51917895  0.36596153  0.42635293  1
  O  O59  1  0.86890607  0.50740728  0.42242230  1
  O  O60  1  0.36122427  0.50773266  0.07726584  1
  O  O61  1  0.15738352  0.65696953  0.06983619  1
  O  O62  1  0.50697714  0.86720315  0.07666503  1
  O  O63  1  0.35793031  0.86669843  0.57735014  1
  O  O64  1  0.50624194  0.64269005  0.57706125  1
  O  O65  1  0.15140163  0.50983316  0.57515858  1
  O  O66  1  0.30291962  0.83683784  0.25565572  1
  O  O67  1  0.53351141  0.69831143  0.25555887  1
  O  O68  1  0.17527396  0.48655074  0.25638166  1
  O  O69  1  0.31554545  0.48256030  0.75779349  1
  O  O70  1  0.18270494  0.69868623  0.75869691  1
  O  O71  1  0.53556958  0.83910811  0.75582970  1
loop_
_geom_bond_atom_site_label_1
_geom_bond_atom_site_label_2
_geom_bond_distance
_geom_bond_site_symmetry_2
Na0 O53 2.358503 1_555
Na0 O68 2.376741 1_555
Na0 O51 2.439840 1_555
Na0 O17 2.472626 1_555
Na0 O67 2.571378 1_555
Na0 O10 2.729067 1_555
Na0 O32 2.754892 1_555
Na0 O0 2.891257 1_555
Na1 O50 2.297151 1_555
Na1 O71 2.394804 1_555
Na1 O69 2.428711 1_555
Na1 O49 2.443089 1_555
Na1 O35 2.647213 1_555
Na1 O14 2.674659 1_555
Na1 O4 2.777481 1_555
Na1 O6 2.851529 1_555
Na2 O38 2.362147 1_655
Na2 O59 2.433437 1_555
Na2 O57 2.451718 1_555
Na2 O37 2.464490 1_545
Na2 O2 2.509680 1_555
Na2 O23 2.720273 1_555
Na2 O28 2.764393 1_655
Na2 O30 2.826795 1_655
Na3 O37 2.428140 1_555
Na3 O38 2.505476 1_665
Na3 O42 2.538410 1_565
Na3 O44 2.570545 1_555
Na3 O43 2.578589 1_665
Na3 O36 2.614128 1_655
Na4 O41 2.484427 1_554
Na4 O45 2.504006 1_555
Na4 O47 2.557040 1_665
Na4 O40 2.585867 1_654
Na4 O46 2.605049 1_565
Na4 O39 2.631089 1_664
Na5 O50 2.499057 1_555
Na5 O49 2.517162 1_555
Na5 O54 2.530295 1_555
Na5 O48 2.555732 1_555
Na5 O56 2.563352 1_555
Na5 O55 2.579479 1_555
Na6 O52 2.379961 1_555
Na6 O51 2.522198 1_555
Na6 O53 2.527754 1_555
Na6 O57 2.570097 1_555
Na6 O58 2.624559 1_555
Na6 O59 2.647226 1_555
Na7 O68 2.503890 1_555
Na7 O61 2.522090 1_555
Na7 O60 2.541677 1_555
Na7 O66 2.566385 1_555
Na7 O62 2.608477 1_555
Na7 O67 2.679760 1_555
Na8 O65 2.429028 1_555
Na8 O70 2.481268 1_555
Na8 O63 2.570186 1_555
Na8 O69 2.594373 1_555
Na8 O64 2.656848 1_555
Na8 O71 2.701650 1_555
Ga0 O2 1.856078 1_555
Ga0 O37 1.921268 1_545
Ga0 O38 1.939189 1_655
Ga0 O1 2.040020 1_545
Ga0 O0 2.098070 1_655
Ga0 O36 2.195605 1_645
Ga1 O12 1.830245 1_555
Ga1 O50 1.913958 1_555
Ga1 O49 1.948182 1_555
Ga1 O14 2.091984 1_555
Ga1 O48 2.105107 1_555
Ga1 O13 2.144097 1_555
Ga2 O15 1.812118 1_555
Ga2 O52 1.880484 1_555
Ga2 O17 1.902763 1_555
Ga2 O16 2.031704 1_555
Ga2 O51 2.260310 1_555
Ga2 O53 2.361016 1_555
O0 S0 1.490227 1_545
O1 S1 1.482215 1_555
O2 Si0 1.630103 1_555
O3 Si1 1.624204 1_555
O3 Ti0 1.870574 1_545
O4 Si2 1.669657 1_655
O4 Ti0 1.789099 1_655
O5 S2 1.481807 1_555
O5 Ti0 2.102977 1_645
O6 S2 1.491315 1_565
O6 Ti1 2.095454 1_665
O7 Si1 1.646073 1_555
O7 Ti1 1.787638 1_555
O8 Si2 1.635910 1_555
O8 Ti1 1.890785 1_565
O9 S1 1.460365 1_555
O9 Ti2 2.193668 1_665
O10 Si0 1.663713 1_455
O10 Ti2 1.882217 1_555
O11 S0 1.494919 1_555
O11 Ti2 2.037687 1_565
O12 Si3 1.605184 1_555
O13 S3 1.467007 1_555
O14 S4 1.490371 1_555
O15 Si4 1.600554 1_555
O16 S5 1.478951 1_555
O17 Si5 1.617966 1_555
O18 Si5 1.637202 1_555
O18 Ti3 1.807242 1_554
O19 Si4 1.662475 1_555
O19 Ti3 1.788412 1_554
O20 S5 1.471813 1_555
O20 Ti3 2.207982 1_554
O21 S3 1.503139 1_555
O21 Ti4 1.975182 1_555
O22 S4 1.470415 1_555
O22 Ti4 2.176515 1_555
O23 Si3 1.663907 1_555
O23 Ti4 1.847440 1_555
O24 Si6 1.627290 1_555
O24 Ti5 1.858658 1_556
O25 S6 1.476522 1_555
O25 Ti5 2.074474 1_556
O26 S7 1.467513 1_555
O26 Ti5 2.179419 1_556
O27 Si7 1.627776 1_555
O27 Ti6 1.855321 1_555
O28 Si8 1.657939 1_555
O28 Ti6 1.807995 1_555
O29 S8 1.481030 1_555
O29 Ti6 2.093840 1_555
O30 S8 1.498195 1_555
O30 Ti7 2.061111 1_555
O31 Si7 1.637578 1_555
O31 Ti7 1.844293 1_555
O32 Si8 1.658211 1_555
O32 Ti7 1.834913 1_555
O33 S6 1.509175 1_555
O33 Ti8 1.968897 1_555
O34 S7 1.481909 1_555
O34 Ti8 2.129376 1_555
O35 Si6 1.647440 1_555
O35 Ti8 1.867607 1_555
O36 S8 1.461910 1_555
O37 Si7 1.618061 1_555
O38 Si8 1.616423 1_555
O39 S6 1.472381 1_555
O39 Ti0 2.219957 1_545
O40 S7 1.515734 1_555
O40 Ti0 2.022272 1_555
O41 Si6 1.637338 1_555
O41 Ti0 1.927632 1_655
O42 Si3 1.656767 1_555
O42 Ti1 1.909397 1_655
O43 S3 1.501074 1_555
O43 Ti1 2.059820 1_555
O44 S4 1.480436 1_555
O44 Ti1 2.216349 1_665
O45 Si4 1.636664 1_555
O45 Ti2 1.912302 1_665
O46 S5 1.493959 1_555
O46 Ti2 2.069296 1_655
O47 Si5 1.648386 1_555
O47 Ti2 1.828690 1_555
O48 S2 1.469965 1_555
O49 Si1 1.615280 1_555
O50 Si2 1.620741 1_655
O51 S1 1.489533 1_555
O52 Si0 1.622674 1_555
O53 S0 1.478249 1_545
O54 Si6 1.655877 1_555
O54 Ti3 1.867750 1_555
O55 S6 1.478447 1_655
O55 Ti3 2.198632 1_555
O56 S7 1.483194 1_545
O56 Ti3 2.226088 1_555
O57 Si7 1.672439 1_545
O57 Ti4 1.855051 1_555
O58 Si8 1.611257 1_555
O58 Ti4 1.907962 1_555
O59 S8 1.499255 1_655
O59 Ti4 2.151721 1_555
O60 Si5 1.646266 1_555
O60 Ti5 1.848275 1_555
O61 Si4 1.639263 1_455
O61 Ti5 1.876828 1_555
O62 S5 1.492276 1_565
O62 Ti5 2.028869 1_555
O63 S3 1.471842 1_565
O63 Ti6 2.231904 1_555
O64 S4 1.506757 1_555
O64 Ti6 2.025696 1_555
O65 Si3 1.651223 1_455
O65 Ti6 1.909992 1_555
O66 S0 1.482723 1_555
O66 Ti7 2.163464 1_555
O67 S1 1.524332 1_555
O67 Ti7 2.049003 1_555
O68 Si0 1.678167 1_455
O68 Ti7 1.965023 1_555
O69 Si1 1.665968 1_555
O69 Ti8 1.865293 1_555
O70 Si2 1.622745 1_555
O70 Ti8 1.901712 1_555
O71 S2 1.494676 1_565
O71 Ti8 2.157598 1_555
