# generated using pymatgen
data_YMgMo3O8
_symmetry_space_group_name_H-M   'P 1'
_cell_length_a   6.26824466
_cell_length_b   6.23147766
_cell_length_c   5.51267065
_cell_angle_alpha   90.54348884
_cell_angle_beta   89.92419262
_cell_angle_gamma   120.90533588
_symmetry_Int_Tables_number   1
_chemical_formula_structural   YMgMo3O8
_chemical_formula_sum   'Y1 Mg1 Mo3 O8'
_cell_volume   184.74457997
_cell_formula_units_Z   1
loop_
 _symmetry_equiv_pos_site_id
 _symmetry_equiv_pos_as_xyz
  1  'x, y, z'
loop_
 _atom_site_type_symbol
 _atom_site_label
 _atom_site_symmetry_multiplicity
 _atom_site_fract_x
 _atom_site_fract_y
 _atom_site_fract_z
 _atom_site_occupancy
  Y  Y0  1  0.33356400  0.66692000  0.75291500  1
  Mg  Mg0  1  0.33347700  0.66679300  0.25313200  1
  Mo  Mo0  1  0.83353900  0.66689800  0.25304100  1
  Mo  Mo1  1  0.83352100  0.16684000  0.25302900  1
  Mo  Mo2  1  0.33345200  0.16681900  0.25304000  1
  O  O0  1  0.49749200  0.98826100  0.46166400  1
  O  O1  1  0.65959300  0.31620000  0.06751000  1
  O  O2  1  0.65281100  0.83172200  0.04661600  1
  O  O3  1  0.18412700  0.83489000  0.04881500  1
  O  O4  1  0.01417000  0.50190300  0.45936700  1
  O  O5  1  0.00736700  0.01745600  0.43854200  1
  O  O6  1  0.16942800  0.34531200  0.04428500  1
  O  O7  1  0.48287300  0.49873500  0.45715200  1
loop_
_geom_bond_atom_site_label_1
_geom_bond_atom_site_label_2
_geom_bond_distance
_geom_bond_site_symmetry_2
Mg0 O0 2.057963 1_555
Mg0 O6 2.058977 1_555
Mg0 O4 2.063461 1_555
Mg0 O2 2.064442 1_555
Mg0 O7 2.066678 1_555
Mg0 O3 2.067553 1_555
Mo0 O5 2.126139 1_665
Mo0 O1 2.126869 1_555
Mo0 O3 2.201210 1_655
Mo0 O7 2.201218 1_555
Mo0 O2 2.203187 1_555
Mo0 O4 2.203228 1_655
Mo1 O5 2.040319 1_655
Mo1 O1 2.040621 1_555
Mo1 O4 2.113105 1_655
Mo1 O2 2.113578 1_545
Mo1 O6 2.146344 1_655
Mo1 O0 2.146579 1_545
Mo2 O5 2.036701 1_555
Mo2 O1 2.037042 1_555
Mo2 O7 2.095219 1_555
Mo2 O3 2.095645 1_545
Mo2 O0 2.195608 1_545
Mo2 O6 2.195612 1_555
O0 Y0 2.363560 1_555
O2 Y0 2.355103 1_554
O3 Y0 2.367392 1_554
O4 Y0 2.355094 1_555
O6 Y0 2.365058 1_554
O7 Y0 2.367233 1_555
