# generated using pymatgen
data_MgCu2(IO3)4
_symmetry_space_group_name_H-M   'P 1'
_cell_length_a   5.39029742
_cell_length_b   6.08892500
_cell_length_c   8.62740191
_cell_angle_alpha   89.99987414
_cell_angle_beta   92.56907914
_cell_angle_gamma   90.00010281
_symmetry_Int_Tables_number   1
_chemical_formula_structural   MgCu2(IO3)4
_chemical_formula_sum   'Mg1 Cu2 I4 O12'
_cell_volume   282.87636137
_cell_formula_units_Z   1
loop_
 _symmetry_equiv_pos_site_id
 _symmetry_equiv_pos_as_xyz
  1  'x, y, z'
loop_
 _atom_site_type_symbol
 _atom_site_label
 _atom_site_symmetry_multiplicity
 _atom_site_fract_x
 _atom_site_fract_y
 _atom_site_fract_z
 _atom_site_occupancy
  Mg  Mg0  1  0.96719200  0.25000000  0.60751500  1
  Cu  Cu0  1  0.47694800  0.50367200  0.50119500  1
  Cu  Cu1  1  0.47694800  0.99632800  0.50119500  1
  I  I0  1  0.53318600  0.75000000  0.16269300  1
  I  I1  1  0.04346600  0.25000000  0.22934200  1
  I  I2  1  0.97775200  0.75000000  0.77595400  1
  I  I3  1  0.45716400  0.25000000  0.86709600  1
  O  O0  1  0.77836900  0.98645000  0.69003300  1
  O  O1  1  0.25195200  0.02600900  0.30474500  1
  O  O2  1  0.34459300  0.25000000  0.64340500  1
  O  O3  1  0.63967400  0.75000000  0.37321400  1
  O  O4  1  0.83469600  0.25000000  0.39381200  1
  O  O5  1  0.24788800  0.47255400  0.92200600  1
  O  O6  1  0.25195200  0.47399100  0.30474600  1
  O  O7  1  0.24788800  0.02744600  0.92200600  1
  O  O8  1  0.72733300  0.52162600  0.09204300  1
  O  O9  1  0.72733300  0.97837400  0.09204300  1
  O  O10  1  0.77836900  0.51355000  0.69003200  1
  O  O11  1  0.21229700  0.75000000  0.63005000  1
loop_
_geom_bond_atom_site_label_1
_geom_bond_atom_site_label_2
_geom_bond_distance
_geom_bond_site_symmetry_2
Mg0 O4 1.947117 1_555
Mg0 O2 2.043966 1_655
Mg0 O0 2.045212 1_545
Mg0 O10 2.045214 1_555
Cu0 O6 2.047379 1_555
Cu0 O3 2.079649 1_555
Cu0 O2 2.116245 1_555
Cu0 O10 2.249518 1_555
Cu0 O11 2.379639 1_555
Cu1 O1 2.047386 1_565
Cu1 O3 2.079655 1_555
Cu1 O2 2.116251 1_565
Cu1 O0 2.249524 1_555
Cu1 O11 2.379633 1_555
I0 O9 1.859440 1_555
I0 O8 1.859444 1_555
I0 O3 1.880101 1_555
I1 O4 1.850118 1_455
I1 O1 1.865666 1_555
I1 O6 1.865668 1_555
I1 O9 2.619422 1_445
I1 O8 2.619423 1_455
I2 O11 1.823608 1_655
I2 O0 1.925080 1_555
I2 O10 1.925083 1_555
I2 O5 2.529309 1_655
I2 O7 2.529309 1_665
I3 O7 1.838797 1_555
I3 O5 1.838802 1_555
I3 O2 1.996903 1_555
