# generated using pymatgen
data_Zr2AlCu2
_symmetry_space_group_name_H-M   'P 1'
_cell_length_a   15.09868469
_cell_length_b   15.09868469
_cell_length_c   6.08651972
_cell_angle_alpha   66.01831683
_cell_angle_beta   66.01831683
_cell_angle_gamma   32.79758995
_symmetry_Int_Tables_number   1
_chemical_formula_structural   Zr2AlCu2
_chemical_formula_sum   'Zr16 Al8 Cu16'
_cell_volume   680.80446248
_cell_formula_units_Z   8
loop_
 _symmetry_equiv_pos_site_id
 _symmetry_equiv_pos_as_xyz
  1  'x, y, z'
loop_
 _atom_site_type_symbol
 _atom_site_label
 _atom_site_symmetry_multiplicity
 _atom_site_fract_x
 _atom_site_fract_y
 _atom_site_fract_z
 _atom_site_occupancy
  Zr  Zr0_0  1  0.31032800  0.31032800  0.12942700  1
  Zr  Zr0_1  1  0.31032800  0.31032800  0.62942700  1
  Zr  Zr0_2  1  0.31032800  0.81032800  0.12942700  1
  Zr  Zr0_3  1  0.31032800  0.81032800  0.62942700  1
  Zr  Zr0_4  1  0.81032800  0.31032800  0.12942700  1
  Zr  Zr0_5  1  0.81032800  0.31032800  0.62942700  1
  Zr  Zr0_6  1  0.81032800  0.81032800  0.12942700  1
  Zr  Zr0_7  1  0.81032800  0.81032800  0.62942700  1
  Zr  Zr1_0  1  0.18967200  0.18967200  0.37057300  1
  Zr  Zr1_1  1  0.18967200  0.18967200  0.87057300  1
  Zr  Zr1_2  1  0.18967200  0.68967200  0.37057300  1
  Zr  Zr1_3  1  0.18967200  0.68967200  0.87057300  1
  Zr  Zr1_4  1  0.68967200  0.18967200  0.37057300  1
  Zr  Zr1_5  1  0.68967200  0.18967200  0.87057300  1
  Zr  Zr1_6  1  0.68967200  0.68967200  0.37057300  1
  Zr  Zr1_7  1  0.68967200  0.68967200  0.87057300  1
  Al  Al0_0  1  0.00000000  0.00000000  0.00000000  1
  Al  Al0_1  1  0.00000000  0.00000000  0.50000000  1
  Al  Al0_2  1  0.00000000  0.50000000  0.00000000  1
  Al  Al0_3  1  1.00000000  0.50000000  0.50000000  1
  Al  Al0_4  1  0.50000000  0.00000000  0.00000000  1
  Al  Al0_5  1  0.50000000  0.00000000  0.50000000  1
  Al  Al0_6  1  0.50000000  0.50000000  0.00000000  1
  Al  Al0_7  1  0.50000000  0.50000000  0.50000000  1
  Cu  Cu0_0  1  0.09848900  0.09848900  0.30310200  1
  Cu  Cu0_1  1  0.09848900  0.09848900  0.80310200  1
  Cu  Cu0_2  1  0.09848900  0.59848900  0.30310200  1
  Cu  Cu0_3  1  0.09848900  0.59848900  0.80310200  1
  Cu  Cu0_4  1  0.59848900  0.09848900  0.30310200  1
  Cu  Cu0_5  1  0.59848900  0.09848900  0.80310200  1
  Cu  Cu0_6  1  0.59848900  0.59848900  0.30310200  1
  Cu  Cu0_7  1  0.59848900  0.59848900  0.80310200  1
  Cu  Cu1_0  1  0.40151100  0.40151100  0.19689800  1
  Cu  Cu1_1  1  0.40151100  0.40151100  0.69689800  1
  Cu  Cu1_2  1  0.40151100  0.90151100  0.19689800  1
  Cu  Cu1_3  1  0.40151100  0.90151100  0.69689800  1
  Cu  Cu1_4  1  0.90151100  0.40151100  0.19689800  1
  Cu  Cu1_5  1  0.90151100  0.40151100  0.69689800  1
  Cu  Cu1_6  1  0.90151100  0.90151100  0.19689800  1
  Cu  Cu1_7  1  0.90151100  0.90151100  0.69689800  1
loop_
_geom_bond_atom_site_label_1
_geom_bond_atom_site_label_2
_geom_bond_distance
_geom_bond_site_symmetry_2
Zr0_0 Zr0_1 3.043260 1_555
Zr0_0 Zr0_1 3.043260 1_554
Zr0_0 Zr1_0 3.166090 1_555
Zr0_1 Zr1_1 3.166090 1_555
Zr0_2 Zr0_3 3.043260 1_555
Zr0_2 Zr0_3 3.043260 1_554
Zr0_2 Zr1_2 3.166090 1_555
Zr0_3 Zr1_3 3.166090 1_555
Zr0_4 Zr0_5 3.043260 1_555
Zr0_4 Zr0_5 3.043260 1_554
Zr0_4 Zr1_4 3.166090 1_555
Zr0_5 Zr1_5 3.166090 1_555
Zr0_6 Zr0_7 3.043260 1_554
Zr0_6 Zr0_7 3.043260 1_555
Zr0_6 Zr1_6 3.166090 1_555
Zr0_7 Zr1_7 3.166090 1_555
Zr1_0 Zr1_1 3.043260 1_555
Zr1_0 Zr1_1 3.043260 1_554
Zr1_2 Zr1_3 3.043260 1_555
Zr1_2 Zr1_3 3.043260 1_554
Zr1_4 Zr1_5 3.043260 1_555
Zr1_4 Zr1_5 3.043260 1_554
Zr1_6 Zr1_7 3.043260 1_554
Zr1_6 Zr1_7 3.043260 1_555
Al0_0 Cu0_1 2.584413 1_554
Al0_0 Cu1_6 2.584413 1_445
Al0_0 Zr0_3 3.056797 1_544
Al0_0 Zr0_5 3.056797 1_454
Al0_0 Zr1_4 3.056797 1_455
Al0_0 Zr1_2 3.056797 1_545
Al0_0 Zr0_2 3.063330 1_545
Al0_0 Zr0_4 3.063330 1_455
Al0_0 Zr1_5 3.063330 1_454
Al0_0 Zr1_3 3.063330 1_544
Al0_1 Cu0_0 2.584413 1_555
Al0_1 Cu1_7 2.584413 1_445
Al0_1 Zr0_2 3.056797 1_545
Al0_1 Zr0_4 3.056797 1_455
Al0_1 Zr1_5 3.056797 1_455
Al0_1 Zr1_3 3.056797 1_545
Al0_1 Zr0_5 3.063330 1_455
Al0_1 Zr0_3 3.063330 1_545
Al0_1 Zr1_4 3.063330 1_455
Al0_1 Zr1_2 3.063330 1_545
Al0_2 Cu0_3 2.584413 1_554
Al0_2 Cu1_4 2.584413 1_455
Al0_2 Zr0_1 3.056797 1_554
Al0_2 Zr0_7 3.056797 1_454
Al0_2 Zr1_0 3.056797 1_555
Al0_2 Zr1_6 3.056797 1_455
Al0_2 Zr0_6 3.063330 1_455
Al0_2 Zr0_0 3.063330 1_555
Al0_2 Zr1_1 3.063330 1_554
Al0_2 Zr1_7 3.063330 1_454
Al0_3 Cu1_5 2.584413 1_555
Al0_3 Cu0_2 2.584413 1_655
Al0_3 Zr0_6 3.056797 1_555
Al0_3 Zr0_0 3.056797 1_655
Al0_3 Zr1_7 3.056797 1_555
Al0_3 Zr1_1 3.056797 1_655
Al0_3 Zr0_7 3.063330 1_555
Al0_3 Zr0_1 3.063330 1_655
Al0_3 Zr1_0 3.063330 1_655
Al0_3 Zr1_6 3.063330 1_555
Al0_4 Cu0_5 2.584413 1_554
Al0_4 Cu1_2 2.584413 1_545
Al0_4 Zr0_7 3.056797 1_544
Al0_4 Zr0_1 3.056797 1_554
Al0_4 Zr1_0 3.056797 1_555
Al0_4 Zr1_6 3.056797 1_545
Al0_4 Zr0_6 3.063330 1_545
Al0_4 Zr0_0 3.063330 1_555
Al0_4 Zr1_7 3.063330 1_544
Al0_4 Zr1_1 3.063330 1_554
Al0_5 Cu0_4 2.584413 1_555
Al0_5 Cu1_3 2.584413 1_545
Al0_5 Zr0_6 3.056797 1_545
Al0_5 Zr0_0 3.056797 1_555
Al0_5 Zr1_7 3.056797 1_545
Al0_5 Zr1_1 3.056797 1_555
Al0_5 Zr0_7 3.063330 1_545
Al0_5 Zr0_1 3.063330 1_555
Al0_5 Zr1_0 3.063330 1_555
Al0_5 Zr1_6 3.063330 1_545
Al0_6 Cu1_0 2.584413 1_555
Al0_6 Cu0_7 2.584413 1_554
Al0_6 Zr0_5 3.056797 1_554
Al0_6 Zr0_3 3.056797 1_554
Al0_6 Zr1_4 3.056797 1_555
Al0_6 Zr1_2 3.056797 1_555
Al0_6 Zr0_2 3.063330 1_555
Al0_6 Zr0_4 3.063330 1_555
Al0_6 Zr1_5 3.063330 1_554
Al0_6 Zr1_3 3.063330 1_554
Al0_7 Cu1_1 2.584413 1_555
Al0_7 Cu0_6 2.584413 1_555
Al0_7 Zr0_2 3.056797 1_555
Al0_7 Zr0_4 3.056797 1_555
Al0_7 Zr1_5 3.056797 1_555
Al0_7 Zr1_3 3.056797 1_555
Al0_7 Zr0_3 3.063330 1_555
Al0_7 Zr0_5 3.063330 1_555
Al0_7 Zr1_4 3.063330 1_555
Al0_7 Zr1_2 3.063330 1_555
Cu0_0 Cu1_2 2.545270 1_545
Cu0_0 Cu1_4 2.545270 1_455
Cu0_0 Zr0_3 2.801622 1_545
Cu0_0 Zr0_5 2.801622 1_455
Cu0_0 Zr0_4 2.805766 1_455
Cu0_0 Zr0_2 2.805766 1_545
Cu0_0 Zr1_1 2.831160 1_554
Cu0_0 Zr1_0 2.839932 1_555
Cu0_1 Cu1_3 2.545270 1_545
Cu0_1 Cu1_5 2.545270 1_455
Cu0_1 Zr0_2 2.801622 1_546
Cu0_1 Zr0_4 2.801622 1_456
Cu0_1 Zr0_5 2.805766 1_455
Cu0_1 Zr0_3 2.805766 1_545
Cu0_1 Zr1_0 2.831160 1_555
Cu0_1 Zr1_1 2.839932 1_555
Cu0_2 Cu1_6 2.545270 1_455
Cu0_2 Cu1_0 2.545270 1_555
Cu0_2 Zr0_1 2.801622 1_555
Cu0_2 Zr0_7 2.801622 1_455
Cu0_2 Zr0_0 2.805766 1_555
Cu0_2 Zr0_6 2.805766 1_455
Cu0_2 Zr1_3 2.831160 1_554
Cu0_2 Zr1_2 2.839932 1_555
Cu0_3 Cu1_7 2.545270 1_455
Cu0_3 Cu1_1 2.545270 1_555
Cu0_3 Zr0_0 2.801622 1_556
Cu0_3 Zr0_6 2.801622 1_456
Cu0_3 Zr0_7 2.805766 1_455
Cu0_3 Zr0_1 2.805766 1_555
Cu0_3 Zr1_2 2.831160 1_555
Cu0_3 Zr1_3 2.839932 1_555
Cu0_4 Cu1_6 2.545270 1_545
Cu0_4 Cu1_0 2.545270 1_555
Cu0_4 Zr0_1 2.801622 1_555
Cu0_4 Zr0_7 2.801622 1_545
Cu0_4 Zr0_0 2.805766 1_555
Cu0_4 Zr0_6 2.805766 1_545
Cu0_4 Zr1_5 2.831160 1_554
Cu0_4 Zr1_4 2.839932 1_555
Cu0_5 Cu1_7 2.545270 1_545
Cu0_5 Cu1_1 2.545270 1_555
Cu0_5 Zr0_6 2.801622 1_546
Cu0_5 Zr0_0 2.801622 1_556
Cu0_5 Zr0_1 2.805766 1_555
Cu0_5 Zr0_7 2.805766 1_545
Cu0_5 Zr1_4 2.831160 1_555
Cu0_5 Zr1_5 2.839932 1_555
Cu0_6 Cu1_2 2.545270 1_555
Cu0_6 Cu1_4 2.545270 1_555
Cu0_6 Zr0_5 2.801622 1_555
Cu0_6 Zr0_3 2.801622 1_555
Cu0_6 Zr0_4 2.805766 1_555
Cu0_6 Zr0_2 2.805766 1_555
Cu0_6 Zr1_7 2.831160 1_554
Cu0_6 Zr1_6 2.839932 1_555
Cu0_7 Cu1_5 2.545270 1_555
Cu0_7 Cu1_3 2.545270 1_555
Cu0_7 Zr0_4 2.801622 1_556
Cu0_7 Zr0_2 2.801622 1_556
Cu0_7 Zr0_3 2.805766 1_555
Cu0_7 Zr0_5 2.805766 1_555
Cu0_7 Zr1_6 2.831160 1_555
Cu0_7 Zr1_7 2.839932 1_555
Cu1_0 Zr1_5 2.801622 1_554
Cu1_0 Zr1_3 2.801622 1_554
Cu1_0 Zr1_2 2.805766 1_555
Cu1_0 Zr1_4 2.805766 1_555
Cu1_0 Zr0_1 2.831160 1_555
Cu1_0 Zr0_0 2.839932 1_555
Cu1_1 Zr1_4 2.801622 1_555
Cu1_1 Zr1_2 2.801622 1_555
Cu1_1 Zr1_5 2.805766 1_555
Cu1_1 Zr1_3 2.805766 1_555
Cu1_1 Zr0_0 2.831160 1_556
Cu1_1 Zr0_1 2.839932 1_555
Cu1_2 Zr1_1 2.801622 1_564
Cu1_2 Zr1_7 2.801622 1_554
Cu1_2 Zr1_6 2.805766 1_555
Cu1_2 Zr1_0 2.805766 1_565
Cu1_2 Zr0_3 2.831160 1_555
Cu1_2 Zr0_2 2.839932 1_555
Cu1_3 Zr1_6 2.801622 1_555
Cu1_3 Zr1_0 2.801622 1_565
Cu1_3 Zr1_1 2.805766 1_565
Cu1_3 Zr1_7 2.805766 1_555
Cu1_3 Zr0_2 2.831160 1_556
Cu1_3 Zr0_3 2.839932 1_555
Cu1_4 Zr1_1 2.801622 1_654
Cu1_4 Zr1_7 2.801622 1_554
Cu1_4 Zr1_6 2.805766 1_555
Cu1_4 Zr1_0 2.805766 1_655
Cu1_4 Zr0_5 2.831160 1_555
Cu1_4 Zr0_4 2.839932 1_555
Cu1_5 Zr1_0 2.801622 1_655
Cu1_5 Zr1_6 2.801622 1_555
Cu1_5 Zr1_1 2.805766 1_655
Cu1_5 Zr1_7 2.805766 1_555
Cu1_5 Zr0_4 2.831160 1_556
Cu1_5 Zr0_5 2.839932 1_555
Cu1_6 Zr1_3 2.801622 1_654
Cu1_6 Zr1_5 2.801622 1_564
Cu1_6 Zr1_2 2.805766 1_655
Cu1_6 Zr1_4 2.805766 1_565
Cu1_6 Zr0_7 2.831160 1_555
Cu1_6 Zr0_6 2.839932 1_555
Cu1_7 Zr1_4 2.801622 1_565
Cu1_7 Zr1_2 2.801622 1_655
Cu1_7 Zr1_3 2.805766 1_655
Cu1_7 Zr1_5 2.805766 1_565
Cu1_7 Zr0_6 2.831160 1_556
Cu1_7 Zr0_7 2.839932 1_555
