# generated using pymatgen
data_Na10Sc4Nb4Si9(SO16)3
_symmetry_space_group_name_H-M   'P 1'
_cell_length_a   18.18478759
_cell_length_b   9.06054668
_cell_length_c   22.62689060
_cell_angle_alpha   90.04436028
_cell_angle_beta   89.51979921
_cell_angle_gamma   119.89340832
_symmetry_Int_Tables_number   1
_chemical_formula_structural   Na10Sc4Nb4Si9(SO16)3
_chemical_formula_sum   'Na30 Sc12 Nb12 Si27 S9 O144'
_cell_volume   3231.95283610
_cell_formula_units_Z   3
loop_
 _symmetry_equiv_pos_site_id
 _symmetry_equiv_pos_as_xyz
  1  'x, y, z'
loop_
 _atom_site_type_symbol
 _atom_site_label
 _atom_site_symmetry_multiplicity
 _atom_site_fract_x
 _atom_site_fract_y
 _atom_site_fract_z
 _atom_site_occupancy
  Na  Na0  1  0.18497406  0.36177143  0.24261881  1
  Na  Na1  1  0.68493089  0.36249486  0.24225009  1
  Na  Na2  1  0.18517301  0.00814722  0.74179691  1
  Na  Na3  1  0.68349531  0.00584064  0.74229746  1
  Na  Na4  1  0.65156309  0.34338629  0.58019815  1
  Na  Na5  1  0.02145529  0.70275340  0.57517918  1
  Na  Na6  1  0.51814856  0.68685574  0.58016170  1
  Na  Na7  1  0.32518170  0.97148104  0.58519334  1
  Na  Na8  1  0.15271245  0.96193636  0.08019242  1
  Na  Na9  1  0.65262639  0.96170580  0.07997940  1
  Na  Na10  1  0.32630571  0.68456276  0.08296980  1
  Na  Na11  1  0.82641231  0.68504188  0.08290039  1
  Na  Na12  1  0.02038029  0.35035546  0.08033866  1
  Na  Na13  1  0.52025351  0.35048543  0.08021283  1
  Na  Na14  1  0.48853346  0.67640596  0.91343958  1
  Na  Na15  1  0.98848368  0.67637721  0.91424453  1
  Na  Na16  1  0.35176631  0.66529126  0.40962414  1
  Na  Na17  1  0.85172819  0.67394571  0.40866212  1
  Na  Na18  1  0.01561698  0.02483247  0.49337986  1
  Na  Na19  1  0.51361380  0.01250241  0.49178229  1
  Na  Na20  1  0.00984337  0.02608244  0.99092263  1
  Na  Na21  1  0.50995642  0.02624580  0.99066686  1
  Na  Na22  1  0.34235805  0.33179422  0.82756941  1
  Na  Na23  1  0.84207527  0.33025347  0.82894593  1
  Na  Na24  1  0.34593058  0.33903908  0.32942665  1
  Na  Na25  1  0.84750036  0.33772609  0.32629456  1
  Na  Na26  1  0.16719902  0.67633815  0.16220817  1
  Na  Na27  1  0.66728971  0.67600116  0.16168795  1
  Na  Na28  1  0.17415740  0.65500498  0.66316180  1
  Na  Na29  1  0.67423404  0.67337380  0.65910846  1
  Sc  Sc0  1  0.00122003  0.00108919  0.35392511  1
  Sc  Sc1  1  0.50007172  0.99886230  0.35358606  1
  Sc  Sc2  1  0.99724613  0.00629180  0.85318120  1
  Sc  Sc3  1  0.49785912  0.00674582  0.85289559  1
  Sc  Sc4  1  0.33882189  0.33964073  0.68607320  1
  Sc  Sc5  1  0.83469081  0.33414792  0.68777835  1
  Sc  Sc6  1  0.33935141  0.34062117  0.18664521  1
  Sc  Sc7  1  0.83936354  0.34071841  0.18625225  1
  Sc  Sc8  1  0.16306389  0.66360000  0.01821032  1
  Sc  Sc9  1  0.66313680  0.66373193  0.01808384  1
  Sc  Sc10  1  0.16470100  0.66202429  0.51809679  1
  Sc  Sc11  1  0.66417525  0.66718167  0.52051323  1
  Nb  Nb0  1  0.99492960  0.98463296  0.64695364  1
  Nb  Nb1  1  0.49295522  0.98409531  0.64378562  1
  Nb  Nb2  1  0.99417588  0.00022696  0.14549930  1
  Nb  Nb3  1  0.49394360  0.00033793  0.14537044  1
  Nb  Nb4  1  0.33362085  0.32258080  0.98017992  1
  Nb  Nb5  1  0.83351768  0.32250640  0.98028328  1
  Nb  Nb6  1  0.33358509  0.33841081  0.48150049  1
  Nb  Nb7  1  0.82948154  0.34118917  0.47762394  1
  Nb  Nb8  1  0.16069948  0.64539937  0.31281738  1
  Nb  Nb9  1  0.66044241  0.64860158  0.31244147  1
  Nb  Nb10  1  0.16313045  0.67773575  0.81282870  1
  Nb  Nb11  1  0.66239748  0.67784629  0.81234459  1
  Si  Si0  1  0.35213392  0.70679922  0.25444947  1
  Si  Si1  1  0.85250916  0.70701116  0.25480212  1
  Si  Si2  1  0.99566820  0.28600829  0.25188288  1
  Si  Si3  1  0.49550977  0.28600868  0.25213617  1
  Si  Si4  1  0.99583084  0.70205618  0.75405236  1
  Si  Si5  1  0.49491947  0.70367138  0.75367202  1
  Si  Si6  1  0.35306920  0.99927196  0.75205294  1
  Si  Si7  1  0.85305463  0.99921221  0.75240828  1
  Si  Si8  1  0.47879864  0.33120631  0.58321830  1
  Si  Si9  1  0.18654078  0.04542663  0.58632468  1
  Si  Si10  1  0.68913008  0.04205618  0.58741839  1
  Si  Si11  1  0.32771638  0.61760664  0.58526515  1
  Si  Si12  1  0.83239946  0.62494685  0.58463505  1
  Si  Si13  1  0.47859377  0.62568440  0.08184600  1
  Si  Si14  1  0.97865496  0.62585668  0.08180154  1
  Si  Si15  1  0.33118594  0.04111540  0.08550449  1
  Si  Si16  1  0.83127674  0.04096299  0.08554273  1
  Si  Si17  1  0.18859022  0.33200609  0.08668266  1
  Si  Si18  1  0.68852925  0.33210137  0.08673916  1
  Si  Si19  1  0.01979233  0.37090220  0.91936532  1
  Si  Si20  1  0.51997949  0.37112202  0.91939009  1
  Si  Si21  1  0.16715388  0.96711567  0.91912710  1
  Si  Si22  1  0.66715822  0.96714091  0.91909594  1
  Si  Si23  1  0.16576807  0.36552113  0.41885982  1
  Si  Si24  1  0.66260160  0.36820279  0.41928023  1
  Si  Si25  1  0.02053474  0.66698549  0.42051776  1
  Si  Si26  1  0.51951280  0.66605492  0.42023904  1
  S  S0  1  0.14376801  0.99158378  0.24919266  1
  S  S1  1  0.64387805  0.99210466  0.24928652  1
  S  S2  1  0.14271254  0.29277418  0.74964041  1
  S  S3  1  0.64438116  0.29562899  0.74954461  1
  S  S4  1  0.97703504  0.32621707  0.58277878  1
  S  S5  1  0.31062384  0.66188769  0.91641002  1
  S  S6  1  0.81064397  0.66188094  0.91642839  1
  S  S7  1  0.30975417  0.95997953  0.41605543  1
  S  S8  1  0.80990851  0.96001849  0.41639465  1
  O  O0  1  0.10106256  0.01247092  0.30128223  1
  O  O1  1  0.60126028  0.01253713  0.30143046  1
  O  O2  1  0.40646167  0.79308150  0.31238230  1
  O  O3  1  0.90647332  0.79274679  0.31294442  1
  O  O4  1  0.49560649  0.17809619  0.30727348  1
  O  O5  1  0.99500006  0.17725139  0.30703817  1
  O  O6  1  0.10274991  0.18760523  0.80257675  1
  O  O7  1  0.60313685  0.18686407  0.80122421  1
  O  O8  1  0.49474332  0.80197877  0.81222350  1
  O  O9  1  0.99170533  0.79670594  0.81228279  1
  O  O10  1  0.41252529  0.02297898  0.80645250  1
  O  O11  1  0.91162383  0.02452384  0.80765108  1
  O  O12  1  0.40183308  0.97700466  0.69067823  1
  O  O13  1  0.90516343  0.97993762  0.69271580  1
  O  O14  1  0.08973739  0.21013575  0.69609108  1
  O  O15  1  0.59420496  0.21816692  0.69446699  1
  O  O16  1  0.01440594  0.83240582  0.69435802  1
  O  O17  1  0.51387464  0.83222212  0.69388315  1
  O  O18  1  0.40451352  0.83099633  0.19447698  1
  O  O19  1  0.90478654  0.83078212  0.19476169  1
  O  O20  1  0.01497277  0.20056823  0.19107764  1
  O  O21  1  0.51523791  0.20080154  0.19131686  1
  O  O22  1  0.09307697  0.97019784  0.19412749  1
  O  O23  1  0.59339109  0.97009941  0.19424028  1
  O  O24  1  0.43572664  0.36673708  0.63909345  1
  O  O25  1  0.93735280  0.35058678  0.63600425  1
  O  O26  1  0.24307542  0.12031522  0.64454946  1
  O  O27  1  0.74046808  0.12683078  0.64663899  1
  O  O28  1  0.31604982  0.50497241  0.64158180  1
  O  O29  1  0.82279790  0.50345414  0.63843553  1
  O  O30  1  0.43471414  0.50055997  0.13688057  1
  O  O31  1  0.93472835  0.50078374  0.13682972  1
  O  O32  1  0.31101127  0.12565160  0.14000496  1
  O  O33  1  0.81104374  0.12568289  0.13998330  1
  O  O34  1  0.24288340  0.36495074  0.14568544  1
  O  O35  1  0.74280628  0.36499658  0.14577957  1
  O  O36  1  0.23919396  0.30156794  0.02949476  1
  O  O37  1  0.73923153  0.30167149  0.02959605  1
  O  O38  1  0.41801541  0.54158803  0.02225896  1
  O  O39  1  0.91809502  0.54144286  0.02223041  1
  O  O40  1  0.35255779  0.16876636  0.02597589  1
  O  O41  1  0.85256608  0.16878964  0.02604127  1
  O  O42  1  0.23786568  0.16861425  0.52779716  1
  O  O43  1  0.74186131  0.17429257  0.52955071  1
  O  O44  1  0.34805850  0.53479557  0.52485532  1
  O  O45  1  0.85142414  0.53790828  0.52340615  1
  O  O46  1  0.41540878  0.29838585  0.52550272  1
  O  O47  1  0.92572943  0.30478943  0.52930941  1
  O  O48  1  0.27261825  0.67942309  0.97186422  1
  O  O49  1  0.77263691  0.67912525  0.97195799  1
  O  O50  1  0.07059436  0.45615915  0.97933862  1
  O  O51  1  0.57074559  0.45601299  0.97944311  1
  O  O52  1  0.15698890  0.85243925  0.97614069  1
  O  O53  1  0.65745586  0.85288139  0.97616353  1
  O  O54  1  0.27119381  0.86267452  0.47132751  1
  O  O55  1  0.77017424  0.85584483  0.46926528  1
  O  O56  1  0.16020760  0.47355556  0.47299333  1
  O  O57  1  0.66044956  0.46574041  0.47713724  1
  O  O58  1  0.07192387  0.68886796  0.48029685  1
  O  O59  1  0.57301326  0.69021050  0.47897028  1
  O  O60  1  0.07474221  0.64859770  0.36261673  1
  O  O61  1  0.57472655  0.65013106  0.36176566  1
  O  O62  1  0.25686958  0.86925080  0.36409144  1
  O  O63  1  0.75825419  0.87977317  0.36280558  1
  O  O64  1  0.18048845  0.49141654  0.35753657  1
  O  O65  1  0.68108908  0.49682243  0.35957250  1
  O  O66  1  0.07480969  0.50479371  0.86257865  1
  O  O67  1  0.57501299  0.50522594  0.86267316  1
  O  O68  1  0.17990137  0.86733682  0.85877180  1
  O  O69  1  0.67983254  0.86797382  0.85866144  1
  O  O70  1  0.25817567  0.64725230  0.86459671  1
  O  O71  1  0.75848216  0.64742843  0.86457536  1
  O  O72  1  0.99841458  0.81808598  0.41398572  1
  O  O73  1  0.49951148  0.82055324  0.41353632  1
  O  O74  1  0.39439912  0.97404134  0.41184880  1
  O  O75  1  0.89510268  0.97728045  0.41149138  1
  O  O76  1  0.08517611  0.18004865  0.41239608  1
  O  O77  1  0.58494344  0.18059368  0.41216354  1
  O  O78  1  0.00473387  0.18235779  0.91264844  1
  O  O79  1  0.50495773  0.18281613  0.91243679  1
  O  O80  1  0.08159265  0.97629527  0.91217591  1
  O  O81  1  0.58175440  0.97704993  0.91270434  1
  O  O82  1  0.39746918  0.81060079  0.91232987  1
  O  O83  1  0.89756836  0.81058160  0.91264459  1
  O  O84  1  0.48507752  0.15479919  0.58896698  1
  O  O85  1  0.98739203  0.17389994  0.58767399  1
  O  O86  1  0.09142092  0.03187415  0.59139934  1
  O  O87  1  0.59569138  0.03910726  0.59014293  1
  O  O88  1  0.42144865  0.80576139  0.58952723  1
  O  O89  1  0.92313257  0.81146486  0.59009824  1
  O  O90  1  0.48556920  0.81504732  0.09033407  1
  O  O91  1  0.98542391  0.81493588  0.09021580  1
  O  O92  1  0.42177362  0.03545291  0.09045217  1
  O  O93  1  0.92173898  0.03509717  0.09053473  1
  O  O94  1  0.09473936  0.15285450  0.09079628  1
  O  O95  1  0.59478067  0.15291146  0.09085927  1
  O  O96  1  0.33064141  0.14994103  0.74711274  1
  O  O97  1  0.83151128  0.15124260  0.74642102  1
  O  O98  1  0.22663761  0.30699501  0.74407168  1
  O  O99  1  0.72911481  0.31084643  0.74519668  1
  O  O100  1  0.41516783  0.51736905  0.74842330  1
  O  O101  1  0.91784386  0.51502122  0.74543194  1
  O  O102  1  0.33173971  0.51261409  0.24739926  1
  O  O103  1  0.83190778  0.51241155  0.24778911  1
  O  O104  1  0.41566698  0.31215830  0.24741234  1
  O  O105  1  0.91584162  0.31210673  0.24687287  1
  O  O106  1  0.22752933  0.14685681  0.24502479  1
  O  O107  1  0.72779681  0.14706230  0.24525911  1
  O  O108  1  0.31840477  0.50474614  0.91801891  1
  O  O109  1  0.81862402  0.50478234  0.91807432  1
  O  O110  1  0.42871626  0.37569203  0.92117250  1
  O  O111  1  0.92862624  0.37572143  0.92100143  1
  O  O112  1  0.25500983  0.15446404  0.92246987  1
  O  O113  1  0.75508784  0.15478560  0.92241374  1
  O  O114  1  0.31779328  0.13050910  0.41832627  1
  O  O115  1  0.81942382  0.13300978  0.42193745  1
  O  O116  1  0.25664723  0.36346051  0.42168870  1
  O  O117  1  0.75561966  0.36443569  0.42205202  1
  O  O118  1  0.42562037  0.48611167  0.42189857  1
  O  O119  1  0.92639295  0.48281855  0.42345194  1
  O  O120  1  0.17452632  0.49337419  0.07733351  1
  O  O121  1  0.67461122  0.49361713  0.07744195  1
  O  O122  1  0.07493933  0.65884444  0.07798537  1
  O  O123  1  0.57492279  0.65880820  0.07795572  1
  O  O124  1  0.25620818  0.84843135  0.07632305  1
  O  O125  1  0.75618523  0.84835457  0.07641321  1
  O  O126  1  0.17071585  0.85223604  0.57801547  1
  O  O127  1  0.66932740  0.84960533  0.57990835  1
  O  O128  1  0.25598992  0.67072095  0.57776224  1
  O  O129  1  0.75167996  0.64776334  0.57783244  1
  O  O130  1  0.06229079  0.48150834  0.57833524  1
  O  O131  1  0.57408744  0.49061150  0.57749580  1
  O  O132  1  0.15273646  0.83814274  0.25386817  1
  O  O133  1  0.65311659  0.83849911  0.25391629  1
  O  O134  1  0.25794371  0.70125086  0.25708776  1
  O  O135  1  0.75819293  0.70100942  0.25751021  1
  O  O136  1  0.08703153  0.47813792  0.25582138  1
  O  O137  1  0.58746837  0.47832448  0.25625494  1
  O  O138  1  0.15135898  0.46454288  0.75460224  1
  O  O139  1  0.65384666  0.46743782  0.75568080  1
  O  O140  1  0.08867446  0.69856461  0.75577385  1
  O  O141  1  0.58779800  0.69698005  0.75608310  1
  O  O142  1  0.25898953  0.81536451  0.75730390  1
  O  O143  1  0.75903145  0.81748429  0.75709825  1
loop_
_geom_bond_atom_site_label_1
_geom_bond_atom_site_label_2
_geom_bond_distance
_geom_bond_site_symmetry_2
Na0 O102 2.317626 1_555
Na0 O34 2.418987 1_555
Na0 O106 2.428268 1_555
Na0 O136 2.497092 1_555
Na0 O134 2.695610 1_555
Na0 O64 2.869651 1_555
Na0 O20 2.933837 1_555
Na1 O103 2.321834 1_555
Na1 O35 2.410539 1_555
Na1 O107 2.437225 1_555
Na1 O137 2.487388 1_555
Na1 O135 2.689692 1_555
Na1 O21 2.923622 1_555
Na1 O65 2.934268 1_555
Na2 O96 2.297871 1_555
Na2 O98 2.422457 1_555
Na2 O26 2.425144 1_555
Na2 O140 2.476499 1_545
Na2 O142 2.705914 1_545
Na2 O16 2.907812 1_545
Na2 O68 2.919144 1_545
Na3 O97 2.336376 1_555
Na3 O27 2.407068 1_555
Na3 O99 2.458659 1_555
Na3 O141 2.468808 1_545
Na3 O143 2.693832 1_545
Na3 O17 2.899360 1_545
Na3 O69 2.901117 1_545
Na3 O7 2.992715 1_555
Na4 O131 2.375489 1_555
Na4 O87 2.426660 1_555
Na4 O129 2.432474 1_555
Na4 O57 2.551900 1_555
Na4 O84 2.637962 1_555
Na4 O15 2.799997 1_555
Na5 O126 2.354616 1_555
Na5 O58 2.355611 1_555
Na5 O89 2.454758 1_455
Na5 O130 2.461677 1_555
Na5 O86 2.621106 1_565
Na5 O45 2.935681 1_455
Na5 O16 2.967779 1_555
Na6 O127 2.385633 1_555
Na6 O131 2.449833 1_555
Na6 O59 2.484031 1_555
Na6 O88 2.485875 1_555
Na6 O87 2.782788 1_565
Na6 O24 2.841899 1_555
Na6 O17 2.907816 1_555
Na6 O44 2.974171 1_555
Na7 O128 2.371174 1_555
Na7 O126 2.462945 1_555
Na7 O84 2.531920 1_565
Na7 O12 2.761932 1_555
Na7 O54 2.765403 1_555
Na7 O26 2.796806 1_565
Na7 O88 2.819911 1_555
Na7 O46 2.900725 1_565
Na8 O122 2.381975 1_555
Na8 O94 2.444201 1_565
Na8 O124 2.556130 1_555
Na8 O52 2.569743 1_554
Na8 O91 2.651413 1_455
Na8 O22 2.803832 1_555
Na8 O32 2.850333 1_565
Na8 O36 2.899997 1_565
Na9 O123 2.380342 1_555
Na9 O95 2.445386 1_565
Na9 O125 2.555952 1_555
Na9 O53 2.564594 1_554
Na9 O90 2.648441 1_555
Na9 O23 2.808007 1_555
Na9 O33 2.854092 1_565
Na9 O37 2.899639 1_565
Na10 O124 2.396251 1_555
Na10 O120 2.423803 1_555
Na10 O90 2.531425 1_555
Na10 O48 2.696484 1_554
Na10 O92 2.766360 1_565
Na10 O34 2.879661 1_555
Na10 O18 2.884945 1_555
Na10 O38 2.908396 1_555
Na11 O125 2.393537 1_555
Na11 O121 2.424183 1_555
Na11 O91 2.527720 1_555
Na11 O49 2.692462 1_554
Na11 O93 2.760120 1_565
Na11 O35 2.884462 1_555
Na11 O19 2.891477 1_555
Na11 O39 2.911713 1_555
Na12 O120 2.432598 1_555
Na12 O122 2.456586 1_555
Na12 O50 2.464010 1_554
Na12 O93 2.513321 1_455
Na12 O94 2.739449 1_555
Na12 O31 2.827984 1_455
Na12 O20 2.828087 1_555
Na12 O41 2.929852 1_455
Na13 O121 2.435876 1_555
Na13 O123 2.454809 1_555
Na13 O51 2.459542 1_554
Na13 O92 2.511380 1_555
Na13 O95 2.742942 1_555
Na13 O30 2.825742 1_555
Na13 O21 2.836489 1_555
Na13 O40 2.927677 1_555
Na14 O110 2.383446 1_555
Na14 O81 2.385563 1_555
Na14 O82 2.495797 1_555
Na14 O8 2.534545 1_555
Na14 O108 2.683223 1_555
Na14 O38 2.754915 1_556
Na14 O67 2.931951 1_555
Na14 O53 3.029965 1_555
Na15 O80 2.380344 1_655
Na15 O111 2.381426 1_555
Na15 O83 2.493616 1_555
Na15 O9 2.540203 1_555
Na15 O109 2.678548 1_555
Na15 O39 2.737805 1_556
Na15 O66 2.940570 1_655
Na15 O52 3.015262 1_655
Na16 O73 2.332737 1_555
Na16 O116 2.413184 1_555
Na16 O2 2.447545 1_555
Na16 O74 2.503583 1_555
Na16 O118 2.587807 1_555
Na16 O44 2.850092 1_555
Na16 O64 2.956289 1_555
Na17 O72 2.316930 1_555
Na17 O3 2.395771 1_555
Na17 O75 2.453484 1_555
Na17 O117 2.473386 1_555
Na17 O119 2.703062 1_555
Na17 O45 2.873668 1_555
Na17 O65 2.920495 1_555
Na18 O76 2.264402 1_555
Na18 O72 2.500837 1_445
Na18 O86 2.605112 1_555
Na18 O85 2.703332 1_455
Na18 O75 2.747226 1_445
Na18 O89 2.838860 1_445
Na19 O77 2.289862 1_555
Na19 O73 2.404844 1_545
Na19 O87 2.633505 1_555
Na19 O74 2.721051 1_545
Na19 O84 2.722216 1_555
Na19 O88 2.832704 1_545
Na20 O78 2.299587 1_555
Na20 O80 2.372150 1_545
Na20 O94 2.663916 1_556
Na20 O83 2.683225 1_445
Na20 O93 2.779088 1_456
Na20 O91 2.836888 1_446
Na21 O79 2.299807 1_555
Na21 O81 2.357011 1_545
Na21 O95 2.669450 1_556
Na21 O82 2.686127 1_545
Na21 O92 2.783632 1_556
Na21 O90 2.843977 1_546
Na22 O100 2.352260 1_555
Na22 O96 2.392982 1_555
Na22 O110 2.557717 1_555
Na22 O112 2.668286 1_555
Na22 O108 2.737581 1_555
Na22 O98 2.764577 1_555
Na23 O97 2.417658 1_555
Na23 O101 2.435963 1_555
Na23 O111 2.528404 1_555
Na23 O113 2.635322 1_555
Na23 O109 2.720730 1_555
Na23 O99 2.747028 1_555
Na24 O104 2.319257 1_555
Na24 O118 2.524941 1_555
Na24 O102 2.530186 1_555
Na24 O114 2.627327 1_555
Na24 O116 2.709924 1_555
Na24 O106 2.764373 1_555
Na25 O105 2.253281 1_555
Na25 O103 2.490177 1_555
Na25 O119 2.605324 1_555
Na25 O107 2.720002 1_555
Na25 O115 2.725469 1_555
Na25 O117 2.808265 1_555
Na26 O122 2.501925 1_555
Na26 O124 2.502784 1_555
Na26 O120 2.581663 1_555
Na26 O132 2.624939 1_555
Na26 O134 2.658994 1_555
Na26 O136 2.679821 1_555
Na27 O125 2.492176 1_555
Na27 O123 2.495426 1_555
Na27 O121 2.567556 1_555
Na27 O133 2.636955 1_555
Na27 O135 2.677837 1_555
Na27 O137 2.693673 1_555
Na28 O128 2.389484 1_555
Na28 O138 2.590119 1_555
Na28 O142 2.616193 1_555
Na28 O126 2.651031 1_555
Na28 O130 2.677045 1_555
Na28 O140 2.742093 1_555
Na29 O129 2.387664 1_555
Na29 O127 2.432727 1_555
Na29 O131 2.552336 1_555
Na29 O143 2.654167 1_555
Na29 O141 2.758188 1_555
Na29 O139 2.774348 1_555
Nb0 O13 1.908181 1_555
Nb0 O16 1.916737 1_655
Nb0 O89 1.950510 1_555
Nb0 O86 2.014304 1_665
Nb0 O14 2.213714 1_665
Nb0 O85 2.235980 1_565
Nb1 O88 1.933470 1_555
Nb1 O12 1.933963 1_555
Nb1 O17 1.963315 1_555
Nb1 O84 2.044027 1_565
Nb1 O87 2.060753 1_565
Nb1 O15 2.311346 1_565
Nb2 O19 1.930424 1_545
Nb2 O20 1.954717 1_655
Nb2 O93 1.955659 1_555
Nb2 O91 2.035269 1_545
Nb2 O94 2.057330 1_655
Nb2 O22 2.245145 1_645
Nb3 O18 1.928388 1_545
Nb3 O92 1.952407 1_555
Nb3 O21 1.957679 1_555
Nb3 O90 2.034098 1_545
Nb3 O95 2.057378 1_555
Nb3 O23 2.257450 1_545
Nb4 O40 1.902937 1_556
Nb4 O36 1.967801 1_556
Nb4 O112 1.981569 1_555
Nb4 O110 2.034076 1_555
Nb4 O38 2.045829 1_556
Nb4 O108 2.290063 1_555
Nb5 O41 1.902856 1_556
Nb5 O37 1.966222 1_556
Nb5 O113 1.981374 1_555
Nb5 O111 2.038112 1_555
Nb5 O39 2.044947 1_556
Nb5 O109 2.288676 1_555
Nb6 O44 1.931973 1_555
Nb6 O42 1.948509 1_555
Nb6 O46 1.974851 1_555
Nb6 O118 2.035476 1_555
Nb6 O116 2.046777 1_555
Nb6 O114 2.266628 1_555
Nb7 O45 1.924673 1_555
Nb7 O117 1.933977 1_555
Nb7 O43 1.943103 1_555
Nb7 O119 1.991720 1_555
Nb7 O115 2.198912 1_555
Nb7 O47 2.269384 1_555
Nb8 O64 1.899626 1_555
Nb8 O60 1.931174 1_555
Nb8 O136 1.938238 1_555
Nb8 O134 2.011197 1_555
Nb8 O62 2.238943 1_555
Nb8 O132 2.260260 1_555
Nb9 O61 1.915134 1_555
Nb9 O65 1.921734 1_555
Nb9 O137 1.934426 1_555
Nb9 O135 2.013115 1_555
Nb9 O133 2.228610 1_555
Nb9 O63 2.272936 1_555
Nb10 O68 1.898721 1_555
Nb10 O66 1.940596 1_555
Nb10 O140 1.954438 1_555
Nb10 O142 1.992756 1_555
Nb10 O70 2.223938 1_555
Nb10 O138 2.258642 1_555
Nb11 O69 1.903879 1_555
Nb11 O141 1.937692 1_555
Nb11 O67 1.939907 1_555
Nb11 O143 2.000213 1_555
Nb11 O139 2.237525 1_555
Nb11 O71 2.245164 1_555
O0 S0 1.469310 1_545
O0 Sc0 2.122081 1_555
O1 S1 1.467752 1_545
O1 Sc1 2.128508 1_545
O2 Si0 1.598673 1_555
O2 Sc1 2.025719 1_555
O3 Si1 1.599186 1_555
O3 Sc0 2.043018 1_665
O4 Si3 1.586222 1_555
O4 Sc1 1.969123 1_545
O5 Si2 1.586933 1_555
O5 Sc0 1.967364 1_655
O6 S2 1.472321 1_555
O6 Sc2 2.124897 1_455
O7 S3 1.466765 1_555
O7 Sc3 2.132270 1_555
O8 Si5 1.596725 1_555
O8 Sc3 2.045904 1_565
O9 Si4 1.593045 1_555
O9 Sc2 2.068987 1_565
O10 Si6 1.587649 1_545
O10 Sc3 1.946544 1_555
O11 Si7 1.589905 1_545
O11 Sc2 1.948451 1_555
O12 Si6 1.706706 1_555
O13 Si7 1.701712 1_555
O14 S2 1.501980 1_555
O15 S3 1.502538 1_555
O16 Si4 1.711872 1_455
O17 Si5 1.702950 1_555
O18 Si0 1.710932 1_555
O19 Si1 1.710265 1_555
O20 Si2 1.696047 1_455
O21 Si3 1.698431 1_555
O22 S0 1.510136 1_555
O23 S1 1.506754 1_555
O24 Si8 1.596760 1_555
O24 Sc4 1.957893 1_555
O25 S4 1.470960 1_555
O25 Sc5 2.136885 1_555
O26 Si9 1.605922 1_555
O26 Sc4 2.106890 1_555
O27 Si10 1.600527 1_555
O27 Sc5 2.036324 1_555
O28 Si11 1.578583 1_555
O28 Sc4 2.014094 1_555
O29 Si12 1.590933 1_555
O29 Sc5 1.995960 1_555
O30 Si13 1.598899 1_555
O30 Sc6 1.959609 1_555
O31 Si14 1.598691 1_555
O31 Sc7 1.955587 1_555
O32 Si15 1.585257 1_555
O32 Sc6 2.044110 1_555
O33 Si16 1.585698 1_555
O33 Sc7 2.040350 1_555
O34 Si17 1.604356 1_555
O34 Sc6 2.097131 1_555
O35 Si18 1.604967 1_555
O35 Sc7 2.093414 1_555
O36 Si17 1.682174 1_555
O37 Si18 1.682483 1_555
O38 Si13 1.672895 1_555
O39 Si14 1.672824 1_555
O40 Si15 1.687777 1_555
O41 Si16 1.688376 1_555
O42 Si9 1.677452 1_555
O43 Si10 1.704598 1_555
O44 Si11 1.683682 1_555
O45 Si12 1.709742 1_555
O46 Si8 1.674994 1_555
O47 S4 1.486566 1_555
O48 S5 1.473742 1_555
O48 Sc8 2.183971 1_556
O49 S6 1.474306 1_555
O49 Sc9 2.182273 1_556
O50 Si19 1.612359 1_555
O50 Sc8 2.001429 1_556
O51 Si20 1.613027 1_555
O51 Sc9 1.999884 1_556
O52 Si21 1.607667 1_555
O52 Sc8 2.009601 1_556
O53 Si22 1.608236 1_555
O53 Sc9 2.007016 1_556
O54 S7 1.484539 1_555
O54 Sc10 2.152803 1_555
O55 S8 1.466822 1_555
O55 Sc11 2.159497 1_555
O56 Si23 1.601066 1_555
O56 Sc10 1.955458 1_555
O57 Si24 1.590020 1_555
O57 Sc11 2.043082 1_555
O58 Si25 1.605695 1_555
O58 Sc10 2.017580 1_555
O59 Si26 1.602932 1_555
O59 Sc11 2.011590 1_555
O60 Si25 1.690441 1_555
O61 Si26 1.703315 1_555
O62 S7 1.487460 1_555
O63 S8 1.489368 1_555
O64 Si23 1.729156 1_555
O65 Si24 1.703116 1_555
O66 Si19 1.701380 1_555
O67 Si20 1.701073 1_555
O68 Si21 1.713980 1_555
O69 Si22 1.711601 1_555
O70 S5 1.481262 1_555
O71 S6 1.479214 1_555
O72 Si25 1.614990 1_655
O72 Sc0 2.125271 1_665
O73 Si26 1.619754 1_555
O73 Sc1 2.106421 1_555
O74 S7 1.482116 1_555
O74 Sc1 2.237948 1_555
O75 S8 1.480720 1_555
O75 Sc0 2.238381 1_665
O76 Si23 1.594229 1_555
O76 Sc0 2.067221 1_555
O77 Si24 1.587548 1_555
O77 Sc1 2.085140 1_545
O78 Si19 1.597008 1_555
O78 Sc2 2.038906 1_455
O79 Si20 1.595643 1_555
O79 Sc3 2.042297 1_555
O80 Si21 1.607991 1_555
O80 Sc2 2.158416 1_465
O81 Si22 1.607393 1_555
O81 Sc3 2.162318 1_565
O82 S5 1.481492 1_555
O82 Sc3 2.242374 1_565
O83 S6 1.481983 1_555
O83 Sc2 2.235896 1_565
O84 Si8 1.663474 1_555
O85 S4 1.487287 1_555
O86 Si9 1.674880 1_555
O87 Si10 1.686613 1_555
O88 Si11 1.710841 1_555
O89 Si12 1.678490 1_555
O90 Si13 1.667236 1_555
O91 Si14 1.666137 1_555
O92 Si15 1.678143 1_555
O93 Si16 1.676902 1_555
O94 Si17 1.671046 1_555
O95 Si18 1.670217 1_555
O96 Si6 1.611962 1_545
O96 Sc4 2.151569 1_555
O97 Si7 1.615041 1_545
O97 Sc5 2.101667 1_555
O98 S2 1.470522 1_555
O98 Sc4 2.307754 1_555
O99 S3 1.479413 1_555
O99 Sc5 2.230024 1_555
O100 Si5 1.590328 1_555
O100 Sc4 2.076482 1_555
O101 Si4 1.590487 1_555
O101 Sc5 2.057584 1_555
O102 Si0 1.615151 1_555
O102 Sc6 2.132099 1_555
O103 Si1 1.617553 1_555
O103 Sc7 2.140289 1_555
O104 Si3 1.587822 1_555
O104 Sc6 2.066946 1_555
O105 Si2 1.587750 1_555
O105 Sc7 2.067533 1_555
O106 S0 1.473103 1_545
O106 Sc6 2.315631 1_555
O107 S1 1.473276 1_545
O107 Sc7 2.321057 1_555
O108 S5 1.499832 1_555
O109 S6 1.501524 1_555
O110 Si20 1.680772 1_555
O111 Si19 1.680126 1_655
O112 Si21 1.654757 1_545
O113 Si22 1.656799 1_545
O114 S7 1.478571 1_545
O115 S8 1.494028 1_545
O116 Si23 1.663768 1_555
O117 Si24 1.710452 1_555
O118 Si26 1.673045 1_555
O119 Si25 1.694227 1_655
O120 Si17 1.619244 1_555
O120 Sc8 2.130778 1_555
O121 Si18 1.618788 1_555
O121 Sc9 2.133452 1_555
O122 Si14 1.624299 1_455
O122 Sc8 2.072245 1_555
O123 Si13 1.624739 1_555
O123 Sc9 2.074339 1_555
O124 Si15 1.606728 1_565
O124 Sc8 2.146858 1_555
O125 Si16 1.606754 1_565
O125 Sc9 2.148458 1_555
O126 Si9 1.637194 1_565
O126 Sc10 2.152032 1_555
O127 Si10 1.604290 1_565
O127 Sc11 2.095512 1_555
O128 Si11 1.609724 1_555
O128 Sc10 2.119357 1_555
O129 Si12 1.589771 1_555
O129 Sc11 2.135217 1_555
O130 S4 1.488853 1_455
O130 Sc10 2.219429 1_555
O131 Si8 1.614710 1_555
O131 Sc11 2.064214 1_555
O132 S0 1.482273 1_555
O133 S1 1.486523 1_555
O134 Si0 1.688886 1_555
O135 Si1 1.689269 1_555
O136 Si2 1.708219 1_455
O137 Si3 1.714422 1_555
O138 S2 1.488477 1_555
O139 S3 1.484973 1_555
O140 Si4 1.705098 1_455
O141 Si5 1.721311 1_555
O142 Si6 1.694972 1_555
O143 Si7 1.684289 1_555
