# generated using pymatgen
data_Dy(Fe2Ge)2
_symmetry_space_group_name_H-M   'P 1'
_cell_length_a   7.26243000
_cell_length_b   7.26243000
_cell_length_c   3.86435300
_cell_angle_alpha   90.00000000
_cell_angle_beta   90.00000000
_cell_angle_gamma   90.00000000
_symmetry_Int_Tables_number   1
_chemical_formula_structural   Dy(Fe2Ge)2
_chemical_formula_sum   'Dy2 Fe8 Ge4'
_cell_volume   203.81714329
_cell_formula_units_Z   2
loop_
 _symmetry_equiv_pos_site_id
 _symmetry_equiv_pos_as_xyz
  1  'x, y, z'
loop_
 _atom_site_type_symbol
 _atom_site_label
 _atom_site_symmetry_multiplicity
 _atom_site_fract_x
 _atom_site_fract_y
 _atom_site_fract_z
 _atom_site_occupancy
  Dy  Dy0  1  0.50000000  0.50000000  0.00000000  1
  Dy  Dy1  1  0.00000000  0.00000000  0.50000000  1
  Fe  Fe0  1  0.85610900  0.40882200  0.50000000  1
  Fe  Fe1  1  0.90882200  0.64389100  0.00000000  1
  Fe  Fe2  1  0.35610900  0.09117800  0.00000000  1
  Fe  Fe3  1  0.59117800  0.14389100  0.50000000  1
  Fe  Fe4  1  0.40882200  0.85610900  0.50000000  1
  Fe  Fe5  1  0.09117800  0.35610900  0.00000000  1
  Fe  Fe6  1  0.14389100  0.59117800  0.50000000  1
  Fe  Fe7  1  0.64389100  0.90882200  0.00000000  1
  Ge  Ge0  1  0.71498000  0.71498000  0.50000000  1
  Ge  Ge1  1  0.28502000  0.28502000  0.50000000  1
  Ge  Ge2  1  0.78502000  0.21498000  0.00000000  1
  Ge  Ge3  1  0.21498000  0.78502000  0.00000000  1
loop_
_geom_bond_atom_site_label_1
_geom_bond_atom_site_label_2
_geom_bond_distance
_geom_bond_site_symmetry_2
Dy0 Ge2 2.927334 1_555
Dy0 Ge3 2.927334 1_555
Dy0 Ge0 2.934021 1_554
Dy0 Ge0 2.934021 1_555
Dy0 Ge1 2.934021 1_555
Dy0 Ge1 2.934021 1_554
Dy0 Fe7 3.147575 1_555
Dy0 Fe1 3.147575 1_555
Dy0 Fe2 3.147575 1_555
Dy0 Fe5 3.147575 1_555
Dy0 Fe3 3.295496 1_554
Dy0 Fe6 3.295496 1_555
Dy0 Fe3 3.295496 1_555
Dy0 Fe6 3.295496 1_554
Dy0 Fe0 3.295496 1_554
Dy0 Fe0 3.295496 1_555
Dy0 Fe4 3.295496 1_555
Dy0 Fe4 3.295496 1_554
Dy1 Ge0 2.927334 1_445
Dy1 Ge1 2.927334 1_555
Dy1 Ge2 2.934021 1_456
Dy1 Ge3 2.934021 1_546
Dy1 Ge3 2.934021 1_545
Dy1 Ge2 2.934021 1_455
Dy1 Fe0 3.147575 1_455
Dy1 Fe4 3.147575 1_545
Dy1 Fe6 3.147575 1_545
Dy1 Fe3 3.147575 1_455
Dy1 Fe5 3.295496 1_555
Dy1 Fe2 3.295496 1_556
Dy1 Fe2 3.295496 1_555
Dy1 Fe5 3.295496 1_556
Dy1 Fe7 3.295496 1_445
Dy1 Fe7 3.295496 1_446
Dy1 Fe1 3.295496 1_445
Dy1 Fe1 3.295496 1_446
Fe0 Ge2 2.445741 1_556
Fe0 Ge2 2.445741 1_555
Fe0 Ge0 2.448313 1_555
Fe1 Ge0 2.445741 1_554
Fe1 Ge0 2.445741 1_555
Fe1 Ge3 2.448313 1_655
Fe2 Ge1 2.445741 1_555
Fe2 Ge1 2.445741 1_554
Fe2 Ge3 2.448313 1_545
Fe3 Ge2 2.445741 1_556
Fe3 Ge2 2.445741 1_555
Fe3 Ge1 2.448313 1_555
Fe4 Ge3 2.445741 1_556
Fe4 Ge3 2.445741 1_555
Fe4 Ge0 2.448313 1_555
Fe5 Ge1 2.445741 1_555
Fe5 Ge1 2.445741 1_554
Fe5 Ge2 2.448313 1_455
Fe6 Ge3 2.445741 1_555
Fe6 Ge3 2.445741 1_556
Fe6 Ge1 2.448313 1_555
Fe7 Ge0 2.445741 1_554
Fe7 Ge0 2.445741 1_555
Fe7 Ge2 2.448313 1_565
