# generated using pymatgen
data_Na14Ti4Si11Ge4SO48
_symmetry_space_group_name_H-M   'P 1'
_cell_length_a   17.69532382
_cell_length_b   8.87075403
_cell_length_c   21.91525868
_cell_angle_alpha   90.24492911
_cell_angle_beta   90.07198334
_cell_angle_gamma   119.99782776
_symmetry_Int_Tables_number   1
_chemical_formula_structural   Na14Ti4Si11Ge4SO48
_chemical_formula_sum   'Na42 Ti12 Si33 Ge12 S3 O144'
_cell_volume   2979.19196669
_cell_formula_units_Z   3
loop_
 _symmetry_equiv_pos_site_id
 _symmetry_equiv_pos_as_xyz
  1  'x, y, z'
loop_
 _atom_site_type_symbol
 _atom_site_label
 _atom_site_symmetry_multiplicity
 _atom_site_fract_x
 _atom_site_fract_y
 _atom_site_fract_z
 _atom_site_occupancy
  Na  Na0  1  0.31802411  0.99995464  0.24996338  1
  Na  Na1  1  0.81790866  0.00000056  0.24999839  1
  Na  Na2  1  0.31791221  0.63527036  0.75055706  1
  Na  Na3  1  0.81721645  0.63382500  0.74977182  1
  Na  Na4  1  0.50016963  0.36529878  0.75106973  1
  Na  Na5  1  0.68405549  0.00141255  0.74971633  1
  Na  Na6  1  0.14917714  0.33435884  0.58259227  1
  Na  Na7  1  0.64957997  0.33162924  0.58334476  1
  Na  Na8  1  0.01673659  0.69714230  0.58338211  1
  Na  Na9  1  0.51805276  0.70351896  0.58266426  1
  Na  Na10  1  0.33329970  0.96527617  0.58338333  1
  Na  Na11  1  0.83289231  0.96673571  0.58300701  1
  Na  Na12  1  0.14913445  0.96536470  0.08259083  1
  Na  Na13  1  0.64922073  0.96634684  0.08245783  1
  Na  Na14  1  0.33278919  0.69878353  0.08284768  1
  Na  Na15  1  0.83285266  0.69926687  0.08312227  1
  Na  Na16  1  0.01771607  0.33599141  0.08285247  1
  Na  Na17  1  0.51792298  0.33585495  0.08292985  1
  Na  Na18  1  0.48228936  0.66735703  0.91660418  1
  Na  Na19  1  0.98301486  0.66480069  0.91708433  1
  Na  Na20  1  0.35085281  0.03555371  0.91657170  1
  Na  Na21  1  0.85045473  0.03638324  0.91696309  1
  Na  Na22  1  0.16663544  0.29965432  0.91752679  1
  Na  Na23  1  0.66630166  0.29607040  0.91697070  1
  Na  Na24  1  0.48343108  0.30125526  0.41656242  1
  Na  Na25  1  0.98268430  0.30071284  0.41714061  1
  Na  Na26  1  0.16651301  0.03365431  0.41698488  1
  Na  Na27  1  0.66645434  0.03549688  0.41760027  1
  Na  Na28  1  0.35002837  0.66355919  0.41661646  1
  Na  Na29  1  0.84968897  0.66390751  0.41693726  1
  Na  Na30  1  0.00057047  0.00122640  0.49992974  1
  Na  Na31  1  0.50115134  0.99994632  0.50059321  1
  Na  Na32  1  0.00117931  0.00125613  0.00014323  1
  Na  Na33  1  0.50067158  0.00010537  0.99927477  1
  Na  Na34  1  0.33194147  0.32754829  0.83353072  1
  Na  Na35  1  0.83682263  0.33422828  0.83187231  1
  Na  Na36  1  0.33531708  0.34210237  0.33150041  1
  Na  Na37  1  0.83486715  0.34163792  0.33163670  1
  Na  Na38  1  0.16407576  0.65813332  0.16827428  1
  Na  Na39  1  0.66417484  0.65792892  0.16838356  1
  Na  Na40  1  0.16379275  0.66943607  0.66822717  1
  Na  Na41  1  0.66728235  0.66783436  0.66676390  1
  Ti  Ti0  1  0.99106488  0.99442608  0.35318345  1
  Ti  Ti1  1  0.49274378  0.99513261  0.35323524  1
  Ti  Ti2  1  0.99257455  0.98803894  0.85458110  1
  Ti  Ti3  1  0.49976449  0.00152327  0.85266665  1
  Ti  Ti4  1  0.99412757  0.98301391  0.64613163  1
  Ti  Ti5  1  0.50005213  0.99948967  0.64895826  1
  Ti  Ti6  1  0.99411397  0.00468142  0.14654781  1
  Ti  Ti7  1  0.49504517  0.00576087  0.14686179  1
  Ti  Ti8  1  0.33649229  0.32880407  0.68359303  1
  Ti  Ti9  1  0.33302220  0.33481557  0.98016350  1
  Ti  Ti10  1  0.33356658  0.33475406  0.48003794  1
  Ti  Ti11  1  0.16502607  0.66403334  0.51927891  1
  Si  Si0  1  0.35061547  0.69792368  0.24954352  1
  Si  Si1  1  0.85041775  0.69736410  0.24951585  1
  Si  Si2  1  0.00150762  0.30197079  0.25018221  1
  Si  Si3  1  0.50171464  0.30210986  0.25037493  1
  Si  Si4  1  0.64760447  0.29498406  0.75037022  1
  Si  Si5  1  0.00295320  0.70365357  0.75011502  1
  Si  Si6  1  0.50056719  0.70739516  0.75117468  1
  Si  Si7  1  0.34932237  0.99462169  0.75113869  1
  Si  Si8  1  0.85439401  0.00567627  0.75008050  1
  Si  Si9  1  0.48132150  0.33588142  0.58138698  1
  Si  Si10  1  0.97521075  0.33246884  0.58387868  1
  Si  Si11  1  0.18768348  0.04284321  0.58300752  1
  Si  Si12  1  0.69143936  0.04708745  0.58266381  1
  Si  Si13  1  0.33310529  0.62326341  0.58442512  1
  Si  Si14  1  0.83040693  0.61324675  0.58263057  1
  Si  Si15  1  0.48045321  0.62517719  0.08273188  1
  Si  Si16  1  0.97877703  0.62157762  0.08150391  1
  Si  Si17  1  0.33048477  0.04567557  0.08416397  1
  Si  Si18  1  0.83040586  0.04870059  0.08320758  1
  Si  Si19  1  0.18995254  0.33503648  0.08454935  1
  Si  Si20  1  0.69185108  0.33535465  0.08314400  1
  Si  Si21  1  0.30748642  0.66663797  0.91567903  1
  Si  Si22  1  0.80720915  0.66088299  0.91796440  1
  Si  Si23  1  0.02382615  0.38298465  0.91666257  1
  Si  Si24  1  0.52488983  0.38342004  0.91646415  1
  Si  Si25  1  0.16672552  0.95400565  0.91782127  1
  Si  Si26  1  0.66801389  0.95373897  0.91784652  1
  Si  Si27  1  0.30748475  0.95087907  0.41481092  1
  Si  Si28  1  0.80605875  0.95150287  0.41674426  1
  Si  Si29  1  0.16620611  0.37501550  0.41599018  1
  Si  Si30  1  0.66808515  0.37869441  0.41858475  1
  Si  Si31  1  0.02215104  0.66482777  0.41527440  1
  Si  Si32  1  0.52589788  0.66784317  0.41558778  1
  Ge  Ge0  1  0.83611422  0.33490982  0.68698464  1
  Ge  Ge1  1  0.34179350  0.35129621  0.18350060  1
  Ge  Ge2  1  0.84166604  0.35124720  0.18332023  1
  Ge  Ge3  1  0.83336928  0.33327859  0.98020270  1
  Ge  Ge4  1  0.83346265  0.33252646  0.48038741  1
  Ge  Ge5  1  0.16609448  0.66575817  0.01942853  1
  Ge  Ge6  1  0.66666221  0.66651086  0.01998858  1
  Ge  Ge7  1  0.66685481  0.66775715  0.51939750  1
  Ge  Ge8  1  0.16556851  0.64940000  0.31587759  1
  Ge  Ge9  1  0.66654530  0.64873973  0.31641818  1
  Ge  Ge10  1  0.16495468  0.67978820  0.81668102  1
  Ge  Ge11  1  0.66762730  0.66854030  0.81417269  1
  S  S0  1  0.14477912  0.99996121  0.25000135  1
  S  S1  1  0.64508211  0.00002552  0.24997134  1
  S  S2  1  0.14396903  0.28927534  0.75034746  1
  O  O0  1  0.10430700  0.02667534  0.30540625  1
  O  O1  1  0.60459346  0.02689440  0.30535124  1
  O  O2  1  0.41413285  0.79652460  0.30917039  1
  O  O3  1  0.91374093  0.79584534  0.30905494  1
  O  O4  1  0.48290693  0.16836334  0.30826014  1
  O  O5  1  0.98274771  0.16845840  0.30816524  1
  O  O6  1  0.10432601  0.18252569  0.80552640  1
  O  O7  1  0.60253129  0.16719444  0.80913384  1
  O  O8  1  0.48183984  0.79822531  0.80985220  1
  O  O9  1  0.98391529  0.79986899  0.80837846  1
  O  O10  1  0.41594824  0.03599962  0.80953429  1
  O  O11  1  0.91550730  0.03178332  0.80987156  1
  O  O12  1  0.39674456  0.96143573  0.69147074  1
  O  O13  1  0.89943911  0.96462581  0.69153571  1
  O  O14  1  0.09067182  0.20810509  0.69467272  1
  O  O15  1  0.58306338  0.20574166  0.69109128  1
  O  O16  1  0.01663182  0.82968143  0.69074371  1
  O  O17  1  0.51922960  0.83298485  0.69138035  1
  O  O18  1  0.39890199  0.83198816  0.19175455  1
  O  O19  1  0.89848492  0.83153509  0.19175657  1
  O  O20  1  0.01563961  0.20318448  0.19081279  1
  O  O21  1  0.51586544  0.20382329  0.19085524  1
  O  O22  1  0.09087005  0.97323582  0.19453827  1
  O  O23  1  0.59106024  0.97340312  0.19459658  1
  O  O24  1  0.43745505  0.37417148  0.64159388  1
  O  O25  1  0.93197781  0.37631398  0.64193397  1
  O  O26  1  0.25326884  0.13694564  0.64089755  1
  O  O27  1  0.75322846  0.13112337  0.64338972  1
  O  O28  1  0.31477054  0.49737759  0.64359532  1
  O  O29  1  0.81184080  0.49420906  0.64347901  1
  O  O30  1  0.43845021  0.49436492  0.14068603  1
  O  O31  1  0.93814446  0.49350177  0.14031069  1
  O  O32  1  0.31215329  0.13287947  0.14465574  1
  O  O33  1  0.81207152  0.13353659  0.14427613  1
  O  O34  1  0.25603369  0.37457179  0.14234087  1
  O  O35  1  0.75654803  0.37533413  0.14190062  1
  O  O36  1  0.23168964  0.29581866  0.02365225  1
  O  O37  1  0.73231519  0.29305073  0.02183055  1
  O  O38  1  0.41654774  0.53903282  0.02332724  1
  O  O39  1  0.91444020  0.53780699  0.02168832  1
  O  O40  1  0.35231720  0.16953278  0.02429899  1
  O  O41  1  0.85391870  0.17295593  0.02288587  1
  O  O42  1  0.23146972  0.16752742  0.52337666  1
  O  O43  1  0.73274193  0.17165509  0.52229909  1
  O  O44  1  0.35166257  0.53476632  0.52437917  1
  O  O45  1  0.85415831  0.53541082  0.52232977  1
  O  O46  1  0.41640535  0.29655159  0.52320778  1
  O  O47  1  0.91414034  0.29076958  0.52196724  1
  O  O48  1  0.26642137  0.70679623  0.97718105  1
  O  O49  1  0.76785584  0.70787942  0.97795809  1
  O  O50  1  0.08545615  0.46337282  0.97798929  1
  O  O51  1  0.58701804  0.46651522  0.97727532  1
  O  O52  1  0.14506002  0.82849455  0.97793451  1
  O  O53  1  0.64717282  0.82799504  0.97764465  1
  O  O54  1  0.26748704  0.82933080  0.47537734  1
  O  O55  1  0.76771604  0.82755635  0.47719979  1
  O  O56  1  0.14651034  0.46065355  0.47615514  1
  O  O57  1  0.64559587  0.46254337  0.47824377  1
  O  O58  1  0.08362042  0.70450151  0.47634893  1
  O  O59  1  0.58624877  0.70791729  0.47767920  1
  O  O60  1  0.06828484  0.62524589  0.35767269  1
  O  O61  1  0.57051193  0.62724518  0.35734445  1
  O  O62  1  0.24487960  0.86399726  0.35460773  1
  O  O63  1  0.74545945  0.86669997  0.35560946  1
  O  O64  1  0.19019265  0.50654739  0.35855495  1
  O  O65  1  0.69152179  0.50648083  0.35969643  1
  O  O66  1  0.06774877  0.51130441  0.85816554  1
  O  O67  1  0.56697488  0.50717477  0.85602891  1
  O  O68  1  0.19015245  0.87316686  0.85889642  1
  O  O69  1  0.68830226  0.87042799  0.85682505  1
  O  O70  1  0.24436881  0.62481789  0.85514151  1
  O  O71  1  0.74770812  0.62511476  0.85650196  1
  O  O72  1  0.01295256  0.83936502  0.40933964  1
  O  O73  1  0.51498979  0.84080566  0.40966831  1
  O  O74  1  0.40591331  0.97315282  0.41046634  1
  O  O75  1  0.90447201  0.97376871  0.41107506  1
  O  O76  1  0.08011556  0.18195799  0.40884466  1
  O  O77  1  0.58205581  0.18574680  0.40960476  1
  O  O78  1  0.01376738  0.18894889  0.90994940  1
  O  O79  1  0.51410933  0.18905664  0.91161214  1
  O  O80  1  0.08081918  0.97683360  0.90987269  1
  O  O81  1  0.58147403  0.97447388  0.91183926  1
  O  O82  1  0.40519584  0.83933423  0.91130262  1
  O  O83  1  0.90501537  0.83567881  0.91177226  1
  O  O84  1  0.48844490  0.16107343  0.58839053  1
  O  O85  1  0.98782174  0.16198355  0.59090827  1
  O  O86  1  0.09221615  0.02740824  0.58992320  1
  O  O87  1  0.59413792  0.02525004  0.58872191  1
  O  O88  1  0.42043037  0.81556518  0.58888282  1
  O  O89  1  0.91769003  0.80972920  0.58837126  1
  O  O90  1  0.49038435  0.81724253  0.09119335  1
  O  O91  1  0.98916835  0.81461331  0.09036419  1
  O  O92  1  0.41795809  0.02444112  0.08950092  1
  O  O93  1  0.91751188  0.02562583  0.08885329  1
  O  O94  1  0.09330926  0.16029412  0.09081557  1
  O  O95  1  0.59469096  0.16194860  0.09020683  1
  O  O96  1  0.34577539  0.17438513  0.74428561  1
  O  O97  1  0.84242059  0.17483134  0.74363236  1
  O  O98  1  0.23302394  0.31042765  0.74568198  1
  O  O99  1  0.74328930  0.31060360  0.74334472  1
  O  O100  1  0.41244529  0.51665929  0.74527735  1
  O  O101  1  0.91059225  0.51937306  0.74306409  1
  O  O102  1  0.34351700  0.50783785  0.24276944  1
  O  O103  1  0.84348782  0.50766009  0.24276604  1
  O  O104  1  0.40798878  0.30022040  0.24255789  1
  O  O105  1  0.90786350  0.30013438  0.24251800  1
  O  O106  1  0.23347262  0.15661732  0.24585220  1
  O  O107  1  0.73365686  0.15701108  0.24581552  1
  O  O108  1  0.31884943  0.49465421  0.92100338  1
  O  O109  1  0.81987576  0.48990446  0.92285870  1
  O  O110  1  0.42758653  0.36123585  0.92151910  1
  O  O111  1  0.92545797  0.36038873  0.92308826  1
  O  O112  1  0.25324170  0.14740092  0.92259207  1
  O  O113  1  0.75580506  0.14943352  0.92321338  1
  O  O114  1  0.32020082  0.14527406  0.42051589  1
  O  O115  1  0.81957787  0.14853198  0.42247899  1
  O  O116  1  0.25337874  0.35746753  0.42194841  1
  O  O117  1  0.75592571  0.35961026  0.42415434  1
  O  O118  1  0.42834853  0.49589692  0.42169305  1
  O  O119  1  0.92496206  0.48993185  0.42248172  1
  O  O120  1  0.17991833  0.50929347  0.07751001  1
  O  O121  1  0.68066889  0.50928275  0.07693313  1
  O  O122  1  0.07615255  0.64080351  0.07611279  1
  O  O123  1  0.57705843  0.64181238  0.07663410  1
  O  O124  1  0.24489520  0.84967077  0.07772152  1
  O  O125  1  0.74531521  0.85148961  0.07738834  1
  O  O126  1  0.17905048  0.85199087  0.57842587  1
  O  O127  1  0.68093668  0.85111079  0.57670984  1
  O  O128  1  0.24625172  0.64149325  0.57852663  1
  O  O129  1  0.74520018  0.64026678  0.57674575  1
  O  O130  1  0.07229296  0.50524651  0.57793613  1
  O  O131  1  0.57704026  0.51325414  0.57700045  1
  O  O132  1  0.15471212  0.84286871  0.25411234  1
  O  O133  1  0.65501450  0.84325314  0.25409340  1
  O  O134  1  0.25784290  0.69952881  0.25701823  1
  O  O135  1  0.75785060  0.69977799  0.25739597  1
  O  O136  1  0.08921441  0.49240892  0.25692115  1
  O  O137  1  0.58960684  0.49239858  0.25707195  1
  O  O138  1  0.15427759  0.46617987  0.75445584  1
  O  O139  1  0.65482358  0.48678647  0.75658282  1
  O  O140  1  0.09015447  0.68711655  0.75723053  1
  O  O141  1  0.58905606  0.69153064  0.75652127  1
  O  O142  1  0.25634021  0.81130237  0.75734801  1
  O  O143  1  0.75865407  0.82519769  0.75668162  1
loop_
_geom_bond_atom_site_label_1
_geom_bond_atom_site_label_2
_geom_bond_distance
_geom_bond_site_symmetry_2
Na0 O104 2.328015 1_565
Na0 O134 2.329443 1_555
Na0 O106 2.501556 1_565
Na0 O132 2.505271 1_555
Na0 O62 2.619020 1_555
Na0 O32 2.621539 1_565
Na0 O4 2.827118 1_565
Na0 O18 2.831291 1_555
Na1 O105 2.327181 1_555
Na1 O135 2.328595 1_545
Na1 O133 2.498812 1_545
Na1 O107 2.499612 1_555
Na1 O63 2.629390 1_545
Na1 O33 2.631965 1_555
Na1 O5 2.825253 1_555
Na1 O19 2.830955 1_545
Na2 O142 2.312422 1_555
Na2 O100 2.382872 1_555
Na2 O98 2.498027 1_555
Na2 O138 2.510032 1_555
Na2 O70 2.616117 1_555
Na2 O28 2.627028 1_555
Na2 O8 2.823855 1_555
Na2 O12 2.827505 1_555
Na3 O101 2.336518 1_555
Na3 O143 2.394997 1_555
Na3 O99 2.489500 1_555
Na3 O139 2.497193 1_555
Na3 O29 2.612693 1_555
Na3 O71 2.627462 1_555
Na3 O13 2.850301 1_555
Na3 O9 2.854851 1_555
Na4 O139 2.390453 1_555
Na4 O96 2.392614 1_555
Na4 O141 2.511591 1_555
Na4 O100 2.512700 1_555
Na4 O67 2.598670 1_555
Na4 O24 2.660101 1_555
Na4 O15 2.819155 1_555
Na4 O10 2.842423 1_555
Na5 O99 2.402049 1_555
Na5 O141 2.405819 1_545
Na5 O97 2.435022 1_555
Na5 O143 2.504821 1_545
Na5 O27 2.621775 1_555
Na5 O69 2.641176 1_545
Na5 O17 2.826733 1_545
Na5 O7 2.837091 1_555
Na6 O128 2.388373 1_555
Na6 O86 2.390747 1_555
Na6 O85 2.482291 1_455
Na6 O130 2.494497 1_555
Na6 O56 2.602557 1_555
Na6 O14 2.688847 1_555
Na6 O42 2.852717 1_555
Na6 O28 2.863781 1_555
Na7 O87 2.387413 1_555
Na7 O129 2.398223 1_555
Na7 O84 2.473853 1_555
Na7 O131 2.516391 1_555
Na7 O57 2.600614 1_555
Na7 O15 2.631230 1_555
Na7 O29 2.809697 1_555
Na7 O43 2.836554 1_555
Na8 O130 2.355911 1_555
Na8 O89 2.414769 1_455
Na8 O126 2.491015 1_555
Na8 O86 2.543781 1_565
Na8 O58 2.614986 1_555
Na8 O16 2.626176 1_555
Na8 O25 2.786312 1_455
Na8 O45 2.823419 1_455
Na9 O88 2.388912 1_555
Na9 O131 2.390338 1_555
Na9 O87 2.475816 1_565
Na9 O127 2.503547 1_555
Na9 O59 2.590752 1_555
Na9 O17 2.635994 1_555
Na9 O24 2.847430 1_555
Na9 O44 2.847541 1_555
Na10 O126 2.393191 1_555
Na10 O84 2.407342 1_565
Na10 O88 2.490736 1_555
Na10 O128 2.491306 1_555
Na10 O12 2.627710 1_555
Na10 O54 2.641490 1_555
Na10 O26 2.838629 1_565
Na10 O46 2.873018 1_565
Na11 O127 2.354008 1_555
Na11 O85 2.407073 1_565
Na11 O89 2.509160 1_555
Na11 O129 2.513200 1_555
Na11 O55 2.603118 1_555
Na11 O13 2.656943 1_555
Na11 O27 2.812205 1_565
Na11 O47 2.832696 1_565
Na12 O124 2.382127 1_555
Na12 O94 2.388343 1_565
Na12 O91 2.459261 1_455
Na12 O122 2.501061 1_555
Na12 O52 2.574499 1_554
Na12 O22 2.676506 1_555
Na12 O32 2.840088 1_565
Na12 O36 2.854910 1_565
Na13 O95 2.375428 1_565
Na13 O125 2.381970 1_555
Na13 O90 2.443789 1_555
Na13 O123 2.501057 1_555
Na13 O53 2.591332 1_554
Na13 O23 2.678080 1_555
Na13 O33 2.835242 1_565
Na13 O37 2.846610 1_565
Na14 O120 2.368017 1_555
Na14 O90 2.445681 1_555
Na14 O92 2.506056 1_565
Na14 O124 2.511101 1_555
Na14 O48 2.612438 1_554
Na14 O18 2.654791 1_555
Na14 O34 2.818970 1_555
Na14 O38 2.827660 1_555
Na15 O121 2.359996 1_555
Na15 O91 2.427067 1_555
Na15 O93 2.510183 1_565
Na15 O125 2.516165 1_555
Na15 O49 2.592877 1_554
Na15 O19 2.645759 1_555
Na15 O35 2.809972 1_555
Na15 O39 2.829207 1_555
Na16 O122 2.368590 1_555
Na16 O93 2.421475 1_455
Na16 O120 2.491075 1_555
Na16 O94 2.517002 1_555
Na16 O50 2.582574 1_554
Na16 O20 2.639675 1_555
Na16 O31 2.734434 1_455
Na16 O41 2.828832 1_455
Na17 O123 2.375692 1_555
Na17 O92 2.428754 1_555
Na17 O121 2.500012 1_555
Na17 O95 2.519462 1_555
Na17 O51 2.610099 1_554
Na17 O21 2.636015 1_555
Na17 O30 2.742886 1_555
Na17 O40 2.840133 1_555
Na18 O110 2.386844 1_555
Na18 O81 2.394806 1_555
Na18 O82 2.506798 1_555
Na18 O108 2.508429 1_555
Na18 O38 2.612439 1_556
Na18 O8 2.617901 1_555
Na18 O67 2.853954 1_555
Na18 O53 2.854713 1_555
Na19 O111 2.366403 1_555
Na19 O80 2.428199 1_655
Na19 O109 2.506150 1_555
Na19 O83 2.511856 1_555
Na19 O39 2.580486 1_556
Na19 O9 2.667711 1_555
Na19 O66 2.792987 1_655
Na19 O52 2.814154 1_655
Na20 O82 2.374876 1_545
Na20 O112 2.387113 1_555
Na20 O110 2.505279 1_555
Na20 O79 2.506029 1_555
Na20 O10 2.613756 1_555
Na20 O40 2.632863 1_556
Na20 O68 2.763761 1_545
Na20 O48 2.860542 1_545
Na21 O113 2.347020 1_555
Na21 O83 2.415004 1_545
Na21 O111 2.494444 1_555
Na21 O78 2.509716 1_655
Na21 O41 2.600267 1_556
Na21 O11 2.624465 1_555
Na21 O69 2.808451 1_545
Na21 O49 2.862555 1_545
Na22 O108 2.364807 1_555
Na22 O78 2.377069 1_555
Na22 O80 2.486287 1_545
Na22 O112 2.501127 1_555
Na22 O36 2.601658 1_556
Na22 O6 2.673158 1_555
Na22 O50 2.828938 1_555
Na22 O70 2.855237 1_555
Na23 O79 2.368456 1_555
Na23 O109 2.383915 1_555
Na23 O81 2.473702 1_545
Na23 O113 2.506022 1_555
Na23 O37 2.582879 1_556
Na23 O7 2.616414 1_555
Na23 O51 2.847735 1_555
Na23 O71 2.860854 1_555
Na24 O118 2.371781 1_555
Na24 O77 2.430286 1_555
Na24 O114 2.504053 1_555
Na24 O74 2.524804 1_545
Na24 O46 2.613249 1_555
Na24 O4 2.643528 1_555
Na24 O57 2.824366 1_555
Na24 O61 2.828858 1_555
Na25 O119 2.363761 1_555
Na25 O76 2.435261 1_655
Na25 O115 2.504501 1_555
Na25 O75 2.515372 1_545
Na25 O47 2.580365 1_555
Na25 O5 2.656571 1_555
Na25 O56 2.819881 1_655
Na25 O60 2.820871 1_655
Na26 O114 2.385077 1_555
Na26 O72 2.386561 1_545
Na26 O76 2.472312 1_555
Na26 O116 2.491488 1_555
Na26 O42 2.602407 1_555
Na26 O0 2.668082 1_555
Na26 O58 2.850301 1_545
Na26 O62 2.851444 1_545
Na27 O73 2.358851 1_545
Na27 O115 2.374922 1_555
Na27 O77 2.455462 1_555
Na27 O117 2.497564 1_555
Na27 O43 2.579214 1_555
Na27 O1 2.676493 1_555
Na27 O59 2.847009 1_545
Na27 O63 2.850045 1_545
Na28 O116 2.381387 1_555
Na28 O74 2.413761 1_555
Na28 O118 2.491438 1_555
Na28 O73 2.535743 1_555
Na28 O2 2.629678 1_555
Na28 O44 2.634280 1_555
Na28 O64 2.755949 1_555
Na28 O54 2.844349 1_555
Na29 O117 2.364373 1_555
Na29 O75 2.418785 1_555
Na29 O119 2.495476 1_555
Na29 O72 2.510722 1_655
Na29 O45 2.598551 1_555
Na29 O3 2.635935 1_555
Na29 O65 2.724912 1_555
Na29 O55 2.837188 1_555
Na30 O86 2.486960 1_555
Na30 O76 2.512795 1_555
Na30 O75 2.513233 1_445
Na30 O89 2.517414 1_445
Na30 O72 2.518404 1_545
Na30 O85 2.521565 1_455
Na31 O84 2.468724 1_565
Na31 O87 2.471229 1_565
Na31 O88 2.481362 1_555
Na31 O73 2.519191 1_555
Na31 O74 2.526845 1_555
Na31 O77 2.533397 1_565
Na32 O80 2.501048 1_544
Na32 O94 2.502953 1_555
Na32 O83 2.504369 1_444
Na32 O93 2.518312 1_455
Na32 O91 2.524470 1_445
Na32 O78 2.527289 1_554
Na33 O81 2.469018 1_545
Na33 O82 2.482778 1_545
Na33 O79 2.487357 1_555
Na33 O95 2.525697 1_556
Na33 O92 2.533426 1_556
Na33 O90 2.540851 1_546
Na34 O96 2.458098 1_555
Na34 O112 2.472011 1_555
Na34 O110 2.480563 1_555
Na34 O100 2.495859 1_555
Na34 O108 2.499219 1_555
Na34 O98 2.552764 1_555
Na35 O97 2.421957 1_555
Na35 O101 2.465613 1_555
Na35 O111 2.476715 1_555
Na35 O99 2.487752 1_555
Na35 O109 2.522905 1_555
Na35 O113 2.536705 1_555
Na36 O102 2.403268 1_555
Na36 O104 2.463515 1_555
Na36 O118 2.490228 1_555
Na36 O116 2.500494 1_555
Na36 O106 2.545248 1_555
Na36 O114 2.547382 1_555
Na37 O103 2.405431 1_555
Na37 O105 2.468640 1_555
Na37 O119 2.471509 1_555
Na37 O117 2.512912 1_555
Na37 O107 2.541538 1_555
Na37 O115 2.556962 1_555
Na38 O136 2.402862 1_555
Na38 O134 2.459042 1_555
Na38 O120 2.475381 1_555
Na38 O122 2.504773 1_555
Na38 O124 2.544906 1_555
Na38 O132 2.549047 1_555
Na39 O137 2.401741 1_555
Na39 O135 2.461958 1_555
Na39 O121 2.490837 1_555
Na39 O123 2.491821 1_555
Na39 O133 2.549105 1_555
Na39 O125 2.560821 1_555
Na40 O140 2.394838 1_555
Na40 O142 2.447535 1_555
Na40 O126 2.481901 1_555
Na40 O130 2.503516 1_555
Na40 O128 2.533700 1_555
Na40 O138 2.564509 1_555
Na41 O131 2.465687 1_555
Na41 O141 2.474646 1_555
Na41 O143 2.481449 1_555
Na41 O139 2.485283 1_555
Na41 O129 2.488479 1_555
Na41 O127 2.496472 1_555
Ge0 O25 1.836171 1_555
Ge0 O27 1.913733 1_555
Ge0 O29 1.925569 1_555
Ge0 O97 1.934755 1_555
Ge0 O101 1.935777 1_555
Ge0 O99 1.980742 1_555
Ge1 O30 1.805582 1_555
Ge1 O34 1.862980 1_555
Ge1 O102 1.886401 1_555
Ge1 O32 1.929355 1_555
Ge1 O104 1.945332 1_555
Ge1 O106 2.289184 1_555
Ge2 O31 1.804281 1_555
Ge2 O35 1.859638 1_555
Ge2 O103 1.887623 1_555
Ge2 O33 1.926032 1_555
Ge2 O105 1.947587 1_555
Ge2 O107 2.287213 1_555
Ge3 O37 1.877770 1_556
Ge3 O39 1.885833 1_556
Ge3 O41 1.886123 1_556
Ge3 O113 1.960451 1_555
Ge3 O111 1.973770 1_555
Ge3 O109 1.978037 1_555
Ge4 O43 1.878495 1_555
Ge4 O47 1.879904 1_555
Ge4 O45 1.882556 1_555
Ge4 O117 1.945979 1_555
Ge4 O115 1.978742 1_555
Ge4 O119 1.985267 1_555
Ge5 O48 1.871435 1_554
Ge5 O50 1.872215 1_554
Ge5 O52 1.896599 1_554
Ge5 O122 1.944287 1_555
Ge5 O124 1.985184 1_555
Ge5 O120 1.990048 1_555
Ge6 O51 1.868758 1_554
Ge6 O53 1.880598 1_554
Ge6 O49 1.881359 1_554
Ge6 O123 1.939848 1_555
Ge6 O125 1.976446 1_555
Ge6 O121 1.980876 1_555
Ge7 O59 1.872134 1_555
Ge7 O55 1.880312 1_555
Ge7 O57 1.889216 1_555
Ge7 O131 1.959505 1_555
Ge7 O127 1.965096 1_555
Ge7 O129 1.974151 1_555
Ge8 O64 1.797688 1_555
Ge8 O60 1.866851 1_555
Ge8 O136 1.879642 1_555
Ge8 O62 1.904110 1_555
Ge8 O134 1.952410 1_555
Ge8 O132 2.272315 1_555
Ge9 O65 1.803963 1_555
Ge9 O61 1.846581 1_555
Ge9 O137 1.886949 1_555
Ge9 O63 1.925879 1_555
Ge9 O135 1.940957 1_555
Ge9 O133 2.292596 1_555
Ge10 O68 1.793866 1_555
Ge10 O66 1.861162 1_555
Ge10 O140 1.880449 1_555
Ge10 O70 1.899658 1_555
Ge10 O142 1.949006 1_555
Ge10 O138 2.259451 1_555
Ge11 O67 1.878474 1_555
Ge11 O69 1.882700 1_555
Ge11 O71 1.887479 1_555
Ge11 O141 1.962718 1_555
Ge11 O139 1.964772 1_555
Ge11 O143 1.973557 1_555
O0 S0 1.487546 1_545
O0 Ti0 2.151327 1_445
O1 S1 1.487808 1_555
O1 Ti1 2.132613 1_545
O2 Si0 1.655115 1_555
O2 Ti1 1.871633 1_555
O3 Si1 1.651983 1_555
O3 Ti0 1.866145 1_555
O4 Si3 1.657333 1_555
O4 Ti1 1.908712 1_545
O5 Si2 1.657830 1_655
O5 Ti0 1.902150 1_545
O6 S2 1.482837 1_555
O6 Ti2 2.156943 1_445
O7 Si4 1.640316 1_555
O7 Ti3 1.928967 1_555
O8 Si6 1.634579 1_555
O8 Ti3 1.909471 1_565
O9 Si5 1.658794 1_655
O9 Ti2 1.887959 1_555
O10 Si7 1.649830 1_545
O10 Ti3 1.907697 1_555
O11 Si8 1.638139 1_555
O11 Ti2 1.870678 1_545
O12 Si7 1.657479 1_555
O12 Ti5 1.927093 1_555
O13 Si8 1.644055 1_565
O13 Ti4 1.885854 1_555
O14 S2 1.485661 1_555
O14 Ti4 2.145569 1_445
O15 Si4 1.643823 1_555
O15 Ti5 1.911165 1_545
O16 Si5 1.656512 1_555
O16 Ti4 1.875241 1_455
O17 Si6 1.647141 1_555
O17 Ti5 1.916567 1_555
O18 Si0 1.657659 1_555
O18 Ti7 1.906130 1_565
O19 Si1 1.656990 1_555
O19 Ti6 1.903290 1_565
O20 Si2 1.653329 1_555
O20 Ti6 1.870989 1_455
O21 Si3 1.653392 1_555
O21 Ti7 1.868037 1_555
O22 S0 1.487312 1_555
O22 Ti6 2.142631 1_465
O23 S1 1.487006 1_565
O23 Ti7 2.132879 1_565
O24 Si9 1.649616 1_555
O24 Ti8 1.867972 1_555
O25 Si10 1.628193 1_555
O26 Si11 1.634555 1_555
O26 Ti8 1.848654 1_555
O27 Si12 1.641684 1_555
O28 Si13 1.638583 1_555
O28 Ti8 1.933222 1_555
O29 Si14 1.633238 1_555
O30 Si15 1.632367 1_555
O31 Si16 1.633001 1_555
O32 Si17 1.644479 1_555
O33 Si18 1.642972 1_555
O34 Si19 1.636093 1_555
O35 Si20 1.637348 1_555
O36 Si19 1.644082 1_555
O36 Ti9 1.905287 1_554
O37 Si20 1.651011 1_555
O38 Si15 1.637466 1_555
O38 Ti9 1.914572 1_554
O39 Si16 1.645804 1_555
O40 Si17 1.633034 1_555
O40 Ti9 1.927092 1_554
O41 Si18 1.640396 1_555
O42 Si11 1.639951 1_555
O42 Ti10 1.924342 1_555
O43 Si12 1.647016 1_555
O44 Si13 1.644928 1_555
O44 Ti10 1.900316 1_555
O45 Si14 1.638149 1_555
O46 Si9 1.630549 1_555
O46 Ti10 1.911709 1_555
O47 Si10 1.654656 1_555
O48 Si21 1.651905 1_555
O49 Si22 1.635628 1_555
O50 Si23 1.647618 1_555
O51 Si24 1.644885 1_555
O52 Si25 1.645940 1_555
O53 Si26 1.643162 1_555
O54 Si27 1.636099 1_555
O54 Ti11 1.929008 1_555
O55 Si28 1.641148 1_555
O56 Si29 1.641473 1_555
O56 Ti11 1.910228 1_555
O57 Si30 1.646206 1_555
O58 Si31 1.645604 1_555
O58 Ti11 1.898846 1_555
O59 Si32 1.652599 1_555
O60 Si31 1.633610 1_555
O61 Si32 1.632508 1_555
O62 Si27 1.641911 1_555
O63 Si28 1.640719 1_555
O64 Si29 1.626218 1_555
O65 Si30 1.632867 1_555
O66 Si23 1.635110 1_555
O67 Si24 1.646619 1_555
O68 Si25 1.626148 1_555
O69 Si26 1.649693 1_555
O70 Si21 1.650133 1_555
O71 Si22 1.637772 1_555
O72 Si31 1.641413 1_555
O72 Ti0 2.025484 1_455
O73 Si32 1.644981 1_555
O73 Ti1 2.027504 1_555
O74 Si27 1.654743 1_555
O74 Ti1 1.918151 1_555
O75 Si28 1.656480 1_555
O75 Ti0 1.928009 1_555
O76 Si29 1.632945 1_555
O76 Ti0 2.023628 1_445
O77 Si30 1.636055 1_555
O77 Ti1 2.046462 1_545
O78 Si23 1.645425 1_555
O78 Ti2 2.025184 1_445
O79 Si24 1.640088 1_555
O79 Ti3 2.014744 1_555
O80 Si25 1.640007 1_555
O80 Ti2 2.016925 1_455
O81 Si26 1.636322 1_555
O81 Ti3 2.043194 1_565
O82 Si21 1.642745 1_555
O82 Ti3 2.033555 1_565
O83 Si22 1.654395 1_555
O83 Ti2 1.929669 1_555
O84 Si9 1.625266 1_555
O84 Ti5 2.041710 1_545
O85 Si10 1.643183 1_555
O85 Ti4 2.047145 1_545
O86 Si11 1.632505 1_555
O86 Ti4 2.002794 1_445
O87 Si12 1.639196 1_555
O87 Ti5 2.048016 1_545
O88 Si13 1.633917 1_555
O88 Ti5 2.014641 1_555
O89 Si14 1.656807 1_555
O89 Ti4 1.922174 1_555
O90 Si15 1.632761 1_555
O90 Ti7 2.033753 1_565
O91 Si16 1.638888 1_555
O91 Ti6 2.049609 1_565
O92 Si17 1.654188 1_555
O92 Ti7 1.921436 1_555
O93 Si18 1.657783 1_555
O93 Ti6 1.928758 1_555
O94 Si19 1.642537 1_555
O94 Ti6 2.018737 1_455
O95 Si20 1.644469 1_555
O95 Ti7 2.036583 1_555
O96 Si7 1.634463 1_545
O96 Ti8 1.978016 1_555
O97 Si8 1.623607 1_555
O98 S2 1.494618 1_555
O98 Ti8 2.222610 1_555
O99 Si4 1.635846 1_555
O100 Si6 1.634153 1_555
O100 Ti8 2.036515 1_555
O101 Si5 1.641022 1_655
O102 Si0 1.633134 1_555
O103 Si1 1.631035 1_555
O104 Si3 1.658839 1_555
O105 Si2 1.657293 1_655
O106 S0 1.491037 1_545
O107 S1 1.491007 1_555
O108 Si21 1.640056 1_555
O108 Ti9 2.030939 1_555
O109 Si22 1.644205 1_555
O110 Si24 1.636304 1_555
O110 Ti9 2.030419 1_555
O111 Si23 1.655860 1_655
O112 Si25 1.633911 1_545
O112 Ti9 1.994876 1_555
O113 Si26 1.655868 1_545
O114 Si27 1.627886 1_545
O114 Ti10 2.040996 1_555
O115 Si28 1.645532 1_545
O116 Si29 1.631106 1_555
O116 Ti10 1.989522 1_555
O117 Si30 1.649981 1_555
O118 Si32 1.641238 1_555
O118 Ti10 2.028536 1_555
O119 Si31 1.650582 1_655
O120 Si19 1.649611 1_555
O121 Si20 1.656846 1_555
O122 Si16 1.648916 1_455
O123 Si15 1.646326 1_555
O124 Si17 1.643491 1_565
O125 Si18 1.645459 1_565
O126 Si11 1.624678 1_565
O126 Ti11 2.022057 1_555
O127 Si12 1.657933 1_565
O128 Si13 1.628843 1_555
O128 Ti11 2.019076 1_555
O129 Si14 1.645774 1_555
O130 Si10 1.639111 1_455
O130 Ti11 2.009671 1_555
O131 Si9 1.640316 1_555
O132 S0 1.492276 1_555
O133 S1 1.489466 1_565
O134 Si0 1.657121 1_555
O135 Si1 1.658040 1_555
O136 Si2 1.630943 1_555
O137 Si3 1.631551 1_555
O138 S2 1.488799 1_555
O139 Si4 1.646320 1_555
O140 Si5 1.628739 1_555
O141 Si6 1.644814 1_555
O142 Si7 1.642300 1_555
O143 Si8 1.656709 1_565
