# generated using pymatgen
data_Y6C2I7
_symmetry_space_group_name_H-M   'P 1'
_cell_length_a   3.94072097
_cell_length_b   11.06123911
_cell_length_c   11.52949399
_cell_angle_alpha   68.30354516
_cell_angle_beta   80.16000094
_cell_angle_gamma   79.73902792
_symmetry_Int_Tables_number   1
_chemical_formula_structural   Y6C2I7
_chemical_formula_sum   'Y6 C2 I7'
_cell_volume   456.44736816
_cell_formula_units_Z   1
loop_
 _symmetry_equiv_pos_site_id
 _symmetry_equiv_pos_as_xyz
  1  'x, y, z'
loop_
 _atom_site_type_symbol
 _atom_site_label
 _atom_site_symmetry_multiplicity
 _atom_site_fract_x
 _atom_site_fract_y
 _atom_site_fract_z
 _atom_site_occupancy
  Y  Y0  1  0.76494637  0.28430453  0.18580174  1
  Y  Y1  1  0.69101294  0.99081209  0.62716303  1
  Y  Y2  1  0.86242347  0.71813852  0.55701254  1
  Y  Y3  1  0.13757653  0.28186148  0.44298746  1
  Y  Y4  1  0.30898806  0.00918791  0.37283697  1
  Y  Y5  1  0.23505363  0.71569547  0.81419826  1
  C  C0  1  0.71925974  0.15759478  0.40388574  1
  C  C1  1  0.28074026  0.84240522  0.59611426  1
  I  I0  1  0.83897405  0.49314211  0.82890979  1
  I  I1  1  0.16102595  0.50685789  0.17109021  1
  I  I2  1  0.94285367  0.83837599  0.27591567  1
  I  I3  1  0.05714633  0.16162401  0.72408433  1
  I  I4  1  0.50000000  0.50000000  0.50000000  1
  I  I5  1  0.60950405  0.84549114  0.93550075  1
  I  I6  1  0.39049595  0.15450886  0.06449925  1
loop_
_geom_bond_atom_site_label_1
_geom_bond_atom_site_label_2
_geom_bond_distance
_geom_bond_site_symmetry_2
C0 Y0 2.376664 1_555
C0 Y3 2.515845 1_555
C0 Y3 2.515851 1_655
C0 Y1 2.550784 1_545
C0 Y4 2.648519 1_555
C0 Y4 2.648522 1_655
C1 Y5 2.376664 1_555
C1 Y2 2.515845 1_555
C1 Y2 2.515851 1_455
C1 Y4 2.550784 1_565
C1 Y1 2.648519 1_455
C1 Y1 2.648522 1_555
I0 Y5 3.081346 1_555
I0 Y5 3.081348 1_655
I0 Y2 3.200627 1_555
I0 Y0 3.892884 1_556
I1 Y0 3.081346 1_555
I1 Y0 3.081348 1_455
I1 Y3 3.200627 1_555
I1 Y5 3.892884 1_554
I2 Y2 2.997479 1_555
I2 Y4 3.159679 1_565
I2 Y4 3.159684 1_665
I3 Y3 2.997479 1_555
I3 Y1 3.159682 1_445
I3 Y1 3.159682 1_545
I4 Y3 3.318908 1_555
I4 Y2 3.318908 1_555
I4 Y3 3.318913 1_655
I4 Y2 3.318913 1_455
I5 Y5 3.023133 1_555
I5 Y5 3.023136 1_655
I5 Y1 3.300521 1_555
I6 Y0 3.023133 1_555
I6 Y0 3.023136 1_455
I6 Y4 3.300521 1_555
