# generated using pymatgen
data_MgTiPbO3
_symmetry_space_group_name_H-M   'P 1'
_cell_length_a   3.73347702
_cell_length_b   3.73347702
_cell_length_c   7.01938629
_cell_angle_alpha   90.00000000
_cell_angle_beta   90.00000000
_cell_angle_gamma   90.00000000
_symmetry_Int_Tables_number   1
_chemical_formula_structural   MgTiPbO3
_chemical_formula_sum   'Mg1 Ti1 Pb1 O3'
_cell_volume   97.84217721
_cell_formula_units_Z   1
loop_
 _symmetry_equiv_pos_site_id
 _symmetry_equiv_pos_as_xyz
  1  'x, y, z'
loop_
 _atom_site_type_symbol
 _atom_site_label
 _atom_site_symmetry_multiplicity
 _atom_site_fract_x
 _atom_site_fract_y
 _atom_site_fract_z
 _atom_site_occupancy
  Mg  Mg0  1  0.00000000  -0.00000000  0.63622096  1
  Ti  Ti0  1  0.50000000  0.50000000  0.41091248  1
  Pb  Pb0  1  -0.00000000  0.00000000  0.08425880  1
  O  O0  1  0.50000000  0.50000000  0.15165545  1
  O  O1  1  0.00000000  0.50000000  0.52364766  1
  O  O2  1  0.50000000  0.00000000  0.52364766  1
loop_
_geom_bond_atom_site_label_1
_geom_bond_atom_site_label_2
_geom_bond_distance
_geom_bond_site_symmetry_2
Mg0 O2 2.027097 1_455
Mg0 O2 2.027097 1_555
Mg0 O1 2.027097 1_545
Mg0 O1 2.027097 1_555
Mg0 Pb0 3.144951 1_556
O0 Ti0 1.819825 1_555
O0 Pb0 2.682020 1_565
O0 Pb0 2.682020 1_655
O0 Pb0 2.682020 1_665
O0 Pb0 2.682020 1_555
O1 Ti0 2.027540 1_555
O1 Ti0 2.027540 1_455
O2 Ti0 2.027540 1_555
O2 Ti0 2.027540 1_545
