# generated using pymatgen
data_Na7CaZr3Si3(PO8)3
_symmetry_space_group_name_H-M   'P 1'
_cell_length_a   9.27660551
_cell_length_b   9.27379179
_cell_length_c   22.83820993
_cell_angle_alpha   90.01325912
_cell_angle_beta   90.06414623
_cell_angle_gamma   119.95753210
_symmetry_Int_Tables_number   1
_chemical_formula_structural   Na7CaZr3Si3(PO8)3
_chemical_formula_sum   'Na21 Ca3 Zr9 Si9 P9 O72'
_cell_volume   1702.25398566
_cell_formula_units_Z   3
loop_
 _symmetry_equiv_pos_site_id
 _symmetry_equiv_pos_as_xyz
  1  'x, y, z'
loop_
 _atom_site_type_symbol
 _atom_site_label
 _atom_site_symmetry_multiplicity
 _atom_site_fract_x
 _atom_site_fract_y
 _atom_site_fract_z
 _atom_site_occupancy
  Na  Na0  1  0.63852308  0.01285720  0.24402297  1
  Na  Na1  1  0.37589932  0.36308953  0.24472722  1
  Na  Na2  1  0.98809604  0.62961180  0.24881016  1
  Na  Na3  1  0.63847825  0.62182374  0.74800775  1
  Na  Na4  1  0.98460073  0.37161900  0.74301576  1
  Na  Na5  1  0.37251209  0.00748289  0.74456756  1
  Na  Na6  1  0.02656495  0.68462258  0.58477221  1
  Na  Na7  1  0.66736216  0.97685442  0.57838432  1
  Na  Na8  1  0.31999964  0.98030287  0.08349128  1
  Na  Na9  1  0.65649116  0.68464854  0.08411317  1
  Na  Na10  1  0.02565809  0.33535663  0.07868864  1
  Na  Na11  1  0.33350222  0.30289638  0.91864946  1
  Na  Na12  1  0.96997435  0.28586859  0.41621130  1
  Na  Na13  1  0.31642130  0.03043382  0.41535575  1
  Na  Na14  1  0.71469706  0.68322475  0.41519834  1
  Na  Na15  1  0.00928236  0.01341519  0.49222075  1
  Na  Na16  1  0.98314916  0.99403895  0.99605462  1
  Na  Na17  1  0.69233624  0.34990522  0.83474790  1
  Na  Na18  1  0.66460621  0.33317698  0.33406379  1
  Na  Na19  1  0.34186637  0.66896201  0.16482855  1
  Na  Na20  1  0.32075785  0.64667806  0.66251369  1
  Ca  Ca0  1  0.99864438  -0.00000995  0.35262817  1
  Ca  Ca1  1  0.66890651  0.33774751  0.68218307  1
  Ca  Ca2  1  0.66346063  0.33109584  0.17637092  1
  Zr  Zr0  1  0.99013352  0.99063727  0.85617126  1
  Zr  Zr1  1  0.00675319  0.00433975  0.64651945  1
  Zr  Zr2  1  0.00037759  0.00379512  0.14823192  1
  Zr  Zr3  1  0.67138008  0.33064190  0.98067495  1
  Zr  Zr4  1  0.66829317  0.33170668  0.48249767  1
  Zr  Zr5  1  0.33627177  0.66518991  0.01298210  1
  Zr  Zr6  1  0.33063058  0.65872745  0.51718954  1
  Zr  Zr7  1  0.33378105  0.66612682  0.31837325  1
  Zr  Zr8  1  0.32778035  0.66354300  0.81690055  1
  Si  Si0  1  0.00661292  0.71070746  0.75027887  1
  Si  Si1  1  0.97061814  0.33394420  0.58610604  1
  Si  Si2  1  0.66389777  0.02839622  0.08548340  1
  Si  Si3  1  0.36372532  0.33490400  0.08295193  1
  Si  Si4  1  0.62910171  0.66156072  0.91580698  1
  Si  Si5  1  0.03316609  0.36798623  0.91583871  1
  Si  Si6  1  0.62310807  0.96480309  0.41922599  1
  Si  Si7  1  0.34203461  0.37479694  0.41582810  1
  Si  Si8  1  0.03539625  0.65987089  0.41839784  1
  P  P0  1  0.29750301  0.99368943  0.25080623  1
  P  P1  1  0.69692046  0.70187730  0.25062520  1
  P  P2  1  0.00623797  0.30583113  0.25057353  1
  P  P3  1  0.28528762  0.29204037  0.75381882  1
  P  P4  1  0.70675971  0.99229360  0.75030580  1
  P  P5  1  0.36478203  0.03060543  0.58408114  1
  P  P6  1  0.66877421  0.63847437  0.58512729  1
  P  P7  1  0.96880737  0.63564158  0.08357303  1
  P  P8  1  0.33529352  0.96464350  0.91630182  1
  O  O0  1  0.21684427  0.01051515  0.30629452  1
  O  O1  1  0.79340556  0.78104876  0.30652276  1
  O  O2  1  0.98544820  0.20717075  0.30611617  1
  O  O3  1  0.19847973  0.19247522  0.80918615  1
  O  O4  1  0.99692901  0.82195489  0.80406704  1
  O  O5  1  0.81997692  0.01340579  0.80325818  1
  O  O6  1  0.79235977  0.97436255  0.69402365  1
  O  O7  1  0.17363615  0.20156472  0.69943117  1
  O  O8  1  0.02645009  0.82032211  0.69039150  1
  O  O9  1  0.79526155  0.81303661  0.19599725  1
  O  O10  1  0.01894422  0.20571512  0.19592731  1
  O  O11  1  0.18656143  0.97985865  0.19574443  1
  O  O12  1  0.90249198  0.37097514  0.64575766  1
  O  O13  1  0.46292270  0.10117872  0.64077729  1
  O  O14  1  0.64059410  0.54451515  0.64255562  1
  O  O15  1  0.91277760  0.53830726  0.14072026  1
  O  O16  1  0.62274251  0.08567520  0.14641577  1
  O  O17  1  0.47037883  0.38372464  0.14240124  1
  O  O18  1  0.46031231  0.30243771  0.02826189  1
  O  O19  1  0.84281888  0.54006723  0.03348555  1
  O  O20  1  0.70081064  0.16688893  0.03368529  1
  O  O21  1  0.45717684  0.14324848  0.53067476  1
  O  O22  1  0.69010270  0.54345136  0.53242959  1
  O  O23  1  0.84290559  0.30718238  0.53024826  1
  O  O24  1  0.53740608  0.68349487  0.97363773  1
  O  O25  1  0.14887236  0.46169046  0.97291651  1
  O  O26  1  0.31341338  0.85976059  0.97137884  1
  O  O27  1  0.52836274  0.85350422  0.47630840  1
  O  O28  1  0.32163438  0.47828808  0.46944102  1
  O  O29  1  0.15140695  0.67942713  0.47476256  1
  O  O30  1  0.12529502  0.63342916  0.35908396  1
  O  O31  1  0.50761090  0.87149328  0.36004211  1
  O  O32  1  0.36673342  0.48708323  0.35568922  1
  O  O33  1  0.12785863  0.48506604  0.85803286  1
  O  O34  1  0.35370667  0.87568531  0.86143904  1
  O  O35  1  0.51106821  0.64036672  0.85864360  1
  O  O36  1  0.01368894  0.82127988  0.41794944  1
  O  O37  1  0.80705359  0.98822246  0.41836862  1
  O  O38  1  0.18058185  0.19232553  0.41674610  1
  O  O39  1  0.03320690  0.19136512  0.91228137  1
  O  O40  1  0.18280900  0.99051232  0.91162355  1
  O  O41  1  0.81402470  0.82621070  0.91260424  1
  O  O42  1  0.97394583  0.15726010  0.58791161  1
  O  O43  1  0.18634957  0.00840893  0.58606734  1
  O  O44  1  0.83537824  0.81093643  0.58706413  1
  O  O45  1  0.98029867  0.80970523  0.08830935  1
  O  O46  1  0.83238933  0.00802028  0.08839853  1
  O  O47  1  0.17950004  0.16071668  0.08868221  1
  O  O48  1  0.68193893  0.14390197  0.74899050  1
  O  O49  1  0.45796126  0.30845487  0.74984254  1
  O  O50  1  0.84153956  0.52822440  0.75341573  1
  O  O51  1  0.67370853  0.52612994  0.24589034  1
  O  O52  1  0.85753873  0.33433407  0.24462570  1
  O  O53  1  0.47341036  0.14586741  0.24643042  1
  O  O54  1  0.63183239  0.48692742  0.92174206  1
  O  O55  1  0.84899696  0.34747741  0.92165727  1
  O  O56  1  0.49171059  0.13980036  0.92127706  1
  O  O57  1  0.62850257  0.14525828  0.42232141  1
  O  O58  1  0.51487450  0.36899016  0.42251928  1
  O  O59  1  0.85388991  0.48739300  0.42313331  1
  O  O60  1  0.32624811  0.48979930  0.07274124  1
  O  O61  1  0.14629411  0.66710237  0.07087290  1
  O  O62  1  0.50165538  0.84346595  0.07295224  1
  O  O63  1  0.34334378  0.85394482  0.57722324  1
  O  O64  1  0.52627467  0.67795558  0.57694465  1
  O  O65  1  0.15459863  0.49943756  0.57755677  1
  O  O66  1  0.30350872  0.82690687  0.25028259  1
  O  O67  1  0.52464764  0.69652886  0.24976004  1
  O  O68  1  0.17391658  0.47643719  0.24976062  1
  O  O69  1  0.30071240  0.46845933  0.75473115  1
  O  O70  1  0.18128468  0.70136914  0.75367371  1
  O  O71  1  0.53543274  0.82805448  0.75493387  1
loop_
_geom_bond_atom_site_label_1
_geom_bond_atom_site_label_2
_geom_bond_distance
_geom_bond_site_symmetry_2
Na0 O16 2.354861 1_555
Na0 O53 2.399522 1_555
Na0 O67 2.577675 1_545
Na0 O52 2.639469 1_555
Na0 O66 2.702095 1_545
Na0 O31 2.938198 1_545
Na1 O51 2.397326 1_555
Na1 O17 2.470500 1_555
Na1 O68 2.568353 1_555
Na1 O53 2.587994 1_555
Na1 O67 2.686504 1_555
Na1 O32 2.801481 1_555
Na2 O52 2.379472 1_555
Na2 O66 2.561864 1_655
Na2 O51 2.575925 1_555
Na2 O15 2.589083 1_555
Na2 O68 2.726754 1_655
Na2 O30 2.812744 1_655
Na3 O50 2.439191 1_555
Na3 O14 2.515521 1_555
Na3 O49 2.528128 1_555
Na3 O71 2.534300 1_555
Na3 O69 2.722976 1_555
Na3 O35 2.832022 1_555
Na4 O12 2.346403 1_555
Na4 O50 2.419174 1_555
Na4 O48 2.537856 1_555
Na4 O69 2.616354 1_655
Na4 O70 2.676957 1_655
Na4 O33 2.892666 1_655
Na5 O70 2.494142 1_545
Na5 O48 2.494518 1_555
Na5 O49 2.494667 1_555
Na5 O13 2.520860 1_555
Na5 O71 2.760449 1_545
Na5 O34 2.904866 1_545
Na6 O65 2.534683 1_555
Na6 O63 2.554167 1_555
Na6 O44 2.568179 1_455
Na6 O43 2.601748 1_565
Na6 O8 2.720686 1_555
Na6 O29 2.778129 1_555
Na6 O12 2.896048 1_455
Na6 O22 2.965626 1_455
Na7 O64 2.402963 1_555
Na7 O42 2.486242 1_565
Na7 O63 2.629221 1_555
Na7 O27 2.631496 1_555
Na7 O44 2.689006 1_555
Na7 O23 2.875442 1_565
Na7 O6 2.887886 1_555
Na8 O61 2.537772 1_555
Na8 O62 2.577689 1_555
Na8 O47 2.586554 1_565
Na8 O45 2.732635 1_455
Na8 O26 2.781978 1_554
Na8 O11 2.847222 1_555
Na8 O16 2.856016 1_565
Na8 O18 2.886478 1_565
Na9 O62 2.531696 1_555
Na9 O46 2.603429 1_565
Na9 O45 2.626272 1_555
Na9 O60 2.680903 1_555
Na9 O24 2.751049 1_554
Na9 O17 2.781333 1_555
Na9 O9 2.839804 1_555
Na9 O19 2.905294 1_555
Na10 O60 2.420243 1_555
Na10 O47 2.649459 1_555
Na10 O46 2.654128 1_455
Na10 O25 2.680395 1_554
Na10 O61 2.703983 1_555
Na10 O20 2.805107 1_455
Na10 O10 2.923274 1_555
Na10 O15 2.935359 1_455
Na11 O54 2.420556 1_555
Na11 O39 2.443892 1_555
Na11 O40 2.515388 1_545
Na11 O56 2.581103 1_555
Na11 O3 2.752825 1_555
Na11 O18 2.765689 1_556
Na12 O37 2.395768 1_545
Na12 O38 2.502471 1_655
Na12 O59 2.586044 1_555
Na12 O2 2.641955 1_555
Na12 O57 2.762229 1_555
Na12 O23 2.907024 1_555
Na13 O38 2.394268 1_555
Na13 O36 2.492530 1_545
Na13 O57 2.541771 1_555
Na13 O0 2.629740 1_555
Na13 O58 2.738626 1_555
Na13 O21 2.891795 1_555
Na14 O36 2.406074 1_655
Na14 O37 2.513794 1_555
Na14 O58 2.561697 1_555
Na14 O1 2.619120 1_555
Na14 O59 2.709244 1_555
Na14 O22 2.933955 1_555
Na15 O38 2.371388 1_555
Na15 O37 2.444123 1_445
Na15 O36 2.474922 1_545
Na15 O42 2.664576 1_455
Na15 O43 2.713345 1_555
Na15 O44 2.793671 1_445
Na16 O41 2.463607 1_555
Na16 O39 2.525822 1_665
Na16 O46 2.570614 1_566
Na16 O40 2.686674 1_655
Na16 O45 2.705330 1_556
Na16 O47 2.712957 1_666
Na17 O50 2.412864 1_555
Na17 O55 2.465444 1_555
Na17 O54 2.567237 1_555
Na17 O48 2.703473 1_555
Na17 O56 2.748436 1_555
Na17 O49 2.791148 1_555
Na18 O58 2.566593 1_555
Na18 O57 2.575322 1_555
Na18 O59 2.597914 1_555
Na18 O53 2.661249 1_555
Na18 O51 2.667458 1_555
Na18 O52 2.713781 1_555
Na19 O67 2.502447 1_555
Na19 O66 2.569372 1_555
Na19 O68 2.570565 1_555
Na19 O62 2.613764 1_555
Na19 O60 2.638557 1_555
Na19 O61 2.802887 1_555
Na20 O65 2.427980 1_555
Na20 O69 2.626277 1_555
Na20 O70 2.631849 1_555
Na20 O64 2.644665 1_555
Na20 O63 2.670811 1_555
Na20 O71 2.809591 1_555
Ca0 O1 2.233824 1_545
Ca0 O0 2.243656 1_655
Ca0 O2 2.251778 1_555
Ca0 O38 2.271792 1_655
Ca0 O36 2.285476 1_645
Ca0 O37 2.288509 1_545
Ca1 O12 2.195373 1_555
Ca1 O14 2.251260 1_555
Ca1 O13 2.273076 1_555
Ca1 O50 2.345021 1_555
Ca1 O49 2.401427 1_555
Ca1 O48 2.406687 1_555
Ca2 O17 2.217752 1_555
Ca2 O16 2.220561 1_555
Ca2 O15 2.295860 1_555
Ca2 O53 2.366875 1_555
Ca2 O52 2.368945 1_555
Ca2 O51 2.372309 1_555
O0 P0 1.519466 1_545
O1 P1 1.520064 1_555
O2 P2 1.519300 1_655
O3 P3 1.536296 1_555
O3 Zr0 2.187030 1_445
O4 Si0 1.635144 1_655
O4 Zr0 1.991206 1_555
O5 P4 1.547766 1_545
O5 Zr0 2.079714 1_545
O6 P4 1.563485 1_555
O6 Zr1 2.159304 1_665
O7 P3 1.564717 1_555
O7 Zr1 2.090243 1_555
O8 Si0 1.658995 1_555
O8 Zr1 2.064314 1_565
O9 P1 1.585990 1_555
O9 Zr2 2.140999 1_665
O10 P2 1.594544 1_555
O10 Zr2 2.097430 1_555
O11 P0 1.588130 1_555
O11 Zr2 2.142102 1_565
O12 Si1 1.609894 1_555
O13 P5 1.528296 1_555
O14 P6 1.523678 1_555
O15 P7 1.523757 1_555
O16 Si2 1.602443 1_555
O17 Si3 1.605177 1_555
O18 Si3 1.650843 1_555
O18 Zr3 2.139324 1_554
O19 P7 1.556294 1_555
O19 Zr3 2.160044 1_554
O20 Si2 1.651856 1_555
O20 Zr3 2.064122 1_554
O21 P5 1.556370 1_555
O21 Zr4 2.165165 1_555
O22 P6 1.561518 1_555
O22 Zr4 2.190670 1_555
O23 Si1 1.671946 1_555
O23 Zr4 2.056422 1_555
O24 Si4 1.638450 1_555
O24 Zr5 2.001270 1_556
O25 Si5 1.634413 1_555
O25 Zr5 2.034710 1_556
O26 P8 1.540601 1_555
O26 Zr5 2.141518 1_556
O27 Si6 1.623130 1_555
O27 Zr6 2.048087 1_555
O28 Si7 1.624046 1_555
O28 Zr6 1.963604 1_555
O29 Si8 1.627880 1_555
O29 Zr6 2.013740 1_555
O30 Si8 1.672491 1_555
O30 Zr7 2.028638 1_555
O31 Si6 1.671522 1_555
O31 Zr7 2.015362 1_555
O32 Si7 1.669231 1_555
O32 Zr7 2.020816 1_555
O33 Si5 1.656542 1_555
O33 Zr8 2.000109 1_555
O34 P8 1.555774 1_555
O34 Zr8 2.118722 1_555
O35 Si4 1.650348 1_555
O35 Zr8 2.051212 1_555
O36 Si8 1.606962 1_555
O37 Si6 1.609120 1_555
O38 Si7 1.605013 1_555
O39 Si5 1.640131 1_555
O39 Zr0 2.126474 1_445
O40 P8 1.551927 1_555
O40 Zr0 2.189876 1_455
O41 Si4 1.632168 1_555
O41 Zr0 2.042766 1_555
O42 Si1 1.654685 1_555
O42 Zr1 2.079992 1_655
O43 P5 1.563381 1_555
O43 Zr1 2.150725 1_555
O44 P6 1.574711 1_555
O44 Zr1 2.175867 1_665
O45 P7 1.567431 1_555
O45 Zr2 2.193359 1_665
O46 Si2 1.666718 1_555
O46 Zr2 2.086517 1_655
O47 Si3 1.670535 1_555
O47 Zr2 2.078324 1_555
O48 P4 1.534285 1_545
O49 P3 1.534298 1_555
O50 Si0 1.620539 1_655
O51 P1 1.537471 1_555
O52 P2 1.534564 1_655
O53 P0 1.537842 1_545
O54 Si4 1.637957 1_555
O54 Zr3 2.139528 1_555
O55 Si5 1.627476 1_655
O55 Zr3 2.074633 1_555
O56 P8 1.550007 1_545
O56 Zr3 2.190492 1_555
O57 Si6 1.650580 1_545
O57 Zr4 2.091667 1_555
O58 Si7 1.637903 1_555
O58 Zr4 2.123374 1_555
O59 Si8 1.648016 1_655
O59 Zr4 2.100117 1_555
O60 Si3 1.654515 1_555
O60 Zr5 2.089781 1_555
O61 P7 1.549671 1_455
O61 Zr5 2.211473 1_555
O62 Si2 1.645991 1_565
O62 Zr5 2.103332 1_555
O63 P5 1.556459 1_565
O63 Zr6 2.226329 1_555
O64 P6 1.548966 1_555
O64 Zr6 2.204368 1_555
O65 Si1 1.640526 1_455
O65 Zr6 2.084795 1_555
O66 P0 1.575310 1_555
O66 Zr7 2.266844 1_555
O67 P1 1.574027 1_555
O67 Zr7 2.275488 1_555
O68 P2 1.570138 1_555
O68 Zr7 2.266581 1_555
O69 P3 1.569655 1_555
O69 Zr8 2.212778 1_555
O70 Si0 1.667018 1_555
O70 Zr8 2.127660 1_555
O71 P4 1.562005 1_555
O71 Zr8 2.261214 1_555
