# generated using pymatgen
data_DyMgMn2O4
_symmetry_space_group_name_H-M   'P 1'
_cell_length_a   3.35498116
_cell_length_b   3.35498116
_cell_length_c   11.35792934
_cell_angle_alpha   81.50671875
_cell_angle_beta   81.50671875
_cell_angle_gamma   59.99999807
_symmetry_Int_Tables_number   1
_chemical_formula_structural   DyMgMn2O4
_chemical_formula_sum   'Dy1 Mg1 Mn2 O4'
_cell_volume   109.09395368
_cell_formula_units_Z   1
loop_
 _symmetry_equiv_pos_site_id
 _symmetry_equiv_pos_as_xyz
  1  'x, y, z'
loop_
 _atom_site_type_symbol
 _atom_site_label
 _atom_site_symmetry_multiplicity
 _atom_site_fract_x
 _atom_site_fract_y
 _atom_site_fract_z
 _atom_site_occupancy
  Dy  Dy0  1  0.00000000  0.00000000  -0.00000000  1
  Mg  Mg0  1  0.50000000  0.50000000  0.50000000  1
  Mn  Mn0  1  0.23850055  0.23850055  0.28449734  1
  Mn  Mn1  1  0.76149945  0.76149945  0.71550266  1
  O  O0  1  0.29891426  0.29891426  0.10325821  1
  O  O1  1  0.70108574  0.70108574  0.89674179  1
  O  O2  1  0.13193916  0.13193916  0.60418352  1
  O  O3  1  0.86806084  0.86806084  0.39581648  1
loop_
_geom_bond_atom_site_label_1
_geom_bond_atom_site_label_2
_geom_bond_distance
_geom_bond_site_symmetry_2
Dy0 O1 2.255530 1_544
Dy0 O0 2.255530 1_455
Dy0 O1 2.255530 1_454
Dy0 O0 2.255530 1_545
Dy0 O1 2.255533 1_444
Dy0 O0 2.255533 1_555
Mg0 O2 2.260852 1_555
Mg0 O3 2.260852 1_555
Mg0 O2 2.260855 1_655
Mg0 O3 2.260855 1_455
Mg0 O2 2.260855 1_565
Mg0 O3 2.260855 1_545
Mn0 O0 2.028345 1_555
Mn0 O3 2.303056 1_445
Mn0 O3 2.303056 1_545
Mn0 O3 2.303056 1_455
Mn1 O1 2.028345 1_555
Mn1 O2 2.303056 1_665
Mn1 O2 2.303056 1_565
Mn1 O2 2.303056 1_655
