# generated using pymatgen
data_TiIN
_symmetry_space_group_name_H-M   'P 1'
_cell_length_a   3.53050459
_cell_length_b   3.95163333
_cell_length_c   9.30592980
_cell_angle_alpha   90.00000000
_cell_angle_beta   90.00000000
_cell_angle_gamma   90.00000000
_symmetry_Int_Tables_number   1
_chemical_formula_structural   TiIN
_chemical_formula_sum   'Ti2 I2 N2'
_cell_volume   129.82944255
_cell_formula_units_Z   2
loop_
 _symmetry_equiv_pos_site_id
 _symmetry_equiv_pos_as_xyz
  1  'x, y, z'
loop_
 _atom_site_type_symbol
 _atom_site_label
 _atom_site_symmetry_multiplicity
 _atom_site_fract_x
 _atom_site_fract_y
 _atom_site_fract_z
 _atom_site_occupancy
  Ti  Ti0  1  0.25000000  0.75000000  0.92429155  1
  Ti  Ti1  1  0.75000000  0.25000000  0.07570845  1
  I  I0  1  0.75000000  0.75000000  0.68818247  1
  I  I1  1  0.25000000  0.25000000  0.31181753  1
  N  N0  1  0.25000000  0.25000000  0.96648178  1
  N  N1  1  0.75000000  0.75000000  0.03351822  1
loop_
_geom_bond_atom_site_label_1
_geom_bond_atom_site_label_2
_geom_bond_distance
_geom_bond_site_symmetry_2
I0 Ti0 2.818487 1_555
I0 Ti0 2.818487 1_655
I1 Ti1 2.818487 1_555
I1 Ti1 2.818487 1_455
N0 Ti0 2.014448 1_555
N0 Ti0 2.014448 1_545
N0 Ti1 2.036983 1_556
N0 Ti1 2.036983 1_456
N1 Ti1 2.014448 1_565
N1 Ti1 2.014448 1_555
N1 Ti0 2.036983 1_554
N1 Ti0 2.036983 1_654
