# generated using pymatgen
data_MgMn12O17F7
_symmetry_space_group_name_H-M   'P 1'
_cell_length_a   4.76893968
_cell_length_b   5.65177608
_cell_length_c   15.14659844
_cell_angle_alpha   88.80862443
_cell_angle_beta   90.70143338
_cell_angle_gamma   90.28550595
_symmetry_Int_Tables_number   1
_chemical_formula_structural   MgMn12O17F7
_chemical_formula_sum   'Mg1 Mn12 O17 F7'
_cell_volume   408.12254941
_cell_formula_units_Z   1
loop_
 _symmetry_equiv_pos_site_id
 _symmetry_equiv_pos_as_xyz
  1  'x, y, z'
loop_
 _atom_site_type_symbol
 _atom_site_label
 _atom_site_symmetry_multiplicity
 _atom_site_fract_x
 _atom_site_fract_y
 _atom_site_fract_z
 _atom_site_occupancy
  Mg  Mg0  1  0.99104700  0.57208300  0.42622600  1
  Mn  Mn0  1  0.03988800  0.10570200  0.40751100  1
  Mn  Mn1  1  0.04802300  0.80953100  0.23602100  1
  Mn  Mn2  1  0.02162800  0.16266100  0.07729800  1
  Mn  Mn3  1  0.00408400  0.19128700  0.74911900  1
  Mn  Mn4  1  0.01443700  0.85202600  0.59326300  1
  Mn  Mn5  1  0.99069400  0.84739700  0.91011900  1
  Mn  Mn6  1  0.48673000  0.35688100  0.92029900  1
  Mn  Mn7  1  0.48280000  0.36629500  0.59526500  1
  Mn  Mn8  1  0.50649800  0.33479900  0.25423200  1
  Mn  Mn9  1  0.50971200  0.62943800  0.09160600  1
  Mn  Mn10  1  0.49042400  0.60806600  0.42269500  1
  Mn  Mn11  1  0.47008200  0.66216200  0.75854700  1
  O  O0  1  0.23786700  0.07334600  0.30024300  1
  O  O1  1  0.20147700  0.14243700  0.64278700  1
  O  O2  1  0.20134600  0.12023900  0.96685300  1
  O  O3  1  0.24916000  0.88625100  0.13076600  1
  O  O4  1  0.22973200  0.83990100  0.46933700  1
  O  O5  1  0.21028600  0.90537000  0.80469800  1
  O  O6  1  0.28215100  0.36173900  0.47862300  1
  O  O7  1  0.28882100  0.39410300  0.14850300  1
  O  O8  1  0.26105000  0.57841400  0.32075000  1
  O  O9  1  0.25824000  0.63446400  0.64932600  1
  O  O10  1  0.25803200  0.42018600  0.81537000  1
  O  O11  1  0.71530900  0.38275700  0.02897800  1
  O  O12  1  0.73448100  0.60641900  0.19482200  1
  O  O13  1  0.73810500  0.34910500  0.36463400  1
  O  O14  1  0.72878100  0.59968300  0.52677500  1
  O  O15  1  0.69818400  0.63475700  0.86400700  1
  O  O16  1  0.70461500  0.41335400  0.69912900  1
  F  F0  1  0.25139300  0.61833300  0.98832100  1
  F  F1  1  0.78877100  0.10981300  0.18798400  1
  F  F2  1  0.79627500  0.09031100  0.51846600  1
  F  F3  1  0.76441600  0.82597100  0.36035900  1
  F  F4  1  0.75152500  0.86780400  0.02416300  1
  F  F5  1  0.75721200  0.13829100  0.85175300  1
  F  F6  1  0.72561600  0.90148200  0.69615300  1
loop_
_geom_bond_atom_site_label_1
_geom_bond_atom_site_label_2
_geom_bond_distance
_geom_bond_site_symmetry_2
Mg0 O13 1.979833 1_555
Mg0 O6 1.980061 1_655
Mg0 O14 1.991626 1_555
Mg0 O4 2.004724 1_655
Mg0 O8 2.063766 1_655
Mn0 O0 1.901655 1_555
Mn0 O4 1.971714 1_545
Mn0 O13 2.084505 1_455
Mn0 O6 2.146308 1_555
Mn1 O3 1.911622 1_555
Mn1 O12 1.983136 1_455
Mn1 O0 2.003584 1_565
Mn1 O8 2.072894 1_555
Mn2 O2 1.909019 1_554
Mn2 O11 2.042323 1_455
Mn2 O3 2.053422 1_545
Mn2 O7 2.122798 1_555
Mn3 O1 1.901185 1_555
Mn3 O16 2.034701 1_455
Mn3 O10 2.038597 1_555
Mn3 O5 2.055711 1_545
Mn4 O9 1.879231 1_555
Mn4 O1 2.018051 1_565
Mn4 O4 2.153009 1_555
Mn4 O14 2.216024 1_455
Mn5 O5 1.941511 1_655
Mn5 O15 1.967839 1_555
Mn5 O2 2.035696 1_665
Mn6 O10 1.944545 1_555
Mn6 O11 1.970749 1_556
Mn6 O2 2.025928 1_555
Mn6 O15 2.039585 1_555
Mn7 O16 1.907483 1_555
Mn7 O1 1.971702 1_555
Mn7 O6 1.999469 1_555
Mn7 O14 2.037069 1_555
Mn7 O9 2.050304 1_555
Mn8 O7 1.922240 1_555
Mn8 O13 1.995574 1_555
Mn8 O0 2.066532 1_555
Mn8 O12 2.073246 1_555
Mn8 O8 2.093703 1_555
Mn9 O12 1.887312 1_555
Mn9 O7 1.892627 1_555
Mn9 O11 1.973912 1_555
Mn9 O3 2.018487 1_555
Mn10 O8 1.891170 1_555
Mn10 O6 1.897392 1_555
Mn10 O14 1.932131 1_555
Mn10 O4 1.959022 1_555
Mn10 O13 2.099249 1_555
Mn11 O10 1.895334 1_555
Mn11 O15 1.925543 1_555
Mn11 O9 1.936544 1_555
Mn11 O5 1.997795 1_555
Mn11 O16 2.032563 1_555
F0 Mn9 1.981177 1_556
F0 Mn5 2.130955 1_455
F0 Mn6 2.147731 1_555
F1 Mn2 2.038269 1_655
F1 Mn8 2.130506 1_555
F1 Mn1 2.210374 1_645
F2 Mn4 2.025165 1_645
F2 Mn0 2.054846 1_655
F2 Mn7 2.482385 1_555
F3 Mn10 2.020233 1_555
F3 Mg0 2.037633 1_555
F3 Mn0 2.176849 1_665
F3 Mn1 2.335724 1_655
F4 Mn9 2.035789 1_555
F4 Mn5 2.087080 1_554
F4 Mn2 2.256778 1_665
F5 Mn3 1.978476 1_655
F5 Mn6 2.090476 1_555
F5 Mn5 2.158239 1_545
F6 Mn11 2.041146 1_555
F6 Mn4 2.116246 1_655
F6 Mn3 2.257615 1_665
