# generated using pymatgen
data_Na4LaGaSi(PO6)2
_symmetry_space_group_name_H-M   'P 1'
_cell_length_a   9.32935248
_cell_length_b   9.33197120
_cell_length_c   22.77633513
_cell_angle_alpha   89.97166766
_cell_angle_beta   89.66715181
_cell_angle_gamma   120.07523886
_symmetry_Int_Tables_number   1
_chemical_formula_structural   Na4LaGaSi(PO6)2
_chemical_formula_sum   'Na24 La6 Ga6 Si6 P12 O72'
_cell_volume   1715.92741630
_cell_formula_units_Z   6
loop_
 _symmetry_equiv_pos_site_id
 _symmetry_equiv_pos_as_xyz
  1  'x, y, z'
loop_
 _atom_site_type_symbol
 _atom_site_label
 _atom_site_symmetry_multiplicity
 _atom_site_fract_x
 _atom_site_fract_y
 _atom_site_fract_z
 _atom_site_occupancy
  Na  Na0  1  0.62943766  0.99527288  0.25748411  1
  Na  Na1  1  0.36629525  0.37036285  0.25319845  1
  Na  Na2  1  0.00528631  0.62694042  0.25293311  1
  Na  Na3  1  0.63844998  0.63182576  0.74027887  1
  Na  Na4  1  0.98678724  0.35954072  0.74510197  1
  Na  Na5  1  0.38364490  0.01484190  0.74283473  1
  Na  Na6  1  0.29483059  0.32850153  0.58344804  1
  Na  Na7  1  0.04097875  0.71371318  0.58338734  1
  Na  Na8  1  0.66868723  0.96439618  0.58900458  1
  Na  Na9  1  0.29314495  0.97419310  0.08641872  1
  Na  Na10  1  0.68502734  0.70319495  0.08692491  1
  Na  Na11  1  0.02562399  0.32685386  0.09306032  1
  Na  Na12  1  0.97586833  0.67698330  0.92196529  1
  Na  Na13  1  0.69233510  0.03354695  0.91131081  1
  Na  Na14  1  0.33280774  0.29826401  0.91682405  1
  Na  Na15  1  0.96284904  0.29691385  0.41071888  1
  Na  Na16  1  0.33107406  0.03256969  0.41724351  1
  Na  Na17  1  0.70027535  0.66694415  0.41406736  1
  Na  Na18  1  0.00366109  0.99572218  0.49864503  1
  Na  Na19  1  0.00505277  0.99459137  0.00322710  1
  Na  Na20  1  0.66246008  0.32164663  0.83131134  1
  Na  Na21  1  0.67316635  0.33285336  0.34206355  1
  Na  Na22  1  0.32566994  0.66412417  0.17150947  1
  Na  Na23  1  0.33847259  0.67623654  0.66348970  1
  La  La0  1  0.99970199  -0.00036173  0.83725870  1
  La  La1  1  0.67165848  0.33276992  0.18945719  1
  La  La2  1  0.66964458  0.33654400  0.99435786  1
  La  La3  1  0.32922864  0.67124514  0.01467054  1
  La  La4  1  0.32916290  0.67230691  0.51242366  1
  La  La5  1  0.33945594  0.67663478  0.81251815  1
  Ga  Ga0  1  0.99675376  0.99348082  0.34873825  1
  Ga  Ga1  1  0.00732485  0.00078148  0.64834690  1
  Ga  Ga2  1  0.00202982  0.00212657  0.15685073  1
  Ga  Ga3  1  0.66479327  0.32542578  0.67883443  1
  Ga  Ga4  1  0.67098657  0.33949089  0.48757779  1
  Ga  Ga5  1  0.31132437  0.64754604  0.31925210  1
  Si  Si0  1  0.01404464  0.28731640  0.25555362  1
  Si  Si1  1  0.70925902  0.01518651  0.73973775  1
  Si  Si2  1  0.37527749  0.05510454  0.58453886  1
  Si  Si3  1  0.98036656  0.66343412  0.08957878  1
  Si  Si4  1  0.33431349  0.98710915  0.91583977  1
  Si  Si5  1  0.02198206  0.66711678  0.41445485  1
  P  P0  1  0.27618077  0.98410734  0.25464557  1
  P  P1  1  0.70584715  0.72221066  0.25428685  1
  P  P2  1  0.31118261  0.29853814  0.74050867  1
  P  P3  1  0.98477401  0.68811164  0.73995669  1
  P  P4  1  0.94568914  0.32307308  0.58404911  1
  P  P5  1  0.67716520  0.62056753  0.58534489  1
  P  P6  1  0.68232929  0.02074262  0.08841636  1
  P  P7  1  0.34127319  0.31970338  0.08895117  1
  P  P8  1  0.64612553  0.66515695  0.91605795  1
  P  P9  1  0.02049639  0.35294935  0.91523400  1
  P  P10  1  0.63719182  0.96828034  0.41171537  1
  P  P11  1  0.33143300  0.36069170  0.41289999  1
  O  O0  1  0.19012147  0.00623383  0.30896575  1
  O  O1  1  0.81552629  0.80361469  0.30835545  1
  O  O2  1  0.99046204  0.17111871  0.31215974  1
  O  O3  1  0.25199573  0.21171094  0.80115039  1
  O  O4  1  0.95821823  0.74766865  0.80048877  1
  O  O5  1  0.79665772  0.04598127  0.80444184  1
  O  O6  1  0.82111027  0.98626422  0.68906610  1
  O  O7  1  0.18552026  0.19480540  0.69176812  1
  O  O8  1  0.01620065  0.81777233  0.69103592  1
  O  O9  1  0.78991304  0.82357668  0.19740795  1
  O  O10  1  0.03698600  0.20331094  0.19480472  1
  O  O11  1  0.17748645  0.96580964  0.19751690  1
  O  O12  1  0.86516526  0.35167275  0.63875086  1
  O  O13  1  0.48931712  0.14073604  0.64179493  1
  O  O14  1  0.65552939  0.51231576  0.63943624  1
  O  O15  1  0.88744330  0.53160975  0.14274159  1
  O  O16  1  0.64430477  0.10577090  0.13914150  1
  O  O17  1  0.45931653  0.34679970  0.14004080  1
  O  O18  1  0.41492577  0.29584660  0.03037105  1
  O  O19  1  0.87513997  0.59248429  0.02787525  1
  O  O20  1  0.70611477  0.11868298  0.03007256  1
  O  O21  1  0.46517441  0.17007909  0.52441753  1
  O  O22  1  0.69916143  0.54063179  0.52793243  1
  O  O23  1  0.84178741  0.30368886  0.52764454  1
  O  O24  1  0.56146037  0.67650322  0.97286767  1
  O  O25  1  0.11929881  0.43479002  0.97167307  1
  O  O26  1  0.31303009  0.88149880  0.97572997  1
  O  O27  1  0.57489972  0.86694418  0.46985906  1
  O  O28  1  0.29464291  0.42720033  0.47017020  1
  O  O29  1  0.13533716  0.71958245  0.47377223  1
  O  O30  1  0.11705735  0.62446400  0.36035209  1
  O  O31  1  0.51207542  0.87293116  0.36079180  1
  O  O32  1  0.36213073  0.48561365  0.36098668  1
  O  O33  1  0.11183581  0.45585450  0.86003622  1
  O  O34  1  0.35409799  0.89509484  0.85734790  1
  O  O35  1  0.54078194  0.64839540  0.86137546  1
  O  O36  1  -0.00185340  0.83043584  0.40370843  1
  O  O37  1  0.81420000  0.99082679  0.40440559  1
  O  O38  1  0.17831252  0.18345410  0.40563469  1
  O  O39  1  -0.00037711  0.17841218  0.91439673  1
  O  O40  1  0.16661355  0.00090162  0.91430407  1
  O  O41  1  0.81704966  0.82458647  0.91401052  1
  O  O42  1  0.96286900  0.16405584  0.58710480  1
  O  O43  1  0.18281843  0.03265396  0.58964370  1
  O  O44  1  0.83530793  0.79839821  0.58836694  1
  O  O45  1  0.98750642  0.84111489  0.09873890  1
  O  O46  1  0.84599440  0.01969280  0.09612568  1
  O  O47  1  0.17203830  0.15886752  0.09490176  1
  O  O48  1  0.68907024  0.18134019  0.73511474  1
  O  O49  1  0.48785564  0.32284620  0.73460502  1
  O  O50  1  0.82712973  0.51617386  0.73290654  1
  O  O51  1  0.68069077  0.54335090  0.25290138  1
  O  O52  1  0.84904900  0.30986401  0.25625515  1
  O  O53  1  0.45241246  0.14125857  0.25357431  1
  O  O54  1  0.66451231  0.50936140  0.91598937  1
  O  O55  1  0.85010914  0.34402627  0.91655571  1
  O  O56  1  0.50358956  0.16833813  0.91690511  1
  O  O57  1  0.64869572  0.14136022  0.41786254  1
  O  O58  1  0.49469221  0.35252518  0.41741836  1
  O  O59  1  0.83822627  0.49244312  0.42461207  1
  O  O60  1  0.32035624  0.47385797  0.08699100  1
  O  O61  1  0.16541103  0.68412000  0.08881023  1
  O  O62  1  0.53358575  0.84216411  0.08602049  1
  O  O63  1  0.35307509  0.86731400  0.58348138  1
  O  O64  1  0.51870277  0.63805170  0.58320918  1
  O  O65  1  0.12414639  0.47799918  0.58173483  1
  O  O66  1  0.29660521  0.82611045  0.25830502  1
  O  O67  1  0.52981406  0.70636426  0.25850133  1
  O  O68  1  0.18417692  0.47880182  0.25874303  1
  O  O69  1  0.32083735  0.47007496  0.73983365  1
  O  O70  1  0.14159436  0.66915388  0.73999925  1
  O  O71  1  0.52607232  0.84521665  0.73747741  1
loop_
_geom_bond_atom_site_label_1
_geom_bond_atom_site_label_2
_geom_bond_distance
_geom_bond_site_symmetry_2
Na0 O67 2.370956 1_555
Na0 O31 2.598707 1_555
Na0 O52 2.605353 1_565
Na0 O53 2.616883 1_565
Na0 O66 2.687093 1_555
Na0 O16 2.863099 1_565
Na1 O68 2.376476 1_555
Na1 O51 2.542284 1_555
Na1 O53 2.634055 1_555
Na1 O32 2.688635 1_555
Na1 O67 2.716946 1_555
Na1 O17 2.758600 1_555
Na2 O66 2.407740 1_555
Na2 O52 2.561528 1_455
Na2 O68 2.651180 1_555
Na2 O30 2.669739 1_555
Na2 O15 2.711640 1_455
Na2 O51 2.722375 1_455
Na3 O50 2.488444 1_555
Na3 O49 2.499353 1_555
Na3 O69 2.564398 1_555
Na3 O14 2.592489 1_555
Na3 O71 2.676173 1_555
Na3 O35 2.928124 1_555
Na3 O4 2.960678 1_555
Na4 O48 2.431061 1_555
Na4 O70 2.502555 1_655
Na4 O50 2.572718 1_555
Na4 O12 2.666256 1_555
Na4 O69 2.750339 1_655
Na4 O33 2.829928 1_655
Na4 O5 2.881202 1_555
Na5 O48 2.474027 1_555
Na5 O71 2.528359 1_545
Na5 O49 2.537406 1_555
Na5 O13 2.541324 1_555
Na5 O34 2.794176 1_545
Na5 O70 2.865460 1_545
Na5 O3 2.982091 1_555
Na6 O43 2.416701 1_555
Na6 O64 2.580637 1_555
Na6 O65 2.590512 1_555
Na6 O42 2.680801 1_455
Na6 O7 2.715851 1_555
Na6 O28 2.739405 1_555
Na7 O44 2.415880 1_455
Na7 O63 2.519802 1_555
Na7 O43 2.585562 1_565
Na7 O29 2.633838 1_555
Na7 O65 2.674391 1_555
Na7 O8 2.688625 1_555
Na8 O42 2.424693 1_565
Na8 O63 2.614803 1_555
Na8 O64 2.642260 1_555
Na8 O6 2.646699 1_555
Na8 O44 2.688769 1_555
Na8 O27 2.861693 1_555
Na9 O61 2.348747 1_555
Na9 O45 2.488522 1_455
Na9 O47 2.496654 1_565
Na9 O26 2.701130 1_554
Na9 O11 2.730723 1_555
Na9 O18 2.914051 1_565
Na10 O62 2.348437 1_555
Na10 O45 2.461939 1_555
Na10 O46 2.565406 1_565
Na10 O9 2.735219 1_555
Na10 O19 2.798615 1_555
Na10 O24 2.808420 1_554
Na10 O60 2.976093 1_555
Na11 O60 2.382523 1_555
Na11 O46 2.492694 1_455
Na11 O47 2.543989 1_555
Na11 O10 2.614056 1_555
Na11 O61 2.909645 1_555
Na11 O25 2.917036 1_554
Na11 O20 2.994311 1_455
Na11 O15 3.007890 1_455
Na12 O41 2.484736 1_555
Na12 O54 2.520653 1_555
Na12 O19 2.559859 1_556
Na12 O40 2.634190 1_665
Na12 O55 2.719257 1_555
Na12 O4 2.868747 1_555
Na13 O39 2.483767 1_655
Na13 O55 2.510702 1_555
Na13 O5 2.597012 1_555
Na13 O56 2.629957 1_555
Na13 O41 2.726683 1_545
Na13 O20 2.805054 1_556
Na14 O40 2.407622 1_555
Na14 O56 2.438207 1_555
Na14 O18 2.704823 1_556
Na14 O54 2.710495 1_555
Na14 O39 2.726480 1_555
Na14 O3 2.752613 1_555
Na15 O37 2.476965 1_545
Na15 O57 2.540397 1_555
Na15 O2 2.604349 1_555
Na15 O59 2.627527 1_555
Na15 O38 2.702907 1_655
Na15 O30 2.880783 1_655
Na15 O23 2.899775 1_555
Na15 O28 3.028479 1_655
Na16 O38 2.469593 1_555
Na16 O58 2.584024 1_555
Na16 O57 2.607067 1_555
Na16 O36 2.727623 1_545
Na16 O0 2.754265 1_555
Na16 O21 2.756812 1_555
Na16 O29 2.854213 1_545
Na17 O36 2.418371 1_655
Na17 O59 2.543541 1_555
Na17 O58 2.579016 1_555
Na17 O37 2.662755 1_555
Na17 O1 2.678123 1_555
Na17 O22 2.846015 1_555
Na17 O27 2.939291 1_555
Na17 O32 2.995494 1_555
Na18 O43 2.582976 1_565
Na18 O36 2.642427 1_555
Na18 O44 2.663450 1_455
Na18 O42 2.695420 1_465
Na18 O38 2.703155 1_565
Na18 O37 2.774296 1_455
Na19 O40 2.500550 1_564
Na19 O45 2.562870 1_455
Na19 O47 2.604647 1_565
Na19 O41 2.641600 1_454
Na19 O46 2.654478 1_465
Na19 O39 2.668991 1_564
Na20 O56 2.425403 1_555
Na20 O55 2.559580 1_555
Na20 O54 2.599780 1_555
Na20 O48 2.626558 1_555
Na20 O49 2.750463 1_555
Na20 O50 2.799954 1_555
Na21 O57 2.410297 1_555
Na21 O59 2.421175 1_555
Na21 O58 2.454641 1_555
Na21 O52 2.621860 1_555
Na21 O51 2.800699 1_555
Na21 O53 2.803839 1_555
Na22 O61 2.475898 1_555
Na22 O68 2.521717 1_555
Na22 O66 2.583455 1_555
Na22 O60 2.603275 1_555
Na22 O67 2.645859 1_555
Na22 O62 2.652751 1_555
Na23 O71 2.379145 1_555
Na23 O70 2.501141 1_555
Na23 O63 2.503858 1_555
Na23 O69 2.535371 1_555
Na23 O64 2.619739 1_555
Na23 O65 2.688302 1_555
La0 O5 2.274024 1_555
La0 O3 2.332432 1_655
La0 O4 2.339603 1_545
La0 O40 2.348972 1_655
La0 O41 2.408486 1_545
La0 O39 2.423667 1_655
La1 O15 2.203886 1_555
La1 O16 2.308644 1_555
La1 O52 2.341517 1_555
La1 O17 2.343944 1_555
La1 O51 2.407325 1_555
La1 O53 2.410241 1_555
La2 O19 2.322120 1_556
La2 O18 2.353003 1_556
La2 O56 2.360750 1_555
La2 O20 2.367645 1_556
La2 O55 2.413915 1_555
La2 O54 2.421726 1_555
La3 O26 2.226265 1_554
La3 O61 2.314282 1_555
La3 O25 2.314487 1_554
La3 O24 2.339316 1_554
La3 O62 2.410503 1_555
La3 O60 2.440432 1_555
La4 O29 2.248811 1_555
La4 O27 2.300807 1_555
La4 O28 2.351431 1_555
La4 O63 2.362411 1_555
La4 O65 2.434015 1_555
La4 O64 2.535248 1_555
La5 O34 2.223045 1_555
La5 O35 2.314224 1_555
La5 O33 2.347694 1_555
La5 O71 2.375892 1_555
La5 O70 2.459032 1_555
La5 O69 2.481411 1_555
Ga0 O2 1.882094 1_565
Ga0 O0 1.963388 1_665
Ga0 O1 1.964971 1_555
Ga0 O36 1.975069 1_655
Ga0 O37 2.107453 1_555
Ga0 O38 2.170111 1_665
Ga1 O6 1.908358 1_445
Ga1 O8 2.002488 1_545
Ga1 O7 2.006024 1_555
Ga1 O43 2.010674 1_555
Ga1 O44 2.235817 1_445
Ga1 O42 2.253274 1_455
Ga2 O10 1.941560 1_555
Ga2 O45 1.956498 1_445
Ga2 O9 2.053809 1_445
Ga2 O11 2.055604 1_545
Ga2 O47 2.071880 1_555
Ga2 O46 2.078762 1_455
Ga3 O13 1.884617 1_555
Ga3 O48 1.951746 1_555
Ga3 O12 1.977109 1_555
Ga3 O14 2.001211 1_555
Ga3 O49 2.067547 1_555
Ga3 O50 2.073853 1_555
Ga4 O21 1.956451 1_555
Ga4 O22 1.986752 1_555
Ga4 O23 2.008412 1_555
Ga4 O59 2.065986 1_555
Ga4 O58 2.346114 1_555
Ga4 O57 2.367386 1_555
Ga5 O30 1.948396 1_555
Ga5 O68 1.983718 1_555
Ga5 O32 2.033105 1_555
Ga5 O31 2.213828 1_555
Ga5 O66 2.225273 1_555
Ga5 O67 2.283832 1_555
O0 P0 1.540395 1_545
O1 P1 1.541796 1_555
O2 Si0 1.625632 1_655
O3 P2 1.552656 1_555
O4 P3 1.551091 1_555
O5 Si1 1.642804 1_555
O6 Si1 1.662022 1_565
O7 P2 1.556474 1_555
O8 P3 1.559123 1_455
O9 P1 1.559365 1_555
O10 Si0 1.655480 1_555
O11 P0 1.557748 1_555
O12 P4 1.542166 1_555
O13 Si2 1.623625 1_555
O14 P5 1.539672 1_555
O15 Si3 1.627421 1_555
O16 P6 1.538999 1_555
O17 P7 1.538458 1_555
O18 P7 1.563610 1_555
O19 Si3 1.656107 1_555
O20 P6 1.562868 1_555
O21 Si2 1.677197 1_555
O22 P5 1.568367 1_555
O23 P4 1.568985 1_555
O24 P8 1.543183 1_555
O25 P9 1.547430 1_555
O26 Si4 1.634270 1_555
O27 P10 1.557172 1_555
O28 P11 1.553578 1_555
O29 Si5 1.637582 1_555
O30 Si5 1.674902 1_555
O31 P10 1.573292 1_555
O32 P11 1.580877 1_555
O33 P9 1.547602 1_555
O34 Si4 1.644188 1_555
O35 P8 1.549795 1_555
O36 Si5 1.664977 1_555
O37 P10 1.564463 1_555
O38 P11 1.561599 1_555
O39 P9 1.540574 1_555
O40 Si4 1.633405 1_545
O41 P8 1.542630 1_555
O42 P4 1.571952 1_555
O43 Si2 1.703472 1_555
O44 P5 1.575679 1_555
O45 Si3 1.639239 1_555
O46 P6 1.542863 1_555
O47 P7 1.544698 1_555
O48 Si1 1.656356 1_555
O49 P2 1.552064 1_555
O50 P3 1.549554 1_555
O51 P1 1.565100 1_555
O52 Si0 1.654789 1_655
O53 P0 1.561191 1_545
O54 P8 1.546982 1_555
O55 P9 1.549662 1_655
O56 Si4 1.636577 1_545
O57 P10 1.570533 1_545
O58 P11 1.566650 1_555
O59 Si5 1.686333 1_655
O60 P7 1.546268 1_555
O61 Si3 1.638131 1_455
O62 P6 1.545632 1_565
O63 Si2 1.658574 1_565
O64 P5 1.567514 1_555
O65 P4 1.565653 1_455
O66 P0 1.580767 1_555
O67 P1 1.575720 1_555
O68 Si0 1.696010 1_555
O69 P2 1.557652 1_555
O70 P3 1.559230 1_455
O71 Si1 1.650286 1_565
