# generated using pymatgen
data_Na3Ir(NO2)6
_symmetry_space_group_name_H-M   'P 1'
_cell_length_a   6.84927238
_cell_length_b   6.84927238
_cell_length_c   6.84927290
_cell_angle_alpha   72.37387779
_cell_angle_beta   72.37387779
_cell_angle_gamma   72.37387718
_symmetry_Int_Tables_number   1
_chemical_formula_structural   Na3Ir(NO2)6
_chemical_formula_sum   'Na3 Ir1 N6 O12'
_cell_volume   283.86237943
_cell_formula_units_Z   1
loop_
 _symmetry_equiv_pos_site_id
 _symmetry_equiv_pos_as_xyz
  1  'x, y, z'
loop_
 _atom_site_type_symbol
 _atom_site_label
 _atom_site_symmetry_multiplicity
 _atom_site_fract_x
 _atom_site_fract_y
 _atom_site_fract_z
 _atom_site_occupancy
  Na  Na0  1  0.73409700  0.73409700  0.73409700  1
  Na  Na1  1  0.26590300  0.26590300  0.26590300  1
  Na  Na2  1  0.50000000  0.50000000  0.50000000  1
  Ir  Ir0  1  0.00000000  0.00000000  0.00000000  1
  N  N0  1  0.17337600  0.79907000  0.79907000  1
  N  N1  1  0.79907000  0.79907000  0.17337600  1
  N  N2  1  0.79907000  0.17337600  0.79907000  1
  N  N3  1  0.20093000  0.82662400  0.20093000  1
  N  N4  1  0.82662400  0.20093000  0.20093000  1
  N  N5  1  0.20093000  0.20093000  0.82662400  1
  O  O0  1  0.28223900  0.91244900  0.28223900  1
  O  O1  1  0.71776100  0.08755100  0.71776100  1
  O  O2  1  0.71776100  0.71776100  0.08755100  1
  O  O3  1  0.08755100  0.71776100  0.71776100  1
  O  O4  1  0.62923700  0.24098000  0.24098000  1
  O  O5  1  0.24098000  0.24098000  0.62923700  1
  O  O6  1  0.24098000  0.62923700  0.24098000  1
  O  O7  1  0.75902000  0.37076300  0.75902000  1
  O  O8  1  0.37076300  0.75902000  0.75902000  1
  O  O9  1  0.75902000  0.75902000  0.37076300  1
  O  O10  1  0.91244900  0.28223900  0.28223900  1
  O  O11  1  0.28223900  0.28223900  0.91244900  1
loop_
_geom_bond_atom_site_label_1
_geom_bond_atom_site_label_2
_geom_bond_distance
_geom_bond_site_symmetry_2
Na0 O3 2.359089 1_655
Na0 O1 2.359089 1_565
Na0 O2 2.359090 1_556
Na0 O8 2.398830 1_555
Na0 O7 2.398830 1_555
Na0 O9 2.398831 1_555
Na1 O0 2.359089 1_545
Na1 O10 2.359089 1_455
Na1 O11 2.359090 1_554
Na1 O4 2.398830 1_555
Na1 O6 2.398830 1_555
Na1 O5 2.398831 1_555
Na2 O5 2.661280 1_555
Na2 O9 2.661280 1_555
Na2 O7 2.661280 1_555
Na2 O4 2.661280 1_555
Na2 O6 2.661280 1_555
Na2 O8 2.661280 1_555
Na2 O0 2.945075 1_555
Na2 O10 2.945075 1_555
Na2 O3 2.945075 1_555
Na2 O1 2.945075 1_555
Na2 O11 2.945075 1_555
Na2 O2 2.945075 1_555
Ir0 N5 2.089428 1_554
Ir0 N1 2.089428 1_445
Ir0 N4 2.089428 1_455
Ir0 N3 2.089428 1_545
Ir0 N0 2.089428 1_544
Ir0 N2 2.089428 1_454
N0 O3 1.245067 1_555
N0 O8 1.254856 1_555
N1 O2 1.245067 1_555
N1 O9 1.254856 1_555
N2 O1 1.245067 1_555
N2 O7 1.254856 1_555
N3 O0 1.245067 1_555
N3 O6 1.254856 1_555
N4 O10 1.245067 1_555
N4 O4 1.254856 1_555
N5 O11 1.245067 1_555
N5 O5 1.254856 1_555
