# generated using pymatgen
data_MgAg4(MoO4)2
_symmetry_space_group_name_H-M   'P 1'
_cell_length_a   7.02068279
_cell_length_b   7.02068279
_cell_length_c   7.02068279
_cell_angle_alpha   60.00000000
_cell_angle_beta   60.00000000
_cell_angle_gamma   60.00000000
_symmetry_Int_Tables_number   1
_chemical_formula_structural   MgAg4(MoO4)2
_chemical_formula_sum   'Mg1 Ag4 Mo2 O8'
_cell_volume   244.69385081
_cell_formula_units_Z   1
loop_
 _symmetry_equiv_pos_site_id
 _symmetry_equiv_pos_as_xyz
  1  'x, y, z'
loop_
 _atom_site_type_symbol
 _atom_site_label
 _atom_site_symmetry_multiplicity
 _atom_site_fract_x
 _atom_site_fract_y
 _atom_site_fract_z
 _atom_site_occupancy
  Mg  Mg0  1  0.25000000  0.25000000  0.25000000  1
  Ag  Ag0  1  0.80213385  0.39928872  0.39928872  1
  Ag  Ag1  1  0.39928872  0.80213385  0.39928872  1
  Ag  Ag2  1  0.39928872  0.39928872  0.80213385  1
  Ag  Ag3  1  0.39928872  0.39928872  0.39928872  1
  Mo  Mo0  1  0.75000000  0.75000000  0.75000000  1
  Mo  Mo1  1  0.00000000  0.00000000  0.00000000  1
  O  O0  1  0.68125289  0.10624937  0.10624937  1
  O  O1  1  0.10624937  0.68125289  0.10624937  1
  O  O2  1  0.10624937  0.10624937  0.68125289  1
  O  O3  1  0.10624937  0.10624937  0.10624937  1
  O  O4  1  0.06527735  0.64490722  0.64490722  1
  O  O5  1  0.64490722  0.06527735  0.64490722  1
  O  O6  1  0.64490722  0.64490722  0.06527735  1
  O  O7  1  0.64490722  0.64490722  0.64490722  1
loop_
_geom_bond_atom_site_label_1
_geom_bond_atom_site_label_2
_geom_bond_distance
_geom_bond_site_symmetry_2
Mg0 O3 2.472093 1_555
Mg0 O1 2.472098 1_555
Mg0 O2 2.472098 1_555
Mg0 O0 2.472098 1_555
Ag0 O7 2.516403 1_555
Ag0 O5 2.516409 1_555
Ag0 O6 2.516409 1_555
Ag0 Mg0 2.567332 1_655
Ag1 O7 2.516403 1_555
Ag1 O4 2.516409 1_555
Ag1 O6 2.516409 1_555
Ag1 Mg0 2.567332 1_565
Ag2 O7 2.516403 1_555
Ag2 O4 2.516409 1_555
Ag2 O5 2.516409 1_555
Ag2 Mg0 2.567332 1_556
Ag3 O4 2.516405 1_555
Ag3 O5 2.516405 1_555
Ag3 O6 2.516405 1_555
Ag3 Mg0 2.567332 1_555
Mo0 O6 1.807284 1_556
Mo0 O4 1.807284 1_655
Mo0 O5 1.807284 1_565
Mo0 O7 1.807290 1_555
Mo1 O0 1.827174 1_455
Mo1 O1 1.827174 1_545
Mo1 O2 1.827174 1_554
Mo1 O3 1.827180 1_555
