# generated using pymatgen
data_Nd(NiAs)2
_symmetry_space_group_name_H-M   'P 1'
_cell_length_a   4.19587896
_cell_length_b   4.19587896
_cell_length_c   9.37740573
_cell_angle_alpha   90.00000000
_cell_angle_beta   90.00000000
_cell_angle_gamma   90.00000000
_symmetry_Int_Tables_number   1
_chemical_formula_structural   Nd(NiAs)2
_chemical_formula_sum   'Nd2 Ni4 As4'
_cell_volume   165.09298115
_cell_formula_units_Z   2
loop_
 _symmetry_equiv_pos_site_id
 _symmetry_equiv_pos_as_xyz
  1  'x, y, z'
loop_
 _atom_site_type_symbol
 _atom_site_label
 _atom_site_symmetry_multiplicity
 _atom_site_fract_x
 _atom_site_fract_y
 _atom_site_fract_z
 _atom_site_occupancy
  Nd  Nd0  1  0.25000000  0.25000000  0.75206047  1
  Nd  Nd1  1  0.75000000  0.75000000  0.24793953  1
  Ni  Ni0  1  0.25000000  0.75000000  -0.00000000  1
  Ni  Ni1  1  0.75000000  0.25000000  -0.00000000  1
  Ni  Ni2  1  0.25000000  0.25000000  0.38255042  1
  Ni  Ni3  1  0.75000000  0.75000000  0.61744958  1
  As  As0  1  0.25000000  0.25000000  0.12838277  1
  As  As1  1  0.75000000  0.75000000  0.87161723  1
  As  As2  1  0.25000000  0.75000000  0.50000000  1
  As  As3  1  0.75000000  0.25000000  0.50000000  1
loop_
_geom_bond_atom_site_label_1
_geom_bond_atom_site_label_2
_geom_bond_distance
_geom_bond_site_symmetry_2
Nd0 Ni0 3.131631 1_556
Nd0 Ni1 3.131631 1_556
Nd0 Ni1 3.131631 1_456
Nd0 Ni0 3.131631 1_546
Nd0 Ni3 3.224299 1_445
Nd0 Ni3 3.224299 1_555
Nd0 Ni3 3.224299 1_455
Nd0 Ni3 3.224299 1_545
Nd1 Ni0 3.131631 1_555
Nd1 Ni1 3.131631 1_555
Nd1 Ni1 3.131631 1_565
Nd1 Ni0 3.131631 1_655
Nd1 Ni2 3.224299 1_565
Nd1 Ni2 3.224299 1_665
Nd1 Ni2 3.224299 1_655
Nd1 Ni2 3.224299 1_555
As0 Ni2 2.383433 1_555
As0 Ni0 2.418826 1_545
As0 Ni0 2.418826 1_555
As0 Ni1 2.418826 1_455
As0 Ni1 2.418826 1_555
As0 Nd1 3.171693 1_455
As0 Nd1 3.171693 1_445
As0 Nd1 3.171693 1_555
As0 Nd1 3.171693 1_545
As1 Ni3 2.383433 1_555
As1 Ni0 2.418826 1_556
As1 Ni1 2.418826 1_566
As1 Ni1 2.418826 1_556
As1 Ni0 2.418826 1_656
As1 Nd0 3.171693 1_665
As1 Nd0 3.171693 1_555
As1 Nd0 3.171693 1_565
As1 Nd0 3.171693 1_655
As2 Ni2 2.369466 1_555
As2 Ni2 2.369466 1_565
As2 Ni3 2.369466 1_455
As2 Ni3 2.369466 1_555
As2 Nd0 3.160427 1_565
As2 Nd1 3.160427 1_455
As2 Nd0 3.160427 1_555
As2 Nd1 3.160427 1_555
As3 Ni2 2.369466 1_555
As3 Ni2 2.369466 1_655
As3 Ni3 2.369466 1_545
As3 Ni3 2.369466 1_555
As3 Nd1 3.160427 1_545
As3 Nd0 3.160427 1_655
As3 Nd0 3.160427 1_555
As3 Nd1 3.160427 1_555
