# generated using pymatgen
data_FeH4(ClO)2
_symmetry_space_group_name_H-M   'P 1'
_cell_length_a   5.71436707
_cell_length_b   5.71436707
_cell_length_c   3.72111720
_cell_angle_alpha   82.48696308
_cell_angle_beta   82.48696308
_cell_angle_gamma   97.14894850
_symmetry_Int_Tables_number   1
_chemical_formula_structural   FeH4(ClO)2
_chemical_formula_sum   'Fe1 H4 Cl2 O2'
_cell_volume   118.18711824
_cell_formula_units_Z   1
loop_
 _symmetry_equiv_pos_site_id
 _symmetry_equiv_pos_as_xyz
  1  'x, y, z'
loop_
 _atom_site_type_symbol
 _atom_site_label
 _atom_site_symmetry_multiplicity
 _atom_site_fract_x
 _atom_site_fract_y
 _atom_site_fract_z
 _atom_site_occupancy
  Fe  Fe0  1  0.00000000  0.00000000  0.00000000  1
  H  H0  1  0.22322800  0.60125000  0.15856600  1
  H  H1  1  0.39875000  0.77677200  0.84143400  1
  H  H2  1  0.60125000  0.22322800  0.15856600  1
  H  H3  1  0.77677200  0.39875000  0.84143400  1
  Cl  Cl0  1  0.23624200  0.23624200  0.42053900  1
  Cl  Cl1  1  0.76375800  0.76375800  0.57946100  1
  O  O0  1  0.75703900  0.24296100  0.00000000  1
  O  O1  1  0.24296100  0.75703900  0.00000000  1
loop_
_geom_bond_atom_site_label_1
_geom_bond_atom_site_label_2
_geom_bond_distance
_geom_bond_site_symmetry_2
Fe0 O1 2.082043 1_545
Fe0 O0 2.082043 1_455
H0 O1 0.986731 1_555
H1 O1 0.986731 1_556
H2 O0 0.986731 1_555
H3 O0 0.986731 1_556
Cl0 Fe0 2.513609 1_556
Cl0 Fe0 2.597107 1_555
Cl1 Fe0 2.513609 1_665
Cl1 Fe0 2.597107 1_666
