# generated using pymatgen
data_V8Ga41
_symmetry_space_group_name_H-M   'P 1'
_cell_length_a   9.38847816
_cell_length_b   9.38847805
_cell_length_c   9.38847904
_cell_angle_alpha   94.99715203
_cell_angle_beta   94.99715237
_cell_angle_gamma   94.99713945
_symmetry_Int_Tables_number   1
_chemical_formula_structural   V8Ga41
_chemical_formula_sum   'V8 Ga41'
_cell_volume   817.50759125
_cell_formula_units_Z   1
loop_
 _symmetry_equiv_pos_site_id
 _symmetry_equiv_pos_as_xyz
  1  'x, y, z'
loop_
 _atom_site_type_symbol
 _atom_site_label
 _atom_site_symmetry_multiplicity
 _atom_site_fract_x
 _atom_site_fract_y
 _atom_site_fract_z
 _atom_site_occupancy
  V  V0  1  0.71156427  0.10487726  0.38725304  1
  V  V1  1  0.38725304  0.71156427  0.10487726  1
  V  V2  1  0.10487726  0.38725304  0.71156427  1
  V  V3  1  0.28843573  0.89512274  0.61274696  1
  V  V4  1  0.61274696  0.28843573  0.89512274  1
  V  V5  1  0.89512274  0.61274696  0.28843573  1
  V  V6  1  0.18493802  0.18493802  0.18493802  1
  V  V7  1  0.81506198  0.81506198  0.81506198  1
  Ga  Ga0  1  0.82348790  0.86813664  0.32703326  1
  Ga  Ga1  1  0.32703326  0.82348790  0.86813664  1
  Ga  Ga2  1  0.86813664  0.32703326  0.82348790  1
  Ga  Ga3  1  0.17651210  0.13186336  0.67296674  1
  Ga  Ga4  1  0.67296674  0.17651210  0.13186336  1
  Ga  Ga5  1  0.13186336  0.67296674  0.17651210  1
  Ga  Ga6  1  0.55397854  0.91998331  0.22434399  1
  Ga  Ga7  1  0.22434399  0.55397854  0.91998331  1
  Ga  Ga8  1  0.91998331  0.22434399  0.55397854  1
  Ga  Ga9  1  0.44602146  0.08001669  0.77565601  1
  Ga  Ga10  1  0.77565601  0.44602146  0.08001669  1
  Ga  Ga11  1  0.08001669  0.77565601  0.44602146  1
  Ga  Ga12  1  0.78326188  0.96472864  0.60159458  1
  Ga  Ga13  1  0.60159458  0.78326188  0.96472864  1
  Ga  Ga14  1  0.96472864  0.60159458  0.78326188  1
  Ga  Ga15  1  0.21673812  0.03527136  0.39840542  1
  Ga  Ga16  1  0.39840542  0.21673812  0.03527136  1
  Ga  Ga17  1  0.03527136  0.39840542  0.21673812  1
  Ga  Ga18  1  0.50000000  0.00000000  0.50000000  1
  Ga  Ga19  1  0.50000000  0.50000000  -0.00000000  1
  Ga  Ga20  1  0.00000000  0.50000000  0.50000000  1
  Ga  Ga21  1  0.94374954  0.12571893  0.27082506  1
  Ga  Ga22  1  0.27082506  0.94374954  0.12571893  1
  Ga  Ga23  1  0.12571893  0.27082506  0.94374954  1
  Ga  Ga24  1  0.05625046  0.87428107  0.72917494  1
  Ga  Ga25  1  0.72917494  0.05625046  0.87428107  1
  Ga  Ga26  1  0.87428107  0.72917494  0.05625046  1
  Ga  Ga27  1  0.61532958  0.63359078  0.26071510  1
  Ga  Ga28  1  0.26071510  0.61532958  0.63359078  1
  Ga  Ga29  1  0.63359078  0.26071510  0.61532958  1
  Ga  Ga30  1  0.38467042  0.36640922  0.73928490  1
  Ga  Ga31  1  0.73928490  0.38467042  0.36640922  1
  Ga  Ga32  1  0.36640922  0.73928490  0.38467042  1
  Ga  Ga33  1  0.78053290  0.67206775  0.54146448  1
  Ga  Ga34  1  0.54146448  0.78053290  0.67206775  1
  Ga  Ga35  1  0.67206775  0.54146448  0.78053290  1
  Ga  Ga36  1  0.21946710  0.32793225  0.45853552  1
  Ga  Ga37  1  0.45853552  0.21946710  0.32793225  1
  Ga  Ga38  1  0.32793225  0.45853552  0.21946710  1
  Ga  Ga39  1  0.00000000  0.00000000  -0.00000000  1
  Ga  Ga40  1  0.50000000  0.50000000  0.50000000  1
loop_
_geom_bond_atom_site_label_1
_geom_bond_atom_site_label_2
_geom_bond_distance
_geom_bond_site_symmetry_2
Ga0 V5 2.550433 1_555
Ga0 V0 2.579800 1_565
Ga0 Ga21 2.692942 1_565
Ga0 Ga12 2.726102 1_555
Ga0 Ga6 2.727653 1_555
Ga0 Ga27 2.802732 1_555
Ga0 Ga11 2.804788 1_655
Ga0 Ga26 2.852059 1_555
Ga0 Ga33 2.874328 1_555
Ga1 V3 2.550433 1_555
Ga1 V1 2.579801 1_556
Ga1 Ga22 2.692941 1_556
Ga1 Ga13 2.726102 1_555
Ga1 Ga7 2.727653 1_555
Ga1 Ga28 2.802732 1_555
Ga1 Ga9 2.804788 1_565
Ga1 Ga24 2.852059 1_555
Ga1 Ga34 2.874328 1_555
Ga2 V4 2.550433 1_555
Ga2 V2 2.579801 1_655
Ga2 Ga23 2.692941 1_655
Ga2 Ga8 2.727653 1_555
Ga2 Ga29 2.802732 1_555
Ga2 Ga25 2.852059 1_555
Ga2 Ga35 2.874327 1_555
Ga3 V2 2.550433 1_555
Ga3 V3 2.579800 1_545
Ga3 Ga9 2.727653 1_555
Ga3 Ga30 2.802732 1_555
Ga3 Ga8 2.804788 1_455
Ga3 Ga36 2.874328 1_555
Ga4 V0 2.550433 1_555
Ga4 V4 2.579801 1_554
Ga4 Ga6 2.804788 1_545
Ga5 V1 2.550433 1_555
Ga5 V5 2.579801 1_455
Ga5 Ga7 2.804788 1_554
Ga6 V0 2.497452 1_565
Ga6 V1 2.513007 1_555
Ga7 V1 2.497452 1_556
Ga7 V2 2.513007 1_555
Ga8 V2 2.497452 1_655
Ga8 V0 2.513007 1_555
Ga9 V3 2.497452 1_545
Ga9 V4 2.513007 1_555
Ga10 V4 2.497452 1_554
Ga10 V5 2.513007 1_555
Ga10 Ga4 2.727653 1_555
Ga10 Ga19 2.734041 1_555
Ga10 Ga26 2.772119 1_555
Ga10 Ga2 2.804788 1_554
Ga10 Ga35 3.125502 1_554
Ga11 V5 2.497452 1_455
Ga11 V3 2.513007 1_555
Ga11 Ga5 2.727653 1_555
Ga11 Ga20 2.734041 1_555
Ga11 Ga24 2.772119 1_555
Ga11 Ga33 3.125502 1_455
Ga12 V7 2.557256 1_555
Ga12 V0 2.571673 1_565
Ga12 Ga25 2.733057 1_565
Ga12 Ga33 2.753883 1_555
Ga12 Ga18 2.803277 1_565
Ga12 Ga34 2.891156 1_555
Ga12 Ga24 2.957365 1_655
Ga13 V7 2.557256 1_555
Ga13 V1 2.571673 1_556
Ga13 Ga26 2.733056 1_556
Ga13 Ga34 2.753883 1_555
Ga13 Ga19 2.803278 1_556
Ga13 Ga35 2.891156 1_555
Ga13 Ga25 2.957365 1_565
Ga14 V7 2.557255 1_555
Ga14 V2 2.571673 1_655
Ga14 Ga2 2.726102 1_555
Ga14 Ga24 2.733057 1_655
Ga14 Ga35 2.753883 1_555
Ga14 Ga20 2.803278 1_655
Ga14 Ga33 2.891156 1_555
Ga14 Ga26 2.957365 1_556
Ga15 V6 2.557256 1_555
Ga15 V3 2.571673 1_545
Ga15 Ga3 2.726102 1_555
Ga15 Ga22 2.733057 1_545
Ga15 Ga36 2.753883 1_555
Ga15 Ga18 2.803277 1_555
Ga15 Ga37 2.891156 1_555
Ga15 Ga21 2.957365 1_455
Ga16 V6 2.557256 1_555
Ga16 V4 2.571673 1_554
Ga16 Ga4 2.726102 1_555
Ga16 Ga23 2.733056 1_554
Ga16 Ga37 2.753883 1_555
Ga16 Ga19 2.803278 1_555
Ga16 Ga38 2.891156 1_555
Ga16 Ga22 2.957365 1_545
Ga17 V6 2.557255 1_555
Ga17 V5 2.571673 1_455
Ga17 Ga5 2.726102 1_555
Ga17 Ga21 2.733057 1_455
Ga17 Ga38 2.753883 1_555
Ga17 Ga20 2.803278 1_555
Ga17 Ga36 2.891156 1_555
Ga17 Ga23 2.957365 1_554
Ga18 V3 2.498475 1_545
Ga18 V0 2.498475 1_555
Ga18 Ga9 2.734041 1_555
Ga18 Ga6 2.734041 1_545
Ga18 Ga29 2.739277 1_555
Ga18 Ga32 2.739277 1_545
Ga18 Ga37 2.759856 1_555
Ga18 Ga34 2.759856 1_545
Ga19 V4 2.498475 1_554
Ga19 V1 2.498475 1_555
Ga19 Ga7 2.734041 1_554
Ga19 Ga30 2.739277 1_554
Ga19 Ga27 2.739277 1_555
Ga19 Ga38 2.759856 1_555
Ga19 Ga35 2.759856 1_554
Ga20 V2 2.498475 1_555
Ga20 V5 2.498475 1_455
Ga20 Ga8 2.734041 1_455
Ga20 Ga31 2.739277 1_455
Ga20 Ga28 2.739277 1_555
Ga20 Ga33 2.759855 1_455
Ga20 Ga36 2.759855 1_555
Ga21 V6 2.502729 1_655
Ga21 V0 2.522498 1_555
Ga21 Ga8 2.772119 1_555
Ga21 Ga39 2.820765 1_655
Ga21 Ga4 2.852059 1_555
Ga22 V6 2.502729 1_565
Ga22 V1 2.522497 1_555
Ga22 Ga6 2.772118 1_555
Ga22 Ga39 2.820764 1_565
Ga22 Ga5 2.852059 1_555
Ga23 V6 2.502729 1_556
Ga23 V2 2.522498 1_555
Ga23 Ga7 2.772119 1_555
Ga23 Ga39 2.820765 1_556
Ga23 Ga3 2.852059 1_555
Ga24 V7 2.502729 1_455
Ga24 V3 2.522498 1_555
Ga24 Ga3 2.692942 1_565
Ga24 Ga39 2.820765 1_566
Ga25 V7 2.502729 1_545
Ga25 V4 2.522497 1_555
Ga25 Ga4 2.692941 1_556
Ga25 Ga9 2.772118 1_555
Ga25 Ga39 2.820764 1_656
Ga26 V7 2.502729 1_554
Ga26 V5 2.522498 1_555
Ga26 Ga5 2.692941 1_655
Ga26 Ga39 2.820765 1_665
Ga27 V5 2.643029 1_555
Ga27 V1 2.678716 1_555
Ga27 Ga40 2.910386 1_555
Ga27 Ga33 2.916833 1_555
Ga27 Ga38 3.010982 1_555
Ga28 V3 2.643029 1_555
Ga28 V2 2.678717 1_555
Ga28 Ga40 2.910385 1_555
Ga28 Ga34 2.916833 1_555
Ga28 Ga36 3.010982 1_555
Ga29 V4 2.643029 1_555
Ga29 V0 2.678717 1_555
Ga29 Ga40 2.910385 1_555
Ga29 Ga35 2.916833 1_555
Ga29 Ga37 3.010982 1_555
Ga30 V2 2.643029 1_555
Ga30 V4 2.678716 1_555
Ga30 Ga40 2.910386 1_555
Ga30 Ga36 2.916833 1_555
Ga30 Ga35 3.010982 1_555
Ga31 V0 2.643029 1_555
Ga31 V5 2.678717 1_555
Ga31 Ga4 2.802732 1_555
Ga31 Ga40 2.910385 1_555
Ga31 Ga37 2.916833 1_555
Ga31 Ga33 3.010982 1_555
Ga32 V1 2.643029 1_555
Ga32 V3 2.678717 1_555
Ga32 Ga5 2.802732 1_555
Ga32 Ga40 2.910385 1_555
Ga32 Ga38 2.916833 1_555
Ga32 Ga34 3.010982 1_555
Ga33 V5 2.725795 1_555
Ga33 V7 2.771964 1_555
Ga33 Ga34 2.870244 1_555
Ga33 Ga35 2.870244 1_555
Ga33 Ga40 2.944251 1_555
Ga34 V3 2.725795 1_555
Ga34 V7 2.771964 1_555
Ga34 Ga35 2.870244 1_555
Ga34 Ga40 2.944251 1_555
Ga34 Ga9 3.125501 1_565
Ga35 V4 2.725795 1_555
Ga35 V7 2.771964 1_555
Ga35 Ga40 2.944251 1_555
Ga36 V2 2.725795 1_555
Ga36 V6 2.771964 1_555
Ga36 Ga37 2.870244 1_555
Ga36 Ga38 2.870244 1_555
Ga36 Ga40 2.944251 1_555
Ga36 Ga8 3.125502 1_455
Ga37 V0 2.725795 1_555
Ga37 V6 2.771964 1_555
Ga37 Ga38 2.870244 1_555
Ga37 Ga4 2.874328 1_555
Ga37 Ga40 2.944251 1_555
Ga37 Ga6 3.125501 1_545
Ga38 V1 2.725795 1_555
Ga38 V6 2.771964 1_555
Ga38 Ga5 2.874327 1_555
Ga38 Ga40 2.944251 1_555
Ga38 Ga7 3.125502 1_554
Ga39 V6 2.732853 1_555
Ga39 V7 2.732853 1_444
