# generated using pymatgen
data_Ba2MgZrTiO6
_symmetry_space_group_name_H-M   'P 1'
_cell_length_a   6.30625028
_cell_length_b   6.30624973
_cell_length_c   5.95229618
_cell_angle_alpha   61.84443217
_cell_angle_beta   61.84444435
_cell_angle_gamma   55.53371454
_symmetry_Int_Tables_number   1
_chemical_formula_structural   Ba2MgZrTiO6
_chemical_formula_sum   'Ba2 Mg1 Zr1 Ti1 O6'
_cell_volume   165.09628179
_cell_formula_units_Z   1
loop_
 _symmetry_equiv_pos_site_id
 _symmetry_equiv_pos_as_xyz
  1  'x, y, z'
loop_
 _atom_site_type_symbol
 _atom_site_label
 _atom_site_symmetry_multiplicity
 _atom_site_fract_x
 _atom_site_fract_y
 _atom_site_fract_z
 _atom_site_occupancy
  Ba  Ba0  1  0.30670400  0.30670400  0.19326200  1
  Ba  Ba1  1  0.69329600  0.69329600  0.80673800  1
  Mg  Mg0  1  0.00000000  0.00000000  0.50000000  1
  Zr  Zr0  1  0.50000000  0.50000000  0.50000000  1
  Ti  Ti0  1  0.00000000  0.00000000  0.00000000  1
  O  O0  1  0.26469200  0.26469200  0.73533600  1
  O  O1  1  0.23528300  0.76472500  0.74509800  1
  O  O2  1  0.76472500  0.23528300  0.74509800  1
  O  O3  1  0.73530800  0.73530800  0.26466400  1
  O  O4  1  0.76471700  0.23527500  0.25490200  1
  O  O5  1  0.23527500  0.76471700  0.25490200  1
loop_
_geom_bond_atom_site_label_1
_geom_bond_atom_site_label_2
_geom_bond_distance
_geom_bond_site_symmetry_2
Ba0 O5 2.837534 1_555
Ba0 O4 2.837535 1_555
Ba0 O1 2.837547 1_554
Ba0 O2 2.837547 1_554
Ba0 Mg0 2.895554 1_555
Ba0 O0 3.002059 1_554
Ba0 O0 3.002863 1_555
Ba0 O3 3.014254 1_545
Ba0 O3 3.014254 1_455
Ba1 O2 2.837534 1_555
Ba1 O1 2.837535 1_555
Ba1 O4 2.837547 1_556
Ba1 O5 2.837547 1_556
Ba1 Mg0 2.895554 1_665
Ba1 O3 3.002059 1_556
Ba1 O3 3.002863 1_555
Ba1 O0 3.014254 1_565
Ba1 O0 3.014254 1_655
Mg0 O1 2.009888 1_545
Mg0 O4 2.009888 1_455
Mg0 O2 2.009889 1_455
Mg0 O5 2.009889 1_545
O0 Zr0 2.221514 1_555
O0 Ti0 2.498924 1_556
O1 Ti0 2.052605 1_566
O1 Zr0 2.132581 1_555
O2 Ti0 2.052605 1_656
O2 Zr0 2.132581 1_555
O3 Zr0 2.221514 1_555
O3 Ti0 2.498924 1_665
O4 Ti0 2.052605 1_655
O4 Zr0 2.132581 1_555
O5 Ti0 2.052605 1_565
O5 Zr0 2.132581 1_555
