# generated using pymatgen
data_Sb2TeF14
_symmetry_space_group_name_H-M   'P 1'
_cell_length_a   14.19898244
_cell_length_b   7.37855285
_cell_length_c   9.38300240
_cell_angle_alpha   88.83995755
_cell_angle_beta   90.00000000
_cell_angle_gamma   90.00000000
_symmetry_Int_Tables_number   1
_chemical_formula_structural   Sb2TeF14
_chemical_formula_sum   'Sb8 Te4 F56'
_cell_volume   982.83637662
_cell_formula_units_Z   4
loop_
 _symmetry_equiv_pos_site_id
 _symmetry_equiv_pos_as_xyz
  1  'x, y, z'
loop_
 _atom_site_type_symbol
 _atom_site_label
 _atom_site_symmetry_multiplicity
 _atom_site_fract_x
 _atom_site_fract_y
 _atom_site_fract_z
 _atom_site_occupancy
  Sb  Sb0  1  0.11221180  0.67115173  0.26749670  1
  Sb  Sb1  1  0.61221180  0.32884827  0.23250330  1
  Sb  Sb2  1  0.88778820  0.32884827  0.73250330  1
  Sb  Sb3  1  0.38778820  0.67115173  0.76749670  1
  Sb  Sb4  1  0.94676246  0.11007771  0.23821868  1
  Sb  Sb5  1  0.44676246  0.88992229  0.26178132  1
  Sb  Sb6  1  0.05323754  0.88992229  0.76178132  1
  Sb  Sb7  1  0.55323754  0.11007771  0.73821868  1
  Te  Te0  1  0.73004739  0.78800961  0.02580352  1
  Te  Te1  1  0.23004739  0.21199039  0.47419648  1
  Te  Te2  1  0.26995261  0.21199039  0.97419648  1
  Te  Te3  1  0.76995261  0.78800961  0.52580352  1
  F  F0  1  0.02188486  0.53411655  0.17410714  1
  F  F1  1  0.52188486  0.46588345  0.32589286  1
  F  F2  1  0.97811514  0.46588345  0.82589286  1
  F  F3  1  0.47811514  0.53411655  0.67410714  1
  F  F4  1  0.19171906  0.83681578  0.35915688  1
  F  F5  1  0.69171906  0.16318422  0.14084312  1
  F  F6  1  0.80828094  0.16318422  0.64084312  1
  F  F7  1  0.30828094  0.83681578  0.85915688  1
  F  F8  1  0.04525316  0.64925357  0.43793537  1
  F  F9  1  0.54525316  0.35074643  0.06206463  1
  F  F10  1  0.95474684  0.35074643  0.56206463  1
  F  F11  1  0.45474684  0.64925357  0.93793537  1
  F  F12  1  0.83411398  0.63828882  0.40373220  1
  F  F13  1  0.33411398  0.36171118  0.09626780  1
  F  F14  1  0.16588602  0.36171118  0.59626780  1
  F  F15  1  0.66588602  0.63828882  0.90373220  1
  F  F16  1  0.71661561  0.90239929  0.36635326  1
  F  F17  1  0.21661561  0.09760071  0.13364674  1
  F  F18  1  0.28338439  0.09760071  0.63364674  1
  F  F19  1  0.78338439  0.90239929  0.86635326  1
  F  F20  1  0.66846591  0.63296830  0.52810132  1
  F  F21  1  0.16846591  0.36703170  0.97189868  1
  F  F22  1  0.33153409  0.36703170  0.47189868  1
  F  F23  1  0.83153409  0.63296830  0.02810132  1
  F  F24  1  0.64285518  0.96446407  0.64018761  1
  F  F25  1  0.14285518  0.03553593  0.85981239  1
  F  F26  1  0.35714482  0.03553593  0.35981239  1
  F  F27  1  0.85714482  0.96446407  0.14018761  1
  F  F28  1  0.59578675  0.99156474  0.90831474  1
  F  F29  1  0.09578675  0.00843526  0.59168526  1
  F  F30  1  0.40421325  0.00843526  0.09168526  1
  F  F31  1  0.90421325  0.99156474  0.40831474  1
  F  F32  1  0.31091199  0.46318562  0.81220561  1
  F  F33  1  0.81091199  0.53681438  0.68779439  1
  F  F34  1  0.68908801  0.53681438  0.18779439  1
  F  F35  1  0.18908801  0.46318562  0.31220561  1
  F  F36  1  0.50168135  0.18239991  0.56424394  1
  F  F37  1  0.00168135  0.81760009  0.93575606  1
  F  F38  1  0.49831865  0.81760009  0.43575606  1
  F  F39  1  0.99831865  0.18239991  0.06424394  1
  F  F40  1  0.44990129  0.20301616  0.83876468  1
  F  F41  1  0.94990129  0.79698384  0.66123532  1
  F  F42  1  0.55009871  0.79698384  0.16123532  1
  F  F43  1  0.05009871  0.20301616  0.33876468  1
  F  F44  1  0.63486577  0.30342878  0.76026360  1
  F  F45  1  0.13486577  0.69657122  0.73973640  1
  F  F46  1  0.36513423  0.69657122  0.23973640  1
  F  F47  1  0.86513423  0.30342878  0.26026360  1
  F  F48  1  0.47045746  0.88900738  0.71972747  1
  F  F49  1  0.97045746  0.11099262  0.78027253  1
  F  F50  1  0.52954254  0.11099262  0.28027253  1
  F  F51  1  0.02954254  0.88900738  0.21972747  1
  F  F52  1  0.32404142  0.71896705  0.59706046  1
  F  F53  1  0.82404142  0.28103295  0.90293954  1
  F  F54  1  0.67595858  0.28103295  0.40293954  1
  F  F55  1  0.17595858  0.71896705  0.09706046  1
loop_
_geom_bond_atom_site_label_1
_geom_bond_atom_site_label_2
_geom_bond_distance
_geom_bond_site_symmetry_2
F0 Sb0 1.863071 1_555
F1 Sb1 1.863071 1_555
F2 Sb2 1.863071 1_555
F3 Sb3 1.863071 1_555
F4 Sb0 1.884378 1_555
F5 Sb1 1.884378 1_555
F6 Sb2 1.884378 1_555
F7 Sb3 1.884378 1_555
F8 Sb0 1.864694 1_555
F9 Sb1 1.864694 1_555
F10 Sb2 1.864694 1_555
F11 Sb3 1.864694 1_555
F12 Te3 1.847578 1_555
F13 Te2 1.847578 1_554
F14 Te1 1.847578 1_555
F15 Te0 1.847578 1_556
F16 Te3 1.863649 1_555
F17 Te2 1.863649 1_554
F18 Te1 1.863649 1_555
F19 Te0 1.863649 1_556
F20 Te3 1.839745 1_555
F21 Te2 1.839745 1_555
F22 Te1 1.839745 1_555
F23 Te0 1.839745 1_555
F24 Sb7 1.913027 1_565
F24 Te3 2.482016 1_555
F25 Sb6 1.913027 1_545
F25 Te2 2.482016 1_555
F26 Sb5 1.913027 1_545
F26 Te1 2.482016 1_555
F27 Sb4 1.913027 1_565
F27 Te0 2.482016 1_555
F28 Sb7 1.902739 1_565
F29 Sb6 1.902739 1_545
F30 Sb5 1.902739 1_545
F31 Sb4 1.902739 1_565
F32 Sb3 1.922521 1_555
F32 Te2 2.443308 1_555
F33 Sb2 1.922521 1_555
F33 Te3 2.443308 1_555
F34 Sb1 1.922521 1_555
F34 Te0 2.443308 1_555
F35 Sb0 1.922521 1_555
F35 Te1 2.443308 1_555
F36 Sb7 1.857453 1_555
F37 Sb6 1.857453 1_555
F38 Sb5 1.857453 1_555
F39 Sb4 1.857453 1_555
F40 Sb7 1.881323 1_555
F41 Sb6 1.881323 1_655
F42 Sb5 1.881323 1_555
F43 Sb4 1.881323 1_455
F44 Sb7 1.852953 1_555
F45 Sb6 1.852953 1_555
F46 Sb5 1.852953 1_555
F47 Sb4 1.852953 1_555
F48 Sb7 2.020855 1_565
F48 Sb3 2.033102 1_555
F49 Sb6 2.020855 1_645
F49 Sb2 2.033102 1_555
F50 Sb5 2.020855 1_545
F50 Sb1 2.033102 1_555
F51 Sb4 2.020855 1_465
F51 Sb0 2.033102 1_555
F52 Sb3 1.865036 1_555
F53 Sb2 1.865036 1_555
F54 Sb1 1.865036 1_555
F55 Sb0 1.865036 1_555
