# generated using pymatgen
data_MgFe6(O3F)3
_symmetry_space_group_name_H-M   'P 1'
_cell_length_a   7.17698789
_cell_length_b   5.87836114
_cell_length_c   5.71477980
_cell_angle_alpha   80.69546486
_cell_angle_beta   73.74526226
_cell_angle_gamma   70.81496286
_symmetry_Int_Tables_number   1
_chemical_formula_structural   MgFe6(O3F)3
_chemical_formula_sum   'Mg1 Fe6 O9 F3'
_cell_volume   217.96108859
_cell_formula_units_Z   1
loop_
 _symmetry_equiv_pos_site_id
 _symmetry_equiv_pos_as_xyz
  1  'x, y, z'
loop_
 _atom_site_type_symbol
 _atom_site_label
 _atom_site_symmetry_multiplicity
 _atom_site_fract_x
 _atom_site_fract_y
 _atom_site_fract_z
 _atom_site_occupancy
  Mg  Mg0  1  0.50309800  0.49686600  0.98171800  1
  Fe  Fe0  1  0.84104800  0.68201400  0.66677600  1
  Fe  Fe1  1  0.31737500  0.74743200  0.59314200  1
  Fe  Fe2  1  0.66607300  0.31277700  0.37608100  1
  Fe  Fe3  1  0.14793800  0.33720200  0.34246900  1
  Fe  Fe4  1  0.49774100  0.97870000  0.02997700  1
  Fe  Fe5  1  0.99738200  0.93683900  0.05958600  1
  O  O0  1  0.30468000  0.84685500  0.92637000  1
  O  O1  1  0.95225000  0.20195900  0.27332300  1
  O  O2  1  0.61579900  0.54396800  0.60693100  1
  O  O3  1  0.68695200  0.14789100  0.09301700  1
  O  O4  1  0.03132600  0.80565500  0.75030400  1
  O  O5  1  0.38195900  0.47632400  0.37113900  1
  O  O6  1  0.68990200  0.66783200  0.00993600  1
  O  O7  1  0.33698300  0.01216500  0.36117000  1
  O  O8  1  0.98252100  0.67608300  0.31861700  1
  F  F0  1  0.30947700  0.33063000  0.97199000  1
  F  F1  1  0.63778400  0.03321300  0.64344900  1
  F  F2  1  0.01637800  0.33702100  0.69543400  1
loop_
_geom_bond_atom_site_label_1
_geom_bond_atom_site_label_2
_geom_bond_distance
_geom_bond_site_symmetry_2
Mg0 O6 1.972936 1_556
Mg0 O2 2.074587 1_555
Mg0 O0 2.115857 1_555
Mg0 O5 2.149897 1_556
Mg0 O3 2.150069 1_556
Fe0 O4 1.936617 1_655
Fe0 O6 1.960915 1_556
Fe0 O8 1.964458 1_555
Fe0 O2 2.156468 1_555
Fe1 O7 1.889800 1_565
Fe1 O4 1.934906 1_555
Fe1 O5 2.050202 1_555
Fe1 O0 2.050389 1_555
Fe1 O2 2.098652 1_555
Fe2 O1 1.885948 1_555
Fe2 O2 1.925766 1_555
Fe2 O5 1.953961 1_555
Fe2 O3 1.963302 1_555
Fe3 O7 1.953026 1_555
Fe3 O8 1.960809 1_455
Fe3 O1 1.976556 1_455
Fe3 O5 2.148660 1_555
Fe4 O6 1.891392 1_555
Fe4 O7 1.923772 1_565
Fe4 O0 2.045626 1_554
Fe4 O3 2.059226 1_565
Fe5 O8 1.958966 1_555
Fe5 O4 1.963216 1_654
Fe5 O1 2.021882 1_565
Fe5 O0 2.036424 1_654
Fe5 O3 2.135685 1_565
F0 Mg0 1.960186 1_555
F0 Fe4 2.099311 1_546
F0 Fe3 2.109753 1_556
F1 Fe2 2.076102 1_555
F1 Fe0 2.109136 1_545
F1 Fe4 2.175347 1_546
F2 Fe3 1.973332 1_555
F2 Fe0 2.013394 1_455
