# generated using pymatgen
data_Yb4MgTi2O10
_symmetry_space_group_name_H-M   'P 1'
_cell_length_a   4.07344022
_cell_length_b   5.92163327
_cell_length_c   10.61269060
_cell_angle_alpha   75.36487844
_cell_angle_beta   89.99999867
_cell_angle_gamma   69.88254649
_symmetry_Int_Tables_number   1
_chemical_formula_structural   Yb4MgTi2O10
_chemical_formula_sum   'Yb4 Mg1 Ti2 O10'
_cell_volume   231.50940304
_cell_formula_units_Z   1
loop_
 _symmetry_equiv_pos_site_id
 _symmetry_equiv_pos_as_xyz
  1  'x, y, z'
loop_
 _atom_site_type_symbol
 _atom_site_label
 _atom_site_symmetry_multiplicity
 _atom_site_fract_x
 _atom_site_fract_y
 _atom_site_fract_z
 _atom_site_occupancy
  Yb  Yb0  1  0.18116022  0.63768057  0.88412654  1
  Yb  Yb1  1  0.15541691  0.68916718  0.56519985  1
  Yb  Yb2  1  0.81883978  0.36231943  0.11587346  1
  Yb  Yb3  1  0.84458309  0.31083282  0.43480015  1
  Mg  Mg0  1  0.50000000  0.00000000  -0.00000000  1
  Ti  Ti0  1  0.13305426  0.73389047  0.26341313  1
  Ti  Ti1  1  0.86694574  0.26610953  0.73658687  1
  O  O0  1  0.01395996  0.97208008  0.34637656  1
  O  O1  1  0.02382228  0.95235544  0.07197652  1
  O  O2  1  0.65486072  0.69027856  0.94468388  1
  O  O3  1  0.73317765  0.53364471  0.59335765  1
  O  O4  1  0.32915294  0.34169312  0.75749421  1
  O  O5  1  0.67084706  0.65830688  0.24250579  1
  O  O6  1  0.34513928  0.30972144  0.05531512  1
  O  O7  1  0.26682235  0.46635529  0.40664235  1
  O  O8  1  0.98604004  0.02791992  0.65362344  1
  O  O9  1  0.97617772  0.04764456  0.92802348  1
loop_
_geom_bond_atom_site_label_1
_geom_bond_atom_site_label_2
_geom_bond_distance
_geom_bond_site_symmetry_2
Mg0 O6 1.963294 1_555
Mg0 O2 1.963299 1_544
Mg0 O9 2.166333 1_454
Mg0 O1 2.166333 1_645
Mg0 O9 2.166333 1_554
Mg0 O1 2.166333 1_545
O0 Ti0 1.776753 1_555
O0 Yb3 2.319428 1_465
O0 Yb1 2.429346 1_555
O0 Yb2 2.799273 1_465
O1 O9 1.476169 1_464
O1 Ti0 2.067629 1_555
O1 Yb2 2.446396 1_465
O2 Yb0 2.178977 1_555
O2 Yb0 2.178981 1_655
O2 Yb2 2.200719 1_556
O3 Ti1 1.818400 1_555
O3 Yb1 2.201422 1_555
O3 Yb1 2.201426 1_655
O3 Yb3 2.342729 1_555
O4 Ti1 2.103392 1_455
O4 Ti1 2.103399 1_555
O4 Yb0 2.388520 1_555
O4 Yb1 2.403273 1_555
O5 Ti0 2.103392 1_655
O5 Ti0 2.103399 1_555
O5 Yb2 2.388520 1_555
O5 Yb3 2.403273 1_555
O6 Yb2 2.178980 1_555
O6 Yb2 2.178984 1_455
O6 Yb0 2.200713 1_554
O7 Ti0 1.818400 1_555
O7 Yb3 2.201422 1_555
O7 Yb3 2.201426 1_455
O7 Yb1 2.342729 1_555
O8 Ti1 1.776753 1_555
O8 Yb1 2.319428 1_645
O8 Yb3 2.429346 1_555
O8 Yb0 2.799273 1_645
O9 Ti1 2.067629 1_555
O9 Yb0 2.446396 1_645
