# generated using pymatgen
data_MgV2(Ga2O5)2
_symmetry_space_group_name_H-M   'P 1'
_cell_length_a   5.06958077
_cell_length_b   5.51804722
_cell_length_c   7.67448098
_cell_angle_alpha   71.60554233
_cell_angle_beta   89.66263197
_cell_angle_gamma   62.35054675
_symmetry_Int_Tables_number   1
_chemical_formula_structural   MgV2(Ga2O5)2
_chemical_formula_sum   'Mg1 V2 Ga4 O10'
_cell_volume   177.91366362
_cell_formula_units_Z   1
loop_
 _symmetry_equiv_pos_site_id
 _symmetry_equiv_pos_as_xyz
  1  'x, y, z'
loop_
 _atom_site_type_symbol
 _atom_site_label
 _atom_site_symmetry_multiplicity
 _atom_site_fract_x
 _atom_site_fract_y
 _atom_site_fract_z
 _atom_site_occupancy
  Mg  Mg0  1  0.56628320  0.88402250  0.73570352  1
  V  V0  1  0.01905488  0.95106430  0.48748043  1
  V  V1  1  0.96657964  0.05889098  0.00747809  1
  Ga  Ga0  1  0.78629665  0.41925970  0.60412222  1
  Ga  Ga1  1  0.63390414  0.75513353  0.19874731  1
  Ga  Ga2  1  0.21798432  0.55412655  0.89831612  1
  Ga  Ga3  1  0.37651626  0.27212498  0.30193902  1
  O  O0  1  0.80542649  0.80634391  0.96996263  1
  O  O1  1  0.44738370  0.80722271  0.44376707  1
  O  O2  1  0.99916178  0.61673211  0.66622941  1
  O  O3  1  0.62147410  0.43639612  0.83881451  1
  O  O4  1  0.34706189  0.63677615  0.13220960  1
  O  O5  1  0.97017962  0.38045078  0.36898112  1
  O  O6  1  0.59585692  0.20603274  0.53302833  1
  O  O7  1  0.13284461  0.00953130  0.74728646  1
  O  O8  1  0.24733856  0.19869532  0.07329140  1
  O  O9  1  0.78866026  0.00837333  0.24893074  1
loop_
_geom_bond_atom_site_label_1
_geom_bond_atom_site_label_2
_geom_bond_distance
_geom_bond_site_symmetry_2
Mg0 O7 1.984952 1_565
Mg0 O0 1.985624 1_555
Mg0 O6 2.024680 1_565
Mg0 O2 2.180367 1_555
Mg0 O3 2.221060 1_555
Mg0 O1 2.532746 1_555
Ga0 O3 1.991904 1_555
Ga0 O1 1.999474 1_555
Ga0 O2 2.001075 1_555
Ga0 O6 2.019854 1_555
Ga0 O7 2.042988 1_655
Ga0 O5 2.051879 1_555
Ga1 O0 1.953395 1_554
Ga1 O4 1.975496 1_555
Ga1 O5 1.984419 1_555
Ga1 O9 2.019225 1_565
Ga1 O1 2.140223 1_555
Ga1 O8 2.200309 1_565
Ga2 O8 1.934249 1_556
Ga2 O3 1.938455 1_555
Ga2 O2 1.949795 1_455
Ga2 O0 2.093194 1_455
Ga2 O4 2.160030 1_556
Ga2 O7 2.237323 1_565
Ga3 O6 1.937364 1_555
Ga3 O4 1.958850 1_555
Ga3 O5 1.975914 1_455
Ga3 O9 2.047091 1_555
Ga3 O8 2.093019 1_555
Ga3 O1 2.298217 1_545
O0 V1 2.001261 1_566
O1 V0 2.004384 1_555
O2 V0 1.967070 1_655
O3 V1 2.004521 1_556
O4 V1 2.122965 1_465
O5 V0 2.144820 1_645
O6 V0 2.050505 1_645
O7 V1 2.209606 1_456
O7 V0 2.237110 1_545
O8 V1 2.037053 1_455
O9 V0 2.032942 1_645
O9 V1 2.052473 1_555
