# generated using pymatgen
data_CsIO3
_symmetry_space_group_name_H-M   'P 1'
_cell_length_a   4.66904371
_cell_length_b   6.60177417
_cell_length_c   6.61473721
_cell_angle_alpha   90.00000000
_cell_angle_beta   90.00000000
_cell_angle_gamma   89.99353567
_symmetry_Int_Tables_number   1
_chemical_formula_structural   CsIO3
_chemical_formula_sum   'Cs2 I2 O6'
_cell_volume   203.89247464
_cell_formula_units_Z   2
loop_
 _symmetry_equiv_pos_site_id
 _symmetry_equiv_pos_as_xyz
  1  'x, y, z'
loop_
 _atom_site_type_symbol
 _atom_site_label
 _atom_site_symmetry_multiplicity
 _atom_site_fract_x
 _atom_site_fract_y
 _atom_site_fract_z
 _atom_site_occupancy
  Cs  Cs0  1  0.50426584  0.48584683  0.00000000  1
  Cs  Cs1  1  0.49574727  0.98583032  0.50000000  1
  I  I0  1  0.02144656  0.00296506  0.00000000  1
  I  I1  1  0.97850865  0.50293799  0.50000000  1
  O  O0  1  0.59326471  0.46939585  0.50000000  1
  O  O1  1  0.01440083  0.67735987  0.28998741  1
  O  O2  1  0.01440083  0.67735987  0.71001259  1
  O  O3  1  0.98568432  0.17740597  0.79002830  1
  O  O4  1  0.40659366  0.96949227  0.00000000  1
  O  O5  1  0.98568432  0.17740597  0.20997170  1
loop_
_geom_bond_atom_site_label_1
_geom_bond_atom_site_label_2
_geom_bond_distance
_geom_bond_site_symmetry_2
Cs0 O4 3.225270 1_555
Cs0 O2 3.241699 1_554
Cs0 O1 3.241699 1_555
Cs0 O2 3.309355 1_654
Cs0 O1 3.309355 1_655
Cs0 O0 3.335138 1_555
Cs0 O0 3.335138 1_554
Cs0 O5 3.335688 1_555
Cs0 O3 3.335688 1_554
Cs0 O4 3.439276 1_545
Cs0 O5 3.455302 1_455
Cs0 O3 3.455302 1_454
Cs1 O0 3.224747 1_565
Cs1 O3 3.242459 1_565
Cs1 O5 3.242459 1_565
Cs1 O3 3.309222 1_465
Cs1 O5 3.309222 1_465
Cs1 O4 3.335207 1_555
Cs1 O4 3.335207 1_556
Cs1 O1 3.336003 1_555
Cs1 O2 3.336003 1_555
Cs1 O0 3.439601 1_555
Cs1 O2 3.455440 1_655
Cs1 O1 3.455440 1_655
I0 O4 1.811771 1_545
I0 O5 1.811941 1_455
I0 O3 1.811941 1_454
I1 O1 1.812148 1_655
I1 O2 1.812148 1_655
I1 O0 1.812325 1_555
