# generated using pymatgen
data_Na3HfInSi2SO12
_symmetry_space_group_name_H-M   'P 1'
_cell_length_a   9.20272118
_cell_length_b   9.20272085
_cell_length_c   22.77011569
_cell_angle_alpha   90.15804873
_cell_angle_beta   89.84195127
_cell_angle_gamma   120.28503490
_symmetry_Int_Tables_number   1
_chemical_formula_structural   Na3HfInSi2SO12
_chemical_formula_sum   'Na18 Hf6 In6 Si12 S6 O72'
_cell_volume   1665.22002299
_cell_formula_units_Z   6
loop_
 _symmetry_equiv_pos_site_id
 _symmetry_equiv_pos_as_xyz
  1  'x, y, z'
loop_
 _atom_site_type_symbol
 _atom_site_label
 _atom_site_symmetry_multiplicity
 _atom_site_fract_x
 _atom_site_fract_y
 _atom_site_fract_z
 _atom_site_occupancy
  Na  Na0  1  0.62885620  0.00045027  0.24115157  1
  Na  Na1  1  0.99472779  0.64458512  0.24414622  1
  Na  Na2  1  0.99954973  0.37114380  0.74115157  1
  Na  Na3  1  0.35541488  0.00527221  0.74414622  1
  Na  Na4  1  0.29552320  0.33378327  0.57448457  1
  Na  Na5  1  0.66139479  0.97791812  0.57747922  1
  Na  Na6  1  0.66621673  0.70447680  0.07448457  1
  Na  Na7  1  0.02208188  0.33860521  0.07747922  1
  Na  Na8  1  0.96218920  0.66711727  0.90781857  1
  Na  Na9  1  0.32806079  0.31125212  0.91081322  1
  Na  Na10  1  0.33288273  0.03781080  0.40781857  1
  Na  Na11  1  0.68874788  0.67193921  0.41081322  1
  Na  Na12  1  0.00505367  0.03175511  0.49414159  1
  Na  Na13  1  0.96824489  0.99494633  0.99414159  1
  Na  Na14  1  0.67172067  0.36508811  0.82747459  1
  Na  Na15  1  0.63491189  0.32827933  0.32747459  1
  Na  Na16  1  0.33838667  0.69842211  0.16080859  1
  Na  Na17  1  0.30157789  0.66161333  0.66080859  1
  Hf  Hf0  1  0.01608940  0.00320533  0.64713651  1
  Hf  Hf1  1  0.99679467  0.98391060  0.14713651  1
  Hf  Hf2  1  0.68275640  0.33653833  0.98046951  1
  Hf  Hf3  1  0.66346167  0.31724360  0.48046951  1
  Hf  Hf4  1  0.34942240  0.66987233  0.31380351  1
  Hf  Hf5  1  0.33012767  0.65057760  0.81380351  1
  In  In0  1  0.00554595  0.00877456  0.35042683  1
  In  In1  1  0.99122544  0.99445405  0.85042683  1
  In  In2  1  0.67221295  0.34210756  0.68375983  1
  In  In3  1  0.65789244  0.32778705  0.18375983  1
  In  In4  1  0.33887895  0.67544156  0.01709383  1
  In  In5  1  0.32455844  0.66112105  0.51709383  1
  Si  Si0  1  0.29570898  0.99793930  0.25340235  1
  Si  Si1  1  0.70648890  0.70171012  0.25164029  1
  Si  Si2  1  0.29828988  0.29351110  0.75164029  1
  Si  Si3  1  0.00206070  0.70429102  0.75340235  1
  Si  Si4  1  0.96237598  0.33127230  0.58673535  1
  Si  Si5  1  0.37315590  0.03504312  0.58497329  1
  Si  Si6  1  0.96495688  0.62684410  0.08497329  1
  Si  Si7  1  0.66872770  0.03762402  0.08673535  1
  Si  Si8  1  0.62904198  0.66460630  0.92006935  1
  Si  Si9  1  0.03982190  0.36837712  0.91830729  1
  Si  Si10  1  0.63162288  0.96017810  0.41830729  1
  Si  Si11  1  0.33539370  0.37095802  0.42006935  1
  S  S0  1  0.00508259  0.29891323  0.24891038  1
  S  S1  1  0.70108677  0.99491741  0.74891038  1
  S  S2  1  0.67174959  0.63224623  0.58224338  1
  S  S3  1  0.36775377  0.32825041  0.08224338  1
  S  S4  1  0.33841559  0.96558023  0.91557738  1
  S  S5  1  0.03441977  0.66158441  0.41557738  1
  O  O0  1  0.22094982  0.02166640  0.31517080  1
  O  O1  1  0.81792422  0.78507179  0.31055583  1
  O  O2  1  0.97797082  0.19419946  0.30115314  1
  O  O3  1  0.21492821  0.18207578  0.81055583  1
  O  O4  1  0.97833360  0.77905018  0.81517080  1
  O  O5  1  0.80580054  0.02202918  0.80115314  1
  O  O6  1  0.77981091  0.97295352  0.69475594  1
  O  O7  1  0.17295374  0.20188367  0.69418995  1
  O  O8  1  0.02086847  0.83045126  0.69863099  1
  O  O9  1  0.79811633  0.82704626  0.19418995  1
  O  O10  1  0.02704648  0.22018909  0.19475594  1
  O  O11  1  0.16954874  0.97913153  0.19863099  1
  O  O12  1  0.88761682  0.35499940  0.64850380  1
  O  O13  1  0.48459122  0.11840479  0.64388883  1
  O  O14  1  0.64463782  0.52753246  0.63448614  1
  O  O15  1  0.88159521  0.51540878  0.14388883  1
  O  O16  1  0.64500060  0.11238318  0.14850380  1
  O  O17  1  0.47246754  0.35536218  0.13448614  1
  O  O18  1  0.44647791  0.30628652  0.02808894  1
  O  O19  1  0.83962074  0.53521667  0.02752295  1
  O  O20  1  0.68753547  0.16378426  0.03196399  1
  O  O21  1  0.46478333  0.16037926  0.52752295  1
  O  O22  1  0.69371348  0.55352209  0.52808894  1
  O  O23  1  0.83621574  0.31246453  0.53196399  1
  O  O24  1  0.55428282  0.68833340  0.98183780  1
  O  O25  1  0.15125722  0.45173879  0.97722283  1
  O  O26  1  0.31130382  0.86086646  0.96782014  1
  O  O27  1  0.54826121  0.84874278  0.47722283  1
  O  O28  1  0.31166660  0.44571718  0.48183780  1
  O  O29  1  0.13913354  0.68869618  0.46782014  1
  O  O30  1  0.11314391  0.63962052  0.36142294  1
  O  O31  1  0.50628674  0.86855067  0.36085695  1
  O  O32  1  0.35420147  0.49711826  0.36529799  1
  O  O33  1  0.13144933  0.49371326  0.86085695  1
  O  O34  1  0.36037948  0.88685609  0.86142294  1
  O  O35  1  0.50288174  0.64579853  0.86529799  1
  O  O36  1  0.01400133  0.81099203  0.41258074  1
  O  O37  1  0.81416379  0.97338943  0.41196937  1
  O  O38  1  0.18150941  0.17567159  0.41477624  1
  O  O39  1  0.02661057  0.18583621  0.91196937  1
  O  O40  1  0.18900797  0.98599867  0.91258074  1
  O  O41  1  0.82432841  0.81849059  0.91477624  1
  O  O42  1  0.96242006  0.14898111  0.58833160  1
  O  O43  1  0.18914240  0.02682951  0.58868343  1
  O  O44  1  0.82354700  0.80339262  0.58824623  1
  O  O45  1  0.97317049  0.81085760  0.08868343  1
  O  O46  1  0.85101889  0.03757994  0.08833160  1
  O  O47  1  0.19660738  0.17645300  0.08824623  1
  O  O48  1  0.68066833  0.14432503  0.74591374  1
  O  O49  1  0.48083079  0.30672243  0.74530237  1
  O  O50  1  0.84817641  0.50900459  0.74810924  1
  O  O51  1  0.69327757  0.51916921  0.24530237  1
  O  O52  1  0.85567497  0.31933167  0.24591374  1
  O  O53  1  0.49099541  0.15182359  0.24810924  1
  O  O54  1  0.62908706  0.48231411  0.92166460  1
  O  O55  1  0.85580940  0.36016251  0.92201643  1
  O  O56  1  0.49021400  0.13672562  0.92157923  1
  O  O57  1  0.63983749  0.14419060  0.42201643  1
  O  O58  1  0.51768589  0.37091294  0.42166460  1
  O  O59  1  0.86327438  0.50978600  0.42157923  1
  O  O60  1  0.34733433  0.47765903  0.07924774  1
  O  O61  1  0.14749679  0.64005643  0.07863637  1
  O  O62  1  0.51484241  0.84233859  0.08144324  1
  O  O63  1  0.35994357  0.85250321  0.57863637  1
  O  O64  1  0.52234097  0.65266567  0.57924774  1
  O  O65  1  0.15766141  0.48515759  0.58144324  1
  O  O66  1  0.29575306  0.81564811  0.25499860  1
  O  O67  1  0.52247540  0.69349651  0.25535043  1
  O  O68  1  0.15688000  0.47005962  0.25491323  1
  O  O69  1  0.30650349  0.47752460  0.75535043  1
  O  O70  1  0.18435189  0.70424694  0.75499860  1
  O  O71  1  0.52994038  0.84312000  0.75491323  1
loop_
_geom_bond_atom_site_label_1
_geom_bond_atom_site_label_2
_geom_bond_distance
_geom_bond_site_symmetry_2
Na0 O53 2.314194 1_555
Na0 O16 2.321523 1_555
Na0 O67 2.501307 1_545
Na0 O52 2.608031 1_555
Na0 O66 2.669860 1_545
Na0 O9 2.933385 1_545
Na0 O31 2.965725 1_545
Na1 O51 2.408140 1_555
Na1 O66 2.411775 1_655
Na1 O15 2.541350 1_555
Na1 O52 2.595307 1_555
Na1 O68 2.699629 1_655
Na1 O11 2.855464 1_655
Na1 O30 2.896144 1_655
Na1 O1 2.950048 1_555
Na2 O50 2.314194 1_555
Na2 O12 2.321523 1_555
Na2 O69 2.501307 1_655
Na2 O48 2.608031 1_555
Na2 O70 2.669860 1_655
Na2 O7 2.933385 1_655
Na2 O33 2.965725 1_655
Na3 O49 2.408140 1_555
Na3 O70 2.411775 1_545
Na3 O13 2.541350 1_555
Na3 O48 2.595307 1_555
Na3 O71 2.699629 1_545
Na3 O8 2.855464 1_545
Na3 O34 2.896144 1_545
Na3 O3 2.950048 1_555
Na4 O65 2.314211 1_555
Na4 O28 2.321507 1_555
Na4 O43 2.501307 1_555
Na4 O64 2.608037 1_555
Na4 O42 2.669860 1_455
Na4 O21 2.933385 1_555
Na4 O7 2.965725 1_555
Na5 O63 2.408150 1_555
Na5 O42 2.411775 1_565
Na5 O27 2.541329 1_555
Na5 O64 2.595298 1_555
Na5 O44 2.699629 1_555
Na5 O23 2.855464 1_565
Na5 O6 2.896144 1_555
Na5 O13 2.950048 1_565
Na6 O62 2.314211 1_555
Na6 O24 2.321507 1_554
Na6 O45 2.501307 1_555
Na6 O60 2.608037 1_555
Na6 O46 2.669860 1_565
Na6 O19 2.933385 1_555
Na6 O9 2.965725 1_555
Na7 O61 2.408150 1_555
Na7 O46 2.411775 1_455
Na7 O25 2.541329 1_554
Na7 O60 2.595298 1_555
Na7 O47 2.699629 1_555
Na7 O20 2.855464 1_455
Na7 O10 2.896144 1_555
Na7 O15 2.950048 1_455
Na8 O41 2.314194 1_555
Na8 O4 2.321523 1_555
Na8 O55 2.501314 1_555
Na8 O40 2.608031 1_655
Na8 O54 2.669850 1_555
Na8 O33 2.933385 1_655
Na8 O19 2.965705 1_556
Na9 O39 2.408140 1_555
Na9 O54 2.411779 1_555
Na9 O3 2.541350 1_555
Na9 O40 2.595307 1_545
Na9 O56 2.699642 1_555
Na9 O35 2.855464 1_555
Na9 O18 2.896128 1_556
Na9 O25 2.950048 1_555
Na10 O38 2.314194 1_555
Na10 O0 2.321523 1_555
Na10 O57 2.501314 1_555
Na10 O36 2.608031 1_545
Na10 O58 2.669850 1_555
Na10 O31 2.933385 1_545
Na10 O21 2.965705 1_555
Na11 O37 2.408140 1_555
Na11 O58 2.411779 1_555
Na11 O1 2.541350 1_555
Na11 O36 2.595307 1_655
Na11 O59 2.699642 1_555
Na11 O32 2.855464 1_555
Na11 O22 2.896128 1_555
Na11 O27 2.950048 1_555
Na12 O38 2.341943 1_555
Na12 O37 2.436458 1_445
Na12 O42 2.515363 1_455
Na12 O43 2.757615 1_555
Na12 O36 2.780349 1_545
Na12 O44 2.874483 1_445
Na13 O41 2.341943 1_555
Na13 O39 2.436458 1_665
Na13 O46 2.515363 1_566
Na13 O45 2.757615 1_556
Na13 O40 2.780349 1_655
Na13 O47 2.874483 1_666
Na14 O50 2.341943 1_555
Na14 O49 2.436458 1_555
Na14 O54 2.515363 1_555
Na14 O55 2.757615 1_555
Na14 O48 2.780349 1_555
Na14 O56 2.874483 1_555
Na15 O53 2.341943 1_555
Na15 O51 2.436458 1_555
Na15 O58 2.515363 1_555
Na15 O57 2.757615 1_555
Na15 O52 2.780349 1_555
Na15 O59 2.874483 1_555
Na16 O62 2.341943 1_555
Na16 O61 2.436458 1_555
Na16 O66 2.515363 1_555
Na16 O67 2.757615 1_555
Na16 O60 2.780349 1_555
Na16 O68 2.874483 1_555
Na17 O65 2.341943 1_555
Na17 O63 2.436458 1_555
Na17 O70 2.515363 1_555
Na17 O69 2.757615 1_555
Na17 O64 2.780349 1_555
Na17 O71 2.874483 1_555
Hf0 O7 1.977479 1_555
Hf0 O8 1.996335 1_545
Hf0 O43 1.998929 1_555
Hf0 O42 2.125655 1_455
Hf0 O44 2.243278 1_445
Hf0 O6 2.315026 1_445
Hf1 O9 1.977480 1_555
Hf1 O11 1.996335 1_655
Hf1 O45 1.998929 1_555
Hf1 O46 2.125655 1_565
Hf1 O47 2.243278 1_665
Hf1 O10 2.315026 1_665
Hf2 O19 1.977479 1_556
Hf2 O20 1.996335 1_556
Hf2 O55 1.998929 1_555
Hf2 O54 2.125655 1_555
Hf2 O56 2.243278 1_555
Hf2 O18 2.315026 1_556
Hf3 O21 1.977480 1_555
Hf3 O23 1.996335 1_555
Hf3 O57 1.998929 1_555
Hf3 O58 2.125655 1_555
Hf3 O59 2.243278 1_555
Hf3 O22 2.315026 1_555
Hf4 O31 1.977479 1_555
Hf4 O32 1.996335 1_555
Hf4 O67 1.998929 1_555
Hf4 O66 2.125655 1_555
Hf4 O68 2.243278 1_555
Hf4 O30 2.315026 1_555
Hf5 O33 1.977480 1_555
Hf5 O35 1.996335 1_555
Hf5 O69 1.998929 1_555
Hf5 O70 2.125655 1_555
Hf5 O71 2.243278 1_555
Hf5 O34 2.315026 1_555
In0 O0 2.083891 1_555
In0 O1 2.111113 1_445
In0 O37 2.140598 1_445
In0 O38 2.149496 1_555
In0 O2 2.164242 1_455
In0 O36 2.340846 1_545
In1 O4 2.083890 1_555
In1 O3 2.111113 1_665
In1 O39 2.140598 1_665
In1 O41 2.149496 1_555
In1 O5 2.164242 1_565
In1 O40 2.340846 1_655
In2 O12 2.083891 1_555
In2 O13 2.111113 1_555
In2 O49 2.140598 1_555
In2 O50 2.149496 1_555
In2 O14 2.164242 1_555
In2 O48 2.340846 1_555
In3 O16 2.083890 1_555
In3 O15 2.111113 1_555
In3 O51 2.140598 1_555
In3 O53 2.149496 1_555
In3 O17 2.164242 1_555
In3 O52 2.340846 1_555
In4 O24 2.083891 1_554
In4 O25 2.111113 1_554
In4 O61 2.140598 1_555
In4 O62 2.149496 1_555
In4 O26 2.164242 1_554
In4 O60 2.340846 1_555
In5 O28 2.083890 1_555
In5 O27 2.111113 1_555
In5 O63 2.140598 1_555
In5 O65 2.149496 1_555
In5 O29 2.164242 1_555
In5 O64 2.340846 1_555
O0 Si0 1.625934 1_545
O1 Si1 1.627351 1_555
O2 S0 1.472463 1_655
O3 Si2 1.627351 1_555
O4 Si3 1.625934 1_655
O5 S1 1.472463 1_545
O6 S1 1.492534 1_555
O7 Si2 1.665521 1_555
O8 Si3 1.654515 1_555
O9 Si1 1.665521 1_555
O10 S0 1.492534 1_555
O11 Si0 1.654515 1_555
O12 Si4 1.625934 1_555
O13 Si5 1.627351 1_555
O14 S2 1.472463 1_555
O15 Si6 1.627351 1_555
O16 Si7 1.625934 1_555
O17 S3 1.472463 1_555
O18 S3 1.492534 1_555
O19 Si6 1.665521 1_555
O20 Si7 1.654515 1_555
O21 Si5 1.665521 1_555
O22 S2 1.492534 1_555
O23 Si4 1.654515 1_555
O24 Si8 1.625934 1_555
O25 Si9 1.627351 1_555
O26 S4 1.472463 1_555
O27 Si10 1.627351 1_555
O28 Si11 1.625934 1_555
O29 S5 1.472463 1_555
O30 S5 1.492534 1_555
O31 Si10 1.665521 1_555
O32 Si11 1.654515 1_555
O33 Si9 1.665521 1_555
O34 S4 1.492534 1_555
O35 Si8 1.654515 1_555
O36 S5 1.480420 1_555
O37 Si10 1.627988 1_555
O38 Si11 1.637867 1_555
O39 Si9 1.627988 1_555
O40 S4 1.480420 1_555
O41 Si8 1.637868 1_555
O42 Si4 1.678273 1_555
O43 Si5 1.658518 1_555
O44 S2 1.493833 1_555
O45 Si6 1.658518 1_555
O46 Si7 1.678274 1_555
O47 S3 1.493833 1_555
O48 S1 1.480420 1_545
O49 Si2 1.627988 1_555
O50 Si3 1.637867 1_655
O51 Si1 1.627988 1_555
O52 S0 1.480420 1_655
O53 Si0 1.637868 1_545
O54 Si8 1.678287 1_555
O55 Si9 1.658503 1_655
O56 S4 1.493829 1_545
O57 Si10 1.658503 1_545
O58 Si11 1.678287 1_555
O59 S5 1.493829 1_655
O60 S3 1.480433 1_555
O61 Si6 1.627973 1_455
O62 Si7 1.637863 1_565
O63 Si5 1.627973 1_565
O64 S2 1.480433 1_555
O65 Si4 1.637863 1_455
O66 Si0 1.678273 1_555
O67 Si1 1.658518 1_555
O68 S0 1.493833 1_555
O69 Si2 1.658518 1_555
O70 Si3 1.678274 1_555
O71 S1 1.493833 1_555
