# generated using pymatgen
data_Ba2In2O5
_symmetry_space_group_name_H-M   'P 1'
_cell_length_a   9.43779893
_cell_length_b   9.43779893
_cell_length_c   9.43779893
_cell_angle_alpha   142.93168864
_cell_angle_beta   141.96883068
_cell_angle_gamma   54.15509656
_symmetry_Int_Tables_number   1
_chemical_formula_structural   Ba2In2O5
_chemical_formula_sum   'Ba4 In4 O10'
_cell_volume   310.08967785
_cell_formula_units_Z   2
loop_
 _symmetry_equiv_pos_site_id
 _symmetry_equiv_pos_as_xyz
  1  'x, y, z'
loop_
 _atom_site_type_symbol
 _atom_site_label
 _atom_site_symmetry_multiplicity
 _atom_site_fract_x
 _atom_site_fract_y
 _atom_site_fract_z
 _atom_site_occupancy
  Ba  Ba0  1  0.62382089  0.08899964  0.49450303  1
  Ba  Ba1  1  0.37617911  0.87068214  0.46517875  1
  Ba  Ba2  1  0.09449661  0.58899964  0.46517875  1
  Ba  Ba3  1  0.90550339  0.37068214  0.49450303  1
  In  In0  1  0.31325186  0.25581634  0.06906820  1
  In  In1  1  0.68674814  0.75581634  0.94256448  1
  In  In2  1  0.50000000  0.47506997  0.97506997  1
  In  In3  1  -0.00000000  0.97506997  0.97506997  1
  O  O0  1  0.38370639  0.59753371  0.48124009  1
  O  O1  1  0.61629361  0.09753371  0.21382732  1
  O  O2  1  0.68831787  0.59091417  0.00506339  1
  O  O3  1  0.31168213  0.31674653  0.90259730  1
  O  O4  1  0.08585078  0.09091417  0.90259730  1
  O  O5  1  0.91414922  0.81674653  0.00506339  1
  O  O6  1  0.74649928  0.22107341  0.98296437  1
  O  O7  1  0.25350072  0.23646410  0.47457313  1
  O  O8  1  0.26189196  0.73646410  0.98296437  1
  O  O9  1  0.73810804  0.72107341  0.47457313  1
loop_
_geom_bond_atom_site_label_1
_geom_bond_atom_site_label_2
_geom_bond_distance
_geom_bond_site_symmetry_2
Ba0 O1 2.658166 1_555
Ba0 O4 2.715235 1_655
Ba0 O8 2.782683 1_544
Ba0 O7 2.805836 1_555
Ba0 O9 2.854328 1_545
Ba0 O6 2.873673 1_555
Ba0 O2 2.891156 1_556
Ba0 O2 3.198682 1_545
Ba1 O0 2.658166 1_555
Ba1 O5 2.715235 1_455
Ba1 O9 2.782680 1_555
Ba1 O6 2.805839 1_565
Ba1 O8 2.854331 1_554
Ba1 O7 2.873670 1_565
Ba1 O3 2.891162 1_565
Ba1 O3 3.198676 1_554
Ba2 O0 2.658166 1_555
Ba2 O2 2.715234 1_455
Ba2 O7 2.782686 1_555
Ba2 O8 2.805839 1_555
Ba2 O6 2.854331 1_454
Ba2 O9 2.873676 1_455
Ba2 O4 2.891157 1_565
Ba2 O4 3.198678 1_554
Ba3 O1 2.658166 1_555
Ba3 O3 2.715234 1_655
Ba3 O6 2.782683 1_554
Ba3 O9 2.805842 1_555
Ba3 O7 2.854334 1_655
Ba3 O8 2.873673 1_655
Ba3 O5 2.891157 1_556
Ba3 O5 3.198678 1_545
In0 O3 2.048036 1_554
In0 O4 2.048043 1_554
In0 O1 2.091767 1_555
In0 O0 2.095586 1_555
In1 O2 2.048037 1_556
In1 O5 2.048043 1_556
In1 O0 2.091767 1_555
In1 O1 2.095586 1_566
In2 O8 2.149211 1_555
In2 O9 2.149215 1_556
In2 O6 2.155145 1_555
In2 O7 2.155149 1_555
In2 O3 2.328867 1_555
In2 O2 2.328867 1_556
In3 O7 2.149215 1_566
In3 O6 2.149219 1_465
In3 O9 2.155149 1_455
In3 O8 2.155153 1_555
In3 O5 2.328858 1_456
In3 O4 2.328858 1_565
