# generated using pymatgen
data_Na14Ca5Ti3Si6(SO8)6
_symmetry_space_group_name_H-M   'P 1'
_cell_length_a   18.77303004
_cell_length_b   9.35085150
_cell_length_c   22.49072867
_cell_angle_alpha   90.15137093
_cell_angle_beta   89.70590373
_cell_angle_gamma   119.96173550
_symmetry_Int_Tables_number   1
_chemical_formula_structural   Na14Ca5Ti3Si6(SO8)6
_chemical_formula_sum   'Na42 Ca15 Ti9 Si18 S18 O144'
_cell_volume   3420.43463537
_cell_formula_units_Z   3
loop_
 _symmetry_equiv_pos_site_id
 _symmetry_equiv_pos_as_xyz
  1  'x, y, z'
loop_
 _atom_site_type_symbol
 _atom_site_label
 _atom_site_symmetry_multiplicity
 _atom_site_fract_x
 _atom_site_fract_y
 _atom_site_fract_z
 _atom_site_occupancy
  Na  Na0  1  0.19168134  0.34964203  0.24618000  1
  Na  Na1  1  0.68810149  0.34751702  0.23888448  1
  Na  Na2  1  0.99457075  0.64171853  0.25779527  1
  Na  Na3  1  0.49444853  0.63870226  0.24041064  1
  Na  Na4  1  0.32105726  0.64146286  0.75165334  1
  Na  Na5  1  0.81808971  0.63545202  0.73343473  1
  Na  Na6  1  0.18533692  0.03595414  0.74196763  1
  Na  Na7  1  0.68752939  0.03217164  0.74290960  1
  Na  Na8  1  0.15580804  0.32134285  0.57195942  1
  Na  Na9  1  0.67495572  0.35906285  0.57266817  1
  Na  Na10  1  0.00471680  0.70105653  0.58310574  1
  Na  Na11  1  0.51023846  0.69915686  0.58656435  1
  Na  Na12  1  0.32224027  0.97845710  0.60067176  1
  Na  Na13  1  0.82229191  0.96962005  0.59891810  1
  Na  Na14  1  0.15995350  0.98202807  0.07159082  1
  Na  Na15  1  0.64754241  0.96641355  0.06410830  1
  Na  Na16  1  0.81483724  0.65394996  0.09602285  1
  Na  Na17  1  0.01448202  0.32236594  0.08173112  1
  Na  Na18  1  0.51506015  0.34564231  0.09291002  1
  Na  Na19  1  0.49401791  0.67602864  0.92113779  1
  Na  Na20  1  0.99789221  0.68694306  0.91486644  1
  Na  Na21  1  0.84413738  0.03320695  0.90610917  1
  Na  Na22  1  0.16703460  0.28416938  0.90254813  1
  Na  Na23  1  0.66076476  0.27198828  0.91270644  1
  Na  Na24  1  0.49571722  0.31197346  0.41601717  1
  Na  Na25  1  0.98916654  0.30044550  0.42029752  1
  Na  Na26  1  0.16150954  0.05261151  0.41231922  1
  Na  Na27  1  0.66429271  0.05490387  0.41108165  1
  Na  Na28  1  0.34847665  0.65323866  0.40411983  1
  Na  Na29  1  0.84931075  0.66032525  0.41374703  1
  Na  Na30  1  0.00792766  -0.00120804  0.50490339  1
  Na  Na31  1  0.52476871  0.03117698  0.50058529  1
  Na  Na32  1  0.01247374  0.00667446  0.99821440  1
  Na  Na33  1  0.50031264  0.00052515  0.00342955  1
  Na  Na34  1  0.33800654  0.28631499  0.83640062  1
  Na  Na35  1  0.82598403  0.31167345  0.82522968  1
  Na  Na36  1  0.32287635  0.32233359  0.32422104  1
  Na  Na37  1  0.81467079  0.31550407  0.32639630  1
  Na  Na38  1  0.18962872  0.67381240  0.16349602  1
  Na  Na39  1  0.65643580  0.66263622  0.16142683  1
  Na  Na40  1  0.15444844  0.66206087  0.66734277  1
  Na  Na41  1  0.66780108  0.67058496  0.66202372  1
  Ca  Ca0  1  0.00117926  0.00301967  0.34626391  1
  Ca  Ca1  1  0.50246865  0.00400139  0.34434071  1
  Ca  Ca2  1  0.00405368  0.00990031  0.84481968  1
  Ca  Ca3  1  0.49902359  0.00369067  0.85162612  1
  Ca  Ca4  1  0.33239311  0.32899321  0.68454369  1
  Ca  Ca5  1  0.83133069  0.33047352  0.68225528  1
  Ca  Ca6  1  0.33129566  0.33178458  0.18287253  1
  Ca  Ca7  1  0.82963172  0.32026666  0.18196594  1
  Ca  Ca8  1  0.81750027  0.31039523  0.98274116  1
  Ca  Ca9  1  0.31896862  0.32147266  0.48222978  1
  Ca  Ca10  1  0.82179468  0.34212223  0.48666318  1
  Ca  Ca11  1  0.17064779  0.66412361  0.01557991  1
  Ca  Ca12  1  0.66431826  0.66004762  0.01495772  1
  Ca  Ca13  1  0.16648625  0.67002596  0.51602963  1
  Ca  Ca14  1  0.66946505  0.67366717  0.51723321  1
  Ti  Ti0  1  0.00027007  0.01687220  0.65380528  1
  Ti  Ti1  1  0.50813761  0.03418659  0.65912467  1
  Ti  Ti2  1  0.00813642  0.98647721  0.15756955  1
  Ti  Ti3  1  0.50516353  0.95630522  0.15116038  1
  Ti  Ti4  1  0.31835085  0.32299379  0.98962794  1
  Ti  Ti5  1  0.18098483  0.67291320  0.30830695  1
  Ti  Ti6  1  0.67938803  0.66610974  0.30603532  1
  Ti  Ti7  1  0.17704468  0.69207488  0.80889489  1
  Ti  Ti8  1  0.67443539  0.68565457  0.80803473  1
  Si  Si0  1  0.15299626  0.98307332  0.25748457  1
  Si  Si1  1  0.65133464  0.98053284  0.25481752  1
  Si  Si2  1  0.35363510  0.70676654  0.25405778  1
  Si  Si3  1  0.85301874  0.70140673  0.25353345  1
  Si  Si4  1  0.14820846  0.31729683  0.75212470  1
  Si  Si5  1  0.65100147  0.31608697  0.75968208  1
  Si  Si6  1  0.35085625  -0.00109875  0.75142246  1
  Si  Si7  1  0.85106702  0.00235244  0.75612181  1
  Si  Si8  1  0.17226019  0.01948626  0.58620196  1
  Si  Si9  1  0.66901036  0.02378741  0.58668567  1
  Si  Si10  1  0.84147392  0.66253485  0.58602341  1
  Si  Si11  1  0.47642370  0.62352730  0.08280792  1
  Si  Si12  1  0.17407990  0.31965895  0.09096852  1
  Si  Si13  1  0.66990332  0.31550765  0.08757957  1
  Si  Si14  1  0.17117106  0.96802712  0.92032956  1
  Si  Si15  1  0.66860746  0.96365397  0.91466410  1
  Si  Si16  1  0.16685173  0.37476039  0.41530631  1
  Si  Si17  1  0.66686871  0.37419290  0.41479362  1
  S  S0  1  0.01054051  0.30798299  0.24681530  1
  S  S1  1  0.50668617  0.31508897  0.25352052  1
  S  S2  1  0.00807376  0.70875418  0.75238921  1
  S  S3  1  0.50791673  0.71374098  0.74972949  1
  S  S4  1  0.48468896  0.32143042  0.58182644  1
  S  S5  1  0.98587335  0.32469044  0.58213163  1
  S  S6  1  0.34066608  0.65509286  0.58359247  1
  S  S7  1  0.98583908  0.64591311  0.08530713  1
  S  S8  1  0.33621655  0.04449620  0.08017124  1
  S  S9  1  0.84499872  0.02716279  0.08115412  1
  S  S10  1  0.31272612  0.64715041  0.91309744  1
  S  S11  1  0.81496346  0.66175436  0.91379337  1
  S  S12  1  0.01857855  0.37883810  0.91748474  1
  S  S13  1  0.51338056  0.37481496  0.91660609  1
  S  S14  1  0.31213815  0.96427840  0.41298639  1
  S  S15  1  0.81141026  0.96684075  0.41179588  1
  S  S16  1  0.01630578  0.65844440  0.41359876  1
  S  S17  1  0.51561007  0.66043515  0.41634616  1
  O  O0  1  0.11167347  0.00837011  0.31599206  1
  O  O1  1  0.61333066  0.01252967  0.31380998  1
  O  O2  1  0.39416499  0.77968487  0.31694942  1
  O  O3  1  0.89633504  0.77518982  0.31563519  1
  O  O4  1  0.50156024  0.23394810  0.31103765  1
  O  O5  1  0.99643274  0.22208521  0.30451072  1
  O  O6  1  0.11970725  0.20421691  0.81081741  1
  O  O7  1  0.61474596  0.20172646  0.81680507  1
  O  O8  1  0.49800186  0.77392375  0.80836925  1
  O  O9  1  0.99573335  0.76920516  0.81013103  1
  O  O10  1  0.39322811  0.97733533  0.80817390  1
  O  O11  1  0.89085866  0.00095277  0.81811567  1
  O  O12  1  0.39993951  0.98075004  0.69032191  1
  O  O13  1  0.90447259  0.98043552  0.69982505  1
  O  O14  1  0.08114903  0.20200369  0.69760843  1
  O  O15  1  0.58357878  0.20111869  0.70203602  1
  O  O16  1  0.01630583  0.82449693  0.70309587  1
  O  O17  1  0.51525199  0.83252646  0.70134418  1
  O  O18  1  0.41015536  0.83506675  0.19884696  1
  O  O19  1  0.91026727  0.83193799  0.19654160  1
  O  O20  1  0.01434265  0.20208276  0.19696930  1
  O  O21  1  0.51085094  0.21961193  0.20240159  1
  O  O22  1  0.08285238  0.96666606  0.20018522  1
  O  O23  1  0.58297701  0.94483798  0.19659157  1
  O  O24  1  0.43999208  0.34590111  0.63099521  1
  O  O25  1  0.94109923  0.34332366  0.63178070  1
  O  O26  1  0.24083434  0.10885559  0.63779181  1
  O  O27  1  0.73260839  0.10680878  0.64106627  1
  O  O28  1  0.33777880  0.56005204  0.63677750  1
  O  O29  1  0.83121439  0.54203573  0.64074528  1
  O  O30  1  0.44810515  0.52026061  0.14335672  1
  O  O31  1  0.94425671  0.54281587  0.13739390  1
  O  O32  1  0.32823499  0.11409155  0.13618554  1
  O  O33  1  0.83905039  0.12031222  0.13155810  1
  O  O34  1  0.22284254  0.33694365  0.14998960  1
  O  O35  1  0.73591280  0.35740901  0.14047543  1
  O  O36  1  0.22988450  0.29895559  0.03183831  1
  O  O37  1  0.70088622  0.26827454  0.02565478  1
  O  O38  1  0.40846367  0.50922285  0.02678273  1
  O  O39  1  0.93933040  0.56807968  0.02995585  1
  O  O40  1  0.33432531  0.15015010  0.02906836  1
  O  O41  1  0.85341349  0.11868212  0.02486980  1
  O  O42  1  0.20303563  0.12198538  0.52291508  1
  O  O43  1  0.69977696  0.13579830  0.52577560  1
  O  O44  1  0.34496211  0.56817946  0.52921706  1
  O  O45  1  0.86239009  0.59590218  0.52415928  1
  O  O46  1  0.44056269  0.30117134  0.52477221  1
  O  O47  1  0.94395614  0.31202024  0.52475795  1
  O  O48  1  0.27306455  0.66673461  0.96588219  1
  O  O49  1  0.77698889  0.66778812  0.97087072  1
  O  O50  1  0.05557496  0.44362965  0.97665309  1
  O  O51  1  0.55332460  0.44344260  0.97456061  1
  O  O52  1  0.15609063  0.86376726  0.98034320  1
  O  O53  1  0.67810989  0.88351056  0.97516255  1
  O  O54  1  0.27443733  0.88347633  0.47022031  1
  O  O55  1  0.77363282  0.88811357  0.46913946  1
  O  O56  1  0.16822183  0.45955245  0.47820507  1
  O  O57  1  0.66353337  0.45759304  0.47674022  1
  O  O58  1  0.06060358  0.66765218  0.46915650  1
  O  O59  1  0.55758103  0.66796552  0.47285813  1
  O  O60  1  0.06472553  0.66123361  0.36046567  1
  O  O61  1  0.56417948  0.65971646  0.36423708  1
  O  O62  1  0.25825364  0.86041861  0.36246254  1
  O  O63  1  0.75944871  0.86218283  0.36120707  1
  O  O64  1  0.16983538  0.50679320  0.35897356  1
  O  O65  1  0.66997365  0.50438702  0.35803654  1
  O  O66  1  0.07321977  0.48857442  0.86963282  1
  O  O67  1  0.56495074  0.48349156  0.86706395  1
  O  O68  1  0.17944560  0.85512585  0.86175667  1
  O  O69  1  0.66932099  0.83804731  0.85748230  1
  O  O70  1  0.26599388  0.64109094  0.85782083  1
  O  O71  1  0.76327361  0.65990131  0.86259222  1
  O  O72  1  0.00262523  0.80263167  0.41488082  1
  O  O73  1  0.50200265  0.80493112  0.41640230  1
  O  O74  1  0.39522300  0.98580646  0.41010247  1
  O  O75  1  0.89526010  0.98789463  0.41011150  1
  O  O76  1  0.08155097  0.19639757  0.41420770  1
  O  O77  1  0.58321916  0.19285281  0.41337937  1
  O  O78  1  0.00622681  0.20860176  0.91363398  1
  O  O79  1  0.50189561  0.20676740  0.91300127  1
  O  O80  1  0.09016464  0.98991250  0.91348400  1
  O  O81  1  0.58262054  0.96764971  0.91795253  1
  O  O82  1  0.39969979  0.77703507  0.91097485  1
  O  O83  1  0.89954529  0.80641326  0.91229835  1
  O  O84  1  0.48742081  0.16339466  0.59018415  1
  O  O85  1  0.98857857  0.16606927  0.58760276  1
  O  O86  1  0.08449337  0.02141516  0.60124362  1
  O  O87  1  0.57684285  0.01680252  0.60191944  1
  O  O88  1  0.41586760  0.82162563  0.58422119  1
  O  O89  1  0.92576632  0.84844221  0.59897027  1
  O  O90  1  0.48103658  0.80938869  0.08805678  1
  O  O91  1  0.98799693  0.81068147  0.09054710  1
  O  O92  1  0.41538138  0.04680259  0.07522918  1
  O  O93  1  0.92158995  0.01437586  0.08615979  1
  O  O94  1  0.08450006  0.13597728  0.09156205  1
  O  O95  1  0.57749401  0.14407274  0.10340250  1
  O  O96  1  0.33046084  0.14661225  0.75046690  1
  O  O97  1  0.82903785  0.14610550  0.74920828  1
  O  O98  1  0.24176078  0.36214097  0.73737554  1
  O  O99  1  0.74288735  0.34994949  0.74709600  1
  O  O100  1  0.43777991  0.55144462  0.73874814  1
  O  O101  1  0.94077137  0.54219482  0.74238143  1
  O  O102  1  0.33801243  0.52154758  0.24819260  1
  O  O103  1  0.84292672  0.52076817  0.24497010  1
  O  O104  1  0.43856438  0.34950965  0.25057599  1
  O  O105  1  0.94653807  0.34986398  0.23681836  1
  O  O106  1  0.24150905  0.13886875  0.24658611  1
  O  O107  1  0.73982709  0.13996543  0.24321956  1
  O  O108  1  0.30951687  0.48115400  0.91619099  1
  O  O109  1  0.81990395  0.50745966  0.91038989  1
  O  O110  1  0.43236945  0.37185774  0.91498278  1
  O  O111  1  0.93731089  0.37234846  0.91362992  1
  O  O112  1  0.25508568  0.15885899  0.92576339  1
  O  O113  1  0.75102721  0.14437058  0.90365871  1
  O  O114  1  0.31665948  0.12751888  0.40897971  1
  O  O115  1  0.81744672  0.13134042  0.40786815  1
  O  O116  1  0.24977831  0.36085217  0.40477184  1
  O  O117  1  0.75101574  0.36454813  0.40601164  1
  O  O118  1  0.43365631  0.50320261  0.41486054  1
  O  O119  1  0.93602975  0.50028853  0.41186200  1
  O  O120  1  0.15353469  0.46626691  0.08095896  1
  O  O121  1  0.65757876  0.47695230  0.08479554  1
  O  O122  1  0.07142312  0.67825277  0.08365188  1
  O  O123  1  0.57125874  0.67271984  0.07195095  1
  O  O124  1  0.26461774  0.87504224  0.07575462  1
  O  O125  1  0.77177031  0.85788575  0.08140547  1
  O  O126  1  0.15025870  0.82586911  0.58556187  1
  O  O127  1  0.64704051  0.83194530  0.58312141  1
  O  O128  1  0.26577337  0.67339080  0.58412562  1
  O  O129  1  0.76056353  0.68630082  0.58570650  1
  O  O130  1  0.07217004  0.46428760  0.58299164  1
  O  O131  1  0.56995493  0.46093355  0.58151360  1
  O  O132  1  0.14649408  0.79806914  0.25645926  1
  O  O133  1  0.65055970  0.80161356  0.25786425  1
  O  O134  1  0.25797598  0.69034512  0.25497456  1
  O  O135  1  0.75801373  0.68208470  0.25283051  1
  O  O136  1  0.09322211  0.46366071  0.24660772  1
  O  O137  1  0.58792050  0.48019918  0.25154951  1
  O  O138  1  0.15141853  0.50000948  0.76230037  1
  O  O139  1  0.65260509  0.49559926  0.76149794  1
  O  O140  1  0.09022942  0.71357945  0.75303911  1
  O  O141  1  0.58781993  0.71055691  0.74773289  1
  O  O142  1  0.25418435  0.81881826  0.75284049  1
  O  O143  1  0.75632011  0.81790494  0.75536751  1
loop_
_geom_bond_atom_site_label_1
_geom_bond_atom_site_label_2
_geom_bond_distance
_geom_bond_site_symmetry_2
Na0 O34 2.256460 1_555
Na0 O102 2.392195 1_555
Na0 O136 2.553720 1_555
Na0 O106 2.569289 1_555
Na0 O134 2.788651 1_555
Na1 O35 2.368669 1_555
Na1 O103 2.528020 1_555
Na1 O107 2.569720 1_555
Na1 O137 2.735103 1_555
Na1 O135 2.739738 1_555
Na2 O105 2.454209 1_555
Na2 O132 2.471247 1_655
Na2 O103 2.501484 1_555
Na2 O60 2.624665 1_655
Na2 O31 2.867188 1_555
Na3 O104 2.373324 1_555
Na3 O30 2.406758 1_555
Na3 O133 2.571563 1_555
Na3 O102 2.576363 1_555
Na3 O23 2.678438 1_555
Na3 O137 2.818316 1_555
Na4 O98 2.293027 1_555
Na4 O142 2.531035 1_555
Na4 O70 2.596380 1_555
Na4 O100 2.725586 1_555
Na4 O28 2.751952 1_555
Na4 O138 2.781216 1_555
Na5 O29 2.317242 1_555
Na5 O99 2.334524 1_555
Na5 O143 2.542544 1_555
Na5 O139 2.772373 1_555
Na5 O101 2.849031 1_555
Na5 O13 2.895271 1_555
Na6 O96 2.391268 1_555
Na6 O26 2.512717 1_555
Na6 O140 2.638247 1_545
Na6 O98 2.685028 1_555
Na6 O6 2.880140 1_555
Na6 O142 2.912030 1_545
Na6 O16 2.914719 1_545
Na7 O97 2.321300 1_555
Na7 O27 2.418346 1_555
Na7 O99 2.614128 1_555
Na7 O141 2.633757 1_545
Na8 O56 2.424723 1_555
Na8 O86 2.518356 1_555
Na8 O130 2.530633 1_555
Na8 O42 2.666052 1_555
Na8 O85 2.743388 1_455
Na8 O128 2.895951 1_555
Na9 O57 2.400458 1_555
Na9 O43 2.577395 1_555
Na9 O131 2.589025 1_555
Na9 O129 2.668373 1_555
Na9 O87 2.859853 1_555
Na9 O29 2.982590 1_555
Na10 O126 2.376238 1_555
Na10 O89 2.501140 1_455
Na10 O86 2.627118 1_565
Na10 O45 2.696072 1_455
Na10 O58 2.839325 1_555
Na10 O16 2.898484 1_555
Na11 O127 2.226353 1_555
Na11 O87 2.606628 1_565
Na11 O59 2.765246 1_555
Na12 O12 2.488433 1_555
Na12 O26 2.522316 1_565
Na12 O128 2.525409 1_555
Na12 O84 2.701915 1_565
Na12 O88 2.818163 1_555
Na12 O126 2.825355 1_555
Na13 O129 2.320067 1_555
Na13 O89 2.693689 1_555
Na13 O13 2.723928 1_555
Na13 O85 2.729603 1_565
Na13 O27 2.741053 1_565
Na13 O127 2.895976 1_555
Na13 O55 3.042207 1_555
Na14 O52 2.312835 1_554
Na14 O122 2.487667 1_555
Na14 O94 2.511439 1_565
Na14 O124 2.614586 1_555
Na14 O36 2.724203 1_565
Na14 O91 2.827201 1_455
Na15 O53 2.314396 1_554
Na15 O123 2.386560 1_555
Na15 O37 2.626558 1_565
Na15 O95 2.726258 1_565
Na15 O90 2.760312 1_555
Na15 O125 2.999240 1_555
Na16 O125 2.438100 1_555
Na16 O121 2.577515 1_555
Na16 O35 2.603761 1_555
Na16 O91 2.822853 1_555
Na16 O19 2.852007 1_555
Na16 O49 2.925538 1_554
Na16 O93 2.945719 1_565
Na17 O120 2.261957 1_555
Na17 O93 2.515646 1_455
Na17 O50 2.566651 1_554
Na17 O94 2.666019 1_555
Na17 O20 2.827515 1_555
Na17 O122 2.943738 1_555
Na17 O41 2.946265 1_455
Na18 O121 2.326823 1_555
Na18 O92 2.499443 1_555
Na18 O95 2.682145 1_555
Na18 O21 2.716530 1_555
Na18 O123 2.732934 1_555
Na18 O30 2.749347 1_555
Na18 O51 2.788261 1_554
Na19 O81 2.382673 1_555
Na19 O82 2.398998 1_555
Na19 O110 2.481935 1_555
Na19 O8 2.686641 1_555
Na19 O38 2.852394 1_556
Na20 O80 2.475025 1_655
Na20 O9 2.486719 1_555
Na20 O111 2.570238 1_555
Na20 O83 2.592619 1_555
Na20 O39 2.812388 1_556
Na20 O109 2.897042 1_555
Na20 O52 2.974860 1_655
Na20 O66 3.011769 1_655
Na21 O11 2.240562 1_555
Na21 O113 2.440299 1_555
Na21 O78 2.645144 1_655
Na21 O111 2.757652 1_555
Na21 O41 2.767297 1_556
Na21 O83 2.793774 1_545
Na22 O6 2.225279 1_555
Na22 O108 2.392882 1_555
Na22 O80 2.397463 1_545
Na22 O112 2.514906 1_555
Na22 O78 2.745436 1_555
Na23 O7 2.296712 1_555
Na23 O81 2.468751 1_545
Na23 O113 2.520263 1_555
Na23 O37 2.658539 1_556
Na23 O109 2.684159 1_555
Na23 O79 2.729476 1_555
Na24 O77 2.401856 1_555
Na24 O4 2.487401 1_555
Na24 O118 2.576246 1_555
Na24 O46 2.633620 1_555
Na24 O74 2.670608 1_545
Na24 O114 2.917578 1_555
Na25 O76 2.378148 1_655
Na25 O47 2.514289 1_555
Na25 O119 2.527625 1_555
Na25 O75 2.560524 1_545
Na25 O5 2.724538 1_555
Na25 O115 2.808217 1_555
Na26 O0 2.317219 1_555
Na26 O76 2.465291 1_555
Na26 O116 2.512260 1_555
Na26 O42 2.592657 1_555
Na26 O114 2.634379 1_555
Na26 O72 2.720085 1_545
Na27 O1 2.344492 1_555
Na27 O77 2.437815 1_555
Na27 O117 2.517635 1_555
Na27 O115 2.593870 1_555
Na27 O43 2.678440 1_555
Na27 O73 2.764916 1_545
Na28 O2 2.226964 1_555
Na28 O116 2.418340 1_555
Na28 O73 2.513511 1_555
Na28 O118 2.613491 1_555
Na28 O74 2.780672 1_555
Na28 O44 2.917262 1_555
Na29 O3 2.418164 1_555
Na29 O117 2.447009 1_555
Na29 O72 2.496064 1_655
Na29 O45 2.598391 1_555
Na29 O119 2.706277 1_555
Na29 O75 2.737611 1_555
Na30 O86 2.555675 1_555
Na30 O85 2.565797 1_455
Na30 O89 2.578322 1_445
Na30 O76 2.631628 1_555
Na30 O72 2.697000 1_545
Na30 O75 2.976425 1_445
Na31 O77 2.381807 1_555
Na31 O87 2.514695 1_555
Na31 O84 2.630422 1_555
Na31 O73 2.706866 1_545
Na31 O88 2.745196 1_545
Na32 O80 2.445709 1_545
Na32 O94 2.465904 1_556
Na32 O93 2.629795 1_456
Na32 O91 2.655463 1_446
Na32 O78 2.727659 1_555
Na32 O83 2.791510 1_445
Na33 O92 2.448698 1_555
Na33 O90 2.512547 1_545
Na33 O81 2.572677 1_544
Na33 O95 2.651716 1_555
Na33 O79 2.796309 1_554
Na33 O82 2.886763 1_544
Na34 O96 2.294907 1_555
Na34 O110 2.347526 1_555
Na34 O112 2.451635 1_555
Na34 O108 2.787825 1_555
Na35 O113 2.308510 1_555
Na35 O97 2.323190 1_555
Na35 O99 2.497765 1_555
Na35 O109 2.687215 1_555
Na35 O111 2.737692 1_555
Na35 O101 2.846468 1_555
Na36 O106 2.391488 1_555
Na36 O116 2.399927 1_555
Na36 O102 2.440871 1_555
Na36 O114 2.601879 1_555
Na36 O104 2.634164 1_555
Na36 O118 2.802359 1_555
Na37 O117 2.316399 1_555
Na37 O107 2.423868 1_555
Na37 O103 2.512145 1_555
Na37 O115 2.536363 1_555
Na37 O119 2.822463 1_555
Na38 O134 2.393840 1_555
Na38 O120 2.520287 1_555
Na38 O124 2.600363 1_555
Na38 O136 2.657722 1_555
Na38 O132 2.699409 1_555
Na38 O122 2.878210 1_555
Na39 O121 2.450849 1_555
Na39 O137 2.544183 1_555
Na39 O133 2.555620 1_555
Na39 O123 2.607699 1_555
Na39 O125 2.699866 1_555
Na39 O135 2.754517 1_555
Na40 O126 2.423265 1_555
Na40 O140 2.439596 1_555
Na40 O130 2.561894 1_555
Na40 O142 2.575381 1_555
Na40 O138 2.605811 1_555
Na40 O128 2.760726 1_555
Na41 O129 2.390678 1_555
Na41 O127 2.487222 1_555
Na41 O141 2.576256 1_555
Na41 O143 2.607778 1_555
Na41 O131 2.629563 1_555
Na41 O139 2.703806 1_555
Ca0 O0 2.156578 1_555
Ca0 O3 2.169100 1_445
Ca0 O76 2.272732 1_555
Ca0 O5 2.297664 1_455
Ca0 O75 2.393058 1_445
Ca0 O72 2.441306 1_545
Ca1 O1 2.151548 1_555
Ca1 O2 2.158550 1_545
Ca1 O77 2.272280 1_555
Ca1 O4 2.286903 1_555
Ca1 O74 2.428697 1_545
Ca1 O73 2.468082 1_545
Ca2 O6 2.156425 1_555
Ca2 O11 2.172244 1_455
Ca2 O9 2.310750 1_445
Ca2 O80 2.315610 1_545
Ca2 O78 2.399791 1_555
Ca2 O83 2.455379 1_445
Ca3 O10 2.118998 1_545
Ca3 O7 2.175768 1_555
Ca3 O81 2.314460 1_545
Ca3 O79 2.323565 1_555
Ca3 O8 2.347545 1_545
Ca3 O82 2.406756 1_545
Ca4 O26 2.184116 1_555
Ca4 O98 2.215161 1_555
Ca4 O96 2.249236 1_555
Ca4 O24 2.283137 1_555
Ca4 O28 2.371807 1_555
Ca4 O100 2.372343 1_555
Ca5 O29 2.190732 1_555
Ca5 O27 2.191546 1_555
Ca5 O97 2.276061 1_555
Ca5 O99 2.278679 1_555
Ca5 O25 2.297598 1_555
Ca5 O101 2.433279 1_555
Ca6 O34 2.192784 1_555
Ca6 O30 2.198324 1_555
Ca6 O102 2.255535 1_555
Ca6 O106 2.258410 1_555
Ca6 O32 2.263201 1_555
Ca6 O104 2.469428 1_555
Ca7 O35 2.171581 1_555
Ca7 O107 2.175314 1_555
Ca7 O103 2.259978 1_555
Ca7 O33 2.264832 1_555
Ca7 O31 2.341382 1_555
Ca7 O105 2.415467 1_555
Ca8 O37 2.235692 1_556
Ca8 O113 2.281234 1_555
Ca8 O41 2.405987 1_556
Ca8 O109 2.444908 1_555
Ca8 O111 2.545184 1_555
Ca8 O39 2.582900 1_556
Ca9 O42 2.233192 1_555
Ca9 O116 2.315598 1_555
Ca9 O44 2.354733 1_555
Ca9 O114 2.431387 1_555
Ca9 O118 2.478849 1_555
Ca9 O46 2.572626 1_555
Ca10 O45 2.261193 1_555
Ca10 O43 2.305888 1_555
Ca10 O117 2.324835 1_555
Ca10 O119 2.534705 1_555
Ca10 O47 2.595947 1_555
Ca10 O115 2.618079 1_555
Ca11 O52 2.169665 1_554
Ca11 O48 2.208574 1_554
Ca11 O120 2.259239 1_555
Ca11 O50 2.290254 1_554
Ca11 O124 2.317038 1_555
Ca11 O122 2.459001 1_555
Ca12 O53 2.168298 1_554
Ca12 O123 2.211815 1_555
Ca12 O51 2.250301 1_554
Ca12 O121 2.282586 1_555
Ca12 O49 2.299626 1_554
Ca12 O125 2.452298 1_555
Ca13 O56 2.157109 1_555
Ca13 O58 2.245056 1_555
Ca13 O126 2.255769 1_555
Ca13 O54 2.258639 1_555
Ca13 O130 2.385330 1_555
Ca13 O128 2.406499 1_555
Ca14 O57 2.165807 1_555
Ca14 O55 2.255686 1_555
Ca14 O129 2.265974 1_555
Ca14 O127 2.273328 1_555
Ca14 O59 2.306507 1_555
Ca14 O131 2.410942 1_555
O0 Si0 1.600139 1_545
O1 Si1 1.600089 1_545
O2 Si2 1.591334 1_555
O3 Si3 1.591934 1_555
O4 S1 1.479638 1_555
O5 S0 1.479390 1_655
O6 Si4 1.606826 1_555
O7 Si5 1.590168 1_555
O8 S3 1.479492 1_555
O9 S2 1.477680 1_655
O10 Si6 1.573074 1_565
O11 Si7 1.588328 1_555
O12 Si6 1.705362 1_565
O12 Ti1 1.959907 1_565
O13 Si7 1.685573 1_565
O13 Ti0 1.947394 1_665
O14 Si4 1.704022 1_555
O14 Ti0 1.911459 1_555
O15 Si5 1.757570 1_555
O15 Ti1 1.780932 1_555
O16 S2 1.503944 1_555
O16 Ti0 2.260617 1_565
O17 S3 1.512948 1_555
O17 Ti1 2.176612 1_565
O18 Si2 1.682233 1_555
O18 Ti3 1.893093 1_555
O19 Si3 1.723858 1_555
O19 Ti2 1.889544 1_655
O20 S0 1.518691 1_555
O20 Ti2 2.149520 1_545
O21 S1 1.479318 1_555
O22 Ti2 1.787359 1_555
O22 Si0 1.798020 1_555
O23 Si1 1.749351 1_555
O23 Ti3 1.833525 1_555
O24 S4 1.469777 1_555
O25 S5 1.455812 1_555
O26 Si8 1.624052 1_555
O27 Si9 1.614988 1_555
O28 S6 1.476620 1_555
O29 Si10 1.615407 1_555
O30 Si11 1.598840 1_555
O31 S7 1.468331 1_555
O32 S8 1.457460 1_555
O33 S9 1.465228 1_555
O34 Si12 1.577891 1_555
O35 Si13 1.622385 1_555
O36 Si12 1.757979 1_555
O36 Ti4 1.822646 1_554
O37 Si13 1.648672 1_555
O38 Si11 1.733542 1_555
O38 Ti4 1.912303 1_554
O39 S7 1.487759 1_555
O40 S8 1.529625 1_555
O40 Ti4 1.995854 1_554
O41 S9 1.492783 1_555
O42 Si8 1.650474 1_555
O43 Si9 1.643929 1_555
O44 S6 1.490571 1_555
O45 Si10 1.646965 1_555
O46 S4 1.490492 1_555
O47 S5 1.488231 1_555
O48 S10 1.457139 1_555
O49 S11 1.479770 1_555
O50 S12 1.485003 1_555
O51 S13 1.482576 1_555
O52 Si14 1.606171 1_555
O53 Si15 1.608175 1_555
O54 S14 1.480006 1_555
O55 S15 1.477284 1_555
O56 Si16 1.613877 1_555
O57 Si17 1.610999 1_555
O58 S16 1.482867 1_555
O59 S17 1.481755 1_555
O60 S16 1.490066 1_555
O60 Ti5 2.426488 1_555
O61 S17 1.483253 1_555
O61 Ti6 2.497402 1_555
O62 S14 1.510754 1_555
O62 Ti5 2.031827 1_555
O63 S15 1.501934 1_555
O63 Ti6 2.101162 1_555
O64 Si16 1.752451 1_555
O64 Ti5 1.854029 1_555
O65 Si17 1.746872 1_555
O65 Ti6 1.851005 1_555
O66 S12 1.485450 1_555
O66 Ti7 2.359631 1_555
O67 S13 1.491214 1_555
O67 Ti8 2.380115 1_555
O68 Si14 1.740241 1_555
O68 Ti7 1.913753 1_555
O69 Si15 1.743905 1_555
O69 Ti8 1.844948 1_555
O70 S10 1.509842 1_555
O70 Ti7 2.245731 1_555
O71 S11 1.504184 1_555
O71 Ti8 2.183752 1_555
O72 S16 1.493393 1_555
O73 S17 1.495205 1_555
O74 S14 1.470704 1_555
O75 S15 1.485907 1_555
O76 Si16 1.636801 1_555
O77 Si17 1.637942 1_555
O78 S12 1.491997 1_555
O79 S13 1.477638 1_555
O80 Si14 1.640624 1_555
O81 Si15 1.634510 1_555
O82 S10 1.470385 1_555
O83 S11 1.485424 1_555
O84 S4 1.516256 1_555
O84 Ti1 2.121456 1_555
O85 S5 1.514595 1_555
O85 Ti0 2.128771 1_655
O86 Si8 1.689215 1_555
O86 Ti0 1.952750 1_555
O87 Si9 1.731074 1_555
O87 Ti1 1.880588 1_555
O88 S6 1.490777 1_555
O88 Ti1 2.522386 1_565
O89 Si10 1.692698 1_555
O89 Ti0 1.940334 1_665
O90 Si11 1.700188 1_555
O90 Ti3 1.865877 1_555
O91 S7 1.525159 1_555
O91 Ti2 2.118805 1_655
O92 S8 1.479123 1_555
O93 S9 1.505934 1_555
O93 Ti2 2.395751 1_645
O94 Si12 1.700920 1_555
O94 Ti2 2.049558 1_545
O95 Si13 1.710231 1_555
O95 Ti3 1.921958 1_545
O96 Si6 1.607270 1_555
O97 Si7 1.599732 1_555
O98 Si4 1.621567 1_555
O99 Si5 1.614257 1_555
O100 S3 1.450258 1_555
O101 S2 1.451985 1_655
O102 Si2 1.610871 1_555
O103 Si3 1.614044 1_555
O104 S1 1.468184 1_555
O105 S0 1.456299 1_655
O106 Si0 1.588482 1_545
O107 Si1 1.604443 1_545
O108 S10 1.524775 1_555
O108 Ti4 2.281095 1_555
O109 S11 1.493017 1_555
O110 S13 1.507834 1_555
O110 Ti4 2.568877 1_555
O111 S12 1.499211 1_655
O112 Si14 1.695236 1_545
O112 Ti4 2.003609 1_555
O113 Si15 1.642424 1_545
O114 S14 1.488816 1_545
O115 S15 1.487698 1_545
O116 Si16 1.641616 1_555
O117 Si17 1.637555 1_555
O118 S17 1.506879 1_555
O119 S16 1.494631 1_655
O120 Si12 1.615394 1_555
O121 Si13 1.638905 1_555
O122 S7 1.479315 1_455
O123 Si11 1.618322 1_555
O124 S8 1.483405 1_565
O125 S9 1.490594 1_565
O126 Si8 1.643672 1_565
O127 Si9 1.629456 1_565
O128 S6 1.498750 1_555
O129 Si10 1.641305 1_555
O130 S5 1.488886 1_455
O131 S4 1.475879 1_555
O132 Si0 1.672436 1_555
O132 Ti5 1.980030 1_555
O133 Si1 1.667417 1_555
O133 Ti6 1.941739 1_555
O134 Si2 1.724281 1_555
O134 Ti5 1.817223 1_555
O135 Si3 1.700672 1_555
O135 Ti6 1.842683 1_555
O136 S0 1.507132 1_555
O136 Ti5 2.292988 1_555
O137 S1 1.535974 1_555
O137 Ti6 2.121557 1_555
O138 Si4 1.694190 1_555
O138 Ti7 1.920254 1_555
O139 Si5 1.664158 1_555
O139 Ti8 1.920646 1_555
O140 S2 1.520424 1_555
O140 Ti7 2.150458 1_555
O141 S3 1.515549 1_555
O141 Ti8 2.222630 1_555
O142 Si6 1.754255 1_565
O142 Ti7 1.834655 1_555
O143 Si7 1.753476 1_565
O143 Ti8 1.840027 1_555
