# generated using pymatgen
data_YPt2
_symmetry_space_group_name_H-M   'P 1'
_cell_length_a   5.40992593
_cell_length_b   5.40992454
_cell_length_c   5.40992466
_cell_angle_alpha   59.99999303
_cell_angle_beta   60.00000153
_cell_angle_gamma   59.99999612
_symmetry_Int_Tables_number   1
_chemical_formula_structural   YPt2
_chemical_formula_sum   'Y2 Pt4'
_cell_volume   111.95892374
_cell_formula_units_Z   2
loop_
 _symmetry_equiv_pos_site_id
 _symmetry_equiv_pos_as_xyz
  1  'x, y, z'
loop_
 _atom_site_type_symbol
 _atom_site_label
 _atom_site_symmetry_multiplicity
 _atom_site_fract_x
 _atom_site_fract_y
 _atom_site_fract_z
 _atom_site_occupancy
  Y  Y0  1  0.12500000  0.12500000  0.12500000  1
  Y  Y1  1  0.87500000  0.87500000  0.87500000  1
  Pt  Pt0  1  -0.00000000  0.50000000  0.50000000  1
  Pt  Pt1  1  0.50000000  0.00000000  0.50000000  1
  Pt  Pt2  1  0.50000000  0.50000000  0.00000000  1
  Pt  Pt3  1  0.50000000  0.50000000  0.50000000  1
loop_
_geom_bond_atom_site_label_1
_geom_bond_atom_site_label_2
_geom_bond_distance
_geom_bond_site_symmetry_2
Pt0 Pt1 2.704962 1_465
Pt0 Pt1 2.704962 1_555
Pt0 Pt2 2.704963 1_555
Pt0 Pt2 2.704963 1_456
Pt0 Pt3 2.704963 1_455
Pt0 Pt3 2.704963 1_555
Pt0 Y0 3.171849 1_556
Pt0 Y1 3.171849 1_454
Pt0 Y0 3.171849 1_565
Pt0 Y1 3.171849 1_445
Pt0 Y0 3.171850 1_555
Pt0 Y1 3.171850 1_455
Pt1 Pt2 2.704962 1_555
Pt1 Pt2 2.704962 1_546
Pt1 Pt3 2.704962 1_545
Pt1 Pt3 2.704962 1_555
Pt1 Y1 3.171850 1_544
Pt1 Y0 3.171850 1_556
Pt1 Y1 3.171850 1_545
Pt1 Y0 3.171850 1_555
Pt1 Y1 3.171850 1_445
Pt1 Y0 3.171850 1_655
Pt2 Pt3 2.704962 1_554
Pt2 Pt3 2.704962 1_555
Pt2 Y0 3.171849 1_565
Pt2 Y1 3.171849 1_544
Pt2 Y0 3.171850 1_555
Pt2 Y1 3.171850 1_554
Pt2 Y1 3.171850 1_454
Pt2 Y0 3.171850 1_655
Pt3 Y1 3.171849 1_545
Pt3 Y0 3.171849 1_565
Pt3 Y0 3.171850 1_556
Pt3 Y1 3.171850 1_554
Pt3 Y0 3.171850 1_655
Pt3 Y1 3.171850 1_455
