# generated using pymatgen
data_Na2ScAlP2SO12
_symmetry_space_group_name_H-M   'P 1'
_cell_length_a   8.69466315
_cell_length_b   8.70133165
_cell_length_c   22.16916423
_cell_angle_alpha   90.27233940
_cell_angle_beta   89.75367632
_cell_angle_gamma   119.91582281
_symmetry_Int_Tables_number   1
_chemical_formula_structural   Na2ScAlP2SO12
_chemical_formula_sum   'Na12 Sc6 Al6 P12 S6 O72'
_cell_volume   1453.71813847
_cell_formula_units_Z   6
loop_
 _symmetry_equiv_pos_site_id
 _symmetry_equiv_pos_as_xyz
  1  'x, y, z'
loop_
 _atom_site_type_symbol
 _atom_site_label
 _atom_site_symmetry_multiplicity
 _atom_site_fract_x
 _atom_site_fract_y
 _atom_site_fract_z
 _atom_site_occupancy
  Na  Na0  1  0.99727051  0.63602892  0.25341520  1
  Na  Na1  1  0.36871963  0.00486752  0.75074943  1
  Na  Na2  1  0.66209316  0.95817387  0.58637431  1
  Na  Na3  1  0.03856131  0.33524521  0.08707052  1
  Na  Na4  1  0.32882967  0.29995948  0.91933192  1
  Na  Na5  1  0.69718362  0.67065436  0.41943312  1
  Na  Na6  1  0.02534752  0.00043215  0.49969032  1
  Na  Na7  1  0.00315861  0.97670371  0.00124540  1
  Na  Na8  1  0.69002154  0.33152190  0.83105466  1
  Na  Na9  1  0.66536101  0.31049101  0.33473221  1
  Na  Na10  1  0.35675823  0.66509638  0.17121684  1
  Na  Na11  1  0.33487185  0.64424839  0.66478957  1
  Sc  Sc0  1  0.99823768  0.00807250  0.84757552  1
  Sc  Sc1  1  0.99875705  0.99824305  0.15308118  1
  Sc  Sc2  1  0.66786803  0.33229776  0.98151440  1
  Sc  Sc3  1  0.32726960  0.67075069  0.02235184  1
  Sc  Sc4  1  0.33092347  0.67470677  0.51856967  1
  Sc  Sc5  1  0.33395584  0.66303357  0.80952851  1
  Al  Al0  1  0.98554587  0.99695654  0.34952738  1
  Al  Al1  1  0.00311992  0.99725869  0.64523522  1
  Al  Al2  1  0.65912687  0.33239217  0.68277297  1
  Al  Al3  1  0.66776603  0.34515218  0.18886973  1
  Al  Al4  1  0.66672873  0.33137895  0.48198436  1
  Al  Al5  1  0.33272679  0.66666968  0.31851964  1
  P  P0  1  0.69404841  0.70168576  0.25405809  1
  P  P1  1  0.00117438  0.29804167  0.25253763  1
  P  P2  1  0.29422743  0.28853692  0.74357258  1
  P  P3  1  0.71436405  0.01189974  0.74104842  1
  P  P4  1  0.37669184  0.05700237  0.58393674  1
  P  P5  1  0.67658420  0.62001154  0.58307299  1
  P  P6  1  0.95241477  0.62394865  0.08854229  1
  P  P7  1  0.38035201  0.33354164  0.08702888  1
  P  P8  1  0.03762627  0.37273905  0.91681667  1
  P  P9  1  0.33134976  0.96085638  0.91348418  1
  P  P10  1  0.62729875  0.96628314  0.41573197  1
  P  P11  1  0.03729933  0.66906718  0.41323055  1
  S  S0  1  0.29982427  0.00251500  0.25424162  1
  S  S1  1  0.98641797  0.70083713  0.74383819  1
  S  S2  1  0.94838027  0.32971444  0.58441512  1
  S  S3  1  0.66379940  0.04632588  0.08948339  1
  S  S4  1  0.63162290  0.67199303  0.91671194  1
  S  S5  1  0.32678581  0.36671570  0.41458104  1
  O  O0  1  0.20945149  0.02996569  0.30630115  1
  O  O1  1  0.82416489  0.78891670  0.30815916  1
  O  O2  1  0.97537271  0.16952063  0.30411921  1
  O  O3  1  0.22545477  0.18304321  0.80386559  1
  O  O4  1  0.96089616  0.77450290  0.80092264  1
  O  O5  1  0.81871145  0.03426050  0.79942236  1
  O  O6  1  0.80585324  0.98438611  0.68572997  1
  O  O7  1  0.16856378  0.18137907  0.69255500  1
  O  O8  1  0.01563172  0.81948594  0.69273629  1
  O  O9  1  0.77722428  0.81647739  0.19773560  1
  O  O10  1  0.03608673  0.22955421  0.19247367  1
  O  O11  1  0.18836578  0.96328289  0.19931399  1
  O  O12  1  0.86290733  0.35117710  0.63872240  1
  O  O13  1  0.49307069  0.13471622  0.64091775  1
  O  O14  1  0.65590955  0.50522923  0.63770896  1
  O  O15  1  0.86340801  0.50910916  0.14526943  1
  O  O16  1  0.65047145  0.14021065  0.14279491  1
  O  O17  1  0.49569481  0.34305117  0.14060180  1
  O  O18  1  0.45301306  0.31224206  0.02555638  1
  O  O19  1  0.84977783  0.53378842  0.03081525  1
  O  O20  1  0.68709183  0.14540843  0.03283553  1
  O  O21  1  0.47046846  0.17046355  0.52791498  1
  O  O22  1  0.69896698  0.53694858  0.52341041  1
  O  O23  1  0.83872070  0.30205602  0.52962933  1
  O  O24  1  0.54582383  0.68825961  0.97212514  1
  O  O25  1  0.14580239  0.45319382  0.97566989  1
  O  O26  1  0.31995881  0.85231044  0.96965845  1
  O  O27  1  0.55922077  0.84996570  0.47388629  1
  O  O28  1  0.29504806  0.44088285  0.47009633  1
  O  O29  1  0.15205294  0.69970350  0.46938965  1
  O  O30  1  0.12669532  0.64024875  0.35719314  1
  O  O31  1  0.50030407  0.86589891  0.36329685  1
  O  O32  1  0.36165767  0.48844598  0.36300325  1
  O  O33  1  0.13908945  0.48462272  0.86182943  1
  O  O34  1  0.35151219  0.87724207  0.85447312  1
  O  O35  1  0.52293687  0.64922642  0.86259867  1
  O  O36  1  0.01312762  0.83480717  0.40469129  1
  O  O37  1  0.81394137  0.98525777  0.40467677  1
  O  O38  1  0.17222281  0.18757465  0.40433086  1
  O  O39  1  0.02163721  0.18781873  0.91224649  1
  O  O40  1  0.16355680  0.97900586  0.91185796  1
  O  O41  1  0.80841599  0.82636615  0.91197049  1
  O  O42  1  0.96469985  0.16652888  0.58844247  1
  O  O43  1  0.19010383  0.03566604  0.59082659  1
  O  O44  1  0.84240826  0.81175360  0.58951726  1
  O  O45  1  0.97349023  0.80877906  0.09192439  1
  O  O46  1  0.82612410  0.03010860  0.09221474  1
  O  O47  1  0.18901752  0.17234104  0.09141155  1
  O  O48  1  0.69328231  0.17917542  0.73632115  1
  O  O49  1  0.48223935  0.31003835  0.73704446  1
  O  O50  1  0.83194587  0.52182592  0.73679560  1
  O  O51  1  0.68103031  0.51636579  0.24579113  1
  O  O52  1  0.83180108  0.31828908  0.24638620  1
  O  O53  1  0.47729390  0.16103804  0.24630970  1
  O  O54  1  0.64378608  0.50730529  0.91917760  1
  O  O55  1  0.85359470  0.35379073  0.91889085  1
  O  O56  1  0.49301137  0.15123510  0.91716421  1
  O  O57  1  0.64497605  0.15069429  0.42590997  1
  O  O58  1  0.49246843  0.35452137  0.42081253  1
  O  O59  1  0.84719869  0.50284056  0.42180449  1
  O  O60  1  0.36322178  0.50327283  0.08585881  1
  O  O61  1  0.13820443  0.63813940  0.08581777  1
  O  O62  1  0.50525872  0.86905156  0.08646682  1
  O  O63  1  0.35893404  0.86895915  0.57852720  1
  O  O64  1  0.51032210  0.64430749  0.57942946  1
  O  O65  1  0.12658669  0.48716872  0.57980777  1
  O  O66  1  0.31768201  0.84159820  0.26168253  1
  O  O67  1  0.50997057  0.68000156  0.26514791  1
  O  O68  1  0.16283359  0.48806226  0.26286287  1
  O  O69  1  0.31081576  0.47265653  0.74764884  1
  O  O70  1  0.15184186  0.68815575  0.74732988  1
  O  O71  1  0.52301032  0.84837178  0.74520318  1
loop_
_geom_bond_atom_site_label_1
_geom_bond_atom_site_label_2
_geom_bond_distance
_geom_bond_site_symmetry_2
Na0 O68 2.372250 1_655
Na0 O52 2.401736 1_555
Na0 O51 2.412402 1_555
Na0 O66 2.454589 1_655
Na0 O30 2.557535 1_655
Na0 O15 2.653114 1_555
Na0 O1 2.733879 1_555
Na0 O11 2.757497 1_655
Na1 O71 2.342677 1_545
Na1 O49 2.347013 1_555
Na1 O70 2.443754 1_545
Na1 O48 2.468571 1_555
Na1 O34 2.529578 1_545
Na1 O13 2.675670 1_555
Na1 O3 2.690384 1_555
Na2 O42 2.335338 1_565
Na2 O63 2.354221 1_555
Na2 O64 2.372074 1_555
Na2 O44 2.465790 1_555
Na2 O6 2.490081 1_555
Na2 O27 2.657490 1_555
Na2 O13 2.863640 1_565
Na2 O23 2.886186 1_565
Na3 O61 2.328215 1_555
Na3 O47 2.362579 1_555
Na3 O46 2.362966 1_455
Na3 O60 2.447391 1_555
Na3 O10 2.511304 1_555
Na3 O25 2.659270 1_554
Na3 O20 2.913842 1_455
Na3 O15 2.921506 1_455
Na4 O39 2.348033 1_555
Na4 O56 2.357164 1_555
Na4 O54 2.413722 1_555
Na4 O40 2.426201 1_545
Na4 O18 2.574335 1_556
Na4 O3 2.734652 1_555
Na4 O25 2.820222 1_555
Na4 O35 2.927173 1_555
Na5 O59 2.395265 1_555
Na5 O36 2.403360 1_655
Na5 O58 2.419188 1_555
Na5 O37 2.421788 1_555
Na5 O22 2.590563 1_555
Na5 O27 2.677128 1_555
Na5 O1 2.688998 1_555
Na5 O32 2.826359 1_555
Na6 O43 2.410200 1_555
Na6 O36 2.518731 1_545
Na6 O44 2.567120 1_445
Na6 O38 2.585909 1_555
Na6 O42 2.638626 1_455
Na6 O37 2.760694 1_445
Na7 O40 2.412675 1_554
Na7 O45 2.426989 1_455
Na7 O41 2.508014 1_454
Na7 O47 2.599309 1_565
Na7 O39 2.651511 1_564
Na7 O46 2.707443 1_465
Na8 O55 2.365880 1_555
Na8 O48 2.485811 1_555
Na8 O56 2.521770 1_555
Na8 O50 2.569806 1_555
Na8 O54 2.626002 1_555
Na8 O49 2.708161 1_555
Na9 O52 2.411165 1_555
Na9 O57 2.414201 1_555
Na9 O53 2.467760 1_555
Na9 O59 2.526486 1_555
Na9 O58 2.567311 1_555
Na9 O51 2.627403 1_555
Na10 O60 2.370526 1_555
Na10 O67 2.444713 1_555
Na10 O62 2.464121 1_555
Na10 O68 2.598719 1_555
Na10 O61 2.613886 1_555
Na10 O66 2.642285 1_555
Na11 O69 2.314861 1_555
Na11 O64 2.425393 1_555
Na11 O71 2.470934 1_555
Na11 O65 2.496606 1_555
Na11 O70 2.569354 1_555
Na11 O63 2.673596 1_555
Al0 O2 1.850248 1_565
Al0 O1 1.883759 1_555
Al0 O37 1.888213 1_555
Al0 O36 1.974890 1_655
Al0 O38 2.043068 1_665
Al0 O0 2.054172 1_665
Al1 O7 1.853293 1_565
Al1 O6 1.885833 1_455
Al1 O43 1.911733 1_565
Al1 O8 1.922982 1_555
Al1 O44 1.957013 1_455
Al1 O42 2.092405 1_465
Al2 O14 1.821287 1_555
Al2 O13 1.850236 1_555
Al2 O49 1.881147 1_555
Al2 O48 1.920370 1_555
Al2 O12 1.953829 1_555
Al2 O50 1.983774 1_555
Al3 O17 1.835750 1_555
Al3 O15 1.855129 1_555
Al3 O51 1.907133 1_555
Al3 O16 1.990608 1_555
Al3 O52 2.016339 1_555
Al3 O53 2.070168 1_555
Al4 O21 1.877388 1_555
Al4 O22 1.899483 1_555
Al4 O57 1.933849 1_555
Al4 O23 1.952881 1_555
Al4 O59 2.033177 1_555
Al4 O58 2.121286 1_555
Al5 O30 1.890720 1_555
Al5 O31 1.894788 1_555
Al5 O67 1.896222 1_555
Al5 O68 1.956355 1_555
Al5 O32 1.961248 1_555
Al5 O66 2.034665 1_555
O0 S0 1.477581 1_555
O1 P0 1.562371 1_555
O2 P1 1.538923 1_655
O3 P2 1.563356 1_555
O3 Sc0 2.038940 1_455
O4 S1 1.481009 1_555
O4 Sc0 2.151823 1_565
O5 P3 1.538607 1_555
O5 Sc0 1.999852 1_555
O6 P3 1.540398 1_565
O7 P2 1.525390 1_555
O8 S1 1.469994 1_455
O9 P0 1.537310 1_555
O9 Sc1 2.037492 1_555
O10 P1 1.545887 1_555
O10 Sc1 2.062315 1_445
O11 S0 1.488182 1_565
O11 Sc1 2.092508 1_455
O12 S2 1.471480 1_555
O13 P4 1.548306 1_555
O14 P5 1.525605 1_555
O15 P6 1.552800 1_555
O16 S3 1.470266 1_555
O17 P7 1.532865 1_555
O18 P7 1.548440 1_555
O18 Sc2 2.033295 1_554
O19 P6 1.533485 1_555
O19 Sc2 2.000177 1_554
O20 S3 1.481684 1_555
O20 Sc2 2.063304 1_554
O21 P4 1.543365 1_555
O22 P5 1.561635 1_555
O23 S2 1.490113 1_555
O24 S4 1.476974 1_555
O24 Sc3 2.137447 1_556
O25 P8 1.556323 1_555
O25 Sc3 2.039665 1_556
O26 P9 1.539337 1_555
O26 Sc3 1.995698 1_556
O27 P10 1.563696 1_555
O27 Sc4 2.055497 1_555
O28 S5 1.474612 1_555
O28 Sc4 2.177311 1_555
O29 P11 1.535842 1_555
O29 Sc4 2.002240 1_555
O30 P11 1.547090 1_555
O31 P10 1.540392 1_555
O32 S5 1.486443 1_555
O33 P8 1.535390 1_555
O33 Sc5 2.000415 1_555
O34 P9 1.545226 1_555
O34 Sc5 2.046964 1_555
O35 S4 1.480594 1_555
O35 Sc5 2.076865 1_555
O36 P11 1.570059 1_555
O37 P10 1.565409 1_555
O38 S5 1.482292 1_555
O39 P8 1.547286 1_555
O39 Sc0 2.051069 1_455
O40 P9 1.544330 1_555
O40 Sc0 2.131807 1_465
O41 S4 1.455557 1_555
O41 Sc0 2.158732 1_565
O42 S2 1.498863 1_555
O43 P4 1.545132 1_555
O44 P5 1.575718 1_555
O45 P6 1.526680 1_555
O45 Sc1 2.055322 1_555
O46 S3 1.488281 1_555
O46 Sc1 2.141658 1_545
O47 P7 1.554612 1_555
O47 Sc1 2.097899 1_445
O48 P3 1.559120 1_555
O49 P2 1.556071 1_555
O50 S1 1.472162 1_555
O51 P0 1.569066 1_555
O52 P1 1.574503 1_655
O53 S0 1.480375 1_555
O54 S4 1.489840 1_555
O54 Sc2 2.147810 1_555
O55 P8 1.525087 1_655
O55 Sc2 2.062043 1_555
O56 P9 1.550386 1_545
O56 Sc2 2.106377 1_555
O57 P10 1.549260 1_545
O58 S5 1.503281 1_555
O59 P11 1.573354 1_655
O60 P7 1.556875 1_555
O60 Sc3 2.163612 1_555
O61 P6 1.558402 1_455
O61 Sc3 2.069066 1_555
O62 S3 1.470686 1_565
O62 Sc3 2.173624 1_555
O63 P4 1.569001 1_565
O63 Sc4 2.062497 1_555
O64 P5 1.564274 1_555
O64 Sc4 2.180912 1_555
O65 S2 1.473370 1_455
O65 Sc4 2.184243 1_555
O66 S0 1.493693 1_565
O67 P0 1.534102 1_555
O68 P1 1.562989 1_555
O69 P2 1.537499 1_555
O69 Sc5 2.077211 1_555
O70 S1 1.498744 1_455
O70 Sc5 2.196186 1_555
O71 P3 1.561993 1_565
O71 Sc5 2.166539 1_555
