# generated using pymatgen
data_Na4CaHf3Si3(SO8)3
_symmetry_space_group_name_H-M   'P 1'
_cell_length_a   9.10998824
_cell_length_b   9.10398695
_cell_length_c   23.22866408
_cell_angle_alpha   89.54848458
_cell_angle_beta   90.32421905
_cell_angle_gamma   119.93166499
_symmetry_Int_Tables_number   1
_chemical_formula_structural   Na4CaHf3Si3(SO8)3
_chemical_formula_sum   'Na12 Ca3 Hf9 Si9 S9 O72'
_cell_volume   1669.50836526
_cell_formula_units_Z   3
loop_
 _symmetry_equiv_pos_site_id
 _symmetry_equiv_pos_as_xyz
  1  'x, y, z'
loop_
 _atom_site_type_symbol
 _atom_site_label
 _atom_site_symmetry_multiplicity
 _atom_site_fract_x
 _atom_site_fract_y
 _atom_site_fract_z
 _atom_site_occupancy
  Na  Na0  1  0.63364631  0.00428903  0.23916174  1
  Na  Na1  1  0.37601480  0.34960926  0.25241777  1
  Na  Na2  1  0.98808260  0.64824878  0.24752269  1
  Na  Na3  1  0.99017026  0.35021099  0.75809775  1
  Na  Na4  1  0.38534705  0.01640575  0.75852019  1
  Na  Na5  1  0.69891343  0.67758166  0.40364505  1
  Na  Na6  1  0.00555299  0.02189716  0.49061210  1
  Na  Na7  1  0.00382392  0.01546135  0.00108553  1
  Na  Na8  1  0.65481359  0.32285933  0.83538231  1
  Na  Na9  1  0.63971044  0.31472828  0.32361460  1
  Na  Na10  1  0.35689312  0.69541276  0.16199911  1
  Na  Na11  1  0.35749432  0.66444888  0.67389773  1
  Ca  Ca0  1  0.00888541  0.00922196  0.35496229  1
  Ca  Ca1  1  0.66054774  0.33354076  0.68620613  1
  Ca  Ca2  1  0.65735266  0.32042071  0.17596514  1
  Hf  Hf0  1  0.00801610  0.02064437  0.85785142  1
  Hf  Hf1  1  0.99355620  0.00869020  0.65094663  1
  Hf  Hf2  1  0.98920732  0.98750737  0.14871726  1
  Hf  Hf3  1  0.66616971  0.30947968  0.97941593  1
  Hf  Hf4  1  0.65636058  0.32157981  0.47716751  1
  Hf  Hf5  1  0.32969849  0.67359876  0.01601225  1
  Hf  Hf6  1  0.34041783  0.66485253  0.51627127  1
  Hf  Hf7  1  0.35295306  0.68014951  0.31436972  1
  Hf  Hf8  1  0.33962110  0.66743605  0.81765486  1
  Si  Si0  1  0.29304176  0.99708449  0.25036976  1
  Si  Si1  1  0.70402189  0.70126767  0.25400461  1
  Si  Si2  1  0.28900645  0.29563572  0.75156439  1
  Si  Si3  1  0.70452669  0.99052397  0.75210573  1
  Si  Si4  1  0.66920301  0.02369485  0.08475383  1
  Si  Si5  1  0.04086124  0.38180155  0.91661063  1
  Si  Si6  1  0.33026204  0.95882029  0.91439687  1
  Si  Si7  1  0.62580311  0.96071059  0.41848860  1
  Si  Si8  1  0.33319297  0.37458196  0.41825090  1
  S  S0  1  0.00623106  0.29757943  0.24884053  1
  S  S1  1  0.00586195  0.71896700  0.75096531  1
  S  S2  1  0.96431217  0.33458302  0.58344452  1
  S  S3  1  0.36418530  0.03230812  0.58275342  1
  S  S4  1  0.67106464  0.63531848  0.58139921  1
  S  S5  1  0.96482434  0.63199865  0.08163899  1
  S  S6  1  0.36559524  0.33342445  0.08093436  1
  S  S7  1  0.62437301  0.66451230  0.91811920  1
  S  S8  1  0.04008537  0.65627389  0.41996218  1
  O  O0  1  0.21736255  0.04107109  0.30472720  1
  O  O1  1  0.80312906  0.77417088  0.31330482  1
  O  O2  1  0.96947779  0.19404608  0.30071819  1
  O  O3  1  0.18918852  0.17187488  0.80585963  1
  O  O4  1  0.98464687  0.79805170  0.80194568  1
  O  O5  1  0.82473982  0.00550653  0.80568468  1
  O  O6  1  0.79726977  0.96933603  0.69279521  1
  O  O7  1  0.16564420  0.19661307  0.69402934  1
  O  O8  1  0.02544390  0.82316376  0.69747724  1
  O  O9  1  0.80306625  0.83363411  0.19854299  1
  O  O10  1  0.03271972  0.21397929  0.19784751  1
  O  O11  1  0.17097287  0.97156474  0.19304851  1
  O  O12  1  0.89667920  0.35778158  0.63731406  1
  O  O13  1  0.46144387  0.09934372  0.63611790  1
  O  O14  1  0.64391140  0.53589156  0.63358031  1
  O  O15  1  0.90228542  0.54257317  0.13686735  1
  O  O16  1  0.63656565  0.08425628  0.14537690  1
  O  O17  1  0.45680974  0.36436081  0.13620679  1
  O  O18  1  0.46250350  0.31640277  0.03277169  1
  O  O19  1  0.85172543  0.54195782  0.03303553  1
  O  O20  1  0.68764541  0.15652953  0.03104979  1
  O  O21  1  0.45959961  0.14772922  0.53301493  1
  O  O22  1  0.68887811  0.54867908  0.53007078  1
  O  O23  1  0.85232450  0.31506698  0.53376267  1
  O  O24  1  0.54289464  0.69121197  0.96817747  1
  O  O25  1  0.16501189  0.47388896  0.97043145  1
  O  O26  1  0.31498722  0.84136705  0.96931777  1
  O  O27  1  0.50972105  0.84559240  0.47245972  1
  O  O28  1  0.32632647  0.48387305  0.47305845  1
  O  O29  1  0.14452963  0.67039275  0.47115194  1
  O  O30  1  0.11335529  0.63245121  0.36686192  1
  O  O31  1  0.51365934  0.87705953  0.35929829  1
  O  O32  1  0.36315711  0.49252839  0.36024060  1
  O  O33  1  0.12883987  0.48947473  0.85653184  1
  O  O34  1  0.36122134  0.87365303  0.85598019  1
  O  O35  1  0.51800923  0.63993084  0.86504694  1
  O  O36  1  0.01657537  0.80344373  0.41873931  1
  O  O37  1  0.79974476  0.96036547  0.42178621  1
  O  O38  1  0.17803174  0.18960409  0.42219757  1
  O  O39  1  0.01415924  0.18964881  0.91156656  1
  O  O40  1  0.15672983  0.96764943  0.90912888  1
  O  O41  1  0.79307070  0.81542534  0.91042298  1
  O  O42  1  0.97941940  0.17669233  0.58627224  1
  O  O43  1  0.19500357  0.01967018  0.58601541  1
  O  O44  1  0.82605162  0.80617521  0.58563936  1
  O  O45  1  0.98362319  0.80474398  0.08522812  1
  O  O46  1  0.84659758  0.01592568  0.08633818  1
  O  O47  1  0.19713366  0.17655772  0.08498401  1
  O  O48  1  0.69686882  0.16480503  0.74850362  1
  O  O49  1  0.46922289  0.30526379  0.74835874  1
  O  O50  1  0.86390710  0.54538590  0.74472118  1
  O  O51  1  0.67921121  0.51468244  0.24420493  1
  O  O52  1  0.86508145  0.33138610  0.24007613  1
  O  O53  1  0.48757094  0.14961605  0.24516247  1
  O  O54  1  0.63891097  0.51160822  0.92490953  1
  O  O55  1  0.85390501  0.36591221  0.92437734  1
  O  O56  1  0.49618676  0.14975891  0.92319266  1
  O  O57  1  0.64406025  0.14978502  0.42645071  1
  O  O58  1  0.52064732  0.38066816  0.42719411  1
  O  O59  1  0.86794498  0.50097359  0.42824073  1
  O  O60  1  0.34187609  0.48185796  0.07100545  1
  O  O61  1  0.13713708  0.65227630  0.07313248  1
  O  O62  1  0.50570877  0.83529416  0.07165944  1
  O  O63  1  0.33999799  0.86005277  0.57364391  1
  O  O64  1  0.51899831  0.65912786  0.57503945  1
  O  O65  1  0.13661266  0.48362451  0.57494143  1
  O  O66  1  0.28850348  0.81069264  0.25655492  1
  O  O67  1  0.51449531  0.69053157  0.25436962  1
  O  O68  1  0.16634177  0.46473095  0.25505597  1
  O  O69  1  0.29070074  0.47717890  0.75519379  1
  O  O70  1  0.16720154  0.71109736  0.75356629  1
  O  O71  1  0.51125345  0.82738466  0.75498701  1
loop_
_geom_bond_atom_site_label_1
_geom_bond_atom_site_label_2
_geom_bond_distance
_geom_bond_site_symmetry_2
Na0 O16 2.287555 1_555
Na0 O53 2.302782 1_555
Na0 O67 2.521224 1_545
Na0 O52 2.654895 1_555
Na0 O66 2.762028 1_545
Na0 O9 2.849332 1_545
Na0 O31 3.007336 1_545
Na0 O2 3.017294 1_555
Na1 O51 2.404830 1_555
Na1 O53 2.495920 1_555
Na1 O68 2.598246 1_555
Na1 O67 2.705728 1_555
Na1 O0 2.714795 1_555
Na1 O17 2.786543 1_555
Na1 O32 2.861182 1_555
Na2 O66 2.383414 1_655
Na2 O51 2.446763 1_555
Na2 O52 2.527255 1_555
Na2 O15 2.721976 1_555
Na2 O11 2.848194 1_655
Na2 O68 2.856386 1_655
Na2 O1 2.910740 1_555
Na2 O30 3.021472 1_655
Na3 O48 2.353003 1_555
Na3 O69 2.383087 1_655
Na3 O50 2.569783 1_555
Na3 O33 2.616492 1_655
Na4 O49 2.354188 1_555
Na4 O48 2.471782 1_555
Na4 O70 2.485655 1_545
Na4 O71 2.501340 1_545
Na4 O34 2.556681 1_545
Na5 O1 2.288795 1_555
Na5 O37 2.302601 1_555
Na5 O58 2.418538 1_555
Na5 O36 2.548779 1_655
Na5 O59 2.780124 1_555
Na5 O32 2.839027 1_555
Na6 O38 2.218439 1_555
Na6 O37 2.305886 1_445
Na6 O36 2.646918 1_545
Na6 O42 2.714843 1_455
Na6 O43 2.807330 1_555
Na6 O44 2.858520 1_445
Na7 O46 2.451830 1_455
Na7 O47 2.545395 1_555
Na7 O39 2.578527 1_554
Na7 O45 2.669611 1_445
Na7 O40 2.710326 1_544
Na7 O41 2.821928 1_444
Na8 O56 2.538165 1_555
Na8 O49 2.581975 1_555
Na8 O48 2.625753 1_555
Na8 O55 2.641512 1_555
Na8 O54 2.758018 1_555
Na8 O50 2.880057 1_555
Na9 O53 2.331723 1_555
Na9 O51 2.479240 1_555
Na9 O52 2.780927 1_555
Na9 O57 2.822123 1_555
Na9 O58 2.833350 1_555
Na10 O62 2.475975 1_555
Na10 O67 2.587364 1_555
Na10 O66 2.649182 1_555
Na10 O61 2.757662 1_555
Na10 O60 2.839412 1_555
Na10 O68 2.903309 1_555
Na11 O71 2.377192 1_555
Na11 O69 2.402082 1_555
Na11 O70 2.719136 1_555
Na11 O64 2.747979 1_555
Na11 O65 2.957083 1_555
Na11 O63 2.972102 1_555
Ca0 O0 2.126727 1_555
Ca0 O38 2.235697 1_555
Ca0 O1 2.244621 1_445
Ca0 O2 2.260991 1_455
Ca0 O37 2.326844 1_445
Ca0 O36 2.407344 1_545
Ca1 O49 2.182519 1_555
Ca1 O48 2.242799 1_555
Ca1 O14 2.269808 1_555
Ca1 O13 2.312041 1_555
Ca1 O50 2.333768 1_555
Ca1 O12 2.348601 1_555
Ca2 O16 2.186232 1_555
Ca2 O53 2.232159 1_555
Ca2 O17 2.248347 1_555
Ca2 O51 2.317156 1_555
Ca2 O15 2.320465 1_555
Ca2 O52 2.364497 1_555
Hf0 O3 1.951119 1_555
Hf0 O39 1.967444 1_555
Hf0 O5 2.006287 1_455
Hf0 O40 2.027783 1_545
Hf0 O41 2.270775 1_445
Hf0 O4 2.333702 1_445
Hf1 O6 1.909372 1_545
Hf1 O7 1.928443 1_655
Hf1 O8 2.136060 1_645
Hf1 O42 2.184260 1_555
Hf1 O44 2.288963 1_545
Hf1 O43 2.344917 1_655
Hf2 O9 1.950272 1_555
Hf2 O11 2.010372 1_655
Hf2 O46 2.040233 1_565
Hf2 O45 2.213451 1_555
Hf2 O10 2.219664 1_665
Hf2 O47 2.340965 1_665
Hf3 O20 1.912752 1_556
Hf3 O55 1.990225 1_555
Hf3 O56 1.994482 1_555
Hf3 O18 2.264177 1_556
Hf3 O19 2.309905 1_556
Hf3 O54 2.338096 1_555
Hf4 O57 1.923341 1_555
Hf4 O58 1.950140 1_555
Hf4 O59 2.127994 1_555
Hf4 O21 2.136290 1_555
Hf4 O23 2.235319 1_555
Hf4 O22 2.301564 1_555
Hf5 O26 1.924519 1_554
Hf5 O25 1.991939 1_554
Hf5 O62 2.014922 1_555
Hf5 O61 2.134933 1_555
Hf5 O24 2.177926 1_554
Hf5 O60 2.201761 1_555
Hf6 O28 1.884749 1_555
Hf6 O27 1.892298 1_555
Hf6 O29 2.086476 1_555
Hf6 O64 2.138056 1_555
Hf6 O65 2.227754 1_555
Hf6 O63 2.231217 1_555
Hf7 O31 1.959414 1_555
Hf7 O67 1.999867 1_555
Hf7 O32 2.047005 1_555
Hf7 O66 2.054990 1_555
Hf7 O68 2.307266 1_555
Hf7 O30 2.348518 1_555
Hf8 O34 2.002891 1_555
Hf8 O33 2.004893 1_555
Hf8 O35 2.072942 1_555
Hf8 O71 2.098677 1_555
Hf8 O69 2.136775 1_555
Hf8 O70 2.329958 1_555
O0 Si0 1.588493 1_545
O1 Si1 1.598567 1_555
O2 S0 1.457534 1_655
O3 Si2 1.629467 1_555
O4 S1 1.453605 1_655
O5 Si3 1.614022 1_545
O6 Si3 1.681997 1_555
O7 Si2 1.689017 1_555
O8 S1 1.513418 1_555
O9 Si1 1.682153 1_555
O10 S0 1.497084 1_555
O11 Si0 1.671465 1_555
O12 S2 1.460402 1_555
O13 S3 1.467632 1_555
O14 S4 1.453401 1_555
O15 S5 1.470414 1_555
O16 Si4 1.598738 1_555
O17 S6 1.475909 1_555
O18 S6 1.485078 1_555
O19 S5 1.471984 1_555
O20 Si4 1.680095 1_555
O21 S3 1.508414 1_555
O22 S4 1.488217 1_555
O23 S2 1.487690 1_555
O24 S7 1.468466 1_555
O25 Si5 1.612228 1_555
O26 Si6 1.619346 1_555
O27 Si7 1.636058 1_555
O28 Si8 1.642463 1_555
O29 S8 1.484348 1_555
O30 S8 1.473761 1_555
O31 Si7 1.654769 1_555
O32 Si8 1.652917 1_555
O33 Si5 1.660693 1_555
O34 Si6 1.661675 1_555
O35 S7 1.511030 1_555
O36 S8 1.458604 1_555
O37 Si7 1.587591 1_555
O38 Si8 1.570335 1_555
O39 Si5 1.646632 1_555
O40 Si6 1.626367 1_555
O41 S7 1.474306 1_555
O42 S2 1.511722 1_555
O43 S3 1.489508 1_555
O44 S4 1.493958 1_555
O45 S5 1.497566 1_555
O46 Si4 1.652686 1_555
O47 S6 1.488607 1_555
O48 Si3 1.624080 1_545
O49 Si2 1.601969 1_555
O50 S1 1.467239 1_655
O51 Si1 1.615780 1_555
O52 S0 1.476695 1_655
O53 Si0 1.620949 1_545
O54 S7 1.469854 1_555
O55 Si5 1.646651 1_655
O56 Si6 1.651743 1_545
O57 Si7 1.656447 1_545
O58 Si8 1.692403 1_555
O59 S8 1.510533 1_655
O60 S6 1.487250 1_555
O61 S5 1.500345 1_455
O62 Si4 1.645153 1_565
O63 S3 1.487440 1_565
O64 S4 1.511545 1_555
O65 S2 1.489227 1_455
O66 Si0 1.681685 1_555
O67 Si1 1.680019 1_555
O68 S0 1.500042 1_555
O69 Si2 1.647940 1_555
O70 S1 1.507685 1_555
O71 Si3 1.643350 1_555
