# generated using pymatgen
data_Na5NbIn3SiP5O24
_symmetry_space_group_name_H-M   'P 1'
_cell_length_a   9.06036141
_cell_length_b   9.06175500
_cell_length_c   22.71703665
_cell_angle_alpha   90.04012005
_cell_angle_beta   90.09756206
_cell_angle_gamma   120.01836389
_symmetry_Int_Tables_number   1
_chemical_formula_structural   Na5NbIn3SiP5O24
_chemical_formula_sum   'Na15 Nb3 In9 Si3 P15 O72'
_cell_volume   1614.94756565
_cell_formula_units_Z   3
loop_
 _symmetry_equiv_pos_site_id
 _symmetry_equiv_pos_as_xyz
  1  'x, y, z'
loop_
 _atom_site_type_symbol
 _atom_site_label
 _atom_site_symmetry_multiplicity
 _atom_site_fract_x
 _atom_site_fract_y
 _atom_site_fract_z
 _atom_site_occupancy
  Na  Na0  1  0.63626739  0.99939499  0.25150380  1
  Na  Na1  1  0.36303956  0.36276416  0.25021973  1
  Na  Na2  1  0.00075531  0.63669746  0.25066304  1
  Na  Na3  1  0.30622871  0.34165413  0.58791684  1
  Na  Na4  1  0.03503358  0.70242808  0.58535017  1
  Na  Na5  1  0.66456941  0.96062619  0.58508824  1
  Na  Na6  1  0.29591030  0.95836469  0.07912552  1
  Na  Na7  1  0.97545578  0.67684900  0.91419910  1
  Na  Na8  1  0.69712222  0.01941360  0.91152236  1
  Na  Na9  1  0.99646960  0.99712237  0.49566110  1
  Na  Na10  1  0.00911392  0.01987127  0.99672883  1
  Na  Na11  1  0.65335433  0.33123304  0.82364863  1
  Na  Na12  1  0.66674504  0.33115611  0.33558122  1
  Na  Na13  1  0.33276831  0.65323208  0.16102431  1
  Na  Na14  1  0.34123873  0.66571405  0.66891191  1
  Nb  Nb0  1  0.66567449  0.33269824  0.97898235  1
  Nb  Nb1  1  0.66811144  0.33903871  0.47990005  1
  Nb  Nb2  1  0.32925902  0.66559231  0.81461723  1
  In  In0  1  0.99930598  0.99922189  0.35244851  1
  In  In1  1  0.00792436  0.00861086  0.84832540  1
  In  In2  1  0.99857687  0.99900742  0.65301036  1
  In  In3  1  0.99382330  0.00042280  0.14500779  1
  In  In4  1  0.66605494  0.33467189  0.68661754  1
  In  In5  1  0.66923732  0.33633505  0.18069897  1
  In  In6  1  0.33072781  0.65769451  0.01670256  1
  In  In7  1  0.33603800  0.66670630  0.51242077  1
  In  In8  1  0.33452721  0.66739943  0.32291954  1
  Si  Si0  1  0.66585333  0.62938746  0.58431246  1
  Si  Si1  1  0.03970663  0.36973351  0.91821015  1
  Si  Si2  1  0.33108698  0.95877464  0.91965402  1
  P  P0  1  0.29573611  0.99902009  0.24829752  1
  P  P1  1  0.70326293  0.70453695  0.25007561  1
  P  P2  1  0.00148141  0.29636462  0.24993470  1
  P  P3  1  0.30086400  0.30368557  0.74907626  1
  P  P4  1  0.00202371  0.70023523  0.75138562  1
  P  P5  1  0.69588199  0.99694834  0.75093716  1
  P  P6  1  0.95799982  0.33461691  0.58254819  1
  P  P7  1  0.37717115  0.04284001  0.58244334  1
  P  P8  1  0.96335691  0.63036801  0.08381977  1
  P  P9  1  0.66695017  0.03875292  0.08267294  1
  P  P10  1  0.37406374  0.33501844  0.08446683  1
  P  P11  1  0.62268308  0.66342627  0.91662143  1
  P  P12  1  0.63737689  0.97287434  0.41740881  1
  P  P13  1  0.33345840  0.36238950  0.41733335  1
  P  P14  1  0.03086830  0.66545837  0.41768031  1
  O  O0  1  0.21187601  0.03364751  0.30124444  1
  O  O1  1  0.81828480  0.78243087  0.30431881  1
  O  O2  1  0.96402556  0.18144665  0.30407658  1
  O  O3  1  0.21214170  0.19189150  0.80223314  1
  O  O4  1  0.98051391  0.78492481  0.80662149  1
  O  O5  1  0.80061952  0.01609868  0.80655869  1
  O  O6  1  0.76972019  0.96695821  0.69325946  1
  O  O7  1  0.19898624  0.23474895  0.69039397  1
  O  O8  1  0.03413814  0.80389594  0.69375870  1
  O  O9  1  0.77945435  0.81745780  0.19495084  1
  O  O10  1  0.03789836  0.21988864  0.19467579  1
  O  O11  1  0.18964020  0.96711305  0.19093414  1
  O  O12  1  0.88110861  0.36623754  0.63749615  1
  O  O13  1  0.48985139  0.11317865  0.63705344  1
  O  O14  1  0.62145780  0.50195462  0.63869380  1
  O  O15  1  0.88730134  0.53636206  0.14220602  1
  O  O16  1  0.64020373  0.11424494  0.14019196  1
  O  O17  1  0.46469940  0.35167799  0.14378463  1
  O  O18  1  0.48421192  0.32269685  0.03228463  1
  O  O19  1  0.84834693  0.52540456  0.02981704  1
  O  O20  1  0.67830505  0.15668386  0.02872057  1
  O  O21  1  0.47517071  0.15947268  0.52826605  1
  O  O22  1  0.68854680  0.52322279  0.52668501  1
  O  O23  1  0.83981595  0.31103353  0.52814499  1
  O  O24  1  0.55535164  0.70766899  0.97158513  1
  O  O25  1  0.14793951  0.44420619  0.97670985  1
  O  O26  1  0.30299163  0.85478744  0.98003089  1
  O  O27  1  0.55339483  0.86665221  0.47294965  1
  O  O28  1  0.31104470  0.44539550  0.47305214  1
  O  O29  1  0.13565694  0.68640050  0.47351358  1
  O  O30  1  0.10454649  0.63335601  0.36076092  1
  O  O31  1  0.53065736  0.89882393  0.36025854  1
  O  O32  1  0.36754339  0.46914124  0.36058019  1
  O  O33  1  0.13776020  0.50215652  0.86221808  1
  O  O34  1  0.37073409  0.86072383  0.86467613  1
  O  O35  1  0.50417114  0.63216794  0.86285650  1
  O  O36  1  0.00447579  0.81927620  0.41392764  1
  O  O37  1  0.81642221  0.99572052  0.41371709  1
  O  O38  1  0.17961676  0.18227323  0.41332943  1
  O  O39  1  0.98457437  0.17228792  0.91025133  1
  O  O40  1  0.16211595  0.97183085  0.91062772  1
  O  O41  1  0.80378390  0.81167877  0.90729362  1
  O  O42  1  0.97064363  0.17009529  0.58451662  1
  O  O43  1  0.20455322  0.04004657  0.58498895  1
  O  O44  1  0.84432401  0.81314833  0.58506370  1
  O  O45  1  0.97565130  0.80756706  0.08138184  1
  O  O46  1  0.83273975  0.03304844  0.08105128  1
  O  O47  1  0.20473038  0.16217583  0.08146469  1
  O  O48  1  0.67088701  0.15240327  0.74760811  1
  O  O49  1  0.48041281  0.32773772  0.74738718  1
  O  O50  1  0.85032723  0.51841382  0.74834341  1
  O  O51  1  0.68184752  0.52258897  0.24516788  1
  O  O52  1  0.84090238  0.31785251  0.24453690  1
  O  O53  1  0.47869174  0.15895221  0.24500093  1
  O  O54  1  0.63795049  0.49878907  0.92513533  1
  O  O55  1  0.85271024  0.37053742  0.92485352  1
  O  O56  1  0.51150270  0.14785365  0.92507635  1
  O  O57  1  0.65165699  0.15194709  0.42487809  1
  O  O58  1  0.49909727  0.34744255  0.42497965  1
  O  O59  1  0.85109742  0.49827606  0.42456306  1
  O  O60  1  0.35600115  0.49306737  0.07946246  1
  O  O61  1  0.14453530  0.65543003  0.08103524  1
  O  O62  1  0.50314400  0.86418354  0.07745148  1
  O  O63  1  0.34604893  0.85980231  0.57447071  1
  O  O64  1  0.49955713  0.65395316  0.57735397  1
  O  O65  1  0.13633894  0.49448400  0.57529447  1
  O  O66  1  0.31410894  0.83738515  0.25561599  1
  O  O67  1  0.52184310  0.68353474  0.25654032  1
  O  O68  1  0.16187520  0.47764552  0.25662055  1
  O  O69  1  0.31602145  0.48377183  0.75856057  1
  O  O70  1  0.17049995  0.68851642  0.75936900  1
  O  O71  1  0.51607585  0.83044373  0.75851060  1
loop_
_geom_bond_atom_site_label_1
_geom_bond_atom_site_label_2
_geom_bond_distance
_geom_bond_site_symmetry_2
Na0 O53 2.493120 1_565
Na0 O67 2.512410 1_555
Na0 O66 2.529309 1_555
Na0 O52 2.537439 1_565
Na0 O31 2.643600 1_555
Na0 O16 2.728639 1_565
Na0 O2 2.837236 1_565
Na0 O9 2.862590 1_555
Na1 O51 2.503970 1_555
Na1 O68 2.515149 1_555
Na1 O67 2.520732 1_555
Na1 O53 2.541559 1_555
Na1 O17 2.608542 1_555
Na1 O32 2.678276 1_555
Na1 O0 2.835007 1_555
Na1 O10 2.848783 1_555
Na2 O66 2.492589 1_555
Na2 O52 2.505360 1_455
Na2 O68 2.516233 1_555
Na2 O51 2.538255 1_455
Na2 O15 2.647045 1_455
Na2 O30 2.676064 1_555
Na2 O1 2.855177 1_455
Na2 O11 2.936228 1_555
Na3 O43 2.408990 1_555
Na3 O64 2.485380 1_555
Na3 O7 2.524106 1_555
Na3 O65 2.549802 1_555
Na3 O42 2.633844 1_455
Na3 O14 2.726396 1_555
Na3 O28 2.767187 1_555
Na4 O44 2.393092 1_455
Na4 O63 2.453055 1_555
Na4 O65 2.485160 1_555
Na4 O8 2.629612 1_555
Na4 O43 2.649074 1_565
Na4 O29 2.728873 1_555
Na4 O12 2.896362 1_455
Na5 O64 2.414590 1_555
Na5 O42 2.454968 1_565
Na5 O63 2.565262 1_555
Na5 O44 2.572198 1_555
Na5 O6 2.624222 1_555
Na5 O27 2.712803 1_555
Na5 O13 2.829157 1_565
Na6 O47 2.371267 1_565
Na6 O61 2.377378 1_555
Na6 O62 2.420490 1_555
Na6 O26 2.451626 1_554
Na6 O45 2.514533 1_455
Na6 O11 2.732979 1_555
Na7 O40 2.342980 1_655
Na7 O41 2.416107 1_555
Na7 O55 2.431713 1_555
Na7 O4 2.625346 1_555
Na7 O54 2.661285 1_555
Na7 O33 2.897469 1_655
Na7 O19 2.922694 1_556
Na7 O26 2.972690 1_655
Na8 O39 2.256835 1_555
Na8 O56 2.497518 1_555
Na8 O41 2.511371 1_545
Na8 O5 2.569356 1_555
Na8 O34 2.770869 1_545
Na8 O55 2.777074 1_555
Na8 O24 2.805837 1_545
Na8 O20 2.978898 1_556
Na9 O37 2.468896 1_555
Na9 O36 2.482587 1_655
Na9 O38 2.509181 1_665
Na9 O44 2.553281 1_555
Na9 O42 2.636332 1_565
Na9 O43 2.660027 1_665
Na10 O39 2.475059 1_455
Na10 O47 2.491523 1_556
Na10 O46 2.537378 1_456
Na10 O40 2.559073 1_545
Na10 O45 2.629612 1_446
Na10 O41 2.760083 1_445
Na11 O49 2.323482 1_555
Na11 O48 2.426898 1_555
Na11 O50 2.444224 1_555
Na11 O56 2.756952 1_555
Na11 O54 2.801484 1_555
Na11 O55 2.831276 1_555
Na12 O57 2.560154 1_555
Na12 O59 2.573459 1_555
Na12 O58 2.586077 1_555
Na12 O53 2.625949 1_555
Na12 O52 2.642570 1_555
Na12 O51 2.648588 1_555
Na13 O60 2.426328 1_555
Na13 O61 2.496873 1_555
Na13 O62 2.589219 1_555
Na13 O68 2.682628 1_555
Na13 O67 2.689631 1_555
Na13 O66 2.776567 1_555
Na14 O71 2.549382 1_555
Na14 O69 2.558787 1_555
Na14 O64 2.560824 1_555
Na14 O70 2.643578 1_555
Na14 O65 2.734360 1_555
Na14 O63 2.761695 1_555
Nb0 O56 1.976547 1_555
Nb0 O55 1.981820 1_555
Nb0 O20 2.004624 1_556
Nb0 O18 2.008826 1_556
Nb0 O54 2.050481 1_555
Nb0 O19 2.054547 1_556
Nb1 O22 1.907137 1_555
Nb1 O58 2.004409 1_555
Nb1 O59 2.006769 1_555
Nb1 O21 2.018366 1_555
Nb1 O23 2.018762 1_555
Nb1 O57 2.049970 1_555
Nb2 O33 1.952099 1_555
Nb2 O34 1.972804 1_555
Nb2 O70 1.995143 1_555
Nb2 O69 2.037029 1_555
Nb2 O71 2.049681 1_555
Nb2 O35 2.068559 1_555
In0 O1 2.124098 1_555
In0 O2 2.136790 1_565
In0 O0 2.136978 1_665
In0 O38 2.147300 1_665
In0 O37 2.153872 1_555
In0 O36 2.165889 1_655
In1 O3 2.052467 1_555
In1 O40 2.127376 1_545
In1 O39 2.129720 1_455
In1 O5 2.134067 1_455
In1 O4 2.135588 1_445
In1 O41 2.260386 1_445
In2 O6 2.150387 1_555
In2 O8 2.158231 1_655
In2 O7 2.166308 1_665
In2 O44 2.192310 1_555
In2 O42 2.298552 1_565
In2 O43 2.307613 1_665
In3 O10 2.142047 1_655
In3 O9 2.143974 1_545
In3 O46 2.180254 1_555
In3 O11 2.203917 1_645
In3 O45 2.208658 1_545
In3 O47 2.256898 1_655
In4 O14 2.063989 1_555
In4 O12 2.138633 1_555
In4 O13 2.151657 1_555
In4 O49 2.154321 1_555
In4 O48 2.173700 1_555
In4 O50 2.175629 1_555
In5 O15 2.092511 1_555
In5 O17 2.099888 1_555
In5 O16 2.105495 1_555
In5 O52 2.191703 1_555
In5 O51 2.193078 1_555
In5 O53 2.221109 1_555
In6 O25 2.024224 1_554
In6 O26 2.097004 1_554
In6 O24 2.117333 1_554
In6 O60 2.157375 1_555
In6 O62 2.215948 1_555
In6 O61 2.226191 1_555
In7 O27 2.098397 1_555
In7 O28 2.101290 1_555
In7 O29 2.104311 1_555
In7 O64 2.132679 1_555
In7 O63 2.212294 1_555
In7 O65 2.221710 1_555
In8 O31 2.130460 1_555
In8 O30 2.130564 1_555
In8 O32 2.141982 1_555
In8 O67 2.221782 1_555
In8 O68 2.229156 1_555
In8 O66 2.243227 1_555
O0 P0 1.537405 1_545
O1 P1 1.536592 1_555
O2 P2 1.536872 1_655
O3 P3 1.523448 1_555
O4 P4 1.533160 1_655
O5 P5 1.535596 1_545
O6 P5 1.556474 1_555
O7 P3 1.561116 1_555
O8 P4 1.552534 1_555
O9 P1 1.545884 1_555
O10 P2 1.547232 1_555
O11 P0 1.556563 1_555
O12 P6 1.525705 1_555
O13 P7 1.526788 1_555
O14 Si0 1.600122 1_555
O15 P8 1.541787 1_555
O16 P9 1.549117 1_555
O17 P10 1.544304 1_555
O18 P10 1.590284 1_555
O19 P8 1.580458 1_555
O20 P9 1.595954 1_555
O21 P7 1.576943 1_555
O22 Si0 1.696664 1_555
O23 P6 1.576648 1_555
O24 P11 1.529226 1_555
O25 Si1 1.585969 1_555
O26 Si2 1.611514 1_555
O27 P12 1.539348 1_555
O28 P13 1.536735 1_555
O29 P14 1.536704 1_555
O30 P14 1.548843 1_555
O31 P12 1.554370 1_555
O32 P13 1.548402 1_555
O33 Si1 1.669270 1_555
O34 Si2 1.672617 1_555
O35 P11 1.554251 1_555
O36 P14 1.529994 1_555
O37 P12 1.531645 1_555
O38 P13 1.529110 1_555
O39 Si1 1.608869 1_655
O40 Si2 1.606241 1_555
O41 P11 1.529073 1_555
O42 P6 1.552008 1_555
O43 P7 1.552649 1_555
O44 Si0 1.641226 1_555
O45 P8 1.554040 1_555
O46 P9 1.529134 1_555
O47 P10 1.551394 1_555
O48 P5 1.536461 1_545
O49 P3 1.529982 1_555
O50 P4 1.530426 1_655
O51 P1 1.564638 1_555
O52 P2 1.566070 1_655
O53 P0 1.565451 1_545
O54 P11 1.577692 1_555
O55 Si1 1.704860 1_655
O56 Si2 1.679166 1_545
O57 P12 1.571051 1_545
O58 P13 1.582179 1_555
O59 P14 1.582653 1_655
O60 P10 1.524987 1_555
O61 P8 1.541947 1_455
O62 P9 1.539232 1_565
O63 P7 1.547532 1_565
O64 Si0 1.636926 1_555
O65 P6 1.547846 1_455
O66 P0 1.563614 1_555
O67 P1 1.564446 1_555
O68 P2 1.563265 1_555
O69 P3 1.582258 1_555
O70 P4 1.592328 1_555
O71 P5 1.581790 1_555
