# generated using pymatgen
data_MgFe2(NiO2)4
_symmetry_space_group_name_H-M   'P 1'
_cell_length_a   5.86979235
_cell_length_b   6.22163628
_cell_length_c   5.86972600
_cell_angle_alpha   61.85356946
_cell_angle_beta   59.99998559
_cell_angle_gamma   61.84419601
_symmetry_Int_Tables_number   1
_chemical_formula_structural   MgFe2(NiO2)4
_chemical_formula_sum   'Mg1 Fe2 Ni4 O8'
_cell_volume   155.67456421
_cell_formula_units_Z   1
loop_
 _symmetry_equiv_pos_site_id
 _symmetry_equiv_pos_as_xyz
  1  'x, y, z'
loop_
 _atom_site_type_symbol
 _atom_site_label
 _atom_site_symmetry_multiplicity
 _atom_site_fract_x
 _atom_site_fract_y
 _atom_site_fract_z
 _atom_site_occupancy
  Mg  Mg0  1  0.00000000  0.50000000  0.00000000  1
  Fe  Fe0  1  0.15383900  0.03869000  0.15373100  1
  Fe  Fe1  1  0.84616100  0.96131000  0.84626900  1
  Ni  Ni0  1  0.50000000  0.50000000  0.00000000  1
  Ni  Ni1  1  0.00000000  0.50000000  0.50000000  1
  Ni  Ni2  1  0.50000000  0.00000000  0.50000000  1
  Ni  Ni3  1  0.50000000  0.50000000  0.50000000  1
  O  O0  1  0.23995200  0.75339100  0.75333400  1
  O  O1  1  0.27062900  0.68796900  0.27070200  1
  O  O2  1  0.76004800  0.24660900  0.24666600  1
  O  O3  1  0.24673800  0.24661700  0.24665300  1
  O  O4  1  0.24674100  0.24662300  0.75997900  1
  O  O5  1  0.72937100  0.31203100  0.72929800  1
  O  O6  1  0.75325900  0.75337700  0.24002100  1
  O  O7  1  0.75326200  0.75338300  0.75334700  1
loop_
_geom_bond_atom_site_label_1
_geom_bond_atom_site_label_2
_geom_bond_distance
_geom_bond_site_symmetry_2
Mg0 O3 2.113684 1_555
Mg0 O7 2.113684 1_454
Mg0 O6 2.113713 1_455
Mg0 O4 2.113713 1_554
Mg0 O0 2.113821 1_554
Mg0 O2 2.113821 1_455
Fe0 O1 1.829820 1_545
Fe0 O2 1.974035 1_455
Fe0 O3 1.974135 1_555
Fe0 O4 1.974141 1_554
Fe1 O5 1.829820 1_565
Fe1 O0 1.974035 1_655
Fe1 O7 1.974135 1_555
Fe1 O6 1.974141 1_556
Ni0 O1 1.957809 1_555
Ni0 O5 1.957809 1_554
Ni0 O0 2.167298 1_554
Ni0 O2 2.167298 1_555
Ni0 O7 2.167347 1_554
Ni0 O3 2.167347 1_555
Ni1 O1 1.957754 1_555
Ni1 O5 1.957754 1_455
Ni1 O4 2.167315 1_555
Ni1 O6 2.167315 1_455
Ni1 O7 2.167364 1_455
Ni1 O3 2.167364 1_555
Ni2 O4 2.163534 1_555
Ni2 O6 2.163534 1_545
Ni2 O7 2.163555 1_545
Ni2 O3 2.163555 1_555
Ni2 O2 2.164073 1_555
Ni2 O0 2.164073 1_545
Ni3 O5 1.957798 1_555
Ni3 O1 1.957798 1_555
Ni3 O6 2.167306 1_555
Ni3 O4 2.167306 1_555
Ni3 O0 2.167346 1_555
Ni3 O2 2.167346 1_555
