# generated using pymatgen
data_Li3Sn2(PO4)3
_symmetry_space_group_name_H-M   'P 1'
_cell_length_a   9.33823800
_cell_length_b   8.73757400
_cell_length_c   15.51553405
_cell_angle_alpha   56.20797446
_cell_angle_beta   90.00000000
_cell_angle_gamma   90.00000000
_symmetry_Int_Tables_number   1
_chemical_formula_structural   Li3Sn2(PO4)3
_chemical_formula_sum   'Li12 Sn8 P12 O48'
_cell_volume   1052.09728440
_cell_formula_units_Z   4
loop_
 _symmetry_equiv_pos_site_id
 _symmetry_equiv_pos_as_xyz
  1  'x, y, z'
loop_
 _atom_site_type_symbol
 _atom_site_label
 _atom_site_symmetry_multiplicity
 _atom_site_fract_x
 _atom_site_fract_y
 _atom_site_fract_z
 _atom_site_occupancy
  Li  Li0  1  0.97349800  0.28054900  0.14197200  1
  Li  Li1  1  0.41795700  0.61692100  0.81213200  1
  Li  Li2  1  0.73411000  0.99267900  0.30301300  1
  Li  Li3  1  0.23411000  0.00732100  0.19698700  1
  Li  Li4  1  0.91795700  0.38307900  0.68786800  1
  Li  Li5  1  0.47349800  0.71945100  0.35802800  1
  Li  Li6  1  0.52650200  0.28054900  0.64197200  1
  Li  Li7  1  0.08204300  0.61692100  0.31213200  1
  Li  Li8  1  0.76589000  0.99267900  0.80301300  1
  Li  Li9  1  0.26589000  0.00732100  0.69698700  1
  Li  Li10  1  0.58204300  0.38307900  0.18786800  1
  Li  Li11  1  0.02650200  0.71945100  0.85802800  1
  Sn  Sn0  1  0.04737100  0.86954400  0.41022700  1
  Sn  Sn1  1  0.46470000  0.65065700  0.60263200  1
  Sn  Sn2  1  0.96470000  0.34934300  0.89736800  1
  Sn  Sn3  1  0.54737100  0.13045600  0.08977300  1
  Sn  Sn4  1  0.45262900  0.86954400  0.91022700  1
  Sn  Sn5  1  0.03530000  0.65065700  0.10263200  1
  Sn  Sn6  1  0.53530000  0.34934300  0.39736800  1
  Sn  Sn7  1  0.95262900  0.13045600  0.58977300  1
  P  P0  1  0.23821800  0.43514800  0.01237700  1
  P  P1  1  0.41014300  0.03883400  0.35565300  1
  P  P2  1  0.13487600  0.70233900  0.68003100  1
  P  P3  1  0.63487600  0.29766100  0.81996900  1
  P  P4  1  0.91014300  0.96116600  0.14434700  1
  P  P5  1  0.73821800  0.56485200  0.48762300  1
  P  P6  1  0.26178200  0.43514800  0.51237700  1
  P  P7  1  0.08985700  0.03883400  0.85565300  1
  P  P8  1  0.36512400  0.70233900  0.18003100  1
  P  P9  1  0.86512400  0.29766100  0.31996900  1
  P  P10  1  0.58985700  0.96116600  0.64434700  1
  P  P11  1  0.76178200  0.56485200  0.98762300  1
  O  O0  1  0.64420100  0.41942100  0.04902300  1
  O  O1  1  0.88491600  0.18089800  0.27460800  1
  O  O2  1  0.84095200  0.54650100  0.90374800  1
  O  O3  1  0.58848300  0.85495600  0.59035500  1
  O  O4  1  0.12441100  0.47647200  0.92682500  1
  O  O5  1  0.53405500  0.10254100  0.27675100  1
  O  O6  1  0.09397400  0.80864800  0.56564500  1
  O  O7  1  0.26348200  0.05085700  0.30828600  1
  O  O8  1  0.29967000  0.65213000  0.69185700  1
  O  O9  1  0.29216100  0.23720100  0.06810900  1
  O  O10  1  0.43493500  0.82524700  0.44235900  1
  O  O11  1  0.04233300  0.52162100  0.74096100  1
  O  O12  1  0.54233300  0.47837900  0.75903900  1
  O  O13  1  0.93493500  0.17475300  0.05764100  1
  O  O14  1  0.79216100  0.76279900  0.43189100  1
  O  O15  1  0.79967000  0.34787000  0.80814300  1
  O  O16  1  0.76348200  0.94914300  0.19171400  1
  O  O17  1  0.59397400  0.19135200  0.93435500  1
  O  O18  1  0.03405500  0.89745900  0.22324900  1
  O  O19  1  0.62441100  0.52352800  0.57317500  1
  O  O20  1  0.08848300  0.14504400  0.90964500  1
  O  O21  1  0.34095200  0.45349900  0.59625200  1
  O  O22  1  0.38491600  0.81910200  0.22539200  1
  O  O23  1  0.14420100  0.58057900  0.45097700  1
  O  O24  1  0.85579900  0.41942100  0.54902300  1
  O  O25  1  0.61508400  0.18089800  0.77460800  1
  O  O26  1  0.65904800  0.54650100  0.40374800  1
  O  O27  1  0.91151700  0.85495600  0.09035500  1
  O  O28  1  0.37558900  0.47647200  0.42682500  1
  O  O29  1  0.96594500  0.10254100  0.77675100  1
  O  O30  1  0.40602600  0.80864800  0.06564500  1
  O  O31  1  0.23651800  0.05085700  0.80828600  1
  O  O32  1  0.20033000  0.65213000  0.19185700  1
  O  O33  1  0.20783900  0.23720100  0.56810900  1
  O  O34  1  0.06506500  0.82524700  0.94235900  1
  O  O35  1  0.45766700  0.52162100  0.24096100  1
  O  O36  1  0.95766700  0.47837900  0.25903900  1
  O  O37  1  0.56506500  0.17475300  0.55764100  1
  O  O38  1  0.70783900  0.76279900  0.93189100  1
  O  O39  1  0.70033000  0.34787000  0.30814300  1
  O  O40  1  0.73651800  0.94914300  0.69171400  1
  O  O41  1  0.90602600  0.19135200  0.43435500  1
  O  O42  1  0.46594500  0.89745900  0.72324900  1
  O  O43  1  0.87558900  0.52352800  0.07317500  1
  O  O44  1  0.41151700  0.14504400  0.40964500  1
  O  O45  1  0.15904800  0.45349900  0.09625200  1
  O  O46  1  0.11508400  0.81910200  0.72539200  1
  O  O47  1  0.35579900  0.58057900  0.95097700  1
loop_
_geom_bond_atom_site_label_1
_geom_bond_atom_site_label_2
_geom_bond_distance
_geom_bond_site_symmetry_2
Li0 O1 1.919438 1_555
Li0 O43 1.990438 1_555
Li0 O13 2.010382 1_555
Li0 O45 2.143988 1_655
Li1 O8 2.039266 1_555
Li1 O47 2.077892 1_555
Li1 O42 2.085883 1_555
Li1 O12 2.145263 1_555
Li2 O14 1.964451 1_555
Li2 O16 1.983103 1_555
Li2 O1 2.018870 1_565
Li2 O5 2.035296 1_565
Li3 O9 1.964451 1_555
Li3 O7 1.983103 1_555
Li3 O22 2.018870 1_545
Li3 O18 2.035296 1_545
Li4 O15 2.039266 1_555
Li4 O24 2.077892 1_555
Li4 O29 2.085883 1_555
Li4 O11 2.145263 1_655
Li5 O22 1.919438 1_555
Li5 O28 1.990438 1_555
Li5 O10 2.010382 1_555
Li5 O26 2.143988 1_555
Li6 O25 1.919438 1_555
Li6 O19 1.990438 1_555
Li6 O37 2.010382 1_555
Li6 O21 2.143988 1_555
Li7 O32 2.039266 1_555
Li7 O23 2.077892 1_555
Li7 O18 2.085883 1_555
Li7 O36 2.145263 1_455
Li8 O38 1.964451 1_555
Li8 O40 1.983103 1_555
Li8 O25 2.018870 1_565
Li8 O29 2.035296 1_565
Li9 O33 1.964451 1_555
Li9 O31 1.983103 1_555
Li9 O46 2.018870 1_545
Li9 O42 2.035296 1_545
Li10 O39 2.039266 1_555
Li10 O0 2.077892 1_555
Li10 O5 2.085883 1_555
Li10 O35 2.145263 1_555
Li11 O46 1.919438 1_555
Li11 O4 1.990438 1_555
Li11 O34 2.010382 1_555
Li11 O2 2.143988 1_455
O0 P11 1.543146 1_554
O0 Sn3 2.411747 1_555
O1 P9 1.539177 1_555
O2 P11 1.580490 1_555
O2 Sn2 2.121911 1_555
O3 P10 1.558176 1_555
O3 Sn1 2.044674 1_555
O4 P0 1.577543 1_556
O4 Sn2 2.057138 1_455
O5 P1 1.545783 1_555
O6 P2 1.524700 1_555
O6 Sn0 2.204562 1_555
O7 P1 1.530017 1_555
O7 Sn0 2.509365 1_545
O8 P2 1.582642 1_555
O8 Sn1 2.076399 1_555
O9 P0 1.526198 1_555
O9 Sn3 2.512741 1_555
O10 P1 1.597970 1_565
O10 Sn1 2.090086 1_555
O11 P2 1.572705 1_555
O11 Sn2 2.148750 1_455
O12 P3 1.572705 1_555
O12 Sn1 2.148750 1_555
O13 P4 1.597970 1_545
O13 Sn2 2.090086 1_554
O14 P5 1.526198 1_555
O14 Sn0 2.512741 1_655
O15 P3 1.582642 1_555
O15 Sn2 2.076399 1_555
O16 P4 1.530017 1_555
O16 Sn3 2.509365 1_565
O17 P3 1.524700 1_555
O17 Sn3 2.204562 1_556
O18 P4 1.545783 1_455
O19 P5 1.577543 1_555
O19 Sn1 2.057138 1_555
O20 P7 1.558176 1_555
O20 Sn2 2.044674 1_455
O21 P6 1.580490 1_555
O21 Sn1 2.121911 1_555
O22 P8 1.539177 1_555
O23 P6 1.543146 1_555
O23 Sn0 2.411747 1_555
O24 P5 1.543146 1_555
O24 Sn7 2.411747 1_555
O25 P3 1.539177 1_555
O26 P5 1.580490 1_555
O26 Sn6 2.121911 1_555
O27 P4 1.558176 1_555
O27 Sn5 2.044674 1_655
O28 P6 1.577543 1_555
O28 Sn6 2.057138 1_555
O29 P7 1.545783 1_655
O30 P8 1.524700 1_555
O30 Sn4 2.204562 1_554
O31 P7 1.530017 1_555
O31 Sn4 2.509365 1_545
O32 P8 1.582642 1_555
O32 Sn5 2.076399 1_555
O33 P6 1.526198 1_555
O33 Sn7 2.512741 1_455
O34 P7 1.597970 1_565
O34 Sn5 2.090086 1_556
O35 P8 1.572705 1_555
O35 Sn6 2.148750 1_555
O36 P9 1.572705 1_555
O36 Sn5 2.148750 1_655
O37 P10 1.597970 1_545
O37 Sn6 2.090086 1_555
O38 P11 1.526198 1_555
O38 Sn4 2.512741 1_555
O39 P9 1.582642 1_555
O39 Sn6 2.076399 1_555
O40 P10 1.530017 1_555
O40 Sn7 2.509365 1_565
O41 P9 1.524700 1_555
O41 Sn7 2.204562 1_555
O42 P10 1.545783 1_555
O43 P11 1.577543 1_554
O43 Sn5 2.057138 1_655
O44 P1 1.558176 1_555
O44 Sn6 2.044674 1_555
O45 P0 1.580490 1_555
O45 Sn5 2.121911 1_555
O46 P2 1.539177 1_555
O47 P0 1.543146 1_556
O47 Sn4 2.411747 1_555
