# generated using pymatgen
data_SmMnO3
_symmetry_space_group_name_H-M   'P 1'
_cell_length_a   5.35857691
_cell_length_b   5.63273957
_cell_length_c   7.66998512
_cell_angle_alpha   90.00000000
_cell_angle_beta   90.00000000
_cell_angle_gamma   90.00000000
_symmetry_Int_Tables_number   1
_chemical_formula_structural   SmMnO3
_chemical_formula_sum   'Sm4 Mn4 O12'
_cell_volume   231.50675196
_cell_formula_units_Z   4
loop_
 _symmetry_equiv_pos_site_id
 _symmetry_equiv_pos_as_xyz
  1  'x, y, z'
loop_
 _atom_site_type_symbol
 _atom_site_label
 _atom_site_symmetry_multiplicity
 _atom_site_fract_x
 _atom_site_fract_y
 _atom_site_fract_z
 _atom_site_occupancy
  Sm  Sm0  1  0.01470901  0.93681266  0.75000000  1
  Sm  Sm1  1  0.51470901  0.56318734  0.25000000  1
  Sm  Sm2  1  0.48529099  0.43681266  0.75000000  1
  Sm  Sm3  1  0.98529099  0.06318734  0.25000000  1
  Mn  Mn0  1  0.50000000  -0.00000000  0.50000000  1
  Mn  Mn1  1  0.00000000  0.50000000  0.50000000  1
  Mn  Mn2  1  0.00000000  0.50000000  0.00000000  1
  Mn  Mn3  1  0.50000000  -0.00000000  0.00000000  1
  O  O0  1  0.70541539  0.30279215  0.45225579  1
  O  O1  1  0.20541539  0.19720785  0.54774421  1
  O  O2  1  0.79458461  0.80279215  0.04774421  1
  O  O3  1  0.29458461  0.69720785  0.95225579  1
  O  O4  1  0.29458461  0.69720785  0.54774421  1
  O  O5  1  0.79458461  0.80279215  0.45225579  1
  O  O6  1  0.20541539  0.19720785  0.95225579  1
  O  O7  1  0.70541539  0.30279215  0.04774421  1
  O  O8  1  0.09145644  0.47489973  0.25000000  1
  O  O9  1  0.59145644  0.02510027  0.75000000  1
  O  O10  1  0.40854356  0.97489973  0.25000000  1
  O  O11  1  0.90854356  0.52510027  0.75000000  1
loop_
_geom_bond_atom_site_label_1
_geom_bond_atom_site_label_2
_geom_bond_distance
_geom_bond_site_symmetry_2
Mn0 O5 1.964652 1_545
Mn0 O1 1.964652 1_555
Mn0 O9 1.984176 1_555
Mn0 O10 1.984176 1_545
Mn0 O4 2.062672 1_545
Mn0 O0 2.062672 1_555
Mn1 O4 1.964652 1_555
Mn1 O0 1.964652 1_455
Mn1 O11 1.984176 1_455
Mn1 O8 1.984176 1_555
Mn1 O5 2.062672 1_455
Mn1 O1 2.062672 1_555
Mn2 O3 1.964652 1_554
Mn2 O7 1.964652 1_455
Mn2 O11 1.984176 1_454
Mn2 O8 1.984176 1_555
Mn2 O2 2.062672 1_455
Mn2 O6 2.062672 1_554
Mn3 O2 1.964652 1_545
Mn3 O6 1.964652 1_554
Mn3 O9 1.984176 1_554
Mn3 O10 1.984176 1_545
Mn3 O3 2.062672 1_544
Mn3 O7 2.062672 1_555
O0 Sm1 2.366888 1_555
O0 Sm3 2.545042 1_555
O0 Sm2 2.678896 1_555
O1 Sm0 2.366888 1_545
O1 Sm2 2.545042 1_555
O1 Sm3 2.678896 1_455
O2 Sm3 2.366888 1_565
O2 Sm1 2.545042 1_555
O2 Sm0 2.678896 1_654
O3 Sm2 2.366888 1_555
O3 Sm0 2.545042 1_555
O3 Sm1 2.678896 1_556
O4 Sm2 2.366888 1_555
O4 Sm0 2.545042 1_555
O4 Sm1 2.678896 1_555
O5 Sm3 2.366888 1_565
O5 Sm1 2.545042 1_555
O5 Sm0 2.678896 1_655
O6 Sm0 2.366888 1_545
O6 Sm2 2.545042 1_555
O6 Sm3 2.678896 1_456
O7 Sm1 2.366888 1_555
O7 Sm3 2.545042 1_555
O7 Sm2 2.678896 1_554
O8 Sm1 2.321912 1_555
O8 Sm3 2.387828 1_455
O9 Sm0 2.321912 1_645
O9 Sm2 2.387828 1_555
O10 Sm3 2.321912 1_465
O10 Sm1 2.387828 1_555
O11 Sm2 2.321912 1_555
O11 Sm0 2.387828 1_655
