# generated using pymatgen
data_RbSc3F10
_symmetry_space_group_name_H-M   'P 1'
_cell_length_a   6.58102436
_cell_length_b   7.60956779
_cell_length_c   7.90443924
_cell_angle_alpha   90.00022933
_cell_angle_beta   90.00119848
_cell_angle_gamma   90.00069682
_symmetry_Int_Tables_number   1
_chemical_formula_structural   RbSc3F10
_chemical_formula_sum   'Rb2 Sc6 F20'
_cell_volume   395.84444440
_cell_formula_units_Z   2
loop_
 _symmetry_equiv_pos_site_id
 _symmetry_equiv_pos_as_xyz
  1  'x, y, z'
loop_
 _atom_site_type_symbol
 _atom_site_label
 _atom_site_symmetry_multiplicity
 _atom_site_fract_x
 _atom_site_fract_y
 _atom_site_fract_z
 _atom_site_occupancy
  Rb  Rb0  1  0.01648975  0.50000410  0.00000291  1
  Rb  Rb1  1  -0.01650462  0.49999976  0.49999575  1
  Sc  Sc0  1  0.00000289  -0.00020674  0.25001280  1
  Sc  Sc1  1  0.00000087  0.00020280  0.75001050  1
  Sc  Sc2  1  0.50000128  0.72977561  0.24999343  1
  Sc  Sc3  1  0.49999784  0.27021442  0.74999920  1
  Sc  Sc4  1  0.50001205  0.27020423  0.24999599  1
  Sc  Sc5  1  0.49999518  0.72980699  0.74999819  1
  F  F0  1  0.32228672  0.49996949  0.27416128  1
  F  F1  1  0.67772680  0.50003229  0.77414491  1
  F  F2  1  0.67773400  0.49997183  0.22583960  1
  F  F3  1  0.32225873  0.50003016  0.72583948  1
  F  F4  1  0.49999358  -0.00004541  0.24991233  1
  F  F5  1  0.50000091  0.00004465  0.75002017  1
  F  F6  1  0.19730489  0.19600390  0.69878248  1
  F  F7  1  0.80271225  0.80397178  0.19878598  1
  F  F8  1  0.80270370  0.19601699  0.80122673  1
  F  F9  1  0.19729806  0.80397541  0.30123606  1
  F  F10  1  0.43104164  0.28174469  -0.00002598  1
  F  F11  1  0.56894498  0.71829925  0.49996659  1
  F  F12  1  0.56895840  0.28170173  0.50002101  1
  F  F13  1  0.43104339  0.71825904  0.00002802  1
  F  F14  1  0.08171637  -0.00000135  0.00001469  1
  F  F15  1  0.91827674  -0.00001380  0.50000275  1
  F  F16  1  0.19741681  0.19555261  0.30130777  1
  F  F17  1  0.80257330  0.80445389  0.80128233  1
  F  F18  1  0.80259651  0.19556811  0.19872777  1
  F  F19  1  0.19741697  0.80446359  0.69871525  1
loop_
_geom_bond_atom_site_label_1
_geom_bond_atom_site_label_2
_geom_bond_distance
_geom_bond_site_symmetry_2
F0 Sc4 2.112225 1_555
F0 Sc2 2.112422 1_555
F0 Rb1 2.856190 1_555
F0 Rb0 2.957361 1_555
F1 Sc5 2.112291 1_555
F1 Sc3 2.112527 1_555
F1 Rb0 2.856102 1_656
F1 Rb1 2.957243 1_655
F2 Sc4 2.112199 1_555
F2 Sc2 2.112486 1_555
F2 Rb0 2.856018 1_655
F2 Rb1 2.957189 1_655
F3 Sc5 2.112306 1_555
F3 Sc3 2.112586 1_555
F3 Rb1 2.856033 1_555
F3 Rb0 2.957327 1_556
F4 Sc2 2.055945 1_545
F4 Sc4 2.056483 1_555
F5 Sc3 2.055875 1_555
F5 Sc5 2.056392 1_545
F6 Sc1 2.017409 1_555
F6 Sc3 2.109718 1_555
F6 Rb1 3.130516 1_555
F7 Sc0 2.017451 1_665
F7 Sc2 2.109804 1_555
F7 Rb0 3.130269 1_655
F8 Sc1 2.017456 1_655
F8 Sc3 2.109802 1_555
F8 Rb0 3.130321 1_656
F9 Sc0 2.017470 1_565
F9 Sc2 2.109829 1_555
F9 Rb1 3.130280 1_555
F10 Sc3 2.029260 1_554
F10 Sc4 2.029629 1_555
F10 Rb0 3.193980 1_555
F11 Sc2 2.029193 1_555
F11 Sc5 2.029680 1_555
F11 Rb1 3.194131 1_655
F12 Sc3 2.029278 1_555
F12 Sc4 2.029602 1_555
F12 Rb1 3.194015 1_655
F13 Sc2 2.029166 1_555
F13 Sc5 2.029683 1_554
F13 Rb0 3.193938 1_555
F14 Sc0 2.047970 1_555
F14 Sc1 2.047998 1_554
F15 Sc0 2.047930 1_655
F15 Sc1 2.048040 1_655
F16 Sc0 2.017733 1_555
F16 Sc4 2.110174 1_555
F16 Rb1 3.133015 1_555
F17 Sc1 2.017708 1_665
F17 Sc5 2.109999 1_555
F17 Rb0 3.133124 1_656
F18 Sc0 2.017798 1_655
F18 Sc4 2.110021 1_555
F18 Rb0 3.132999 1_655
F19 Sc1 2.017664 1_565
F19 Sc5 2.110031 1_555
F19 Rb1 3.133179 1_555
