# generated using pymatgen
data_Na6Sc6Nb2Si5S7O48
_symmetry_space_group_name_H-M   'P 1'
_cell_length_a   17.87602644
_cell_length_b   8.97121654
_cell_length_c   23.08749540
_cell_angle_alpha   90.03552639
_cell_angle_beta   90.12388674
_cell_angle_gamma   120.08879394
_symmetry_Int_Tables_number   1
_chemical_formula_structural   Na6Sc6Nb2Si5S7O48
_chemical_formula_sum   'Na18 Sc18 Nb6 Si15 S21 O144'
_cell_volume   3203.60265106
_cell_formula_units_Z   3
loop_
 _symmetry_equiv_pos_site_id
 _symmetry_equiv_pos_as_xyz
  1  'x, y, z'
loop_
 _atom_site_type_symbol
 _atom_site_label
 _atom_site_symmetry_multiplicity
 _atom_site_fract_x
 _atom_site_fract_y
 _atom_site_fract_z
 _atom_site_occupancy
  Na  Na0  1  0.98955318  0.67689475  0.91203905  1
  Na  Na1  1  0.34800383  0.02964673  0.91488950  1
  Na  Na2  1  0.17021840  0.30388518  0.91320145  1
  Na  Na3  1  0.48911662  0.30414273  0.41991974  1
  Na  Na4  1  0.66930795  0.03379550  0.41645101  1
  Na  Na5  1  0.84624040  0.66625593  0.41824610  1
  Na  Na6  1  0.99963162  0.00314784  0.49545996  1
  Na  Na7  1  0.49760584  0.99595800  0.49975428  1
  Na  Na8  1  0.99898949  0.00271811  0.99679389  1
  Na  Na9  1  0.49922218  0.99602396  0.99303631  1
  Na  Na10  1  0.33721299  0.34357197  0.83584580  1
  Na  Na11  1  0.82816104  0.32397773  0.82257931  1
  Na  Na12  1  0.32925799  0.33542060  0.32627284  1
  Na  Na13  1  0.83604319  0.32907746  0.34070342  1
  Na  Na14  1  0.17096065  0.67074295  0.16659688  1
  Na  Na15  1  0.66471570  0.66590499  0.16829616  1
  Na  Na16  1  0.16765470  0.66511138  0.66751198  1
  Na  Na17  1  0.66192074  0.65906840  0.66033560  1
  Sc  Sc0  1  0.00397422  0.99978070  0.35758138  1
  Sc  Sc1  1  0.49692280  0.00446094  0.34877777  1
  Sc  Sc2  1  0.99727496  0.99036114  0.84742031  1
  Sc  Sc3  1  0.50337999  0.00834823  0.85513789  1
  Sc  Sc4  1  0.33723832  0.34439726  0.68038610  1
  Sc  Sc5  1  0.83397930  0.33480503  0.69184634  1
  Sc  Sc6  1  0.33507359  0.33362111  0.19258263  1
  Sc  Sc7  1  0.82977181  0.31893066  0.18323805  1
  Sc  Sc8  1  0.34070406  0.34685365  0.97425576  1
  Sc  Sc9  1  0.82942350  0.30987990  0.98385812  1
  Sc  Sc10  1  0.33614617  0.34720053  0.48864102  1
  Sc  Sc11  1  0.83906549  0.33112756  0.47529291  1
  Sc  Sc12  1  0.17237555  0.68007322  0.01378420  1
  Sc  Sc13  1  0.66561470  0.66587935  0.01995296  1
  Sc  Sc14  1  0.16593138  0.66512983  0.52150557  1
  Sc  Sc15  1  0.66704783  0.65531932  0.51681259  1
  Sc  Sc16  1  0.66926667  0.65812281  0.31639437  1
  Sc  Sc17  1  0.17114861  0.68309472  0.81406237  1
  Nb  Nb0  1  0.99529452  0.98794690  0.65218799  1
  Nb  Nb1  1  0.50005080  0.01570660  0.64168162  1
  Nb  Nb2  1  0.00073973  0.99637287  0.14634458  1
  Nb  Nb3  1  0.49405293  0.00067771  0.15218935  1
  Nb  Nb4  1  0.16500409  0.67434477  0.31122075  1
  Nb  Nb5  1  0.66164784  0.65219582  0.80762048  1
  Si  Si0  1  0.14423390  0.00305995  0.25170874  1
  Si  Si1  1  0.35254458  0.70342613  0.25368208  1
  Si  Si2  1  0.50423305  0.30596441  0.25274394  1
  Si  Si3  1  0.64362870  0.27960471  0.75098592  1
  Si  Si4  1  0.00327453  0.70146891  0.75256865  1
  Si  Si5  1  0.85325027  0.00192226  0.75339449  1
  Si  Si6  1  0.48214939  0.34831504  0.58179361  1
  Si  Si7  1  0.33047738  0.62513168  0.58530124  1
  Si  Si8  1  0.83078940  0.03432440  0.08451585  1
  Si  Si9  1  0.31288028  0.66872861  0.91478286  1
  Si  Si10  1  0.52479342  0.37794288  0.91843700  1
  Si  Si11  1  0.16413578  0.96016698  0.91814029  1
  Si  Si12  1  0.81135968  0.95396825  0.41589166  1
  Si  Si13  1  0.66451492  0.36776377  0.41712074  1
  Si  Si14  1  0.02368419  0.66934900  0.41901186  1
  S  S0  1  0.64596993  0.00135812  0.24931031  1
  S  S1  1  0.85588827  0.70891024  0.24889700  1
  S  S2  1  0.99915410  0.28806162  0.25015108  1
  S  S3  1  0.14663771  0.29050046  0.74993734  1
  S  S4  1  0.49813902  0.71010736  0.75107583  1
  S  S5  1  0.35581638  0.00239921  0.74916460  1
  S  S6  1  0.97904020  0.32943098  0.58462635  1
  S  S7  1  0.18505667  0.04150080  0.58423277  1
  S  S8  1  0.68799193  0.04216808  0.58376112  1
  S  S9  1  0.83518880  0.62754878  0.58389445  1
  S  S10  1  0.47918912  0.62859251  0.08466636  1
  S  S11  1  0.97923830  0.62388911  0.08401168  1
  S  S12  1  0.33371559  0.04058288  0.08398920  1
  S  S13  1  0.18663031  0.33429807  0.08426546  1
  S  S14  1  0.68616032  0.32991471  0.08403365  1
  S  S15  1  0.81049445  0.66459423  0.91712403  1
  S  S16  1  0.01955025  0.37569064  0.91752560  1
  S  S17  1  0.66805763  0.95469434  0.91606701  1
  S  S18  1  0.30991312  0.95639172  0.41654902  1
  S  S19  1  0.16930295  0.38229854  0.41572606  1
  S  S20  1  0.51890739  0.66407262  0.41616398  1
  O  O0  1  0.09720216  0.02671492  0.30584557  1
  O  O1  1  0.60767233  0.02498649  0.30236536  1
  O  O2  1  0.41320613  0.79690484  0.30761984  1
  O  O3  1  0.90703493  0.78738547  0.30119731  1
  O  O4  1  0.48961886  0.18689086  0.30891150  1
  O  O5  1  0.98560368  0.18581495  0.30168498  1
  O  O6  1  0.10668136  0.19053535  0.80332216  1
  O  O7  1  0.59939120  0.17063597  0.80756265  1
  O  O8  1  0.48807586  0.78817901  0.80365986  1
  O  O9  1  0.98910094  0.78963454  0.80989567  1
  O  O10  1  0.40636834  0.02403622  0.80236617  1
  O  O11  1  0.91289784  0.02972101  0.80823322  1
  O  O12  1  0.40073981  0.98144244  0.69707405  1
  O  O13  1  0.90310852  0.97152904  0.69504866  1
  O  O14  1  0.08906833  0.19600502  0.69785306  1
  O  O15  1  0.58133234  0.19035938  0.69371295  1
  O  O16  1  0.01248475  0.83564417  0.69546697  1
  O  O17  1  0.51236882  0.81416571  0.69878307  1
  O  O18  1  0.40278674  0.83384154  0.19476225  1
  O  O19  1  0.90235161  0.82342573  0.19607480  1
  O  O20  1  0.01154654  0.20350141  0.19715361  1
  O  O21  1  0.51241116  0.18872851  0.19475491  1
  O  O22  1  0.08090979  0.97076195  0.19334233  1
  O  O23  1  0.58954357  0.98234891  0.19695220  1
  O  O24  1  0.43179739  0.35469774  0.63853218  1
  O  O25  1  0.93818396  0.35312351  0.63580527  1
  O  O26  1  0.23710302  0.12140240  0.63642366  1
  O  O27  1  0.74071457  0.12840844  0.63467242  1
  O  O28  1  0.31597225  0.50686240  0.64138399  1
  O  O29  1  0.82644625  0.52398292  0.63460420  1
  O  O30  1  0.43827159  0.52331885  0.13582624  1
  O  O31  1  0.93460760  0.52144287  0.13530445  1
  O  O32  1  0.32476846  0.12609404  0.13484480  1
  O  O33  1  0.82141944  0.13393674  0.14026430  1
  O  O34  1  0.23942796  0.35527690  0.13503351  1
  O  O35  1  0.73941384  0.35423306  0.13610408  1
  O  O36  1  0.21971514  0.30036587  0.03060050  1
  O  O37  1  0.72730142  0.30637125  0.03181862  1
  O  O38  1  0.42666134  0.55370383  0.03206603  1
  O  O39  1  0.92825530  0.55263263  0.03021887  1
  O  O40  1  0.34763176  0.13816326  0.03010786  1
  O  O41  1  0.85118793  0.15849618  0.02794202  1
  O  O42  1  0.22383512  0.14563401  0.53162377  1
  O  O43  1  0.72230928  0.14423455  0.53018951  1
  O  O44  1  0.35107917  0.54652346  0.52774814  1
  O  O45  1  0.84956138  0.55782452  0.52990182  1
  O  O46  1  0.42493704  0.30204995  0.52217659  1
  O  O47  1  0.92680761  0.29973535  0.53188695  1
  O  O48  1  0.26877124  0.70293081  0.97219201  1
  O  O49  1  0.77120076  0.68872261  0.96921484  1
  O  O50  1  0.07297395  0.45402929  0.97010429  1
  O  O51  1  0.58345567  0.47257180  0.97414148  1
  O  O52  1  0.14179659  0.83073372  0.97356683  1
  O  O53  1  0.65899335  0.85481356  0.96884408  1
  O  O54  1  0.27036262  0.85362461  0.46810194  1
  O  O55  1  0.76755713  0.83182876  0.47225831  1
  O  O56  1  0.15901790  0.46433236  0.46788314  1
  O  O57  1  0.64176814  0.45190243  0.47167746  1
  O  O58  1  0.08392782  0.69374789  0.47346765  1
  O  O59  1  0.57226551  0.69309814  0.46856018  1
  O  O60  1  0.07521175  0.64563403  0.36060471  1
  O  O61  1  0.55850551  0.63552765  0.36413843  1
  O  O62  1  0.25672961  0.86598130  0.36285550  1
  O  O63  1  0.74902379  0.87223962  0.35884529  1
  O  O64  1  0.17996416  0.48947248  0.36262349  1
  O  O65  1  0.68390058  0.49109835  0.36056291  1
  O  O66  1  0.05784991  0.48225249  0.86555336  1
  O  O67  1  0.57596521  0.50559433  0.86109887  1
  O  O68  1  0.18253013  0.87219971  0.86231861  1
  O  O69  1  0.68113200  0.87471730  0.86363041  1
  O  O70  1  0.24802195  0.62413852  0.85972417  1
  O  O71  1  0.75759500  0.64289692  0.86402332  1
  O  O72  1  0.01019313  0.83395856  0.41076527  1
  O  O73  1  0.51119339  0.82071620  0.41015573  1
  O  O74  1  0.39759860  0.97719739  0.41077885  1
  O  O75  1  0.90614157  0.97134960  0.40814707  1
  O  O76  1  0.08988248  0.21215739  0.40998558  1
  O  O77  1  0.58031130  0.17113760  0.41153352  1
  O  O78  1  0.01024117  0.20275508  0.91209549  1
  O  O79  1  0.51032458  0.18554393  0.91123525  1
  O  O80  1  0.07997152  0.98852095  0.91292444  1
  O  O81  1  0.59003326  0.97030748  0.91128000  1
  O  O82  1  0.40672592  0.84159174  0.90917401  1
  O  O83  1  0.89859247  0.81916433  0.91204644  1
  O  O84  1  0.48971843  0.16560958  0.59141694  1
  O  O85  1  0.99009824  0.17307710  0.59199867  1
  O  O86  1  0.09677276  0.02551194  0.59089310  1
  O  O87  1  0.59776401  0.02143099  0.59156996  1
  O  O88  1  0.41994783  0.81743830  0.59728845  1
  O  O89  1  0.91682624  0.80819776  0.59105342  1
  O  O90  1  0.49034126  0.80724031  0.09210824  1
  O  O91  1  0.98760575  0.80258498  0.09073294  1
  O  O92  1  0.41468787  0.02153822  0.09083862  1
  O  O93  1  0.92030419  0.01948701  0.09640611  1
  O  O94  1  0.09568115  0.17169725  0.09300816  1
  O  O95  1  0.59905902  0.16958879  0.09031776  1
  O  O96  1  0.34540779  0.15446403  0.74277869  1
  O  O97  1  0.84031612  0.16140684  0.74125120  1
  O  O98  1  0.23119597  0.30152482  0.74332574  1
  O  O99  1  0.73958593  0.31856704  0.74157854  1
  O  O100  1  0.42411140  0.53305607  0.74586835  1
  O  O101  1  0.91676166  0.52234355  0.74150500  1
  O  O102  1  0.34027834  0.51876975  0.24085121  1
  O  O103  1  0.84799612  0.53917891  0.23941272  1
  O  O104  1  0.41718081  0.31069164  0.24121467  1
  O  O105  1  0.92518722  0.31637771  0.24136481  1
  O  O106  1  0.23879693  0.15872137  0.24041013  1
  O  O107  1  0.73144462  0.16113877  0.24203538  1
  O  O108  1  0.31809736  0.49380435  0.92449724  1
  O  O109  1  0.82220227  0.51122672  0.92201768  1
  O  O110  1  0.42821764  0.35401461  0.92002829  1
  O  O111  1  0.93306553  0.36512188  0.92460238  1
  O  O112  1  0.25105791  0.14781123  0.92670219  1
  O  O113  1  0.74597659  0.13185415  0.92160348  1
  O  O114  1  0.31848086  0.12896633  0.41808258  1
  O  O115  1  0.81820153  0.14198496  0.42402807  1
  O  O116  1  0.24633385  0.36183788  0.41963020  1
  O  O117  1  0.75139659  0.35311250  0.42539780  1
  O  O118  1  0.43215031  0.50454030  0.42152003  1
  O  O119  1  0.92745258  0.50082343  0.41984880  1
  O  O120  1  0.17114644  0.48083073  0.07914703  1
  O  O121  1  0.67570077  0.48196164  0.07881491  1
  O  O122  1  0.06614397  0.64595977  0.08073406  1
  O  O123  1  0.56696016  0.65105138  0.07840199  1
  O  O124  1  0.25775321  0.86387891  0.08057921  1
  O  O125  1  0.74954441  0.84366198  0.07774887  1
  O  O126  1  0.17347788  0.86708382  0.57843330  1
  O  O127  1  0.67559047  0.86803793  0.57836195  1
  O  O128  1  0.24999993  0.65791549  0.57685330  1
  O  O129  1  0.76056415  0.65443849  0.58025353  1
  O  O130  1  0.06670067  0.48243249  0.57837049  1
  O  O131  1  0.57853339  0.51008744  0.57968061  1
  O  O132  1  0.15046262  0.82164593  0.25826342  1
  O  O133  1  0.65394428  0.84750883  0.25057689  1
  O  O134  1  0.25748620  0.69161228  0.25920525  1
  O  O135  1  0.77146400  0.69891236  0.24991949  1
  O  O136  1  0.08037443  0.46161378  0.25406192  1
  O  O137  1  0.59137762  0.48979468  0.25119786  1
  O  O138  1  0.15257653  0.45935245  0.75157326  1
  O  O139  1  0.65041447  0.47576608  0.75851820  1
  O  O140  1  0.09076597  0.69234829  0.75216304  1
  O  O141  1  0.58042778  0.69582347  0.75692176  1
  O  O142  1  0.27102000  0.84207847  0.75129372  1
  O  O143  1  0.75828861  0.82315029  0.76094429  1
loop_
_geom_bond_atom_site_label_1
_geom_bond_atom_site_label_2
_geom_bond_distance
_geom_bond_site_symmetry_2
Na0 O80 2.428503 1_655
Na0 O111 2.469263 1_555
Na0 O83 2.520685 1_555
Na0 O9 2.568145 1_555
Na0 O109 2.599376 1_555
Na0 O52 2.746631 1_655
Na0 O66 2.798649 1_655
Na0 O39 2.946168 1_556
Na1 O82 2.396164 1_545
Na1 O112 2.458700 1_555
Na1 O79 2.512935 1_555
Na1 O110 2.520541 1_555
Na1 O10 2.811453 1_555
Na1 O68 2.830385 1_545
Na1 O40 2.833250 1_556
Na1 O48 2.863160 1_545
Na2 O108 2.332250 1_555
Na2 O80 2.455702 1_545
Na2 O112 2.484617 1_555
Na2 O78 2.529849 1_555
Na2 O6 2.754250 1_555
Na2 O70 2.778207 1_555
Na2 O36 2.854498 1_556
Na2 O50 2.986231 1_555
Na3 O77 2.463794 1_555
Na3 O118 2.471081 1_555
Na3 O74 2.551549 1_545
Na3 O46 2.623051 1_555
Na3 O114 2.639820 1_555
Na3 O57 2.643564 1_555
Na3 O4 2.771507 1_555
Na3 O61 2.889565 1_555
Na4 O115 2.337604 1_555
Na4 O77 2.454965 1_555
Na4 O117 2.487024 1_555
Na4 O73 2.498903 1_545
Na4 O43 2.796360 1_555
Na4 O63 2.824316 1_545
Na4 O1 2.838626 1_555
Na4 O59 2.914770 1_545
Na5 O75 2.399093 1_555
Na5 O117 2.453540 1_555
Na5 O72 2.542505 1_655
Na5 O119 2.543973 1_555
Na5 O45 2.766850 1_555
Na5 O55 2.799988 1_555
Na5 O65 2.841249 1_555
Na5 O3 2.914945 1_555
Na6 O75 2.538636 1_545
Na6 O72 2.539342 1_645
Na6 O76 2.645395 1_655
Na6 O86 2.746604 1_655
Na6 O89 2.746619 1_545
Na6 O85 2.752943 1_555
Na7 O77 2.547834 1_565
Na7 O84 2.650912 1_565
Na7 O74 2.669481 1_555
Na7 O73 2.681557 1_555
Na7 O87 2.706312 1_565
Na7 O88 2.711366 1_555
Na8 O80 2.461292 1_645
Na8 O78 2.594025 1_655
Na8 O83 2.603543 1_545
Na8 O93 2.741513 1_556
Na8 O94 2.751725 1_656
Na8 O91 2.758472 1_546
Na9 O82 2.467399 1_555
Na9 O79 2.482771 1_565
Na9 O81 2.576730 1_555
Na9 O92 2.792037 1_566
Na9 O95 2.801078 1_566
Na9 O90 2.803957 1_556
Na10 O110 2.503195 1_555
Na10 O108 2.565887 1_555
Na10 O100 2.643622 1_555
Na10 O112 2.676353 1_555
Na10 O98 2.749794 1_555
Na10 O96 2.786136 1_555
Na11 O99 2.432433 1_555
Na11 O97 2.452764 1_555
Na11 O101 2.523867 1_555
Na11 O113 2.799345 1_555
Na11 O109 2.877422 1_555
Na11 O111 2.913221 1_555
Na12 O102 2.512896 1_555
Na12 O106 2.543526 1_555
Na12 O104 2.595833 1_555
Na12 O116 2.695306 1_555
Na12 O114 2.758507 1_555
Na12 O118 2.775054 1_555
Na13 O119 2.417049 1_555
Na13 O115 2.467722 1_555
Na13 O117 2.549320 1_555
Na13 O105 2.830181 1_555
Na13 O107 2.847460 1_555
Na13 O103 2.944654 1_555
Na14 O124 2.583673 1_555
Na14 O134 2.587224 1_555
Na14 O132 2.634981 1_555
Na14 O120 2.642072 1_555
Na14 O122 2.656243 1_555
Na14 O136 2.681882 1_555
Na15 O137 2.411639 1_555
Na15 O133 2.571454 1_555
Na15 O135 2.587950 1_555
Na15 O125 2.608815 1_555
Na15 O123 2.670084 1_555
Na15 O121 2.711473 1_555
Na16 O140 2.473103 1_555
Na16 O128 2.580775 1_555
Na16 O142 2.591452 1_555
Na16 O138 2.598927 1_555
Na16 O130 2.681877 1_555
Na16 O126 2.709244 1_555
Na17 O131 2.337328 1_555
Na17 O129 2.572351 1_555
Na17 O127 2.589040 1_555
Na17 O139 2.748151 1_555
Na17 O141 2.774578 1_555
Na17 O143 2.822357 1_555
Nb0 O16 1.838772 1_655
Nb0 O13 1.865582 1_555
Nb0 O14 2.063521 1_665
Nb0 O89 2.068989 1_555
Nb0 O86 2.192173 1_665
Nb0 O85 2.203421 1_565
Nb1 O84 1.854569 1_555
Nb1 O88 1.924128 1_545
Nb1 O15 1.927860 1_555
Nb1 O87 2.076317 1_555
Nb1 O12 2.084413 1_545
Nb1 O17 2.335912 1_545
Nb2 O22 1.899402 1_555
Nb2 O93 1.931800 1_465
Nb2 O19 2.023277 1_455
Nb2 O94 2.050738 1_565
Nb2 O91 2.076703 1_455
Nb2 O20 2.121944 1_565
Nb3 O21 1.833303 1_555
Nb3 O18 1.851575 1_545
Nb3 O23 2.069523 1_545
Nb3 O92 2.076528 1_555
Nb3 O90 2.195719 1_545
Nb3 O95 2.241080 1_555
Nb4 O60 1.880550 1_555
Nb4 O132 1.911490 1_555
Nb4 O134 1.987792 1_555
Nb4 O62 2.056181 1_555
Nb4 O64 2.162506 1_555
Nb4 O136 2.183045 1_555
Nb5 O139 1.873181 1_555
Nb5 O67 1.894867 1_555
Nb5 O143 1.962493 1_555
Nb5 O141 2.047991 1_555
Nb5 O71 2.185951 1_555
Nb5 O69 2.253074 1_555
O0 Si0 1.580253 1_555
O0 Sc0 1.966638 1_545
O1 S0 1.470659 1_555
O1 Sc1 2.178408 1_555
O2 Si1 1.584600 1_555
O2 Sc1 1.951228 1_565
O3 S1 1.462314 1_555
O3 Sc0 2.237097 1_655
O4 Si2 1.616894 1_555
O4 Sc1 1.938642 1_555
O5 S2 1.447578 1_555
O5 Sc0 2.260318 1_645
O6 S3 1.482042 1_555
O6 Sc2 2.139100 1_445
O7 Si3 1.586861 1_555
O7 Sc3 1.943319 1_555
O8 S4 1.457058 1_555
O8 Sc3 2.200591 1_565
O9 Si4 1.625621 1_655
O9 Sc2 1.936064 1_555
O10 S5 1.477165 1_555
O10 Sc3 2.178856 1_555
O11 Si5 1.590356 1_555
O11 Sc2 1.935665 1_545
O12 S5 1.510584 1_565
O13 Si5 1.712214 1_565
O14 S3 1.530475 1_555
O15 Si3 1.651644 1_555
O16 Si4 1.737307 1_555
O17 S4 1.469150 1_555
O18 Si1 1.726148 1_555
O19 S1 1.543668 1_555
O20 S2 1.513351 1_455
O21 Si2 1.753072 1_555
O22 Si0 1.686783 1_565
O23 S0 1.526352 1_565
O24 Si6 1.608137 1_555
O24 Sc4 1.910519 1_555
O25 S6 1.460760 1_555
O25 Sc5 2.207869 1_555
O26 S7 1.468583 1_555
O26 Sc4 2.153027 1_555
O27 S8 1.459927 1_555
O27 Sc5 2.200598 1_555
O28 Si7 1.611468 1_555
O28 Sc4 1.906670 1_555
O29 S9 1.454270 1_555
O29 Sc5 2.208213 1_555
O30 S10 1.461011 1_555
O30 Sc6 2.209468 1_555
O31 S11 1.467583 1_555
O31 Sc7 2.152917 1_555
O32 S12 1.454435 1_555
O32 Sc6 2.220145 1_555
O33 Si8 1.622606 1_555
O33 Sc7 1.873464 1_555
O34 S13 1.454948 1_555
O34 Sc6 2.247208 1_555
O35 S14 1.478356 1_555
O35 Sc7 2.097440 1_555
O36 S13 1.469955 1_555
O36 Sc8 2.377455 1_554
O37 S14 1.482571 1_555
O37 Sc9 2.123872 1_554
O38 S10 1.472880 1_555
O38 Sc8 2.171423 1_554
O39 S11 1.480414 1_555
O39 Sc9 2.267329 1_554
O40 S12 1.469716 1_555
O40 Sc8 2.327669 1_554
O41 Si8 1.635999 1_555
O41 Sc9 1.887190 1_554
O42 S7 1.477924 1_555
O42 Sc10 2.157802 1_555
O43 S8 1.478507 1_555
O43 Sc11 2.297599 1_555
O44 Si7 1.630924 1_555
O44 Sc10 1.897985 1_555
O45 S9 1.474019 1_555
O45 Sc11 2.318210 1_555
O46 Si6 1.637168 1_555
O46 Sc10 1.980541 1_555
O47 S6 1.473315 1_555
O47 Sc11 2.163606 1_555
O48 Si9 1.649014 1_555
O48 Sc12 1.893823 1_556
O49 S15 1.463689 1_555
O49 Sc13 2.144466 1_556
O50 S16 1.483404 1_555
O50 Sc12 2.159490 1_556
O51 Si10 1.604537 1_555
O51 Sc13 1.928817 1_556
O52 Si11 1.638424 1_555
O52 Sc12 1.930795 1_556
O53 S17 1.473265 1_555
O53 Sc13 2.117147 1_556
O54 S18 1.455305 1_555
O54 Sc14 2.170711 1_555
O55 Si12 1.628865 1_555
O55 Sc15 1.987723 1_555
O56 S19 1.470029 1_555
O56 Sc14 2.136895 1_555
O57 Si13 1.621860 1_555
O57 Sc15 1.946553 1_555
O58 Si14 1.595550 1_555
O58 Sc14 1.953332 1_555
O59 S20 1.478698 1_555
O59 Sc15 2.189698 1_555
O60 Si14 1.706926 1_555
O61 S20 1.481360 1_555
O61 Sc16 2.187167 1_555
O62 S18 1.522801 1_555
O63 Si12 1.639261 1_555
O63 Sc16 1.982095 1_555
O64 S19 1.510826 1_555
O65 Si13 1.633613 1_555
O65 Sc16 1.935799 1_555
O66 S16 1.473479 1_555
O66 Sc17 2.261796 1_555
O67 Si10 1.690384 1_555
O68 Si11 1.628692 1_555
O68 Sc17 1.952269 1_555
O69 S17 1.484362 1_555
O70 Si9 1.627290 1_555
O70 Sc17 2.000678 1_555
O71 S15 1.498406 1_555
O72 Si14 1.622481 1_555
O72 Sc0 1.974990 1_555
O73 S20 1.485779 1_555
O73 Sc1 2.283284 1_565
O74 S18 1.489000 1_555
O74 Sc1 2.199395 1_565
O75 Si12 1.632009 1_555
O75 Sc0 2.012065 1_655
O76 S19 1.479556 1_555
O76 Sc0 2.123108 1_545
O77 Si13 1.652431 1_555
O77 Sc1 2.076105 1_555
O78 S16 1.480265 1_555
O78 Sc2 2.337979 1_445
O79 Si10 1.620378 1_555
O79 Sc3 2.004674 1_555
O80 Si11 1.650993 1_555
O80 Sc2 2.118388 1_455
O81 S17 1.473922 1_555
O81 Sc3 2.172078 1_565
O82 Si9 1.621309 1_555
O82 Sc3 2.049297 1_565
O83 S15 1.492680 1_555
O83 Sc2 2.234853 1_555
O84 Si6 1.725393 1_555
O85 S6 1.521098 1_555
O86 S7 1.519515 1_555
O87 S8 1.539170 1_555
O88 Si7 1.685765 1_555
O89 S9 1.552643 1_555
O90 S10 1.522176 1_555
O91 S11 1.541299 1_555
O92 S12 1.548017 1_555
O93 Si8 1.692729 1_555
O94 S13 1.560671 1_555
O95 S14 1.506607 1_555
O96 S5 1.473790 1_555
O96 Sc4 2.291584 1_555
O97 Si5 1.584638 1_555
O97 Sc5 1.977897 1_555
O98 S3 1.472763 1_555
O98 Sc4 2.265923 1_555
O99 Si3 1.585005 1_555
O99 Sc5 1.987191 1_555
O100 S4 1.476501 1_555
O100 Sc4 2.216542 1_555
O101 Si4 1.595371 1_655
O101 Sc5 1.956737 1_555
O102 Si1 1.585883 1_555
O102 Sc6 1.962599 1_555
O103 S1 1.473265 1_555
O103 Sc7 2.245415 1_555
O104 Si2 1.599576 1_555
O104 Sc6 1.937308 1_555
O105 S2 1.479755 1_555
O105 Sc7 2.177163 1_555
O106 Si0 1.584640 1_555
O106 Sc6 1.986440 1_555
O107 S0 1.490932 1_555
O107 Sc7 2.110451 1_555
O108 Si9 1.633628 1_555
O108 Sc8 1.937807 1_555
O109 S15 1.496152 1_555
O109 Sc9 2.356718 1_555
O110 Si10 1.629893 1_555
O110 Sc8 1.981591 1_555
O111 S16 1.509949 1_655
O111 Sc9 2.154274 1_555
O112 Si11 1.631810 1_545
O112 Sc8 2.020576 1_555
O113 S17 1.503906 1_545
O113 Sc9 2.107332 1_555
O114 S18 1.477769 1_545
O114 Sc10 2.441395 1_555
O115 Si12 1.639509 1_545
O115 Sc11 1.944289 1_555
O116 S19 1.480164 1_555
O116 Sc10 2.309542 1_555
O117 Si13 1.633813 1_555
O117 Sc11 2.030843 1_555
O118 S20 1.498103 1_555
O118 Sc10 2.219095 1_555
O119 Si14 1.624125 1_655
O119 Sc11 2.012951 1_555
O120 S13 1.477693 1_555
O120 Sc12 2.331702 1_555
O121 S14 1.471710 1_555
O121 Sc13 2.213981 1_555
O122 S11 1.466452 1_455
O122 Sc12 2.349385 1_555
O123 S10 1.485701 1_555
O123 Sc13 2.173497 1_555
O124 S12 1.484625 1_565
O124 Sc12 2.211292 1_555
O125 Si8 1.602264 1_565
O125 Sc13 2.040753 1_555
O126 S7 1.477849 1_565
O126 Sc14 2.186176 1_555
O127 S8 1.468817 1_565
O127 Sc15 2.321184 1_555
O128 Si7 1.617797 1_555
O128 Sc14 1.996204 1_555
O129 S9 1.472074 1_555
O129 Sc15 2.223205 1_555
O130 S6 1.484930 1_455
O130 Sc14 2.157340 1_555
O131 Si6 1.603263 1_555
O131 Sc15 2.062310 1_555
O132 Si0 1.692927 1_565
O133 S0 1.457216 1_565
O133 Sc16 2.395576 1_555
O134 Si1 1.653896 1_555
O135 S1 1.466502 1_555
O135 Sc16 2.273618 1_555
O136 S2 1.507632 1_455
O137 Si2 1.603789 1_555
O137 Sc16 2.089172 1_555
O138 S3 1.464925 1_555
O138 Sc17 2.355169 1_555
O139 Si3 1.710953 1_555
O140 Si4 1.606628 1_555
O140 Sc17 2.055441 1_555
O141 S4 1.544874 1_555
O142 S5 1.477551 1_565
O142 Sc17 2.186837 1_555
O143 Si5 1.660122 1_565
