# generated using pymatgen
data_BaHI
_symmetry_space_group_name_H-M   'P 1'
_cell_length_a   4.77580877
_cell_length_b   4.77580877
_cell_length_c   7.80022709
_cell_angle_alpha   90.00000000
_cell_angle_beta   90.00000000
_cell_angle_gamma   90.00000000
_symmetry_Int_Tables_number   1
_chemical_formula_structural   BaHI
_chemical_formula_sum   'Ba2 H2 I2'
_cell_volume   177.91030493
_cell_formula_units_Z   2
loop_
 _symmetry_equiv_pos_site_id
 _symmetry_equiv_pos_as_xyz
  1  'x, y, z'
loop_
 _atom_site_type_symbol
 _atom_site_label
 _atom_site_symmetry_multiplicity
 _atom_site_fract_x
 _atom_site_fract_y
 _atom_site_fract_z
 _atom_site_occupancy
  Ba  Ba0  1  0.50000000  -0.00000000  0.82689580  1
  Ba  Ba1  1  0.00000000  0.50000000  0.17310420  1
  H  H0  1  0.50000000  0.50000000  0.00000000  1
  H  H1  1  0.00000000  0.00000000  0.00000000  1
  I  I0  1  0.00000000  0.50000000  0.65956600  1
  I  I1  1  0.50000000  -0.00000000  0.34043400  1
loop_
_geom_bond_atom_site_label_1
_geom_bond_atom_site_label_2
_geom_bond_distance
_geom_bond_site_symmetry_2
Ba0 H1 2.743222 1_556
Ba0 H0 2.743222 1_546
Ba0 H1 2.743222 1_656
Ba0 H0 2.743222 1_556
Ba0 I0 3.620463 1_655
Ba0 I0 3.620463 1_645
Ba0 I0 3.620463 1_545
Ba0 I0 3.620463 1_555
Ba0 I1 3.794513 1_555
Ba1 H1 2.743222 1_555
Ba1 H1 2.743222 1_565
Ba1 H0 2.743222 1_455
Ba1 H0 2.743222 1_555
Ba1 I1 3.620463 1_555
Ba1 I1 3.620463 1_465
Ba1 I1 3.620463 1_455
Ba1 I1 3.620463 1_565
Ba1 I0 3.794513 1_555
