# generated using pymatgen
data_Na6La2Sc2Si3(SO8)3
_symmetry_space_group_name_H-M   'P 1'
_cell_length_a   9.45539142
_cell_length_b   9.39325126
_cell_length_c   23.50496671
_cell_angle_alpha   90.42431019
_cell_angle_beta   89.95225602
_cell_angle_gamma   119.82788713
_symmetry_Int_Tables_number   1
_chemical_formula_structural   Na6La2Sc2Si3(SO8)3
_chemical_formula_sum   'Na18 La6 Sc6 Si9 S9 O72'
_cell_volume   1811.01508432
_cell_formula_units_Z   3
loop_
 _symmetry_equiv_pos_site_id
 _symmetry_equiv_pos_as_xyz
  1  'x, y, z'
loop_
 _atom_site_type_symbol
 _atom_site_label
 _atom_site_symmetry_multiplicity
 _atom_site_fract_x
 _atom_site_fract_y
 _atom_site_fract_z
 _atom_site_occupancy
  Na  Na0  1  0.63436077  0.00752961  0.26246191  1
  Na  Na1  1  0.34715888  0.35234741  0.25729810  1
  Na  Na2  1  0.65176749  0.64653682  0.73166967  1
  Na  Na3  1  0.97380255  0.36062354  0.73962330  1
  Na  Na4  1  0.01767260  0.68344494  0.59358309  1
  Na  Na5  1  0.68028561  0.96880523  0.58369059  1
  Na  Na6  1  0.31453144  0.97255969  0.10009772  1
  Na  Na7  1  0.01734685  0.31807472  0.08577194  1
  Na  Na8  1  0.97068330  0.64858989  0.89739834  1
  Na  Na9  1  0.71414609  0.04625941  0.90819491  1
  Na  Na10  1  0.94952695  0.28903415  0.42064697  1
  Na  Na11  1  0.35025843  0.03270165  0.41251565  1
  Na  Na12  1  0.97049580  0.99263040  0.50870407  1
  Na  Na13  1  0.98534120  0.01986252  0.99825268  1
  Na  Na14  1  0.67413992  0.32375846  0.81622625  1
  Na  Na15  1  0.67498352  0.33304901  0.33719298  1
  Na  Na16  1  0.32350564  0.67633051  0.17835414  1
  Na  Na17  1  0.33280717  0.66446512  0.66354584  1
  La  La0  1  0.00284270  0.01322305  0.83713680  1
  La  La1  1  0.99347951  0.00054846  0.16382673  1
  La  La2  1  0.67399997  0.33098316  0.98641582  1
  La  La3  1  0.34110433  0.65981972  0.01874183  1
  La  La4  1  0.35200333  0.65897248  0.51841633  1
  La  La5  1  0.32112302  0.67074242  0.80713965  1
  Sc  Sc0  1  0.99315063  0.00643064  0.34533226  1
  Sc  Sc1  1  0.98552049  0.99083343  0.64797100  1
  Sc  Sc2  1  0.67810143  0.34046648  0.68013665  1
  Sc  Sc3  1  0.67007858  0.31511838  0.19271963  1
  Sc  Sc4  1  0.67762336  0.33410135  0.48956991  1
  Sc  Sc5  1  0.32932695  0.68533580  0.31720368  1
  Si  Si0  1  0.30360553  0.00142924  0.25061348  1
  Si  Si1  1  0.00949653  0.31530973  0.25104984  1
  Si  Si2  1  0.98743282  0.69271868  0.74580454  1
  Si  Si3  1  0.69744293  0.00636381  0.74553907  1
  Si  Si4  1  0.96015799  0.32796799  0.58408666  1
  Si  Si5  1  0.67776261  0.62750253  0.58647732  1
  Si  Si6  1  0.66606055  0.03077898  0.08707377  1
  Si  Si7  1  0.02788111  0.35771016  0.91917223  1
  Si  Si8  1  0.64024465  0.97456463  0.41491000  1
  S  S0  1  0.68674916  0.68983280  0.25458247  1
  S  S1  1  0.30891910  0.29570168  0.74268332  1
  S  S2  1  0.37461177  0.05112870  0.58273915  1
  S  S3  1  0.96557108  0.63338725  0.08746370  1
  S  S4  1  0.36842689  0.32988720  0.09041265  1
  S  S5  1  0.64645264  0.67228329  0.91330859  1
  S  S6  1  0.32596791  0.96912576  0.92025351  1
  S  S7  1  0.32841377  0.35473602  0.40977467  1
  S  S8  1  0.03422959  0.67092170  0.41489044  1
  O  O0  1  0.19479566  0.02369990  0.30086724  1
  O  O1  1  0.80220424  0.78172478  0.30107368  1
  O  O2  1  0.97277584  0.17131389  0.29883828  1
  O  O3  1  0.25108303  0.21991551  0.79954213  1
  O  O4  1  0.97989881  0.76732612  0.80928480  1
  O  O5  1  0.78874563  0.03613550  0.80864704  1
  O  O6  1  0.81552561  0.99366889  0.69635063  1
  O  O7  1  0.19255062  0.19686310  0.69775301  1
  O  O8  1  0.00327528  0.81886331  0.69554899  1
  O  O9  1  0.74337115  0.78345084  0.20074988  1
  O  O10  1  0.05140137  0.25569866  0.19035158  1
  O  O11  1  0.21333537  0.97256084  0.18893678  1
  O  O12  1  0.86447216  0.34840341  0.63910015  1
  O  O13  1  0.47908436  0.13857042  0.63172545  1
  O  O14  1  0.65914594  0.52450222  0.64369956  1
  O  O15  1  0.86015861  0.52905296  0.13353232  1
  O  O16  1  0.65818034  0.14665581  0.13953789  1
  O  O17  1  0.46777927  0.33814172  0.13990262  1
  O  O18  1  0.44955579  0.33198871  0.03625044  1
  O  O19  1  0.88911785  0.56910598  0.03092165  1
  O  O20  1  0.67831912  0.12136864  0.02590331  1
  O  O21  1  0.45214446  0.14007337  0.52850078  1
  O  O22  1  0.68593481  0.52141478  0.53096214  1
  O  O23  1  0.84791844  0.30452564  0.52538394  1
  O  O24  1  0.56215703  0.68436621  0.96532341  1
  O  O25  1  0.11810130  0.44555243  0.98030580  1
  O  O26  1  0.31993889  0.88152918  0.97377543  1
  O  O27  1  0.56621459  0.87613901  0.47421945  1
  O  O28  1  0.29326133  0.42402001  0.46114695  1
  O  O29  1  0.12933187  0.70182532  0.46825869  1
  O  O30  1  0.12484393  0.64414558  0.36737986  1
  O  O31  1  0.51189157  0.87155257  0.36206952  1
  O  O32  1  0.35006554  0.45875622  0.35994414  1
  O  O33  1  0.12718945  0.47353682  0.86521021  1
  O  O34  1  0.34713677  0.88217034  0.87121809  1
  O  O35  1  0.55405998  0.66451057  0.86212932  1
  O  O36  1  0.01790108  0.81734764  0.40343120  1
  O  O37  1  0.82727547  0.00468502  0.40377366  1
  O  O38  1  0.18031357  0.18629370  0.40296753  1
  O  O39  1  0.99685114  0.16987841  0.91814502  1
  O  O40  1  0.17156941  0.97195338  0.91650066  1
  O  O41  1  0.81152271  0.82203969  0.91450230  1
  O  O42  1  0.97120704  0.15861297  0.58822753  1
  O  O43  1  0.20840989  0.02884736  0.58694317  1
  O  O44  1  0.85032475  0.80942945  0.58656320  1
  O  O45  1  0.00168748  0.80578863  0.09051865  1
  O  O46  1  0.83571111  0.02284901  0.08976380  1
  O  O47  1  0.20687405  0.17432861  0.08933430  1
  O  O48  1  0.67780452  0.16819280  0.73800868  1
  O  O49  1  0.47386118  0.31939983  0.73592711  1
  O  O50  1  0.81739861  0.51255469  0.74337062  1
  O  O51  1  0.66856782  0.52405312  0.24835305  1
  O  O52  1  0.83624786  0.31947900  0.24670402  1
  O  O53  1  0.48595207  0.17445165  0.24841910  1
  O  O54  1  0.66671893  0.52556876  0.91577293  1
  O  O55  1  0.84557759  0.34675670  0.91551896  1
  O  O56  1  0.47023862  0.13660251  0.92020958  1
  O  O57  1  0.65106470  0.15925627  0.41815017  1
  O  O58  1  0.47326500  0.33400027  0.41728471  1
  O  O59  1  0.87248094  0.51670055  0.41866673  1
  O  O60  1  0.33800932  0.47150363  0.09269545  1
  O  O61  1  0.12479305  0.63284450  0.09025430  1
  O  O62  1  0.48999518  0.85674685  0.08968271  1
  O  O63  1  0.35953489  0.88358550  0.58051598  1
  O  O64  1  0.52826031  0.67103969  0.58517253  1
  O  O65  1  0.13355507  0.50374737  0.58023682  1
  O  O66  1  0.34163864  0.84867699  0.25980788  1
  O  O67  1  0.52156900  0.66975934  0.26495810  1
  O  O68  1  0.17444224  0.48957529  0.26586086  1
  O  O69  1  0.31994607  0.46117962  0.74320373  1
  O  O70  1  0.13931149  0.65335389  0.74100812  1
  O  O71  1  0.52925814  0.82655948  0.74452783  1
loop_
_geom_bond_atom_site_label_1
_geom_bond_atom_site_label_2
_geom_bond_distance
_geom_bond_site_symmetry_2
Na0 O66 2.404490 1_545
Na0 O53 2.594946 1_555
Na0 O52 2.611095 1_555
Na0 O31 2.649968 1_545
Na0 O67 2.800680 1_545
Na0 O2 2.902555 1_555
Na1 O68 2.541425 1_555
Na1 O53 2.594999 1_555
Na1 O67 2.596687 1_555
Na1 O32 2.599606 1_555
Na1 O51 2.647501 1_555
Na1 O0 2.876520 1_555
Na1 O10 2.929395 1_555
Na1 O17 3.012214 1_555
Na2 O14 2.374576 1_555
Na2 O50 2.465521 1_555
Na2 O71 2.496618 1_555
Na2 O49 2.672899 1_555
Na2 O69 2.742292 1_555
Na3 O70 2.393525 1_655
Na3 O48 2.463414 1_555
Na3 O50 2.515737 1_555
Na3 O12 2.558640 1_555
Na3 O69 2.921510 1_655
Na4 O44 2.407819 1_455
Na4 O65 2.445325 1_555
Na4 O8 2.739949 1_555
Na4 O43 2.826583 1_565
Na4 O63 2.835305 1_555
Na4 O12 2.942721 1_455
Na5 O42 2.423992 1_565
Na5 O64 2.427422 1_555
Na5 O44 2.688272 1_555
Na5 O63 2.725575 1_555
Na5 O27 2.753077 1_555
Na5 O6 2.898518 1_555
Na6 O11 2.296225 1_555
Na6 O62 2.405563 1_555
Na6 O47 2.572743 1_565
Na6 O45 2.577007 1_555
Na6 O61 2.783796 1_555
Na7 O46 2.431944 1_455
Na7 O10 2.588391 1_555
Na7 O61 2.606288 1_555
Na7 O60 2.635697 1_555
Na7 O25 2.718817 1_554
Na7 O47 2.729589 1_555
Na8 O4 2.340565 1_555
Na8 O55 2.509929 1_555
Na8 O54 2.546317 1_555
Na8 O40 2.697654 1_655
Na8 O41 2.740318 1_555
Na8 O33 2.804715 1_655
Na9 O39 2.336167 1_555
Na9 O5 2.458101 1_555
Na9 O55 2.458655 1_555
Na9 O41 2.690644 1_545
Na9 O56 2.839178 1_555
Na9 O20 2.911117 1_556
Na10 O37 2.353979 1_555
Na10 O57 2.455714 1_555
Na10 O59 2.580216 1_555
Na10 O23 2.671084 1_555
Na10 O38 2.820190 1_655
Na10 O28 2.994170 1_655
Na11 O58 2.469038 1_555
Na11 O57 2.480964 1_555
Na11 O38 2.650582 1_555
Na11 O36 2.772031 1_545
Na11 O31 2.881801 1_545
Na11 O21 2.893906 1_555
Na11 O0 2.989037 1_555
Na11 O29 3.055687 1_545
Na12 O44 2.387389 1_555
Na12 O42 2.423058 1_565
Na12 O43 2.791876 1_665
Na12 O37 2.844643 1_565
Na13 O39 2.330091 1_555
Na13 O46 2.581211 1_556
Na13 O41 2.634840 1_545
Na13 O40 2.786659 1_645
Na13 O47 2.830949 1_656
Na13 O45 3.024075 1_646
Na14 O48 2.350971 1_555
Na14 O50 2.358772 1_555
Na14 O49 2.660432 1_555
Na14 O55 2.787791 1_555
Na15 O57 2.452582 1_555
Na15 O59 2.623525 1_555
Na15 O52 2.655018 1_555
Na15 O53 2.660705 1_555
Na15 O58 2.681922 1_555
Na15 O51 2.783365 1_555
Na16 O66 2.448326 1_555
Na16 O68 2.623639 1_555
Na16 O62 2.662152 1_555
Na16 O61 2.686215 1_555
Na16 O67 2.788913 1_555
Na16 O60 2.824710 1_555
Na17 O70 2.545717 1_555
Na17 O71 2.557607 1_555
Na17 O64 2.587522 1_555
Na17 O65 2.606909 1_555
Na17 O69 2.643542 1_555
Na17 O63 2.765915 1_555
La0 O5 2.242911 1_455
La0 O4 2.300011 1_445
La0 O3 2.355477 1_555
La0 O39 2.415649 1_455
La0 O41 2.572060 1_445
La0 O40 2.608888 1_545
La1 O10 2.259524 1_655
La1 O11 2.299343 1_645
La1 O46 2.370732 1_555
La1 O9 2.393683 1_545
La1 O45 2.533031 1_645
La1 O47 2.561555 1_655
La2 O20 2.201606 1_556
La2 O55 2.278362 1_555
La2 O19 2.382775 1_556
La2 O18 2.427257 1_556
La2 O56 2.435336 1_555
La2 O54 2.504597 1_555
La3 O25 2.251136 1_554
La3 O24 2.349228 1_554
La3 O62 2.356210 1_555
La3 O26 2.437587 1_554
La3 O60 2.478998 1_555
La3 O61 2.560846 1_555
La4 O64 2.250825 1_555
La4 O27 2.293583 1_555
La4 O65 2.352483 1_555
La4 O28 2.393543 1_555
La4 O63 2.528279 1_555
La4 O29 2.615170 1_555
La5 O70 2.262646 1_555
La5 O33 2.304599 1_555
La5 O71 2.311440 1_555
La5 O34 2.396574 1_555
La5 O69 2.463308 1_555
La5 O35 2.580549 1_555
O0 Si0 1.644980 1_555
O0 Sc0 2.108415 1_455
O1 S0 1.477021 1_555
O1 Sc0 2.230850 1_565
O2 Si1 1.663263 1_655
O2 Sc0 1.988066 1_555
O3 S1 1.489150 1_555
O4 Si2 1.660292 1_555
O5 Si3 1.667228 1_555
O6 Si3 1.651006 1_565
O6 Sc1 1.979033 1_555
O7 S1 1.469402 1_555
O7 Sc1 2.268946 1_445
O8 Si2 1.632689 1_455
O8 Sc1 2.045738 1_455
O9 S0 1.485937 1_555
O10 Si1 1.647412 1_555
O11 Si0 1.633925 1_565
O12 Si4 1.641535 1_555
O12 Sc2 1.977082 1_555
O13 S2 1.468660 1_555
O13 Sc2 2.203170 1_555
O14 Si5 1.620357 1_555
O14 Sc2 2.020996 1_555
O15 S3 1.472634 1_555
O15 Sc3 2.376602 1_555
O16 Si6 1.664826 1_555
O16 Sc3 1.968021 1_555
O17 S4 1.472995 1_555
O17 Sc3 2.380405 1_555
O18 S4 1.480965 1_555
O19 S3 1.486255 1_555
O20 Si6 1.650619 1_555
O21 S2 1.505217 1_555
O21 Sc4 2.204644 1_555
O22 Si5 1.660991 1_555
O22 Sc4 1.971231 1_555
O23 Si4 1.686449 1_555
O23 Sc4 1.956863 1_555
O24 S5 1.493066 1_555
O25 Si7 1.660608 1_555
O26 S6 1.493810 1_555
O27 Si8 1.631514 1_555
O28 S7 1.481541 1_555
O29 S8 1.484338 1_555
O30 S8 1.501023 1_555
O30 Sc5 2.130195 1_555
O31 Si8 1.663814 1_555
O31 Sc5 2.030653 1_555
O32 S7 1.478524 1_555
O32 Sc5 2.454508 1_555
O33 Si7 1.635961 1_555
O34 S6 1.477822 1_555
O35 S5 1.467192 1_555
O36 S8 1.484910 1_555
O36 Sc0 2.350353 1_465
O37 Si8 1.666903 1_545
O37 Sc0 2.078053 1_555
O38 S7 1.510793 1_555
O38 Sc0 2.194825 1_455
O39 Si7 1.638297 1_655
O40 S6 1.476012 1_555
O41 S5 1.493665 1_555
O42 Si4 1.648834 1_555
O42 Sc1 2.172401 1_545
O43 S2 1.481906 1_555
O43 Sc1 2.425012 1_445
O44 Si5 1.675928 1_555
O44 Sc1 2.102563 1_555
O45 S3 1.480689 1_455
O46 Si6 1.643724 1_555
O47 S4 1.499411 1_555
O48 Si3 1.631365 1_555
O48 Sc2 2.120625 1_555
O49 S1 1.470322 1_555
O49 Sc2 2.260020 1_555
O50 Si2 1.656543 1_555
O50 Sc2 2.099183 1_555
O51 S0 1.485346 1_555
O51 Sc3 2.356212 1_555
O52 Si1 1.661207 1_655
O52 Sc3 2.004738 1_555
O53 Si0 1.682351 1_555
O53 Sc3 2.055326 1_555
O54 S5 1.484324 1_555
O55 Si7 1.677189 1_655
O56 S6 1.483535 1_545
O57 Si8 1.687448 1_545
O57 Sc4 2.264530 1_555
O58 S7 1.487032 1_555
O58 Sc4 2.573746 1_555
O59 S8 1.497718 1_655
O59 Sc4 2.451026 1_555
O60 S4 1.494874 1_555
O61 S3 1.509530 1_455
O62 Si6 1.655775 1_565
O63 S2 1.508453 1_565
O64 Si5 1.655840 1_555
O65 Si4 1.652722 1_455
O66 Si0 1.659164 1_565
O66 Sc5 2.010073 1_555
O67 S0 1.497154 1_555
O67 Sc5 2.256497 1_555
O68 Si1 1.638876 1_555
O68 Sc5 2.067263 1_555
O69 S1 1.505192 1_555
O70 Si2 1.655021 1_455
O71 Si3 1.646090 1_565
