# generated using pymatgen
data_NbGa3SiS5O24
_symmetry_space_group_name_H-M   'P 1'
_cell_length_a   8.58121621
_cell_length_b   8.60813498
_cell_length_c   22.24413655
_cell_angle_alpha   90.03381594
_cell_angle_beta   89.93156551
_cell_angle_gamma   119.99801601
_symmetry_Int_Tables_number   1
_chemical_formula_structural   NbGa3SiS5O24
_chemical_formula_sum   'Nb3 Ga9 Si3 S15 O72'
_cell_volume   1423.02480164
_cell_formula_units_Z   3
loop_
 _symmetry_equiv_pos_site_id
 _symmetry_equiv_pos_as_xyz
  1  'x, y, z'
loop_
 _atom_site_type_symbol
 _atom_site_label
 _atom_site_symmetry_multiplicity
 _atom_site_fract_x
 _atom_site_fract_y
 _atom_site_fract_z
 _atom_site_occupancy
  Nb  Nb0  1  0.67260313  0.33939309  0.97504778  1
  Nb  Nb1  1  0.33252253  0.67291549  0.30722647  1
  Nb  Nb2  1  0.32990809  0.65633119  0.81287812  1
  Ga  Ga0  1  0.01022394  0.00395918  0.35106378  1
  Ga  Ga1  1  0.99306088  0.99962471  0.85805793  1
  Ga  Ga2  1  0.99919977  0.99884924  0.64624941  1
  Ga  Ga3  1  0.00738094  0.99714981  0.14423210  1
  Ga  Ga4  1  0.66813860  0.33407150  0.68589347  1
  Ga  Ga5  1  0.65551167  0.32284221  0.18589175  1
  Ga  Ga6  1  0.66528676  0.33320360  0.48115309  1
  Ga  Ga7  1  0.33731465  0.65824553  0.01941465  1
  Ga  Ga8  1  0.33349496  0.66528598  0.52095167  1
  Si  Si0  1  0.28815276  0.01909095  0.24765210  1
  Si  Si1  1  0.62722819  0.67870960  0.91967463  1
  Si  Si2  1  0.05304876  0.37255971  0.91958530  1
  S  S0  1  0.72012933  0.71162543  0.24912434  1
  S  S1  1  0.99122080  0.28127419  0.24924184  1
  S  S2  1  0.28896387  0.28066981  0.74821391  1
  S  S3  1  0.99486836  0.71205186  0.74829971  1
  S  S4  1  0.71513711  0.00687838  0.74778537  1
  S  S5  1  0.95685579  0.33290764  0.58312940  1
  S  S6  1  0.37616628  0.04269367  0.58326944  1
  S  S7  1  0.66699137  0.62379870  0.58328913  1
  S  S8  1  0.95935564  0.62466098  0.08576834  1
  S  S9  1  0.66665142  0.03770082  0.08488400  1
  S  S10  1  0.37355549  0.33433015  0.08494113  1
  S  S11  1  0.32687271  0.95100184  0.91767046  1
  S  S12  1  0.62832701  0.95963994  0.41810420  1
  S  S13  1  0.33317073  0.37446587  0.41865865  1
  S  S14  1  0.03961351  0.66591767  0.41900009  1
  O  O0  1  0.20488292  0.03653876  0.31042421  1
  O  O1  1  0.82080615  0.79013727  0.30521687  1
  O  O2  1  0.96050352  0.17607338  0.30492219  1
  O  O3  1  0.21122454  0.17377774  0.80219386  1
  O  O4  1  0.96636689  0.79133356  0.80223021  1
  O  O5  1  0.82483234  0.03803107  0.80132823  1
  O  O6  1  0.79119617  0.96825589  0.69331694  1
  O  O7  1  0.17552980  0.20678475  0.69377467  1
  O  O8  1  0.03092206  0.82464257  0.69353515  1
  O  O9  1  0.78621798  0.82689763  0.19591666  1
  O  O10  1  0.03400833  0.21028178  0.19593872  1
  O  O11  1  0.15776563  0.95687333  0.19060103  1
  O  O12  1  0.87751803  0.36861649  0.63724339  1
  O  O13  1  0.49099976  0.12250090  0.63727683  1
  O  O14  1  0.63110063  0.50875884  0.63731613  1
  O  O15  1  0.87382536  0.50840750  0.13889873  1
  O  O16  1  0.63696377  0.12255844  0.13831395  1
  O  O17  1  0.48999980  0.36804310  0.13819628  1
  O  O18  1  0.45730030  0.30073106  0.03124889  1
  O  O19  1  0.84159337  0.53731856  0.03105964  1
  O  O20  1  0.69894121  0.15405342  0.03085907  1
  O  O21  1  0.45550841  0.15698746  0.52894715  1
  O  O22  1  0.70241291  0.54484317  0.52898831  1
  O  O23  1  0.84234643  0.29808458  0.52889244  1
  O  O24  1  0.53958037  0.71157723  0.97705363  1
  O  O25  1  0.16438462  0.46845545  0.97769181  1
  O  O26  1  0.29671648  0.84395977  0.97180769  1
  O  O27  1  0.54517959  0.84361279  0.47144546  1
  O  O28  1  0.30143298  0.45849555  0.47246781  1
  O  O29  1  0.15762864  0.70000191  0.47194304  1
  O  O30  1  0.12483113  0.63328621  0.36459482  1
  O  O31  1  0.51001201  0.87415167  0.36388484  1
  O  O32  1  0.36611557  0.48936722  0.36463818  1
  O  O33  1  0.13099538  0.50473291  0.85825905  1
  O  O34  1  0.36762176  0.87525199  0.86238093  1
  O  O35  1  0.49634918  0.63331803  0.85856794  1
  O  O36  1  0.01961244  0.82359848  0.41016147  1
  O  O37  1  0.80505463  0.97590836  0.40733343  1
  O  O38  1  0.16999842  0.19846263  0.41113503  1
  O  O39  1  0.03304353  0.18676030  0.90440247  1
  O  O40  1  0.17459943  0.97424622  0.90655158  1
  O  O41  1  0.82132387  0.83247267  0.90480618  1
  O  O42  1  0.97534716  0.17235389  0.59174334  1
  O  O43  1  0.19671076  0.02482379  0.59180307  1
  O  O44  1  0.82808119  0.80289816  0.59165389  1
  O  O45  1  0.96527497  0.79808485  0.08974867  1
  O  O46  1  0.83093070  0.02431354  0.09283860  1
  O  O47  1  0.19503619  0.17222497  0.09061637  1
  O  O48  1  0.69359860  0.16630500  0.73936504  1
  O  O49  1  0.47205394  0.30760531  0.73994594  1
  O  O50  1  0.83628253  0.53017454  0.74007787  1
  O  O51  1  0.69578717  0.53327332  0.24134404  1
  O  O52  1  0.84264645  0.31514454  0.24162972  1
  O  O53  1  0.49116056  0.17634078  0.24073999  1
  O  O54  1  0.63285331  0.49054227  0.92685922  1
  O  O55  1  0.85348102  0.35496565  0.92639850  1
  O  O56  1  0.49220156  0.12971919  0.92448636  1
  O  O57  1  0.64130212  0.13614030  0.42558541  1
  O  O58  1  0.49673215  0.35909398  0.42633240  1
  O  O59  1  0.86293050  0.50079588  0.42591089  1
  O  O60  1  0.35815317  0.49534427  0.07863701  1
  O  O61  1  0.13706471  0.64500480  0.07673487  1
  O  O62  1  0.50341003  0.86320566  0.07683256  1
  O  O63  1  0.35867618  0.86375477  0.57443567  1
  O  O64  1  0.50502647  0.64134995  0.57480604  1
  O  O65  1  0.13610297  0.49489482  0.57465565  1
  O  O66  1  0.30842234  0.83253827  0.26123897  1
  O  O67  1  0.53332850  0.68980894  0.25953113  1
  O  O68  1  0.16024151  0.46383197  0.25956421  1
  O  O69  1  0.30723295  0.46356666  0.75439761  1
  O  O70  1  0.15879045  0.69533425  0.75477241  1
  O  O71  1  0.53293844  0.84652630  0.75519739  1
loop_
_geom_bond_atom_site_label_1
_geom_bond_atom_site_label_2
_geom_bond_distance
_geom_bond_site_symmetry_2
Nb0 O55 1.840197 1_555
Nb0 O54 1.845141 1_555
Nb0 O19 2.022213 1_556
Nb0 O56 2.031487 1_555
Nb0 O18 2.113582 1_556
Nb0 O20 2.121628 1_556
Nb1 O66 1.806527 1_555
Nb1 O67 1.965011 1_555
Nb1 O68 1.972265 1_555
Nb1 O31 2.067051 1_555
Nb1 O30 2.075658 1_555
Nb1 O32 2.160820 1_555
Nb2 O35 1.843569 1_555
Nb2 O33 1.845431 1_555
Nb2 O69 2.039286 1_555
Nb2 O34 2.063289 1_555
Nb2 O70 2.106543 1_555
Nb2 O71 2.122977 1_555
Ga0 O0 1.792869 1_555
Ga0 O2 2.016313 1_455
Ga0 O1 2.019914 1_445
Ga0 O38 2.043266 1_555
Ga0 O36 2.067078 1_545
Ga0 O37 2.072365 1_445
Ga1 O41 1.789207 1_555
Ga1 O39 1.794894 1_665
Ga1 O40 1.995676 1_655
Ga1 O5 2.065860 1_565
Ga1 O4 2.096864 1_555
Ga1 O3 2.118168 1_665
Ga2 O8 1.959583 1_655
Ga2 O6 1.969085 1_555
Ga2 O7 1.975945 1_665
Ga2 O44 2.000346 1_555
Ga2 O43 2.001473 1_665
Ga2 O42 2.012715 1_565
Ga3 O11 1.816702 1_555
Ga3 O47 1.964069 1_565
Ga3 O45 1.978680 1_455
Ga3 O46 2.003185 1_465
Ga3 O9 2.070502 1_455
Ga3 O10 2.078475 1_565
Ga4 O48 1.966267 1_555
Ga4 O49 1.985198 1_555
Ga4 O12 1.987273 1_555
Ga4 O50 1.987570 1_555
Ga4 O14 2.002619 1_555
Ga4 O13 2.007575 1_555
Ga5 O53 1.813059 1_555
Ga5 O16 1.960016 1_555
Ga5 O17 1.962375 1_555
Ga5 O15 2.039330 1_555
Ga5 O52 2.057083 1_555
Ga5 O51 2.072330 1_555
Ga6 O21 1.984599 1_555
Ga6 O58 1.988883 1_555
Ga6 O22 1.992709 1_555
Ga6 O23 1.997782 1_555
Ga6 O59 2.004550 1_555
Ga6 O57 2.024056 1_555
Ga7 O25 1.819290 1_554
Ga7 O24 1.819639 1_554
Ga7 O60 1.996810 1_555
Ga7 O62 2.064640 1_555
Ga7 O26 2.087649 1_554
Ga7 O61 2.095391 1_555
Ga8 O28 1.978945 1_555
Ga8 O64 1.987946 1_555
Ga8 O65 1.990102 1_555
Ga8 O63 2.002485 1_555
Ga8 O29 2.002635 1_555
Ga8 O27 2.019343 1_555
O0 Si0 1.608577 1_555
O1 S0 1.475703 1_555
O2 S1 1.478326 1_555
O3 S2 1.455697 1_555
O4 S3 1.459434 1_555
O5 S4 1.458217 1_555
O6 S4 1.489673 1_565
O7 S2 1.483671 1_555
O8 S3 1.489867 1_455
O9 S0 1.464285 1_555
O10 S1 1.461706 1_455
O11 Si0 1.597688 1_565
O12 S5 1.487885 1_555
O13 S6 1.486995 1_555
O14 S7 1.488401 1_555
O15 S8 1.483835 1_555
O16 S9 1.481672 1_555
O17 S10 1.482719 1_555
O18 S10 1.493955 1_555
O19 S8 1.519726 1_555
O20 S9 1.499076 1_555
O21 S6 1.490391 1_555
O22 S7 1.489302 1_555
O23 S5 1.489570 1_555
O24 Si1 1.576346 1_555
O25 Si2 1.574138 1_555
O26 S11 1.458877 1_555
O27 S12 1.483673 1_555
O28 S13 1.491724 1_555
O29 S14 1.484556 1_555
O30 S14 1.510339 1_555
O31 S12 1.510534 1_555
O32 S13 1.491019 1_555
O33 Si2 1.685670 1_555
O34 S11 1.511973 1_555
O35 Si1 1.681024 1_555
O36 S14 1.464180 1_555
O37 S12 1.470955 1_555
O38 S13 1.470713 1_555
O39 Si2 1.557729 1_555
O40 S11 1.439069 1_555
O41 Si1 1.558922 1_555
O42 S5 1.480433 1_555
O43 S6 1.481080 1_555
O44 S7 1.480406 1_555
O45 S8 1.470737 1_555
O46 S9 1.481538 1_555
O47 S10 1.473807 1_555
O48 S4 1.485480 1_555
O49 S2 1.480251 1_555
O50 S3 1.485381 1_555
O51 S0 1.452502 1_555
O52 S1 1.453083 1_555
O53 Si0 1.591337 1_555
O54 Si1 1.652281 1_555
O55 Si2 1.648859 1_655
O56 S11 1.490060 1_545
O57 S12 1.476168 1_545
O58 S13 1.484226 1_555
O59 S14 1.479017 1_655
O60 S10 1.463445 1_555
O61 S8 1.459047 1_455
O62 S9 1.465218 1_565
O63 S6 1.484015 1_565
O64 S7 1.483497 1_555
O65 S5 1.483496 1_455
O66 Si0 1.726389 1_565
O67 S0 1.535103 1_555
O68 S1 1.532048 1_455
O69 S2 1.508385 1_555
O70 S3 1.490983 1_455
O71 S4 1.489511 1_565
