# generated using pymatgen
data_Li3V2(PO4)3
_symmetry_space_group_name_H-M   'P 1'
_cell_length_a   8.60420162
_cell_length_b   8.60420162
_cell_length_c   6.38619734
_cell_angle_alpha   74.02624658
_cell_angle_beta   74.02624658
_cell_angle_gamma   93.77313532
_symmetry_Int_Tables_number   1
_chemical_formula_structural   Li3V2(PO4)3
_chemical_formula_sum   'Li6 V4 P6 O24'
_cell_volume   431.82501117
_cell_formula_units_Z   2
loop_
 _symmetry_equiv_pos_site_id
 _symmetry_equiv_pos_as_xyz
  1  'x, y, z'
loop_
 _atom_site_type_symbol
 _atom_site_label
 _atom_site_symmetry_multiplicity
 _atom_site_fract_x
 _atom_site_fract_y
 _atom_site_fract_z
 _atom_site_occupancy
  Li  Li0  1  0.28609500  0.71390500  0.25000000  1
  Li  Li1  1  0.71390500  0.28609500  0.75000000  1
  Li  Li2  1  0.50000000  0.50000000  0.50000000  1
  Li  Li3  1  0.99069000  0.00931000  0.25000000  1
  Li  Li4  1  0.00931000  0.99069000  0.75000000  1
  Li  Li5  1  0.50000000  0.50000000  0.00000000  1
  V  V0  1  0.37983700  0.05731300  0.35739900  1
  V  V1  1  0.94268700  0.62016300  0.14260100  1
  V  V2  1  0.62016300  0.94268700  0.64260100  1
  V  V3  1  0.05731300  0.37983700  0.85739900  1
  P  P0  1  0.86262100  0.66096400  0.63746300  1
  P  P1  1  0.28449500  0.71550500  0.75000000  1
  P  P2  1  0.33903600  0.13737900  0.86253700  1
  P  P3  1  0.66096400  0.86262100  0.13746300  1
  P  P4  1  0.13737900  0.33903600  0.36253700  1
  P  P5  1  0.71550500  0.28449500  0.25000000  1
  O  O0  1  0.65886000  0.98845300  0.91075400  1
  O  O1  1  0.01154700  0.34114000  0.58924600  1
  O  O2  1  0.84249900  0.84481700  0.60955000  1
  O  O3  1  0.84481700  0.84250000  0.10955000  1
  O  O4  1  0.59997900  0.94856600  0.32858500  1
  O  O5  1  0.29616600  0.45530300  0.29735200  1
  O  O6  1  0.46105400  0.73789400  0.76746100  1
  O  O7  1  0.53894600  0.26210600  0.23253900  1
  O  O8  1  0.94856600  0.59997900  0.82858500  1
  O  O9  1  0.05143400  0.40002100  0.17141500  1
  O  O10  1  0.40002100  0.05143400  0.67141500  1
  O  O11  1  0.15518300  0.15750100  0.89045000  1
  O  O12  1  0.25560000  0.82999000  0.53339300  1
  O  O13  1  0.74440000  0.17001000  0.46660700  1
  O  O14  1  0.54469700  0.70383400  0.20264800  1
  O  O15  1  0.15750100  0.15518300  0.39045000  1
  O  O16  1  0.70383400  0.54469700  0.70264800  1
  O  O17  1  0.17001000  0.74440000  0.96660700  1
  O  O18  1  0.73789400  0.46105400  0.26746100  1
  O  O19  1  0.98845300  0.65886000  0.41075400  1
  O  O20  1  0.45530300  0.29616600  0.79735200  1
  O  O21  1  0.82999000  0.25560000  0.03339300  1
  O  O22  1  0.34114000  0.01154700  0.08924600  1
  O  O23  1  0.26210600  0.53894600  0.73253900  1
loop_
_geom_bond_atom_site_label_1
_geom_bond_atom_site_label_2
_geom_bond_distance
_geom_bond_site_symmetry_2
Li0 O14 2.172401 1_555
Li0 O5 2.172401 1_555
Li0 O17 2.260516 1_554
Li0 O12 2.260516 1_555
Li0 O22 2.441827 1_565
Li0 O19 2.441827 1_455
Li1 O16 2.172401 1_555
Li1 O20 2.172401 1_555
Li1 O13 2.260516 1_555
Li1 O21 2.260516 1_556
Li1 O1 2.441827 1_655
Li1 O0 2.441827 1_545
Li2 O20 2.122746 1_555
Li2 O14 2.122746 1_555
Li2 O23 2.280026 1_555
Li2 O18 2.280026 1_555
Li2 O16 2.516554 1_555
Li2 O5 2.516554 1_555
Li3 O11 2.294271 1_654
Li3 O2 2.294271 1_545
Li3 O3 2.351786 1_545
Li3 O15 2.351792 1_655
Li4 O3 2.294269 1_456
Li4 O15 2.294271 1_565
Li4 O11 2.351792 1_565
Li4 O2 2.351792 1_455
Li5 O5 2.122746 1_555
Li5 O16 2.122746 1_554
Li5 O7 2.280026 1_555
Li5 O6 2.280026 1_554
Li5 O14 2.516554 1_555
Li5 O20 2.516554 1_554
O0 P3 1.556578 1_556
O0 V2 1.966272 1_555
O1 P4 1.556578 1_555
O1 V3 1.966272 1_555
O2 P0 1.569080 1_555
O2 V2 2.121542 1_555
O3 P3 1.569079 1_555
O3 V1 2.121550 1_555
O4 P3 1.583429 1_555
O4 V2 2.047249 1_555
O4 V0 2.152518 1_565
O5 P4 1.522675 1_555
O6 P1 1.556889 1_555
O6 V2 1.980728 1_555
O7 P5 1.556889 1_555
O7 V0 1.980728 1_555
O8 P0 1.583429 1_555
O8 V1 2.047249 1_556
O8 V3 2.152518 1_655
O9 P4 1.583429 1_555
O9 V3 2.047249 1_554
O9 V1 2.152518 1_455
O10 P2 1.583429 1_555
O10 V0 2.047249 1_555
O10 V2 2.152518 1_545
O11 P2 1.569080 1_555
O11 V3 2.121542 1_555
O12 P1 1.554730 1_555
O12 V0 2.021183 1_565
O13 P5 1.554730 1_555
O13 V2 2.021183 1_545
O14 P3 1.522675 1_555
O15 P4 1.569080 1_555
O15 V0 2.121542 1_555
O16 P0 1.522675 1_555
O17 P1 1.554730 1_555
O17 V1 2.021183 1_456
O18 P5 1.556889 1_555
O18 V1 1.980728 1_555
O19 P0 1.556578 1_555
O19 V1 1.966272 1_555
O20 P2 1.522675 1_555
O21 P5 1.554730 1_555
O21 V3 2.021183 1_654
O22 P2 1.556578 1_554
O22 V0 1.966272 1_555
O23 P1 1.556889 1_555
O23 V3 1.980728 1_555
