# generated using pymatgen
data_RuXeF7
_symmetry_space_group_name_H-M   'P 1'
_cell_length_a   11.39001261
_cell_length_b   6.87275571
_cell_length_c   10.42883369
_cell_angle_alpha   49.63383703
_cell_angle_beta   90.00000000
_cell_angle_gamma   90.00000000
_symmetry_Int_Tables_number   1
_chemical_formula_structural   RuXeF7
_chemical_formula_sum   'Ru4 Xe4 F28'
_cell_volume   622.01485906
_cell_formula_units_Z   4
loop_
 _symmetry_equiv_pos_site_id
 _symmetry_equiv_pos_as_xyz
  1  'x, y, z'
loop_
 _atom_site_type_symbol
 _atom_site_label
 _atom_site_symmetry_multiplicity
 _atom_site_fract_x
 _atom_site_fract_y
 _atom_site_fract_z
 _atom_site_occupancy
  Ru  Ru0  1  0.96609047  0.46356596  0.75424118  1
  Ru  Ru1  1  0.46609047  0.53643404  0.74575882  1
  Ru  Ru2  1  0.03390953  0.53643404  0.24575882  1
  Ru  Ru3  1  0.53390953  0.46356596  0.25424118  1
  Xe  Xe0  1  0.77700632  0.91445702  0.75736932  1
  Xe  Xe1  1  0.27700632  0.08554298  0.74263068  1
  Xe  Xe2  1  0.22299368  0.08554298  0.24263068  1
  Xe  Xe3  1  0.72299368  0.91445702  0.25736932  1
  F  F0  1  0.65413849  0.50730673  0.11626398  1
  F  F1  1  0.15413849  0.49269327  0.38373602  1
  F  F2  1  0.34586151  0.49269327  0.88373602  1
  F  F3  1  0.84586151  0.50730673  0.61626398  1
  F  F4  1  0.41897969  0.42858243  0.39413302  1
  F  F5  1  0.91897969  0.57141757  0.10586698  1
  F  F6  1  0.58102031  0.57141757  0.60586698  1
  F  F7  1  0.08102031  0.42858243  0.89413302  1
  F  F8  1  0.64813629  0.03104452  0.82010434  1
  F  F9  1  0.14813629  0.96895548  0.67989566  1
  F  F10  1  0.35186371  0.96895548  0.17989566  1
  F  F11  1  0.85186371  0.03104452  0.32010434  1
  F  F12  1  0.92692546  0.80543989  0.67864571  1
  F  F13  1  0.42692546  0.19456011  0.82135429  1
  F  F14  1  0.07307454  0.19456011  0.32135429  1
  F  F15  1  0.57307454  0.80543989  0.17864571  1
  F  F16  1  0.00301747  0.14909879  0.82019722  1
  F  F17  1  0.50301747  0.85090121  0.67980278  1
  F  F18  1  0.99698253  0.85090121  0.17980278  1
  F  F19  1  0.49698253  0.14909879  0.32019722  1
  F  F20  1  0.07281446  0.62580953  0.57799959  1
  F  F21  1  0.57281446  0.37419047  0.92200041  1
  F  F22  1  0.92718554  0.37419047  0.42200041  1
  F  F23  1  0.42718554  0.62580953  0.07799959  1
  F  F24  1  0.85487611  0.33095068  0.92400724  1
  F  F25  1  0.35487611  0.66904932  0.57599276  1
  F  F26  1  0.14512389  0.66904932  0.07599276  1
  F  F27  1  0.64512389  0.33095068  0.42400724  1
loop_
_geom_bond_atom_site_label_1
_geom_bond_atom_site_label_2
_geom_bond_distance
_geom_bond_site_symmetry_2
F0 Ru3 1.864370 1_555
F1 Ru2 1.864370 1_555
F2 Ru1 1.864370 1_555
F3 Ru0 1.864370 1_555
F4 Ru3 1.856199 1_555
F5 Ru2 1.856199 1_655
F6 Ru1 1.856199 1_555
F7 Ru0 1.856199 1_455
F8 Xe0 1.975775 1_545
F9 Xe1 1.975775 1_565
F10 Xe2 1.975775 1_565
F11 Xe3 1.975775 1_545
F12 Ru0 1.985389 1_555
F12 Xe0 2.224419 1_555
F13 Ru1 1.985389 1_555
F13 Xe1 2.224419 1_555
F14 Ru2 1.985389 1_555
F14 Xe2 2.224419 1_555
F15 Ru3 1.985389 1_555
F15 Xe3 2.224419 1_555
F16 Ru0 1.842661 1_455
F17 Ru1 1.842661 1_555
F18 Ru2 1.842661 1_655
F19 Ru3 1.842661 1_555
F20 Ru0 1.855928 1_455
F21 Ru1 1.855928 1_555
F22 Ru2 1.855928 1_655
F23 Ru3 1.855928 1_555
F24 Ru0 1.865375 1_555
F25 Ru1 1.865375 1_555
F26 Ru2 1.865375 1_555
F27 Ru3 1.865375 1_555
