# generated using pymatgen
data_Nb
_symmetry_space_group_name_H-M   'P 1'
_cell_length_a   5.76252600
_cell_length_b   5.76252658
_cell_length_c   10.53561000
_cell_angle_alpha   90.00000000
_cell_angle_beta   90.00000000
_cell_angle_gamma   120.00000814
_symmetry_Int_Tables_number   1
_chemical_formula_structural   Nb
_chemical_formula_sum   Nb16
_cell_volume   302.98150708
_cell_formula_units_Z   16
loop_
 _symmetry_equiv_pos_site_id
 _symmetry_equiv_pos_as_xyz
  1  'x, y, z'
loop_
 _atom_site_type_symbol
 _atom_site_label
 _atom_site_symmetry_multiplicity
 _atom_site_fract_x
 _atom_site_fract_y
 _atom_site_fract_z
 _atom_site_occupancy
  Nb  Nb0_0  1  0.00000000  0.00000000  0.00000000  1
  Nb  Nb0_1  1  0.00000000  0.00000000  0.50000000  1
  Nb  Nb0_2  1  0.00000000  0.50000000  0.00000000  1
  Nb  Nb0_3  1  0.00000000  0.50000000  0.50000000  1
  Nb  Nb0_4  1  0.50000000  0.00000000  0.00000000  1
  Nb  Nb0_5  1  0.50000000  0.00000000  0.50000000  1
  Nb  Nb0_6  1  0.50000000  0.50000000  0.00000000  1
  Nb  Nb0_7  1  0.50000000  0.50000000  0.50000000  1
  Nb  Nb1_0  1  0.33333350  0.16666650  0.25000000  1
  Nb  Nb1_1  1  0.33333350  0.16666650  0.75000000  1
  Nb  Nb1_2  1  0.33333350  0.66666650  0.25000000  1
  Nb  Nb1_3  1  0.33333350  0.66666650  0.75000000  1
  Nb  Nb1_4  1  0.83333350  0.16666650  0.25000000  1
  Nb  Nb1_5  1  0.83333350  0.16666650  0.75000000  1
  Nb  Nb1_6  1  0.83333350  0.66666650  0.25000000  1
  Nb  Nb1_7  1  0.83333350  0.66666650  0.75000000  1
loop_
_geom_bond_atom_site_label_1
_geom_bond_atom_site_label_2
_geom_bond_distance
_geom_bond_site_symmetry_2
Nb0_0 Nb0_6 2.881263 1_555
Nb0_0 Nb0_6 2.881263 1_445
Nb0_0 Nb0_4 2.881263 1_455
Nb0_0 Nb0_4 2.881263 1_555
Nb0_0 Nb0_2 2.881263 1_545
Nb0_0 Nb0_2 2.881263 1_555
Nb0_0 Nb1_5 3.115231 1_454
Nb0_0 Nb1_4 3.115231 1_455
Nb0_0 Nb1_1 3.115232 1_554
Nb0_0 Nb1_0 3.115232 1_555
Nb0_0 Nb1_7 3.115232 1_444
Nb0_0 Nb1_6 3.115232 1_445
Nb0_1 Nb0_7 2.881263 1_555
Nb0_1 Nb0_7 2.881263 1_445
Nb0_1 Nb0_5 2.881263 1_455
Nb0_1 Nb0_5 2.881263 1_555
Nb0_1 Nb0_3 2.881263 1_555
Nb0_1 Nb0_3 2.881263 1_545
Nb0_1 Nb1_4 3.115231 1_455
Nb0_1 Nb1_5 3.115231 1_455
Nb0_1 Nb1_0 3.115232 1_555
Nb0_1 Nb1_1 3.115232 1_555
Nb0_1 Nb1_6 3.115232 1_445
Nb0_1 Nb1_7 3.115232 1_445
Nb0_2 Nb0_4 2.881263 1_565
Nb0_2 Nb0_4 2.881263 1_455
Nb0_2 Nb0_6 2.881263 1_555
Nb0_2 Nb0_6 2.881263 1_455
Nb0_2 Nb1_7 3.115231 1_454
Nb0_2 Nb1_6 3.115231 1_455
Nb0_2 Nb1_3 3.115232 1_554
Nb0_2 Nb1_2 3.115232 1_555
Nb0_2 Nb1_5 3.115232 1_454
Nb0_2 Nb1_4 3.115232 1_455
Nb0_3 Nb0_5 2.881263 1_455
Nb0_3 Nb0_5 2.881263 1_565
Nb0_3 Nb0_7 2.881263 1_555
Nb0_3 Nb0_7 2.881263 1_455
Nb0_3 Nb1_6 3.115231 1_455
Nb0_3 Nb1_7 3.115231 1_455
Nb0_3 Nb1_2 3.115232 1_555
Nb0_3 Nb1_3 3.115232 1_555
Nb0_3 Nb1_4 3.115232 1_455
Nb0_3 Nb1_5 3.115232 1_455
Nb0_4 Nb0_6 2.881263 1_545
Nb0_4 Nb0_6 2.881263 1_555
Nb0_4 Nb1_1 3.115231 1_554
Nb0_4 Nb1_0 3.115231 1_555
Nb0_4 Nb1_5 3.115232 1_554
Nb0_4 Nb1_4 3.115232 1_555
Nb0_4 Nb1_3 3.115232 1_544
Nb0_4 Nb1_2 3.115232 1_545
Nb0_5 Nb0_7 2.881263 1_555
Nb0_5 Nb0_7 2.881263 1_545
Nb0_5 Nb1_0 3.115231 1_555
Nb0_5 Nb1_1 3.115231 1_555
Nb0_5 Nb1_4 3.115232 1_555
Nb0_5 Nb1_5 3.115232 1_555
Nb0_5 Nb1_2 3.115232 1_545
Nb0_5 Nb1_3 3.115232 1_545
Nb0_6 Nb1_3 3.115231 1_554
Nb0_6 Nb1_2 3.115231 1_555
Nb0_6 Nb1_7 3.115232 1_554
Nb0_6 Nb1_6 3.115232 1_555
Nb0_6 Nb1_1 3.115232 1_554
Nb0_6 Nb1_0 3.115232 1_555
Nb0_7 Nb1_2 3.115231 1_555
Nb0_7 Nb1_3 3.115231 1_555
Nb0_7 Nb1_6 3.115232 1_555
Nb0_7 Nb1_7 3.115232 1_555
Nb0_7 Nb1_0 3.115232 1_555
Nb0_7 Nb1_1 3.115232 1_555
Nb1_0 Nb1_6 2.881263 1_555
Nb1_0 Nb1_6 2.881263 1_445
Nb1_0 Nb1_4 2.881263 1_555
Nb1_0 Nb1_4 2.881263 1_455
Nb1_0 Nb1_2 2.881263 1_555
Nb1_0 Nb1_2 2.881263 1_545
Nb1_1 Nb1_7 2.881263 1_555
Nb1_1 Nb1_7 2.881263 1_445
Nb1_1 Nb1_5 2.881263 1_455
Nb1_1 Nb1_5 2.881263 1_555
Nb1_1 Nb1_3 2.881263 1_555
Nb1_1 Nb1_3 2.881263 1_545
Nb1_2 Nb1_4 2.881263 1_455
Nb1_2 Nb1_4 2.881263 1_565
Nb1_2 Nb1_6 2.881263 1_455
Nb1_2 Nb1_6 2.881263 1_555
Nb1_3 Nb1_5 2.881263 1_455
Nb1_3 Nb1_5 2.881263 1_565
Nb1_3 Nb1_7 2.881263 1_555
Nb1_3 Nb1_7 2.881263 1_455
Nb1_4 Nb1_6 2.881263 1_555
Nb1_4 Nb1_6 2.881263 1_545
Nb1_5 Nb1_7 2.881263 1_555
Nb1_5 Nb1_7 2.881263 1_545
