# generated using pymatgen
data_ZrNi5
_symmetry_space_group_name_H-M   'P 1'
_cell_length_a   4.70044713
_cell_length_b   4.70044411
_cell_length_c   4.70043686
_cell_angle_alpha   60.00409617
_cell_angle_beta   60.00412078
_cell_angle_gamma   60.00413311
_symmetry_Int_Tables_number   1
_chemical_formula_structural   ZrNi5
_chemical_formula_sum   'Zr1 Ni5'
_cell_volume   73.44154807
_cell_formula_units_Z   1
loop_
 _symmetry_equiv_pos_site_id
 _symmetry_equiv_pos_as_xyz
  1  'x, y, z'
loop_
 _atom_site_type_symbol
 _atom_site_label
 _atom_site_symmetry_multiplicity
 _atom_site_fract_x
 _atom_site_fract_y
 _atom_site_fract_z
 _atom_site_occupancy
  Zr  Zr0  1  0.99999840  -0.00000051  0.00000018  1
  Ni  Ni0  1  0.25000598  0.25000207  0.24999600  1
  Ni  Ni1  1  0.62346801  0.62346949  0.62347044  1
  Ni  Ni2  1  0.62347260  0.62347323  0.12958270  1
  Ni  Ni3  1  0.12958075  0.62347320  0.62347412  1
  Ni  Ni4  1  0.62347227  0.12958151  0.62347456  1
loop_
_geom_bond_atom_site_label_1
_geom_bond_atom_site_label_2
_geom_bond_distance
_geom_bond_site_symmetry_2
Ni0 Ni2 2.752828 1_555
Ni0 Ni4 2.752840 1_555
Ni0 Ni3 2.752847 1_555
Ni0 Ni4 2.752952 1_554
Ni0 Ni3 2.752963 1_554
Ni0 Ni2 2.752972 1_545
Ni0 Ni2 2.752991 1_455
Ni0 Ni3 2.752994 1_545
Ni0 Ni1 2.753000 1_554
Ni0 Ni4 2.753007 1_455
Ni0 Ni1 2.753029 1_545
Ni0 Ni1 2.753052 1_455
Ni0 Zr0 2.878355 1_455
Ni0 Zr0 2.878545 1_555
Ni0 Zr0 2.878562 1_465
Ni0 Zr0 2.878583 1_456
Ni1 Ni2 2.321469 1_555
Ni1 Ni4 2.321473 1_555
Ni1 Ni3 2.321474 1_555
Ni1 Ni2 2.378968 1_556
Ni1 Ni4 2.378971 1_565
Ni1 Ni3 2.378974 1_655
Ni1 Zr0 2.759163 1_565
Ni1 Zr0 2.759163 1_466
Ni1 Zr0 2.759163 1_556
Ni2 Ni4 2.321653 1_555
Ni2 Ni3 2.321654 1_555
Ni2 Ni4 2.379079 1_564
Ni2 Ni3 2.379081 1_654
Ni2 Zr0 2.758963 1_565
Ni2 Zr0 2.759102 1_555
Ni2 Zr0 2.759105 1_465
Ni3 Ni4 2.321656 1_555
Ni3 Ni4 2.379084 1_465
Ni3 Zr0 2.758961 1_466
Ni3 Zr0 2.759098 1_465
Ni3 Zr0 2.759101 1_456
Ni4 Zr0 2.758960 1_556
Ni4 Zr0 2.759100 1_555
Ni4 Zr0 2.759103 1_456
