# generated using pymatgen
data_MgHg8(W2O7)4
_symmetry_space_group_name_H-M   'P 1'
_cell_length_a   7.43849540
_cell_length_b   7.45395356
_cell_length_c   15.12410735
_cell_angle_alpha   76.52013525
_cell_angle_beta   105.14726451
_cell_angle_gamma   118.26681272
_symmetry_Int_Tables_number   1
_chemical_formula_structural   MgHg8(W2O7)4
_chemical_formula_sum   'Mg1 Hg8 W8 O28'
_cell_volume   706.99309354
_cell_formula_units_Z   1
loop_
 _symmetry_equiv_pos_site_id
 _symmetry_equiv_pos_as_xyz
  1  'x, y, z'
loop_
 _atom_site_type_symbol
 _atom_site_label
 _atom_site_symmetry_multiplicity
 _atom_site_fract_x
 _atom_site_fract_y
 _atom_site_fract_z
 _atom_site_occupancy
  Mg  Mg0  1  0.50000000  0.00000000  0.50000000  1
  Hg  Hg0  1  0.10144833  0.25164537  0.94553043  1
  Hg  Hg1  1  0.57143123  0.74401512  0.93756673  1
  Hg  Hg2  1  0.24576405  0.41626754  0.43434744  1
  Hg  Hg3  1  0.21372338  0.13072354  0.57647352  1
  Hg  Hg4  1  0.78627662  0.86927646  0.42352648  1
  Hg  Hg5  1  0.75423595  0.58373246  0.56565256  1
  Hg  Hg6  1  0.42856877  0.25598488  0.06243327  1
  Hg  Hg7  1  0.89855167  0.74835463  0.05446957  1
  W  W0  1  0.14983546  0.86463492  0.81279219  1
  W  W1  1  0.15996099  0.82705028  0.30116367  1
  W  W2  1  0.34697344  0.68091784  0.69828094  1
  W  W3  1  0.34441556  0.63178968  0.18783329  1
  W  W4  1  0.65558444  0.36821032  0.81216671  1
  W  W5  1  0.65302656  0.31908216  0.30171906  1
  W  W6  1  0.84003901  0.17294972  0.69883633  1
  W  W7  1  0.85016454  0.13536508  0.18720781  1
  O  O0  1  0.13845715  0.84875017  0.93018627  1
  O  O1  1  0.20051273  0.86274167  0.67476724  1
  O  O2  1  0.22553449  0.89862790  0.41723920  1
  O  O3  1  0.07913220  0.44951902  0.67824185  1
  O  O4  1  0.28983084  0.67880066  0.83149976  1
  O  O5  1  0.14655933  0.75590013  0.17066463  1
  O  O6  1  0.39340375  0.73194985  0.58062348  1
  O  O7  1  0.11294085  0.36230916  0.21870166  1
  O  O8  1  0.34724862  0.67839402  0.32985062  1
  O  O9  1  0.60676453  0.90087474  0.73736817  1
  O  O10  1  0.95496910  0.94130877  0.24500251  1
  O  O11  1  0.43269940  0.09928032  0.82016067  1
  O  O12  1  0.46598599  0.48824640  0.75337343  1
  O  O13  1  0.69433246  0.40717558  0.92800511  1
  O  O14  1  0.30566754  0.59282442  0.07199489  1
  O  O15  1  0.53401401  0.51175360  0.24662657  1
  O  O16  1  0.56730060  0.90071968  0.17983933  1
  O  O17  1  0.04503090  0.05869123  0.75499749  1
  O  O18  1  0.39323547  0.09912526  0.26263183  1
  O  O19  1  0.65275138  0.32160598  0.67014938  1
  O  O20  1  0.88705915  0.63769084  0.78129834  1
  O  O21  1  0.60659625  0.26805015  0.41937652  1
  O  O22  1  0.85344067  0.24409987  0.82933537  1
  O  O23  1  0.71016916  0.32119934  0.16850024  1
  O  O24  1  0.92086780  0.55048098  0.32175815  1
  O  O25  1  0.77446551  0.10137210  0.58276080  1
  O  O26  1  0.79948727  0.13725833  0.32523276  1
  O  O27  1  0.86154285  0.15124983  0.06981373  1
loop_
_geom_bond_atom_site_label_1
_geom_bond_atom_site_label_2
_geom_bond_distance
_geom_bond_site_symmetry_2
Mg0 O25 1.987496 1_555
Mg0 O2 1.987496 1_545
Mg0 O21 1.994137 1_555
Mg0 O6 1.994137 1_545
Hg0 O22 2.179055 1_455
Hg1 O4 2.200093 1_555
Hg2 O8 2.161498 1_555
Hg3 O1 2.171581 1_545
Hg4 O26 2.171581 1_565
Hg5 O19 2.161498 1_555
Hg6 O23 2.200093 1_555
Hg7 O5 2.179055 1_655
O0 W0 1.773287 1_555
O1 W2 2.030161 1_555
O1 W0 2.220358 1_555
O2 W1 1.829528 1_555
O3 W2 1.926034 1_555
O3 W6 2.006849 1_455
O4 W0 2.028008 1_555
O4 W2 2.160275 1_555
O5 W3 2.016730 1_555
O5 W1 2.126435 1_555
O6 W2 1.819792 1_555
O7 W7 1.914796 1_455
O7 W3 1.981043 1_555
O8 W1 2.068581 1_555
O8 W3 2.247622 1_555
O9 W2 1.904178 1_555
O9 W6 2.026784 1_565
O10 W7 1.893838 1_565
O10 W1 1.996959 1_655
O11 W4 1.904115 1_555
O11 W0 1.995343 1_545
O12 W4 1.936277 1_555
O12 W2 1.949713 1_555
O13 W4 1.769411 1_555
O14 W3 1.769411 1_555
O15 W3 1.936277 1_555
O15 W5 1.949713 1_555
O16 W3 1.904115 1_555
O16 W7 1.995343 1_565
O17 W0 1.893838 1_545
O17 W6 1.996959 1_455
O18 W5 1.904178 1_555
O18 W1 2.026784 1_545
O19 W6 2.068581 1_555
O19 W4 2.247622 1_555
O20 W0 1.914796 1_655
O20 W4 1.981043 1_555
O21 W5 1.819792 1_555
O22 W4 2.016730 1_555
O22 W6 2.126435 1_555
O23 W7 2.028008 1_555
O23 W5 2.160275 1_555
O24 W5 1.926034 1_555
O24 W1 2.006849 1_655
O25 W6 1.829528 1_555
O26 W5 2.030161 1_555
O26 W7 2.220358 1_555
O27 W7 1.773287 1_555
