# generated using pymatgen
data_BaGe2
_symmetry_space_group_name_H-M   'P 1'
_cell_length_a   4.80695604
_cell_length_b   4.80695589
_cell_length_c   8.12204237
_cell_angle_alpha   107.21273481
_cell_angle_beta   107.21272654
_cell_angle_gamma   89.99997884
_symmetry_Int_Tables_number   1
_chemical_formula_structural   BaGe2
_chemical_formula_sum   'Ba2 Ge4'
_cell_volume   170.44972189
_cell_formula_units_Z   2
loop_
 _symmetry_equiv_pos_site_id
 _symmetry_equiv_pos_as_xyz
  1  'x, y, z'
loop_
 _atom_site_type_symbol
 _atom_site_label
 _atom_site_symmetry_multiplicity
 _atom_site_fract_x
 _atom_site_fract_y
 _atom_site_fract_z
 _atom_site_occupancy
  Ba  Ba0  1  0.87500000  0.62500000  0.25000000  1
  Ba  Ba1  1  0.12500000  0.37500000  0.75000000  1
  Ge  Ge0  1  0.70789291  0.95789291  0.91578583  1
  Ge  Ge1  1  0.45789291  0.20789291  0.41578683  1
  Ge  Ge2  1  0.54210709  0.79210709  0.58421417  1
  Ge  Ge3  1  0.29210709  0.04210709  0.08421317  1
loop_
_geom_bond_atom_site_label_1
_geom_bond_atom_site_label_2
_geom_bond_distance
_geom_bond_site_symmetry_2
Ba0 Ge2 3.443068 1_555
Ba0 Ge0 3.443068 1_554
Ba0 Ge0 3.443069 1_544
Ba0 Ge2 3.443069 1_655
Ba0 Ge3 3.612338 1_555
Ba0 Ge1 3.612338 1_665
Ba0 Ge1 3.612339 1_565
Ba0 Ge3 3.612339 1_655
Ba0 Ge1 3.612340 1_655
Ba0 Ge3 3.612340 1_565
Ba0 Ge3 3.612344 1_665
Ba0 Ge1 3.612344 1_555
Ba1 Ge1 3.443061 1_555
Ba1 Ge3 3.443061 1_556
Ba1 Ge3 3.443065 1_566
Ba1 Ge1 3.443066 1_455
Ba1 Ge2 3.612337 1_545
Ba1 Ge0 3.612337 1_455
Ba1 Ge0 3.612337 1_545
Ba1 Ge2 3.612337 1_455
Ba1 Ge2 3.612338 1_555
Ba1 Ge0 3.612338 1_445
Ba1 Ge0 3.612339 1_555
Ba1 Ge2 3.612339 1_445
Ge0 Ge2 2.445870 1_555
Ge0 Ge3 2.705606 1_566
Ge0 Ge3 2.705611 1_666
Ge1 Ge3 2.445885 1_555
Ge1 Ge2 2.705606 1_545
Ge1 Ge2 2.705610 1_555
