# generated using pymatgen
data_CsPd2Cl5
_symmetry_space_group_name_H-M   'P 1'
_cell_length_a   5.38607923
_cell_length_b   10.60409862
_cell_length_c   15.91593172
_cell_angle_alpha   90.00000000
_cell_angle_beta   90.00000000
_cell_angle_gamma   90.00000000
_symmetry_Int_Tables_number   1
_chemical_formula_structural   CsPd2Cl5
_chemical_formula_sum   'Cs4 Pd8 Cl20'
_cell_volume   909.03072621
_cell_formula_units_Z   4
loop_
 _symmetry_equiv_pos_site_id
 _symmetry_equiv_pos_as_xyz
  1  'x, y, z'
loop_
 _atom_site_type_symbol
 _atom_site_label
 _atom_site_symmetry_multiplicity
 _atom_site_fract_x
 _atom_site_fract_y
 _atom_site_fract_z
 _atom_site_occupancy
  Cs  Cs0  1  0.60203740  0.75000000  0.73236272  1
  Cs  Cs1  1  0.10203740  0.25000000  0.76763728  1
  Cs  Cs2  1  0.39796260  0.25000000  0.26763728  1
  Cs  Cs3  1  0.89796260  0.75000000  0.23236272  1
  Pd  Pd0  1  0.72917900  0.41579441  0.04862384  1
  Pd  Pd1  1  0.22917900  0.58420559  0.45137616  1
  Pd  Pd2  1  0.27082100  0.91579441  0.95137616  1
  Pd  Pd3  1  0.77082100  0.08420559  0.54862384  1
  Pd  Pd4  1  0.27082100  0.58420559  0.95137616  1
  Pd  Pd5  1  0.77082100  0.41579441  0.54862384  1
  Pd  Pd6  1  0.72917900  0.08420559  0.04862384  1
  Pd  Pd7  1  0.22917900  0.91579441  0.45137616  1
  Cl  Cl0  1  0.53971585  0.42055088  0.91653799  1
  Cl  Cl1  1  0.03971585  0.57944912  0.58346201  1
  Cl  Cl2  1  0.46028415  0.92055088  0.08346201  1
  Cl  Cl3  1  0.96028415  0.07944912  0.41653799  1
  Cl  Cl4  1  0.46028415  0.57944912  0.08346201  1
  Cl  Cl5  1  0.96028415  0.42055088  0.41653799  1
  Cl  Cl6  1  0.53971585  0.07944912  0.91653799  1
  Cl  Cl7  1  0.03971585  0.92055088  0.58346201  1
  Cl  Cl8  1  0.89449671  0.42537164  0.18028948  1
  Cl  Cl9  1  0.39449671  0.57462836  0.31971052  1
  Cl  Cl10  1  0.10550329  0.92537164  0.81971052  1
  Cl  Cl11  1  0.60550329  0.07462836  0.68028948  1
  Cl  Cl12  1  0.01606008  0.75000000  0.98847375  1
  Cl  Cl13  1  0.51606008  0.25000000  0.51152625  1
  Cl  Cl14  1  0.98393992  0.25000000  0.01152625  1
  Cl  Cl15  1  0.48393992  0.75000000  0.48847375  1
  Cl  Cl16  1  0.39449671  0.92537164  0.31971052  1
  Cl  Cl17  1  0.89449671  0.07462836  0.18028948  1
  Cl  Cl18  1  0.60550329  0.42537164  0.68028948  1
  Cl  Cl19  1  0.10550329  0.57462836  0.81971052  1
loop_
_geom_bond_atom_site_label_1
_geom_bond_atom_site_label_2
_geom_bond_distance
_geom_bond_site_symmetry_2
Cl0 Pd4 2.327368 1_555
Cl0 Pd0 2.337397 1_556
Cl0 Cs1 3.800579 1_555
Cl1 Pd5 2.327368 1_455
Cl1 Pd1 2.337397 1_555
Cl1 Cs0 3.800579 1_455
Cl2 Pd6 2.327368 1_565
Cl2 Pd2 2.337397 1_554
Cl2 Cs3 3.800579 1_555
Cl3 Pd7 2.327368 1_645
Cl3 Pd3 2.337397 1_555
Cl3 Cs2 3.800579 1_655
Cl4 Pd0 2.327368 1_555
Cl4 Pd4 2.337397 1_554
Cl4 Cs3 3.800579 1_555
Cl5 Pd1 2.327368 1_655
Cl5 Pd5 2.337397 1_555
Cl5 Cs2 3.800579 1_655
Cl6 Pd2 2.327368 1_545
Cl6 Pd6 2.337397 1_556
Cl6 Cs1 3.800579 1_555
Cl7 Pd3 2.327368 1_465
Cl7 Pd7 2.337397 1_555
Cl7 Cs0 3.800579 1_455
Cl8 Pd0 2.279169 1_555
Cl8 Cs3 3.540806 1_555
Cl8 Cs2 3.541654 1_555
Cl8 Cs2 3.569930 1_655
Cl9 Pd1 2.279169 1_555
Cl9 Cs2 3.540806 1_555
Cl9 Cs3 3.541654 1_455
Cl9 Cs3 3.569930 1_555
Cl10 Pd2 2.279169 1_555
Cl10 Cs1 3.540806 1_565
Cl10 Cs0 3.541654 1_555
Cl10 Cs0 3.569930 1_455
Cl11 Pd3 2.279169 1_555
Cl11 Cs0 3.540806 1_545
Cl11 Cs1 3.541654 1_655
Cl11 Cs1 3.569930 1_555
Cl12 Pd4 2.307026 1_555
Cl12 Pd2 2.307026 1_555
Cl12 Cs3 3.933491 1_456
Cl13 Pd5 2.307026 1_555
Cl13 Pd3 2.307026 1_555
Cl13 Cs2 3.933491 1_555
Cl14 Pd6 2.307026 1_555
Cl14 Pd0 2.307026 1_555
Cl14 Cs1 3.933491 1_654
Cl15 Pd1 2.307026 1_555
Cl15 Pd7 2.307026 1_555
Cl15 Cs0 3.933491 1_555
Cl16 Pd7 2.279169 1_555
Cl16 Cs2 3.540806 1_565
Cl16 Cs3 3.541654 1_455
Cl16 Cs3 3.569930 1_555
Cl17 Pd6 2.279169 1_555
Cl17 Cs3 3.540806 1_545
Cl17 Cs2 3.541654 1_555
Cl17 Cs2 3.569930 1_655
Cl18 Pd5 2.279169 1_555
Cl18 Cs0 3.540806 1_555
Cl18 Cs1 3.541654 1_655
Cl18 Cs1 3.569930 1_555
Cl19 Pd4 2.279169 1_555
Cl19 Cs1 3.540806 1_555
Cl19 Cs0 3.541654 1_555
Cl19 Cs0 3.569930 1_455
