# generated using pymatgen
data_Na6LaTa3(SiO4)6
_symmetry_space_group_name_H-M   'P 1'
_cell_length_a   16.01560331
_cell_length_b   9.17451927
_cell_length_c   9.20428919
_cell_angle_alpha   90.21239202
_cell_angle_beta   125.30783687
_cell_angle_gamma   90.06648398
_symmetry_Int_Tables_number   1
_chemical_formula_structural   Na6LaTa3(SiO4)6
_chemical_formula_sum   'Na12 La2 Ta6 Si12 O48'
_cell_volume   1103.65071892
_cell_formula_units_Z   2
loop_
 _symmetry_equiv_pos_site_id
 _symmetry_equiv_pos_as_xyz
  1  'x, y, z'
loop_
 _atom_site_type_symbol
 _atom_site_label
 _atom_site_symmetry_multiplicity
 _atom_site_fract_x
 _atom_site_fract_y
 _atom_site_fract_z
 _atom_site_occupancy
  Na  Na0  1  0.25174377  0.75050415  0.00061770  1
  Na  Na1  1  0.74869730  0.75065172  0.49573274  1
  Na  Na2  1  0.75174377  0.25050415  0.00061770  1
  Na  Na3  1  0.24869730  0.25065172  0.49573274  1
  Na  Na4  1  0.50296735  0.08610343  0.75143021  1
  Na  Na5  1  0.50344024  0.90162866  0.24324501  1
  Na  Na6  1  0.00296735  0.58610343  0.75143021  1
  Na  Na7  1  0.00344024  0.40162866  0.24324501  1
  Na  Na8  1  0.80976317  0.92017812  0.20819752  1
  Na  Na9  1  0.18259000  0.07513098  0.79074467  1
  Na  Na10  1  0.30976317  0.42017812  0.20819752  1
  Na  Na11  1  0.68259000  0.57513098  0.79074467  1
  La  La0  1  0.09860046  0.23714322  0.05969908  1
  La  La1  1  0.59860046  0.73714322  0.05969908  1
  Ta  Ta0  1  0.10490793  0.74828910  0.55859503  1
  Ta  Ta1  1  0.89626879  0.75502972  0.93223591  1
  Ta  Ta2  1  0.89365339  0.24945336  0.43930101  1
  Ta  Ta3  1  0.60490793  0.24828910  0.55859503  1
  Ta  Ta4  1  0.39626879  0.25502972  0.93223591  1
  Ta  Ta5  1  0.39365339  0.74945336  0.43930101  1
  Si  Si0  1  0.99514813  0.94582099  0.73668724  1
  Si  Si1  1  0.99607535  0.03987664  0.26044871  1
  Si  Si2  1  0.49514813  0.44582099  0.73668724  1
  Si  Si3  1  0.49607535  0.53987664  0.26044871  1
  Si  Si4  1  0.34779863  0.90217008  0.75228878  1
  Si  Si5  1  0.65064546  0.89884091  0.74527411  1
  Si  Si6  1  0.64815677  0.12137722  0.24913041  1
  Si  Si7  1  0.36096804  0.09628954  0.25262614  1
  Si  Si8  1  0.84779863  0.40217008  0.75228878  1
  Si  Si9  1  0.15064546  0.39884091  0.74527411  1
  Si  Si10  1  0.14815677  0.62137722  0.24913041  1
  Si  Si11  1  0.86096804  0.59628954  0.25262614  1
  O  O0  1  0.15643519  0.57403430  0.71733585  1
  O  O1  1  0.84889734  0.58350105  0.75482107  1
  O  O2  1  0.85818175  0.41652149  0.26393025  1
  O  O3  1  0.15907940  0.44642488  0.26307013  1
  O  O4  1  0.65643519  0.07403430  0.71733585  1
  O  O5  1  0.34889734  0.08350105  0.75482107  1
  O  O6  1  0.35818175  0.91652149  0.26393025  1
  O  O7  1  0.65907940  0.94642488  0.26307013  1
  O  O8  1  0.42876412  0.56415103  0.57048332  1
  O  O9  1  0.58500563  0.53378191  0.90839614  1
  O  O10  1  0.54702745  0.42762685  0.42642127  1
  O  O11  1  0.43314427  0.42957789  0.08083520  1
  O  O12  1  0.92876412  0.06415103  0.57048332  1
  O  O13  1  0.08500563  0.03378191  0.90839614  1
  O  O14  1  0.04702745  0.92762685  0.42642127  1
  O  O15  1  0.93314427  0.92957789  0.08083520  1
  O  O16  1  0.24032022  0.85005425  0.72161775  1
  O  O17  1  0.74509579  0.81058845  0.76116010  1
  O  O18  1  0.74619350  0.19555382  0.26319599  1
  O  O19  1  0.28008773  0.18448525  0.26863665  1
  O  O20  1  0.74032022  0.35005425  0.72161775  1
  O  O21  1  0.24509579  0.31058845  0.76116010  1
  O  O22  1  0.24619350  0.69555382  0.26319599  1
  O  O23  1  0.78008773  0.68448525  0.26863665  1
  O  O24  1  0.36515725  0.85348270  0.59431307  1
  O  O25  1  0.65737524  0.88720058  0.92685930  1
  O  O26  1  0.64636672  0.18021438  0.41430551  1
  O  O27  1  0.35525759  0.13995448  0.06955812  1
  O  O28  1  0.86515725  0.35348270  0.59431307  1
  O  O29  1  0.15737524  0.38720058  0.92685930  1
  O  O30  1  0.14636672  0.68021438  0.41430551  1
  O  O31  1  0.85525759  0.63995448  0.06955812  1
  O  O32  1  0.44069472  0.84382279  0.94329058  1
  O  O33  1  0.53955905  0.82224021  0.57943291  1
  O  O34  1  0.53667666  0.17557509  0.06591485  1
  O  O35  1  0.47606521  0.14205927  0.41877384  1
  O  O36  1  0.94069472  0.34382279  0.94329058  1
  O  O37  1  0.03955905  0.32224021  0.57943291  1
  O  O38  1  0.03667666  0.67557509  0.06591485  1
  O  O39  1  0.97606521  0.64205927  0.41877384  1
  O  O40  1  0.05960633  0.82233407  0.70923963  1
  O  O41  1  0.91615685  0.85317598  0.76156313  1
  O  O42  1  0.90784312  0.13464473  0.26074847  1
  O  O43  1  0.07958412  0.15050672  0.27984260  1
  O  O44  1  0.55960633  0.32233407  0.70923963  1
  O  O45  1  0.41615685  0.35317598  0.76156313  1
  O  O46  1  0.40784312  0.63464473  0.26074847  1
  O  O47  1  0.57958412  0.65050672  0.27984260  1
loop_
_geom_bond_atom_site_label_1
_geom_bond_atom_site_label_2
_geom_bond_distance
_geom_bond_site_symmetry_2
Na0 O46 2.493695 1_555
Na0 O6 2.508105 1_555
Na0 O22 2.521998 1_555
Na0 O16 2.633804 1_554
Na0 O0 2.666854 1_554
Na0 O40 2.752131 1_554
Na1 O47 2.426502 1_555
Na1 O23 2.489266 1_555
Na1 O1 2.494599 1_555
Na1 O7 2.520644 1_555
Na1 O17 2.535213 1_555
Na1 O41 2.540871 1_555
Na2 O42 2.493695 1_555
Na2 O2 2.508105 1_555
Na2 O18 2.521998 1_555
Na2 O20 2.633804 1_554
Na2 O4 2.666854 1_554
Na2 O44 2.752131 1_554
Na3 O43 2.426502 1_555
Na3 O19 2.489266 1_555
Na3 O5 2.494599 1_555
Na3 O3 2.520644 1_555
Na3 O21 2.535213 1_555
Na3 O45 2.540871 1_555
Na4 O44 2.465708 1_555
Na4 O5 2.485782 1_555
Na4 O4 2.654032 1_555
Na4 O25 2.733002 1_545
Na4 O34 2.742074 1_556
Na4 O24 2.791787 1_545
Na4 O45 2.846328 1_555
Na4 O35 2.882956 1_555
Na5 O32 2.386282 1_554
Na5 O7 2.426277 1_555
Na5 O6 2.445324 1_555
Na5 O47 2.538920 1_555
Na5 O33 2.896346 1_555
Na5 O35 2.909082 1_565
Na5 O27 2.936185 1_565
Na5 O46 2.940953 1_555
Na6 O40 2.465708 1_555
Na6 O1 2.485782 1_455
Na6 O0 2.654032 1_555
Na6 O29 2.733002 1_555
Na6 O38 2.742074 1_556
Na6 O28 2.791787 1_455
Na6 O41 2.846328 1_455
Na6 O39 2.882956 1_455
Na7 O36 2.386282 1_454
Na7 O3 2.426277 1_555
Na7 O2 2.445324 1_455
Na7 O43 2.538920 1_555
Na7 O37 2.896346 1_555
Na7 O39 2.909082 1_455
Na7 O31 2.936185 1_455
Na7 O42 2.940953 1_455
Na8 O25 2.332512 1_554
Na8 O23 2.350180 1_555
Na8 O42 2.383372 1_565
Na8 O7 2.747077 1_555
Na8 O18 2.875403 1_565
Na9 O13 2.391060 1_555
Na9 O21 2.461145 1_555
Na9 O16 2.489678 1_545
Na9 O27 2.523545 1_556
Na9 O40 2.844275 1_545
Na9 O5 2.868321 1_555
Na10 O29 2.332512 1_554
Na10 O19 2.350180 1_555
Na10 O46 2.383372 1_555
Na10 O3 2.747077 1_555
Na10 O22 2.875403 1_555
Na11 O9 2.391060 1_555
Na11 O17 2.461145 1_555
Na11 O20 2.489678 1_555
Na11 O31 2.523545 1_556
Na11 O44 2.844275 1_555
Na11 O1 2.868321 1_555
La0 O13 2.257682 1_554
La0 O36 2.320101 1_454
La0 O43 2.356908 1_555
La0 O29 2.369865 1_554
La0 O19 2.434946 1_555
La0 O3 2.449890 1_555
La1 O9 2.257682 1_554
La1 O32 2.320101 1_554
La1 O47 2.356908 1_555
La1 O25 2.369865 1_554
La1 O23 2.434946 1_555
La1 O7 2.449890 1_555
O0 Si9 1.639655 1_555
O0 Ta0 1.999570 1_555
O1 Si8 1.663632 1_555
O1 Ta1 2.065138 1_555
O2 Si11 1.655122 1_555
O2 Ta2 2.058642 1_555
O3 Si10 1.612345 1_555
O4 Si5 1.639655 1_545
O4 Ta3 1.999570 1_555
O5 Si4 1.663632 1_545
O5 Ta4 2.065138 1_555
O6 Si7 1.655122 1_565
O6 Ta5 2.058642 1_555
O7 Si6 1.612345 1_565
O8 Si2 1.668564 1_555
O8 Ta5 1.974059 1_555
O9 Si2 1.605885 1_555
O10 Si3 1.622596 1_555
O10 Ta3 1.939396 1_555
O11 Si3 1.682889 1_555
O11 Ta4 1.957507 1_554
O12 Si0 1.668564 1_545
O12 Ta2 1.974059 1_555
O13 Si0 1.605885 1_445
O14 Si1 1.622596 1_465
O14 Ta0 1.939396 1_555
O15 Si1 1.682889 1_565
O15 Ta1 1.957507 1_554
O16 Si4 1.645195 1_555
O16 Ta0 2.012416 1_555
O17 Si5 1.647178 1_555
O17 Ta1 2.050140 1_555
O18 Si6 1.645312 1_555
O18 Ta2 2.003920 1_555
O19 Si7 1.605171 1_555
O20 Si8 1.645195 1_555
O20 Ta3 2.012416 1_555
O21 Si9 1.647178 1_555
O21 Ta4 2.050140 1_555
O22 Si10 1.645312 1_555
O22 Ta5 2.003920 1_555
O23 Si11 1.605171 1_555
O24 Si4 1.689330 1_555
O24 Ta5 1.974462 1_555
O25 Si5 1.615423 1_555
O26 Si6 1.627241 1_555
O26 Ta3 1.899711 1_555
O27 Si7 1.683765 1_555
O27 Ta4 2.027696 1_554
O28 Si8 1.689330 1_555
O28 Ta2 1.974462 1_555
O29 Si9 1.615423 1_555
O30 Si10 1.627241 1_555
O30 Ta0 1.899711 1_555
O31 Si11 1.683765 1_555
O31 Ta1 2.027696 1_554
O32 Si4 1.605032 1_555
O33 Si5 1.684969 1_555
O33 Ta5 2.018920 1_555
O34 Si6 1.675322 1_555
O34 Ta4 1.978425 1_554
O35 Si7 1.627210 1_555
O35 Ta3 1.944329 1_555
O36 Si8 1.605032 1_555
O37 Si9 1.684969 1_555
O37 Ta2 2.018920 1_455
O38 Si10 1.675322 1_555
O38 Ta1 1.978425 1_454
O39 Si11 1.627210 1_555
O39 Ta0 1.944329 1_655
O40 Si0 1.647771 1_455
O40 Ta0 2.016809 1_555
O41 Si0 1.645940 1_555
O41 Ta1 1.992051 1_555
O42 Si1 1.661362 1_555
O42 Ta2 2.069176 1_555
O43 Si1 1.603226 1_455
O44 Si2 1.647771 1_555
O44 Ta3 2.016809 1_555
O45 Si2 1.645940 1_555
O45 Ta4 1.992051 1_555
O46 Si3 1.661362 1_555
O46 Ta5 2.069176 1_555
O47 Si3 1.603226 1_555
