# generated using pymatgen
data_SmGeRu
_symmetry_space_group_name_H-M   'P 1'
_cell_length_a   4.48636840
_cell_length_b   7.05458069
_cell_length_c   7.15707186
_cell_angle_alpha   90.00000000
_cell_angle_beta   90.00000000
_cell_angle_gamma   90.00000000
_symmetry_Int_Tables_number   1
_chemical_formula_structural   SmGeRu
_chemical_formula_sum   'Sm4 Ge4 Ru4'
_cell_volume   226.51737283
_cell_formula_units_Z   4
loop_
 _symmetry_equiv_pos_site_id
 _symmetry_equiv_pos_as_xyz
  1  'x, y, z'
loop_
 _atom_site_type_symbol
 _atom_site_label
 _atom_site_symmetry_multiplicity
 _atom_site_fract_x
 _atom_site_fract_y
 _atom_site_fract_z
 _atom_site_occupancy
  Sm  Sm0  1  0.25000000  0.18664501  0.97642548  1
  Sm  Sm1  1  0.75000000  0.81335499  0.02357452  1
  Sm  Sm2  1  0.75000000  0.68664501  0.52357452  1
  Sm  Sm3  1  0.25000000  0.31335499  0.47642548  1
  Ge  Ge0  1  0.25000000  0.89126554  0.30609408  1
  Ge  Ge1  1  0.75000000  0.10873446  0.69390592  1
  Ge  Ge2  1  0.75000000  0.39126554  0.19390592  1
  Ge  Ge3  1  0.25000000  0.60873446  0.80609408  1
  Ru  Ru0  1  0.25000000  0.56719677  0.15076784  1
  Ru  Ru1  1  0.75000000  0.43280323  0.84923216  1
  Ru  Ru2  1  0.75000000  0.06719677  0.34923216  1
  Ru  Ru3  1  0.25000000  0.93280323  0.65076784  1
loop_
_geom_bond_atom_site_label_1
_geom_bond_atom_site_label_2
_geom_bond_distance
_geom_bond_site_symmetry_2
Ge0 Ru3 2.484198 1_555
Ge0 Ru0 2.542126 1_555
Ge0 Ru2 2.582165 1_465
Ge0 Ru2 2.582165 1_565
Ge0 Sm1 3.069609 1_555
Ge0 Sm1 3.069609 1_455
Ge0 Sm2 3.088425 1_555
Ge0 Sm2 3.088425 1_455
Ge0 Sm0 3.147887 1_564
Ge0 Sm3 3.217550 1_565
Ge1 Ru2 2.484198 1_555
Ge1 Ru1 2.542126 1_555
Ge1 Ru3 2.582165 1_645
Ge1 Ru3 2.582165 1_545
Ge1 Sm0 3.069609 1_655
Ge1 Sm0 3.069609 1_555
Ge1 Sm3 3.088425 1_555
Ge1 Sm3 3.088425 1_655
Ge1 Sm1 3.147887 1_546
Ge1 Sm2 3.217550 1_545
Ge2 Ru1 2.484198 1_554
Ge2 Ru2 2.542126 1_555
Ge2 Ru0 2.582165 1_555
Ge2 Ru0 2.582165 1_655
Ge2 Sm3 3.069609 1_655
Ge2 Sm3 3.069609 1_555
Ge2 Sm0 3.088425 1_654
Ge2 Sm0 3.088425 1_554
Ge2 Sm2 3.147887 1_555
Ge2 Sm1 3.217550 1_555
Ge3 Ru0 2.484198 1_556
Ge3 Ru3 2.542126 1_555
Ge3 Ru1 2.582165 1_455
Ge3 Ru1 2.582165 1_555
Ge3 Sm2 3.069609 1_455
Ge3 Sm2 3.069609 1_555
Ge3 Sm1 3.088425 1_456
Ge3 Sm1 3.088425 1_556
Ge3 Sm3 3.147887 1_555
Ge3 Sm0 3.217550 1_555
Ru0 Sm3 2.939251 1_555
Ru0 Sm0 2.960441 1_554
Ru0 Sm1 2.979289 1_555
Ru0 Sm1 2.979289 1_455
Ru1 Sm2 2.939251 1_555
Ru1 Sm1 2.960441 1_556
Ru1 Sm0 2.979289 1_555
Ru1 Sm0 2.979289 1_655
Ru2 Sm1 2.939251 1_545
Ru2 Sm2 2.960441 1_545
Ru2 Sm3 2.979289 1_555
Ru2 Sm3 2.979289 1_655
Ru3 Sm0 2.939251 1_565
Ru3 Sm3 2.960441 1_565
Ru3 Sm2 2.979289 1_455
Ru3 Sm2 2.979289 1_555
