# generated using pymatgen
data_BaHClO
_symmetry_space_group_name_H-M   'P 1'
_cell_length_a   4.46309200
_cell_length_b   7.48101400
_cell_length_c   9.38150300
_cell_angle_alpha   90.00000000
_cell_angle_beta   90.00000000
_cell_angle_gamma   90.00000000
_symmetry_Int_Tables_number   1
_chemical_formula_structural   BaHClO
_chemical_formula_sum   'Ba4 H4 Cl4 O4'
_cell_volume   313.23387888
_cell_formula_units_Z   4
loop_
 _symmetry_equiv_pos_site_id
 _symmetry_equiv_pos_as_xyz
  1  'x, y, z'
loop_
 _atom_site_type_symbol
 _atom_site_label
 _atom_site_symmetry_multiplicity
 _atom_site_fract_x
 _atom_site_fract_y
 _atom_site_fract_z
 _atom_site_occupancy
  Ba  Ba0  1  0.25000000  0.19094400  0.88778600  1
  Ba  Ba1  1  0.75000000  0.80905600  0.11221400  1
  Ba  Ba2  1  0.25000000  0.69094400  0.61221400  1
  Ba  Ba3  1  0.75000000  0.30905600  0.38778600  1
  H  H0  1  0.75000000  0.28096100  0.06868100  1
  H  H1  1  0.25000000  0.71903900  0.93131900  1
  H  H2  1  0.25000000  0.21903900  0.56868100  1
  H  H3  1  0.75000000  0.78096100  0.43131900  1
  Cl  Cl0  1  0.75000000  0.02000800  0.66420300  1
  Cl  Cl1  1  0.25000000  0.97999200  0.33579700  1
  Cl  Cl2  1  0.25000000  0.47999200  0.16420300  1
  Cl  Cl3  1  0.75000000  0.52000800  0.83579700  1
  O  O0  1  0.75000000  0.15216800  0.05242700  1
  O  O1  1  0.25000000  0.34783200  0.55242700  1
  O  O2  1  0.75000000  0.65216800  0.44757300  1
  O  O3  1  0.25000000  0.84783200  0.94757300  1
loop_
_geom_bond_atom_site_label_1
_geom_bond_atom_site_label_2
_geom_bond_distance
_geom_bond_site_symmetry_2
Ba0 O3 2.627393 1_545
Ba0 O0 2.729409 1_456
Ba0 O0 2.729409 1_556
Ba0 Cl0 3.318848 1_455
Ba0 Cl0 3.318848 1_555
Ba0 Cl3 3.358245 1_455
Ba0 Cl3 3.358245 1_555
Ba0 Cl2 3.376474 1_556
Ba1 O0 2.627393 1_565
Ba1 O3 2.729409 1_654
Ba1 O3 2.729409 1_554
Ba1 Cl1 3.318848 1_655
Ba1 Cl1 3.318848 1_555
Ba1 Cl2 3.358245 1_555
Ba1 Cl2 3.358245 1_655
Ba1 Cl3 3.376474 1_554
Ba2 O1 2.627393 1_555
Ba2 O2 2.729409 1_455
Ba2 O2 2.729409 1_555
Ba2 Cl3 3.318848 1_455
Ba2 Cl3 3.318848 1_555
Ba2 Cl0 3.358245 1_465
Ba2 Cl0 3.358245 1_565
Ba2 Cl1 3.376474 1_555
Ba3 O2 2.627393 1_555
Ba3 O1 2.729409 1_655
Ba3 O1 2.729409 1_555
Ba3 Cl2 3.318848 1_555
Ba3 Cl2 3.318848 1_655
Ba3 Cl1 3.358245 1_545
Ba3 Cl1 3.358245 1_645
Ba3 Cl0 3.376474 1_555
H0 O0 0.975494 1_555
H1 O3 0.975494 1_555
H2 O1 0.975494 1_555
H3 O2 0.975494 1_555
