# generated using pymatgen
data_MgMn6(O2F)4
_symmetry_space_group_name_H-M   'P 1'
_cell_length_a   8.29852315
_cell_length_b   5.78538564
_cell_length_c   6.00697882
_cell_angle_alpha   65.83260890
_cell_angle_beta   62.72339160
_cell_angle_gamma   64.96955243
_symmetry_Int_Tables_number   1
_chemical_formula_structural   MgMn6(O2F)4
_chemical_formula_sum   'Mg1 Mn6 O8 F4'
_cell_volume   223.78413473
_cell_formula_units_Z   1
loop_
 _symmetry_equiv_pos_site_id
 _symmetry_equiv_pos_as_xyz
  1  'x, y, z'
loop_
 _atom_site_type_symbol
 _atom_site_label
 _atom_site_symmetry_multiplicity
 _atom_site_fract_x
 _atom_site_fract_y
 _atom_site_fract_z
 _atom_site_occupancy
  Mg  Mg0  1  0.66047986  0.34653434  0.83897889  1
  Mn  Mn0  1  0.88317937  0.69024998  0.71910046  1
  Mn  Mn1  1  0.67069193  0.32006252  0.33984805  1
  Mn  Mn2  1  0.33030987  0.65446653  0.64704224  1
  Mn  Mn3  1  0.13186412  0.31127919  0.30554820  1
  Mn  Mn4  1  0.47720228  0.96859867  0.98786840  1
  Mn  Mn5  1  0.01557526  0.01845578  0.98196576  1
  O  O0  1  0.69566761  0.06007796  0.67769388  1
  O  O1  1  0.36946570  0.35375939  0.96288065  1
  O  O2  1  0.94500923  0.25035996  0.18688072  1
  O  O3  1  0.06831151  0.75138439  0.80564178  1
  O  O4  1  0.39843343  0.41158797  0.47861849  1
  O  O5  1  0.31028785  0.94363298  0.34448029  1
  O  O6  1  0.64608817  0.60307791  0.00684604  1
  O  O7  1  0.96196381  0.31961346  0.69035356  1
  F  F0  1  0.31538149  0.89706341  0.83884079  1
  F  F1  1  0.61122784  0.61368203  0.53029870  1
  F  F2  1  0.70827650  0.05650977  0.13718479  1
  F  F3  1  0.02379618  0.71531677  0.30564429  1
loop_
_geom_bond_atom_site_label_1
_geom_bond_atom_site_label_2
_geom_bond_distance
_geom_bond_site_symmetry_2
Mg0 O6 2.049151 1_556
Mg0 O0 2.101501 1_555
Mg0 O1 2.163434 1_555
Mg0 O7 2.194884 1_555
Mn0 O7 2.017074 1_555
Mn0 O3 2.024355 1_655
Mn0 O6 2.030240 1_556
Mn0 O0 2.040292 1_565
Mn1 O4 1.924243 1_555
Mn1 O2 1.948957 1_555
Mn1 O0 2.011525 1_555
Mn1 O6 2.033127 1_555
Mn2 O4 1.812513 1_555
Mn2 O3 1.859146 1_555
Mn2 O5 1.918733 1_555
Mn2 O1 2.028738 1_555
Mn3 O5 2.004044 1_545
Mn3 O7 2.092817 1_455
Mn3 O1 2.112101 1_554
Mn3 O2 2.172106 1_455
Mn4 O5 1.929930 1_556
Mn4 O6 1.972363 1_556
Mn4 O0 1.986660 1_565
Mn4 O1 1.987590 1_565
Mn5 O2 1.919595 1_456
Mn5 O7 1.965052 1_455
Mn5 O3 2.010896 1_545
F0 Mn2 2.087749 1_555
F0 Mn5 2.116026 1_565
F0 Mn4 2.156730 1_555
F1 Mg0 1.951285 1_555
F1 Mn2 2.038032 1_555
F1 Mn1 2.191435 1_555
F2 Mg0 1.951541 1_554
F2 Mn1 2.161862 1_555
F2 Mn5 2.221398 1_654
F3 Mn5 2.022145 1_564
F3 Mn3 2.120136 1_555
F3 Mn0 2.177842 1_455
