# generated using pymatgen
data_MgFe5CuO8
_symmetry_space_group_name_H-M   'P 1'
_cell_length_a   5.99991534
_cell_length_b   6.37907205
_cell_length_c   5.99391288
_cell_angle_alpha   62.73602651
_cell_angle_beta   59.78187955
_cell_angle_gamma   62.07837177
_symmetry_Int_Tables_number   1
_chemical_formula_structural   MgFe5CuO8
_chemical_formula_sum   'Mg1 Fe5 Cu1 O8'
_cell_volume   167.56353628
_cell_formula_units_Z   1
loop_
 _symmetry_equiv_pos_site_id
 _symmetry_equiv_pos_as_xyz
  1  'x, y, z'
loop_
 _atom_site_type_symbol
 _atom_site_label
 _atom_site_symmetry_multiplicity
 _atom_site_fract_x
 _atom_site_fract_y
 _atom_site_fract_z
 _atom_site_occupancy
  Mg  Mg0  1  0.13190500  0.60922700  0.13225300  1
  Fe  Fe0  1  0.95839400  0.08293800  0.96942000  1
  Fe  Fe1  1  0.12786000  0.62882400  0.62254800  1
  Fe  Fe2  1  0.61900300  0.13035600  0.62020400  1
  Fe  Fe3  1  0.62172300  0.62949500  0.12790400  1
  Fe  Fe4  1  0.62295600  0.62825000  0.62353200  1
  Cu  Cu0  1  0.28335200  0.15797800  0.27603100  1
  O  O0  1  0.36834400  0.41126700  0.36455400  1
  O  O1  1  0.37362400  0.40494900  0.85104200  1
  O  O2  1  0.39457200  0.81444600  0.39979100  1
  O  O3  1  0.85478000  0.40751300  0.36805500  1
  O  O4  1  0.38660000  0.84684800  0.88536700  1
  O  O5  1  0.85587000  0.44178900  0.85154500  1
  O  O6  1  0.87937300  0.84903800  0.39238500  1
  O  O7  1  0.88622700  0.84249700  0.89036900  1
loop_
_geom_bond_atom_site_label_1
_geom_bond_atom_site_label_2
_geom_bond_distance
_geom_bond_site_symmetry_2
Mg0 O0 2.060464 1_555
Mg0 O3 2.095224 1_455
Mg0 O1 2.103401 1_554
Mg0 O7 2.146973 1_454
Mg0 O4 2.158871 1_554
Mg0 O6 2.168781 1_455
Fe0 O5 1.937696 1_555
Fe0 O7 2.063693 1_545
Fe0 O6 2.205748 1_546
Fe0 O4 2.211626 1_645
Fe1 O2 1.980153 1_555
Fe1 O5 2.009738 1_455
Fe1 O0 2.060140 1_555
Fe1 O7 2.085198 1_455
Fe1 O1 2.087644 1_555
Fe1 O6 2.105415 1_455
Fe2 O1 2.214735 1_555
Fe2 O6 2.235591 1_545
Fe2 O0 2.258552 1_555
Fe2 O3 2.270103 1_555
Fe2 O4 2.288803 1_545
Fe2 O7 2.386769 1_545
Fe3 O2 1.981215 1_555
Fe3 O5 2.012619 1_554
Fe3 O0 2.064796 1_555
Fe3 O3 2.082469 1_555
Fe3 O7 2.089157 1_554
Fe3 O4 2.100414 1_554
Fe4 O2 1.988240 1_555
Fe4 O5 2.027797 1_555
Fe4 O3 2.063881 1_555
Fe4 O1 2.071028 1_555
Fe4 O4 2.081204 1_555
Fe4 O6 2.089514 1_555
Cu0 O2 1.853988 1_545
Cu0 O0 2.231968 1_555
Cu0 O3 2.234624 1_455
Cu0 O1 2.235595 1_554
