# generated using pymatgen
data_Mg2Nb4Si3(SO6)6
_symmetry_space_group_name_H-M   'P 1'
_cell_length_a   8.85776575
_cell_length_b   8.83117664
_cell_length_c   22.76096966
_cell_angle_alpha   90.24457906
_cell_angle_beta   90.00000000
_cell_angle_gamma   120.09964735
_symmetry_Int_Tables_number   1
_chemical_formula_structural   Mg2Nb4Si3(SO6)6
_chemical_formula_sum   'Mg4 Nb8 Si6 S12 O72'
_cell_volume   1540.35885837
_cell_formula_units_Z   2
loop_
 _symmetry_equiv_pos_site_id
 _symmetry_equiv_pos_as_xyz
  1  'x, y, z'
loop_
 _atom_site_type_symbol
 _atom_site_label
 _atom_site_symmetry_multiplicity
 _atom_site_fract_x
 _atom_site_fract_y
 _atom_site_fract_z
 _atom_site_occupancy
  Mg  Mg0  1  0.99535410  0.00178621  0.35582038  1
  Mg  Mg1  1  0.00643211  0.00178621  0.85582038  1
  Mg  Mg2  1  0.67085598  0.34167106  0.68761985  1
  Mg  Mg3  1  0.67081608  0.34167106  0.18761985  1
  Nb  Nb0  1  0.99685630  0.00317814  0.64089517  1
  Nb  Nb1  1  0.00632185  0.00317814  0.14089517  1
  Nb  Nb2  1  0.65471330  0.33898585  0.97722170  1
  Nb  Nb3  1  0.68427356  0.33898585  0.47722170  1
  Nb  Nb4  1  0.32229364  0.66949377  0.02489237  1
  Nb  Nb5  1  0.34719913  0.66949377  0.52489237  1
  Nb  Nb6  1  0.34200141  0.67629396  0.30889130  1
  Nb  Nb7  1  0.33429155  0.67629396  0.80889130  1
  Si  Si0  1  0.95405860  0.34181436  0.58669393  1
  Si  Si1  1  0.66729565  0.60946414  0.58649916  1
  Si  Si2  1  0.94216949  0.60946414  0.08649916  1
  Si  Si3  1  0.38775677  0.34181436  0.08669393  1
  Si  Si4  1  0.32885395  0.95801852  0.91659480  1
  Si  Si5  1  0.62916357  0.95801852  0.41659480  1
  S  S0  1  0.28872547  0.00529498  0.25123582  1
  S  S1  1  0.71692936  0.71078508  0.25116965  1
  S  S2  1  0.99488777  0.28514065  0.25148626  1
  S  S3  1  0.29025287  0.28514065  0.75148626  1
  S  S4  1  0.99385572  0.71078508  0.75116965  1
  S  S5  1  0.71656951  0.00529498  0.75123582  1
  S  S6  1  0.38186493  0.04862236  0.58445028  1
  S  S7  1  0.66675843  0.04862236  0.08445028  1
  S  S8  1  0.62112549  0.67215651  0.91539574  1
  S  S9  1  0.04609639  0.37826664  0.91575572  1
  S  S10  1  0.33216924  0.37826664  0.41575572  1
  S  S11  1  0.05103001  0.67215651  0.41539574  1
  O  O0  1  0.20525368  0.02532324  0.30310040  1
  O  O1  1  0.82054157  0.79558798  0.30310034  1
  O  O2  1  0.97678467  0.18050808  0.30279091  1
  O  O3  1  0.20372341  0.18050808  0.80279091  1
  O  O4  1  0.97504641  0.79558798  0.80310034  1
  O  O5  1  0.82006957  0.02532324  0.80310040  1
  O  O6  1  0.79529463  0.96921909  0.69763021  1
  O  O7  1  0.17575283  0.20555084  0.69769252  1
  O  O8  1  0.03514645  0.82358871  0.69819140  1
  O  O9  1  0.78844227  0.82358871  0.19819140  1
  O  O10  1  0.02979800  0.20555084  0.19769252  1
  O  O11  1  0.17392446  0.96921909  0.19763021  1
  O  O12  1  0.86856615  0.36397092  0.64308396  1
  O  O13  1  0.48479209  0.11755624  0.63686727  1
  O  O14  1  0.62376904  0.49861978  0.64313428  1
  O  O15  1  0.87485174  0.49861978  0.14313428  1
  O  O16  1  0.63276514  0.11755624  0.13686727  1
  O  O17  1  0.49540577  0.36397092  0.14308396  1
  O  O18  1  0.46815683  0.29955190  0.02562216  1
  O  O19  1  0.83149315  0.52652119  0.02519870  1
  O  O20  1  0.69992935  0.15556839  0.03094374  1
  O  O21  1  0.45564003  0.15556839  0.53094374  1
  O  O22  1  0.69502904  0.52652119  0.52519870  1
  O  O23  1  0.83139607  0.29955190  0.52562216  1
  O  O24  1  0.53842784  0.69136214  0.96843856  1
  O  O25  1  0.15799156  0.46172789  0.96880837  1
  O  O26  1  0.31693020  0.83236075  0.97152470  1
  O  O27  1  0.51542955  0.83236075  0.47152470  1
  O  O28  1  0.30373532  0.46172789  0.46880837  1
  O  O29  1  0.15293329  0.69136214  0.46843856  1
  O  O30  1  0.12806679  0.63361393  0.36262647  1
  O  O31  1  0.49052513  0.85389145  0.35938442  1
  O  O32  1  0.36101405  0.49427689  0.36352584  1
  O  O33  1  0.13326184  0.49427689  0.86352584  1
  O  O34  1  0.36336532  0.85389145  0.85938442  1
  O  O35  1  0.50554614  0.63361393  0.86262647  1
  O  O36  1  0.03018916  0.82209591  0.40626162  1
  O  O37  1  0.81115203  0.97582182  0.40719052  1
  O  O38  1  0.18084633  0.20750862  0.40703777  1
  O  O39  1  0.02666230  0.20750862  0.90703777  1
  O  O40  1  0.16466980  0.97582182  0.90719052  1
  O  O41  1  0.79190676  0.82209591  0.90626162  1
  O  O42  1  0.98176248  0.16811871  0.59528350  1
  O  O43  1  0.20259979  0.02608124  0.59239075  1
  O  O44  1  0.83969144  0.81134261  0.59591432  1
  O  O45  1  0.97165117  0.81134261  0.09591432  1
  O  O46  1  0.82348145  0.02608124  0.09239075  1
  O  O47  1  0.18635623  0.16811871  0.09528350  1
  O  O48  1  0.68356110  0.14731560  0.74164069  1
  O  O49  1  0.46099543  0.30677982  0.74204636  1
  O  O50  1  0.84959019  0.53552054  0.74358325  1
  O  O51  1  0.68593135  0.53552054  0.24358325  1
  O  O52  1  0.84578539  0.30677982  0.24204636  1
  O  O53  1  0.46375550  0.14731560  0.24164069  1
  O  O54  1  0.63539241  0.50867952  0.92208504  1
  O  O55  1  0.87588281  0.36797620  0.92413725  1
  O  O56  1  0.51561121  0.14169389  0.92691671  1
  O  O57  1  0.62608368  0.14169389  0.42691671  1
  O  O58  1  0.49209439  0.36797620  0.42413725  1
  O  O59  1  0.87328811  0.50867952  0.42208504  1
  O  O60  1  0.35675961  0.50119651  0.06719776  1
  O  O61  1  0.14274948  0.65001047  0.07120220  1
  O  O62  1  0.51678414  0.86760261  0.07359979  1
  O  O63  1  0.35081747  0.86760261  0.57359979  1
  O  O64  1  0.50725998  0.65001047  0.57120220  1
  O  O65  1  0.14443590  0.50119651  0.56719776  1
  O  O66  1  0.29744125  0.83511349  0.25802410  1
  O  O67  1  0.53257193  0.69284025  0.25949260  1
  O  O68  1  0.15862445  0.46453054  0.25970937  1
  O  O69  1  0.30590509  0.46453054  0.75970937  1
  O  O70  1  0.16026732  0.69284025  0.75949260  1
  O  O71  1  0.53767125  0.83511349  0.75802410  1
loop_
_geom_bond_atom_site_label_1
_geom_bond_atom_site_label_2
_geom_bond_distance
_geom_bond_site_symmetry_2
Mg0 O37 1.925851 1_545
Mg0 O2 2.061958 1_555
Mg0 O1 2.075261 1_545
Mg0 O38 2.084980 1_655
Mg0 O36 2.106698 1_645
Mg0 O0 2.134101 1_655
Mg1 O40 1.925852 1_545
Mg1 O3 2.061958 1_555
Mg1 O4 2.075261 1_445
Mg1 O39 2.084980 1_555
Mg1 O41 2.106698 1_445
Mg1 O5 2.134101 1_455
Mg2 O14 1.926686 1_555
Mg2 O12 1.946551 1_555
Mg2 O50 2.079086 1_555
Mg2 O49 2.124574 1_555
Mg2 O13 2.162556 1_555
Mg2 O48 2.163849 1_555
Mg3 O15 1.926686 1_555
Mg3 O17 1.946551 1_555
Mg3 O51 2.079086 1_555
Mg3 O52 2.124574 1_555
Mg3 O16 2.162556 1_555
Mg3 O53 2.163849 1_555
Nb0 O42 1.850850 1_555
Nb0 O44 1.864385 1_545
Nb0 O43 2.052602 1_655
Nb0 O6 2.100327 1_545
Nb0 O7 2.125097 1_655
Nb0 O8 2.210949 1_645
Nb1 O47 1.850850 1_555
Nb1 O45 1.864385 1_445
Nb1 O46 2.052602 1_455
Nb1 O11 2.100327 1_545
Nb1 O10 2.125097 1_555
Nb1 O9 2.210949 1_445
Nb2 O18 1.868591 1_556
Nb2 O56 1.922126 1_555
Nb2 O19 1.941831 1_556
Nb2 O54 2.030593 1_555
Nb2 O55 2.205208 1_555
Nb2 O20 2.224164 1_556
Nb3 O23 1.868591 1_555
Nb3 O57 1.922126 1_555
Nb3 O22 1.941831 1_555
Nb3 O59 2.030593 1_555
Nb3 O58 2.205208 1_555
Nb3 O21 2.224164 1_555
Nb4 O61 1.843088 1_555
Nb4 O26 1.905238 1_554
Nb4 O60 1.922682 1_555
Nb4 O62 2.053814 1_555
Nb4 O25 2.101376 1_554
Nb4 O24 2.232674 1_554
Nb5 O64 1.843088 1_555
Nb5 O27 1.905238 1_555
Nb5 O65 1.922682 1_555
Nb5 O63 2.053814 1_555
Nb5 O28 2.101375 1_555
Nb5 O29 2.232674 1_555
Nb6 O31 1.851080 1_555
Nb6 O67 1.972051 1_555
Nb6 O66 2.008126 1_555
Nb6 O68 2.079466 1_555
Nb6 O32 2.108825 1_555
Nb6 O30 2.125194 1_555
Nb7 O34 1.851080 1_555
Nb7 O70 1.972051 1_555
Nb7 O71 2.008127 1_555
Nb7 O69 2.079466 1_555
Nb7 O33 2.108825 1_555
Nb7 O35 2.125194 1_555
O0 S0 1.449447 1_555
O1 S1 1.450284 1_555
O2 S2 1.450435 1_555
O3 S3 1.450435 1_555
O4 S4 1.450284 1_555
O5 S5 1.449447 1_555
O6 S5 1.515244 1_565
O7 S3 1.516395 1_555
O8 S4 1.491647 1_455
O9 S1 1.491647 1_555
O10 S2 1.516395 1_455
O11 S0 1.515244 1_565
O12 Si0 1.550992 1_555
O13 S6 1.436075 1_555
O14 Si1 1.549450 1_555
O15 Si2 1.549450 1_555
O16 S7 1.436075 1_555
O17 Si3 1.550991 1_555
O18 Si3 1.685495 1_555
O19 Si2 1.647841 1_555
O20 S7 1.480879 1_555
O21 S6 1.480879 1_555
O22 Si1 1.647841 1_555
O23 Si0 1.685495 1_555
O24 S8 1.464856 1_555
O25 S9 1.497805 1_555
O26 Si4 1.643178 1_555
O27 Si5 1.643178 1_555
O28 S10 1.497805 1_555
O29 S11 1.464856 1_555
O30 S11 1.501185 1_555
O31 Si5 1.704819 1_555
O32 S10 1.508640 1_555
O33 S9 1.508640 1_555
O34 Si4 1.704819 1_555
O35 S8 1.501185 1_555
O36 S11 1.441589 1_555
O37 Si5 1.554090 1_555
O38 S10 1.442261 1_555
O39 S9 1.442265 1_555
O40 Si4 1.554081 1_555
O41 S8 1.441594 1_555
O42 Si0 1.682711 1_555
O43 S6 1.508955 1_555
O44 Si1 1.679981 1_555
O45 Si2 1.679985 1_555
O46 S7 1.508946 1_555
O47 Si3 1.682717 1_555
O48 S5 1.440962 1_555
O49 S3 1.442391 1_555
O50 S4 1.439554 1_555
O51 S1 1.439557 1_555
O52 S2 1.442383 1_555
O53 S0 1.440968 1_555
O54 S8 1.519301 1_555
O55 S9 1.476674 1_655
O56 Si4 1.651730 1_545
O57 Si5 1.651721 1_545
O58 S10 1.476692 1_555
O59 S11 1.519291 1_655
O60 Si3 1.626777 1_555
O61 Si2 1.664042 1_455
O62 S7 1.499296 1_565
O63 S6 1.499290 1_565
O64 Si1 1.664059 1_555
O65 Si0 1.626766 1_455
O66 S0 1.551422 1_565
O67 S1 1.571103 1_555
O68 S2 1.530089 1_455
O69 S3 1.530092 1_555
O70 S4 1.571094 1_455
O71 S5 1.551426 1_565
