# generated using pymatgen
data_CeCuGe
_symmetry_space_group_name_H-M   'P 1'
_cell_length_a   4.26601977
_cell_length_b   4.26593440
_cell_length_c   8.05557419
_cell_angle_alpha   89.99983420
_cell_angle_beta   89.99998831
_cell_angle_gamma   119.99674246
_symmetry_Int_Tables_number   1
_chemical_formula_structural   CeCuGe
_chemical_formula_sum   'Ce2 Cu2 Ge2'
_cell_volume   126.96336511
_cell_formula_units_Z   2
loop_
 _symmetry_equiv_pos_site_id
 _symmetry_equiv_pos_as_xyz
  1  'x, y, z'
loop_
 _atom_site_type_symbol
 _atom_site_label
 _atom_site_symmetry_multiplicity
 _atom_site_fract_x
 _atom_site_fract_y
 _atom_site_fract_z
 _atom_site_occupancy
  Ce  Ce0  1  0.99999561  0.99999692  0.49999706  1
  Ce  Ce1  1  0.00000708  0.00000561  -0.00000107  1
  Cu  Cu0  1  0.66666529  0.33332960  0.25005044  1
  Cu  Cu1  1  0.33333315  0.66666868  0.74995122  1
  Ge  Ge0  1  0.33333170  0.66666708  0.25003598  1
  Ge  Ge1  1  0.66666716  0.33333211  0.74996737  1
loop_
_geom_bond_atom_site_label_1
_geom_bond_atom_site_label_2
_geom_bond_distance
_geom_bond_site_symmetry_2
Ce0 Cu0 3.181185 1_565
Ce0 Cu1 3.181232 1_655
Ce0 Ge0 3.181272 1_655
Ce0 Cu0 3.181280 1_555
Ce0 Ge1 3.181313 1_565
Ce0 Cu0 3.181317 1_665
Ce0 Cu1 3.181332 1_665
Ce0 Cu1 3.181335 1_555
Ce0 Ge0 3.181352 1_665
Ce0 Ge0 3.181380 1_555
Ce0 Ge1 3.181383 1_555
Ce0 Ge1 3.181449 1_665
Ce1 Ge1 3.181628 1_454
Ce1 Ge0 3.181647 1_545
Ce1 Cu1 3.181706 1_544
Ce1 Ge1 3.181723 1_554
Ce1 Ge0 3.181725 1_555
Ce1 Ge1 3.181731 1_444
Ce1 Cu0 3.181733 1_455
Ce1 Cu1 3.181773 1_554
Ce1 Ge0 3.181794 1_445
Ce1 Cu0 3.181825 1_555
Ce1 Cu0 3.181829 1_445
Ce1 Cu1 3.181851 1_444
Cu0 Ge0 2.462939 1_555
Cu0 Ge0 2.463004 1_545
Cu0 Ge0 2.463068 1_655
Cu1 Ge1 2.462937 1_555
Cu1 Ge1 2.463007 1_565
Cu1 Ge1 2.463066 1_455
