# generated using pymatgen
data_LiNiPO4
_symmetry_space_group_name_H-M   'P 1'
_cell_length_a   4.95115424
_cell_length_b   9.93418945
_cell_length_c   6.96686425
_cell_angle_alpha   90.02073858
_cell_angle_beta   91.03655351
_cell_angle_gamma   90.02276526
_symmetry_Int_Tables_number   1
_chemical_formula_structural   LiNiPO4
_chemical_formula_sum   'Li4 Ni4 P4 O16'
_cell_volume   342.61399858
_cell_formula_units_Z   4
loop_
 _symmetry_equiv_pos_site_id
 _symmetry_equiv_pos_as_xyz
  1  'x, y, z'
loop_
 _atom_site_type_symbol
 _atom_site_label
 _atom_site_symmetry_multiplicity
 _atom_site_fract_x
 _atom_site_fract_y
 _atom_site_fract_z
 _atom_site_occupancy
  Li  Li0  1  0.80190900  0.84128000  0.49287600  1
  Li  Li1  1  0.69785300  0.34140400  0.00701900  1
  Li  Li2  1  0.19799700  0.15875600  0.50720900  1
  Li  Li3  1  0.30215600  0.65852800  0.99282900  1
  Ni  Ni0  1  0.71286100  0.35791600  0.50719900  1
  Ni  Ni1  1  0.28703700  0.64212300  0.49289400  1
  Ni  Ni2  1  0.78618900  0.85771000  0.99256200  1
  Ni  Ni3  1  0.21421900  0.14214600  0.00777000  1
  P  P0  1  0.69689100  0.09614600  0.74822900  1
  P  P1  1  0.80381000  0.59576200  0.75152600  1
  P  P2  1  0.19602700  0.40423800  0.24842400  1
  P  P3  1  0.30318500  0.90390000  0.25177500  1
  O  O0  1  0.82095800  0.14970200  0.94213000  1
  O  O1  1  0.68062400  0.64877100  0.55720700  1
  O  O2  1  0.17939100  0.85049500  0.05768300  1
  O  O3  1  0.31921500  0.35121600  0.44275800  1
  O  O4  1  0.61318700  0.87884200  0.24605200  1
  O  O5  1  0.88600600  0.37922200  0.25378000  1
  O  O6  1  0.11383000  0.62077500  0.74616000  1
  O  O7  1  0.38686700  0.12116500  0.75398800  1
  O  O8  1  0.68740200  0.66978200  0.92719900  1
  O  O9  1  0.31254100  0.33019200  0.07274500  1
  O  O10  1  0.18717400  0.83029000  0.42800200  1
  O  O11  1  0.81277400  0.16966300  0.57188300  1
  O  O12  1  0.23840200  0.05658300  0.26647500  1
  O  O13  1  0.73840500  0.44319300  0.76644300  1
  O  O14  1  0.26154400  0.55679100  0.23351600  1
  O  O15  1  0.76154800  0.94341100  0.73366800  1
loop_
_geom_bond_atom_site_label_1
_geom_bond_atom_site_label_2
_geom_bond_distance
_geom_bond_site_symmetry_2
Li0 O10 1.971319 1_655
Li0 O15 1.973476 1_555
Li0 O4 1.977858 1_555
Li0 O1 2.056276 1_555
Li1 O13 1.971101 1_554
Li1 O9 1.973075 1_555
Li1 O5 1.976300 1_555
Li1 O0 2.052534 1_554
Li2 O11 1.970728 1_455
Li2 O12 1.973372 1_555
Li2 O7 1.977978 1_555
Li2 O3 2.055912 1_555
Li3 O14 1.971530 1_556
Li3 O8 1.972614 1_555
Li3 O6 1.976017 1_555
Li3 O2 2.054416 1_556
Ni0 O11 1.984566 1_555
Ni0 O5 1.987891 1_555
Ni0 O3 1.993192 1_555
Ni0 O13 1.996566 1_555
Ni1 O10 1.984023 1_555
Ni1 O6 1.987118 1_555
Ni1 O1 1.992706 1_555
Ni1 O14 1.997629 1_555
Ni2 O8 1.980545 1_555
Ni2 O4 1.987771 1_556
Ni2 O2 1.992284 1_656
Ni2 O15 1.996549 1_555
Ni3 O9 1.980486 1_555
Ni3 O7 1.988655 1_554
Ni3 O0 1.993457 1_454
Ni3 O12 1.994675 1_555
O0 P0 1.566676 1_555
O1 P1 1.566192 1_555
O2 P3 1.566798 1_555
O3 P2 1.566329 1_555
O4 P3 1.556241 1_555
O5 P2 1.555968 1_655
O6 P1 1.555961 1_455
O7 P0 1.556297 1_555
O8 P1 1.547904 1_555
O9 P2 1.548263 1_555
O10 P3 1.548501 1_555
O11 P0 1.548485 1_555
O12 P3 1.554175 1_545
O13 P1 1.553641 1_555
O14 P2 1.553598 1_555
O15 P0 1.554483 1_565
