# generated using pymatgen
data_Na3Hf2Nb2Si3(PO8)3
_symmetry_space_group_name_H-M   'P 1'
_cell_length_a   8.94305421
_cell_length_b   8.89661798
_cell_length_c   22.97475947
_cell_angle_alpha   90.00012932
_cell_angle_beta   90.06105007
_cell_angle_gamma   119.85250241
_symmetry_Int_Tables_number   1
_chemical_formula_structural   Na3Hf2Nb2Si3(PO8)3
_chemical_formula_sum   'Na9 Hf6 Nb6 Si9 P9 O72'
_cell_volume   1585.38830475
_cell_formula_units_Z   3
loop_
 _symmetry_equiv_pos_site_id
 _symmetry_equiv_pos_as_xyz
  1  'x, y, z'
loop_
 _atom_site_type_symbol
 _atom_site_label
 _atom_site_symmetry_multiplicity
 _atom_site_fract_x
 _atom_site_fract_y
 _atom_site_fract_z
 _atom_site_occupancy
  Na  Na0  1  0.99955467  0.63448877  0.25063683  1
  Na  Na1  1  0.66562774  0.96655886  0.58379016  1
  Na  Na2  1  0.66713725  0.69889912  0.08273957  1
  Na  Na3  1  0.00730212  0.00015387  0.50012867  1
  Na  Na4  1  0.00549067  0.00488299  0.99874245  1
  Na  Na5  1  0.66688283  0.33372466  0.83327940  1
  Na  Na6  1  0.66256035  0.32970113  0.33377080  1
  Na  Na7  1  0.33333069  0.66665571  0.16666657  1
  Na  Na8  1  0.32853231  0.66444497  0.66757656  1
  Hf  Hf0  1  0.00619250  0.99701994  0.64810497  1
  Hf  Hf1  1  0.00124466  0.00106105  0.14664607  1
  Hf  Hf2  1  0.66549055  0.33231199  0.18668691  1
  Hf  Hf3  1  0.32631343  0.66414940  0.01801011  1
  Hf  Hf4  1  0.32935997  0.66854284  0.51878792  1
  Hf  Hf5  1  0.33978255  0.66944198  0.31540192  1
  Nb  Nb0  1  0.99290625  0.99219080  0.35555725  1
  Nb  Nb1  1  0.98977732  0.99433018  0.85397967  1
  Nb  Nb2  1  0.66621447  0.32960024  0.68935165  1
  Nb  Nb3  1  0.67379350  0.34063401  0.97729226  1
  Nb  Nb4  1  0.66331218  0.33124254  0.47763915  1
  Nb  Nb5  1  0.33185101  0.66509903  0.81279595  1
  Si  Si0  1  0.70505432  0.70951122  0.24907126  1
  Si  Si1  1  0.00062975  0.70911255  0.75044458  1
  Si  Si2  1  0.70914570  0.99656255  0.74889286  1
  Si  Si3  1  0.37436494  0.04498379  0.58316035  1
  Si  Si4  1  0.96157409  0.62370155  0.08419875  1
  Si  Si5  1  0.62038663  0.66700621  0.91739443  1
  Si  Si6  1  0.04525329  0.37545250  0.91617681  1
  Si  Si7  1  0.62330255  0.95655295  0.41763582  1
  Si  Si8  1  0.04248165  0.66471348  0.41580946  1
  P  P0  1  0.28886518  0.00158638  0.25110852  1
  P  P1  1  0.00055392  0.28793957  0.25069292  1
  P  P2  1  0.28800876  0.28815240  0.75059147  1
  P  P3  1  0.95438718  0.33563121  0.58332607  1
  P  P4  1  0.66606975  0.61895973  0.58338445  1
  P  P5  1  0.66583797  0.04506733  0.08270505  1
  P  P6  1  0.37794678  0.33202659  0.08225174  1
  P  P7  1  0.33316404  0.95725696  0.91624945  1
  P  P8  1  0.33134000  0.37421680  0.41701832  1
  O  O0  1  0.20156053  0.02851555  0.30461289  1
  O  O1  1  0.83736878  0.80642356  0.30514558  1
  O  O2  1  0.97499856  0.17421872  0.30433282  1
  O  O3  1  0.20548675  0.17439953  0.80466141  1
  O  O4  1  0.97164763  0.80398480  0.80704138  1
  O  O5  1  0.83425024  0.03122623  0.80606447  1
  O  O6  1  0.79232619  0.96920786  0.69031767  1
  O  O7  1  0.17774167  0.20936566  0.69583502  1
  O  O8  1  0.03466816  0.82809879  0.69355931  1
  O  O9  1  0.79810836  0.82672989  0.19159316  1
  O  O10  1  0.02902641  0.20551829  0.19579120  1
  O  O11  1  0.17391441  0.96930552  0.19648054  1
  O  O12  1  0.86595948  0.36156995  0.63808383  1
  O  O13  1  0.50503667  0.14187630  0.63923200  1
  O  O14  1  0.64227986  0.50592191  0.63771923  1
  O  O15  1  0.86847093  0.50656994  0.14162467  1
  O  O16  1  0.63762253  0.12780625  0.13740505  1
  O  O17  1  0.49276967  0.36394812  0.13675025  1
  O  O18  1  0.46592209  0.30494029  0.02843128  1
  O  O19  1  0.82841299  0.52596780  0.02782745  1
  O  O20  1  0.69173599  0.15986508  0.02874686  1
  O  O21  1  0.47725773  0.16905825  0.52712790  1
  O  O22  1  0.69419450  0.53394032  0.52922855  1
  O  O23  1  0.83700965  0.30490660  0.52966771  1
  O  O24  1  0.54409233  0.70082987  0.97631605  1
  O  O25  1  0.16060092  0.46151904  0.97317371  1
  O  O26  1  0.30224759  0.84484636  0.97041465  1
  O  O27  1  0.54502598  0.84174874  0.47623218  1
  O  O28  1  0.30213142  0.45654719  0.47147193  1
  O  O29  1  0.16174544  0.69931599  0.47292444  1
  O  O30  1  0.12099037  0.63160064  0.35660437  1
  O  O31  1  0.50546810  0.87297635  0.36038300  1
  O  O32  1  0.36538201  0.48869211  0.36242170  1
  O  O33  1  0.13512567  0.50045425  0.85947385  1
  O  O34  1  0.36335513  0.87045114  0.86206933  1
  O  O35  1  0.49928432  0.63781481  0.86028881  1
  O  O36  1  0.02414325  0.83955676  0.40756080  1
  O  O37  1  0.81785054  0.98392282  0.40725587  1
  O  O38  1  0.17340456  0.19403663  0.40792962  1
  O  O39  1  0.02452581  0.18443965  0.90706527  1
  O  O40  1  0.17331713  0.97833132  0.90760583  1
  O  O41  1  0.81527512  0.83417537  0.90778921  1
  O  O42  1  0.96400326  0.16752130  0.58944412  1
  O  O43  1  0.18679555  0.02855300  0.58792328  1
  O  O44  1  0.82502094  0.80448986  0.58915559  1
  O  O45  1  0.96715184  0.81037557  0.08837442  1
  O  O46  1  0.82869379  0.02522124  0.08881328  1
  O  O47  1  0.19751161  0.17283242  0.08937699  1
  O  O48  1  0.68961495  0.17106946  0.74201738  1
  O  O49  1  0.47071406  0.31004958  0.74190593  1
  O  O50  1  0.82781961  0.51893144  0.74133912  1
  O  O51  1  0.69928195  0.52279163  0.24491502  1
  O  O52  1  0.83812746  0.30846395  0.24444532  1
  O  O53  1  0.46944825  0.16048148  0.24391086  1
  O  O54  1  0.64034093  0.49306620  0.92454700  1
  O  O55  1  0.85120663  0.35249664  0.92526713  1
  O  O56  1  0.49537774  0.13691226  0.92443860  1
  O  O57  1  0.64749351  0.15104040  0.42619635  1
  O  O58  1  0.49513188  0.35690634  0.42482851  1
  O  O59  1  0.84884705  0.49936195  0.42676609  1
  O  O60  1  0.36765541  0.50003424  0.07657495  1
  O  O61  1  0.15033703  0.64554083  0.07749147  1
  O  O62  1  0.50977650  0.86078170  0.07674225  1
  O  O63  1  0.36909770  0.85907811  0.57821307  1
  O  O64  1  0.50567163  0.64066671  0.57772278  1
  O  O65  1  0.13474716  0.49390517  0.57745600  1
  O  O66  1  0.29929155  0.83303458  0.25668845  1
  O  O67  1  0.51593051  0.68777782  0.25596115  1
  O  O68  1  0.15739589  0.47294530  0.25650578  1
  O  O69  1  0.31044883  0.47168394  0.75821191  1
  O  O70  1  0.16993374  0.68692730  0.75961660  1
  O  O71  1  0.51770803  0.83023350  0.75985858  1
loop_
_geom_bond_atom_site_label_1
_geom_bond_atom_site_label_2
_geom_bond_distance
_geom_bond_site_symmetry_2
Na0 O51 2.357658 1_555
Na0 O66 2.368606 1_655
Na0 O68 2.468911 1_655
Na0 O52 2.519579 1_555
Na0 O30 2.670092 1_655
Na0 O15 2.758194 1_555
Na0 O1 2.867837 1_555
Na0 O11 2.869238 1_655
Na1 O63 2.331968 1_555
Na1 O42 2.362939 1_565
Na1 O44 2.484330 1_555
Na1 O64 2.518432 1_555
Na1 O6 2.691077 1_555
Na1 O27 2.702721 1_555
Na1 O13 2.889944 1_565
Na1 O23 2.892637 1_565
Na2 O45 2.355691 1_555
Na2 O60 2.367544 1_555
Na2 O62 2.467988 1_555
Na2 O46 2.521720 1_565
Na2 O24 2.683756 1_554
Na2 O9 2.754510 1_555
Na2 O17 2.868706 1_555
Na2 O19 2.872591 1_555
Na3 O43 2.509668 1_555
Na3 O36 2.608050 1_545
Na3 O44 2.655794 1_445
Na3 O38 2.669223 1_555
Na3 O42 2.674597 1_455
Na3 O37 2.681969 1_445
Na4 O39 2.597539 1_555
Na4 O45 2.600673 1_446
Na4 O47 2.637322 1_556
Na4 O41 2.643343 1_445
Na4 O40 2.655611 1_545
Na4 O46 2.665829 1_456
Na5 O54 2.607442 1_555
Na5 O48 2.612544 1_555
Na5 O50 2.625617 1_555
Na5 O55 2.632512 1_555
Na5 O56 2.671695 1_555
Na5 O49 2.674580 1_555
Na6 O51 2.581890 1_555
Na6 O57 2.615542 1_555
Na6 O53 2.629687 1_555
Na6 O52 2.648543 1_555
Na6 O58 2.654166 1_555
Na6 O59 2.666006 1_555
Na7 O61 2.568615 1_555
Na7 O67 2.568678 1_555
Na7 O66 2.647863 1_555
Na7 O68 2.648264 1_555
Na7 O60 2.651453 1_555
Na7 O62 2.652341 1_555
Na8 O63 2.592573 1_555
Na8 O70 2.609996 1_555
Na8 O65 2.639509 1_555
Na8 O69 2.651003 1_555
Na8 O71 2.653472 1_555
Na8 O64 2.675173 1_555
Hf0 O8 1.947909 1_555
Hf0 O43 2.037845 1_565
Hf0 O6 2.047612 1_455
Hf0 O7 2.058191 1_565
Hf0 O44 2.150760 1_455
Hf0 O42 2.197348 1_465
Hf1 O9 1.992762 1_445
Hf1 O10 2.048109 1_555
Hf1 O11 2.050799 1_545
Hf1 O45 2.060931 1_445
Hf1 O47 2.117058 1_555
Hf1 O46 2.125729 1_455
Hf2 O15 1.993194 1_555
Hf2 O16 2.049951 1_555
Hf2 O17 2.051940 1_555
Hf2 O51 2.059617 1_555
Hf2 O53 2.115632 1_555
Hf2 O52 2.123976 1_555
Hf3 O25 1.960676 1_554
Hf3 O61 2.029006 1_555
Hf3 O26 2.042144 1_554
Hf3 O24 2.046585 1_554
Hf3 O60 2.148317 1_555
Hf3 O62 2.170452 1_555
Hf4 O29 1.958927 1_555
Hf4 O27 2.023760 1_555
Hf4 O63 2.064690 1_555
Hf4 O28 2.083363 1_555
Hf4 O65 2.138417 1_555
Hf4 O64 2.183071 1_555
Hf5 O31 1.966727 1_555
Hf5 O67 2.030248 1_555
Hf5 O32 2.042361 1_555
Hf5 O30 2.046005 1_555
Hf5 O66 2.143041 1_555
Hf5 O68 2.168886 1_555
Nb0 O1 1.927590 1_555
Nb0 O36 1.930394 1_655
Nb0 O37 1.938145 1_555
Nb0 O2 2.071481 1_565
Nb0 O0 2.088217 1_665
Nb0 O38 2.094812 1_665
Nb1 O5 1.924948 1_565
Nb1 O4 1.945048 1_555
Nb1 O41 1.945350 1_555
Nb1 O39 1.980051 1_665
Nb1 O40 2.112036 1_655
Nb1 O3 2.121259 1_665
Nb2 O48 1.946882 1_555
Nb2 O13 1.947497 1_555
Nb2 O50 1.981248 1_555
Nb2 O12 2.039098 1_555
Nb2 O49 2.060746 1_555
Nb2 O14 2.060932 1_555
Nb3 O19 1.924970 1_556
Nb3 O55 1.947944 1_555
Nb3 O54 1.949413 1_555
Nb3 O20 2.065470 1_556
Nb3 O18 2.086649 1_556
Nb3 O56 2.102903 1_555
Nb4 O21 1.938341 1_555
Nb4 O57 1.939312 1_555
Nb4 O59 1.972252 1_555
Nb4 O58 2.030860 1_555
Nb4 O22 2.058289 1_555
Nb4 O23 2.062797 1_555
Nb5 O33 1.956880 1_555
Nb5 O35 1.962133 1_555
Nb5 O70 1.975716 1_555
Nb5 O71 1.993378 1_555
Nb5 O34 2.045847 1_555
Nb5 O69 2.059571 1_555
O0 P0 1.538285 1_555
O1 Si0 1.668633 1_555
O2 P1 1.537844 1_655
O3 P2 1.539615 1_555
O4 Si1 1.639776 1_655
O5 Si2 1.650916 1_545
O6 Si2 1.614311 1_555
O7 P2 1.534791 1_555
O8 Si1 1.612871 1_555
O9 Si0 1.631651 1_555
O10 P1 1.542756 1_555
O11 P0 1.554929 1_565
O12 P3 1.563688 1_555
O13 Si3 1.661980 1_555
O14 P4 1.549999 1_555
O15 Si4 1.630467 1_555
O16 P5 1.539622 1_555
O17 P6 1.552345 1_555
O18 P6 1.548178 1_555
O19 Si4 1.678509 1_555
O20 P5 1.548757 1_555
O21 Si3 1.647346 1_555
O22 P4 1.540624 1_555
O23 P3 1.551763 1_555
O24 Si5 1.610896 1_555
O25 Si6 1.604978 1_555
O26 P7 1.533190 1_555
O27 Si7 1.623517 1_555
O28 P8 1.536570 1_555
O29 Si8 1.619994 1_555
O30 Si8 1.624159 1_555
O31 Si7 1.615718 1_555
O32 P8 1.547720 1_555
O33 Si6 1.640811 1_555
O34 P7 1.557908 1_555
O35 Si5 1.636661 1_555
O36 Si8 1.654188 1_555
O37 Si7 1.649962 1_555
O38 P8 1.534112 1_555
O39 Si6 1.628604 1_555
O40 P7 1.544129 1_555
O41 Si5 1.648804 1_555
O42 P3 1.546616 1_555
O43 Si3 1.613517 1_555
O44 P4 1.557708 1_555
O45 Si4 1.639316 1_555
O46 P5 1.558082 1_555
O47 P6 1.536845 1_555
O48 Si2 1.653991 1_545
O49 P2 1.559278 1_555
O50 Si1 1.640446 1_655
O51 Si0 1.638870 1_555
O52 P1 1.558066 1_655
O53 P0 1.536749 1_555
O54 Si5 1.651785 1_555
O55 Si6 1.656736 1_655
O56 P7 1.544547 1_545
O57 Si7 1.645176 1_545
O58 P8 1.557425 1_555
O59 Si8 1.640431 1_655
O60 P6 1.548075 1_555
O61 Si4 1.607875 1_455
O62 P5 1.541510 1_565
O63 Si3 1.634948 1_565
O64 P4 1.545071 1_555
O65 P3 1.530354 1_455
O66 P0 1.553360 1_565
O67 Si0 1.611859 1_555
O68 P1 1.547764 1_555
O69 P2 1.552644 1_555
O70 Si1 1.634831 1_555
O71 Si2 1.631889 1_555
