# generated using pymatgen
data_Sr2YMgCu3O7
_symmetry_space_group_name_H-M   'P 1'
_cell_length_a   3.63605678
_cell_length_b   3.93648645
_cell_length_c   14.35300232
_cell_angle_alpha   89.96438357
_cell_angle_beta   90.13132710
_cell_angle_gamma   89.99121935
_symmetry_Int_Tables_number   1
_chemical_formula_structural   Sr2YMgCu3O7
_chemical_formula_sum   'Sr2 Y1 Mg1 Cu3 O7'
_cell_volume   205.43807722
_cell_formula_units_Z   1
loop_
 _symmetry_equiv_pos_site_id
 _symmetry_equiv_pos_as_xyz
  1  'x, y, z'
loop_
 _atom_site_type_symbol
 _atom_site_label
 _atom_site_symmetry_multiplicity
 _atom_site_fract_x
 _atom_site_fract_y
 _atom_site_fract_z
 _atom_site_occupancy
  Sr  Sr0  1  0.50054929  0.49997706  0.78236745  1
  Sr  Sr1  1  0.50181644  0.49970632  0.07672526  1
  Y  Y0  1  0.50014945  0.50030609  0.52669465  1
  Mg  Mg0  1  0.49842561  0.99911745  0.26456636  1
  Cu  Cu0  1  0.00033469  0.99995407  0.93755960  1
  Cu  Cu1  1  0.00081948  0.00009707  0.65111339  1
  Cu  Cu2  1  -0.00007046  0.00057289  0.41791104  1
  O  O0  1  0.50007021  0.00014354  0.60369012  1
  O  O1  1  0.49946888  0.00056437  0.39847543  1
  O  O2  1  0.00051148  0.99985611  0.80117671  1
  O  O3  1  0.99769960  0.99932471  0.19466259  1
  O  O4  1  0.00031355  0.49977005  0.97222745  1
  O  O5  1  0.00053729  0.50010155  0.64459272  1
  O  O6  1  -0.00062650  0.50050871  0.43379123  1
loop_
_geom_bond_atom_site_label_1
_geom_bond_atom_site_label_2
_geom_bond_distance
_geom_bond_site_symmetry_2
Mg0 O1 1.922004 1_565
Mg0 O3 2.076212 1_555
Mg0 O3 2.076807 1_455
Cu0 O2 1.957506 1_555
Cu0 O4 2.029764 1_565
Cu0 O4 2.030569 1_555
Cu1 O0 1.940180 1_555
Cu1 O0 1.942361 1_455
Cu1 O5 1.970427 1_555
Cu1 O5 1.970508 1_545
Cu1 O2 2.153862 1_545
Cu2 O1 1.838282 1_555
Cu2 O1 1.840329 1_455
Cu2 O6 1.981288 1_555
Cu2 O6 1.981509 1_545
O0 Y0 2.257228 1_555
O0 Y0 2.257310 1_545
O1 Y0 2.694491 1_545
O1 Y0 2.694677 1_555
O2 Sr0 2.692439 1_455
O2 Sr0 2.692482 1_465
O2 Sr0 2.693053 1_555
O2 Sr0 2.693910 1_565
O4 Sr1 2.355297 1_456
O4 Sr1 2.358423 1_556
O5 Y0 2.481885 1_455
O5 Y0 2.485499 1_555
O5 Sr0 2.683158 1_555
O5 Sr0 2.689234 1_455
O6 Y0 2.254425 1_555
O6 Y0 2.254804 1_455
