# generated using pymatgen
data_Na2Ta2(SiO4)3
_symmetry_space_group_name_H-M   'P 1'
_cell_length_a   8.98677060
_cell_length_b   8.98677030
_cell_length_c   22.77855240
_cell_angle_alpha   90.30584020
_cell_angle_beta   89.69415981
_cell_angle_gamma   120.42894394
_symmetry_Int_Tables_number   1
_chemical_formula_structural   Na2Ta2(SiO4)3
_chemical_formula_sum   'Na12 Ta12 Si18 O72'
_cell_volume   1586.21626931
_cell_formula_units_Z   6
loop_
 _symmetry_equiv_pos_site_id
 _symmetry_equiv_pos_as_xyz
  1  'x, y, z'
loop_
 _atom_site_type_symbol
 _atom_site_label
 _atom_site_symmetry_multiplicity
 _atom_site_fract_x
 _atom_site_fract_y
 _atom_site_fract_z
 _atom_site_occupancy
  Na  Na0  1  0.36466497  0.36466497  0.25000000  1
  Na  Na1  1  0.63533503  0.63533503  0.75000000  1
  Na  Na2  1  0.03133197  0.69799797  0.58333300  1
  Na  Na3  1  0.30200203  0.96866803  0.08333300  1
  Na  Na4  1  0.69799797  0.03133197  0.91666700  1
  Na  Na5  1  0.96866803  0.30200203  0.41666700  1
  Na  Na6  1  -0.00000000  0.00000000  0.50000000  1
  Na  Na7  1  -0.00000000  -0.00000000  0.00000000  1
  Na  Na8  1  0.66666700  0.33333300  0.83333300  1
  Na  Na9  1  0.66666700  0.33333300  0.33333300  1
  Na  Na10  1  0.33333300  0.66666700  0.16666700  1
  Na  Na11  1  0.33333300  0.66666700  0.66666700  1
  Ta  Ta0  1  -0.00009598  0.99563566  0.35437967  1
  Ta  Ta1  1  0.00436434  0.00009598  0.85437967  1
  Ta  Ta2  1  0.00009598  0.00436434  0.64562033  1
  Ta  Ta3  1  0.99563566  -0.00009598  0.14562033  1
  Ta  Ta4  1  0.66657102  0.32896866  0.68771267  1
  Ta  Ta5  1  0.67103134  0.33342898  0.18771267  1
  Ta  Ta6  1  0.66676298  0.33769734  0.97895333  1
  Ta  Ta7  1  0.66230266  0.33323702  0.47895333  1
  Ta  Ta8  1  0.33323702  0.66230266  0.02104667  1
  Ta  Ta9  1  0.33769734  0.66676298  0.52104667  1
  Ta  Ta10  1  0.33342898  0.67103134  0.31228733  1
  Ta  Ta11  1  0.32896866  0.66657102  0.81228733  1
  Si  Si0  1  0.28660979  0.99623032  0.24901024  1
  Si  Si1  1  0.71139617  0.71139617  0.25000000  1
  Si  Si2  1  0.99623032  0.28660979  0.25098976  1
  Si  Si3  1  0.28860383  0.28860383  0.75000000  1
  Si  Si4  1  0.00376968  0.71339021  0.74901024  1
  Si  Si5  1  0.71339021  0.00376968  0.75098976  1
  Si  Si6  1  0.95327679  0.32956332  0.58234324  1
  Si  Si7  1  0.37806317  0.04472917  0.58333300  1
  Si  Si8  1  0.66289732  0.61994279  0.58432276  1
  Si  Si9  1  0.95527083  0.62193683  0.08333300  1
  Si  Si10  1  0.67043668  0.04672321  0.08234324  1
  Si  Si11  1  0.38005721  0.33710268  0.08432276  1
  Si  Si12  1  0.61994279  0.66289732  0.91567724  1
  Si  Si13  1  0.04472917  0.37806317  0.91666700  1
  Si  Si14  1  0.32956332  0.95327679  0.91765676  1
  Si  Si15  1  0.62193683  0.95527083  0.41666700  1
  Si  Si16  1  0.33710268  0.38005721  0.41567724  1
  Si  Si17  1  0.04672321  0.67043668  0.41765676  1
  O  O0  1  0.19660041  0.03473045  0.30578243  1
  O  O1  1  0.83412293  0.80456907  0.30702595  1
  O  O2  1  0.97061893  0.16987745  0.30930815  1
  O  O3  1  0.19543093  0.16587707  0.80702595  1
  O  O4  1  0.96526955  0.80339959  0.80578243  1
  O  O5  1  0.83012255  0.02938107  0.80930815  1
  O  O6  1  0.80339959  0.96526955  0.69421757  1
  O  O7  1  0.16587707  0.19543093  0.69297405  1
  O  O8  1  0.02938107  0.83012255  0.69069185  1
  O  O9  1  0.80456907  0.83412293  0.19297405  1
  O  O10  1  0.03473045  0.19660041  0.19421757  1
  O  O11  1  0.16987745  0.97061893  0.19069185  1
  O  O12  1  0.86326741  0.36806345  0.63911543  1
  O  O13  1  0.50078993  0.13790207  0.64035895  1
  O  O14  1  0.63728593  0.50321045  0.64264115  1
  O  O15  1  0.86209793  0.49921007  0.14035895  1
  O  O16  1  0.63193655  0.13673259  0.13911543  1
  O  O17  1  0.49678955  0.36271407  0.14264115  1
  O  O18  1  0.47006659  0.29860255  0.02755057  1
  O  O19  1  0.83254407  0.52876393  0.02630705  1
  O  O20  1  0.69604807  0.16345555  0.02402485  1
  O  O21  1  0.47123607  0.16745593  0.52630705  1
  O  O22  1  0.70139745  0.52993341  0.52755057  1
  O  O23  1  0.83654445  0.30395193  0.52402485  1
  O  O24  1  0.52993341  0.70139745  0.97244943  1
  O  O25  1  0.16745593  0.47123607  0.97369295  1
  O  O26  1  0.30395193  0.83654445  0.97597515  1
  O  O27  1  0.52876393  0.83254407  0.47369295  1
  O  O28  1  0.29860255  0.47006659  0.47244943  1
  O  O29  1  0.16345555  0.69604807  0.47597515  1
  O  O30  1  0.13673259  0.63193655  0.36088457  1
  O  O31  1  0.49921007  0.86209793  0.35964105  1
  O  O32  1  0.36271407  0.49678955  0.35735885  1
  O  O33  1  0.13790207  0.50078993  0.85964105  1
  O  O34  1  0.36806345  0.86326741  0.86088457  1
  O  O35  1  0.50321045  0.63728593  0.85735885  1
  O  O36  1  0.02563044  0.83882930  0.40927853  1
  O  O37  1  0.81598528  0.98281670  0.40958553  1
  O  O38  1  0.15922044  0.19159883  0.40938998  1
  O  O39  1  0.01718330  0.18401472  0.90958553  1
  O  O40  1  0.16117070  0.97436956  0.90927853  1
  O  O41  1  0.80840117  0.84077956  0.90938998  1
  O  O42  1  0.97436956  0.16117070  0.59072147  1
  O  O43  1  0.18401472  0.01718330  0.59041447  1
  O  O44  1  0.84077956  0.80840117  0.59061002  1
  O  O45  1  0.98281670  0.81598528  0.09041447  1
  O  O46  1  0.83882930  0.02563044  0.09072147  1
  O  O47  1  0.19159883  0.15922044  0.09061002  1
  O  O48  1  0.69229744  0.17216230  0.74261153  1
  O  O49  1  0.48265228  0.31614970  0.74291853  1
  O  O50  1  0.82588744  0.52493183  0.74272298  1
  O  O51  1  0.68385030  0.51734772  0.24291853  1
  O  O52  1  0.82783770  0.30770256  0.24261153  1
  O  O53  1  0.47506817  0.17411256  0.24272298  1
  O  O54  1  0.64103656  0.49450370  0.92405447  1
  O  O55  1  0.85068172  0.35051630  0.92374747  1
  O  O56  1  0.50744656  0.14173417  0.92394302  1
  O  O57  1  0.64948370  0.14931828  0.42374747  1
  O  O58  1  0.50549630  0.35896344  0.42405447  1
  O  O59  1  0.85826583  0.49255344  0.42394302  1
  O  O60  1  0.35896344  0.50549630  0.07594553  1
  O  O61  1  0.14931828  0.64948370  0.07625253  1
  O  O62  1  0.49255344  0.85826583  0.07605698  1
  O  O63  1  0.35051630  0.85068172  0.57625253  1
  O  O64  1  0.49450370  0.64103656  0.57594553  1
  O  O65  1  0.14173417  0.50744656  0.57605698  1
  O  O66  1  0.30770256  0.82783770  0.25738847  1
  O  O67  1  0.51734772  0.68385030  0.25708147  1
  O  O68  1  0.17411256  0.47506817  0.25727702  1
  O  O69  1  0.31614970  0.48265228  0.75708147  1
  O  O70  1  0.17216230  0.69229744  0.75738847  1
  O  O71  1  0.52493183  0.82588744  0.75727702  1
loop_
_geom_bond_atom_site_label_1
_geom_bond_atom_site_label_2
_geom_bond_distance
_geom_bond_site_symmetry_2
Na0 O53 2.379201 1_555
Na0 O68 2.379201 1_555
Na0 O67 2.479386 1_555
Na0 O51 2.479387 1_555
Na0 O32 2.716645 1_555
Na0 O17 2.716645 1_555
Na0 O0 2.858447 1_555
Na0 O10 2.858447 1_555
Na1 O71 2.379201 1_555
Na1 O50 2.379201 1_555
Na1 O49 2.479386 1_555
Na1 O69 2.479387 1_555
Na1 O14 2.716645 1_555
Na1 O35 2.716645 1_555
Na1 O6 2.858447 1_555
Na1 O4 2.858447 1_555
Na2 O65 2.379184 1_555
Na2 O44 2.379201 1_455
Na2 O63 2.479377 1_555
Na2 O43 2.479386 1_565
Na2 O29 2.716619 1_555
Na2 O8 2.716645 1_555
Na2 O12 2.858447 1_455
Na2 O22 2.858447 1_455
Na3 O62 2.379184 1_555
Na3 O47 2.379201 1_565
Na3 O61 2.479377 1_555
Na3 O45 2.479387 1_455
Na3 O26 2.716619 1_554
Na3 O11 2.716645 1_555
Na3 O18 2.858447 1_565
Na3 O16 2.858447 1_565
Na4 O56 2.379184 1_555
Na4 O41 2.379201 1_545
Na4 O55 2.479377 1_555
Na4 O39 2.479387 1_655
Na4 O20 2.716619 1_556
Na4 O5 2.716645 1_555
Na4 O24 2.858447 1_545
Na4 O34 2.858447 1_545
Na5 O59 2.379184 1_555
Na5 O38 2.379201 1_655
Na5 O57 2.479377 1_555
Na5 O37 2.479386 1_545
Na5 O23 2.716619 1_555
Na5 O2 2.716645 1_555
Na5 O30 2.858447 1_655
Na5 O28 2.858447 1_655
Na6 O42 2.592733 1_455
Na6 O36 2.592733 1_545
Na6 O37 2.602776 1_445
Na6 O43 2.602776 1_555
Na6 O44 2.604403 1_445
Na6 O38 2.604403 1_555
Na7 O40 2.592733 1_544
Na7 O46 2.592733 1_455
Na7 O39 2.602775 1_554
Na7 O45 2.602775 1_445
Na7 O41 2.604403 1_444
Na7 O47 2.604403 1_555
Na8 O48 2.592733 1_555
Na8 O54 2.592733 1_555
Na8 O55 2.602776 1_555
Na8 O49 2.602776 1_555
Na8 O50 2.604403 1_555
Na8 O56 2.604403 1_555
Na9 O52 2.592733 1_555
Na9 O58 2.592733 1_555
Na9 O51 2.602775 1_555
Na9 O57 2.602775 1_555
Na9 O53 2.604403 1_555
Na9 O59 2.604403 1_555
Na10 O60 2.592733 1_555
Na10 O66 2.592733 1_555
Na10 O61 2.602776 1_555
Na10 O67 2.602776 1_555
Na10 O62 2.604403 1_555
Na10 O68 2.604403 1_555
Na11 O70 2.592733 1_555
Na11 O64 2.592733 1_555
Na11 O63 2.602775 1_555
Na11 O69 2.602775 1_555
Na11 O71 2.604403 1_555
Na11 O65 2.604403 1_555
O0 Si0 1.647393 1_545
O0 Ta0 1.956439 1_545
O1 Si1 1.634959 1_555
O1 Ta0 1.933277 1_655
O2 Si2 1.638652 1_555
O2 Ta0 2.003182 1_645
O3 Si3 1.634959 1_555
O3 Ta1 1.933277 1_555
O4 Si4 1.647393 1_655
O4 Ta1 1.956439 1_665
O5 Si5 1.638652 1_555
O5 Ta1 2.003182 1_655
O6 Si5 1.647393 1_565
O6 Ta2 1.956439 1_665
O7 Si3 1.634959 1_555
O7 Ta2 1.933277 1_555
O8 Si4 1.638652 1_555
O8 Ta2 2.003182 1_565
O9 Si1 1.634959 1_555
O9 Ta3 1.933277 1_565
O10 Si2 1.647393 1_455
O10 Ta3 1.956439 1_455
O11 Si0 1.638652 1_555
O11 Ta3 2.003182 1_465
O12 Si6 1.647393 1_555
O12 Ta4 1.956439 1_555
O13 Si7 1.634959 1_555
O13 Ta4 1.933277 1_555
O14 Si8 1.638652 1_555
O14 Ta4 2.003182 1_555
O15 Si9 1.634959 1_555
O15 Ta5 1.933277 1_555
O16 Si10 1.647393 1_555
O16 Ta5 1.956439 1_555
O17 Si11 1.638652 1_555
O17 Ta5 2.003182 1_555
O18 Si11 1.647393 1_555
O18 Ta6 1.956439 1_554
O19 Si9 1.634959 1_555
O19 Ta6 1.933277 1_554
O20 Si10 1.638652 1_555
O20 Ta6 2.003182 1_554
O21 Si7 1.634959 1_555
O21 Ta7 1.933277 1_555
O22 Si8 1.647393 1_555
O22 Ta7 1.956439 1_555
O23 Si6 1.638652 1_555
O23 Ta7 2.003182 1_555
O24 Si12 1.647393 1_555
O24 Ta8 1.956439 1_556
O25 Si13 1.634959 1_555
O25 Ta8 1.933277 1_556
O26 Si14 1.638652 1_555
O26 Ta8 2.003182 1_556
O27 Si15 1.634959 1_555
O27 Ta9 1.933277 1_555
O28 Si16 1.647393 1_555
O28 Ta9 1.956439 1_555
O29 Si17 1.638652 1_555
O29 Ta9 2.003182 1_555
O30 Si17 1.647393 1_555
O30 Ta10 1.956439 1_555
O31 Si15 1.634959 1_555
O31 Ta10 1.933277 1_555
O32 Si16 1.638652 1_555
O32 Ta10 2.003182 1_555
O33 Si13 1.634959 1_555
O33 Ta11 1.933277 1_555
O34 Si14 1.647393 1_555
O34 Ta11 1.956439 1_555
O35 Si12 1.638652 1_555
O35 Ta11 2.003182 1_555
O36 Si17 1.629872 1_555
O36 Ta0 1.988707 1_555
O37 Si15 1.639672 1_555
O37 Ta0 2.028041 1_655
O38 Si16 1.643711 1_555
O38 Ta0 2.040339 1_545
O39 Si13 1.639672 1_555
O39 Ta1 2.028041 1_555
O40 Si14 1.629873 1_555
O40 Ta1 1.988707 1_565
O41 Si12 1.643711 1_555
O41 Ta1 2.040339 1_665
O42 Si6 1.629872 1_555
O42 Ta2 1.988707 1_655
O43 Si7 1.639672 1_555
O43 Ta2 2.028041 1_555
O44 Si8 1.643711 1_555
O44 Ta2 2.040339 1_665
O45 Si9 1.639672 1_555
O45 Ta3 2.028041 1_565
O46 Si10 1.629873 1_555
O46 Ta3 1.988707 1_555
O47 Si11 1.643711 1_555
O47 Ta3 2.040339 1_455
O48 Si5 1.629872 1_555
O48 Ta4 1.988707 1_555
O49 Si3 1.639672 1_555
O49 Ta4 2.028041 1_555
O50 Si4 1.643711 1_655
O50 Ta4 2.040339 1_555
O51 Si1 1.639672 1_555
O51 Ta5 2.028041 1_555
O52 Si2 1.629873 1_555
O52 Ta5 1.988707 1_555
O53 Si0 1.643711 1_545
O53 Ta5 2.040339 1_555
O54 Si12 1.629884 1_555
O54 Ta6 1.988707 1_555
O55 Si13 1.639657 1_655
O55 Ta6 2.028041 1_555
O56 Si14 1.643708 1_545
O56 Ta6 2.040339 1_555
O57 Si15 1.639657 1_545
O57 Ta7 2.028041 1_555
O58 Si16 1.629884 1_555
O58 Ta7 1.988707 1_555
O59 Si17 1.643708 1_655
O59 Ta7 2.040339 1_555
O60 Si11 1.629884 1_555
O60 Ta8 1.988707 1_555
O61 Si9 1.639657 1_455
O61 Ta8 2.028041 1_555
O62 Si10 1.643708 1_565
O62 Ta8 2.040339 1_555
O63 Si7 1.639657 1_565
O63 Ta9 2.028041 1_555
O64 Si8 1.629884 1_555
O64 Ta9 1.988707 1_555
O65 Si6 1.643708 1_455
O65 Ta9 2.040339 1_555
O66 Si0 1.629872 1_555
O66 Ta10 1.988707 1_555
O67 Si1 1.639672 1_555
O67 Ta10 2.028041 1_555
O68 Si2 1.643711 1_455
O68 Ta10 2.040339 1_555
O69 Si3 1.639672 1_555
O69 Ta11 2.028041 1_555
O70 Si4 1.629873 1_555
O70 Ta11 1.988707 1_555
O71 Si5 1.643711 1_565
O71 Ta11 2.040339 1_555
