# generated using pymatgen
data_Ba2YbMgRuO6
_symmetry_space_group_name_H-M   'P 1'
_cell_length_a   6.57906116
_cell_length_b   6.57906162
_cell_length_c   6.55865234
_cell_angle_alpha   53.54621693
_cell_angle_beta   53.54621495
_cell_angle_gamma   53.42491372
_symmetry_Int_Tables_number   1
_chemical_formula_structural   Ba2YbMgRuO6
_chemical_formula_sum   'Ba2 Yb1 Mg1 Ru1 O6'
_cell_volume   170.23296636
_cell_formula_units_Z   1
loop_
 _symmetry_equiv_pos_site_id
 _symmetry_equiv_pos_as_xyz
  1  'x, y, z'
loop_
 _atom_site_type_symbol
 _atom_site_label
 _atom_site_symmetry_multiplicity
 _atom_site_fract_x
 _atom_site_fract_y
 _atom_site_fract_z
 _atom_site_occupancy
  Ba  Ba0  1  0.73463434  0.73463434  0.73261419  1
  Ba  Ba1  1  0.19706222  0.19706222  0.19583406  1
  Yb  Yb0  1  0.53033906  0.53033906  0.52835497  1
  Mg  Mg0  1  0.37160064  0.37160064  0.36746068  1
  Ru  Ru0  1  0.00091225  0.00091225  0.00027821  1
  O  O0  1  0.25174946  0.77509576  0.77711052  1
  O  O1  1  0.24606301  0.75651755  0.24451999  1
  O  O2  1  0.77509576  0.25174946  0.77711052  1
  O  O3  1  0.24528932  0.24528932  0.75373557  1
  O  O4  1  0.75651755  0.24606301  0.24451999  1
  O  O5  1  0.77615436  0.77615436  0.25346031  1
loop_
_geom_bond_atom_site_label_1
_geom_bond_atom_site_label_2
_geom_bond_distance
_geom_bond_site_symmetry_2
Ba0 O5 2.841454 1_555
Ba0 O0 2.869077 1_555
Ba0 O2 2.869077 1_555
Ba0 O3 2.967157 1_655
Ba0 O3 2.967157 1_565
Ba0 O1 2.969781 1_655
Ba0 O4 2.969781 1_565
Ba0 O1 2.970410 1_556
Ba0 O4 2.970410 1_556
Ba1 O4 2.552532 1_455
Ba1 O1 2.552533 1_545
Ba1 O3 2.557785 1_554
Ba1 Mg0 2.923649 1_555
Ba1 O2 3.190477 1_554
Ba1 O0 3.190477 1_554
Ba1 O5 3.196960 1_545
Ba1 O5 3.196960 1_455
Ba1 O2 3.198941 1_455
Ba1 O0 3.198941 1_545
Mg0 O4 1.901991 1_555
Mg0 O1 1.901991 1_555
Mg0 O3 1.902311 1_555
O0 Ru0 1.965898 1_566
O0 Yb0 2.159919 1_555
O1 Ru0 2.161388 1_565
O1 Yb0 2.589693 1_555
O2 Ru0 1.965898 1_656
O2 Yb0 2.159919 1_555
O3 Ru0 2.164785 1_556
O3 Yb0 2.611861 1_555
O4 Ru0 2.161388 1_655
O4 Yb0 2.589693 1_555
O5 Ru0 1.974961 1_665
O5 Yb0 2.160678 1_555
