# generated using pymatgen
data_Na5Sc3Si3Ge(SO8)3
_symmetry_space_group_name_H-M   'P 1'
_cell_length_a   9.01655064
_cell_length_b   8.94679029
_cell_length_c   22.58232829
_cell_angle_alpha   91.52215319
_cell_angle_beta   89.71631213
_cell_angle_gamma   120.14314982
_symmetry_Int_Tables_number   1
_chemical_formula_structural   Na5Sc3Si3Ge(SO8)3
_chemical_formula_sum   'Na15 Sc9 Si9 Ge3 S9 O72'
_cell_volume   1574.72616554
_cell_formula_units_Z   3
loop_
 _symmetry_equiv_pos_site_id
 _symmetry_equiv_pos_as_xyz
  1  'x, y, z'
loop_
 _atom_site_type_symbol
 _atom_site_label
 _atom_site_symmetry_multiplicity
 _atom_site_fract_x
 _atom_site_fract_y
 _atom_site_fract_z
 _atom_site_occupancy
  Na  Na0  1  0.64467712  0.00683600  0.25584040  1
  Na  Na1  1  0.00199006  0.62658856  0.24831389  1
  Na  Na2  1  0.63739575  0.64169302  0.74518451  1
  Na  Na3  1  0.36523032  0.00925119  0.75686315  1
  Na  Na4  1  0.66610108  0.95196631  0.58501125  1
  Na  Na5  1  0.97254256  0.67648232  0.92136511  1
  Na  Na6  1  0.70072430  0.02491879  0.91490515  1
  Na  Na7  1  0.97023412  0.30896875  0.41069870  1
  Na  Na8  1  0.70220120  0.67974247  0.42508655  1
  Na  Na9  1  0.00750306  0.98033388  0.50233527  1
  Na  Na10  1  0.00794814  0.98927413  0.99876517  1
  Na  Na11  1  0.65439205  0.32413908  0.83282652  1
  Na  Na12  1  0.65980303  0.32017993  0.33555484  1
  Na  Na13  1  0.30605897  0.63695473  0.16084889  1
  Na  Na14  1  0.32577109  0.63655700  0.66832175  1
  Sc  Sc0  1  0.99406222  0.00356318  0.35431752  1
  Sc  Sc1  1  0.00886039  0.01138312  0.85189626  1
  Sc  Sc2  1  0.99435289  0.00095234  0.65125270  1
  Sc  Sc3  1  0.00221112  0.00152147  0.14187958  1
  Sc  Sc4  1  0.65677924  0.33651045  0.68815650  1
  Sc  Sc5  1  0.68090886  0.33880746  0.18265515  1
  Sc  Sc6  1  0.33154303  0.67548755  0.01895774  1
  Sc  Sc7  1  0.33835181  0.67379086  0.51784143  1
  Sc  Sc8  1  0.32066802  0.66476503  0.31911505  1
  Si  Si0  1  0.00478396  0.29625851  0.25034652  1
  Si  Si1  1  0.28694462  0.30302613  0.75252061  1
  Si  Si2  1  0.70494252  0.00360375  0.75242845  1
  Si  Si3  1  0.66679118  0.62390310  0.58287923  1
  Si  Si4  1  0.95481575  0.62013388  0.08098839  1
  Si  Si5  1  0.62632172  0.66442344  0.91883320  1
  Si  Si6  1  0.33970235  0.96257089  0.91803294  1
  Si  Si7  1  0.62432057  0.97143044  0.41932741  1
  Si  Si8  1  0.03594264  0.66810167  0.41893737  1
  Ge  Ge0  1  0.64664398  0.34903853  0.97860295  1
  Ge  Ge1  1  0.69157299  0.34831076  0.48177535  1
  Ge  Ge2  1  0.37742443  0.68200866  0.81645752  1
  S  S0  1  0.29207092  0.00213044  0.24954655  1
  S  S1  1  0.70317939  0.70534277  0.24958753  1
  S  S2  1  0.00658434  0.70711593  0.75068219  1
  S  S3  1  0.95733404  0.33491066  0.58225946  1
  S  S4  1  0.37674284  0.04869062  0.58122597  1
  S  S5  1  0.66808401  0.04129844  0.08164913  1
  S  S6  1  0.37880711  0.33229040  0.08214452  1
  S  S7  1  0.04368428  0.38112064  0.91606641  1
  S  S8  1  0.34034065  0.37356110  0.41687206  1
  O  O0  1  0.21003927  0.02093407  0.30342903  1
  O  O1  1  0.80893852  0.78187536  0.30458046  1
  O  O2  1  0.97419191  0.18429064  0.31042753  1
  O  O3  1  0.20854683  0.17058034  0.80621158  1
  O  O4  1  0.97376702  0.78141484  0.80516746  1
  O  O5  1  0.81281246  0.02095967  0.81145080  1
  O  O6  1  0.78164904  0.95772427  0.69283814  1
  O  O7  1  0.17308314  0.21253369  0.69277299  1
  O  O8  1  0.03038863  0.81693244  0.69920679  1
  O  O9  1  0.79151997  0.81188323  0.19827411  1
  O  O10  1  0.01643119  0.18794717  0.19352291  1
  O  O11  1  0.18413137  0.97064807  0.19634910  1
  O  O12  1  0.86776194  0.35270769  0.63364716  1
  O  O13  1  0.47871869  0.12506602  0.63660498  1
  O  O14  1  0.65188863  0.51740509  0.64143639  1
  O  O15  1  0.86796805  0.51721482  0.14210244  1
  O  O16  1  0.64858899  0.12278790  0.13743701  1
  O  O17  1  0.48271621  0.34946775  0.13417979  1
  O  O18  1  0.45333237  0.29924299  0.02576900  1
  O  O19  1  0.82295543  0.51245673  0.02149658  1
  O  O20  1  0.68518646  0.14313548  0.02908386  1
  O  O21  1  0.46591938  0.15332973  0.52907556  1
  O  O22  1  0.68476943  0.51913496  0.52121088  1
  O  O23  1  0.85051377  0.30332564  0.52525152  1
  O  O24  1  0.53007913  0.69391661  0.97322616  1
  O  O25  1  0.14150980  0.45749547  0.97113261  1
  O  O26  1  0.29909008  0.83666245  0.97243950  1
  O  O27  1  0.54442592  0.84321666  0.47466586  1
  O  O28  1  0.31034077  0.45116629  0.47053619  1
  O  O29  1  0.15355051  0.68355971  0.47439652  1
  O  O30  1  0.10776667  0.62113877  0.35838254  1
  O  O31  1  0.51559129  0.88870461  0.35783151  1
  O  O32  1  0.36661810  0.48316249  0.36503772  1
  O  O33  1  0.12631408  0.48955031  0.86402103  1
  O  O34  1  0.38202572  0.87211729  0.85705771  1
  O  O35  1  0.51828567  0.63324933  0.85568568  1
  O  O36  1  0.00234766  0.82869854  0.41183903  1
  O  O37  1  0.82011128  0.00103718  0.41320983  1
  O  O38  1  0.18575709  0.20088047  0.40971810  1
  O  O39  1  0.01792398  0.20368980  0.91168160  1
  O  O40  1  0.17333157  0.98185887  0.90904093  1
  O  O41  1  0.81868061  0.83070649  0.91337959  1
  O  O42  1  0.96669142  0.17409676  0.58411799  1
  O  O43  1  0.20515262  0.02847866  0.58554388  1
  O  O44  1  0.83827436  0.81780732  0.58296191  1
  O  O45  1  0.97062984  0.81043204  0.08367631  1
  O  O46  1  0.82398432  0.02554006  0.08574281  1
  O  O47  1  0.20678035  0.17642868  0.08492834  1
  O  O48  1  0.66826965  0.16227157  0.74471342  1
  O  O49  1  0.48462134  0.33608271  0.74593153  1
  O  O50  1  0.85225623  0.53386664  0.74318361  1
  O  O51  1  0.68076290  0.52972458  0.24423592  1
  O  O52  1  0.82738591  0.31333261  0.24713289  1
  O  O53  1  0.46628950  0.15511655  0.24489875  1
  O  O54  1  0.64583640  0.48759108  0.92185872  1
  O  O55  1  0.86766952  0.36157280  0.91890970  1
  O  O56  1  0.52741909  0.15480838  0.92850391  1
  O  O57  1  0.64568917  0.16790027  0.43078368  1
  O  O58  1  0.49593070  0.35820320  0.42105423  1
  O  O59  1  0.83936229  0.48826490  0.42469811  1
  O  O60  1  0.36638772  0.48879061  0.07773023  1
  O  O61  1  0.14018356  0.63278949  0.07700635  1
  O  O62  1  0.51376046  0.86693766  0.07977538  1
  O  O63  1  0.36357628  0.87523224  0.57702706  1
  O  O64  1  0.49742894  0.64702356  0.57781574  1
  O  O65  1  0.12740912  0.48766611  0.57740343  1
  O  O66  1  0.31219382  0.84526939  0.25317592  1
  O  O67  1  0.53561709  0.69649320  0.25514862  1
  O  O68  1  0.17134663  0.49295357  0.25334742  1
  O  O69  1  0.30536560  0.49831819  0.76252765  1
  O  O70  1  0.16334287  0.69554563  0.75565598  1
  O  O71  1  0.50816793  0.82181426  0.75654645  1
loop_
_geom_bond_atom_site_label_1
_geom_bond_atom_site_label_2
_geom_bond_distance
_geom_bond_site_symmetry_2
Na0 O52 2.400106 1_555
Na0 O67 2.435626 1_545
Na0 O53 2.563686 1_555
Na0 O31 2.577549 1_545
Na0 O66 2.593307 1_545
Na0 O2 2.839436 1_555
Na0 O16 2.887292 1_555
Na0 O9 2.943984 1_545
Na1 O68 2.369956 1_555
Na1 O52 2.428803 1_455
Na1 O66 2.481666 1_555
Na1 O51 2.574086 1_455
Na1 O15 2.624317 1_455
Na1 O30 2.677098 1_555
Na1 O11 2.940288 1_555
Na1 O1 2.981225 1_455
Na2 O49 2.365025 1_555
Na2 O71 2.425151 1_555
Na2 O50 2.561178 1_555
Na2 O14 2.597523 1_555
Na2 O69 2.630532 1_555
Na2 O35 2.699627 1_555
Na2 O6 2.748183 1_555
Na2 O4 2.956182 1_555
Na3 O48 2.381391 1_555
Na3 O70 2.461090 1_545
Na3 O71 2.577430 1_545
Na3 O49 2.577680 1_555
Na3 O34 2.642952 1_545
Na3 O3 2.695919 1_555
Na3 O8 2.910934 1_545
Na3 O13 2.924538 1_555
Na4 O64 2.365261 1_555
Na4 O44 2.391769 1_555
Na4 O42 2.426446 1_565
Na4 O63 2.462089 1_555
Na4 O6 2.642307 1_555
Na4 O27 2.680640 1_555
Na5 O41 2.408154 1_555
Na5 O40 2.426389 1_655
Na5 O55 2.480259 1_555
Na5 O54 2.556274 1_555
Na5 O19 2.691463 1_556
Na5 O26 2.785892 1_655
Na5 O4 2.808400 1_555
Na5 O33 2.931271 1_655
Na6 O56 2.384656 1_555
Na6 O41 2.450302 1_545
Na6 O39 2.480573 1_655
Na6 O5 2.547324 1_555
Na6 O55 2.603735 1_555
Na6 O20 2.790499 1_556
Na6 O34 2.798157 1_545
Na6 O24 2.912524 1_545
Na7 O37 2.384893 1_555
Na7 O59 2.436396 1_555
Na7 O2 2.505563 1_555
Na7 O38 2.568612 1_655
Na7 O57 2.582586 1_555
Na7 O30 2.723293 1_655
Na7 O23 2.790025 1_555
Na7 O28 2.979917 1_655
Na8 O36 2.362302 1_655
Na8 O58 2.521369 1_555
Na8 O37 2.536560 1_565
Na8 O59 2.567331 1_555
Na8 O22 2.595562 1_555
Na8 O27 2.720895 1_555
Na8 O1 2.896491 1_555
Na8 O32 2.942247 1_555
Na9 O44 2.375399 1_455
Na9 O36 2.410257 1_555
Na9 O43 2.472144 1_565
Na9 O42 2.648643 1_465
Na9 O37 2.703285 1_465
Na9 O38 2.802135 1_565
Na10 O45 2.442557 1_456
Na10 O41 2.469545 1_455
Na10 O40 2.528983 1_555
Na10 O47 2.578831 1_566
Na10 O46 2.681220 1_466
Na10 O39 2.753322 1_565
Na11 O48 2.469547 1_555
Na11 O54 2.478380 1_555
Na11 O49 2.531867 1_555
Na11 O56 2.584874 1_555
Na11 O55 2.635294 1_555
Na11 O50 2.757832 1_555
Na12 O52 2.516074 1_555
Na12 O59 2.522161 1_555
Na12 O58 2.543322 1_555
Na12 O57 2.544757 1_555
Na12 O53 2.589077 1_555
Na12 O51 2.765638 1_555
Na13 O61 2.406534 1_555
Na13 O68 2.458580 1_555
Na13 O60 2.481562 1_555
Na13 O62 2.718274 1_555
Na13 O66 2.741319 1_555
Na13 O67 2.824673 1_555
Na14 O69 2.448808 1_555
Na14 O64 2.532762 1_555
Na14 O71 2.557453 1_555
Na14 O65 2.585928 1_555
Na14 O70 2.646771 1_555
Na14 O63 2.902121 1_555
Ge0 O19 1.791311 1_556
Ge0 O54 1.808933 1_555
Ge0 O56 1.867288 1_555
Ge0 O18 1.896830 1_556
Ge0 O55 2.357603 1_555
Ge0 O20 2.360585 1_556
Ge1 O22 1.775932 1_555
Ge1 O57 1.826951 1_555
Ge1 O59 1.843335 1_555
Ge1 O23 1.947787 1_555
Ge1 O21 2.199217 1_555
Ge1 O58 2.277510 1_555
Ge2 O35 1.782217 1_555
Ge2 O71 1.837896 1_555
Ge2 O69 1.853464 1_555
Ge2 O34 1.892596 1_555
Ge2 O33 2.324575 1_555
Ge2 O70 2.428116 1_555
O0 S0 1.470081 1_555
O0 Sc0 2.195537 1_455
O1 S1 1.493717 1_555
O1 Sc0 2.134666 1_565
O2 Si0 1.646634 1_655
O2 Sc0 2.001690 1_555
O3 Si1 1.612603 1_555
O3 Sc1 1.954191 1_555
O4 S2 1.481153 1_655
O4 Sc1 2.163561 1_665
O5 Si2 1.611451 1_555
O5 Sc1 2.034327 1_655
O6 Si2 1.644468 1_565
O6 Sc2 1.991523 1_565
O7 Si1 1.628134 1_555
O7 Sc2 1.978993 1_455
O8 S2 1.486288 1_555
O8 Sc2 2.150425 1_465
O9 S1 1.474046 1_555
O9 Sc3 2.227807 1_665
O10 Si0 1.622190 1_555
O10 Sc3 1.960055 1_555
O11 S0 1.479188 1_565
O11 Sc3 2.184707 1_565
O12 S3 1.460935 1_555
O12 Sc4 2.205570 1_555
O13 S4 1.487043 1_555
O13 Sc4 2.088722 1_555
O14 Si3 1.615901 1_555
O14 Sc4 1.974140 1_555
O15 Si4 1.642673 1_555
O15 Sc5 1.894650 1_555
O16 S5 1.492416 1_555
O16 Sc5 2.048254 1_555
O17 S6 1.462501 1_555
O17 Sc5 2.144049 1_555
O18 S6 1.526689 1_555
O19 Si4 1.715589 1_555
O20 S5 1.475645 1_555
O21 S4 1.484276 1_555
O22 Si3 1.710343 1_555
O23 S3 1.544164 1_555
O24 Si5 1.591737 1_555
O24 Sc6 1.998127 1_556
O25 S7 1.466858 1_555
O25 Sc6 2.110988 1_556
O26 Si6 1.602297 1_555
O26 Sc6 1.943143 1_556
O27 Si7 1.622894 1_555
O27 Sc7 1.983099 1_555
O28 S8 1.471233 1_555
O28 Sc7 2.134608 1_555
O29 Si8 1.602738 1_555
O29 Sc7 1.978290 1_555
O30 Si8 1.643134 1_555
O30 Sc8 1.967919 1_555
O31 Si7 1.633276 1_555
O31 Sc8 2.062317 1_555
O32 S8 1.487527 1_555
O32 Sc8 2.157960 1_555
O33 S7 1.484429 1_555
O34 Si6 1.715321 1_555
O35 Si5 1.667326 1_555
O36 Si8 1.622267 1_555
O36 Sc0 2.089689 1_465
O37 Si7 1.653972 1_545
O37 Sc0 2.043172 1_555
O38 S8 1.477141 1_555
O38 Sc0 2.123375 1_455
O39 S7 1.485018 1_555
O39 Sc1 2.127467 1_555
O40 Si6 1.608150 1_555
O40 Sc1 2.089190 1_565
O41 Si5 1.628736 1_555
O41 Sc1 2.189285 1_665
O42 S3 1.484619 1_555
O42 Sc2 2.297140 1_555
O43 S4 1.467769 1_555
O43 Sc2 2.323030 1_455
O44 Si3 1.645053 1_555
O44 Sc2 2.148246 1_565
O45 Si4 1.635084 1_555
O45 Sc3 2.031476 1_665
O46 S5 1.485055 1_555
O46 Sc3 2.148749 1_655
O47 S6 1.478430 1_555
O47 Sc3 2.165544 1_555
O48 Si2 1.624808 1_555
O48 Sc4 2.083586 1_555
O49 Si1 1.660338 1_555
O49 Sc4 2.021393 1_555
O50 S2 1.479775 1_655
O50 Sc4 2.132588 1_555
O51 S1 1.481686 1_555
O51 Sc5 2.174283 1_555
O52 Si0 1.683507 1_655
O52 Sc5 2.062847 1_555
O53 S0 1.482783 1_555
O53 Sc5 2.307188 1_555
O54 Si5 1.680492 1_555
O55 S7 1.508062 1_655
O56 Si6 1.713906 1_545
O57 Si7 1.682266 1_545
O58 S8 1.480366 1_555
O59 Si8 1.700592 1_655
O60 S6 1.465592 1_555
O60 Sc6 2.302002 1_555
O61 Si4 1.619692 1_455
O61 Sc6 2.045377 1_555
O62 S5 1.479364 1_565
O62 Sc6 2.142547 1_555
O63 S4 1.496237 1_565
O63 Sc7 2.132973 1_555
O64 Si3 1.645605 1_555
O64 Sc7 2.080957 1_555
O65 S3 1.460433 1_455
O65 Sc7 2.261057 1_555
O66 S0 1.507040 1_565
O66 Sc8 2.254764 1_555
O67 S1 1.477556 1_555
O67 Sc8 2.316235 1_555
O68 Si0 1.642337 1_555
O68 Sc8 2.049713 1_555
O69 Si1 1.679115 1_555
O70 S2 1.473169 1_555
O71 Si2 1.705895 1_565
