# generated using pymatgen
data_LiV3(P3O10)2
_symmetry_space_group_name_H-M   'P 1'
_cell_length_a   8.42122004
_cell_length_b   8.42122004
_cell_length_c   12.28681200
_cell_angle_alpha   90.00000000
_cell_angle_beta   90.00000000
_cell_angle_gamma   104.86047215
_symmetry_Int_Tables_number   1
_chemical_formula_structural   LiV3(P3O10)2
_chemical_formula_sum   'Li2 V6 P12 O40'
_cell_volume   842.19959051
_cell_formula_units_Z   2
loop_
 _symmetry_equiv_pos_site_id
 _symmetry_equiv_pos_as_xyz
  1  'x, y, z'
loop_
 _atom_site_type_symbol
 _atom_site_label
 _atom_site_symmetry_multiplicity
 _atom_site_fract_x
 _atom_site_fract_y
 _atom_site_fract_z
 _atom_site_occupancy
  Li  Li0  1  0.41594900  0.41594900  0.25000000  1
  Li  Li1  1  0.58405100  0.58405100  0.75000000  1
  V  V0  1  0.12726000  0.12726000  0.25000000  1
  V  V1  1  0.23646400  0.76353600  0.50000000  1
  V  V2  1  0.30157200  0.69842800  0.00000000  1
  V  V3  1  0.69842800  0.30157200  0.50000000  1
  V  V4  1  0.76353600  0.23646400  0.00000000  1
  V  V5  1  0.87274000  0.87274000  0.75000000  1
  P  P0  1  0.08779500  0.37282600  0.56468600  1
  P  P1  1  0.37282600  0.08779500  0.93531400  1
  P  P2  1  0.18364100  0.30012300  0.03036300  1
  P  P3  1  0.30012300  0.18364100  0.46963700  1
  P  P4  1  0.73538800  0.14968700  0.26425000  1
  P  P5  1  0.14968700  0.73538800  0.23575000  1
  P  P6  1  0.26461200  0.85031300  0.76425000  1
  P  P7  1  0.85031300  0.26461200  0.73575000  1
  P  P8  1  0.69987700  0.81635900  0.96963700  1
  P  P9  1  0.81635900  0.69987700  0.53036300  1
  P  P10  1  0.91220500  0.62717400  0.06468600  1
  P  P11  1  0.62717400  0.91220500  0.43531400  1
  O  O0  1  0.00045600  0.26166800  0.04673400  1
  O  O1  1  0.26166800  0.00045600  0.45326600  1
  O  O2  1  0.16216000  0.21586900  0.55277300  1
  O  O3  1  0.21586900  0.16216000  0.94722700  1
  O  O4  1  0.03330100  0.36128200  0.69021100  1
  O  O5  1  0.36128200  0.03330100  0.80978900  1
  O  O6  1  0.27537300  0.26271400  0.35666800  1
  O  O7  1  0.26271400  0.27537300  0.14333200  1
  O  O8  1  0.06014100  0.65933000  0.99084800  1
  O  O9  1  0.65933000  0.06014100  0.50915200  1
  O  O10  1  0.46167100  0.27377800  0.52005900  1
  O  O11  1  0.27377800  0.46167100  0.97994100  1
  O  O12  1  0.52761100  0.22197500  0.95180200  1
  O  O13  1  0.22197500  0.52761100  0.54819800  1
  O  O14  1  0.14873500  0.68663500  0.35422200  1
  O  O15  1  0.68663500  0.14873500  0.14577800  1
  O  O16  1  0.08133800  0.84667600  0.78224600  1
  O  O17  1  0.84667600  0.08133800  0.71775400  1
  O  O18  1  0.67887700  0.27623600  0.33199400  1
  O  O19  1  0.27623600  0.67887700  0.16800600  1
  O  O20  1  0.32112300  0.72376400  0.83199400  1
  O  O21  1  0.72376400  0.32112300  0.66800600  1
  O  O22  1  0.91866200  0.15332400  0.28224600  1
  O  O23  1  0.15332400  0.91866200  0.21775400  1
  O  O24  1  0.85126500  0.31336500  0.85422200  1
  O  O25  1  0.31336500  0.85126500  0.64577800  1
  O  O26  1  0.47238900  0.77802500  0.45180200  1
  O  O27  1  0.77802500  0.47238900  0.04819800  1
  O  O28  1  0.53832900  0.72622200  0.02005900  1
  O  O29  1  0.72622200  0.53832900  0.47994100  1
  O  O30  1  0.34067000  0.93985900  0.00915200  1
  O  O31  1  0.93985900  0.34067000  0.49084800  1
  O  O32  1  0.72462700  0.73728600  0.85666800  1
  O  O33  1  0.73728600  0.72462700  0.64333200  1
  O  O34  1  0.63871800  0.96669900  0.30978900  1
  O  O35  1  0.96669900  0.63871800  0.19021100  1
  O  O36  1  0.83784000  0.78413100  0.05277300  1
  O  O37  1  0.78413100  0.83784000  0.44722700  1
  O  O38  1  0.73833200  0.99954400  0.95326600  1
  O  O39  1  0.99954400  0.73833200  0.54673400  1
loop_
_geom_bond_atom_site_label_1
_geom_bond_atom_site_label_2
_geom_bond_distance
_geom_bond_site_symmetry_2
Li0 O6 2.000189 1_555
Li0 O7 2.000189 1_555
Li1 O32 2.000189 1_555
Li1 O33 2.000189 1_555
O0 P2 1.506264 1_555
O0 V4 2.034257 1_455
O1 P3 1.506264 1_555
O1 V1 2.034257 1_545
O2 P0 1.607875 1_555
O2 P3 1.621304 1_555
O3 P1 1.607875 1_555
O3 P2 1.621304 1_556
O4 P0 1.604948 1_555
O4 P7 1.645284 1_455
O5 P1 1.604948 1_555
O5 P6 1.645284 1_545
O6 P3 1.576282 1_555
O6 V0 1.960821 1_555
O7 P2 1.576282 1_555
O7 V0 1.960821 1_555
O8 P10 1.508437 1_456
O8 V2 1.977716 1_556
O9 P11 1.508437 1_545
O9 V3 1.977716 1_555
O10 P3 1.510325 1_555
O10 V3 1.962481 1_555
O11 P2 1.510325 1_556
O11 V2 1.962481 1_556
O12 P1 1.503801 1_555
O12 V4 2.046589 1_556
O13 P0 1.503801 1_555
O13 V1 2.046589 1_555
O14 P5 1.511897 1_555
O14 V1 1.981916 1_555
O15 P4 1.511897 1_555
O15 V4 1.981916 1_555
O16 P6 1.551656 1_555
O16 V5 1.867817 1_455
O17 P7 1.551656 1_555
O17 V5 1.867817 1_545
O18 P4 1.521558 1_555
O18 V3 2.077444 1_555
O19 P5 1.521558 1_555
O19 V2 2.077444 1_555
O20 P6 1.521558 1_555
O20 V2 2.077444 1_556
O21 P7 1.521558 1_555
O21 V3 2.077444 1_555
O22 P4 1.551656 1_555
O22 V0 1.867817 1_655
O23 P5 1.551656 1_555
O23 V0 1.867817 1_565
O24 P7 1.511897 1_555
O24 V4 1.981916 1_556
O25 P6 1.511897 1_555
O25 V1 1.981916 1_555
O26 P11 1.503801 1_555
O26 V1 2.046589 1_555
O27 P10 1.503801 1_555
O27 V4 2.046589 1_555
O28 P8 1.510325 1_554
O28 V2 1.962481 1_555
O29 P9 1.510325 1_555
O29 V3 1.962481 1_555
O30 P1 1.508437 1_564
O30 V2 1.977716 1_555
O31 P0 1.508437 1_655
O31 V3 1.977716 1_555
O32 P8 1.576282 1_555
O32 V5 1.960821 1_555
O33 P9 1.576282 1_555
O33 V5 1.960821 1_555
O34 P11 1.604948 1_555
O34 P4 1.645284 1_565
O35 P10 1.604948 1_555
O35 P5 1.645284 1_655
O36 P10 1.607875 1_555
O36 P8 1.621304 1_554
O37 P11 1.607875 1_555
O37 P9 1.621304 1_555
O38 P8 1.506264 1_555
O38 V4 2.034257 1_566
O39 P9 1.506264 1_555
O39 V1 2.034257 1_655
