# generated using pymatgen
data_V3CoSn2(PO4)6
_symmetry_space_group_name_H-M   'P 1'
_cell_length_a   9.12152848
_cell_length_b   8.45293630
_cell_length_c   8.46171007
_cell_angle_alpha   60.19785444
_cell_angle_beta   62.10341273
_cell_angle_gamma   62.06365656
_symmetry_Int_Tables_number   1
_chemical_formula_structural   V3CoSn2(PO4)6
_chemical_formula_sum   'V3 Co1 Sn2 P6 O24'
_cell_volume   476.08374153
_cell_formula_units_Z   1
loop_
 _symmetry_equiv_pos_site_id
 _symmetry_equiv_pos_as_xyz
  1  'x, y, z'
loop_
 _atom_site_type_symbol
 _atom_site_label
 _atom_site_symmetry_multiplicity
 _atom_site_fract_x
 _atom_site_fract_y
 _atom_site_fract_z
 _atom_site_occupancy
  V  V0  1  0.06101100  0.64485900  0.64678900  1
  V  V1  1  0.44028100  0.85086900  0.85436300  1
  V  V2  1  0.96152800  0.34534000  0.34680200  1
  Co  Co0  1  0.53507500  0.15342800  0.15406100  1
  Sn  Sn0  1  0.93570700  0.02147900  0.02175400  1
  Sn  Sn1  1  0.53653900  0.49501400  0.48412000  1
  P  P0  1  0.25346000  0.25001100  0.53449800  1
  P  P1  1  0.25465200  0.95622400  0.25115200  1
  P  P2  1  0.25464400  0.53596200  0.95827600  1
  P  P3  1  0.75239100  0.47082000  0.03403600  1
  P  P4  1  0.74895200  0.03356400  0.74709500  1
  P  P5  1  0.75316600  0.74431000  0.46966400  1
  O  O0  1  0.08138000  0.13025800  0.28072700  1
  O  O1  1  0.08383500  0.51407700  0.13041000  1
  O  O2  1  0.07821800  0.27813800  0.51404600  1
  O  O3  1  0.29163200  0.05285400  0.69316600  1
  O  O4  1  0.40160500  0.27575000  0.34794000  1
  O  O5  1  0.21291300  0.40643000  0.60825900  1
  O  O6  1  0.28738400  0.96740900  0.04997600  1
  O  O7  1  0.20999300  0.77115800  0.40347600  1
  O  O8  1  0.58986700  0.64742100  0.01842400  1
  O  O9  1  0.21405000  0.61331800  0.77014000  1
  O  O10  1  0.73263300  0.29963700  0.03103600  1
  O  O11  1  0.58912500  0.00732800  0.75472500  1
  O  O12  1  0.40475400  0.96306400  0.27659700  1
  O  O13  1  0.29668800  0.69757200  0.95564100  1
  O  O14  1  0.77205600  0.41391500  0.23190500  1
  O  O15  1  0.40690500  0.35365300  0.96610000  1
  O  O16  1  0.76590900  0.23063400  0.58539300  1
  O  O17  1  0.72620300  0.03243100  0.94169200  1
  O  O18  1  0.77325700  0.58271900  0.41224700  1
  O  O19  1  0.59297300  0.74549800  0.64684700  1
  O  O20  1  0.73120200  0.93866100  0.29995900  1
  O  O21  1  0.92455300  0.69191800  0.50157800  1
  O  O22  1  0.92412300  0.50343300  0.88246600  1
  O  O23  1  0.92134200  0.88085200  0.69464500  1
loop_
_geom_bond_atom_site_label_1
_geom_bond_atom_site_label_2
_geom_bond_distance
_geom_bond_site_symmetry_2
Co0 O4 1.969867 1_555
Co0 O15 1.992776 1_554
Co0 O12 2.014429 1_545
Co0 O17 2.130564 1_554
Co0 O20 2.194561 1_545
Co0 O10 2.216065 1_555
O0 P1 1.594374 1_545
O0 V2 1.840999 1_455
O1 P2 1.569045 1_554
O1 V2 1.901358 1_455
O2 P0 1.582233 1_555
O2 V2 1.871426 1_455
O3 P0 1.539752 1_555
O3 V1 1.964861 1_545
O4 P0 1.517662 1_555
O5 P0 1.555844 1_555
O5 V0 1.924046 1_555
O6 P1 1.544913 1_555
O6 V1 1.956681 1_554
O7 P1 1.541419 1_555
O7 V0 1.944671 1_555
O8 P3 1.535343 1_555
O8 V1 1.986752 1_554
O9 P2 1.545638 1_555
O9 V0 1.961449 1_555
O10 P3 1.553085 1_555
O10 Sn0 2.220879 1_555
O11 P4 1.542516 1_555
O11 V1 1.950943 1_545
O12 P1 1.512183 1_555
O13 P2 1.570462 1_555
O13 V1 1.888166 1_555
O14 P3 1.570512 1_555
O14 V2 2.083655 1_555
O14 Sn1 2.328918 1_555
O15 P2 1.512395 1_555
O16 P4 1.564860 1_555
O16 V2 2.122321 1_555
O16 Sn1 2.345008 1_555
O17 P4 1.555948 1_555
O17 Sn0 2.258933 1_556
O18 P5 1.573898 1_555
O18 V2 2.065909 1_555
O18 Sn1 2.324796 1_555
O19 P5 1.527827 1_555
O19 V1 1.979965 1_555
O20 P5 1.554661 1_555
O20 Sn0 2.233337 1_565
O21 P5 1.529855 1_555
O21 V0 1.923199 1_655
O22 P3 1.532285 1_556
O22 V0 1.914145 1_655
O23 P4 1.533118 1_565
O23 V0 1.924931 1_655
