# generated using pymatgen
data_Y2MgMo2(ClO4)2
_symmetry_space_group_name_H-M   'P 1'
_cell_length_a   6.71651980
_cell_length_b   6.71651862
_cell_length_c   7.17823484
_cell_angle_alpha   76.46847993
_cell_angle_beta   76.46848315
_cell_angle_gamma   60.21175573
_symmetry_Int_Tables_number   1
_chemical_formula_structural   Y2MgMo2(ClO4)2
_chemical_formula_sum   'Y2 Mg1 Mo2 Cl2 O8'
_cell_volume   270.56015419
_cell_formula_units_Z   1
loop_
 _symmetry_equiv_pos_site_id
 _symmetry_equiv_pos_as_xyz
  1  'x, y, z'
loop_
 _atom_site_type_symbol
 _atom_site_label
 _atom_site_symmetry_multiplicity
 _atom_site_fract_x
 _atom_site_fract_y
 _atom_site_fract_z
 _atom_site_occupancy
  Y  Y0  1  0.70360216  0.73051740  0.12700488  1
  Y  Y1  1  0.26948260  0.29639784  0.87299512  1
  Mg  Mg0  1  0.76311353  0.23688647  1.00000000  1
  Mo  Mo0  1  0.33052750  0.37914124  0.29069488  1
  Mo  Mo1  1  0.62085876  0.66947250  0.70930512  1
  Cl  Cl0  1  0.94487122  0.92404597  0.80018358  1
  Cl  Cl1  1  0.07595403  0.05512878  0.19981642  1
  O  O0  1  0.87955906  0.47426112  0.85725336  1
  O  O1  1  0.09537370  0.52464471  0.13765203  1
  O  O2  1  0.50939949  0.44909474  0.80466058  1
  O  O3  1  0.30216059  0.30731906  0.54942796  1
  O  O4  1  0.55090526  0.49060051  0.19533942  1
  O  O5  1  0.69268094  0.69783941  0.45057204  1
  O  O6  1  0.52573888  0.12044094  0.14274664  1
  O  O7  1  0.47535529  0.90462630  0.86234797  1
loop_
_geom_bond_atom_site_label_1
_geom_bond_atom_site_label_2
_geom_bond_distance
_geom_bond_site_symmetry_2
Mg0 O0 2.074360 1_555
Mg0 O6 2.074360 1_556
Mg0 O4 2.161288 1_556
Mg0 O2 2.161288 1_555
Mo0 O3 1.795785 1_555
Mo0 O1 1.852677 1_555
Mo0 O4 1.899192 1_555
Mo0 O6 1.953052 1_555
Mo1 O5 1.795785 1_555
Mo1 O7 1.852677 1_555
Mo1 O2 1.899192 1_555
Mo1 O0 1.953052 1_555
Cl0 Mg0 2.450495 1_565
Cl0 Y0 2.950613 1_556
Cl1 Mg0 2.450495 1_454
Cl1 Y1 2.950613 1_554
O0 Y1 2.294649 1_655
O0 Y0 2.564394 1_556
O1 Y0 2.295927 1_455
O1 Y1 2.422565 1_554
O2 Y1 2.219420 1_555
O3 Y1 2.268464 1_555
O4 Y0 2.219420 1_555
O5 Y0 2.268464 1_555
O6 Y0 2.294649 1_545
O6 Y1 2.564394 1_554
O7 Y1 2.295927 1_565
O7 Y0 2.422565 1_556
