# generated using pymatgen
data_CoH8(IO5)2
_symmetry_space_group_name_H-M   'P 1'
_cell_length_a   6.60543200
_cell_length_b   8.46011700
_cell_length_c   8.52889094
_cell_angle_alpha   80.52097142
_cell_angle_beta   90.00000000
_cell_angle_gamma   90.00000000
_symmetry_Int_Tables_number   1
_chemical_formula_structural   CoH8(IO5)2
_chemical_formula_sum   'Co2 H16 I4 O20'
_cell_volume   470.10992495
_cell_formula_units_Z   2
loop_
 _symmetry_equiv_pos_site_id
 _symmetry_equiv_pos_as_xyz
  1  'x, y, z'
loop_
 _atom_site_type_symbol
 _atom_site_label
 _atom_site_symmetry_multiplicity
 _atom_site_fract_x
 _atom_site_fract_y
 _atom_site_fract_z
 _atom_site_occupancy
  Co  Co0  1  0.00000000  0.50000000  0.00000000  1
  Co  Co1  1  0.50000000  0.50000000  0.50000000  1
  H  H0  1  0.21733500  0.77663000  0.94384500  1
  H  H1  1  0.71733500  0.22337000  0.55615500  1
  H  H2  1  0.78266500  0.22337000  0.05615500  1
  H  H3  1  0.28266500  0.77663000  0.44384500  1
  H  H4  1  0.10955200  0.76748100  0.77618300  1
  H  H5  1  0.60955200  0.23251900  0.72381700  1
  H  H6  1  0.00440500  0.65585800  0.23900700  1
  H  H7  1  0.50440500  0.34414200  0.26099300  1
  H  H8  1  0.99559500  0.34414200  0.76099300  1
  H  H9  1  0.49559500  0.65585800  0.73900700  1
  H  H10  1  0.11926900  0.49050000  0.30873300  1
  H  H11  1  0.61926900  0.50950000  0.19126700  1
  H  H12  1  0.88073100  0.50950000  0.69126700  1
  H  H13  1  0.38073100  0.49050000  0.80873300  1
  H  H14  1  0.89044800  0.23251900  0.22381700  1
  H  H15  1  0.39044800  0.76748100  0.27618300  1
  I  I0  1  0.17832000  0.16716300  0.53016000  1
  I  I1  1  0.67832000  0.83283700  0.96984000  1
  I  I2  1  0.82168000  0.83283700  0.46984000  1
  I  I3  1  0.32168000  0.16716300  0.03016000  1
  O  O0  1  0.78284100  0.61460300  0.52499500  1
  O  O1  1  0.71715900  0.61460300  0.02499500  1
  O  O2  1  0.40753500  0.74186300  0.39316200  1
  O  O3  1  0.90753500  0.25813700  0.10683800  1
  O  O4  1  0.59246500  0.25813700  0.60683800  1
  O  O5  1  0.21715900  0.38539700  0.47500500  1
  O  O6  1  0.41886800  0.56429800  0.70943300  1
  O  O7  1  0.91886800  0.43570200  0.79056700  1
  O  O8  1  0.58113200  0.43570200  0.29056700  1
  O  O9  1  0.08113200  0.56429800  0.20943300  1
  O  O10  1  0.38551100  0.16058400  0.23980500  1
  O  O11  1  0.88551100  0.83941600  0.26019500  1
  O  O12  1  0.61448900  0.83941600  0.76019500  1
  O  O13  1  0.11448900  0.16058400  0.73980500  1
  O  O14  1  0.42240200  0.83829600  0.05639400  1
  O  O15  1  0.92240200  0.16170400  0.44360600  1
  O  O16  1  0.57759800  0.16170400  0.94360600  1
  O  O17  1  0.07759800  0.83829600  0.55639400  1
  O  O18  1  0.28284100  0.38539700  0.97500500  1
  O  O19  1  0.09246500  0.74186300  0.89316200  1
loop_
_geom_bond_atom_site_label_1
_geom_bond_atom_site_label_2
_geom_bond_distance
_geom_bond_site_symmetry_2
Co0 O9 2.023305 1_555
Co0 O7 2.023305 1_454
Co0 O18 2.131679 1_554
Co0 O1 2.131679 1_455
Co0 O19 2.185433 1_554
Co0 O3 2.185433 1_455
Co1 O6 2.023305 1_555
Co1 O8 2.023305 1_555
Co1 O0 2.131679 1_555
Co1 O5 2.131679 1_555
Co1 O2 2.185433 1_555
Co1 O4 2.185433 1_555
H0 O19 0.997787 1_555
H1 O4 0.997787 1_555
H2 O3 0.997787 1_555
H3 O2 0.997787 1_555
H4 O19 0.991916 1_555
H5 O4 0.991916 1_555
H6 O9 0.992399 1_555
H7 O8 0.992399 1_555
H8 O7 0.992399 1_555
H9 O6 0.992399 1_555
H10 O9 0.998183 1_555
H10 O5 1.674655 1_555
H11 O8 0.998183 1_555
H11 O1 1.674655 1_555
H12 O7 0.998183 1_555
H12 O0 1.674655 1_555
H13 O6 0.998183 1_555
H13 O18 1.674655 1_555
H14 O3 0.991916 1_555
H15 O2 0.991916 1_555
I0 O13 1.828982 1_555
I0 O5 1.846566 1_555
I0 O15 1.848224 1_455
I1 O12 1.828982 1_555
I1 O1 1.846566 1_556
I1 O14 1.848224 1_556
I2 O11 1.828982 1_555
I2 O0 1.846566 1_555
I2 O17 1.848224 1_655
I3 O10 1.828982 1_555
I3 O18 1.846566 1_554
I3 O16 1.848224 1_554
