# generated using pymatgen
data_Sr2Bi2O5
_symmetry_space_group_name_H-M   'P 1'
_cell_length_a   6.20776775
_cell_length_b   7.67526189
_cell_length_c   14.32607123
_cell_angle_alpha   90.00000000
_cell_angle_beta   90.00000000
_cell_angle_gamma   90.00000000
_symmetry_Int_Tables_number   1
_chemical_formula_structural   Sr2Bi2O5
_chemical_formula_sum   'Sr8 Bi8 O20'
_cell_volume   682.58347441
_cell_formula_units_Z   4
loop_
 _symmetry_equiv_pos_site_id
 _symmetry_equiv_pos_as_xyz
  1  'x, y, z'
loop_
 _atom_site_type_symbol
 _atom_site_label
 _atom_site_symmetry_multiplicity
 _atom_site_fract_x
 _atom_site_fract_y
 _atom_site_fract_z
 _atom_site_occupancy
  Sr  Sr0  1  0.25000000  0.37340181  0.43459297  1
  Sr  Sr1  1  0.75000000  0.87340181  0.06540703  1
  Sr  Sr2  1  0.75000000  0.62659819  0.56540703  1
  Sr  Sr3  1  0.25000000  0.12659819  0.93459297  1
  Sr  Sr4  1  0.75000000  0.37697423  0.05272693  1
  Sr  Sr5  1  0.25000000  0.87697423  0.44727307  1
  Sr  Sr6  1  0.75000000  0.12302577  0.55272693  1
  Sr  Sr7  1  0.25000000  0.62302577  0.94727307  1
  Bi  Bi0  1  0.75000000  0.88404299  0.81400719  1
  Bi  Bi1  1  0.75000000  0.13246552  0.30682991  1
  Bi  Bi2  1  0.75000000  0.36753448  0.80682991  1
  Bi  Bi3  1  0.25000000  0.63246552  0.19317009  1
  Bi  Bi4  1  0.75000000  0.61595701  0.31400719  1
  Bi  Bi5  1  0.25000000  0.38404299  0.68599281  1
  Bi  Bi6  1  0.25000000  0.11595701  0.18599281  1
  Bi  Bi7  1  0.25000000  0.86753448  0.69317009  1
  O  O0  1  0.51013465  0.11801961  0.40622155  1
  O  O1  1  0.50905935  0.86710474  0.91261405  1
  O  O2  1  0.48986535  0.61801961  0.09377845  1
  O  O3  1  0.01013465  0.88198039  0.59377845  1
  O  O4  1  0.25000000  0.37215469  0.24489891  1
  O  O5  1  0.98986535  0.11801961  0.40622155  1
  O  O6  1  0.99094065  0.63289526  0.41261405  1
  O  O7  1  0.75000000  0.62784531  0.75510109  1
  O  O8  1  0.48986535  0.88198039  0.59377845  1
  O  O9  1  0.51013465  0.38198039  0.90622155  1
  O  O10  1  0.49094065  0.13289526  0.08738595  1
  O  O11  1  0.99094065  0.86710474  0.91261405  1
  O  O12  1  0.01013465  0.61801961  0.09377845  1
  O  O13  1  0.00905935  0.13289526  0.08738595  1
  O  O14  1  0.49094065  0.36710474  0.58738595  1
  O  O15  1  0.25000000  0.12784531  0.74489891  1
  O  O16  1  0.00905935  0.36710474  0.58738595  1
  O  O17  1  0.98986535  0.38198039  0.90622155  1
  O  O18  1  0.50905935  0.63289526  0.41261405  1
  O  O19  1  0.75000000  0.87215469  0.25510109  1
loop_
_geom_bond_atom_site_label_1
_geom_bond_atom_site_label_2
_geom_bond_distance
_geom_bond_site_symmetry_2
Bi0 O11 2.061458 1_555
Bi0 O1 2.061458 1_555
Bi0 O7 2.139818 1_555
Bi1 O5 2.063242 1_555
Bi1 O0 2.063242 1_555
Bi1 O19 2.130963 1_545
Bi2 O17 2.063242 1_555
Bi2 O9 2.063242 1_555
Bi2 O7 2.130963 1_555
Bi3 O12 2.063242 1_555
Bi3 O2 2.063242 1_555
Bi3 O4 2.130963 1_555
Bi4 O6 2.061458 1_555
Bi4 O18 2.061458 1_555
Bi4 O19 2.139818 1_555
Bi5 O16 2.061458 1_555
Bi5 O14 2.061458 1_555
Bi5 O15 2.139818 1_555
Bi6 O10 2.061458 1_555
Bi6 O13 2.061458 1_555
Bi6 O4 2.139818 1_555
Bi7 O8 2.063242 1_555
Bi7 O3 2.063242 1_555
Bi7 O15 2.130963 1_565
O0 Sr5 2.525163 1_545
O0 Sr0 2.571974 1_555
O0 Sr6 2.573682 1_555
O1 Sr7 2.518392 1_555
O1 Sr3 2.579182 1_565
O1 Sr1 2.651575 1_556
O2 Sr4 2.525163 1_555
O2 Sr1 2.571974 1_555
O2 Sr7 2.573682 1_554
O3 Sr6 2.525163 1_465
O3 Sr2 2.571974 1_455
O3 Sr5 2.573682 1_555
O4 Sr0 2.717587 1_555
O5 Sr5 2.525163 1_645
O5 Sr0 2.571974 1_655
O5 Sr6 2.573682 1_555
O6 Sr5 2.518392 1_655
O6 Sr0 2.579182 1_655
O6 Sr2 2.651575 1_555
O7 Sr2 2.717587 1_555
O8 Sr6 2.525163 1_565
O8 Sr2 2.571974 1_555
O8 Sr5 2.573682 1_555
O9 Sr7 2.525163 1_555
O9 Sr3 2.571974 1_555
O9 Sr4 2.573682 1_556
O10 Sr4 2.518392 1_555
O10 Sr1 2.579182 1_545
O10 Sr3 2.651575 1_554
O11 Sr7 2.518392 1_655
O11 Sr3 2.579182 1_665
O11 Sr1 2.651575 1_556
O12 Sr4 2.525163 1_455
O12 Sr1 2.571974 1_455
O12 Sr7 2.573682 1_554
O13 Sr4 2.518392 1_455
O13 Sr1 2.579182 1_445
O13 Sr3 2.651575 1_554
O14 Sr6 2.518392 1_555
O14 Sr2 2.579182 1_555
O14 Sr0 2.651575 1_555
O15 Sr3 2.717587 1_555
O16 Sr6 2.518392 1_455
O16 Sr2 2.579182 1_455
O16 Sr0 2.651575 1_555
O17 Sr7 2.525163 1_655
O17 Sr3 2.571974 1_655
O17 Sr4 2.573682 1_556
O18 Sr5 2.518392 1_555
O18 Sr0 2.579182 1_555
O18 Sr2 2.651575 1_555
O19 Sr1 2.717587 1_555
