# generated using pymatgen
data_PrCu5
_symmetry_space_group_name_H-M   'P 1'
_cell_length_a   5.09052394
_cell_length_b   5.09052391
_cell_length_c   4.07104093
_cell_angle_alpha   90.00000000
_cell_angle_beta   90.00000000
_cell_angle_gamma   120.00000683
_symmetry_Int_Tables_number   1
_chemical_formula_structural   PrCu5
_chemical_formula_sum   'Pr1 Cu5'
_cell_volume   91.36104034
_cell_formula_units_Z   1
loop_
 _symmetry_equiv_pos_site_id
 _symmetry_equiv_pos_as_xyz
  1  'x, y, z'
loop_
 _atom_site_type_symbol
 _atom_site_label
 _atom_site_symmetry_multiplicity
 _atom_site_fract_x
 _atom_site_fract_y
 _atom_site_fract_z
 _atom_site_occupancy
  Pr  Pr0  1  -0.00000000  0.00000000  0.00000000  1
  Cu  Cu0  1  0.33333300  0.66666700  0.00000000  1
  Cu  Cu1  1  0.66666700  0.33333300  -0.00000000  1
  Cu  Cu2  1  0.50000000  0.00000000  0.50000000  1
  Cu  Cu3  1  0.50000000  0.50000000  0.50000000  1
  Cu  Cu4  1  -0.00000000  0.50000000  0.50000000  1
loop_
_geom_bond_atom_site_label_1
_geom_bond_atom_site_label_2
_geom_bond_distance
_geom_bond_site_symmetry_2
Cu0 Cu2 2.510536 1_565
Cu0 Cu2 2.510536 1_564
Cu0 Cu4 2.510536 1_555
Cu0 Cu4 2.510536 1_554
Cu0 Cu3 2.510539 1_555
Cu0 Cu3 2.510539 1_554
Cu0 Pr0 2.939013 1_565
Cu0 Pr0 2.939017 1_555
Cu0 Pr0 2.939017 1_665
Cu1 Cu2 2.510536 1_554
Cu1 Cu2 2.510536 1_555
Cu1 Cu4 2.510536 1_655
Cu1 Cu4 2.510536 1_654
Cu1 Cu3 2.510539 1_555
Cu1 Cu3 2.510539 1_554
Cu1 Pr0 2.939013 1_655
Cu1 Pr0 2.939017 1_665
Cu1 Pr0 2.939017 1_555
Cu2 Cu4 2.545262 1_655
Cu2 Cu4 2.545262 1_545
Cu2 Cu3 2.545262 1_555
Cu2 Cu3 2.545262 1_545
Cu2 Pr0 3.259095 1_555
Cu2 Pr0 3.259095 1_556
Cu2 Pr0 3.259095 1_656
Cu2 Pr0 3.259095 1_655
Cu3 Cu4 2.545262 1_655
Cu3 Cu4 2.545262 1_555
Cu3 Pr0 3.259095 1_665
Cu3 Pr0 3.259095 1_666
Cu3 Pr0 3.259095 1_555
Cu3 Pr0 3.259095 1_556
Cu4 Pr0 3.259095 1_565
Cu4 Pr0 3.259095 1_555
Cu4 Pr0 3.259095 1_556
Cu4 Pr0 3.259095 1_566
