# generated using pymatgen
data_Na3LaIn(PO4)3
_symmetry_space_group_name_H-M   'P 1'
_cell_length_a   9.36510915
_cell_length_b   9.32914703
_cell_length_c   23.61458850
_cell_angle_alpha   89.74053661
_cell_angle_beta   90.21962500
_cell_angle_gamma   119.80548926
_symmetry_Int_Tables_number   1
_chemical_formula_structural   Na3LaIn(PO4)3
_chemical_formula_sum   'Na18 La6 In6 P18 O72'
_cell_volume   1790.22868935
_cell_formula_units_Z   6
loop_
 _symmetry_equiv_pos_site_id
 _symmetry_equiv_pos_as_xyz
  1  'x, y, z'
loop_
 _atom_site_type_symbol
 _atom_site_label
 _atom_site_symmetry_multiplicity
 _atom_site_fract_x
 _atom_site_fract_y
 _atom_site_fract_z
 _atom_site_occupancy
  Na  Na0  1  0.00144663  0.00057901  0.50324400  1
  Na  Na1  1  0.99840788  0.99810478  0.00198601  1
  Na  Na2  1  0.64076888  0.32073540  0.83186113  1
  Na  Na3  1  0.68017172  0.35987512  0.33499969  1
  Na  Na4  1  0.33073481  0.66626054  0.17130513  1
  Na  Na5  1  0.33366040  0.66721663  0.66703477  1
  Na  Na6  1  0.63658854  0.00267685  0.24816035  1
  Na  Na7  1  0.36220530  0.36178043  0.24880004  1
  Na  Na8  1  0.63951402  0.63289259  0.74524534  1
  Na  Na9  1  0.99152143  0.35980307  0.74420300  1
  Na  Na10  1  0.03345888  0.70167556  0.58512206  1
  Na  Na11  1  0.66797169  0.97063419  0.58550455  1
  Na  Na12  1  0.29814159  0.96910381  0.08857108  1
  Na  Na13  1  0.02520673  0.32739958  0.08895210  1
  Na  Na14  1  0.97085969  0.66538340  0.91819689  1
  Na  Na15  1  0.69654163  0.02994475  0.91696429  1
  Na  Na16  1  0.96923640  0.30471760  0.41677188  1
  Na  Na17  1  0.33803717  0.03521906  0.41863824  1
  La  La0  1  0.98852611  0.98346069  0.34553826  1
  La  La1  1  0.01782839  0.01274361  0.84391076  1
  La  La2  1  0.65796795  0.34143427  0.99031534  1
  La  La3  1  0.34582756  0.66043108  0.01983126  1
  La  La4  1  0.33908876  0.65420469  0.51871970  1
  La  La5  1  0.33228454  0.67107081  0.81402934  1
  In  In0  1  0.01165969  0.00769144  0.64829462  1
  In  In1  1  0.99204590  0.98818277  0.15674697  1
  In  In2  1  0.65693183  0.32704878  0.67960748  1
  In  In3  1  0.67296734  0.34302473  0.18266994  1
  In  In4  1  0.66176266  0.34000987  0.48496339  1
  In  In5  1  0.32964009  0.66617563  0.31803624  1
  P  P0  1  0.31131231  0.00128802  0.24804654  1
  P  P1  1  0.68498545  0.68994688  0.24750296  1
  P  P2  1  0.00119439  0.30721771  0.24802951  1
  P  P3  1  0.30983046  0.30394737  0.74258050  1
  P  P4  1  0.98749906  0.68849235  0.74294069  1
  P  P5  1  0.70610291  0.00802143  0.74284758  1
  P  P6  1  0.94827944  0.32354286  0.58500820  1
  P  P7  1  0.36816793  0.04347826  0.58200737  1
  P  P8  1  0.68315563  0.63670816  0.58767181  1
  P  P9  1  0.96964332  0.64345137  0.08676715  1
  P  P10  1  0.67696767  0.03907025  0.08992017  1
  P  P11  1  0.34940702  0.31610531  0.09412598  1
  P  P12  1  0.64785875  0.67186098  0.91159821  1
  P  P13  1  0.02069737  0.35851283  0.91773362  1
  P  P14  1  0.33447339  0.97034146  0.92094447  1
  P  P15  1  0.62965535  0.97739270  0.41681147  1
  P  P16  1  0.34133653  0.36621942  0.41177515  1
  P  P17  1  0.03212797  0.65469037  0.41928086  1
  O  O0  1  0.23587555  0.03227878  0.30147358  1
  O  O1  1  0.78490470  0.75710022  0.30196159  1
  O  O2  1  0.96778197  0.20025674  0.30204839  1
  O  O3  1  0.24266871  0.21498417  0.79927199  1
  O  O4  1  0.97132641  0.76622293  0.79873436  1
  O  O5  1  0.80228781  0.03168443  0.79897992  1
  O  O6  1  0.80046972  0.98863050  0.69210977  1
  O  O7  1  0.19148344  0.21074751  0.69361279  1
  O  O8  1  0.00703919  0.79919440  0.69129823  1
  O  O9  1  0.77187084  0.80980784  0.19742325  1
  O  O10  1  0.03064937  0.21982553  0.19657685  1
  O  O11  1  0.20150715  0.97597317  0.19532432  1
  O  O12  1  0.86638876  0.34486637  0.63855669  1
  O  O13  1  0.47872493  0.12905767  0.63310079  1
  O  O14  1  0.66255665  0.53865522  0.64235723  1
  O  O15  1  0.87105708  0.52050467  0.13419940  1
  O  O16  1  0.65528873  0.13252514  0.14037016  1
  O  O17  1  0.45847641  0.33702606  0.14577337  1
  O  O18  1  0.42656641  0.29432893  0.03945413  1
  O  O19  1  0.88458680  0.57977130  0.02864035  1
  O  O20  1  0.70147811  0.13598573  0.03358689  1
  O  O21  1  0.44369118  0.13864621  0.52578293  1
  O  O22  1  0.70008719  0.54831614  0.53489917  1
  O  O23  1  0.84423440  0.30082671  0.53048144  1
  O  O24  1  0.55380393  0.68406125  0.96328987  1
  O  O25  1  0.12019373  0.44707417  0.97147629  1
  O  O26  1  0.32356350  0.87529234  0.97622101  1
  O  O27  1  0.55207207  0.87760775  0.47119391  1
  O  O28  1  0.31024703  0.44636082  0.46329776  1
  O  O29  1  0.12915264  0.67860087  0.47464719  1
  O  O30  1  0.12048471  0.62735079  0.36798241  1
  O  O31  1  0.52335833  0.88792664  0.36330002  1
  O  O32  1  0.35953415  0.46666716  0.35678550  1
  O  O33  1  0.10958078  0.45747673  0.86352487  1
  O  O34  1  0.34790968  0.87639475  0.86917268  1
  O  O35  1  0.55483710  0.66096504  0.85619843  1
  O  O36  1  0.02157212  0.81400603  0.41257530  1
  O  O37  1  0.80966022  0.01217946  0.41268050  1
  O  O38  1  0.18737095  0.18961306  0.40898093  1
  O  O39  1  0.99135951  0.17978251  0.91696299  1
  O  O40  1  0.17287504  0.97661621  0.91749350  1
  O  O41  1  0.81911392  0.83129076  0.91327414  1
  O  O42  1  0.96058276  0.16246717  0.58806798  1
  O  O43  1  0.18999221  0.01643745  0.58656869  1
  O  O44  1  0.84531922  0.81021790  0.58806429  1
  O  O45  1  0.99478452  0.81964902  0.09427709  1
  O  O46  1  0.83639054  0.02811490  0.09599346  1
  O  O47  1  0.17748463  0.15638293  0.09681203  1
  O  O48  1  0.69260104  0.16687773  0.73844029  1
  O  O49  1  0.48632807  0.33073200  0.73834179  1
  O  O50  1  0.82734760  0.51608136  0.74039658  1
  O  O51  1  0.65507301  0.51179815  0.23998086  1
  O  O52  1  0.84412735  0.32198775  0.24054281  1
  O  O53  1  0.48668336  0.15730767  0.24187931  1
  O  O54  1  0.67398178  0.52103214  0.91489212  1
  O  O55  1  0.84949088  0.34835668  0.91839536  1
  O  O56  1  0.49332828  0.14069763  0.91973975  1
  O  O57  1  0.63616285  0.14909160  0.41967651  1
  O  O58  1  0.49681719  0.34771255  0.41895077  1
  O  O59  1  0.86025004  0.49395963  0.42232764  1
  O  O60  1  0.32063308  0.46600033  0.09122228  1
  O  O61  1  0.14292695  0.65717567  0.08696018  1
  O  O62  1  0.51672699  0.86929989  0.08824813  1
  O  O63  1  0.35137499  0.86786539  0.58115821  1
  O  O64  1  0.53756321  0.67171116  0.58535915  1
  O  O65  1  0.11899069  0.48247373  0.58277394  1
  O  O66  1  0.33605851  0.84765875  0.25431600  1
  O  O67  1  0.51273945  0.67963495  0.25269428  1
  O  O68  1  0.16361572  0.47657044  0.25381230  1
  O  O69  1  0.32334972  0.47759813  0.74351353  1
  O  O70  1  0.13574463  0.65696770  0.74365632  1
  O  O71  1  0.53684067  0.84718831  0.74404734  1
loop_
_geom_bond_atom_site_label_1
_geom_bond_atom_site_label_2
_geom_bond_distance
_geom_bond_site_symmetry_2
Na0 O44 2.590868 1_445
Na0 O43 2.593804 1_555
Na0 O42 2.654730 1_455
Na0 O37 2.823663 1_455
Na0 O36 2.830618 1_545
Na0 O38 2.835205 1_555
Na1 O39 2.643410 1_564
Na1 O41 2.652301 1_554
Na1 O40 2.654263 1_654
Na1 O45 2.726581 1_555
Na1 O47 2.747117 1_665
Na1 O46 2.786132 1_565
Na2 O56 2.592112 1_555
Na2 O54 2.623668 1_555
Na2 O49 2.661861 1_555
Na2 O55 2.745261 1_555
Na2 O50 2.804848 1_555
Na2 O48 2.809319 1_555
Na3 O59 2.561470 1_555
Na3 O58 2.592679 1_555
Na3 O57 2.683312 1_555
Na3 O51 2.719767 1_555
Na3 O52 2.833884 1_555
Na3 O53 2.879800 1_555
Na4 O67 2.525960 1_555
Na4 O68 2.572179 1_555
Na4 O66 2.579613 1_555
Na4 O61 2.625707 1_555
Na4 O60 2.632604 1_555
Na4 O62 2.679823 1_555
Na5 O69 2.490561 1_555
Na5 O70 2.562511 1_555
Na5 O71 2.563627 1_555
Na5 O63 2.702496 1_555
Na5 O64 2.704839 1_555
Na5 O65 2.743587 1_555
Na6 O66 2.447219 1_545
Na6 O53 2.466503 1_555
Na6 O52 2.631713 1_555
Na6 O67 2.638614 1_545
Na6 O16 2.782419 1_555
Na6 O31 2.920711 1_545
Na6 O9 2.928393 1_545
Na6 O2 2.990777 1_555
Na7 O51 2.389656 1_555
Na7 O68 2.569533 1_555
Na7 O67 2.575782 1_555
Na7 O17 2.648442 1_555
Na7 O53 2.690611 1_555
Na7 O32 2.740106 1_555
Na7 O0 2.959301 1_555
Na7 O10 2.968772 1_555
Na8 O49 2.452148 1_555
Na8 O50 2.490659 1_555
Na8 O69 2.569589 1_555
Na8 O71 2.613895 1_555
Na8 O14 2.633381 1_555
Na8 O35 2.791243 1_555
Na9 O70 2.405718 1_655
Na9 O48 2.466808 1_555
Na9 O50 2.593021 1_555
Na9 O12 2.726742 1_555
Na9 O69 2.733208 1_655
Na10 O44 2.431029 1_455
Na10 O65 2.540937 1_555
Na10 O43 2.548359 1_565
Na10 O63 2.586288 1_555
Na10 O8 2.724825 1_555
Na10 O29 2.805390 1_555
Na10 O22 2.957582 1_455
Na11 O42 2.416665 1_565
Na11 O64 2.425425 1_555
Na11 O63 2.625524 1_555
Na11 O44 2.733348 1_555
Na11 O6 2.770955 1_555
Na11 O27 2.877563 1_555
Na12 O45 2.469156 1_455
Na12 O47 2.516866 1_565
Na12 O61 2.525491 1_555
Na12 O62 2.636753 1_555
Na12 O11 2.693480 1_555
Na12 O26 2.845097 1_554
Na12 O18 2.889396 1_565
Na13 O60 2.402613 1_555
Na13 O46 2.457656 1_455
Na13 O47 2.621219 1_555
Na13 O61 2.703694 1_555
Na13 O10 2.737848 1_555
Na13 O20 2.949314 1_455
Na13 O25 2.955880 1_554
Na13 O15 3.014271 1_455
Na14 O54 2.413883 1_555
Na14 O40 2.559105 1_655
Na14 O41 2.571461 1_555
Na14 O55 2.587914 1_555
Na14 O19 2.729202 1_556
Na14 O4 2.969068 1_555
Na15 O39 2.395906 1_555
Na15 O55 2.578270 1_555
Na15 O56 2.578771 1_555
Na15 O41 2.622399 1_545
Na15 O20 2.922929 1_556
Na15 O5 2.957772 1_555
Na15 O24 3.014478 1_545
Na15 O34 3.053304 1_545
Na16 O37 2.374365 1_555
Na16 O59 2.443425 1_555
Na16 O57 2.709446 1_555
Na16 O38 2.746932 1_655
Na16 O30 2.852376 1_655
Na16 O2 2.880939 1_555
Na16 O23 2.926269 1_555
Na16 O28 2.990546 1_655
Na17 O57 2.444475 1_555
Na17 O38 2.476399 1_555
Na17 O58 2.529973 1_555
Na17 O36 2.642396 1_545
Na17 O21 2.713975 1_555
Na17 O0 2.919862 1_555
Na17 O31 3.002080 1_545
La0 O1 2.270726 1_555
La0 O2 2.356548 1_565
La0 O36 2.358160 1_655
La0 O0 2.370986 1_665
La0 O38 2.419808 1_665
La0 O37 2.421162 1_565
La1 O3 2.270308 1_555
La1 O5 2.359671 1_455
La1 O4 2.374860 1_445
La1 O40 2.388135 1_545
La1 O39 2.424344 1_455
La1 O41 2.424533 1_445
La2 O18 2.303016 1_556
La2 O19 2.362098 1_556
La2 O20 2.374710 1_556
La2 O54 2.393172 1_555
La2 O56 2.408334 1_555
La2 O55 2.452127 1_555
La3 O24 2.283726 1_554
La3 O26 2.348849 1_554
La3 O25 2.356214 1_554
La3 O60 2.395382 1_555
La3 O62 2.424283 1_555
La3 O61 2.467761 1_555
La4 O28 2.246150 1_555
La4 O29 2.329683 1_555
La4 O27 2.333477 1_555
La4 O64 2.374048 1_555
La4 O65 2.412991 1_555
La4 O63 2.440845 1_555
La5 O34 2.264667 1_555
La5 O35 2.350129 1_555
La5 O33 2.356437 1_555
La5 O70 2.429948 1_555
La5 O69 2.431811 1_555
La5 O71 2.443594 1_555
In0 O7 2.098332 1_555
In0 O6 2.162945 1_445
In0 O8 2.171480 1_545
In0 O43 2.191510 1_555
In0 O44 2.235487 1_445
In0 O42 2.235905 1_455
In1 O9 2.129121 1_555
In1 O45 2.170325 1_555
In1 O47 2.184285 1_665
In1 O46 2.200230 1_565
In1 O11 2.213220 1_655
In1 O10 2.219132 1_665
In2 O13 2.083983 1_555
In2 O12 2.122301 1_555
In2 O49 2.132986 1_555
In2 O14 2.134223 1_555
In2 O48 2.179092 1_555
In2 O50 2.219277 1_555
In3 O15 2.106822 1_555
In3 O16 2.138906 1_555
In3 O51 2.149916 1_555
In3 O17 2.161611 1_555
In3 O52 2.183835 1_555
In3 O53 2.234341 1_555
In4 O22 2.149415 1_555
In4 O23 2.193762 1_555
In4 O21 2.194025 1_555
In4 O58 2.216367 1_555
In4 O59 2.248041 1_555
In4 O57 2.281285 1_555
In5 O30 2.160466 1_555
In5 O32 2.209194 1_555
In5 O31 2.233310 1_555
In5 O66 2.238481 1_555
In5 O68 2.262439 1_555
In5 O67 2.267493 1_555
O0 P0 1.545206 1_555
O1 P1 1.528806 1_555
O2 P2 1.549838 1_655
O3 P3 1.534313 1_555
O4 P4 1.550512 1_555
O5 P5 1.553389 1_555
O6 P5 1.555098 1_565
O7 P3 1.537148 1_555
O8 P4 1.545871 1_455
O9 P1 1.549814 1_555
O10 P2 1.565957 1_555
O11 P0 1.553940 1_565
O12 P6 1.545359 1_555
O13 P7 1.530546 1_555
O14 P8 1.535387 1_555
O15 P9 1.538234 1_555
O16 P10 1.551743 1_555
O17 P11 1.537325 1_555
O18 P11 1.544576 1_555
O19 P9 1.549243 1_555
O20 P10 1.557226 1_555
O21 P7 1.556792 1_555
O22 P8 1.548864 1_555
O23 P6 1.562021 1_555
O24 P12 1.545329 1_555
O25 P13 1.548097 1_555
O26 P14 1.549546 1_555
O27 P15 1.538718 1_555
O28 P16 1.533439 1_555
O29 P17 1.541710 1_555
O30 P17 1.561256 1_555
O31 P15 1.567914 1_555
O32 P16 1.557354 1_555
O33 P13 1.554817 1_555
O34 P14 1.548929 1_555
O35 P12 1.544404 1_555
O36 P17 1.545214 1_555
O37 P15 1.553626 1_545
O38 P16 1.560948 1_555
O39 P13 1.549470 1_655
O40 P14 1.545149 1_555
O41 P12 1.553917 1_555
O42 P6 1.564506 1_555
O43 P7 1.562770 1_555
O44 P8 1.575713 1_555
O45 P9 1.551274 1_555
O46 P10 1.552424 1_555
O47 P11 1.559358 1_555
O48 P5 1.551747 1_555
O49 P3 1.547593 1_555
O50 P4 1.562753 1_555
O51 P1 1.552948 1_555
O52 P2 1.553453 1_655
O53 P0 1.568637 1_555
O54 P12 1.544967 1_555
O55 P13 1.558578 1_655
O56 P14 1.545742 1_545
O57 P15 1.574158 1_545
O58 P16 1.557721 1_555
O59 P17 1.563675 1_655
O60 P11 1.551263 1_555
O61 P9 1.563122 1_455
O62 P10 1.548985 1_565
O63 P7 1.566320 1_565
O64 P8 1.552614 1_555
O65 P6 1.549374 1_455
O66 P0 1.567733 1_565
O67 P1 1.572744 1_555
O68 P2 1.561991 1_555
O69 P3 1.561204 1_555
O70 P4 1.555614 1_455
O71 P5 1.549312 1_565
