# generated using pymatgen
data_Na5HfGa3Si3(SO8)3
_symmetry_space_group_name_H-M   'P 1'
_cell_length_a   8.87697780
_cell_length_b   8.92158195
_cell_length_c   22.23347651
_cell_angle_alpha   89.91411739
_cell_angle_beta   90.83594172
_cell_angle_gamma   120.18647272
_symmetry_Int_Tables_number   1
_chemical_formula_structural   Na5HfGa3Si3(SO8)3
_chemical_formula_sum   'Na15 Hf3 Ga9 Si9 S9 O72'
_cell_volume   1521.84268756
_cell_formula_units_Z   3
loop_
 _symmetry_equiv_pos_site_id
 _symmetry_equiv_pos_as_xyz
  1  'x, y, z'
loop_
 _atom_site_type_symbol
 _atom_site_label
 _atom_site_symmetry_multiplicity
 _atom_site_fract_x
 _atom_site_fract_y
 _atom_site_fract_z
 _atom_site_occupancy
  Na  Na0  1  0.63988406  0.00161687  0.25512370  1
  Na  Na1  1  0.00247648  0.62456619  0.24840978  1
  Na  Na2  1  0.62864423  0.63264193  0.74412664  1
  Na  Na3  1  0.37016178  0.01199975  0.75509773  1
  Na  Na4  1  0.66749291  0.95892047  0.58602379  1
  Na  Na5  1  0.97340542  0.68366209  0.92187115  1
  Na  Na6  1  0.69082892  0.01824566  0.91028175  1
  Na  Na7  1  0.96249898  0.30012777  0.40816611  1
  Na  Na8  1  0.70955593  0.68392468  0.42167813  1
  Na  Na9  1  0.00517400  0.98100629  0.50231806  1
  Na  Na10  1  0.01025228  0.98949896  0.00067795  1
  Na  Na11  1  0.64569951  0.32187401  0.83072680  1
  Na  Na12  1  0.66029888  0.32149114  0.33013487  1
  Na  Na13  1  0.31578782  0.64083295  0.16169067  1
  Na  Na14  1  0.32492902  0.63902333  0.66283364  1
  Hf  Hf0  1  0.66226418  0.34556519  0.98275607  1
  Hf  Hf1  1  0.67315899  0.34128004  0.48022694  1
  Hf  Hf2  1  0.34355202  0.66597741  0.81135350  1
  Ga  Ga0  1  0.98675019  0.99438115  0.35305977  1
  Ga  Ga1  1  0.00670903  0.01252408  0.85148105  1
  Ga  Ga2  1  0.98259267  0.99283894  0.65186895  1
  Ga  Ga3  1  0.00987152  0.00609383  0.14671948  1
  Ga  Ga4  1  0.64741133  0.33233350  0.68779478  1
  Ga  Ga5  1  0.70108475  0.34287493  0.17905097  1
  Ga  Ga6  1  0.33054915  0.69072979  0.01633762  1
  Ga  Ga7  1  0.34953240  0.68143749  0.51576364  1
  Ga  Ga8  1  0.31474562  0.65632529  0.31761835  1
  Si  Si0  1  0.00876190  0.28843584  0.24932796  1
  Si  Si1  1  0.27697657  0.27976488  0.74652669  1
  Si  Si2  1  0.71637162  0.01485860  0.74877429  1
  Si  Si3  1  0.66620142  0.63189265  0.58589005  1
  Si  Si4  1  0.98014215  0.64573778  0.08593792  1
  Si  Si5  1  0.62526336  0.67330103  0.92038548  1
  Si  Si6  1  0.32607615  0.96300342  0.91455168  1
  Si  Si7  1  0.61900704  0.95369565  0.41307553  1
  Si  Si8  1  0.05436322  0.67968170  0.41600529  1
  S  S0  1  0.29375399  0.00648745  0.24964334  1
  S  S1  1  0.70234724  0.70124056  0.24907989  1
  S  S2  1  0.99451319  0.70469901  0.74922400  1
  S  S3  1  0.96640891  0.33829694  0.58507517  1
  S  S4  1  0.36807782  0.03751613  0.58429663  1
  S  S5  1  0.66816999  0.03789994  0.08570320  1
  S  S6  1  0.37582933  0.33433356  0.08845243  1
  S  S7  1  0.04691331  0.37532825  0.91991656  1
  S  S8  1  0.32955591  0.37499493  0.41613183  1
  O  O0  1  0.21390844  0.02772797  0.30449824  1
  O  O1  1  0.81212215  0.77412825  0.30582848  1
  O  O2  1  0.96823939  0.16999972  0.31066495  1
  O  O3  1  0.20150445  0.15618453  0.80521803  1
  O  O4  1  0.96484835  0.77818146  0.80463119  1
  O  O5  1  0.82390028  0.03360863  0.81123973  1
  O  O6  1  0.78218751  0.95639965  0.68982106  1
  O  O7  1  0.16781104  0.18517735  0.68568193  1
  O  O8  1  0.02825244  0.81613120  0.69607430  1
  O  O9  1  0.78852348  0.81505504  0.19744110  1
  O  O10  1  0.02597211  0.18834547  0.19164931  1
  O  O11  1  0.18019921  0.97089449  0.19586139  1
  O  O12  1  0.87669172  0.35576158  0.63703158  1
  O  O13  1  0.47872450  0.11634768  0.63954680  1
  O  O14  1  0.64489496  0.51400438  0.64487535  1
  O  O15  1  0.89238982  0.52892359  0.14714640  1
  O  O16  1  0.64119858  0.11938246  0.14095669  1
  O  O17  1  0.48672956  0.34947194  0.14182915  1
  O  O18  1  0.45671755  0.30872704  0.03281583  1
  O  O19  1  0.85266412  0.54681201  0.02685362  1
  O  O20  1  0.68430731  0.14405393  0.03193100  1
  O  O21  1  0.46084784  0.14568056  0.53102656  1
  O  O22  1  0.68710292  0.54048456  0.52442167  1
  O  O23  1  0.85493014  0.31098569  0.52823197  1
  O  O24  1  0.52386423  0.69972916  0.97617699  1
  O  O25  1  0.15227613  0.45664546  0.97400811  1
  O  O26  1  0.27818361  0.83265918  0.97155492  1
  O  O27  1  0.54842203  0.83630954  0.47380249  1
  O  O28  1  0.30084202  0.45211252  0.47022233  1
  O  O29  1  0.16903567  0.69334688  0.47523020  1
  O  O30  1  0.11323582  0.61966069  0.35516129  1
  O  O31  1  0.50583796  0.85740765  0.35192477  1
  O  O32  1  0.36690091  0.48523647  0.36220768  1
  O  O33  1  0.11932434  0.48228731  0.86524397  1
  O  O34  1  0.35763135  0.87339784  0.85486182  1
  O  O35  1  0.51385564  0.63508022  0.85704685  1
  O  O36  1  0.02615126  0.84711166  0.40784010  1
  O  O37  1  0.81920816  0.98261708  0.41035554  1
  O  O38  1  0.17534292  0.20097879  0.40944692  1
  O  O39  1  0.02147897  0.19986003  0.91435907  1
  O  O40  1  0.15322551  0.98121532  0.90894381  1
  O  O41  1  0.81735254  0.84749724  0.91425878  1
  O  O42  1  0.97577817  0.17686514  0.58585351  1
  O  O43  1  0.19659199  0.02136945  0.58667504  1
  O  O44  1  0.84260407  0.82877441  0.58924998  1
  O  O45  1  0.98835144  0.83383453  0.09288645  1
  O  O46  1  0.82893165  0.02870863  0.08983839  1
  O  O47  1  0.20095207  0.17632301  0.08979938  1
  O  O48  1  0.68967863  0.18288037  0.74013584  1
  O  O49  1  0.48070432  0.31500502  0.74510145  1
  O  O50  1  0.83919610  0.53017201  0.74280473  1
  O  O51  1  0.68312947  0.52575370  0.24358397  1
  O  O52  1  0.82578512  0.30543329  0.24435978  1
  O  O53  1  0.47040169  0.16126613  0.24335129  1
  O  O54  1  0.65885378  0.50651422  0.92266386  1
  O  O55  1  0.86698340  0.35455136  0.92492066  1
  O  O56  1  0.51349205  0.14515634  0.92351707  1
  O  O57  1  0.64426783  0.14954884  0.41945505  1
  O  O58  1  0.48793723  0.35729997  0.42243559  1
  O  O59  1  0.85139951  0.50686315  0.42292836  1
  O  O60  1  0.36293767  0.49032079  0.08285028  1
  O  O61  1  0.16667372  0.65119628  0.07854590  1
  O  O62  1  0.51260799  0.86377037  0.08208755  1
  O  O63  1  0.35649653  0.86509038  0.57973454  1
  O  O64  1  0.49161333  0.65539873  0.57908650  1
  O  O65  1  0.13840048  0.49352123  0.57843254  1
  O  O66  1  0.31480776  0.84866323  0.25287703  1
  O  O67  1  0.53057055  0.68939419  0.25448070  1
  O  O68  1  0.17657338  0.48929220  0.25482636  1
  O  O69  1  0.30149915  0.47593887  0.75054862  1
  O  O70  1  0.15199862  0.68736199  0.75471827  1
  O  O71  1  0.51459917  0.83924889  0.75314053  1
loop_
_geom_bond_atom_site_label_1
_geom_bond_atom_site_label_2
_geom_bond_distance
_geom_bond_site_symmetry_2
Na0 O52 2.374632 1_555
Na0 O67 2.445905 1_545
Na0 O66 2.495570 1_545
Na0 O31 2.496025 1_545
Na0 O53 2.550107 1_555
Na0 O16 2.743660 1_555
Na0 O2 2.788343 1_555
Na0 O9 2.901790 1_545
Na1 O68 2.394574 1_555
Na1 O15 2.419723 1_455
Na1 O52 2.465844 1_455
Na1 O66 2.472309 1_555
Na1 O51 2.510619 1_455
Na1 O30 2.564524 1_555
Na1 O11 2.922621 1_555
Na1 O1 2.932742 1_455
Na2 O49 2.452309 1_555
Na2 O50 2.459677 1_555
Na2 O14 2.486053 1_555
Na2 O69 2.517362 1_555
Na2 O71 2.519184 1_555
Na2 O35 2.727461 1_555
Na2 O6 2.781561 1_555
Na2 O4 2.897202 1_555
Na3 O49 2.378446 1_555
Na3 O71 2.451576 1_545
Na3 O48 2.481384 1_555
Na3 O34 2.514371 1_545
Na3 O70 2.549125 1_545
Na3 O3 2.669777 1_555
Na3 O13 2.749277 1_555
Na3 O8 2.923137 1_545
Na4 O64 2.353021 1_555
Na4 O44 2.362459 1_555
Na4 O42 2.432923 1_565
Na4 O63 2.450891 1_555
Na4 O6 2.513414 1_555
Na4 O27 2.703271 1_555
Na5 O40 2.329706 1_655
Na5 O54 2.420403 1_555
Na5 O41 2.472398 1_555
Na5 O26 2.570518 1_655
Na5 O55 2.594241 1_555
Na5 O19 2.614586 1_556
Na5 O4 2.750190 1_555
Na6 O41 2.303723 1_545
Na6 O56 2.377746 1_555
Na6 O5 2.485032 1_555
Na6 O39 2.541429 1_655
Na6 O55 2.612150 1_555
Na6 O34 2.826902 1_545
Na6 O24 2.869442 1_545
Na6 O20 2.942362 1_556
Na7 O37 2.454066 1_545
Na7 O38 2.456057 1_655
Na7 O57 2.459928 1_555
Na7 O2 2.473857 1_555
Na7 O59 2.514501 1_555
Na7 O30 2.739695 1_655
Na7 O23 2.866269 1_555
Na7 O28 2.924423 1_655
Na8 O37 2.347063 1_555
Na8 O36 2.453951 1_655
Na8 O59 2.465896 1_555
Na8 O58 2.568620 1_555
Na8 O22 2.577527 1_555
Na8 O27 2.691840 1_555
Na8 O1 2.726980 1_555
Na8 O32 2.934302 1_555
Na9 O44 2.401124 1_455
Na9 O43 2.414204 1_565
Na9 O36 2.473190 1_555
Na9 O37 2.613667 1_455
Na9 O42 2.655806 1_465
Na9 O38 2.737613 1_565
Na10 O45 2.429205 1_455
Na10 O40 2.438525 1_554
Na10 O41 2.441039 1_454
Na10 O47 2.577720 1_565
Na10 O39 2.649913 1_564
Na10 O46 2.702631 1_465
Na11 O49 2.366848 1_555
Na11 O48 2.502839 1_555
Na11 O56 2.513835 1_555
Na11 O54 2.591357 1_555
Na11 O50 2.664998 1_555
Na11 O55 2.763224 1_555
Na12 O57 2.469165 1_555
Na12 O53 2.469431 1_555
Na12 O52 2.471778 1_555
Na12 O51 2.587375 1_555
Na12 O59 2.637444 1_555
Na12 O58 2.690659 1_555
Na13 O61 2.286735 1_555
Na13 O60 2.375840 1_555
Na13 O68 2.455417 1_555
Na13 O62 2.593451 1_555
Na13 O67 2.671382 1_555
Na13 O66 2.752518 1_555
Na14 O64 2.353702 1_555
Na14 O69 2.379606 1_555
Na14 O65 2.388152 1_555
Na14 O71 2.635289 1_555
Na14 O63 2.644891 1_555
Na14 O70 2.734212 1_555
Hf0 O54 1.970944 1_555
Hf0 O19 1.986653 1_556
Hf0 O18 2.032531 1_556
Hf0 O56 2.063343 1_555
Hf0 O20 2.192572 1_556
Hf0 O55 2.209936 1_555
Hf1 O22 1.979849 1_555
Hf1 O59 2.002836 1_555
Hf1 O23 2.050195 1_555
Hf1 O57 2.091184 1_555
Hf1 O58 2.132827 1_555
Hf1 O21 2.149817 1_555
Hf2 O35 1.940872 1_555
Hf2 O71 2.015250 1_555
Hf2 O34 2.035938 1_555
Hf2 O69 2.048706 1_555
Hf2 O70 2.185505 1_555
Hf2 O33 2.206037 1_555
Ga0 O2 1.902702 1_565
Ga0 O37 1.934856 1_555
Ga0 O36 1.943433 1_655
Ga0 O1 2.064571 1_555
Ga0 O38 2.148099 1_665
Ga0 O0 2.186253 1_665
Ga1 O3 1.873499 1_555
Ga1 O40 1.928129 1_545
Ga1 O5 1.932210 1_455
Ga1 O41 2.124819 1_445
Ga1 O39 2.132189 1_555
Ga1 O4 2.192739 1_445
Ga2 O7 1.828548 1_665
Ga2 O6 1.855772 1_555
Ga2 O44 1.936876 1_555
Ga2 O8 2.059605 1_655
Ga2 O42 2.223408 1_565
Ga2 O43 2.316790 1_665
Ga3 O10 1.851786 1_555
Ga3 O45 1.880024 1_445
Ga3 O11 2.001692 1_545
Ga3 O47 2.061920 1_555
Ga3 O46 2.117974 1_455
Ga3 O9 2.174529 1_445
Ga4 O14 1.889234 1_555
Ga4 O49 1.913537 1_555
Ga4 O48 1.938707 1_555
Ga4 O13 2.040522 1_555
Ga4 O50 2.105588 1_555
Ga4 O12 2.257997 1_555
Ga5 O15 1.827339 1_555
Ga5 O52 1.941358 1_555
Ga5 O16 1.975248 1_555
Ga5 O17 2.091797 1_555
Ga5 O51 2.240816 1_555
Ga5 O53 2.367332 1_555
Ga6 O26 1.839956 1_554
Ga6 O24 1.911679 1_554
Ga6 O61 1.922203 1_555
Ga6 O25 2.095331 1_554
Ga6 O62 2.135648 1_555
Ga6 O60 2.441921 1_555
Ga7 O27 1.867517 1_555
Ga7 O29 1.876029 1_555
Ga7 O64 1.966905 1_555
Ga7 O28 2.121813 1_555
Ga7 O63 2.148000 1_555
Ga7 O65 2.274674 1_555
Ga8 O30 1.859533 1_555
Ga8 O31 1.893064 1_555
Ga8 O68 1.947395 1_555
Ga8 O32 2.054205 1_555
Ga8 O66 2.237884 1_555
Ga8 O67 2.288448 1_555
O0 S0 1.478762 1_555
O1 S1 1.514504 1_555
O2 Si0 1.653304 1_655
O3 Si1 1.626532 1_555
O4 S2 1.483977 1_555
O5 Si2 1.633825 1_555
O6 Si2 1.631626 1_565
O7 Si1 1.619889 1_555
O8 S2 1.477104 1_455
O9 S1 1.474922 1_555
O10 Si0 1.616047 1_555
O11 S0 1.480155 1_565
O12 S3 1.464635 1_555
O13 S4 1.497012 1_555
O14 Si3 1.632454 1_555
O15 Si4 1.659876 1_555
O16 S5 1.510374 1_555
O17 S6 1.492802 1_555
O18 S6 1.513161 1_555
O19 Si4 1.655570 1_555
O20 S5 1.487260 1_555
O21 S4 1.496001 1_555
O22 Si3 1.652309 1_555
O23 S3 1.535533 1_555
O24 Si5 1.628305 1_555
O25 S7 1.461127 1_555
O26 Si6 1.628930 1_555
O27 Si7 1.634898 1_555
O28 S8 1.473908 1_555
O29 Si8 1.619117 1_555
O30 Si8 1.641367 1_555
O31 Si7 1.640568 1_555
O32 S8 1.481491 1_555
O33 S7 1.484534 1_555
O34 Si6 1.648633 1_555
O35 Si5 1.642904 1_555
O36 Si8 1.643469 1_555
O37 Si7 1.664499 1_555
O38 S8 1.471005 1_555
O39 S7 1.470108 1_555
O40 Si6 1.625229 1_555
O41 Si5 1.637868 1_555
O42 S3 1.483851 1_555
O43 S4 1.456940 1_555
O44 Si3 1.665511 1_555
O45 Si4 1.650071 1_555
O46 S5 1.471583 1_555
O47 S6 1.482753 1_555
O48 Si2 1.641677 1_555
O49 Si1 1.673419 1_555
O50 S2 1.477087 1_555
O51 S1 1.492171 1_555
O52 Si0 1.707601 1_655
O53 S0 1.487814 1_555
O54 Si5 1.658661 1_555
O55 S7 1.518316 1_655
O56 Si6 1.649526 1_545
O57 Si7 1.652065 1_545
O58 S8 1.496209 1_555
O59 Si8 1.691409 1_655
O60 S6 1.457576 1_555
O61 Si4 1.642560 1_455
O62 S5 1.471930 1_565
O63 S4 1.492776 1_565
O64 Si3 1.669938 1_555
O65 S3 1.466406 1_455
O66 S0 1.512158 1_565
O67 S1 1.481222 1_555
O68 Si0 1.660133 1_555
O69 Si1 1.653870 1_555
O70 S2 1.485142 1_455
O71 Si2 1.689613 1_565
