# generated using pymatgen
data_AgCl
_symmetry_space_group_name_H-M   'P 1'
_cell_length_a   3.92113791
_cell_length_b   3.92113727
_cell_length_c   3.92113719
_cell_angle_alpha   60.00000078
_cell_angle_beta   60.00000614
_cell_angle_gamma   60.00000900
_symmetry_Int_Tables_number   1
_chemical_formula_structural   AgCl
_chemical_formula_sum   'Ag1 Cl1'
_cell_volume   42.63058135
_cell_formula_units_Z   1
loop_
 _symmetry_equiv_pos_site_id
 _symmetry_equiv_pos_as_xyz
  1  'x, y, z'
loop_
 _atom_site_type_symbol
 _atom_site_label
 _atom_site_symmetry_multiplicity
 _atom_site_fract_x
 _atom_site_fract_y
 _atom_site_fract_z
 _atom_site_occupancy
  Ag  Ag0  1  0.00000000  -0.00000000  0.00000000  1
  Cl  Cl0  1  0.50000000  0.50000000  0.50000000  1
loop_
_geom_bond_atom_site_label_1
_geom_bond_atom_site_label_2
_geom_bond_distance
_geom_bond_site_symmetry_2
Ag0 Cl0 2.772663 1_445
Ag0 Cl0 2.772663 1_554
Ag0 Cl0 2.772663 1_544
Ag0 Cl0 2.772663 1_455
Ag0 Cl0 2.772663 1_454
Ag0 Cl0 2.772663 1_545
