# generated using pymatgen
data_MgTi3Nb(CuO4)3
_symmetry_space_group_name_H-M   'P 1'
_cell_length_a   6.81734827
_cell_length_b   6.51473559
_cell_length_c   6.61033925
_cell_angle_alpha   105.97130684
_cell_angle_beta   112.05470473
_cell_angle_gamma   109.63982134
_symmetry_Int_Tables_number   1
_chemical_formula_structural   MgTi3Nb(CuO4)3
_chemical_formula_sum   'Mg1 Ti3 Nb1 Cu3 O12'
_cell_volume   227.57697902
_cell_formula_units_Z   1
loop_
 _symmetry_equiv_pos_site_id
 _symmetry_equiv_pos_as_xyz
  1  'x, y, z'
loop_
 _atom_site_type_symbol
 _atom_site_label
 _atom_site_symmetry_multiplicity
 _atom_site_fract_x
 _atom_site_fract_y
 _atom_site_fract_z
 _atom_site_occupancy
  Mg  Mg0  1  0.70198989  0.56559645  0.12761710  1
  Ti  Ti0  1  0.54784750  0.00043635  0.99495879  1
  Ti  Ti1  1  0.04157372  0.55689059  0.03237748  1
  Ti  Ti2  1  0.00140229  0.00701459  0.53692057  1
  Nb  Nb0  1  0.50157374  0.47071771  0.49796198  1
  Cu  Cu0  1  0.28424955  0.42116185  0.87701474  1
  Cu  Cu1  1  0.51797740  0.00385399  0.51497024  1
  Cu  Cu2  1  0.01796960  0.50659850  0.50666785  1
  O  O0  1  0.82245071  0.32452492  0.13643758  1
  O  O1  1  0.49981281  0.18536601  0.32394550  1
  O  O2  1  0.89071569  0.17570145  0.69443451  1
  O  O3  1  0.72326630  0.89810661  0.20102930  1
  O  O4  1  0.32373920  0.51006739  0.20958654  1
  O  O5  1  0.82170742  0.67991627  0.49215768  1
  O  O6  1  0.20609929  0.32494209  0.51582168  1
  O  O7  1  0.31945941  0.12621670  0.81879164  1
  O  O8  1  0.73466770  0.52581783  0.82926856  1
  O  O9  1  0.12205119  0.80856540  0.30480492  1
  O  O10  1  0.53310055  0.83031277  0.71209178  1
  O  O11  1  0.21126304  0.69277552  0.88147455  1
loop_
_geom_bond_atom_site_label_1
_geom_bond_atom_site_label_2
_geom_bond_distance
_geom_bond_site_symmetry_2
Mg0 O0 2.006427 1_555
Mg0 O8 2.023314 1_554
Mg0 O3 2.026438 1_555
Mg0 O5 2.038236 1_555
Mg0 O9 2.343484 1_655
Nb0 O1 1.891305 1_555
Nb0 O4 1.977782 1_555
Nb0 O6 1.981870 1_555
Nb0 O8 2.005177 1_555
Nb0 O5 2.171235 1_555
Nb0 O10 2.268498 1_555
Cu0 O7 1.967313 1_555
Cu0 O11 1.988394 1_555
Cu0 O4 1.997739 1_556
Cu0 O6 2.091419 1_555
Cu0 O2 2.198599 1_455
Cu0 Mg0 2.353290 1_556
Cu1 O10 1.942915 1_545
Cu1 O1 1.952148 1_555
Cu1 O2 2.052010 1_555
Cu1 O9 2.176474 1_545
Cu2 O6 2.012597 1_555
Cu2 O5 2.013228 1_455
Cu2 O0 2.015697 1_455
Cu2 O11 2.041105 1_555
O0 Ti0 1.943872 1_554
O0 Ti1 2.195659 1_655
O1 Ti0 2.376188 1_554
O2 Ti2 1.838212 1_655
O2 Ti1 2.391654 1_656
O3 Ti0 1.882136 1_564
O3 Ti2 2.023794 1_665
O4 Ti1 2.016042 1_555
O5 Ti2 1.937842 1_665
O6 Ti2 2.149179 1_555
O7 Ti2 1.952977 1_555
O7 Ti0 2.114933 1_555
O8 Ti1 1.917645 1_656
O9 Ti1 1.805754 1_555
O9 Ti2 2.296334 1_565
O10 Ti0 1.838005 1_565
O11 Ti1 1.944515 1_556
O11 Ti0 2.152576 1_565
