# generated using pymatgen
data_RbFeF4
_symmetry_space_group_name_H-M   'P 1'
_cell_length_a   6.19954031
_cell_length_b   7.67654759
_cell_length_c   7.67892471
_cell_angle_alpha   90.00000000
_cell_angle_beta   90.00000000
_cell_angle_gamma   90.00000000
_symmetry_Int_Tables_number   1
_chemical_formula_structural   RbFeF4
_chemical_formula_sum   'Rb4 Fe4 F16'
_cell_volume   365.44821442
_cell_formula_units_Z   4
loop_
 _symmetry_equiv_pos_site_id
 _symmetry_equiv_pos_as_xyz
  1  'x, y, z'
loop_
 _atom_site_type_symbol
 _atom_site_label
 _atom_site_symmetry_multiplicity
 _atom_site_fract_x
 _atom_site_fract_y
 _atom_site_fract_z
 _atom_site_occupancy
  Rb  Rb0  1  0.44194284  0.50000000  0.00000000  1
  Rb  Rb1  1  0.50089547  -0.00000000  0.00000000  1
  Rb  Rb2  1  0.49910453  0.50000000  0.50000000  1
  Rb  Rb3  1  0.55805716  -0.00000000  0.50000000  1
  Fe  Fe0  1  0.00013110  0.74931860  0.74945295  1
  Fe  Fe1  1  0.00013110  0.25068140  0.25054705  1
  Fe  Fe2  1  0.99986890  0.75068140  0.24945295  1
  Fe  Fe3  1  0.99986890  0.24931860  0.75054705  1
  F  F0  1  0.07686096  0.50079952  0.26318795  1
  F  F1  1  0.07680445  0.75104273  0.99939188  1
  F  F2  1  0.92313904  0.00079952  0.23681205  1
  F  F3  1  0.70971487  0.70155973  0.79389184  1
  F  F4  1  0.07680445  0.24895727  0.00060812  1
  F  F5  1  0.29071840  0.79542960  0.70390488  1
  F  F6  1  0.70971487  0.29844027  0.20610816  1
  F  F7  1  0.92319555  0.74895727  0.49939188  1
  F  F8  1  0.70928160  0.29542960  0.79609512  1
  F  F9  1  0.92313904  0.99920048  0.76318795  1
  F  F10  1  0.29071840  0.20457040  0.29609512  1
  F  F11  1  0.07686096  0.49920048  0.73681205  1
  F  F12  1  0.29028513  0.20155973  0.70610816  1
  F  F13  1  0.92319555  0.25104273  0.50060812  1
  F  F14  1  0.70928160  0.70457040  0.20390488  1
  F  F15  1  0.29028513  0.79844027  0.29389184  1
loop_
_geom_bond_atom_site_label_1
_geom_bond_atom_site_label_2
_geom_bond_distance
_geom_bond_site_symmetry_2
F0 Fe2 1.979535 1_455
F0 Fe1 1.980472 1_555
F0 Rb0 3.034335 1_555
F0 Rb2 3.187362 1_555
F1 Fe0 1.977294 1_555
F1 Fe2 1.978553 1_456
F1 Rb0 2.972909 1_556
F1 Rb1 3.250382 1_566
F2 Fe1 1.979535 1_655
F2 Fe2 1.980472 1_545
F2 Rb3 3.034335 1_555
F2 Rb1 3.187362 1_555
F3 Fe0 1.868815 1_655
F3 Rb0 2.766731 1_556
F3 Rb2 3.031819 1_555
F3 Rb1 3.070748 1_566
F4 Fe1 1.977294 1_555
F4 Fe3 1.978553 1_454
F4 Rb0 2.972909 1_555
F4 Rb1 3.250382 1_555
F5 Fe0 1.868973 1_555
F5 Rb3 2.768515 1_565
F5 Rb2 3.043668 1_555
F5 Rb1 3.055098 1_566
F6 Fe1 1.868815 1_655
F6 Rb0 2.766731 1_555
F6 Rb2 3.031819 1_555
F6 Rb1 3.070748 1_555
F7 Fe2 1.977294 1_555
F7 Fe0 1.978553 1_655
F7 Rb3 2.972909 1_565
F7 Rb2 3.250382 1_555
F8 Fe3 1.868973 1_555
F8 Rb0 2.768515 1_556
F8 Rb1 3.043668 1_556
F8 Rb2 3.055098 1_555
F9 Fe0 1.979535 1_655
F9 Fe3 1.980472 1_565
F9 Rb3 3.034335 1_565
F9 Rb1 3.187362 1_566
F10 Fe1 1.868973 1_555
F10 Rb3 2.768515 1_555
F10 Rb2 3.043668 1_555
F10 Rb1 3.055098 1_555
F11 Fe3 1.979535 1_455
F11 Fe0 1.980472 1_555
F11 Rb0 3.034335 1_556
F11 Rb2 3.187362 1_555
F12 Fe3 1.868815 1_455
F12 Rb3 2.766731 1_555
F12 Rb1 3.031819 1_556
F12 Rb2 3.070748 1_555
F13 Fe3 1.977294 1_555
F13 Fe1 1.978553 1_655
F13 Rb3 2.972909 1_555
F13 Rb2 3.250382 1_555
F14 Fe2 1.868973 1_555
F14 Rb0 2.768515 1_555
F14 Rb1 3.043668 1_565
F14 Rb2 3.055098 1_555
F15 Fe2 1.868815 1_455
F15 Rb3 2.766731 1_565
F15 Rb1 3.031819 1_565
F15 Rb2 3.070748 1_555
