# generated using pymatgen
data_Na7CaSi3Ge3(PO8)3
_symmetry_space_group_name_H-M   'P 1'
_cell_length_a   8.88107956
_cell_length_b   8.89452671
_cell_length_c   21.87646581
_cell_angle_alpha   89.38961383
_cell_angle_beta   90.42648892
_cell_angle_gamma   119.78615385
_symmetry_Int_Tables_number   1
_chemical_formula_structural   Na7CaSi3Ge3(PO8)3
_chemical_formula_sum   'Na21 Ca3 Si9 Ge9 P9 O72'
_cell_volume   1499.69254671
_cell_formula_units_Z   3
loop_
 _symmetry_equiv_pos_site_id
 _symmetry_equiv_pos_as_xyz
  1  'x, y, z'
loop_
 _atom_site_type_symbol
 _atom_site_label
 _atom_site_symmetry_multiplicity
 _atom_site_fract_x
 _atom_site_fract_y
 _atom_site_fract_z
 _atom_site_occupancy
  Na  Na0  1  0.63862413  0.00783710  0.24743592  1
  Na  Na1  1  0.37189137  0.36338930  0.24734910  1
  Na  Na2  1  0.99189504  0.63270984  0.24987871  1
  Na  Na3  1  0.63055304  0.62037083  0.74949849  1
  Na  Na4  1  0.99189245  0.37504260  0.74743794  1
  Na  Na5  1  0.37805202  0.00691597  0.74721484  1
  Na  Na6  1  0.02749892  0.68956481  0.58385676  1
  Na  Na7  1  0.66616572  0.97410056  0.57983263  1
  Na  Na8  1  0.31177391  0.97366393  0.08317140  1
  Na  Na9  1  0.65980087  0.68848376  0.08364907  1
  Na  Na10  1  0.02639408  0.33552581  0.07979189  1
  Na  Na11  1  0.33302507  0.29939699  0.91720685  1
  Na  Na12  1  0.96628026  0.28557544  0.41747111  1
  Na  Na13  1  0.31955376  0.03310603  0.41771654  1
  Na  Na14  1  0.71392605  0.67811609  0.41741642  1
  Na  Na15  1  0.00757863  0.00794621  0.49852467  1
  Na  Na16  1  0.98778386  0.99150984  0.99661303  1
  Na  Na17  1  0.68279788  0.34130842  0.83591910  1
  Na  Na18  1  0.66609499  0.33354752  0.33303387  1
  Na  Na19  1  0.33900873  0.66872843  0.16372016  1
  Na  Na20  1  0.32669898  0.65107648  0.66379381  1
  Ca  Ca0  1  0.99833782  0.99971677  0.35659438  1
  Ca  Ca1  1  0.67242237  0.33892266  0.68277358  1
  Ca  Ca2  1  0.66410655  0.32964299  0.17385319  1
  Si  Si0  1  0.01122234  0.72583214  0.75450020  1
  Si  Si1  1  0.97544689  0.33514439  0.58410297  1
  Si  Si2  1  0.66091735  0.02862752  0.08102436  1
  Si  Si3  1  0.36645487  0.33597217  0.08081216  1
  Si  Si4  1  0.62539016  0.66645733  0.91514558  1
  Si  Si5  1  0.03572943  0.37435322  0.91577732  1
  Si  Si6  1  0.60816516  0.95360808  0.42047160  1
  Si  Si7  1  0.34750456  0.38819874  0.41978299  1
  Si  Si8  1  0.04443200  0.65460364  0.41996720  1
  Ge  Ge0  1  0.98910119  0.99538906  0.85767222  1
  Ge  Ge1  1  0.00830707  0.00571927  0.64725819  1
  Ge  Ge2  1  0.00074438  0.00667782  0.14585541  1
  Ge  Ge3  1  0.67190675  0.33420961  0.97916849  1
  Ge  Ge4  1  0.67016402  0.32809823  0.47942844  1
  Ge  Ge5  1  0.33937513  0.66320276  0.01259750  1
  Ge  Ge6  1  0.32982698  0.65856955  0.51776692  1
  Ge  Ge7  1  0.33358980  0.66592851  0.31990237  1
  Ge  Ge8  1  0.32315114  0.66252978  0.81822456  1
  P  P0  1  0.29096286  0.99012727  0.25026745  1
  P  P1  1  0.69996921  0.70790700  0.24983914  1
  P  P2  1  0.01040192  0.30423447  0.24990389  1
  P  P3  1  0.27521803  0.28516230  0.75431195  1
  P  P4  1  0.71315631  0.98966146  0.75271257  1
  P  P5  1  0.36629629  0.03411753  0.58247292  1
  P  P6  1  0.66314171  0.63208930  0.58267127  1
  P  P7  1  0.96991576  0.63495416  0.08016782  1
  P  P8  1  0.33543403  0.95562068  0.91585565  1
  O  O0  1  0.21489263  0.01564711  0.30741677  1
  O  O1  1  0.80070074  0.78163997  0.30760226  1
  O  O2  1  0.98020166  0.20082346  0.30748429  1
  O  O3  1  0.19084628  0.17532157  0.81229255  1
  O  O4  1  0.98260369  0.82659424  0.81061987  1
  O  O5  1  0.83445592  0.02832759  0.80832290  1
  O  O6  1  0.79370280  0.96063794  0.69328138  1
  O  O7  1  0.16096891  0.20210245  0.69599421  1
  O  O8  1  0.04362816  0.84257818  0.68989362  1
  O  O9  1  0.79446995  0.82726285  0.19103890  1
  O  O10  1  0.03553873  0.21154095  0.19144813  1
  O  O11  1  0.17099537  0.96373966  0.19111735  1
  O  O12  1  0.91574704  0.38595667  0.64532061  1
  O  O13  1  0.46798860  0.09858645  0.64144802  1
  O  O14  1  0.63003075  0.53932245  0.64342976  1
  O  O15  1  0.91947626  0.53663730  0.14051249  1
  O  O16  1  0.60773943  0.07428979  0.14456840  1
  O  O17  1  0.47144764  0.39255242  0.14330565  1
  O  O18  1  0.46363246  0.29187087  0.02422155  1
  O  O19  1  0.83294723  0.54318153  0.02863641  1
  O  O20  1  0.71188670  0.18100313  0.02798714  1
  O  O21  1  0.45719407  0.15454324  0.52599155  1
  O  O22  1  0.70029881  0.54132087  0.52838426  1
  O  O23  1  0.83088915  0.28943094  0.52636795  1
  O  O24  1  0.53719065  0.69634195  0.97553406  1
  O  O25  1  0.16767701  0.46670467  0.97325411  1
  O  O26  1  0.30510070  0.83913702  0.97252525  1
  O  O27  1  0.51665329  0.83357902  0.47967843  1
  O  O28  1  0.31036807  0.48096168  0.47521339  1
  O  O29  1  0.16840351  0.69129236  0.47870787  1
  O  O30  1  0.12692818  0.61828954  0.35651821  1
  O  O31  1  0.49138224  0.87109626  0.35655217  1
  O  O32  1  0.38419166  0.50666818  0.35526219  1
  O  O33  1  0.12298195  0.49519742  0.85382526  1
  O  O34  1  0.36574342  0.87326507  0.85764105  1
  O  O35  1  0.49152138  0.62463781  0.85605980  1
  O  O36  1  0.01610605  0.81780465  0.42027425  1
  O  O37  1  0.79921490  0.98008114  0.42139815  1
  O  O38  1  0.18321661  0.19843614  0.41929705  1
  O  O39  1  0.02860282  0.18432655  0.91019389  1
  O  O40  1  0.17432165  0.98203954  0.91164416  1
  O  O41  1  0.81779800  0.83985440  0.91027969  1
  O  O42  1  0.97591845  0.14852416  0.59064405  1
  O  O43  1  0.18018430  0.01414311  0.58603449  1
  O  O44  1  0.83673063  0.81621593  0.58596708  1
  O  O45  1  0.98277573  0.81792011  0.08630018  1
  O  O46  1  0.84108296  0.01366360  0.08788770  1
  O  O47  1  0.17450719  0.15363833  0.08819575  1
  O  O48  1  0.68521801  0.14542426  0.74996073  1
  O  O49  1  0.45532414  0.30397471  0.75141955  1
  O  O50  1  0.84379475  0.53571921  0.75463237  1
  O  O51  1  0.67663125  0.52656504  0.24431583  1
  O  O52  1  0.85533239  0.33258444  0.24336614  1
  O  O53  1  0.47278958  0.14718326  0.24487231  1
  O  O54  1  0.63330827  0.48421701  0.92357353  1
  O  O55  1  0.84466192  0.35699971  0.92444444  1
  O  O56  1  0.49811295  0.13939801  0.92140309  1
  O  O57  1  0.62032578  0.14637539  0.42346929  1
  O  O58  1  0.52847424  0.37759181  0.42614277  1
  O  O59  1  0.85246108  0.47406423  0.42465318  1
  O  O60  1  0.33474339  0.50230271  0.06988786  1
  O  O61  1  0.15275136  0.66042967  0.06714370  1
  O  O62  1  0.48984196  0.83709585  0.06802019  1
  O  O63  1  0.34455077  0.84941840  0.57551251  1
  O  O64  1  0.50828113  0.66582874  0.57401829  1
  O  O65  1  0.16569664  0.50916021  0.57398513  1
  O  O66  1  0.29746538  0.81543095  0.25179116  1
  O  O67  1  0.51981412  0.70273818  0.25091312  1
  O  O68  1  0.18520893  0.48317813  0.25157940  1
  O  O69  1  0.29274722  0.47009461  0.75566371  1
  O  O70  1  0.19362946  0.71086178  0.75790670  1
  O  O71  1  0.53183614  0.81947203  0.75766918  1
loop_
_geom_bond_atom_site_label_1
_geom_bond_atom_site_label_2
_geom_bond_distance
_geom_bond_site_symmetry_2
Na0 O53 2.349317 1_555
Na0 O16 2.369037 1_555
Na0 O67 2.373879 1_545
Na0 O52 2.555228 1_555
Na0 O66 2.639521 1_545
Na0 O31 2.700342 1_545
Na0 O9 2.879886 1_545
Na0 O2 2.947867 1_555
Na1 O51 2.352362 1_555
Na1 O68 2.377390 1_555
Na1 O17 2.412302 1_555
Na1 O53 2.493799 1_555
Na1 O67 2.627975 1_555
Na1 O32 2.670420 1_555
Na1 O10 2.866232 1_555
Na1 O0 2.982201 1_555
Na2 O52 2.325126 1_555
Na2 O66 2.371826 1_655
Na2 O51 2.473173 1_555
Na2 O15 2.518482 1_555
Na2 O68 2.642817 1_655
Na2 O30 2.646096 1_655
Na2 O11 2.854563 1_655
Na2 O1 2.921456 1_555
Na3 O71 2.342714 1_555
Na3 O50 2.361736 1_555
Na3 O14 2.436423 1_555
Na3 O49 2.447563 1_555
Na3 O69 2.612161 1_555
Na3 O35 2.655517 1_555
Na3 O6 2.891724 1_555
Na4 O12 2.344240 1_555
Na4 O69 2.374455 1_655
Na4 O50 2.381714 1_555
Na4 O48 2.462828 1_555
Na4 O33 2.586647 1_655
Na4 O70 2.622187 1_655
Na4 O7 2.871283 1_655
Na4 O5 2.982537 1_555
Na5 O70 2.319256 1_545
Na5 O48 2.371344 1_555
Na5 O49 2.379781 1_555
Na5 O13 2.448828 1_555
Na5 O71 2.635679 1_545
Na5 O34 2.659797 1_545
Na5 O8 2.863669 1_545
Na6 O63 2.451109 1_555
Na6 O44 2.457645 1_455
Na6 O65 2.468967 1_555
Na6 O43 2.507623 1_565
Na6 O29 2.623073 1_555
Na6 O8 2.668797 1_555
Na6 O12 2.713879 1_455
Na6 O22 2.798264 1_455
Na7 O64 2.384419 1_555
Na7 O42 2.405908 1_565
Na7 O63 2.499658 1_555
Na7 O44 2.528073 1_555
Na7 O27 2.547949 1_555
Na7 O23 2.693255 1_565
Na7 O6 2.746536 1_555
Na7 O13 2.853747 1_565
Na8 O61 2.446193 1_555
Na8 O47 2.450581 1_565
Na8 O62 2.451786 1_555
Na8 O45 2.537815 1_455
Na8 O11 2.660336 1_555
Na8 O16 2.673914 1_565
Na8 O26 2.698781 1_554
Na8 O18 2.765556 1_565
Na9 O62 2.471329 1_555
Na9 O45 2.504867 1_555
Na9 O46 2.518571 1_565
Na9 O60 2.532767 1_555
Na9 O24 2.611210 1_554
Na9 O17 2.648489 1_555
Na9 O9 2.650766 1_555
Na9 O19 2.741976 1_555
Na10 O60 2.390122 1_555
Na10 O46 2.499622 1_455
Na10 O61 2.540235 1_555
Na10 O47 2.546710 1_555
Na10 O25 2.626564 1_554
Na10 O20 2.673407 1_455
Na10 O10 2.686611 1_555
Na10 O15 2.760957 1_455
Na11 O54 2.340413 1_555
Na11 O39 2.372442 1_555
Na11 O40 2.453821 1_545
Na11 O56 2.500305 1_555
Na11 O3 2.589671 1_555
Na11 O18 2.619938 1_556
Na11 O35 2.835371 1_555
Na11 O25 2.847994 1_555
Na12 O59 2.355608 1_555
Na12 O37 2.362951 1_545
Na12 O38 2.407490 1_655
Na12 O2 2.551204 1_555
Na12 O23 2.684695 1_555
Na12 O57 2.685741 1_555
Na12 O30 2.884556 1_655
Na12 O28 2.944006 1_655
Na13 O38 2.323895 1_555
Na13 O57 2.343077 1_555
Na13 O36 2.409486 1_545
Na13 O0 2.557674 1_555
Na13 O21 2.640294 1_555
Na13 O58 2.687668 1_555
Na13 O31 2.907211 1_545
Na13 O29 2.951435 1_545
Na14 O36 2.331554 1_655
Na14 O58 2.348177 1_555
Na14 O37 2.403707 1_555
Na14 O1 2.547243 1_555
Na14 O59 2.653743 1_555
Na14 O22 2.680183 1_555
Na14 O32 2.880616 1_555
Na15 O38 2.379035 1_555
Na15 O37 2.416474 1_445
Na15 O43 2.427439 1_555
Na15 O36 2.446881 1_545
Na15 O42 2.472881 1_455
Na15 O44 2.504529 1_445
Na16 O41 2.377878 1_555
Na16 O39 2.443415 1_665
Na16 O46 2.454696 1_566
Na16 O45 2.470633 1_556
Na16 O40 2.528762 1_655
Na16 O47 2.545533 1_666
Na17 O55 2.366738 1_555
Na17 O50 2.390111 1_555
Na17 O54 2.470930 1_555
Na17 O56 2.541707 1_555
Na17 O48 2.584535 1_555
Na17 O49 2.626718 1_555
Na18 O57 2.473938 1_555
Na18 O59 2.503502 1_555
Na18 O58 2.515155 1_555
Na18 O51 2.548550 1_555
Na18 O53 2.570257 1_555
Na18 O52 2.595432 1_555
Na19 O67 2.406758 1_555
Na19 O68 2.452663 1_555
Na19 O66 2.468464 1_555
Na19 O62 2.530221 1_555
Na19 O60 2.532624 1_555
Na19 O61 2.652437 1_555
Na20 O65 2.390757 1_555
Na20 O69 2.485821 1_555
Na20 O64 2.511265 1_555
Na20 O63 2.553688 1_555
Na20 O70 2.569482 1_555
Na20 O71 2.660596 1_555
Ca0 O2 2.150007 1_565
Ca0 O1 2.150732 1_555
Ca0 O0 2.152476 1_665
Ca0 O36 2.187687 1_655
Ca0 O38 2.199182 1_665
Ca0 O37 2.211975 1_555
Ca1 O12 2.153382 1_555
Ca1 O14 2.165394 1_555
Ca1 O13 2.200924 1_555
Ca1 O50 2.286427 1_555
Ca1 O48 2.296370 1_555
Ca1 O49 2.346693 1_555
Ca2 O17 2.147902 1_555
Ca2 O16 2.171678 1_555
Ca2 O15 2.216483 1_555
Ca2 O52 2.261782 1_555
Ca2 O53 2.276073 1_555
Ca2 O51 2.306029 1_555
Ge0 O4 1.806347 1_555
Ge0 O41 1.858479 1_555
Ge0 O5 1.873119 1_565
Ge0 O39 1.927891 1_665
Ge0 O3 1.975048 1_665
Ge0 O40 2.067904 1_655
Ge1 O8 1.868952 1_545
Ge1 O42 1.885260 1_455
Ge1 O7 1.921266 1_555
Ge1 O43 2.011026 1_555
Ge1 O6 2.016850 1_445
Ge1 O44 2.103986 1_445
Ge2 O47 1.915964 1_555
Ge2 O46 1.918782 1_455
Ge2 O10 1.971114 1_555
Ge2 O11 1.988934 1_545
Ge2 O9 1.992109 1_445
Ge2 O45 2.078212 1_445
Ge3 O55 1.881865 1_555
Ge3 O20 1.888826 1_556
Ge3 O54 1.946932 1_555
Ge3 O18 1.965144 1_556
Ge3 O19 2.012484 1_556
Ge3 O56 2.083786 1_555
Ge4 O57 1.905361 1_555
Ge4 O59 1.910502 1_555
Ge4 O58 1.911471 1_555
Ge4 O23 1.915374 1_555
Ge4 O21 2.022953 1_555
Ge4 O22 2.085694 1_555
Ge5 O24 1.825469 1_554
Ge5 O25 1.866904 1_554
Ge5 O60 1.877412 1_555
Ge5 O62 1.900100 1_555
Ge5 O26 1.936482 1_554
Ge5 O61 2.039550 1_555
Ge6 O28 1.774754 1_555
Ge6 O29 1.805855 1_555
Ge6 O27 1.815837 1_555
Ge6 O65 1.862963 1_555
Ge6 O64 1.975168 1_555
Ge6 O63 2.077783 1_555
Ge7 O31 1.846753 1_555
Ge7 O32 1.846859 1_555
Ge7 O30 1.852509 1_555
Ge7 O66 2.113266 1_555
Ge7 O68 2.122977 1_555
Ge7 O67 2.146846 1_555
Ge8 O33 1.830078 1_555
Ge8 O35 1.873757 1_555
Ge8 O70 1.925042 1_555
Ge8 O34 1.930059 1_555
Ge8 O69 2.112079 1_555
Ge8 O71 2.136632 1_555
O0 P0 1.497324 1_545
O1 P1 1.498386 1_555
O2 P2 1.496639 1_655
O3 P3 1.544424 1_555
O4 Si0 1.621568 1_655
O5 P4 1.542762 1_545
O6 P4 1.572640 1_555
O7 P3 1.568122 1_555
O8 Si0 1.684212 1_555
O9 P1 1.608674 1_555
O10 P2 1.604525 1_555
O11 P0 1.613126 1_555
O12 Si1 1.593875 1_555
O13 P5 1.514229 1_555
O14 P6 1.508443 1_555
O15 P7 1.517608 1_555
O16 Si2 1.591479 1_555
O17 Si3 1.587844 1_555
O18 Si3 1.671514 1_555
O19 P7 1.558699 1_555
O20 Si2 1.659148 1_555
O21 P5 1.566301 1_555
O22 P6 1.569098 1_555
O23 Si1 1.696167 1_555
O24 Si4 1.630719 1_555
O25 Si5 1.634837 1_555
O26 P8 1.543775 1_555
O27 Si6 1.613099 1_555
O28 Si7 1.599256 1_555
O29 Si8 1.612738 1_555
O30 Si8 1.681538 1_555
O31 Si6 1.677399 1_555
O32 Si7 1.686076 1_555
O33 Si5 1.658215 1_555
O34 P8 1.565821 1_555
O35 Si4 1.664519 1_555
O36 Si8 1.591697 1_555
O37 Si6 1.592920 1_555
O38 Si7 1.590978 1_555
O39 Si5 1.665441 1_555
O40 P8 1.562904 1_555
O41 Si4 1.640354 1_555
O42 Si1 1.666612 1_555
O43 P5 1.574643 1_555
O44 P6 1.598883 1_555
O45 P7 1.580892 1_555
O46 Si2 1.675724 1_555
O47 Si3 1.677504 1_555
O48 P4 1.524518 1_545
O49 P3 1.525086 1_555
O50 Si0 1.603816 1_655
O51 P1 1.526697 1_555
O52 P2 1.523811 1_655
O53 P0 1.526802 1_545
O54 Si4 1.665256 1_555
O55 Si5 1.638030 1_655
O56 P8 1.558621 1_545
O57 Si6 1.665546 1_545
O58 Si7 1.660846 1_555
O59 Si8 1.665805 1_655
O60 Si3 1.652444 1_555
O61 P7 1.552139 1_455
O62 Si2 1.650404 1_565
O63 P5 1.564925 1_565
O64 P6 1.556405 1_555
O65 Si1 1.643010 1_455
O66 P0 1.583316 1_555
O67 P1 1.577983 1_555
O68 P2 1.578040 1_555
O69 P3 1.573947 1_555
O70 Si0 1.691122 1_555
O71 P4 1.572764 1_555
