# generated using pymatgen
data_Na7Mg3ZrP5SO24
_symmetry_space_group_name_H-M   'P 1'
_cell_length_a   9.02922180
_cell_length_b   8.99833204
_cell_length_c   22.31421435
_cell_angle_alpha   89.65399268
_cell_angle_beta   90.20923180
_cell_angle_gamma   119.84569830
_symmetry_Int_Tables_number   1
_chemical_formula_structural   Na7Mg3ZrP5SO24
_chemical_formula_sum   'Na21 Mg9 Zr3 P15 S3 O72'
_cell_volume   1572.49651598
_cell_formula_units_Z   3
loop_
 _symmetry_equiv_pos_site_id
 _symmetry_equiv_pos_as_xyz
  1  'x, y, z'
loop_
 _atom_site_type_symbol
 _atom_site_label
 _atom_site_symmetry_multiplicity
 _atom_site_fract_x
 _atom_site_fract_y
 _atom_site_fract_z
 _atom_site_occupancy
  Na  Na0  1  0.62387477  0.99946668  0.25092457  1
  Na  Na1  1  0.36474623  0.35788570  0.25205889  1
  Na  Na2  1  0.00883663  0.64219922  0.25000706  1
  Na  Na3  1  0.64358860  0.63383396  0.74759372  1
  Na  Na4  1  0.99254703  0.35614490  0.74810366  1
  Na  Na5  1  0.29805502  0.33931237  0.58625913  1
  Na  Na6  1  0.02743166  0.69534765  0.58707451  1
  Na  Na7  1  0.67413041  0.96424829  0.58545603  1
  Na  Na8  1  0.29796877  0.96317137  0.08296063  1
  Na  Na9  1  0.66417062  0.70002392  0.07965135  1
  Na  Na10  1  0.03598781  0.33532336  0.08032622  1
  Na  Na11  1  0.97351918  0.67807465  0.91168114  1
  Na  Na12  1  0.32402611  0.29699451  0.91113014  1
  Na  Na13  1  0.32452019  0.02469199  0.41236916  1
  Na  Na14  1  0.69603497  0.67396047  0.41689344  1
  Na  Na15  1  0.99447709  0.00931914  0.49728525  1
  Na  Na16  1  0.99105682  0.00028530  0.99534972  1
  Na  Na17  1  0.65743984  0.31469118  0.82569783  1
  Na  Na18  1  0.66632043  0.32557313  0.33327910  1
  Na  Na19  1  0.33190056  0.67228214  0.16294611  1
  Na  Na20  1  0.33342668  0.66863284  0.66642803  1
  Mg  Mg0  1  0.00828457  0.00985456  0.35381369  1
  Mg  Mg1  1  0.99605728  0.00176180  0.84803675  1
  Mg  Mg2  1  0.99594000  0.00031179  0.65578844  1
  Mg  Mg3  1  0.00705112  0.99849480  0.14772391  1
  Mg  Mg4  1  0.66671564  0.33487184  0.68709758  1
  Mg  Mg5  1  0.65968947  0.32692803  0.17899860  1
  Mg  Mg6  1  0.33512415  0.66744051  0.01541795  1
  Mg  Mg7  1  0.33186189  0.65896346  0.51272836  1
  Mg  Mg8  1  0.33089097  0.67106626  0.32296462  1
  Zr  Zr0  1  0.66766549  0.32825342  0.98133182  1
  Zr  Zr1  1  0.67921647  0.33818492  0.48013276  1
  Zr  Zr2  1  0.33602814  0.67504141  0.81357838  1
  P  P0  1  0.29504768  0.99952018  0.25011671  1
  P  P1  1  0.29519303  0.28947082  0.75006728  1
  P  P2  1  0.99767487  0.70763697  0.74929684  1
  P  P3  1  0.71043122  0.00470886  0.74845222  1
  P  P4  1  0.96563173  0.33453145  0.58668838  1
  P  P5  1  0.66577368  0.62984225  0.58499756  1
  P  P6  1  0.96215283  0.62804612  0.08629607  1
  P  P7  1  0.66693969  0.03409882  0.08731182  1
  P  P8  1  0.37019515  0.33571477  0.08558200  1
  P  P9  1  0.63133781  0.67331215  0.91904794  1
  P  P10  1  0.04215572  0.37012523  0.91852039  1
  P  P11  1  0.32845755  0.95906643  0.91963728  1
  P  P12  1  0.62800339  0.95699533  0.41610996  1
  P  P13  1  0.32936845  0.37166477  0.41612851  1
  P  P14  1  0.04363943  0.67120341  0.41570606  1
  S  S0  1  0.70712810  0.70705062  0.24998373  1
  S  S1  1  0.99968469  0.29189681  0.24944900  1
  S  S2  1  0.37316088  0.03925074  0.58410533  1
  O  O0  1  0.21122777  0.02848117  0.30562434  1
  O  O1  1  0.81196587  0.78753628  0.30385814  1
  O  O2  1  0.97106840  0.18112691  0.30183148  1
  O  O3  1  0.21253193  0.18841351  0.80712706  1
  O  O4  1  0.97238520  0.78880797  0.80573412  1
  O  O5  1  0.82284386  0.03122366  0.80275009  1
  O  O6  1  0.77799492  0.96435097  0.69101435  1
  O  O7  1  0.18470232  0.21620157  0.69356192  1
  O  O8  1  0.02673758  0.81282787  0.69199939  1
  O  O9  1  0.78603951  0.81403482  0.19599563  1
  O  O10  1  0.02458007  0.21450577  0.19456128  1
  O  O11  1  0.18346867  0.97098905  0.19399869  1
  O  O12  1  0.87893626  0.36194618  0.64062721  1
  O  O13  1  0.48451432  0.12348810  0.63525619  1
  O  O14  1  0.63567162  0.51289541  0.63879215  1
  O  O15  1  0.87724232  0.51426710  0.14140580  1
  O  O16  1  0.63689220  0.11613363  0.14253318  1
  O  O17  1  0.48349088  0.36609666  0.14076281  1
  O  O18  1  0.45768510  0.30493844  0.02991326  1
  O  O19  1  0.84684668  0.54065345  0.02984541  1
  O  O20  1  0.69729081  0.15516502  0.03228950  1
  O  O21  1  0.45115496  0.14465521  0.52819316  1
  O  O22  1  0.69068655  0.54022089  0.52800228  1
  O  O23  1  0.84550638  0.30473838  0.53105009  1
  O  O24  1  0.54568592  0.69037096  0.97505291  1
  O  O25  1  0.14943731  0.45496545  0.97438006  1
  O  O26  1  0.30380317  0.85195604  0.97560794  1
  O  O27  1  0.54552723  0.84981236  0.47270302  1
  O  O28  1  0.31057790  0.45384748  0.47280382  1
  O  O29  1  0.15147987  0.69800918  0.47202423  1
  O  O30  1  0.11713883  0.63900395  0.35890198  1
  O  O31  1  0.51726193  0.88290309  0.35953020  1
  O  O32  1  0.36663237  0.48375044  0.35955611  1
  O  O33  1  0.12410796  0.48752568  0.86237034  1
  O  O34  1  0.35791479  0.87291843  0.86448002  1
  O  O35  1  0.51484942  0.63749467  0.86292387  1
  O  O36  1  0.01641279  0.82808206  0.41026544  1
  O  O37  1  0.80528738  0.97381647  0.40899801  1
  O  O38  1  0.17819444  0.18789776  0.41093899  1
  O  O39  1  0.02610693  0.19467338  0.91120280  1
  O  O40  1  0.17107566  0.98063587  0.91185234  1
  O  O41  1  0.81289907  0.82253396  0.91178298  1
  O  O42  1  0.98317417  0.17180461  0.58834584  1
  O  O43  1  0.20158963  0.02325367  0.58842180  1
  O  O44  1  0.83125733  0.80696718  0.58698787  1
  O  O45  1  0.97503426  0.80589331  0.08920751  1
  O  O46  1  0.83029768  0.01962593  0.09113254  1
  O  O47  1  0.19212566  0.17274324  0.08945402  1
  O  O48  1  0.69015297  0.16417353  0.74228913  1
  O  O49  1  0.47954620  0.32330515  0.74426344  1
  O  O50  1  0.83884096  0.52466771  0.74502496  1
  O  O51  1  0.69090420  0.53304915  0.24481450  1
  O  O52  1  0.84651949  0.31542238  0.24465219  1
  O  O53  1  0.47742300  0.16296889  0.24519987  1
  O  O54  1  0.64330807  0.50256839  0.92302439  1
  O  O55  1  0.86435773  0.36206213  0.92272328  1
  O  O56  1  0.48996272  0.14276685  0.92265291  1
  O  O57  1  0.63936369  0.13736407  0.42261989  1
  O  O58  1  0.49659108  0.35260581  0.42237547  1
  O  O59  1  0.85715521  0.51035462  0.42132724  1
  O  O60  1  0.35212074  0.49651643  0.07824883  1
  O  O61  1  0.14052824  0.64615644  0.07918397  1
  O  O62  1  0.50616390  0.85726992  0.07889563  1
  O  O63  1  0.35470301  0.86608489  0.57756189  1
  O  O64  1  0.50620656  0.65100035  0.57768570  1
  O  O65  1  0.14196674  0.49784359  0.57785401  1
  O  O66  1  0.31527495  0.83645327  0.25503978  1
  O  O67  1  0.53157800  0.68495894  0.25489594  1
  O  O68  1  0.15635767  0.46535044  0.25529202  1
  O  O69  1  0.31247268  0.47625358  0.75579233  1
  O  O70  1  0.15714488  0.67963202  0.75495474  1
  O  O71  1  0.52949493  0.83688292  0.75605609  1
loop_
_geom_bond_atom_site_label_1
_geom_bond_atom_site_label_2
_geom_bond_distance
_geom_bond_site_symmetry_2
Na0 O66 2.419972 1_555
Na0 O53 2.421238 1_565
Na0 O67 2.522214 1_555
Na0 O52 2.540172 1_565
Na0 O16 2.610453 1_565
Na0 O31 2.623219 1_555
Na1 O53 2.432122 1_555
Na1 O68 2.508687 1_555
Na1 O67 2.554194 1_555
Na1 O51 2.561936 1_555
Na1 O32 2.655215 1_555
Na1 O17 2.694641 1_555
Na1 O0 2.831208 1_555
Na1 O10 2.965032 1_555
Na2 O66 2.431041 1_555
Na2 O51 2.532096 1_455
Na2 O68 2.535127 1_555
Na2 O52 2.553831 1_455
Na2 O30 2.621318 1_555
Na2 O15 2.694601 1_455
Na2 O11 2.850927 1_555
Na2 O1 2.943219 1_455
Na3 O50 2.408619 1_555
Na3 O49 2.426819 1_555
Na3 O71 2.512820 1_555
Na3 O69 2.600740 1_555
Na3 O14 2.652719 1_555
Na3 O35 2.834817 1_555
Na3 O6 2.878437 1_555
Na3 O4 2.883486 1_555
Na4 O48 2.400297 1_555
Na4 O50 2.514590 1_555
Na4 O70 2.530413 1_655
Na4 O69 2.536367 1_655
Na4 O12 2.615427 1_555
Na4 O5 2.809734 1_555
Na4 O33 2.815412 1_655
Na4 O7 2.878503 1_655
Na5 O65 2.460149 1_555
Na5 O42 2.468234 1_455
Na5 O64 2.486891 1_555
Na5 O43 2.526340 1_555
Na5 O7 2.620137 1_555
Na5 O28 2.709039 1_555
Na5 O14 2.891959 1_555
Na5 O21 3.018011 1_555
Na6 O44 2.432496 1_455
Na6 O65 2.470952 1_555
Na6 O43 2.561699 1_565
Na6 O63 2.572819 1_555
Na6 O8 2.576026 1_555
Na6 O29 2.799906 1_555
Na6 O12 2.861955 1_455
Na6 O22 2.949483 1_455
Na7 O44 2.452454 1_555
Na7 O64 2.454436 1_555
Na7 O42 2.468134 1_565
Na7 O6 2.531932 1_555
Na7 O63 2.567529 1_555
Na7 O27 2.749319 1_555
Na7 O23 2.916398 1_565
Na7 O13 2.948594 1_565
Na8 O61 2.476106 1_555
Na8 O62 2.497080 1_555
Na8 O47 2.507722 1_565
Na8 O45 2.533323 1_455
Na8 O26 2.612471 1_554
Na8 O11 2.702984 1_555
Na8 O18 2.914234 1_565
Na8 O16 2.970932 1_565
Na9 O62 2.458978 1_555
Na9 O60 2.481449 1_555
Na9 O45 2.483560 1_555
Na9 O46 2.509731 1_565
Na9 O24 2.547841 1_554
Na9 O9 2.809076 1_555
Na9 O19 2.898154 1_555
Na9 O17 2.938946 1_555
Na10 O61 2.467031 1_555
Na10 O60 2.476493 1_555
Na10 O47 2.493271 1_555
Na10 O46 2.514161 1_455
Na10 O25 2.585850 1_554
Na10 O10 2.747225 1_555
Na10 O20 2.862156 1_455
Na10 O15 2.973684 1_455
Na11 O41 2.381068 1_555
Na11 O40 2.400097 1_655
Na11 O55 2.514322 1_555
Na11 O4 2.561944 1_555
Na11 O54 2.600344 1_555
Na11 O33 2.890268 1_655
Na11 O19 2.892161 1_556
Na11 O26 2.954333 1_655
Na12 O39 2.370352 1_555
Na12 O40 2.469370 1_545
Na12 O56 2.509857 1_555
Na12 O3 2.526907 1_555
Na12 O54 2.548657 1_555
Na12 O35 2.869273 1_555
Na12 O18 2.894832 1_556
Na12 O25 2.961155 1_555
Na13 O38 2.415306 1_555
Na13 O36 2.443924 1_545
Na13 O57 2.508189 1_555
Na13 O58 2.571515 1_555
Na13 O0 2.595590 1_555
Na13 O21 2.817090 1_555
Na13 O29 2.872431 1_545
Na13 O31 2.879213 1_545
Na14 O37 2.372915 1_555
Na14 O36 2.514130 1_655
Na14 O59 2.534250 1_555
Na14 O58 2.536511 1_555
Na14 O1 2.724979 1_555
Na14 O22 2.739441 1_555
Na14 O27 2.842201 1_555
Na14 O32 2.888663 1_555
Na15 O37 2.518157 1_545
Na15 O38 2.525674 1_655
Na15 O42 2.542217 1_555
Na15 O44 2.607784 1_545
Na15 O36 2.613790 1_645
Na15 O43 2.718543 1_655
Na16 O41 2.465026 1_545
Na16 O39 2.469633 1_655
Na16 O40 2.541037 1_645
Na16 O46 2.642715 1_556
Na16 O45 2.678262 1_546
Na16 O47 2.705727 1_656
Na17 O48 2.412132 1_555
Na17 O49 2.447230 1_555
Na17 O50 2.528526 1_555
Na17 O56 2.648705 1_555
Na17 O55 2.747478 1_555
Na17 O54 2.802140 1_555
Na18 O53 2.537541 1_555
Na18 O57 2.540514 1_555
Na18 O52 2.596213 1_555
Na18 O59 2.599407 1_555
Na18 O58 2.599912 1_555
Na18 O51 2.641532 1_555
Na19 O61 2.472233 1_555
Na19 O62 2.478126 1_555
Na19 O60 2.536285 1_555
Na19 O66 2.586023 1_555
Na19 O67 2.691564 1_555
Na19 O68 2.695473 1_555
Na20 O65 2.573734 1_555
Na20 O70 2.574415 1_555
Na20 O69 2.577588 1_555
Na20 O64 2.579334 1_555
Na20 O63 2.597384 1_555
Na20 O71 2.601753 1_555
Mg0 O38 2.027117 1_555
Mg0 O0 2.061227 1_555
Mg0 O2 2.079568 1_455
Mg0 O36 2.088407 1_545
Mg0 O37 2.097879 1_445
Mg0 O1 2.206733 1_445
Mg1 O5 1.983788 1_555
Mg1 O3 2.049797 1_655
Mg1 O4 2.054597 1_545
Mg1 O39 2.152107 1_655
Mg1 O41 2.166586 1_545
Mg1 O40 2.200110 1_645
Mg2 O6 1.992364 1_545
Mg2 O8 2.006282 1_645
Mg2 O7 2.025580 1_655
Mg2 O42 2.192517 1_555
Mg2 O44 2.243990 1_545
Mg2 O43 2.320634 1_655
Mg3 O11 2.010517 1_555
Mg3 O45 2.077993 1_455
Mg3 O47 2.079643 1_565
Mg3 O46 2.112408 1_465
Mg3 O9 2.143554 1_455
Mg3 O10 2.147698 1_565
Mg4 O48 2.054164 1_555
Mg4 O14 2.056801 1_555
Mg4 O49 2.081625 1_555
Mg4 O12 2.086433 1_555
Mg4 O50 2.091193 1_555
Mg4 O13 2.135583 1_555
Mg5 O17 1.981873 1_555
Mg5 O16 1.982705 1_555
Mg5 O15 2.025600 1_555
Mg5 O53 2.154538 1_555
Mg5 O52 2.270827 1_555
Mg5 O51 2.277270 1_555
Mg6 O26 2.018296 1_554
Mg6 O24 2.021945 1_554
Mg6 O25 2.030854 1_554
Mg6 O60 2.135902 1_555
Mg6 O62 2.167192 1_555
Mg6 O61 2.197395 1_555
Mg7 O28 1.975547 1_555
Mg7 O29 2.038633 1_555
Mg7 O27 2.040890 1_555
Mg7 O65 2.161526 1_555
Mg7 O64 2.162996 1_555
Mg7 O63 2.292785 1_555
Mg8 O30 1.976246 1_555
Mg8 O31 1.986723 1_555
Mg8 O32 2.033399 1_555
Mg8 O66 2.170717 1_555
Mg8 O68 2.302860 1_555
Mg8 O67 2.323476 1_555
O0 P0 1.543343 1_545
O1 S0 1.478383 1_555
O2 S1 1.469123 1_555
O3 P1 1.523989 1_555
O4 P2 1.533238 1_555
O5 P3 1.519417 1_555
O6 P3 1.542266 1_565
O7 P1 1.538164 1_555
O8 P2 1.529737 1_455
O9 S0 1.481646 1_555
O10 S1 1.484482 1_455
O11 P0 1.544738 1_555
O12 P4 1.524778 1_555
O13 S2 1.460048 1_555
O14 P5 1.524673 1_555
O15 P6 1.535788 1_555
O16 P7 1.532855 1_555
O17 P8 1.534229 1_555
O18 P8 1.572540 1_555
O18 Zr0 2.104807 1_554
O19 P6 1.573706 1_555
O19 Zr0 2.092067 1_554
O20 P7 1.567953 1_555
O20 Zr0 2.044847 1_554
O21 S2 1.509776 1_555
O21 Zr1 2.201684 1_555
O22 P5 1.585393 1_555
O22 Zr1 2.071723 1_555
O23 P4 1.579386 1_555
O23 Zr1 2.017196 1_555
O24 P9 1.520186 1_555
O25 P10 1.530173 1_555
O26 P11 1.520621 1_555
O27 P12 1.535182 1_555
O28 P13 1.520782 1_555
O29 P14 1.531842 1_555
O30 P14 1.527413 1_555
O31 P12 1.541336 1_555
O32 P13 1.540773 1_555
O33 P10 1.564016 1_555
O33 Zr2 2.115015 1_555
O34 P11 1.551012 1_555
O34 Zr2 2.042578 1_555
O35 P9 1.560903 1_555
O35 Zr2 2.111648 1_555
O36 P14 1.552753 1_555
O37 P12 1.539759 1_555
O38 P13 1.538029 1_555
O39 P10 1.521650 1_555
O40 P11 1.536067 1_555
O41 P9 1.524824 1_555
O42 P4 1.549418 1_555
O43 S2 1.486219 1_555
O44 P5 1.550764 1_555
O45 P6 1.547493 1_555
O46 P7 1.545957 1_555
O47 P8 1.547829 1_555
O48 P3 1.539596 1_555
O49 P1 1.541728 1_555
O50 P2 1.557970 1_555
O51 S0 1.503336 1_555
O52 S1 1.502962 1_555
O53 P0 1.573401 1_545
O54 P9 1.594890 1_555
O54 Zr0 2.125591 1_555
O55 P10 1.573652 1_655
O55 Zr0 2.105086 1_555
O56 P11 1.569980 1_545
O56 Zr0 2.102435 1_555
O57 P12 1.582038 1_545
O57 Zr1 2.102224 1_555
O58 P13 1.607645 1_555
O58 Zr1 2.142986 1_555
O59 P14 1.587279 1_655
O59 Zr1 2.053463 1_555
O60 P8 1.542416 1_555
O61 P6 1.544688 1_455
O62 P7 1.541749 1_565
O63 S2 1.490364 1_565
O64 P5 1.552292 1_555
O65 P4 1.550279 1_455
O66 P0 1.569435 1_555
O67 S0 1.500465 1_555
O68 S1 1.502575 1_455
O69 P1 1.614611 1_555
O69 Zr2 2.134189 1_555
O70 P2 1.584982 1_455
O70 Zr2 2.090946 1_555
O71 P3 1.587974 1_565
O71 Zr2 2.069199 1_555
