# generated using pymatgen
data_Na3CaZr(PO4)3
_symmetry_space_group_name_H-M   'P 1'
_cell_length_a   16.07692901
_cell_length_b   9.29877024
_cell_length_c   9.14125204
_cell_angle_alpha   90.00000000
_cell_angle_beta   125.58159238
_cell_angle_gamma   90.00000000
_symmetry_Int_Tables_number   1
_chemical_formula_structural   Na3CaZr(PO4)3
_chemical_formula_sum   'Na12 Ca4 Zr4 P12 O48'
_cell_volume   1111.42079846
_cell_formula_units_Z   4
loop_
 _symmetry_equiv_pos_site_id
 _symmetry_equiv_pos_as_xyz
  1  'x, y, z'
loop_
 _atom_site_type_symbol
 _atom_site_label
 _atom_site_symmetry_multiplicity
 _atom_site_fract_x
 _atom_site_fract_y
 _atom_site_fract_z
 _atom_site_occupancy
  Na  Na0  1  0.25563927  0.72300539  0.99046004  1
  Na  Na1  1  0.75563927  0.77699461  0.49046004  1
  Na  Na2  1  0.75563927  0.22300539  0.99046004  1
  Na  Na3  1  0.25563927  0.27699461  0.49046004  1
  Na  Na4  1  0.50354752  0.10824565  0.74313412  1
  Na  Na5  1  0.50354752  0.89175435  0.24313412  1
  Na  Na6  1  0.00354752  0.60824565  0.74313412  1
  Na  Na7  1  0.00354752  0.39175435  0.24313412  1
  Na  Na8  1  0.18184216  0.94116497  0.29664327  1
  Na  Na9  1  0.18184216  0.05883503  0.79664327  1
  Na  Na10  1  0.68184216  0.44116497  0.29664327  1
  Na  Na11  1  0.68184216  0.55883503  0.79664327  1
  Ca  Ca0  1  0.10245071  0.74892938  0.55891005  1
  Ca  Ca1  1  0.10245071  0.25107062  0.05891005  1
  Ca  Ca2  1  0.60245071  0.24892938  0.55891005  1
  Ca  Ca3  1  0.60245071  0.75107062  0.05891005  1
  Zr  Zr0  1  0.89507194  0.75861441  0.94426427  1
  Zr  Zr1  1  0.89507194  0.24138559  0.44426427  1
  Zr  Zr2  1  0.39507194  0.25861441  0.94426427  1
  Zr  Zr3  1  0.39507194  0.74138559  0.44426427  1
  P  P0  1  0.99703093  0.94875254  0.76291144  1
  P  P1  1  0.99703093  0.05124746  0.26291144  1
  P  P2  1  0.49703093  0.44875254  0.76291144  1
  P  P3  1  0.49703093  0.55124746  0.26291144  1
  P  P4  1  0.35290925  0.91446745  0.75840322  1
  P  P5  1  0.64801354  0.88391693  0.74105428  1
  P  P6  1  0.64801354  0.11608307  0.24105428  1
  P  P7  1  0.35290925  0.08553255  0.25840322  1
  P  P8  1  0.85290925  0.41446745  0.75840322  1
  P  P9  1  0.14801354  0.38391693  0.74105428  1
  P  P10  1  0.14801354  0.61608307  0.24105428  1
  P  P11  1  0.85290925  0.58553255  0.25840322  1
  O  O0  1  0.15595477  0.54810073  0.74883015  1
  O  O1  1  0.84916352  0.58446823  0.74424819  1
  O  O2  1  0.84916352  0.41553177  0.24424819  1
  O  O3  1  0.15595477  0.45189927  0.24883015  1
  O  O4  1  0.65595477  0.04810073  0.74883015  1
  O  O5  1  0.34916352  0.08446823  0.74424819  1
  O  O6  1  0.34916352  0.91553177  0.24424819  1
  O  O7  1  0.65595477  0.95189927  0.24883015  1
  O  O8  1  0.44203991  0.55980020  0.60015940  1
  O  O9  1  0.56206769  0.53143791  0.93731444  1
  O  O10  1  0.56206769  0.46856209  0.43731444  1
  O  O11  1  0.44203991  0.44019980  0.10015940  1
  O  O12  1  0.94203991  0.05980020  0.60015940  1
  O  O13  1  0.06206769  0.03143791  0.93731444  1
  O  O14  1  0.06206769  0.96856209  0.43731444  1
  O  O15  1  0.94203991  0.94019980  0.10015940  1
  O  O16  1  0.26098568  0.86339305  0.75377126  1
  O  O17  1  0.73639096  0.81179592  0.73919531  1
  O  O18  1  0.73639096  0.18820408  0.23919531  1
  O  O19  1  0.26098568  0.13660695  0.25377126  1
  O  O20  1  0.76098568  0.36339305  0.75377126  1
  O  O21  1  0.23639096  0.31179592  0.73919531  1
  O  O22  1  0.23639096  0.68820408  0.23919531  1
  O  O23  1  0.76098568  0.63660695  0.25377126  1
  O  O24  1  0.35110473  0.86239609  0.58916258  1
  O  O25  1  0.65362749  0.82341271  0.89947640  1
  O  O26  1  0.65362749  0.17658729  0.39947640  1
  O  O27  1  0.35110473  0.13760391  0.08916258  1
  O  O28  1  0.85110473  0.36239609  0.58916258  1
  O  O29  1  0.15362749  0.32341271  0.89947640  1
  O  O30  1  0.15362749  0.67658729  0.39947640  1
  O  O31  1  0.85110473  0.63760391  0.08916258  1
  O  O32  1  0.45336643  0.86906968  0.93052056  1
  O  O33  1  0.54302978  0.83159339  0.56310571  1
  O  O34  1  0.54302978  0.16840661  0.06310571  1
  O  O35  1  0.45336643  0.13093032  0.43052056  1
  O  O36  1  0.95336643  0.36906968  0.93052056  1
  O  O37  1  0.04302978  0.33159339  0.56310571  1
  O  O38  1  0.04302978  0.66840661  0.06310571  1
  O  O39  1  0.95336643  0.63093032  0.43052056  1
  O  O40  1  0.06544349  0.84378241  0.74734956  1
  O  O41  1  0.91032025  0.86084278  0.75108574  1
  O  O42  1  0.91032025  0.13915722  0.25108574  1
  O  O43  1  0.06544349  0.15621759  0.24734956  1
  O  O44  1  0.56544349  0.34378241  0.74734956  1
  O  O45  1  0.41032025  0.36084278  0.75108574  1
  O  O46  1  0.41032025  0.63915722  0.25108574  1
  O  O47  1  0.56544349  0.65621759  0.24734956  1
loop_
_geom_bond_atom_site_label_1
_geom_bond_atom_site_label_2
_geom_bond_distance
_geom_bond_site_symmetry_2
Na0 O46 2.360815 1_556
Na0 O0 2.443958 1_555
Na0 O22 2.487821 1_556
Na0 O16 2.570849 1_555
Na0 O6 2.605492 1_556
Na0 O40 2.764427 1_555
Na1 O41 2.360815 1_555
Na1 O7 2.443958 1_555
Na1 O17 2.487821 1_555
Na1 O23 2.570849 1_555
Na1 O1 2.605492 1_555
Na1 O47 2.764427 1_555
Na2 O42 2.360815 1_556
Na2 O4 2.443958 1_555
Na2 O18 2.487821 1_556
Na2 O20 2.570849 1_555
Na2 O2 2.605492 1_556
Na2 O44 2.764427 1_555
Na3 O45 2.360815 1_555
Na3 O3 2.443958 1_555
Na3 O21 2.487821 1_555
Na3 O19 2.570849 1_555
Na3 O5 2.605492 1_555
Na3 O43 2.764427 1_555
Na4 O44 2.396678 1_555
Na4 O4 2.484091 1_555
Na4 O35 2.485714 1_555
Na4 O5 2.497765 1_555
Na4 O34 2.666563 1_556
Na4 O45 2.809903 1_555
Na5 O47 2.396678 1_555
Na5 O7 2.484091 1_555
Na5 O32 2.485714 1_554
Na5 O6 2.497765 1_555
Na5 O33 2.666563 1_555
Na5 O46 2.809903 1_555
Na6 O40 2.396678 1_555
Na6 O0 2.484091 1_555
Na6 O39 2.485714 1_455
Na6 O1 2.497765 1_455
Na6 O38 2.666563 1_556
Na6 O41 2.809903 1_455
Na7 O43 2.396678 1_555
Na7 O3 2.484091 1_555
Na7 O36 2.485714 1_454
Na7 O2 2.497765 1_455
Na7 O37 2.666563 1_555
Na7 O42 2.809903 1_455
Na8 O19 2.378167 1_565
Na8 O24 2.573696 1_555
Na8 O43 2.592787 1_565
Na8 O22 2.667166 1_555
Na8 O30 2.763771 1_555
Na8 O13 2.800236 1_564
Na8 O14 2.882358 1_555
Na9 O16 2.378167 1_545
Na9 O27 2.573696 1_556
Na9 O40 2.592787 1_545
Na9 O21 2.667166 1_555
Na9 O29 2.763771 1_555
Na9 O14 2.800236 1_545
Na9 O13 2.882358 1_555
Na10 O23 2.378167 1_555
Na10 O28 2.573696 1_555
Na10 O47 2.592787 1_555
Na10 O18 2.667166 1_555
Na10 O26 2.763771 1_555
Na10 O9 2.800236 1_554
Na10 O10 2.882358 1_555
Na11 O20 2.378167 1_555
Na11 O31 2.573696 1_556
Na11 O44 2.592787 1_555
Na11 O17 2.667166 1_555
Na11 O25 2.763771 1_555
Na11 O10 2.800236 1_555
Na11 O9 2.882358 1_555
Ca0 O30 2.156150 1_555
Ca0 O14 2.233443 1_555
Ca0 O39 2.247790 1_455
Ca0 O40 2.300403 1_555
Ca0 O0 2.345958 1_555
Ca0 O16 2.349178 1_555
Ca1 O29 2.156150 1_554
Ca1 O13 2.233443 1_554
Ca1 O36 2.247790 1_454
Ca1 O43 2.300403 1_555
Ca1 O3 2.345958 1_555
Ca1 O19 2.349178 1_555
Ca2 O26 2.156150 1_555
Ca2 O10 2.233443 1_555
Ca2 O35 2.247790 1_555
Ca2 O44 2.300403 1_555
Ca2 O4 2.345958 1_555
Ca2 O20 2.349178 1_555
Ca3 O25 2.156150 1_554
Ca3 O9 2.233443 1_554
Ca3 O32 2.247790 1_554
Ca3 O47 2.300403 1_555
Ca3 O7 2.345958 1_555
Ca3 O23 2.349178 1_555
O0 P9 1.530238 1_555
O1 P8 1.584369 1_555
O1 Zr0 2.222530 1_555
O2 P11 1.584369 1_555
O2 Zr1 2.222530 1_555
O3 P10 1.530238 1_555
O4 P5 1.530238 1_545
O5 P4 1.584369 1_545
O5 Zr2 2.222530 1_555
O6 P7 1.584369 1_565
O6 Zr3 2.222530 1_555
O7 P6 1.530238 1_565
O8 P2 1.590803 1_555
O8 Zr3 2.049358 1_555
O9 P2 1.512029 1_555
O10 P3 1.512029 1_555
O11 P3 1.590803 1_555
O11 Zr2 2.049358 1_554
O12 P0 1.590803 1_545
O12 Zr1 2.049358 1_555
O13 P0 1.512029 1_445
O14 P1 1.512029 1_465
O15 P1 1.590803 1_565
O15 Zr0 2.049358 1_554
O16 P4 1.529238 1_555
O17 P5 1.580164 1_555
O17 Zr0 2.168299 1_555
O18 P6 1.580164 1_555
O18 Zr1 2.168299 1_555
O19 P7 1.529238 1_555
O20 P8 1.529238 1_555
O21 P9 1.580164 1_555
O21 Zr2 2.168299 1_555
O22 P10 1.580164 1_555
O22 Zr3 2.168299 1_555
O23 P11 1.529238 1_555
O24 P4 1.605145 1_555
O24 Zr3 2.147051 1_555
O25 P5 1.506583 1_555
O26 P6 1.506583 1_555
O27 P7 1.605145 1_555
O27 Zr2 2.147051 1_554
O28 P8 1.605145 1_555
O28 Zr1 2.147051 1_555
O29 P9 1.506583 1_555
O30 P10 1.506583 1_555
O31 P11 1.605145 1_555
O31 Zr0 2.147051 1_554
O32 P4 1.518212 1_555
O33 P5 1.592634 1_555
O33 Zr3 2.129515 1_555
O34 P6 1.592634 1_555
O34 Zr2 2.129515 1_554
O35 P7 1.518212 1_555
O36 P8 1.518212 1_555
O37 P9 1.592634 1_555
O37 Zr1 2.129515 1_455
O38 P10 1.592634 1_555
O38 Zr0 2.129515 1_454
O39 P11 1.518212 1_555
O40 P0 1.537782 1_455
O41 P0 1.564575 1_555
O41 Zr0 2.141469 1_555
O42 P1 1.564575 1_555
O42 Zr1 2.141469 1_555
O43 P1 1.537782 1_455
O44 P2 1.537782 1_555
O45 P2 1.564575 1_555
O45 Zr2 2.141469 1_555
O46 P3 1.564575 1_555
O46 Zr3 2.141469 1_555
O47 P3 1.537782 1_555
