# generated using pymatgen
data_MgZn2Mo3O8
_symmetry_space_group_name_H-M   'P 1'
_cell_length_a   5.59080809
_cell_length_b   6.34105614
_cell_length_c   6.99220122
_cell_angle_alpha   118.33093079
_cell_angle_beta   122.74482796
_cell_angle_gamma   88.71938586
_symmetry_Int_Tables_number   1
_chemical_formula_structural   MgZn2Mo3O8
_chemical_formula_sum   'Mg1 Zn2 Mo3 O8'
_cell_volume   174.08377167
_cell_formula_units_Z   1
loop_
 _symmetry_equiv_pos_site_id
 _symmetry_equiv_pos_as_xyz
  1  'x, y, z'
loop_
 _atom_site_type_symbol
 _atom_site_label
 _atom_site_symmetry_multiplicity
 _atom_site_fract_x
 _atom_site_fract_y
 _atom_site_fract_z
 _atom_site_occupancy
  Mg  Mg0  1  0.45474500  0.74878800  0.51486500  1
  Zn  Zn0  1  0.74529800  0.65852400  0.31802000  1
  Zn  Zn1  1  0.27002300  0.31684400  0.64217200  1
  Mo  Mo0  1  0.51397600  0.02043500  0.03679200  1
  Mo  Mo1  1  0.00016000  0.73338600  0.98574000  1
  Mo  Mo2  1  0.99187200  0.24866000  0.98724700  1
  O  O0  1  0.00384300  0.39395900  0.76857000  1
  O  O1  1  0.01781800  0.62525700  0.23398200  1
  O  O2  1  0.99604600  0.87094100  0.75585300  1
  O  O3  1  0.99076100  0.11064100  0.22731400  1
  O  O4  1  0.47548100  0.39156700  0.24662500  1
  O  O5  1  0.45823000  0.86501400  0.24027400  1
  O  O6  1  0.51294000  0.11244300  0.77323800  1
  O  O7  1  0.53309200  0.65353800  0.77930800  1
loop_
_geom_bond_atom_site_label_1
_geom_bond_atom_site_label_2
_geom_bond_distance
_geom_bond_site_symmetry_2
Mg0 O1 1.968081 1_555
Mg0 O6 2.032425 1_565
Mg0 O7 2.036563 1_555
Mg0 O4 2.203028 1_555
Mg0 O5 2.369404 1_555
Mg0 O2 2.438707 1_555
Mo0 O3 2.170428 1_555
Mo0 O6 2.178343 1_554
Mo0 O4 2.186112 1_555
Mo0 O7 2.210650 1_544
Mo0 O5 2.217439 1_545
Mo0 O2 2.311717 1_444
Mo1 O0 1.966869 1_555
Mo1 O5 2.043940 1_556
Mo1 O1 2.105683 1_556
Mo1 O7 2.108696 1_455
Mo1 O2 2.152897 1_455
Mo1 O3 2.198582 1_466
Mo2 O1 2.129451 1_656
Mo2 O0 2.154501 1_655
Mo2 O4 2.160018 1_656
Mo2 O6 2.167257 1_555
Mo2 O2 2.171468 1_545
Mo2 O3 2.233729 1_556
O0 Zn1 2.053034 1_555
O1 Zn0 1.883525 1_455
O2 Zn0 2.163244 1_555
O3 Zn1 2.038060 1_655
O4 Zn0 1.971732 1_555
O5 Zn0 2.055141 1_555
O6 Zn1 2.016558 1_555
O7 Zn1 2.076647 1_555
