# generated using pymatgen
data_Na21Ta2Zn10P15(SO24)3
_symmetry_space_group_name_H-M   'P 1'
_cell_length_a   9.03887629
_cell_length_b   9.06067503
_cell_length_c   21.92225093
_cell_angle_alpha   89.64778563
_cell_angle_beta   89.75644435
_cell_angle_gamma   120.05368320
_symmetry_Int_Tables_number   1
_chemical_formula_structural   Na21Ta2Zn10P15(SO24)3
_chemical_formula_sum   'Na21 Ta2 Zn10 P15 S3 O72'
_cell_volume   1553.93128691
_cell_formula_units_Z   1
loop_
 _symmetry_equiv_pos_site_id
 _symmetry_equiv_pos_as_xyz
  1  'x, y, z'
loop_
 _atom_site_type_symbol
 _atom_site_label
 _atom_site_symmetry_multiplicity
 _atom_site_fract_x
 _atom_site_fract_y
 _atom_site_fract_z
 _atom_site_occupancy
  Na  Na0  1  0.36481725  0.35358698  0.24707177  1
  Na  Na1  1  0.98529703  0.35278308  0.74184850  1
  Na  Na2  1  0.36642468  0.01278859  0.74210624  1
  Na  Na3  1  0.29412237  0.32763263  0.58075435  1
  Na  Na4  1  0.03993212  0.70086630  0.58339543  1
  Na  Na5  1  0.66724041  0.97363019  0.58230000  1
  Na  Na6  1  0.29882645  0.97375558  0.08633399  1
  Na  Na7  1  0.66227778  0.69473339  0.08887511  1
  Na  Na8  1  0.04006971  0.33152069  0.08726712  1
  Na  Na9  1  0.96241296  0.66946033  0.91460987  1
  Na  Na10  1  0.70798216  0.03818893  0.91510110  1
  Na  Na11  1  0.33009760  0.29083965  0.91760312  1
  Na  Na12  1  0.96132567  0.29229819  0.41664142  1
  Na  Na13  1  0.33068293  0.03965253  0.41725444  1
  Na  Na14  1  0.70697072  0.66856765  0.41411895  1
  Na  Na15  1  0.00490661  0.00573487  0.49861917  1
  Na  Na16  1  0.00629775  0.00535412  0.99949619  1
  Na  Na17  1  0.66571049  0.34281328  0.82884375  1
  Na  Na18  1  0.67654224  0.33314614  0.32943624  1
  Na  Na19  1  0.33275726  0.66984281  0.16623169  1
  Na  Na20  1  0.33628535  0.66645815  0.65835668  1
  Ta  Ta0  1  0.33326850  0.66983334  0.31340810  1
  Ta  Ta1  1  0.33581693  0.66641893  0.81379003  1
  Zn  Zn0  1  0.99624195  0.99873813  0.34427054  1
  Zn  Zn1  1  0.99936396  0.99678390  0.84439396  1
  Zn  Zn2  1  0.00652458  0.00707516  0.65462253  1
  Zn  Zn3  1  0.00625301  0.00652643  0.16416803  1
  Zn  Zn4  1  0.66713720  0.33174833  0.68083249  1
  Zn  Zn5  1  0.66642369  0.33615945  0.18807529  1
  Zn  Zn6  1  0.65850050  0.33118459  0.98303982  1
  Zn  Zn7  1  0.66500573  0.32342139  0.48394970  1
  Zn  Zn8  1  0.33366060  0.65839946  0.01195331  1
  Zn  Zn9  1  0.32605469  0.66655706  0.51288137  1
  P  P0  1  0.29709806  -0.00041872  0.25018151  1
  P  P1  1  0.70463808  0.70414768  0.25041814  1
  P  P2  1  0.99713803  0.29874378  0.25104351  1
  P  P3  1  0.29971218  0.29814410  0.75133259  1
  P  P4  1  0.99628766  0.70150162  0.75153672  1
  P  P5  1  0.70567051  0.99915119  0.75055514  1
  P  P6  1  0.96434857  0.33275804  0.58350830  1
  P  P7  1  0.36809673  0.03604349  0.58396365  1
  P  P8  1  0.36867518  0.33238157  0.08309963  1
  P  P9  1  0.63099148  0.67001306  0.91873564  1
  P  P10  1  0.03624529  0.36961486  0.91877614  1
  P  P11  1  0.33225564  0.95848525  0.91901123  1
  P  P12  1  0.62791229  0.95785111  0.41858241  1
  P  P13  1  0.33320415  0.37248258  0.41854040  1
  P  P14  1  0.03721602  0.66878576  0.41832459  1
  S  S0  1  0.66776051  0.62864021  0.58285850  1
  S  S1  1  0.96116916  0.62786813  0.08177828  1
  S  S2  1  0.66729201  0.03917683  0.08225942  1
  O  O0  1  0.21315105  0.02701266  0.30639256  1
  O  O1  1  0.80681021  0.78546550  0.30759941  1
  O  O2  1  0.97759909  0.19520966  0.30858059  1
  O  O3  1  0.21912810  0.19043970  0.80971960  1
  O  O4  1  0.97709521  0.78067048  0.81074152  1
  O  O5  1  0.81189946  0.02704099  0.80860305  1
  O  O6  1  0.77872796  0.96583004  0.69321274  1
  O  O7  1  0.18467909  0.23071879  0.69520698  1
  O  O8  1  0.04073004  0.81663266  0.69512576  1
  O  O9  1  0.77758084  0.81004981  0.19107727  1
  O  O10  1  0.04438514  0.23216353  0.19305112  1
  O  O11  1  0.19155215  0.96160534  0.19106944  1
  O  O12  1  0.88371323  0.36303150  0.64133152  1
  O  O13  1  0.47650543  0.11786776  0.64169024  1
  O  O14  1  0.64147486  0.51970183  0.63696730  1
  O  O15  1  0.87574598  0.51650073  0.13473594  1
  O  O16  1  0.64476636  0.12558904  0.13489212  1
  O  O17  1  0.48246695  0.36030488  0.13889446  1
  O  O18  1  0.44750731  0.30375378  0.02378065  1
  O  O19  1  0.86343787  0.55193771  0.02426840  1
  O  O20  1  0.69476730  0.14009347  0.02438211  1
  O  O21  1  0.44892280  0.14878960  0.52609907  1
  O  O22  1  0.69262891  0.55271699  0.52612757  1
  O  O23  1  0.85526159  0.30729434  0.52583249  1
  O  O24  1  0.55471247  0.70014021  0.97659377  1
  O  O25  1  0.14396888  0.44839560  0.97573898  1
  O  O26  1  0.30515171  0.84936477  0.97614909  1
  O  O27  1  0.54952274  0.85142795  0.47669709  1
  O  O28  1  0.30581958  0.45307304  0.47559521  1
  O  O29  1  0.14271010  0.69915325  0.47622955  1
  O  O30  1  0.14237916  0.64774364  0.36356987  1
  O  O31  1  0.50440265  0.85361253  0.36376218  1
  O  O32  1  0.35234379  0.49195916  0.36144138  1
  O  O33  1  0.13731075  0.49121641  0.86208089  1
  O  O34  1  0.35091760  0.85812894  0.86235274  1
  O  O35  1  0.50517401  0.64915028  0.86423446  1
  O  O36  1  0.01911734  0.82752485  0.40981580  1
  O  O37  1  0.80628104  0.97799582  0.41082565  1
  O  O38  1  0.17409289  0.19469295  0.41163215  1
  O  O39  1  0.01836331  0.19249168  0.91128946  1
  O  O40  1  0.17328722  0.97806806  0.91211228  1
  O  O41  1  0.80899313  0.82888619  0.91040240  1
  O  O42  1  0.97883889  0.16822390  0.58787093  1
  O  O43  1  0.18537556  0.01410847  0.58830540  1
  O  O44  1  0.82311855  0.80118541  0.58777542  1
  O  O45  1  0.97665025  0.79961766  0.08642720  1
  O  O46  1  0.82043633  0.01739964  0.08694059  1
  O  O47  1  0.18653114  0.17005515  0.08788581  1
  O  O48  1  0.67501848  0.15247664  0.74694087  1
  O  O49  1  0.47755631  0.31892394  0.74450329  1
  O  O50  1  0.84976282  0.51755459  0.74661103  1
  O  O51  1  0.66659336  0.51866210  0.24665184  1
  O  O52  1  0.84524709  0.32649353  0.24389705  1
  O  O53  1  0.47597572  0.15807765  0.24498020  1
  O  O54  1  0.63837513  0.50352474  0.91734085  1
  O  O55  1  0.86171300  0.36236656  0.91840644  1
  O  O56  1  0.49958677  0.13288388  0.91698918  1
  O  O57  1  0.63471324  0.13192656  0.41647169  1
  O  O58  1  0.50097487  0.36566891  0.41741122  1
  O  O59  1  0.86280888  0.50141097  0.41772456  1
  O  O60  1  0.35046319  0.49622531  0.07955535  1
  O  O61  1  0.13746423  0.65017551  0.07891908  1
  O  O62  1  0.50930375  0.86622525  0.07917723  1
  O  O63  1  0.35385241  0.85724449  0.58013704  1
  O  O64  1  0.51289019  0.64754762  0.57964212  1
  O  O65  1  0.14741227  0.49317118  0.57987516  1
  O  O66  1  0.31631190  0.83499476  0.25904285  1
  O  O67  1  0.51631517  0.68447370  0.25738349  1
  O  O68  1  0.17012619  0.48259582  0.25854283  1
  O  O69  1  0.31425292  0.48133237  0.76041685  1
  O  O70  1  0.16938205  0.68610005  0.75899024  1
  O  O71  1  0.51752160  0.83463678  0.75912321  1
loop_
_geom_bond_atom_site_label_1
_geom_bond_atom_site_label_2
_geom_bond_distance
_geom_bond_site_symmetry_2
Na0 O51 2.364486 1_555
Na0 O53 2.435774 1_555
Na0 O68 2.566448 1_555
Na0 O17 2.582728 1_555
Na0 O67 2.610263 1_555
Na0 O10 2.802710 1_555
Na0 O32 2.837017 1_555
Na0 O0 2.863668 1_555
Na1 O50 2.360795 1_555
Na1 O12 2.409871 1_555
Na1 O48 2.463437 1_555
Na1 O69 2.628811 1_655
Na1 O70 2.648898 1_655
Na1 O7 2.740663 1_655
Na1 O5 2.933107 1_555
Na1 O33 2.958662 1_655
Na2 O13 2.397742 1_555
Na2 O48 2.421080 1_555
Na2 O49 2.432519 1_555
Na2 O70 2.602168 1_545
Na2 O71 2.610565 1_545
Na2 O8 2.773758 1_545
Na2 O34 2.947361 1_545
Na2 O3 2.952910 1_555
Na3 O65 2.449624 1_555
Na3 O42 2.470333 1_455
Na3 O43 2.501879 1_555
Na3 O28 2.542214 1_555
Na3 O64 2.563300 1_555
Na3 O7 2.669605 1_555
Na3 O21 2.880954 1_555
Na3 O14 2.998536 1_555
Na4 O63 2.456443 1_555
Na4 O43 2.462290 1_565
Na4 O65 2.514656 1_555
Na4 O29 2.525649 1_555
Na4 O44 2.541603 1_455
Na4 O8 2.669066 1_555
Na5 O42 2.467365 1_565
Na5 O63 2.479536 1_555
Na5 O64 2.559919 1_555
Na5 O27 2.567104 1_555
Na5 O44 2.577799 1_555
Na5 O6 2.650007 1_555
Na5 O23 2.889699 1_565
Na5 O13 2.938362 1_565
Na6 O47 2.450220 1_565
Na6 O11 2.468836 1_555
Na6 O45 2.523405 1_455
Na6 O62 2.539532 1_555
Na6 O61 2.544453 1_555
Na6 O26 2.684218 1_554
Na6 O18 2.921614 1_565
Na6 O16 2.922482 1_565
Na7 O60 2.480386 1_555
Na7 O9 2.481062 1_555
Na7 O45 2.504759 1_555
Na7 O46 2.530707 1_565
Na7 O62 2.553804 1_555
Na7 O24 2.659523 1_554
Na7 O17 2.834942 1_555
Na8 O47 2.415141 1_555
Na8 O60 2.434389 1_555
Na8 O10 2.490001 1_555
Na8 O46 2.526402 1_455
Na8 O61 2.567264 1_555
Na8 O25 2.633187 1_554
Na9 O41 2.454388 1_555
Na9 O55 2.457101 1_555
Na9 O4 2.460302 1_555
Na9 O40 2.472578 1_655
Na9 O54 2.535621 1_555
Na9 O19 2.590237 1_556
Na10 O39 2.429058 1_655
Na10 O56 2.429944 1_555
Na10 O41 2.485266 1_545
Na10 O5 2.534261 1_555
Na10 O55 2.545391 1_555
Na10 O20 2.596408 1_556
Na11 O40 2.457021 1_545
Na11 O54 2.469693 1_555
Na11 O39 2.498537 1_555
Na11 O18 2.541235 1_556
Na11 O3 2.561205 1_555
Na11 O56 2.567422 1_555
Na12 O59 2.464493 1_555
Na12 O37 2.469556 1_545
Na12 O38 2.489123 1_655
Na12 O57 2.555465 1_555
Na12 O2 2.561174 1_555
Na12 O23 2.604304 1_555
Na13 O57 2.439144 1_555
Na13 O38 2.445979 1_555
Na13 O36 2.497585 1_545
Na13 O58 2.557529 1_555
Na13 O21 2.608787 1_555
Na13 O0 2.636624 1_555
Na14 O58 2.425337 1_555
Na14 O36 2.443297 1_655
Na14 O37 2.479418 1_555
Na14 O1 2.526548 1_555
Na14 O59 2.533893 1_555
Na14 O22 2.641466 1_555
Na15 O38 2.493778 1_555
Na15 O42 2.535805 1_455
Na15 O43 2.537217 1_555
Na15 O37 2.563986 1_445
Na15 O36 2.580299 1_545
Na15 O44 2.613973 1_445
Na16 O47 2.502591 1_556
Na16 O40 2.522725 1_545
Na16 O39 2.529577 1_555
Na16 O45 2.574904 1_446
Na16 O46 2.582225 1_456
Na16 O41 2.600710 1_445
Na17 O50 2.413585 1_555
Na17 O49 2.453717 1_555
Na17 O54 2.517197 1_555
Na17 O48 2.527285 1_555
Na17 O56 2.583803 1_555
Na17 O55 2.597031 1_555
Na18 O52 2.431979 1_555
Na18 O51 2.498473 1_555
Na18 O57 2.523514 1_555
Na18 O59 2.529439 1_555
Na18 O53 2.532778 1_555
Na18 O58 2.602707 1_555
Na19 O60 2.529248 1_555
Na19 O62 2.538311 1_555
Na19 O61 2.555264 1_555
Na19 O68 2.563007 1_555
Na19 O67 2.564084 1_555
Na19 O66 2.580435 1_555
Na20 O63 2.374897 1_555
Na20 O65 2.390229 1_555
Na20 O64 2.410277 1_555
Na20 O70 2.723967 1_555
Na20 O71 2.730797 1_555
Na20 O69 2.733972 1_555
O0 P0 1.529949 1_555
O0 Zn0 2.019802 1_445
O1 P1 1.518807 1_555
O1 Zn0 2.007216 1_555
O2 P2 1.523089 1_555
O2 Zn0 2.023363 1_545
O3 P3 1.544657 1_555
O3 Zn1 2.020425 1_445
O4 P4 1.537326 1_555
O4 Zn1 2.010796 1_555
O5 P5 1.541587 1_545
O5 Zn1 2.008969 1_545
O6 P5 1.518144 1_555
O6 Zn2 2.074973 1_665
O7 P3 1.533655 1_555
O7 Zn2 2.063202 1_555
O8 P4 1.529401 1_455
O8 Zn2 2.092687 1_565
O9 P1 1.546422 1_555
O9 Zn3 2.020037 1_665
O10 P2 1.557379 1_455
O10 Zn3 2.002838 1_555
O11 P0 1.547584 1_565
O11 Zn3 2.001747 1_565
O12 P6 1.552411 1_555
O12 Zn4 2.022182 1_555
O13 P7 1.551046 1_555
O13 Zn4 2.036969 1_555
O14 S0 1.478539 1_555
O14 Zn4 2.063034 1_555
O15 S1 1.469621 1_555
O15 Zn5 2.116172 1_555
O16 S2 1.467846 1_555
O16 Zn5 2.166321 1_555
O17 P8 1.540087 1_555
O17 Zn5 2.086087 1_555
O18 P8 1.564438 1_555
O18 Zn6 2.001165 1_554
O19 S1 1.501518 1_555
O19 Zn6 2.138763 1_554
O20 S2 1.504399 1_555
O20 Zn6 2.116222 1_554
O21 P7 1.554066 1_555
O21 Zn7 2.010828 1_555
O22 S0 1.494488 1_555
O22 Zn7 2.177063 1_555
O23 P6 1.552566 1_555
O23 Zn7 2.021191 1_555
O24 P9 1.531018 1_555
O24 Zn8 1.990601 1_556
O25 P10 1.530403 1_555
O25 Zn8 1.988225 1_556
O26 P11 1.531695 1_555
O26 Zn8 2.026809 1_556
O27 P12 1.532261 1_555
O27 Zn9 2.023894 1_555
O28 P13 1.532490 1_555
O28 Zn9 2.027187 1_555
O29 P14 1.532366 1_555
O29 Zn9 1.994463 1_555
O30 P14 1.598554 1_555
O30 Ta0 1.965112 1_555
O31 P12 1.597462 1_555
O31 Ta0 1.959910 1_555
O32 P13 1.600808 1_555
O32 Ta0 1.998747 1_555
O33 P10 1.599563 1_555
O33 Ta1 1.992585 1_555
O34 P11 1.601180 1_555
O34 Ta1 1.988907 1_555
O35 P9 1.598622 1_555
O35 Ta1 1.960334 1_555
O36 P14 1.537156 1_555
O36 Zn0 2.193260 1_455
O37 P12 1.537571 1_555
O37 Zn0 2.182756 1_555
O38 P13 1.539683 1_555
O38 Zn0 2.260729 1_445
O39 P10 1.540217 1_555
O39 Zn1 2.248022 1_445
O40 P11 1.541399 1_555
O40 Zn1 2.233335 1_455
O41 P9 1.539042 1_555
O41 Zn1 2.167712 1_555
O42 P6 1.562909 1_555
O42 Zn2 2.163047 1_655
O43 P7 1.563961 1_555
O43 Zn2 2.146341 1_555
O44 S0 1.494029 1_555
O44 Zn2 2.309221 1_665
O45 S1 1.495187 1_555
O45 Zn3 2.455894 1_665
O46 S2 1.496715 1_555
O46 Zn3 2.425857 1_655
O47 P8 1.567168 1_555
O47 Zn3 2.274915 1_555
O48 P5 1.548342 1_545
O48 Zn4 2.198100 1_555
O49 P3 1.528532 1_555
O49 Zn4 2.162506 1_555
O50 P4 1.528412 1_555
O50 Zn4 2.214748 1_555
O51 P1 1.540339 1_555
O51 Zn5 2.099276 1_555
O52 P2 1.523083 1_555
O52 Zn5 2.067637 1_555
O53 P0 1.536316 1_555
O53 Zn5 2.073151 1_555
O54 P9 1.543483 1_555
O54 Zn6 2.192008 1_555
O55 P10 1.545789 1_655
O55 Zn6 2.216865 1_555
O56 P11 1.546357 1_545
O56 Zn6 2.202908 1_555
O57 P12 1.547764 1_545
O57 Zn7 2.198371 1_555
O58 P13 1.548400 1_555
O58 Zn7 2.247779 1_555
O59 P14 1.546295 1_655
O59 Zn7 2.228517 1_555
O60 P8 1.574943 1_555
O60 Zn8 2.139436 1_555
O61 S1 1.503478 1_455
O61 Zn8 2.269314 1_555
O62 S2 1.503396 1_565
O62 Zn8 2.301689 1_555
O63 P7 1.562364 1_565
O63 Zn9 2.195852 1_555
O64 S0 1.494926 1_555
O64 Zn9 2.309303 1_555
O65 P6 1.563780 1_455
O65 Zn9 2.154748 1_555
O66 P0 1.596216 1_565
O66 Ta0 1.972991 1_555
O67 P1 1.626713 1_555
O67 Ta0 2.006094 1_555
O68 P2 1.625888 1_455
O68 Ta0 2.008404 1_555
O69 P3 1.611733 1_555
O69 Ta1 1.979407 1_555
O70 P4 1.647623 1_455
O70 Ta1 2.004897 1_555
O71 P5 1.613736 1_555
O71 Ta1 1.977433 1_555
