# generated using pymatgen
data_Na3Mg2Ge2P3(SO8)3
_symmetry_space_group_name_H-M   'P 1'
_cell_length_a   8.56967710
_cell_length_b   8.54884932
_cell_length_c   21.99467160
_cell_angle_alpha   90.25020149
_cell_angle_beta   89.68802441
_cell_angle_gamma   120.08279589
_symmetry_Int_Tables_number   1
_chemical_formula_structural   Na3Mg2Ge2P3(SO8)3
_chemical_formula_sum   'Na9 Mg6 Ge6 P9 S9 O72'
_cell_volume   1394.28026156
_cell_formula_units_Z   3
loop_
 _symmetry_equiv_pos_site_id
 _symmetry_equiv_pos_as_xyz
  1  'x, y, z'
loop_
 _atom_site_type_symbol
 _atom_site_label
 _atom_site_symmetry_multiplicity
 _atom_site_fract_x
 _atom_site_fract_y
 _atom_site_fract_z
 _atom_site_occupancy
  Na  Na0  1  0.66142320  0.68860358  0.08302092  1
  Na  Na1  1  0.33289800  0.29768596  0.91719088  1
  Na  Na2  1  0.33314139  0.03517780  0.41725158  1
  Na  Na3  1  0.99234539  0.00014438  0.50183996  1
  Na  Na4  1  0.00489112  0.99698146  0.00133789  1
  Na  Na5  1  0.68131110  0.33482343  0.83074588  1
  Na  Na6  1  0.68079664  0.34487581  0.33051715  1
  Na  Na7  1  0.31461226  0.65859209  0.16519843  1
  Na  Na8  1  0.33425868  0.67376079  0.66443431  1
  Mg  Mg0  1  0.99766045  0.00227111  0.34748497  1
  Mg  Mg1  1  0.99479137  0.99393222  0.84699599  1
  Mg  Mg2  1  0.67179882  0.33933587  0.98370254  1
  Mg  Mg3  1  0.66600817  0.33386613  0.48330513  1
  Mg  Mg4  1  0.32092874  0.66128056  0.02389313  1
  Mg  Mg5  1  0.33363986  0.67141933  0.52412050  1
  Ge  Ge0  1  0.00845076  0.00042992  0.65413224  1
  Ge  Ge1  1  0.01320388  0.00196765  0.15424346  1
  Ge  Ge2  1  0.66060839  0.32563995  0.68699035  1
  Ge  Ge3  1  0.66884495  0.33985089  0.18679647  1
  Ge  Ge4  1  0.33251335  0.66278891  0.30789276  1
  Ge  Ge5  1  0.33294732  0.67030451  0.80752573  1
  P  P0  1  0.30038275  0.00309501  0.25222333  1
  P  P1  1  0.70819221  0.70782375  0.24994435  1
  P  P2  1  0.99547623  0.29052135  0.24977996  1
  P  P3  1  0.29605076  0.29505985  0.75177203  1
  P  P4  1  0.99564620  0.70155202  0.74956603  1
  P  P5  1  0.71075142  0.00163239  0.74932251  1
  P  P6  1  0.36829180  0.04409823  0.58502831  1
  P  P7  1  0.95725918  0.62896608  0.08719449  1
  P  P8  1  0.36890733  0.32205486  0.08456102  1
  S  S0  1  0.95454679  0.32542396  0.58611742  1
  S  S1  1  0.67390224  0.62888316  0.58637779  1
  S  S2  1  0.67375342  0.04800110  0.08530858  1
  S  S3  1  0.62331745  0.67189529  0.91614405  1
  S  S4  1  0.04288018  0.37937490  0.91440961  1
  S  S5  1  0.33385902  0.95178261  0.91518243  1
  S  S6  1  0.62340937  0.95165308  0.41584211  1
  S  S7  1  0.33308691  0.38318268  0.41588604  1
  S  S8  1  0.04345891  0.66267000  0.41528506  1
  O  O0  1  0.23076047  0.03930697  0.31054714  1
  O  O1  1  0.82014330  0.78450515  0.30533611  1
  O  O2  1  0.96127805  0.18374539  0.30663590  1
  O  O3  1  0.22665580  0.19012144  0.81005522  1
  O  O4  1  0.95780655  0.77323039  0.80631807  1
  O  O5  1  0.81864637  0.03857453  0.80593971  1
  O  O6  1  0.79388924  0.96152346  0.69177797  1
  O  O7  1  0.17040205  0.21034030  0.69559984  1
  O  O8  1  0.03894168  0.82461355  0.69224482  1
  O  O9  1  0.78770402  0.82557790  0.19082881  1
  O  O10  1  0.03625522  0.20788923  0.19216567  1
  O  O11  1  0.17433558  0.95973361  0.19605992  1
  O  O12  1  0.87261510  0.36085306  0.64132918  1
  O  O13  1  0.49538121  0.14004537  0.64043254  1
  O  O14  1  0.64579339  0.51589730  0.64173031  1
  O  O15  1  0.86817276  0.50611220  0.14373376  1
  O  O16  1  0.64124764  0.12765652  0.14104886  1
  O  O17  1  0.50040408  0.35994638  0.13912879  1
  O  O18  1  0.43745216  0.28686971  0.02463112  1
  O  O19  1  0.83773042  0.55780576  0.03111480  1
  O  O20  1  0.70261465  0.15418046  0.03060288  1
  O  O21  1  0.43925817  0.14951109  0.52561800  1
  O  O22  1  0.70676622  0.55286537  0.53127272  1
  O  O23  1  0.84731610  0.29633565  0.53122097  1
  O  O24  1  0.53937119  0.68935983  0.97227133  1
  O  O25  1  0.15710242  0.46256469  0.96766809  1
  O  O26  1  0.31321801  0.84552735  0.96862267  1
  O  O27  1  0.53723068  0.84616410  0.46995167  1
  O  O28  1  0.31226344  0.46836618  0.46954462  1
  O  O29  1  0.15679525  0.69285354  0.46835396  1
  O  O30  1  0.12603653  0.63412734  0.35764431  1
  O  O31  1  0.50304821  0.87028885  0.35950769  1
  O  O32  1  0.36148598  0.49210233  0.35798383  1
  O  O33  1  0.12647198  0.49124238  0.85729077  1
  O  O34  1  0.36170822  0.87038612  0.85707540  1
  O  O35  1  0.50090281  0.63525281  0.86104196  1
  O  O36  1  0.02869427  0.82772616  0.40950416  1
  O  O37  1  0.80091979  0.96854112  0.40941947  1
  O  O38  1  0.17193720  0.19968882  0.41084599  1
  O  O39  1  0.02822720  0.19958852  0.90868591  1
  O  O40  1  0.17240297  0.97268117  0.91028211  1
  O  O41  1  0.80034213  0.83344279  0.90999145  1
  O  O42  1  0.96343540  0.15508387  0.59370771  1
  O  O43  1  0.17992687  0.03439946  0.59490024  1
  O  O44  1  0.84093213  0.81219954  0.59327161  1
  O  O45  1  0.96680842  0.81818336  0.09669858  1
  O  O46  1  0.83796443  0.02842156  0.09178242  1
  O  O47  1  0.18008503  0.15113140  0.09517296  1
  O  O48  1  0.68548991  0.16824257  0.73921713  1
  O  O49  1  0.48661894  0.31956913  0.74053646  1
  O  O50  1  0.82983699  0.51058900  0.73785653  1
  O  O51  1  0.68123185  0.51466322  0.24108009  1
  O  O52  1  0.82894962  0.31374957  0.23928345  1
  O  O53  1  0.48907160  0.16917685  0.23965119  1
  O  O54  1  0.63731455  0.50492283  0.91768050  1
  O  O55  1  0.86420057  0.36244148  0.91933664  1
  O  O56  1  0.49683001  0.13537585  0.91721993  1
  O  O57  1  0.63879484  0.13359901  0.41896052  1
  O  O58  1  0.49618345  0.36261233  0.41772893  1
  O  O59  1  0.86386286  0.50005038  0.41994435  1
  O  O60  1  0.35575838  0.49454034  0.08223809  1
  O  O61  1  0.14474302  0.65571429  0.08288802  1
  O  O62  1  0.51585863  0.86328374  0.08101088  1
  O  O63  1  0.34460022  0.85571432  0.58353597  1
  O  O64  1  0.51384964  0.64780721  0.58228333  1
  O  O65  1  0.13658463  0.48175459  0.58188710  1
  O  O66  1  0.31925230  0.83021263  0.25619827  1
  O  O67  1  0.51476706  0.68551845  0.25463161  1
  O  O68  1  0.16830551  0.48463693  0.25412977  1
  O  O69  1  0.31780848  0.48818215  0.75576313  1
  O  O70  1  0.16796163  0.68135699  0.75438073  1
  O  O71  1  0.51633153  0.83028637  0.75406696  1
loop_
_geom_bond_atom_site_label_1
_geom_bond_atom_site_label_2
_geom_bond_distance
_geom_bond_site_symmetry_2
Na0 O60 2.292990 1_555
Na0 O45 2.294764 1_555
Na0 O62 2.378384 1_555
Na0 O46 2.521422 1_565
Na0 O19 2.549555 1_555
Na0 O9 2.626443 1_555
Na0 O24 2.657503 1_554
Na0 O17 2.728765 1_555
Na1 O54 2.304607 1_555
Na1 O39 2.316058 1_555
Na1 O40 2.408736 1_545
Na1 O56 2.419324 1_555
Na1 O3 2.528306 1_555
Na1 O18 2.550232 1_556
Na1 O25 2.754240 1_555
Na1 O35 2.787914 1_555
Na2 O36 2.311884 1_545
Na2 O57 2.315543 1_555
Na2 O38 2.420287 1_555
Na2 O58 2.422153 1_555
Na2 O0 2.516605 1_555
Na2 O21 2.564275 1_555
Na2 O29 2.772726 1_545
Na2 O31 2.782434 1_545
Na3 O42 2.489740 1_555
Na3 O44 2.493818 1_545
Na3 O43 2.533385 1_655
Na3 O37 2.546252 1_545
Na3 O38 2.578466 1_655
Na3 O36 2.611788 1_645
Na4 O47 2.505352 1_565
Na4 O45 2.522406 1_455
Na4 O40 2.525643 1_554
Na4 O46 2.534894 1_465
Na4 O41 2.573117 1_454
Na4 O39 2.621448 1_564
Na5 O55 2.442786 1_555
Na5 O48 2.471300 1_555
Na5 O50 2.476524 1_555
Na5 O56 2.513424 1_555
Na5 O54 2.535813 1_555
Na5 O49 2.559913 1_555
Na6 O51 2.448651 1_555
Na6 O59 2.452390 1_555
Na6 O52 2.452690 1_555
Na6 O58 2.531861 1_555
Na6 O53 2.546640 1_555
Na6 O57 2.558762 1_555
Na7 O61 2.321564 1_555
Na7 O68 2.395624 1_555
Na7 O60 2.426332 1_555
Na7 O66 2.465140 1_555
Na7 O62 2.536373 1_555
Na7 O67 2.549779 1_555
Na8 O63 2.340447 1_555
Na8 O64 2.447699 1_555
Na8 O70 2.451520 1_555
Na8 O71 2.455412 1_555
Na8 O65 2.465819 1_555
Na8 O69 2.524363 1_555
Mg0 O1 1.949498 1_545
Mg0 O2 1.952284 1_555
Mg0 O0 2.025141 1_655
Mg0 O37 2.066994 1_545
Mg0 O38 2.120431 1_655
Mg0 O36 2.139526 1_645
Mg1 O5 1.958337 1_565
Mg1 O4 1.962040 1_555
Mg1 O3 2.018591 1_665
Mg1 O41 2.068438 1_555
Mg1 O39 2.119557 1_665
Mg1 O40 2.142370 1_655
Mg2 O19 1.983528 1_556
Mg2 O20 2.018810 1_556
Mg2 O18 2.031144 1_556
Mg2 O55 2.100565 1_555
Mg2 O54 2.154504 1_555
Mg2 O56 2.192567 1_555
Mg3 O21 2.012179 1_555
Mg3 O22 2.017769 1_555
Mg3 O23 2.036741 1_555
Mg3 O59 2.100487 1_555
Mg3 O57 2.137892 1_555
Mg3 O58 2.154813 1_555
Mg4 O61 1.967943 1_555
Mg4 O25 1.998959 1_554
Mg4 O26 2.021152 1_554
Mg4 O60 2.052910 1_555
Mg4 O24 2.092804 1_554
Mg4 O62 2.112553 1_555
Mg5 O63 2.008443 1_555
Mg5 O27 2.018703 1_555
Mg5 O29 2.033564 1_555
Mg5 O28 2.037921 1_555
Mg5 O65 2.084395 1_555
Mg5 O64 2.097273 1_555
Ge0 O8 1.853963 1_545
Ge0 O7 1.865741 1_555
Ge0 O43 1.869666 1_555
Ge0 O6 1.884104 1_445
Ge0 O44 2.031848 1_445
Ge0 O42 2.048248 1_455
Ge1 O11 1.843788 1_545
Ge1 O10 1.863881 1_555
Ge1 O47 1.877591 1_555
Ge1 O45 1.894834 1_445
Ge1 O9 1.930836 1_445
Ge1 O46 2.135272 1_455
Ge2 O13 1.822169 1_555
Ge2 O48 1.865301 1_555
Ge2 O49 1.875301 1_555
Ge2 O50 1.886334 1_555
Ge2 O12 1.958211 1_555
Ge2 O14 1.968520 1_555
Ge3 O15 1.842643 1_555
Ge3 O17 1.865216 1_555
Ge3 O51 1.870003 1_555
Ge3 O52 1.895108 1_555
Ge3 O53 1.896215 1_555
Ge3 O16 1.978787 1_555
Ge4 O67 1.878108 1_555
Ge4 O66 1.879611 1_555
Ge4 O68 1.884652 1_555
Ge4 O32 1.945476 1_555
Ge4 O30 1.983682 1_555
Ge4 O31 1.993196 1_555
Ge5 O69 1.876353 1_555
Ge5 O70 1.878084 1_555
Ge5 O71 1.887320 1_555
Ge5 O34 1.933438 1_555
Ge5 O33 1.987559 1_555
Ge5 O35 2.000212 1_555
O0 P0 1.506912 1_555
O1 P1 1.486515 1_555
O2 P2 1.490210 1_555
O3 P3 1.506213 1_555
O4 P4 1.492267 1_555
O5 P5 1.490553 1_555
O6 P5 1.567928 1_565
O7 P3 1.560537 1_555
O8 P4 1.564972 1_455
O9 P1 1.575560 1_555
O10 P2 1.569011 1_455
O11 P0 1.561819 1_565
O12 S0 1.503361 1_555
O13 P6 1.566556 1_555
O14 S1 1.499007 1_555
O15 P7 1.558713 1_555
O16 S2 1.491145 1_555
O17 P8 1.568652 1_555
O18 P8 1.529133 1_555
O19 P7 1.524216 1_555
O20 S2 1.454000 1_555
O21 P6 1.530244 1_555
O22 S1 1.464075 1_555
O23 S0 1.464424 1_555
O24 S3 1.469763 1_555
O25 S4 1.464048 1_555
O26 S5 1.443591 1_555
O27 S6 1.451618 1_555
O28 S7 1.440662 1_555
O29 S8 1.459734 1_555
O30 S8 1.525861 1_555
O31 S6 1.539522 1_555
O32 S7 1.525763 1_555
O33 S4 1.523143 1_555
O34 S5 1.526419 1_555
O35 S3 1.532501 1_555
O36 S8 1.484566 1_555
O37 S6 1.460321 1_555
O38 S7 1.486121 1_555
O39 S4 1.482863 1_555
O40 S5 1.485788 1_555
O41 S3 1.458105 1_555
O42 S0 1.505885 1_555
O43 P6 1.588053 1_555
O44 S1 1.509733 1_555
O45 P7 1.591075 1_555
O46 S2 1.505699 1_555
O47 P8 1.560927 1_555
O48 P5 1.561208 1_555
O49 P3 1.557252 1_555
O50 P4 1.557337 1_555
O51 P1 1.559933 1_555
O52 P2 1.554788 1_555
O53 P0 1.550483 1_555
O54 S3 1.491703 1_555
O55 S4 1.467470 1_655
O56 S5 1.489456 1_545
O57 S6 1.494998 1_545
O58 S7 1.494380 1_555
O59 S8 1.471898 1_655
O60 P8 1.535221 1_555
O61 P7 1.507610 1_455
O62 S2 1.480365 1_565
O63 P6 1.519118 1_565
O64 S1 1.462700 1_555
O65 S0 1.462118 1_455
O66 P0 1.568116 1_565
O67 P1 1.573544 1_555
O68 P2 1.578859 1_455
O69 P3 1.567958 1_555
O70 P4 1.574506 1_455
O71 P5 1.576481 1_565
