# generated using pymatgen
data_MgTa2(FeO4)2
_symmetry_space_group_name_H-M   'P 1'
_cell_length_a   6.10014127
_cell_length_b   6.35263584
_cell_length_c   6.10749182
_cell_angle_alpha   86.54752297
_cell_angle_beta   113.93359575
_cell_angle_gamma   59.29148599
_symmetry_Int_Tables_number   1
_chemical_formula_structural   MgTa2(FeO4)2
_chemical_formula_sum   'Mg1 Ta2 Fe2 O8'
_cell_volume   174.89530666
_cell_formula_units_Z   1
loop_
 _symmetry_equiv_pos_site_id
 _symmetry_equiv_pos_as_xyz
  1  'x, y, z'
loop_
 _atom_site_type_symbol
 _atom_site_label
 _atom_site_symmetry_multiplicity
 _atom_site_fract_x
 _atom_site_fract_y
 _atom_site_fract_z
 _atom_site_occupancy
  Mg  Mg0  1  0.24752420  0.55564663  0.19825757  1
  Ta  Ta0  1  0.27222601  0.20639587  0.52103984  1
  Ta  Ta1  1  0.99790733  0.07684404  0.92411496  1
  Fe  Fe0  1  0.74165146  0.75350374  0.50496200  1
  Fe  Fe1  1  0.51511078  0.57053320  0.91425920  1
  O  O0  1  0.57823747  0.23606546  0.80521113  1
  O  O1  1  0.03649923  0.76885998  0.82701861  1
  O  O2  1  0.46960660  0.84009629  0.68893213  1
  O  O3  1  0.01266622  0.28172311  0.70401282  1
  O  O4  1  0.03512821  0.58633343  0.37831494  1
  O  O5  1  0.47959932  0.17707553  0.34641185  1
  O  O6  1  0.95981031  0.23649979  0.18433043  1
  O  O7  1  0.40403287  0.76994793  0.19360952  1
loop_
_geom_bond_atom_site_label_1
_geom_bond_atom_site_label_2
_geom_bond_distance
_geom_bond_site_symmetry_2
Mg0 O5 1.956497 1_555
Mg0 O4 1.962123 1_555
Mg0 O7 2.027430 1_555
Mg0 O1 2.028232 1_554
Fe0 O4 2.052258 1_655
Fe0 O1 2.108401 1_655
Fe0 O7 2.108873 1_555
Fe0 O5 2.184150 1_565
Fe0 O2 2.230246 1_555
Fe0 O3 2.462384 1_655
Fe1 O2 1.955533 1_555
Fe1 O0 2.156221 1_555
Fe1 O6 2.156671 1_556
Fe1 O1 2.301169 1_555
Fe1 O7 2.301392 1_556
O0 Ta1 1.965383 1_555
O0 Ta0 2.074238 1_555
O1 Ta1 2.004397 1_465
O2 Ta0 1.940432 1_565
O3 Ta1 1.875175 1_455
O3 Ta0 2.170481 1_555
O4 Ta0 1.958448 1_555
O5 Ta0 1.910597 1_555
O6 Ta1 1.965072 1_554
O6 Ta0 2.073195 1_655
O7 Ta1 2.004913 1_464
