# generated using pymatgen
data_DyBH4
_symmetry_space_group_name_H-M   'P 1'
_cell_length_a   4.06215626
_cell_length_b   5.68412716
_cell_length_c   6.91125036
_cell_angle_alpha   114.28180440
_cell_angle_beta   107.09850007
_cell_angle_gamma   90.00169402
_symmetry_Int_Tables_number   1
_chemical_formula_structural   DyBH4
_chemical_formula_sum   'Dy3 B3 H12'
_cell_volume   137.68684546
_cell_formula_units_Z   3
loop_
 _symmetry_equiv_pos_site_id
 _symmetry_equiv_pos_as_xyz
  1  'x, y, z'
loop_
 _atom_site_type_symbol
 _atom_site_label
 _atom_site_symmetry_multiplicity
 _atom_site_fract_x
 _atom_site_fract_y
 _atom_site_fract_z
 _atom_site_occupancy
  Dy  Dy0  1  0.00005300  0.54449900  0.00003200  1
  Dy  Dy1  1  0.33544300  0.88893900  0.67137800  1
  Dy  Dy2  1  0.66448400  0.21750700  0.32857800  1
  B  B0  1  0.99997900  0.05449300  0.00000900  1
  B  B1  1  0.33468700  0.38612400  0.66914500  1
  B  B2  1  0.66537500  0.71696300  0.33086300  1
  H  H0  1  0.90958500  0.09274800  0.81921600  1
  H  H1  1  0.09037600  0.27352100  0.18078300  1
  H  H2  1  0.74803300  0.92058900  0.00014200  1
  H  H3  1  0.25191300  0.92044100  0.99983800  1
  H  H4  1  0.08247500  0.51641200  0.67187800  1
  H  H5  1  0.91757100  0.84455300  0.32813200  1
  H  H6  1  0.41935100  0.33532200  0.83845200  1
  H  H7  1  0.58065900  0.49686900  0.16154900  1
  H  H8  1  0.58986900  0.51640100  0.67202900  1
  H  H9  1  0.41015400  0.84436400  0.32797400  1
  H  H10  1  0.24304200  0.17830400  0.48594700  1
  H  H11  1  0.75695000  0.69235100  0.51405700  1
loop_
_geom_bond_atom_site_label_1
_geom_bond_atom_site_label_2
_geom_bond_distance
_geom_bond_site_symmetry_2
Dy0 H1 2.319616 1_555
Dy0 H0 2.319719 1_454
Dy0 H9 2.328030 1_555
Dy0 H8 2.328481 1_454
Dy0 H5 2.330038 1_455
Dy0 H4 2.330221 1_554
Dy0 H7 2.362714 1_555
Dy0 H6 2.363045 1_454
Dy0 H6 2.363979 1_554
Dy0 H7 2.364024 1_455
Dy0 H3 2.369833 1_554
Dy0 H2 2.370074 1_455
Dy1 H6 2.290475 1_565
Dy1 H3 2.327883 1_555
Dy1 H2 2.329933 1_556
Dy1 H0 2.333358 1_465
Dy1 H0 2.334634 1_565
Dy1 H11 2.334772 1_455
Dy1 H11 2.336269 1_555
Dy1 H4 2.355358 1_555
Dy1 H8 2.357423 1_555
Dy1 H5 2.390079 1_455
Dy1 H9 2.391251 1_555
Dy1 H10 2.437093 1_565
Dy2 H7 2.290537 1_555
Dy2 H2 2.327727 1_545
Dy2 H3 2.329698 1_544
Dy2 H1 2.333313 1_655
Dy2 H1 2.334577 1_555
Dy2 H10 2.335008 1_655
Dy2 H10 2.336146 1_555
Dy2 H5 2.355340 1_545
Dy2 H9 2.357124 1_545
Dy2 H4 2.390509 1_655
Dy2 H8 2.391441 1_555
Dy2 H11 2.437319 1_555
B0 H2 1.275867 1_545
B0 H3 1.275912 1_644
B0 H1 1.302566 1_655
B0 H0 1.302708 1_554
B1 H4 1.264269 1_555
B1 H8 1.264491 1_555
B1 H6 1.269692 1_555
B1 H10 1.276633 1_555
B2 H5 1.264290 1_555
B2 H9 1.264682 1_555
B2 H7 1.269646 1_555
B2 H11 1.276592 1_555
