# generated using pymatgen
data_Na9Ta5Zn(SiO4)9
_symmetry_space_group_name_H-M   'P 1'
_cell_length_a   15.77675281
_cell_length_b   27.16791264
_cell_length_c   9.05996202
_cell_angle_alpha   89.76731636
_cell_angle_beta   125.05930027
_cell_angle_gamma   90.18975727
_symmetry_Int_Tables_number   1
_chemical_formula_structural   Na9Ta5Zn(SiO4)9
_chemical_formula_sum   'Na36 Ta20 Zn4 Si36 O144'
_cell_volume   3178.67272744
_cell_formula_units_Z   4
loop_
 _symmetry_equiv_pos_site_id
 _symmetry_equiv_pos_as_xyz
  1  'x, y, z'
loop_
 _atom_site_type_symbol
 _atom_site_label
 _atom_site_symmetry_multiplicity
 _atom_site_fract_x
 _atom_site_fract_y
 _atom_site_fract_z
 _atom_site_occupancy
  Na  Na0  1  0.25635820  0.25387982  0.01788233  1
  Na  Na1  1  0.25988556  0.58880610  0.02140632  1
  Na  Na2  1  0.24724949  0.91473126  0.99780925  1
  Na  Na3  1  0.74820975  0.25572267  0.50280691  1
  Na  Na4  1  0.74231627  0.57705929  0.49720412  1
  Na  Na5  1  0.75155523  0.91450734  0.50669635  1
  Na  Na6  1  0.75988556  0.08880610  0.02140632  1
  Na  Na7  1  0.74724949  0.41473126  0.99780925  1
  Na  Na8  1  0.75635820  0.75387982  0.01788233  1
  Na  Na9  1  0.24231627  0.07705929  0.49720412  1
  Na  Na10  1  0.25155523  0.41450734  0.50669635  1
  Na  Na11  1  0.24820975  0.75572267  0.50280691  1
  Na  Na12  1  0.50275439  0.03636366  0.75528575  1
  Na  Na13  1  0.48847565  0.36168589  0.71956178  1
  Na  Na14  1  0.48871395  0.69662927  0.72528782  1
  Na  Na15  1  0.49818849  0.29042838  0.26711846  1
  Na  Na16  1  0.49835600  0.62560579  0.27225177  1
  Na  Na17  1  0.49894499  0.96520931  0.25203794  1
  Na  Na18  1  0.98871395  0.19662927  0.72528782  1
  Na  Na19  1  0.00275439  0.53636366  0.75528575  1
  Na  Na20  1  0.98847565  0.86168589  0.71956178  1
  Na  Na21  1  0.99835600  0.12560579  0.27225177  1
  Na  Na22  1  0.99894499  0.46520931  0.25203794  1
  Na  Na23  1  0.99818849  0.79042838  0.26711846  1
  Na  Na24  1  0.80996821  0.65290596  0.24124474  1
  Na  Na25  1  0.81863506  0.98533260  0.24952465  1
  Na  Na26  1  0.20541121  0.30659535  0.29114417  1
  Na  Na27  1  0.20795552  0.64334741  0.28640938  1
  Na  Na28  1  0.81666067  0.02591456  0.68417776  1
  Na  Na29  1  0.81327350  0.69189348  0.68082314  1
  Na  Na30  1  0.30996821  0.15290596  0.24124474  1
  Na  Na31  1  0.31863506  0.48533260  0.24952465  1
  Na  Na32  1  0.70795552  0.14334741  0.28640938  1
  Na  Na33  1  0.70541121  0.80659535  0.29114417  1
  Na  Na34  1  0.31327350  0.19189348  0.68082314  1
  Na  Na35  1  0.31666067  0.52591456  0.68417776  1
  Ta  Ta0  1  0.10731735  0.25037681  0.57453270  1
  Ta  Ta1  1  0.10797028  0.58446671  0.57227306  1
  Ta  Ta2  1  0.10807228  0.91718327  0.57028565  1
  Ta  Ta3  1  0.89006186  0.25188329  0.93236038  1
  Ta  Ta4  1  0.89344691  0.58199602  0.93295408  1
  Ta  Ta5  1  0.89678756  0.91752488  0.93558921  1
  Ta  Ta6  1  0.89178373  0.41517282  0.43186325  1
  Ta  Ta7  1  0.10261904  0.08138007  0.05948023  1
  Ta  Ta8  1  0.10601234  0.41550659  0.06810646  1
  Ta  Ta9  1  0.10736761  0.75051511  0.06193129  1
  Ta  Ta10  1  0.60797028  0.08446671  0.57227306  1
  Ta  Ta11  1  0.60807228  0.41718327  0.57028565  1
  Ta  Ta12  1  0.60731735  0.75037681  0.57453270  1
  Ta  Ta13  1  0.39344691  0.08199602  0.93295408  1
  Ta  Ta14  1  0.39678756  0.41752488  0.93558921  1
  Ta  Ta15  1  0.39006186  0.75188329  0.93236038  1
  Ta  Ta16  1  0.39178373  0.91517282  0.43186325  1
  Ta  Ta17  1  0.60736761  0.25051511  0.06193129  1
  Ta  Ta18  1  0.60261904  0.58138007  0.05948023  1
  Ta  Ta19  1  0.60601234  0.91550659  0.06810646  1
  Zn  Zn0  1  0.90299699  0.08267283  0.44594947  1
  Zn  Zn1  1  0.90183550  0.74891452  0.44610033  1
  Zn  Zn2  1  0.40183550  0.24891452  0.44610033  1
  Zn  Zn3  1  0.40299699  0.58267283  0.44594947  1
  Si  Si0  1  0.00065659  0.31937583  0.75179077  1
  Si  Si1  1  0.00086551  0.65285580  0.74542724  1
  Si  Si2  1  0.99842335  0.98546672  0.73690931  1
  Si  Si3  1  0.00288275  0.01375376  0.24842513  1
  Si  Si4  1  0.00077863  0.34629803  0.25178030  1
  Si  Si5  1  0.00253586  0.67958520  0.24765183  1
  Si  Si6  1  0.50086551  0.15285580  0.74542724  1
  Si  Si7  1  0.49842335  0.48546672  0.73690931  1
  Si  Si8  1  0.50065659  0.81937583  0.75179077  1
  Si  Si9  1  0.50253586  0.17958520  0.24765183  1
  Si  Si10  1  0.50288275  0.51375376  0.24842513  1
  Si  Si11  1  0.50077863  0.84629803  0.25178030  1
  Si  Si12  1  0.35436277  0.29804596  0.75353253  1
  Si  Si13  1  0.35223287  0.63206368  0.74904400  1
  Si  Si14  1  0.35517091  0.96351771  0.75325147  1
  Si  Si15  1  0.64264266  0.29802880  0.73483869  1
  Si  Si16  1  0.64588402  0.63074396  0.74376963  1
  Si  Si17  1  0.64562557  0.96346801  0.74501955  1
  Si  Si18  1  0.64367977  0.03388502  0.24556214  1
  Si  Si19  1  0.64320756  0.36826368  0.24733716  1
  Si  Si20  1  0.63973260  0.70093443  0.24164424  1
  Si  Si21  1  0.35434610  0.03588238  0.25530432  1
  Si  Si22  1  0.35596420  0.36975560  0.25533516  1
  Si  Si23  1  0.35493843  0.70445366  0.25621537  1
  Si  Si24  1  0.85223287  0.13206368  0.74904400  1
  Si  Si25  1  0.85517091  0.46351771  0.75325147  1
  Si  Si26  1  0.85436277  0.79804596  0.75353253  1
  Si  Si27  1  0.14588402  0.13074396  0.74376963  1
  Si  Si28  1  0.14562557  0.46346801  0.74501955  1
  Si  Si29  1  0.14264266  0.79802880  0.73483869  1
  Si  Si30  1  0.13973260  0.20093443  0.24164424  1
  Si  Si31  1  0.14367977  0.53388502  0.24556214  1
  Si  Si32  1  0.14320756  0.86826368  0.24733716  1
  Si  Si33  1  0.85493843  0.20445366  0.25621537  1
  Si  Si34  1  0.85434610  0.53588238  0.25530432  1
  Si  Si35  1  0.85596420  0.86975560  0.25533516  1
  O  O0  1  0.15241453  0.19204558  0.74323381  1
  O  O1  1  0.14707198  0.52385890  0.73561761  1
  O  O2  1  0.14864160  0.85908139  0.74137247  1
  O  O3  1  0.84638996  0.19147993  0.77174751  1
  O  O4  1  0.84903102  0.52376648  0.75794037  1
  O  O5  1  0.84875671  0.85766512  0.77612621  1
  O  O6  1  0.84430738  0.14565951  0.24809682  1
  O  O7  1  0.85097932  0.47557302  0.26486990  1
  O  O8  1  0.84204109  0.81133143  0.24356381  1
  O  O9  1  0.14403310  0.14015945  0.23606528  1
  O  O10  1  0.15037055  0.47274891  0.24594297  1
  O  O11  1  0.14491518  0.80806436  0.23513599  1
  O  O12  1  0.64707198  0.02385890  0.73561761  1
  O  O13  1  0.64864160  0.35908139  0.74137247  1
  O  O14  1  0.65241453  0.69204558  0.74323381  1
  O  O15  1  0.34903102  0.02376648  0.75794037  1
  O  O16  1  0.34875671  0.35766512  0.77612621  1
  O  O17  1  0.34638996  0.69147993  0.77174751  1
  O  O18  1  0.34204109  0.31133143  0.24356381  1
  O  O19  1  0.34430738  0.64565951  0.24809682  1
  O  O20  1  0.35097932  0.97557302  0.26486990  1
  O  O21  1  0.64491518  0.30806436  0.23513599  1
  O  O22  1  0.64403310  0.64015945  0.23606528  1
  O  O23  1  0.65037055  0.97274891  0.24594297  1
  O  O24  1  0.41771491  0.18209183  0.56445282  1
  O  O25  1  0.41640538  0.51488167  0.55514581  1
  O  O26  1  0.43512289  0.85663563  0.57797249  1
  O  O27  1  0.56829080  0.18905698  0.92372550  1
  O  O28  1  0.56264478  0.52385450  0.91125903  1
  O  O29  1  0.56864233  0.85501713  0.93152883  1
  O  O30  1  0.57011646  0.14209195  0.42493390  1
  O  O31  1  0.56655306  0.47628404  0.42419270  1
  O  O32  1  0.56985317  0.80957562  0.42584880  1
  O  O33  1  0.44349039  0.14045606  0.07767699  1
  O  O34  1  0.44177746  0.47807224  0.06923279  1
  O  O35  1  0.43632736  0.81310775  0.07113074  1
  O  O36  1  0.91640538  0.01488167  0.55514581  1
  O  O37  1  0.93512289  0.35663563  0.57797249  1
  O  O38  1  0.91771491  0.68209183  0.56445282  1
  O  O39  1  0.06264478  0.02385450  0.91125903  1
  O  O40  1  0.06864233  0.35501713  0.93152883  1
  O  O41  1  0.06829080  0.68905698  0.92372550  1
  O  O42  1  0.06985317  0.30957562  0.42584880  1
  O  O43  1  0.07011646  0.64209195  0.42493390  1
  O  O44  1  0.06655306  0.97628404  0.42419270  1
  O  O45  1  0.93632736  0.31310775  0.07113074  1
  O  O46  1  0.94349039  0.64045606  0.07767699  1
  O  O47  1  0.94177746  0.97807224  0.06923279  1
  O  O48  1  0.25827651  0.26985765  0.74258624  1
  O  O49  1  0.25800066  0.60245020  0.74298394  1
  O  O50  1  0.25729300  0.93787983  0.73705453  1
  O  O51  1  0.74771697  0.27630687  0.76340804  1
  O  O52  1  0.75218863  0.61066494  0.76784422  1
  O  O53  1  0.74682977  0.94309497  0.75794307  1
  O  O54  1  0.73153285  0.05954622  0.23581870  1
  O  O55  1  0.74528107  0.39294167  0.26895364  1
  O  O56  1  0.73205447  0.72603967  0.24140077  1
  O  O57  1  0.25812895  0.06410947  0.23851832  1
  O  O58  1  0.25729628  0.39686795  0.24320268  1
  O  O59  1  0.25601096  0.73041293  0.24280630  1
  O  O60  1  0.75800066  0.10245020  0.74298394  1
  O  O61  1  0.75729300  0.43787983  0.73705453  1
  O  O62  1  0.75827651  0.76985765  0.74258624  1
  O  O63  1  0.25218863  0.11066494  0.76784422  1
  O  O64  1  0.24682977  0.44309497  0.75794307  1
  O  O65  1  0.24771697  0.77630687  0.76340804  1
  O  O66  1  0.23205447  0.22603967  0.24140077  1
  O  O67  1  0.23153285  0.55954622  0.23581870  1
  O  O68  1  0.24528107  0.89294167  0.26895364  1
  O  O69  1  0.75601096  0.23041293  0.24280630  1
  O  O70  1  0.75812895  0.56410947  0.23851832  1
  O  O71  1  0.75729628  0.89686795  0.24320268  1
  O  O72  1  0.35190640  0.29058995  0.57514912  1
  O  O73  1  0.34938357  0.62296650  0.57158085  1
  O  O74  1  0.36390003  0.95159296  0.58444920  1
  O  O75  1  0.63599884  0.28440851  0.90891281  1
  O  O76  1  0.64469587  0.61905184  0.92321632  1
  O  O77  1  0.64342246  0.95096753  0.92268986  1
  O  O78  1  0.64465263  0.04624583  0.42656372  1
  O  O79  1  0.63716551  0.38064268  0.41838279  1
  O  O80  1  0.64279951  0.71390187  0.42528590  1
  O  O81  1  0.35665145  0.04848488  0.08014268  1
  O  O82  1  0.36009686  0.39052057  0.08872340  1
  O  O83  1  0.35717238  0.72331912  0.08621103  1
  O  O84  1  0.84938357  0.12296650  0.57158085  1
  O  O85  1  0.86390003  0.45159296  0.58444920  1
  O  O86  1  0.85190640  0.79058995  0.57514912  1
  O  O87  1  0.14469587  0.11905184  0.92321632  1
  O  O88  1  0.14342246  0.45096753  0.92268986  1
  O  O89  1  0.13599884  0.78440851  0.90891281  1
  O  O90  1  0.14279951  0.21390187  0.42528590  1
  O  O91  1  0.14465263  0.54624583  0.42656372  1
  O  O92  1  0.13716551  0.88064268  0.41838279  1
  O  O93  1  0.85717238  0.22331912  0.08621103  1
  O  O94  1  0.85665145  0.54848488  0.08014268  1
  O  O95  1  0.86009686  0.89052057  0.08872340  1
  O  O96  1  0.46212111  0.27471782  0.93347065  1
  O  O97  1  0.46173520  0.60853468  0.92748802  1
  O  O98  1  0.46447194  0.94292684  0.93661108  1
  O  O99  1  0.54249543  0.27838136  0.55149466  1
  O  O100  1  0.54622492  0.61074266  0.56080173  1
  O  O101  1  0.53786670  0.94219793  0.56597765  1
  O  O102  1  0.52881125  0.04886556  0.06880537  1
  O  O103  1  0.53698287  0.38889740  0.06413835  1
  O  O104  1  0.52928873  0.72177889  0.06888739  1
  O  O105  1  0.46346464  0.05668534  0.43571689  1
  O  O106  1  0.46178595  0.39148076  0.44020366  1
  O  O107  1  0.46443795  0.72445858  0.44087138  1
  O  O108  1  0.96173520  0.10853468  0.92748802  1
  O  O109  1  0.96447194  0.44292684  0.93661108  1
  O  O110  1  0.96212111  0.77471782  0.93347065  1
  O  O111  1  0.04622492  0.11074266  0.56080173  1
  O  O112  1  0.03786670  0.44219793  0.56597765  1
  O  O113  1  0.04249543  0.77838136  0.55149466  1
  O  O114  1  0.02928873  0.22177889  0.06888739  1
  O  O115  1  0.02881125  0.54886556  0.06880537  1
  O  O116  1  0.03698287  0.88889740  0.06413835  1
  O  O117  1  0.96443795  0.22445858  0.44087138  1
  O  O118  1  0.96346464  0.55668534  0.43571689  1
  O  O119  1  0.96178595  0.89148076  0.44020366  1
  O  O120  1  0.08177303  0.28502534  0.73996074  1
  O  O121  1  0.08350217  0.61671876  0.74107621  1
  O  O122  1  0.08476085  0.95019561  0.74373863  1
  O  O123  1  0.92129444  0.28265603  0.75873110  1
  O  O124  1  0.92940149  0.61386606  0.77409603  1
  O  O125  1  0.92284620  0.94833987  0.76179683  1
  O  O126  1  0.91751168  0.04777423  0.24126968  1
  O  O127  1  0.92324778  0.38387546  0.26301516  1
  O  O128  1  0.91635221  0.71243474  0.24037956  1
  O  O129  1  0.08749830  0.04738066  0.24052125  1
  O  O130  1  0.08610136  0.38035176  0.24543642  1
  O  O131  1  0.08856298  0.71236632  0.24193269  1
  O  O132  1  0.58350217  0.11671876  0.74107621  1
  O  O133  1  0.58476085  0.45019561  0.74373863  1
  O  O134  1  0.58177303  0.78502534  0.73996074  1
  O  O135  1  0.42940149  0.11386606  0.77409603  1
  O  O136  1  0.42284620  0.44833987  0.76179683  1
  O  O137  1  0.42129444  0.78265603  0.75873110  1
  O  O138  1  0.41635221  0.21243474  0.24037956  1
  O  O139  1  0.41751168  0.54777423  0.24126968  1
  O  O140  1  0.42324778  0.88387546  0.26301516  1
  O  O141  1  0.58856298  0.21236632  0.24193269  1
  O  O142  1  0.58749830  0.54738066  0.24052125  1
  O  O143  1  0.58610136  0.88035176  0.24543642  1
loop_
_geom_bond_atom_site_label_1
_geom_bond_atom_site_label_2
_geom_bond_distance
_geom_bond_site_symmetry_2
Na0 O18 2.297998 1_555
Na0 O66 2.386985 1_555
Na0 O138 2.420241 1_555
Na0 O48 2.547171 1_554
Na0 O120 2.583239 1_554
Na0 O0 2.651560 1_554
Na1 O19 2.290708 1_555
Na1 O67 2.364097 1_555
Na1 O139 2.388347 1_555
Na1 O49 2.531319 1_554
Na1 O121 2.578377 1_554
Na1 O1 2.776199 1_554
Na2 O2 2.442206 1_555
Na2 O122 2.453108 1_555
Na2 O50 2.533577 1_555
Na2 O68 2.542005 1_556
Na2 O140 2.553473 1_556
Na2 O20 2.594265 1_556
Na3 O51 2.432927 1_555
Na3 O21 2.450710 1_555
Na3 O123 2.468787 1_555
Na3 O69 2.526575 1_555
Na3 O141 2.545859 1_555
Na3 O3 2.651392 1_555
Na4 O142 2.345357 1_555
Na4 O4 2.435232 1_555
Na4 O70 2.521480 1_555
Na4 O52 2.539401 1_555
Na4 O22 2.590507 1_555
Na4 O124 2.738485 1_555
Na5 O53 2.449480 1_555
Na5 O143 2.486169 1_555
Na5 O71 2.488931 1_555
Na5 O23 2.507352 1_555
Na5 O125 2.512937 1_555
Na5 O5 2.525790 1_555
Na6 O6 2.290708 1_555
Na6 O54 2.364097 1_555
Na6 O126 2.388347 1_555
Na6 O60 2.531319 1_554
Na6 O132 2.578377 1_554
Na6 O12 2.776199 1_554
Na7 O13 2.442206 1_555
Na7 O133 2.453108 1_555
Na7 O61 2.533577 1_555
Na7 O55 2.542005 1_556
Na7 O127 2.553473 1_556
Na7 O7 2.594265 1_556
Na8 O8 2.297998 1_555
Na8 O56 2.386985 1_555
Na8 O128 2.420241 1_555
Na8 O62 2.547171 1_554
Na8 O134 2.583239 1_554
Na8 O14 2.651560 1_554
Na9 O129 2.345357 1_555
Na9 O15 2.435232 1_555
Na9 O57 2.521480 1_555
Na9 O63 2.539401 1_555
Na9 O9 2.590507 1_555
Na9 O135 2.738485 1_555
Na10 O64 2.449480 1_555
Na10 O130 2.486169 1_555
Na10 O58 2.488931 1_555
Na10 O10 2.507352 1_555
Na10 O136 2.512937 1_555
Na10 O16 2.525790 1_555
Na11 O65 2.432927 1_555
Na11 O11 2.450710 1_555
Na11 O137 2.468787 1_555
Na11 O59 2.526575 1_555
Na11 O131 2.545859 1_555
Na11 O17 2.651392 1_555
Na12 O12 2.408941 1_555
Na12 O135 2.459149 1_555
Na12 O15 2.461913 1_555
Na12 O132 2.563795 1_555
Na12 O105 2.645594 1_555
Na12 O102 2.649163 1_556
Na12 O74 2.932376 1_545
Na12 O77 2.957477 1_545
Na13 O13 2.420060 1_555
Na13 O106 2.449412 1_555
Na13 O16 2.535604 1_555
Na13 O72 2.615211 1_555
Na13 O136 2.690622 1_555
Na13 O133 2.781291 1_555
Na13 O103 2.854544 1_556
Na13 O75 2.860726 1_555
Na14 O107 2.492091 1_555
Na14 O14 2.496326 1_555
Na14 O17 2.514336 1_555
Na14 O137 2.660452 1_555
Na14 O73 2.693148 1_555
Na14 O134 2.774092 1_555
Na14 O104 2.879653 1_556
Na14 O76 2.940672 1_555
Na15 O99 2.271430 1_555
Na15 O18 2.416853 1_555
Na15 O138 2.417066 1_555
Na15 O21 2.536588 1_555
Na15 O141 2.642058 1_555
Na15 O96 2.770610 1_554
Na16 O100 2.300644 1_555
Na16 O19 2.376607 1_555
Na16 O139 2.398424 1_555
Na16 O22 2.530739 1_555
Na16 O142 2.658253 1_555
Na16 O97 2.870917 1_554
Na17 O20 2.420477 1_555
Na17 O23 2.429109 1_555
Na17 O140 2.536922 1_555
Na17 O101 2.615229 1_555
Na17 O98 2.656182 1_554
Na17 O143 2.706622 1_555
Na17 O78 2.906977 1_565
Na17 O81 2.927816 1_565
Na17 O102 3.000710 1_565
Na18 O117 2.492091 1_555
Na18 O0 2.496326 1_655
Na18 O3 2.514336 1_555
Na18 O123 2.660452 1_555
Na18 O84 2.693148 1_555
Na18 O120 2.774092 1_655
Na18 O114 2.879653 1_656
Na18 O87 2.940672 1_655
Na19 O1 2.408941 1_555
Na19 O124 2.459149 1_455
Na19 O4 2.461913 1_455
Na19 O121 2.563795 1_555
Na19 O118 2.645594 1_455
Na19 O115 2.649163 1_556
Na19 O85 2.932376 1_455
Na19 O88 2.957477 1_555
Na20 O2 2.420060 1_655
Na20 O119 2.449412 1_555
Na20 O5 2.535604 1_555
Na20 O86 2.615211 1_555
Na20 O125 2.690622 1_555
Na20 O122 2.781291 1_655
Na20 O116 2.854544 1_656
Na20 O89 2.860726 1_655
Na21 O111 2.300644 1_655
Na21 O6 2.376607 1_555
Na21 O126 2.398424 1_555
Na21 O9 2.530739 1_655
Na21 O129 2.658253 1_655
Na21 O108 2.870917 1_554
Na22 O7 2.420477 1_555
Na22 O10 2.429109 1_655
Na22 O127 2.536922 1_555
Na22 O112 2.615229 1_655
Na22 O109 2.656182 1_554
Na22 O130 2.706622 1_655
Na22 O91 2.906977 1_655
Na22 O94 2.927816 1_555
Na22 O115 3.000710 1_655
Na23 O113 2.271430 1_655
Na23 O8 2.416853 1_555
Na23 O128 2.417066 1_555
Na23 O11 2.536588 1_655
Na23 O131 2.642058 1_655
Na23 O110 2.770610 1_554
Na24 O128 2.330165 1_555
Na24 O56 2.340284 1_555
Na24 O38 2.526720 1_555
Na24 O70 2.540364 1_555
Na24 O22 2.613160 1_555
Na24 O76 2.705777 1_554
Na25 O126 2.330734 1_565
Na25 O54 2.406092 1_565
Na25 O36 2.407017 1_565
Na25 O71 2.576459 1_555
Na25 O23 2.657123 1_555
Na25 O77 2.807622 1_554
Na26 O72 2.305855 1_555
Na26 O66 2.324048 1_555
Na26 O18 2.431899 1_555
Na26 O130 2.617747 1_555
Na26 O58 2.694456 1_555
Na27 O73 2.309557 1_555
Na27 O19 2.368295 1_555
Na27 O67 2.396202 1_555
Na27 O131 2.524219 1_555
Na27 O59 2.578865 1_555
Na28 O78 2.416562 1_555
Na28 O60 2.460100 1_555
Na28 O36 2.460134 1_555
Na28 O125 2.529955 1_545
Na28 O53 2.745960 1_545
Na29 O80 2.407679 1_555
Na29 O38 2.428694 1_555
Na29 O62 2.476292 1_555
Na29 O124 2.607106 1_555
Na29 O52 2.695373 1_555
Na30 O138 2.330165 1_555
Na30 O66 2.340284 1_555
Na30 O24 2.526720 1_555
Na30 O57 2.540364 1_555
Na30 O9 2.613160 1_555
Na30 O87 2.705777 1_554
Na31 O139 2.330734 1_555
Na31 O67 2.406092 1_555
Na31 O25 2.407017 1_555
Na31 O58 2.576459 1_555
Na31 O10 2.657123 1_555
Na31 O88 2.807622 1_554
Na32 O84 2.309557 1_555
Na32 O6 2.368295 1_555
Na32 O54 2.396202 1_555
Na32 O141 2.524219 1_555
Na32 O69 2.578865 1_555
Na33 O86 2.305855 1_555
Na33 O56 2.324048 1_555
Na33 O8 2.431899 1_555
Na33 O143 2.617747 1_555
Na33 O71 2.694456 1_555
Na34 O90 2.407679 1_555
Na34 O24 2.428694 1_555
Na34 O48 2.476292 1_555
Na34 O135 2.607106 1_555
Na34 O63 2.695373 1_555
Na35 O91 2.416562 1_555
Na35 O49 2.460100 1_555
Na35 O25 2.460134 1_555
Na35 O136 2.529955 1_555
Na35 O64 2.745960 1_555
O0 Si27 1.668440 1_555
O0 Ta0 2.022911 1_555
O1 Si28 1.643321 1_555
O1 Ta1 2.054265 1_555
O2 Si29 1.660414 1_555
O2 Ta2 2.037404 1_555
O3 Si24 1.637671 1_555
O3 Ta3 2.035986 1_555
O4 Si25 1.642180 1_555
O4 Ta4 2.060195 1_555
O5 Si26 1.642463 1_555
O5 Ta5 2.014792 1_555
O6 Si33 1.603110 1_555
O6 Zn0 2.253345 1_555
O7 Si34 1.642713 1_555
O7 Ta6 2.064956 1_555
O8 Si35 1.597241 1_555
O8 Zn1 2.264774 1_555
O9 Si30 1.654916 1_555
O9 Ta7 2.085546 1_555
O10 Si31 1.664504 1_555
O10 Ta8 2.054739 1_555
O11 Si32 1.641022 1_555
O11 Ta9 2.050305 1_555
O12 Si17 1.643321 1_545
O12 Ta10 2.054265 1_555
O13 Si15 1.660414 1_555
O13 Ta11 2.037404 1_555
O14 Si16 1.668440 1_555
O14 Ta12 2.022911 1_555
O15 Si14 1.642180 1_545
O15 Ta13 2.060195 1_555
O16 Si12 1.642463 1_555
O16 Ta14 2.014792 1_555
O17 Si13 1.637671 1_555
O17 Ta15 2.035986 1_555
O18 Si22 1.597241 1_555
O18 Zn2 2.264774 1_555
O19 Si23 1.603110 1_555
O19 Zn3 2.253345 1_555
O20 Si21 1.642713 1_565
O20 Ta16 2.064956 1_555
O21 Si19 1.641022 1_555
O21 Ta17 2.050305 1_555
O22 Si20 1.654916 1_555
O22 Ta18 2.085546 1_555
O23 Si18 1.664504 1_565
O23 Ta19 2.054739 1_555
O24 Si6 1.601691 1_555
O24 Zn2 2.046193 1_555
O25 Si7 1.604045 1_555
O25 Zn3 2.040310 1_555
O26 Si8 1.642273 1_555
O26 Ta16 1.923341 1_555
O27 Si6 1.655337 1_555
O27 Ta17 1.964460 1_556
O28 Si7 1.666462 1_555
O28 Ta18 1.918622 1_556
O29 Si8 1.655030 1_555
O29 Ta19 1.936847 1_556
O30 Si9 1.667525 1_555
O30 Ta10 1.913871 1_555
O31 Si10 1.654411 1_555
O31 Ta11 1.937195 1_555
O32 Si11 1.640131 1_555
O32 Ta12 1.955657 1_555
O33 Si9 1.651672 1_555
O33 Ta13 1.919468 1_554
O34 Si10 1.647211 1_555
O34 Ta14 1.922707 1_554
O35 Si11 1.618553 1_555
O35 Ta15 1.958271 1_554
O36 Si2 1.604045 1_545
O36 Zn0 2.040310 1_555
O37 Si0 1.642273 1_655
O37 Ta6 1.923341 1_555
O38 Si1 1.601691 1_655
O38 Zn1 2.046193 1_555
O39 Si2 1.666462 1_445
O39 Ta7 1.918622 1_556
O40 Si0 1.655030 1_555
O40 Ta8 1.936847 1_556
O41 Si1 1.655337 1_555
O41 Ta9 1.964460 1_556
O42 Si4 1.640131 1_555
O42 Ta0 1.955657 1_555
O43 Si5 1.667525 1_555
O43 Ta1 1.913871 1_555
O44 Si3 1.654411 1_565
O44 Ta2 1.937195 1_555
O45 Si4 1.618553 1_655
O45 Ta3 1.958271 1_554
O46 Si5 1.651672 1_655
O46 Ta4 1.919468 1_554
O47 Si3 1.647211 1_665
O47 Ta5 1.922707 1_554
O48 Si12 1.647593 1_555
O48 Ta0 2.025532 1_555
O49 Si13 1.661074 1_555
O49 Ta1 2.006521 1_555
O50 Si14 1.620062 1_555
O50 Ta2 2.013212 1_555
O51 Si15 1.635733 1_555
O51 Ta3 1.969535 1_555
O52 Si16 1.656136 1_555
O52 Ta4 1.995759 1_555
O53 Si17 1.630945 1_555
O53 Ta5 2.073037 1_555
O54 Si18 1.596430 1_555
O54 Zn0 2.327841 1_555
O55 Si19 1.647056 1_555
O55 Ta6 1.991051 1_555
O56 Si20 1.607424 1_555
O56 Zn1 2.300387 1_555
O57 Si21 1.630052 1_555
O57 Ta7 2.073661 1_555
O58 Si22 1.669787 1_555
O58 Ta8 2.030086 1_555
O59 Si23 1.654348 1_555
O59 Ta9 2.017281 1_555
O60 Si24 1.661074 1_555
O60 Ta10 2.006521 1_555
O61 Si25 1.620062 1_555
O61 Ta11 2.013212 1_555
O62 Si26 1.647593 1_555
O62 Ta12 2.025532 1_555
O63 Si27 1.656136 1_555
O63 Ta13 1.995759 1_555
O64 Si28 1.630945 1_555
O64 Ta14 2.073037 1_555
O65 Si29 1.635733 1_555
O65 Ta15 1.969535 1_555
O66 Si30 1.607424 1_555
O66 Zn2 2.300387 1_555
O67 Si31 1.596430 1_555
O67 Zn3 2.327841 1_555
O68 Si32 1.647056 1_555
O68 Ta16 1.991051 1_555
O69 Si33 1.654348 1_555
O69 Ta17 2.017281 1_555
O70 Si34 1.630052 1_555
O70 Ta18 2.073661 1_555
O71 Si35 1.669787 1_555
O71 Ta19 2.030086 1_555
O72 Si12 1.607830 1_555
O72 Zn2 2.084265 1_555
O73 Si13 1.602584 1_555
O73 Zn3 2.081264 1_555
O74 Si14 1.645933 1_555
O74 Ta16 1.948412 1_555
O75 Si15 1.679312 1_555
O75 Ta17 1.918382 1_556
O76 Si16 1.665891 1_555
O76 Ta18 1.984696 1_556
O77 Si17 1.663548 1_555
O77 Ta19 1.972679 1_556
O78 Si18 1.666642 1_555
O78 Ta10 2.012140 1_555
O79 Si19 1.642502 1_555
O79 Ta11 1.957049 1_555
O80 Si20 1.675351 1_555
O80 Ta12 2.001967 1_555
O81 Si21 1.642802 1_555
O81 Ta13 1.954521 1_554
O82 Si22 1.645294 1_555
O82 Ta14 1.926068 1_554
O83 Si23 1.640757 1_555
O83 Ta15 1.906265 1_554
O84 Si24 1.602584 1_555
O84 Zn0 2.081264 1_555
O85 Si25 1.645933 1_555
O85 Ta6 1.948412 1_555
O86 Si26 1.607830 1_555
O86 Zn1 2.084265 1_555
O87 Si27 1.665891 1_555
O87 Ta7 1.984696 1_556
O88 Si28 1.663548 1_555
O88 Ta8 1.972679 1_556
O89 Si29 1.679312 1_555
O89 Ta9 1.918382 1_556
O90 Si30 1.675351 1_555
O90 Ta0 2.001967 1_555
O91 Si31 1.666642 1_555
O91 Ta1 2.012140 1_555
O92 Si32 1.642502 1_555
O92 Ta2 1.957049 1_555
O93 Si33 1.640757 1_555
O93 Ta3 1.906265 1_554
O94 Si34 1.642802 1_555
O94 Ta4 1.954521 1_554
O95 Si35 1.645294 1_555
O95 Ta5 1.926068 1_554
O96 Si12 1.662613 1_555
O96 Ta17 1.994433 1_556
O97 Si13 1.672453 1_555
O97 Ta18 1.965887 1_556
O98 Si14 1.659527 1_555
O98 Ta19 1.976930 1_556
O99 Si15 1.589647 1_555
O99 Zn2 2.009315 1_555
O100 Si16 1.588282 1_555
O100 Zn3 2.015975 1_555
O101 Si17 1.639622 1_555
O101 Ta16 2.026325 1_555
O102 Si18 1.637029 1_555
O102 Ta13 1.967188 1_554
O103 Si19 1.637291 1_555
O103 Ta14 1.974356 1_554
O104 Si20 1.634852 1_555
O104 Ta15 1.976367 1_554
O105 Si21 1.650185 1_555
O105 Ta10 2.013379 1_555
O106 Si22 1.652261 1_555
O106 Ta11 2.018473 1_555
O107 Si23 1.661168 1_555
O107 Ta12 1.975835 1_555
O108 Si24 1.672453 1_555
O108 Ta7 1.965887 1_656
O109 Si25 1.659527 1_555
O109 Ta8 1.976930 1_656
O110 Si26 1.662613 1_555
O110 Ta9 1.994433 1_656
O111 Si27 1.588282 1_555
O111 Zn0 2.015975 1_455
O112 Si28 1.639622 1_555
O112 Ta6 2.026325 1_455
O113 Si29 1.589647 1_555
O113 Zn1 2.009315 1_455
O114 Si30 1.634852 1_555
O114 Ta3 1.976367 1_454
O115 Si31 1.637029 1_555
O115 Ta4 1.967188 1_454
O116 Si32 1.637291 1_555
O116 Ta5 1.974356 1_454
O117 Si33 1.661168 1_555
O117 Ta0 1.975835 1_655
O118 Si34 1.650185 1_555
O118 Ta1 2.013379 1_655
O119 Si35 1.652261 1_555
O119 Ta2 2.018473 1_655
O120 Si0 1.639049 1_555
O120 Ta0 2.000681 1_555
O121 Si1 1.653176 1_555
O121 Ta1 1.986722 1_555
O122 Si2 1.639751 1_455
O122 Ta2 2.021585 1_555
O123 Si0 1.627428 1_655
O123 Ta3 2.072054 1_555
O124 Si1 1.669430 1_655
O124 Ta4 2.016790 1_555
O125 Si2 1.670036 1_555
O125 Ta5 2.019852 1_555
O126 Si3 1.606237 1_655
O126 Zn0 2.212174 1_555
O127 Si4 1.643451 1_655
O127 Ta6 2.048247 1_555
O128 Si5 1.598197 1_655
O128 Zn1 2.239517 1_555
O129 Si3 1.650173 1_555
O129 Ta7 2.009034 1_555
O130 Si4 1.658756 1_555
O130 Ta8 2.038967 1_555
O131 Si5 1.646306 1_555
O131 Ta9 2.088490 1_555
O132 Si6 1.653176 1_555
O132 Ta10 1.986722 1_555
O133 Si7 1.639751 1_555
O133 Ta11 2.021585 1_555
O134 Si8 1.639049 1_555
O134 Ta12 2.000681 1_555
O135 Si6 1.669430 1_555
O135 Ta13 2.016790 1_555
O136 Si7 1.670036 1_555
O136 Ta14 2.019852 1_555
O137 Si8 1.627428 1_555
O137 Ta15 2.072054 1_555
O138 Si9 1.598197 1_555
O138 Zn2 2.239517 1_555
O139 Si10 1.606237 1_555
O139 Zn3 2.212174 1_555
O140 Si11 1.643451 1_555
O140 Ta16 2.048247 1_555
O141 Si9 1.646306 1_555
O141 Ta17 2.088490 1_555
O142 Si10 1.650173 1_555
O142 Ta18 2.009034 1_555
O143 Si11 1.658756 1_555
O143 Ta19 2.038967 1_555
