# generated using pymatgen
data_BaYMgCrCuO5
_symmetry_space_group_name_H-M   'P 1'
_cell_length_a   3.98639875
_cell_length_b   3.98648509
_cell_length_c   9.80159597
_cell_angle_alpha   90.02379333
_cell_angle_beta   90.06944791
_cell_angle_gamma   89.99486152
_symmetry_Int_Tables_number   1
_chemical_formula_structural   BaYMgCrCuO5
_chemical_formula_sum   'Ba1 Y1 Mg1 Cr1 Cu1 O5'
_cell_volume   155.76408231
_cell_formula_units_Z   1
loop_
 _symmetry_equiv_pos_site_id
 _symmetry_equiv_pos_as_xyz
  1  'x, y, z'
loop_
 _atom_site_type_symbol
 _atom_site_label
 _atom_site_symmetry_multiplicity
 _atom_site_fract_x
 _atom_site_fract_y
 _atom_site_fract_z
 _atom_site_occupancy
  Ba  Ba0  1  0.99970600  0.99975100  0.03362000  1
  Y  Y0  1  0.00031200  0.00018800  0.39268000  1
  Mg  Mg0  1  0.99990300  0.00008600  0.69600300  1
  Cr  Cr0  1  0.50002800  0.50006700  0.69609500  1
  Cu  Cu0  1  0.50039000  0.49981400  0.25872900  1
  O  O0  1  0.99987100  0.49998900  0.64694400  1
  O  O1  1  0.49983300  0.00001000  0.64693800  1
  O  O2  1  0.99985300  0.50003800  0.29026800  1
  O  O3  1  0.50011500  0.99992400  0.29025800  1
  O  O4  1  0.49998200  0.50012700  0.96138300  1
loop_
_geom_bond_atom_site_label_1
_geom_bond_atom_site_label_2
_geom_bond_distance
_geom_bond_site_symmetry_2
Ba0 O4 2.903953 1_554
Ba0 O4 2.906168 1_564
Ba0 O4 2.906395 1_654
Ba0 O4 2.909098 1_664
Ba0 O3 3.208540 1_655
Ba0 O2 3.209464 1_555
Ba0 O2 3.209587 1_565
Ba0 O3 3.210302 1_555
Ba0 Mg0 3.309187 1_564
Mg0 O1 2.050100 1_555
Mg0 O0 2.050242 1_555
Mg0 O0 2.050606 1_545
Mg0 O1 2.050691 1_655
Cr0 O0 2.050553 1_555
Cr0 O1 2.050623 1_565
Cr0 O0 2.050634 1_455
Cr0 O1 2.050676 1_555
Cr0 O4 2.600246 1_555
Cu0 O2 2.014544 1_555
Cu0 O3 2.016751 1_545
Cu0 O3 2.017364 1_555
Cu0 O2 2.019515 1_455
O2 Y0 2.231571 1_655
O2 Y0 2.231895 1_665
O3 Y0 2.231353 1_665
O3 Y0 2.232124 1_565
