# generated using pymatgen
data_K2MgTi2O5
_symmetry_space_group_name_H-M   'P 1'
_cell_length_a   3.88223047
_cell_length_b   5.99361151
_cell_length_c   9.54420237
_cell_angle_alpha   113.16877238
_cell_angle_beta   90.00000098
_cell_angle_gamma   108.89676278
_symmetry_Int_Tables_number   1
_chemical_formula_structural   K2MgTi2O5
_chemical_formula_sum   'K2 Mg1 Ti2 O5'
_cell_volume   191.08131626
_cell_formula_units_Z   1
loop_
 _symmetry_equiv_pos_site_id
 _symmetry_equiv_pos_as_xyz
  1  'x, y, z'
loop_
 _atom_site_type_symbol
 _atom_site_label
 _atom_site_symmetry_multiplicity
 _atom_site_fract_x
 _atom_site_fract_y
 _atom_site_fract_z
 _atom_site_occupancy
  K  K0  1  0.65435453  0.25480750  0.25187138  1
  K  K1  1  0.39954603  0.74519250  0.74812862  1
  Mg  Mg0  1  0.03343261  1.00000000  0.50000000  1
  Ti  Ti0  1  0.89429450  0.73171151  0.06945229  1
  Ti  Ti1  1  0.16258299  0.26828849  0.93054771  1
  O  O0  1  0.70035101  0.34451092  0.98470012  1
  O  O1  1  0.35584109  0.65548908  0.01529988  1
  O  O2  1  0.97395259  0.89108999  0.27348820  1
  O  O3  1  0.08286160  0.10891001  0.72651180  1
  O  O4  1  0.02849705  1.00000000  1.00000000  1
loop_
_geom_bond_atom_site_label_1
_geom_bond_atom_site_label_2
_geom_bond_distance
_geom_bond_site_symmetry_2
K0 O0 2.799952 1_554
K0 O2 2.897644 1_445
K0 O2 2.905211 1_545
K0 O4 2.953359 1_544
K0 O4 2.961239 1_644
K1 O1 2.799952 1_556
K1 O3 2.897644 1_565
K1 O3 2.905211 1_665
K1 O4 2.953356 1_555
K1 O4 2.961242 1_655
Mg0 O2 1.986214 1_455
Mg0 O3 1.986214 1_565
O0 Ti0 1.999510 1_556
O0 Ti1 2.007711 1_555
O0 Ti1 2.010286 1_655
O1 Ti1 1.999510 1_554
O1 Ti0 2.007715 1_455
O1 Ti0 2.010282 1_555
O2 Ti0 1.773481 1_555
O3 Ti1 1.773481 1_555
O4 Ti1 1.895426 1_565
O4 Ti0 1.895426 1_456
