# generated using pymatgen
data_MgTi2(CoO2)4
_symmetry_space_group_name_H-M   'P 1'
_cell_length_a   5.98122659
_cell_length_b   5.98197502
_cell_length_c   6.33562166
_cell_angle_alpha   61.97045063
_cell_angle_beta   62.09501753
_cell_angle_gamma   59.61812788
_symmetry_Int_Tables_number   1
_chemical_formula_structural   MgTi2(CoO2)4
_chemical_formula_sum   'Mg1 Ti2 Co4 O8'
_cell_volume   164.53185290
_cell_formula_units_Z   1
loop_
 _symmetry_equiv_pos_site_id
 _symmetry_equiv_pos_as_xyz
  1  'x, y, z'
loop_
 _atom_site_type_symbol
 _atom_site_label
 _atom_site_symmetry_multiplicity
 _atom_site_fract_x
 _atom_site_fract_y
 _atom_site_fract_z
 _atom_site_occupancy
  Mg  Mg0  1  0.12504500  0.12488000  0.62503600  1
  Ti  Ti0  1  0.12507200  0.62500800  0.62480100  1
  Ti  Ti1  1  0.62504600  0.12492700  0.62516600  1
  Co  Co0  1  0.97881500  0.97872300  0.08694200  1
  Co  Co1  1  0.27132800  0.27195200  0.16322000  1
  Co  Co2  1  0.62510800  0.62489700  0.12477500  1
  Co  Co3  1  0.62490500  0.62495500  0.62496700  1
  O  O0  1  0.36342800  0.36397800  0.41095100  1
  O  O1  1  0.35304700  0.85627200  0.40244400  1
  O  O2  1  0.39203100  0.39122000  0.81327800  1
  O  O3  1  0.85555600  0.35404800  0.40177300  1
  O  O4  1  0.39437700  0.89585000  0.84832300  1
  O  O5  1  0.89690500  0.39367900  0.84743000  1
  O  O6  1  0.85770100  0.85870200  0.43684700  1
  O  O7  1  0.88663500  0.88590800  0.83904900  1
loop_
_geom_bond_atom_site_label_1
_geom_bond_atom_site_label_2
_geom_bond_distance
_geom_bond_site_symmetry_2
Mg0 O7 2.084686 1_445
Mg0 O0 2.085120 1_555
Mg0 O5 2.131452 1_455
Mg0 O1 2.131546 1_545
Mg0 O4 2.133647 1_545
Mg0 O3 2.134192 1_455
Co0 O6 1.865949 1_555
Co0 O5 2.151714 1_564
Co0 O4 2.156410 1_654
Co0 O7 2.240226 1_554
Co1 O2 1.865985 1_554
Co1 O1 2.154321 1_545
Co1 O3 2.157303 1_455
Co1 O0 2.235624 1_555
Co2 O4 2.220616 1_554
Co2 O3 2.222086 1_555
Co2 O5 2.231473 1_554
Co2 O1 2.233645 1_555
Co2 O7 2.307660 1_554
Co2 O0 2.308326 1_555
Co3 O6 2.040638 1_555
Co3 O2 2.040867 1_555
Co3 O1 2.140716 1_555
Co3 O5 2.141087 1_555
Co3 O3 2.143680 1_555
Co3 O4 2.144395 1_555
O0 Ti0 2.057905 1_555
O0 Ti1 2.058102 1_555
O1 Ti0 2.009024 1_555
O2 Ti1 1.970839 1_555
O2 Ti0 1.971725 1_555
O3 Ti1 2.011065 1_555
O4 Ti1 2.011455 1_565
O5 Ti0 2.010203 1_655
O6 Ti1 1.971366 1_565
O6 Ti0 1.971371 1_655
O7 Ti1 2.056529 1_565
O7 Ti0 2.059089 1_655
