# generated using pymatgen
data_CeSiIr
_symmetry_space_group_name_H-M   'P 1'
_cell_length_a   6.34972924
_cell_length_b   6.34410210
_cell_length_c   6.34713969
_cell_angle_alpha   89.99766196
_cell_angle_beta   89.99956791
_cell_angle_gamma   89.99699051
_symmetry_Int_Tables_number   1
_chemical_formula_structural   CeSiIr
_chemical_formula_sum   'Ce4 Si4 Ir4'
_cell_volume   255.68392625
_cell_formula_units_Z   4
loop_
 _symmetry_equiv_pos_site_id
 _symmetry_equiv_pos_as_xyz
  1  'x, y, z'
loop_
 _atom_site_type_symbol
 _atom_site_label
 _atom_site_symmetry_multiplicity
 _atom_site_fract_x
 _atom_site_fract_y
 _atom_site_fract_z
 _atom_site_occupancy
  Ce  Ce0  1  0.11878671  0.88141306  0.38126485  1
  Ce  Ce1  1  0.88131928  0.38138461  0.11877954  1
  Ce  Ce2  1  0.61884815  0.61863288  0.61870449  1
  Ce  Ce3  1  0.38112817  0.11863424  0.88127608  1
  Si  Si0  1  0.08942481  0.41055172  0.58914073  1
  Si  Si1  1  0.58940306  0.08945792  0.41082283  1
  Si  Si2  1  0.41071664  0.58953373  0.08916686  1
  Si  Si3  1  0.91060560  0.91041409  0.91082927  1
  Ir  Ir0  1  0.68220188  0.81763445  0.18234178  1
  Ir  Ir1  1  0.18223115  0.68234553  0.81762442  1
  Ir  Ir2  1  0.31772492  0.31773870  0.31745014  1
  Ir  Ir3  1  0.81760864  0.18225909  0.68259901  1
loop_
_geom_bond_atom_site_label_1
_geom_bond_atom_site_label_2
_geom_bond_distance
_geom_bond_site_symmetry_2
Ce0 Ir2 3.069586 1_565
Ce0 Ir1 3.070469 1_555
Ce0 Ir0 3.072969 1_455
Ce0 Si2 3.209687 1_555
Ce0 Si3 3.270621 1_454
Ce0 Si0 3.270883 1_555
Ce0 Si1 3.272235 1_565
Ce0 Ir3 3.310280 1_465
Ce1 Ir0 3.069320 1_555
Ce1 Ir3 3.069928 1_554
Ce1 Ir2 3.071121 1_655
Ce1 Si1 3.209634 1_555
Ce1 Si0 3.270077 1_655
Ce1 Si3 3.271759 1_544
Ce1 Si2 3.272309 1_555
Ce1 Ir1 3.309093 1_654
Ce2 Ir3 3.069347 1_555
Ce2 Ir0 3.070251 1_555
Ce2 Ir1 3.073034 1_555
Ce2 Si3 3.208922 1_555
Ce2 Si2 3.270674 1_556
Ce2 Si1 3.270701 1_565
Ce2 Si0 3.271970 1_655
Ce2 Ir2 3.310095 1_555
Ce3 Ir1 3.069163 1_545
Ce3 Ir2 3.069556 1_556
Ce3 Ir3 3.071570 1_555
Ce3 Si0 3.209061 1_555
Ce3 Si1 3.271023 1_555
Ce3 Si2 3.271324 1_556
Ce3 Si3 3.272129 1_445
Ce3 Ir0 3.309402 1_546
Ir0 Si2 2.327200 1_555
Ir0 Si3 2.328016 1_554
Ir0 Si1 2.328991 1_565
Ir1 Si3 2.327663 1_455
Ir1 Si2 2.328509 1_556
Ir1 Si0 2.328925 1_555
Ir2 Si2 2.328344 1_555
Ir2 Si0 2.328494 1_555
Ir2 Si1 2.328995 1_555
Ir3 Si3 2.328338 1_545
Ir3 Si1 2.328558 1_555
Ir3 Si0 2.329935 1_655
