# generated using pymatgen
data_PbS
_symmetry_space_group_name_H-M   'P 1'
_cell_length_a   4.25010497
_cell_length_b   4.25010497
_cell_length_c   11.29827708
_cell_angle_alpha   90.00000000
_cell_angle_beta   90.00000000
_cell_angle_gamma   90.03442691
_symmetry_Int_Tables_number   1
_chemical_formula_structural   PbS
_chemical_formula_sum   'Pb2 S2'
_cell_volume   204.08517395
_cell_formula_units_Z   2
loop_
 _symmetry_equiv_pos_site_id
 _symmetry_equiv_pos_as_xyz
  1  'x, y, z'
loop_
 _atom_site_type_symbol
 _atom_site_label
 _atom_site_symmetry_multiplicity
 _atom_site_fract_x
 _atom_site_fract_y
 _atom_site_fract_z
 _atom_site_occupancy
  Pb  Pb0  1  0.25663803  0.24336197  0.37541860  1
  Pb  Pb1  1  0.75663803  0.74336197  0.62458140  1
  S  S0  1  0.76436197  0.73563803  0.38632475  1
  S  S1  1  0.26436197  0.23563803  0.61367525  1
loop_
_geom_bond_atom_site_label_1
_geom_bond_atom_site_label_2
_geom_bond_distance
_geom_bond_site_symmetry_2
Pb0 S1 2.692290 1_555
Pb0 S0 2.962306 1_455
Pb0 S0 3.007259 1_445
Pb0 S0 3.007259 1_555
Pb0 S0 3.055106 1_545
Pb1 S0 2.692290 1_555
Pb1 S1 2.962306 1_565
Pb1 S1 3.007259 1_665
Pb1 S1 3.007259 1_555
Pb1 S1 3.055106 1_655
