# generated using pymatgen
data_Na10Y4Si7Sn4S5O48
_symmetry_space_group_name_H-M   'P 1'
_cell_length_a   18.45223425
_cell_length_b   9.25162392
_cell_length_c   22.95153710
_cell_angle_alpha   90.05539027
_cell_angle_beta   88.20438171
_cell_angle_gamma   119.84436628
_symmetry_Int_Tables_number   1
_chemical_formula_structural   Na10Y4Si7Sn4S5O48
_chemical_formula_sum   'Na30 Y12 Si21 Sn12 S15 O144'
_cell_volume   3396.35570016
_cell_formula_units_Z   3
loop_
 _symmetry_equiv_pos_site_id
 _symmetry_equiv_pos_as_xyz
  1  'x, y, z'
loop_
 _atom_site_type_symbol
 _atom_site_label
 _atom_site_symmetry_multiplicity
 _atom_site_fract_x
 _atom_site_fract_y
 _atom_site_fract_z
 _atom_site_occupancy
  Na  Na0  1  0.18005912  0.37087050  0.23636462  1
  Na  Na1  1  0.68022528  0.37425439  0.23643127  1
  Na  Na2  1  0.99187979  0.63094774  0.26010854  1
  Na  Na3  1  0.49283743  0.63113282  0.25902274  1
  Na  Na4  1  0.49121775  0.34516039  0.76661875  1
  Na  Na5  1  0.18186656  0.99378120  0.74205130  1
  Na  Na6  1  0.67776179  0.99208327  0.74152747  1
  Na  Na7  1  0.66452136  0.34779740  0.57763483  1
  Na  Na8  1  0.01266956  0.70271893  0.57657559  1
  Na  Na9  1  0.82618813  0.95807830  0.59787618  1
  Na  Na10  1  0.49673004  0.68140837  0.91019295  1
  Na  Na11  1  0.99889421  0.67988518  0.90750786  1
  Na  Na12  1  0.84386422  0.02931834  0.90108792  1
  Na  Na13  1  0.15589948  0.29468877  0.92960131  1
  Na  Na14  1  0.49485933  0.31370622  0.40883150  1
  Na  Na15  1  0.99225759  0.30885875  0.40989360  1
  Na  Na16  1  0.34150828  0.65641759  0.39932053  1
  Na  Na17  1  0.84525155  0.66226738  0.40760257  1
  Na  Na18  1  0.03269590  0.01228005  0.49958277  1
  Na  Na19  1  0.52743046  0.98344408  0.49684220  1
  Na  Na20  1  0.01478396  0.02112747  0.00280947  1
  Na  Na21  1  0.53029971  0.07047260  0.99698982  1
  Na  Na22  1  0.34049383  0.31544888  0.83636518  1
  Na  Na23  1  0.84980179  0.33525716  0.82890199  1
  Na  Na24  1  0.33454381  0.32461182  0.33194652  1
  Na  Na25  1  0.83470415  0.32438626  0.33451910  1
  Na  Na26  1  0.18041656  0.64973648  0.16568414  1
  Na  Na27  1  0.68042747  0.65115832  0.16647048  1
  Na  Na28  1  0.18053689  0.69356261  0.67157884  1
  Na  Na29  1  0.67512380  0.68704059  0.66982223  1
  Y  Y0  1  0.00270551  0.00255502  0.35325267  1
  Y  Y1  1  0.50319842  0.00418534  0.35205252  1
  Y  Y2  1  0.99912936  -0.00122755  0.84969043  1
  Y  Y3  1  0.49685260  0.00019796  0.85579224  1
  Y  Y4  1  0.33396324  0.33361262  0.68711343  1
  Y  Y5  1  0.83682779  0.34103159  0.68883759  1
  Y  Y6  1  0.33501595  0.33673519  0.18439478  1
  Y  Y7  1  0.83448765  0.33641579  0.18453387  1
  Y  Y8  1  0.16062655  0.65601222  0.02125666  1
  Y  Y9  1  0.66019272  0.65314699  0.02266541  1
  Y  Y10  1  0.16612033  0.67272898  0.52043938  1
  Y  Y11  1  0.65945929  0.66806790  0.52149700  1
  Si  Si0  1  0.35036688  0.71402741  0.25124596  1
  Si  Si1  1  0.85100130  0.71498725  0.25172100  1
  Si  Si2  1  0.00278075  0.30598208  0.25538487  1
  Si  Si3  1  0.50258223  0.30544050  0.25520672  1
  Si  Si4  1  0.00427613  0.69757306  0.75418051  1
  Si  Si5  1  0.50239038  0.69727246  0.75596288  1
  Si  Si6  1  0.35175459  0.98749844  0.74824126  1
  Si  Si7  1  0.84559131  0.98573864  0.75289410  1
  Si  Si8  1  0.18105283  0.04041660  0.59090977  1
  Si  Si9  1  0.68287826  0.04711889  0.59041551  1
  Si  Si10  1  0.83626570  0.63917005  0.58132609  1
  Si  Si11  1  0.17975485  0.32111094  0.08885120  1
  Si  Si12  1  0.67956311  0.32049951  0.09133489  1
  Si  Si13  1  0.01692520  0.37540131  0.91940880  1
  Si  Si14  1  0.51355905  0.37295547  0.91863166  1
  Si  Si15  1  0.16942365  0.96997314  0.91600501  1
  Si  Si16  1  0.67189052  0.97079657  0.91862639  1
  Si  Si17  1  0.17106096  0.37129738  0.41728484  1
  Si  Si18  1  0.66977766  0.36839375  0.42088011  1
  Si  Si19  1  0.01449817  0.65595693  0.42078738  1
  Si  Si20  1  0.51176054  0.65523267  0.41722397  1
  Sn  Sn0  1  0.99538982  0.97895399  0.65160110  1
  Sn  Sn1  1  0.49624140  0.97531393  0.65139143  1
  Sn  Sn2  1  0.99865280  0.01670014  0.14951819  1
  Sn  Sn3  1  0.49827195  0.01439839  0.14911910  1
  Sn  Sn4  1  0.32666246  0.31462920  0.98119470  1
  Sn  Sn5  1  0.82454580  0.32124371  0.98073435  1
  Sn  Sn6  1  0.32520076  0.32856219  0.48070144  1
  Sn  Sn7  1  0.82755375  0.34952536  0.48155725  1
  Sn  Sn8  1  0.16449547  0.64701182  0.31527386  1
  Sn  Sn9  1  0.66264340  0.64843454  0.31578630  1
  Sn  Sn10  1  0.16239203  0.68301363  0.81484747  1
  Sn  Sn11  1  0.66377668  0.67990954  0.81571079  1
  S  S0  1  0.14571221  0.98150538  0.24758022  1
  S  S1  1  0.64642869  0.98080818  0.24756232  1
  S  S2  1  0.14391438  0.31072533  0.74943248  1
  S  S3  1  0.64208773  0.30217324  0.74673906  1
  S  S4  1  0.47623465  0.30534707  0.58041122  1
  S  S5  1  0.97720875  0.31374761  0.57824285  1
  S  S6  1  0.34271738  0.64147812  0.57967131  1
  S  S7  1  0.47792391  0.65082971  0.08231426  1
  S  S8  1  0.97769568  0.65018135  0.08154705  1
  S  S9  1  0.34043557  0.04024512  0.08194572  1
  S  S10  1  0.84103295  0.04097004  0.08034055  1
  S  S11  1  0.30641566  0.64744288  0.91603607  1
  S  S12  1  0.80945892  0.64860952  0.91681085  1
  S  S13  1  0.30948199  0.97026799  0.41401078  1
  S  S14  1  0.80781748  0.96871461  0.41620698  1
  O  O0  1  0.10849325  0.00996182  0.30118477  1
  O  O1  1  0.60970842  0.00969812  0.30147767  1
  O  O2  1  0.40365245  0.78603767  0.30915341  1
  O  O3  1  0.90513622  0.78605290  0.30932202  1
  O  O4  1  0.49559851  0.21583505  0.31700681  1
  O  O5  1  0.99646163  0.21534307  0.31680330  1
  O  O6  1  0.10761277  0.22255612  0.80599460  1
  O  O7  1  0.59932670  0.19632654  0.79814547  1
  O  O8  1  0.49770094  0.78153101  0.81598078  1
  O  O9  1  0.00352569  0.78810834  0.81424898  1
  O  O10  1  0.41896786  0.03903762  0.79786362  1
  O  O11  1  0.89531878  0.00075407  0.81072412  1
  O  O12  1  0.39363893  0.96580276  0.68495578  1
  O  O13  1  0.89727929  0.98634042  0.69079732  1
  O  O14  1  0.08997071  0.21517838  0.70041631  1
  O  O15  1  0.59448821  0.22272071  0.69238170  1
  O  O16  1  0.01699538  0.82075903  0.69633988  1
  O  O17  1  0.52003404  0.82602143  0.69897796  1
  O  O18  1  0.40274302  0.82896771  0.19302115  1
  O  O19  1  0.90214617  0.83062901  0.19303371  1
  O  O20  1  0.02250865  0.20935533  0.20076316  1
  O  O21  1  0.52080292  0.20526950  0.20139685  1
  O  O22  1  0.09368520  0.96377344  0.19649156  1
  O  O23  1  0.59402867  0.96252346  0.19697150  1
  O  O24  1  0.43163641  0.31374861  0.63322100  1
  O  O25  1  0.93135718  0.32631610  0.62969323  1
  O  O26  1  0.22753573  0.12386423  0.64943222  1
  O  O27  1  0.72890835  0.12049149  0.65017327  1
  O  O28  1  0.33721088  0.54012368  0.63007448  1
  O  O29  1  0.82485402  0.50835173  0.63100566  1
  O  O30  1  0.43543175  0.55524191  0.13651768  1
  O  O31  1  0.93405291  0.55523062  0.13537880  1
  O  O32  1  0.33619220  0.12681218  0.13404508  1
  O  O33  1  0.83801964  0.13435360  0.13083952  1
  O  O34  1  0.22465049  0.31850712  0.14770788  1
  O  O35  1  0.72184291  0.31641456  0.15127718  1
  O  O36  1  0.23129987  0.30860773  0.02814457  1
  O  O37  1  0.73585430  0.30991528  0.03343592  1
  O  O38  1  0.43192218  0.55737325  0.02994579  1
  O  O39  1  0.93288453  0.55942904  0.02860572  1
  O  O40  1  0.35002554  0.14084385  0.02758904  1
  O  O41  1  0.84902016  0.13449735  0.02439185  1
  O  O42  1  0.23440233  0.15447989  0.53061633  1
  O  O43  1  0.73217361  0.18192644  0.53364001  1
  O  O44  1  0.34839884  0.56115153  0.52334591  1
  O  O45  1  0.85491188  0.56972028  0.51783918  1
  O  O46  1  0.43298669  0.30958335  0.52639354  1
  O  O47  1  0.93105677  0.30350991  0.52387503  1
  O  O48  1  0.26971522  0.66332946  0.97117363  1
  O  O49  1  0.76870208  0.65582841  0.97145431  1
  O  O50  1  0.08087401  0.44403486  0.97186458  1
  O  O51  1  0.56962133  0.46582304  0.97269925  1
  O  O52  1  0.15846391  0.84264894  0.96720439  1
  O  O53  1  0.67207948  0.85761254  0.97116250  1
  O  O54  1  0.26816016  0.88394640  0.46919146  1
  O  O55  1  0.76907551  0.88007506  0.47151652  1
  O  O56  1  0.16988371  0.48608792  0.46917435  1
  O  O57  1  0.66767094  0.46191722  0.47966375  1
  O  O58  1  0.06335414  0.67676668  0.48005985  1
  O  O59  1  0.56930202  0.68109873  0.47070856  1
  O  O60  1  0.06558481  0.63728030  0.36116170  1
  O  O61  1  0.55640672  0.63327233  0.35487093  1
  O  O62  1  0.25933841  0.88485464  0.36269676  1
  O  O63  1  0.75556819  0.88044905  0.36522799  1
  O  O64  1  0.18953278  0.48191574  0.35460038  1
  O  O65  1  0.68394837  0.49096910  0.36245302  1
  O  O66  1  0.06179087  0.50456776  0.86138590  1
  O  O67  1  0.55837101  0.48612174  0.85651193  1
  O  O68  1  0.18063003  0.89787762  0.85172389  1
  O  O69  1  0.68874641  0.89224843  0.85606771  1
  O  O70  1  0.25628447  0.63595925  0.86511164  1
  O  O71  1  0.75938132  0.63221490  0.86493720  1
  O  O72  1  0.99255008  0.80414174  0.41451890  1
  O  O73  1  0.48620052  0.79911345  0.41382648  1
  O  O74  1  0.39248066  0.98221282  0.41067747  1
  O  O75  1  0.89110615  0.98006829  0.41072721  1
  O  O76  1  0.08613002  0.19148906  0.41792648  1
  O  O77  1  0.58506189  0.18762640  0.41788843  1
  O  O78  1  0.99243871  0.18213281  0.91128200  1
  O  O79  1  0.49197267  0.18227252  0.91560175  1
  O  O80  1  0.08801573  0.99953932  0.91757112  1
  O  O81  1  0.58724921  0.98300554  0.91791884  1
  O  O82  1  0.39409205  0.78511058  0.91085601  1
  O  O83  1  0.89352391  0.80073705  0.91279242  1
  O  O84  1  0.48298580  0.15182712  0.57975913  1
  O  O85  1  0.98195596  0.15810268  0.58127501  1
  O  O86  1  0.08915599  0.03402813  0.58999425  1
  O  O87  1  0.59053782  0.04107166  0.59017154  1
  O  O88  1  0.42288161  0.80660602  0.57968702  1
  O  O89  1  0.92272602  0.82277085  0.58689335  1
  O  O90  1  0.47971377  0.81434532  0.08271740  1
  O  O91  1  0.98080816  0.81525029  0.08188834  1
  O  O92  1  0.41849110  0.02683699  0.08178622  1
  O  O93  1  0.91998600  0.02963945  0.08099806  1
  O  O94  1  0.08730783  0.14539710  0.08721137  1
  O  O95  1  0.58738766  0.14623183  0.08789747  1
  O  O96  1  0.33157796  0.14217767  0.74477255  1
  O  O97  1  0.82278771  0.13443997  0.75019431  1
  O  O98  1  0.22803733  0.32749552  0.74340613  1
  O  O99  1  0.72746355  0.32717531  0.74385451  1
  O  O100  1  0.42547841  0.50702937  0.74971405  1
  O  O101  1  0.92383758  0.51371157  0.75122840  1
  O  O102  1  0.33194511  0.52107029  0.24523460  1
  O  O103  1  0.83334286  0.52288800  0.24487659  1
  O  O104  1  0.42499170  0.34029718  0.24808774  1
  O  O105  1  0.92468219  0.33947475  0.24825246  1
  O  O106  1  0.23228802  0.12273112  0.24184838  1
  O  O107  1  0.73344710  0.12078390  0.24182265  1
  O  O108  1  0.30842327  0.48446086  0.91697977  1
  O  O109  1  0.82349553  0.50075543  0.91755794  1
  O  O110  1  0.42556965  0.38812091  0.92365271  1
  O  O111  1  0.92924361  0.38612246  0.92857402  1
  O  O112  1  0.25317835  0.15971660  0.91960241  1
  O  O113  1  0.76000884  0.15685596  0.91812259  1
  O  O114  1  0.32303040  0.14468209  0.41467362  1
  O  O115  1  0.82082594  0.14115570  0.41723508  1
  O  O116  1  0.25795255  0.35828724  0.41820795  1
  O  O117  1  0.75763996  0.35883281  0.41586113  1
  O  O118  1  0.42407193  0.46752624  0.42281298  1
  O  O119  1  0.92658278  0.46950076  0.42074562  1
  O  O120  1  0.16966115  0.48510742  0.08667704  1
  O  O121  1  0.66883253  0.48362741  0.08827245  1
  O  O122  1  0.06375066  0.67671499  0.08114050  1
  O  O123  1  0.56435336  0.67995765  0.08157358  1
  O  O124  1  0.26566656  0.87307569  0.08033478  1
  O  O125  1  0.76735598  0.87231492  0.08139785  1
  O  O126  1  0.16146442  0.84729145  0.58639928  1
  O  O127  1  0.67620955  0.86758222  0.58212922  1
  O  O128  1  0.26981113  0.66745570  0.58018761  1
  O  O129  1  0.75546062  0.66667342  0.58210323  1
  O  O130  1  0.06186689  0.46297279  0.57722325  1
  O  O131  1  0.56292521  0.45211356  0.58129070  1
  O  O132  1  0.14601742  0.82100658  0.25224709  1
  O  O133  1  0.64682393  0.82011545  0.25209741  1
  O  O134  1  0.25876311  0.70870015  0.25384719  1
  O  O135  1  0.75856911  0.70634644  0.25570185  1
  O  O136  1  0.09030517  0.49152062  0.25173816  1
  O  O137  1  0.59111791  0.48958833  0.25162012  1
  O  O138  1  0.15207903  0.47861395  0.75002648  1
  O  O139  1  0.64412927  0.46492815  0.75078502  1
  O  O140  1  0.09468482  0.69789470  0.74870496  1
  O  O141  1  0.59083043  0.68907455  0.75151402  1
  O  O142  1  0.26196508  0.81009597  0.75660584  1
  O  O143  1  0.75716492  0.80148721  0.75317060  1
loop_
_geom_bond_atom_site_label_1
_geom_bond_atom_site_label_2
_geom_bond_distance
_geom_bond_site_symmetry_2
Na0 O34 2.311288 1_555
Na0 O136 2.432248 1_555
Na0 O102 2.446672 1_555
Na0 O20 2.678611 1_555
Na0 O134 2.748656 1_555
Na0 O64 2.880230 1_555
Na0 O106 2.902590 1_555
Na1 O35 2.238021 1_555
Na1 O137 2.381827 1_555
Na1 O103 2.465377 1_555
Na1 O21 2.704216 1_555
Na1 O135 2.709588 1_555
Na2 O105 2.361142 1_555
Na2 O132 2.490916 1_655
Na2 O103 2.613815 1_555
Na2 O136 2.703449 1_655
Na2 O60 2.711176 1_655
Na2 O3 2.840164 1_555
Na3 O104 2.352844 1_555
Na3 O133 2.486648 1_555
Na3 O61 2.520759 1_555
Na3 O102 2.645821 1_555
Na3 O137 2.715942 1_555
Na3 O2 2.882941 1_555
Na3 O30 2.993852 1_555
Na3 O23 3.009743 1_555
Na4 O100 2.388159 1_555
Na4 O67 2.457551 1_555
Na4 O139 2.479083 1_555
Na4 O10 2.549245 1_555
Na4 O96 2.653334 1_555
Na4 O141 2.786350 1_555
Na5 O26 2.358094 1_565
Na5 O140 2.388976 1_555
Na5 O96 2.399181 1_565
Na5 O68 2.665407 1_555
Na5 O98 2.764483 1_565
Na5 O142 2.777747 1_555
Na5 O16 2.875444 1_555
Na6 O97 2.336750 1_565
Na6 O27 2.337336 1_565
Na6 O141 2.446803 1_555
Na6 O17 2.740348 1_555
Na6 O99 2.761849 1_565
Na6 O143 2.815008 1_555
Na6 O69 2.833652 1_555
Na7 O57 2.471751 1_555
Na7 O87 2.473930 1_555
Na7 O131 2.498712 1_555
Na7 O129 2.571504 1_555
Na7 O43 2.599521 1_555
Na7 O15 2.872143 1_555
Na7 O29 2.882591 1_555
Na7 O84 2.907843 1_555
Na8 O126 2.400273 1_555
Na8 O89 2.419436 1_455
Na8 O58 2.435571 1_555
Na8 O86 2.683595 1_565
Na8 O130 2.783702 1_555
Na8 O45 2.912548 1_455
Na8 O16 2.945492 1_555
Na9 O129 2.372418 1_555
Na9 O13 2.484022 1_555
Na9 O127 2.499263 1_555
Na9 O85 2.543603 1_565
Na9 O89 2.644694 1_555
Na10 O8 2.349229 1_555
Na10 O110 2.368999 1_555
Na10 O81 2.446605 1_555
Na10 O82 2.512809 1_555
Na10 O67 2.833567 1_555
Na11 O9 2.344944 1_655
Na11 O111 2.399792 1_555
Na11 O80 2.585640 1_655
Na11 O66 2.625180 1_655
Na11 O83 2.682125 1_555
Na11 O109 2.808936 1_555
Na11 O52 2.941136 1_655
Na11 O39 2.982165 1_556
Na12 O11 2.323356 1_555
Na12 O113 2.391154 1_555
Na12 O78 2.398207 1_555
Na12 O83 2.707250 1_545
Na12 O69 2.727378 1_545
Na12 O111 2.942599 1_555
Na12 O41 2.980658 1_556
Na13 O80 2.391117 1_545
Na13 O108 2.473697 1_555
Na13 O50 2.565846 1_555
Na13 O112 2.653026 1_555
Na13 O36 2.661956 1_556
Na13 O78 2.703934 1_455
Na13 O6 2.974985 1_555
Na14 O4 2.295319 1_555
Na14 O118 2.378482 1_555
Na14 O77 2.475609 1_555
Na14 O74 2.684215 1_545
Na14 O114 2.748675 1_555
Na14 O61 2.853352 1_555
Na14 O46 2.889490 1_555
Na15 O5 2.317820 1_555
Na15 O119 2.347836 1_555
Na15 O76 2.471006 1_655
Na15 O75 2.661578 1_545
Na15 O115 2.743054 1_555
Na15 O47 2.807303 1_555
Na15 O60 2.851970 1_655
Na16 O2 2.350139 1_555
Na16 O73 2.351334 1_555
Na16 O116 2.429104 1_555
Na16 O64 2.682362 1_555
Na16 O74 2.688834 1_555
Na16 O118 2.892887 1_555
Na16 O44 3.005831 1_555
Na17 O72 2.368835 1_555
Na17 O117 2.448476 1_555
Na17 O3 2.491982 1_555
Na17 O75 2.625463 1_555
Na17 O45 2.711205 1_555
Na17 O65 2.817748 1_555
Na17 O119 2.866530 1_555
Na18 O86 2.314707 1_555
Na18 O76 2.344483 1_555
Na18 O72 2.594617 1_445
Na18 O85 2.711899 1_455
Na18 O89 2.723642 1_445
Na19 O87 2.401005 1_565
Na19 O77 2.422703 1_565
Na19 O73 2.431175 1_555
Na19 O88 2.578465 1_555
Na19 O84 2.808746 1_565
Na20 O94 2.343514 1_555
Na20 O80 2.407358 1_544
Na20 O91 2.462105 1_445
Na20 O93 2.495302 1_455
Na20 O78 2.733741 1_454
Na21 O95 2.313942 1_556
Na21 O81 2.403456 1_545
Na21 O79 2.423620 1_555
Na21 O92 2.669847 1_556
Na21 O90 2.837273 1_546
Na22 O112 2.413179 1_555
Na22 O110 2.464543 1_555
Na22 O100 2.569215 1_555
Na22 O96 2.601670 1_555
Na22 O108 2.658053 1_555
Na23 O101 2.319142 1_555
Na23 O97 2.468141 1_555
Na23 O113 2.595147 1_555
Na23 O111 2.669266 1_555
Na23 O109 2.718851 1_555
Na24 O114 2.459701 1_555
Na24 O104 2.463556 1_555
Na24 O116 2.505166 1_555
Na24 O118 2.619790 1_555
Na24 O102 2.714098 1_555
Na24 O106 2.838009 1_555
Na25 O117 2.427466 1_555
Na25 O115 2.467195 1_555
Na25 O105 2.502025 1_555
Na25 O119 2.555973 1_555
Na25 O103 2.768161 1_555
Na25 O107 2.881664 1_555
Na26 O120 2.315971 1_555
Na26 O134 2.424516 1_555
Na26 O136 2.487091 1_555
Na26 O124 2.675980 1_555
Na26 O132 2.788677 1_555
Na27 O121 2.314710 1_555
Na27 O135 2.446289 1_555
Na27 O137 2.474181 1_555
Na27 O125 2.667708 1_555
Na27 O133 2.751816 1_555
Na28 O140 2.352015 1_555
Na28 O142 2.407427 1_555
Na28 O138 2.525962 1_555
Na28 O126 2.552513 1_555
Na28 O128 2.711133 1_555
Na29 O143 2.377922 1_555
Na29 O141 2.404449 1_555
Na29 O129 2.525185 1_555
Na29 O139 2.602647 1_555
Na29 O127 2.609962 1_555
Na29 O131 2.985869 1_555
O0 S0 1.476821 1_545
O0 Y0 2.228011 1_555
O1 S1 1.479480 1_545
O1 Y1 2.229341 1_555
O2 Si0 1.614073 1_555
O2 Y1 2.199192 1_565
O3 Si1 1.614087 1_555
O3 Y0 2.188755 1_665
O4 Si3 1.612517 1_555
O4 Y1 2.187290 1_555
O5 Si2 1.612002 1_655
O5 Y0 2.196273 1_655
O6 S2 1.484281 1_555
O6 Y2 2.247794 1_455
O7 S3 1.465756 1_555
O7 Y3 2.247532 1_555
O8 Si5 1.603202 1_555
O8 Y3 2.225945 1_565
O9 Si4 1.615732 1_555
O9 Y2 2.148712 1_465
O10 Si6 1.600481 1_545
O10 Y3 2.144030 1_555
O11 Si7 1.603761 1_545
O11 Y2 2.147510 1_555
O12 Si6 1.682509 1_555
O12 Sn1 1.982041 1_555
O13 Si7 1.688334 1_555
O13 Sn0 2.027886 1_555
O14 S2 1.493422 1_555
O14 Sn0 2.323564 1_445
O15 S3 1.514116 1_555
O15 Sn1 2.320231 1_545
O16 Si4 1.683286 1_555
O16 Sn0 1.991132 1_455
O17 Si5 1.680994 1_555
O17 Sn1 1.982376 1_555
O18 Si0 1.658188 1_555
O18 Sn3 1.986909 1_565
O19 Si1 1.663664 1_555
O19 Sn2 1.993195 1_565
O20 Si2 1.672254 1_555
O20 Sn2 2.000363 1_455
O21 Si3 1.667048 1_555
O21 Sn3 2.006802 1_555
O22 S0 1.495617 1_555
O22 Sn2 2.334772 1_465
O23 S1 1.489608 1_555
O23 Sn3 2.350580 1_565
O24 S4 1.467427 1_555
O24 Y4 2.236399 1_555
O25 S5 1.469295 1_555
O25 Y5 2.234129 1_555
O26 Si8 1.595921 1_555
O26 Y4 2.163437 1_555
O27 Si9 1.600207 1_555
O27 Y5 2.231442 1_555
O28 S6 1.458682 1_555
O28 Y4 2.292080 1_555
O29 Si10 1.594742 1_555
O29 Y5 2.137670 1_555
O30 S7 1.481679 1_555
O30 Y6 2.208158 1_555
O31 S8 1.477281 1_555
O31 Y7 2.217903 1_555
O32 S9 1.460167 1_555
O32 Y6 2.267994 1_555
O33 S10 1.461056 1_555
O33 Y7 2.264822 1_555
O34 Si11 1.612986 1_555
O34 Y6 2.156409 1_555
O35 Si12 1.612302 1_555
O35 Y7 2.157210 1_555
O36 Si11 1.698666 1_555
O36 Sn4 2.011060 1_554
O37 Si12 1.693770 1_555
O37 Sn5 1.964145 1_554
O38 S7 1.498068 1_555
O38 Sn4 2.420304 1_554
O39 S8 1.495024 1_555
O39 Sn5 2.409963 1_554
O40 S9 1.509450 1_555
O40 Sn4 2.150963 1_554
O41 S10 1.510870 1_555
O41 Sn5 2.236339 1_554
O42 Si8 1.697400 1_555
O42 Sn6 1.977627 1_555
O43 Si9 1.697247 1_555
O43 Sn7 2.021467 1_555
O44 S6 1.517126 1_555
O44 Sn6 2.208389 1_555
O45 Si10 1.685592 1_555
O45 Sn7 2.024304 1_555
O46 S4 1.506213 1_555
O46 Sn6 2.359013 1_555
O47 S5 1.509092 1_555
O47 Sn7 2.387139 1_555
O48 S11 1.458313 1_555
O48 Y8 2.257720 1_556
O49 S12 1.460706 1_555
O49 Y9 2.279083 1_556
O50 Si13 1.608376 1_555
O50 Y8 2.127112 1_556
O51 Si14 1.594370 1_555
O51 Y9 2.084521 1_556
O52 Si15 1.600010 1_555
O52 Y8 2.144278 1_556
O53 Si16 1.598987 1_555
O53 Y9 2.144486 1_556
O54 S13 1.469188 1_555
O54 Y10 2.225051 1_555
O55 S14 1.468565 1_555
O55 Y11 2.272566 1_555
O56 Si17 1.601735 1_555
O56 Y10 2.116870 1_555
O57 Si18 1.611944 1_555
O57 Y11 2.203932 1_555
O58 Si19 1.613707 1_555
O58 Y10 2.153330 1_555
O59 Si20 1.587366 1_555
O59 Y11 2.112419 1_555
O60 Si19 1.694720 1_555
O60 Sn8 2.040729 1_555
O61 Si20 1.691195 1_555
O61 Sn9 2.069668 1_555
O62 S13 1.485391 1_555
O62 Sn8 2.317602 1_555
O63 S14 1.500207 1_555
O63 Sn9 2.299845 1_555
O64 Si17 1.690660 1_555
O64 Sn8 2.022927 1_555
O65 Si18 1.684776 1_555
O65 Sn9 2.005856 1_555
O66 Si13 1.684101 1_555
O66 Sn10 2.035015 1_555
O67 Si14 1.697052 1_555
O67 Sn11 2.071869 1_555
O68 Si15 1.667502 1_555
O68 Sn10 2.032211 1_555
O69 Si16 1.697456 1_555
O69 Sn11 2.012902 1_555
O70 S11 1.484167 1_555
O70 Sn10 2.323561 1_555
O71 S12 1.491121 1_555
O71 Sn11 2.341783 1_555
O72 Si19 1.618908 1_655
O72 Y0 2.242341 1_665
O73 Si20 1.621048 1_555
O73 Y1 2.256805 1_565
O74 S13 1.479127 1_555
O74 Y1 2.332488 1_565
O75 S14 1.488636 1_555
O75 Y0 2.329771 1_665
O76 Si17 1.620922 1_555
O76 Y0 2.255753 1_555
O77 Si18 1.627798 1_555
O77 Y1 2.243169 1_555
O78 Si13 1.623762 1_655
O78 Y2 2.254805 1_555
O79 Si14 1.605541 1_555
O79 Y3 2.206515 1_555
O80 Si15 1.654735 1_555
O80 Y2 2.294764 1_465
O81 Si16 1.621568 1_555
O81 Y3 2.292234 1_565
O82 S11 1.480228 1_555
O82 Y3 2.291640 1_565
O83 S12 1.487925 1_555
O83 Y2 2.350833 1_565
O84 S4 1.486258 1_555
O84 Sn1 2.420236 1_545
O85 S5 1.487328 1_555
O85 Sn0 2.419283 1_545
O86 Si8 1.667879 1_555
O86 Sn0 2.055032 1_445
O87 Si9 1.676936 1_555
O87 Sn1 2.041273 1_545
O88 S6 1.507585 1_555
O88 Sn1 2.238021 1_555
O89 Si10 1.661935 1_555
O89 Sn0 2.069700 1_555
O90 S7 1.496649 1_555
O90 Sn3 2.293876 1_565
O91 S8 1.499425 1_555
O91 Sn2 2.325283 1_565
O92 S9 1.505774 1_555
O92 Sn3 2.209116 1_555
O93 S10 1.512295 1_555
O93 Sn2 2.216075 1_555
O94 Si11 1.672697 1_555
O94 Sn2 2.014166 1_455
O95 Si12 1.666537 1_555
O95 Sn3 2.007072 1_555
O96 Si6 1.650805 1_545
O96 Y4 2.193916 1_555
O97 Si7 1.628334 1_545
O97 Y5 2.278780 1_555
O98 S2 1.483101 1_555
O98 Y4 2.285740 1_555
O99 S3 1.473262 1_555
O99 Y5 2.294870 1_555
O100 Si5 1.630538 1_555
O100 Y4 2.222847 1_555
O101 Si4 1.610686 1_655
O101 Y5 2.183405 1_555
O102 Si0 1.649213 1_555
O102 Y6 2.224422 1_555
O103 Si1 1.647938 1_555
O103 Y7 2.219141 1_555
O104 Si3 1.629355 1_555
O104 Y6 2.234298 1_555
O105 Si2 1.630607 1_655
O105 Y7 2.239412 1_555
O106 S0 1.478584 1_545
O106 Y6 2.316249 1_555
O107 S1 1.479901 1_545
O107 Y7 2.309607 1_555
O108 S11 1.526813 1_555
O108 Sn4 2.305656 1_555
O109 S12 1.513754 1_555
O109 Sn5 2.213479 1_555
O110 Si14 1.698239 1_555
O110 Sn4 2.037880 1_555
O111 Si13 1.676339 1_655
O111 Sn5 2.056223 1_555
O112 Si15 1.668638 1_545
O112 Sn4 2.018175 1_555
O113 Si16 1.679331 1_545
O113 Sn5 2.024014 1_555
O114 S13 1.505048 1_545
O114 Sn6 2.263453 1_555
O115 S14 1.490802 1_545
O115 Sn7 2.383043 1_555
O116 Si17 1.667291 1_555
O116 Sn6 2.030919 1_555
O117 Si18 1.667505 1_555
O117 Sn7 2.044002 1_555
O118 Si20 1.685541 1_555
O118 Sn6 2.064817 1_555
O119 Si19 1.679949 1_655
O119 Sn7 2.084125 1_555
O120 Si11 1.619001 1_555
O120 Y8 2.250542 1_555
O121 Si12 1.618740 1_555
O121 Y9 2.240741 1_555
O122 S8 1.480847 1_455
O122 Y8 2.303791 1_555
O123 S7 1.478820 1_555
O123 Y9 2.302831 1_555
O124 S9 1.475170 1_565
O124 Y8 2.431776 1_555
O125 S10 1.473159 1_565
O125 Y9 2.451482 1_555
O126 Si8 1.641022 1_565
O126 Y10 2.243349 1_555
O127 Si9 1.614831 1_565
O127 Y11 2.212091 1_555
O128 S6 1.479351 1_555
O128 Y10 2.408561 1_555
O129 Si10 1.632231 1_555
O129 Y11 2.291345 1_555
O130 S5 1.482591 1_455
O130 Y10 2.301583 1_555
O131 S4 1.497700 1_555
O131 Y11 2.314739 1_555
O132 S0 1.491652 1_555
O132 Sn8 2.319854 1_555
O133 S1 1.494058 1_555
O133 Sn9 2.288540 1_555
O134 Si0 1.665489 1_555
O134 Sn8 2.049110 1_555
O135 Si1 1.666819 1_555
O135 Sn9 2.055823 1_555
O136 Si2 1.671648 1_555
O136 Sn8 2.056932 1_555
O137 Si3 1.673281 1_555
O137 Sn9 2.063405 1_555
O138 S2 1.484126 1_555
O138 Sn10 2.340879 1_555
O139 S3 1.490238 1_555
O139 Sn11 2.370287 1_555
O140 Si4 1.667560 1_555
O140 Sn10 2.043239 1_555
O141 Si5 1.670946 1_555
O141 Sn11 2.056219 1_555
O142 Si6 1.658266 1_555
O142 Sn10 2.060122 1_555
O143 Si7 1.673083 1_555
O143 Sn11 2.052797 1_555
