# generated using pymatgen
data_Tb(GePt)2
_symmetry_space_group_name_H-M   'P 1'
_cell_length_a   4.26664331
_cell_length_b   4.26611166
_cell_length_c   10.12626938
_cell_angle_alpha   90.00000000
_cell_angle_beta   90.00000000
_cell_angle_gamma   90.00000000
_symmetry_Int_Tables_number   1
_chemical_formula_structural   Tb(GePt)2
_chemical_formula_sum   'Tb2 Ge4 Pt4'
_cell_volume   184.31812006
_cell_formula_units_Z   2
loop_
 _symmetry_equiv_pos_site_id
 _symmetry_equiv_pos_as_xyz
  1  'x, y, z'
loop_
 _atom_site_type_symbol
 _atom_site_label
 _atom_site_symmetry_multiplicity
 _atom_site_fract_x
 _atom_site_fract_y
 _atom_site_fract_z
 _atom_site_occupancy
  Tb  Tb0  1  0.24907961  0.00000000  0.75021551  1
  Tb  Tb1  1  0.74907961  0.50000000  0.24978449  1
  Ge  Ge0  1  0.24845495  -0.00000000  0.13291739  1
  Ge  Ge1  1  0.74845495  0.50000000  0.86708261  1
  Ge  Ge2  1  0.24917612  0.50000000  0.50010302  1
  Ge  Ge3  1  0.74917612  0.00000000  0.49989698  1
  Pt  Pt0  1  0.24920524  0.00000000  0.37167681  1
  Pt  Pt1  1  0.74920524  0.50000000  0.62832319  1
  Pt  Pt2  1  0.24808308  0.50000000  1.00005967  1
  Pt  Pt3  1  0.74808308  -0.00000000  -0.00005967  1
loop_
_geom_bond_atom_site_label_1
_geom_bond_atom_site_label_2
_geom_bond_distance
_geom_bond_site_symmetry_2
Ge0 Pt0 2.417744 1_555
Ge0 Pt3 2.521413 1_555
Ge0 Pt2 2.521885 1_554
Ge0 Pt2 2.521885 1_544
Ge0 Pt3 2.524096 1_455
Ge0 Tb1 3.238846 1_455
Ge0 Tb1 3.238846 1_445
Ge0 Tb1 3.242355 1_555
Ge0 Tb1 3.242355 1_545
Ge1 Pt1 2.417744 1_555
Ge1 Pt2 2.521413 1_655
Ge1 Pt3 2.521885 1_556
Ge1 Pt3 2.521885 1_566
Ge1 Pt2 2.524096 1_555
Ge1 Tb0 3.238846 1_555
Ge1 Tb0 3.238846 1_565
Ge1 Tb0 3.242355 1_655
Ge1 Tb0 3.242355 1_665
Ge2 Pt1 2.497269 1_455
Ge2 Pt1 2.497481 1_555
Ge2 Pt0 2.498234 1_555
Ge2 Pt0 2.498234 1_565
Ge2 Tb0 3.311273 1_555
Ge2 Tb0 3.311273 1_565
Ge2 Tb1 3.312775 1_555
Ge2 Tb1 3.313305 1_455
Ge3 Pt0 2.497269 1_555
Ge3 Pt0 2.497481 1_655
Ge3 Pt1 2.498234 1_555
Ge3 Pt1 2.498234 1_545
Ge3 Tb1 3.311273 1_555
Ge3 Tb1 3.311273 1_545
Ge3 Tb0 3.312775 1_655
Ge3 Tb0 3.313305 1_555
Pt0 Tb1 3.259177 1_555
Pt0 Tb1 3.259177 1_545
Pt0 Tb1 3.259879 1_445
Pt0 Tb1 3.259879 1_455
Pt1 Tb0 3.259177 1_655
Pt1 Tb0 3.259177 1_665
Pt1 Tb0 3.259879 1_555
Pt1 Tb0 3.259879 1_565
Pt2 Tb1 3.305703 1_456
Pt2 Tb0 3.309198 1_565
Pt2 Tb0 3.309198 1_555
Pt2 Tb1 3.311186 1_556
Pt3 Tb0 3.305703 1_554
Pt3 Tb1 3.309198 1_555
Pt3 Tb1 3.309198 1_545
Pt3 Tb0 3.311186 1_654
