# generated using pymatgen
data_Na4Mg(FeO3)2
_symmetry_space_group_name_H-M   'P 1'
_cell_length_a   6.24066910
_cell_length_b   6.49691813
_cell_length_c   5.14382920
_cell_angle_alpha   90.21930035
_cell_angle_beta   90.45661122
_cell_angle_gamma   61.29564228
_symmetry_Int_Tables_number   1
_chemical_formula_structural   Na4Mg(FeO3)2
_chemical_formula_sum   'Na4 Mg1 Fe2 O6'
_cell_volume   182.92167964
_cell_formula_units_Z   1
loop_
 _symmetry_equiv_pos_site_id
 _symmetry_equiv_pos_as_xyz
  1  'x, y, z'
loop_
 _atom_site_type_symbol
 _atom_site_label
 _atom_site_symmetry_multiplicity
 _atom_site_fract_x
 _atom_site_fract_y
 _atom_site_fract_z
 _atom_site_occupancy
  Na  Na0  1  0.89438700  0.60058000  0.49218700  1
  Na  Na1  1  0.49222500  0.65970200  0.01294400  1
  Na  Na2  1  0.49496500  0.39941900  0.49219000  1
  Na  Na3  1  0.15192700  0.34029700  0.01294400  1
  Mg  Mg0  1  0.55718400  0.00000000  0.66868200  1
  Fe  Fe0  1  0.83714200  0.00000200  0.06313300  1
  Fe  Fe1  1  0.13955100  0.99999900  0.56171800  1
  O  O0  1  0.80860200  0.74240700  0.93140600  1
  O  O1  1  0.46341400  0.75368300  0.50803100  1
  O  O2  1  0.55100400  0.25759900  0.93140600  1
  O  O3  1  0.21709800  0.24631200  0.50803200  1
  O  O4  1  0.83962400  0.00000000  0.44325000  1
  O  O5  1  0.12579700  0.00000000  0.94008100  1
loop_
_geom_bond_atom_site_label_1
_geom_bond_atom_site_label_2
_geom_bond_distance
_geom_bond_site_symmetry_2
Na0 O3 2.215025 1_655
Na0 O1 2.379670 1_555
Na0 O0 2.401965 1_555
Na0 O4 2.462907 1_565
Na1 O5 2.322492 1_564
Na1 O0 2.323125 1_554
Na1 O2 2.491748 1_554
Na1 O1 2.603934 1_555
Na1 O1 2.655139 1_554
Na2 O1 2.215035 1_555
Na2 O3 2.379693 1_555
Na2 O2 2.401937 1_555
Na2 O4 2.462888 1_555
Na3 O5 2.322511 1_554
Na3 O2 2.323096 1_554
Na3 O0 2.491759 1_454
Na3 O3 2.603943 1_555
Na3 O3 2.655137 1_554
Mg0 O3 2.113730 1_555
Mg0 O1 2.113767 1_545
Mg0 O4 2.117551 1_555
Mg0 O0 2.133097 1_545
Mg0 O2 2.133129 1_555
Fe0 O2 1.888755 1_554
Fe0 O0 1.888759 1_544
Fe0 O5 1.914113 1_654
Fe0 O4 1.955195 1_555
Fe1 O1 1.902830 1_555
Fe1 O3 1.902833 1_565
Fe1 O5 1.948810 1_565
Fe1 O4 1.963818 1_465
