# generated using pymatgen
data_MgNi4(OF2)4
_symmetry_space_group_name_H-M   'P 1'
_cell_length_a   7.73273088
_cell_length_b   4.00335430
_cell_length_c   7.87935560
_cell_angle_alpha   90.66090729
_cell_angle_beta   115.59273700
_cell_angle_gamma   89.03998088
_symmetry_Int_Tables_number   1
_chemical_formula_structural   MgNi4(OF2)4
_chemical_formula_sum   'Mg1 Ni4 O4 F8'
_cell_volume   219.95507888
_cell_formula_units_Z   1
loop_
 _symmetry_equiv_pos_site_id
 _symmetry_equiv_pos_as_xyz
  1  'x, y, z'
loop_
 _atom_site_type_symbol
 _atom_site_label
 _atom_site_symmetry_multiplicity
 _atom_site_fract_x
 _atom_site_fract_y
 _atom_site_fract_z
 _atom_site_occupancy
  Mg  Mg0  1  0.80394090  0.22736792  0.13676466  1
  Ni  Ni0  1  0.30983231  0.22516941  0.67095529  1
  Ni  Ni1  1  0.30764435  0.28577703  0.16772912  1
  Ni  Ni2  1  0.67548185  0.70765814  0.81263729  1
  Ni  Ni3  1  0.66307342  0.78963298  0.33930056  1
  O  O0  1  0.96845662  0.63567759  0.94884340  1
  O  O1  1  0.94561218  0.95300799  0.40813936  1
  O  O2  1  0.03441997  0.08644154  0.57961492  1
  O  O3  1  0.02217153  0.37620562  0.07129920  1
  F  F0  1  0.32506744  0.25843333  0.92638636  1
  F  F1  1  0.30798967  0.25770298  0.42041484  1
  F  F2  1  0.38904133  0.72943512  0.70059926  1
  F  F3  1  0.37826010  0.77829117  0.20486276  1
  F  F4  1  0.65280041  0.21314711  0.85342819  1
  F  F5  1  0.63476857  0.28305271  0.27480343  1
  F  F6  1  0.71110778  0.72385252  0.59055821  1
  F  F7  1  0.72033158  0.73581385  0.09902016  1
loop_
_geom_bond_atom_site_label_1
_geom_bond_atom_site_label_2
_geom_bond_distance
_geom_bond_site_symmetry_2
Mg0 O3 2.064376 1_655
Mg0 O1 2.229074 1_545
Ni0 O2 2.016979 1_555
Ni1 O3 2.027772 1_555
Ni2 O0 2.062037 1_555
Ni3 O1 2.123960 1_555
O0 O3 1.358287 1_656
O1 O2 1.332852 1_665
F0 Ni1 1.965289 1_556
F0 Ni0 1.967688 1_555
F1 Ni0 1.973777 1_555
F1 Ni1 1.994312 1_555
F2 Ni2 1.999748 1_555
F2 Ni0 2.052977 1_565
F2 Ni0 2.100486 1_555
F3 Ni3 1.990313 1_555
F3 Ni1 2.038665 1_555
F3 Ni1 2.085635 1_565
F4 Mg0 2.024442 1_556
F4 Ni2 2.031822 1_555
F4 Ni2 2.061803 1_545
F4 Ni0 2.409577 1_555
F5 Ni3 2.029947 1_545
F5 Mg0 2.039085 1_555
F5 Ni3 2.077026 1_555
F5 Ni1 2.294803 1_555
F6 Ni3 1.870873 1_555
F6 Ni2 1.887252 1_555
F7 Mg0 2.059600 1_565
F7 Mg0 2.110311 1_555
F7 Ni3 2.130370 1_555
F7 Ni2 2.131705 1_554
