# generated using pymatgen
data_MgMn6(O2F)4
_symmetry_space_group_name_H-M   'P 1'
_cell_length_a   8.31019175
_cell_length_b   5.78454397
_cell_length_c   6.06084254
_cell_angle_alpha   65.85662770
_cell_angle_beta   62.60680759
_cell_angle_gamma   65.67260886
_symmetry_Int_Tables_number   1
_chemical_formula_structural   MgMn6(O2F)4
_chemical_formula_sum   'Mg1 Mn6 O8 F4'
_cell_volume   226.87078828
_cell_formula_units_Z   1
loop_
 _symmetry_equiv_pos_site_id
 _symmetry_equiv_pos_as_xyz
  1  'x, y, z'
loop_
 _atom_site_type_symbol
 _atom_site_label
 _atom_site_symmetry_multiplicity
 _atom_site_fract_x
 _atom_site_fract_y
 _atom_site_fract_z
 _atom_site_occupancy
  Mg  Mg0  1  0.16302600  0.31806400  0.85426400  1
  Mn  Mn0  1  0.82050500  0.66278500  0.66346900  1
  Mn  Mn1  1  0.65476000  0.33553300  0.34218400  1
  Mn  Mn2  1  0.33983200  0.68725800  0.65371200  1
  Mn  Mn3  1  0.18787000  0.34822300  0.34086800  1
  Mn  Mn4  1  0.51795200  0.00277900  0.00491500  1
  Mn  Mn5  1  0.96943800  0.95153300  0.99270900  1
  O  O0  1  0.67667800  0.03509100  0.64112000  1
  O  O1  1  0.33563300  0.36409000  0.97358700  1
  O  O2  1  0.07902400  0.72489100  0.77100900  1
  O  O3  1  0.37333000  0.43933500  0.48504900  1
  O  O4  1  0.34034500  0.98514000  0.35830300  1
  O  O5  1  0.67132100  0.63887200  0.03370600  1
  O  O6  1  0.00232300  0.29496000  0.70004300  1
  O  O7  1  0.99006000  0.67769400  0.30334600  1
  F  F0  1  0.28589200  0.92675700  0.87391000  1
  F  F1  1  0.61283100  0.59395200  0.56521400  1
  F  F2  1  0.95272900  0.21488800  0.18644800  1
  F  F3  1  0.68755900  0.10767700  0.11725200  1
loop_
_geom_bond_atom_site_label_1
_geom_bond_atom_site_label_2
_geom_bond_distance
_geom_bond_site_symmetry_2
Mg0 O6 2.018148 1_555
Mg0 O1 2.019432 1_555
Mg0 O2 2.068629 1_555
Mg0 O3 2.163609 1_555
Mn0 O7 1.967977 1_555
Mn0 O0 1.968392 1_565
Mn0 O5 1.979617 1_556
Mn0 O6 2.032944 1_655
Mn0 O2 2.699110 1_655
Mn1 O0 1.950182 1_555
Mn1 O5 1.967711 1_555
Mn1 O3 1.996210 1_555
Mn2 O2 1.889521 1_555
Mn2 O4 1.910508 1_555
Mn2 O3 1.946191 1_555
Mn2 O1 2.069095 1_555
Mn3 O4 1.943422 1_545
Mn3 O7 1.947922 1_455
Mn3 O1 1.970260 1_554
Mn3 O6 1.991329 1_555
Mn3 O3 2.387892 1_555
Mn4 O5 1.944157 1_545
Mn4 O4 1.952599 1_545
Mn4 O0 1.956059 1_554
Mn4 O1 2.007711 1_554
Mn5 O2 1.919636 1_655
Mn5 O7 1.927892 1_556
Mn5 O6 2.070299 1_665
F0 Mg0 2.041448 1_565
F0 Mn2 2.086080 1_555
F0 Mn5 2.342283 1_455
F0 Mn4 2.633651 1_566
F1 Mn2 1.958093 1_555
F1 Mn1 2.230157 1_555
F1 Mn0 2.279785 1_555
F2 Mg0 2.025460 1_654
F2 Mn1 2.115142 1_555
F2 Mn5 2.204039 1_544
F3 Mn5 2.015002 1_544
F3 Mn1 2.121803 1_555
F3 Mn4 2.178074 1_555
