# generated using pymatgen
data_Ce(FeGe)2
_symmetry_space_group_name_H-M   'P 1'
_cell_length_a   6.18647213
_cell_length_b   6.18647213
_cell_length_c   6.18647213
_cell_angle_alpha   142.31618214
_cell_angle_beta   142.31618214
_cell_angle_gamma   54.35281194
_symmetry_Int_Tables_number   1
_chemical_formula_structural   Ce(FeGe)2
_chemical_formula_sum   'Ce1 Fe2 Ge2'
_cell_volume   87.87763193
_cell_formula_units_Z   1
loop_
 _symmetry_equiv_pos_site_id
 _symmetry_equiv_pos_as_xyz
  1  'x, y, z'
loop_
 _atom_site_type_symbol
 _atom_site_label
 _atom_site_symmetry_multiplicity
 _atom_site_fract_x
 _atom_site_fract_y
 _atom_site_fract_z
 _atom_site_occupancy
  Ce  Ce0  1  -0.00000000  -0.00000000  0.00000000  1
  Fe  Fe0  1  0.75000000  0.25000000  0.50000000  1
  Fe  Fe1  1  0.25000000  0.75000000  0.50000000  1
  Ge  Ge0  1  0.61746960  0.61746960  0.00000000  1
  Ge  Ge1  1  0.38253040  0.38253040  -0.00000000  1
loop_
_geom_bond_atom_site_label_1
_geom_bond_atom_site_label_2
_geom_bond_distance
_geom_bond_site_symmetry_2
Ce0 Ge0 3.107346 1_455
Ce0 Ge0 3.107346 1_556
Ce0 Ge0 3.107346 1_444
Ce0 Ge0 3.107346 1_545
Ce0 Ge1 3.107346 1_444
Ce0 Ge1 3.107346 1_545
Ce0 Ge1 3.107346 1_556
Ce0 Ge1 3.107346 1_455
Ce0 Fe1 3.400596 1_545
Ce0 Fe1 3.400596 1_555
Ce0 Fe0 3.400596 1_444
Ce0 Fe0 3.400596 1_454
Ce0 Fe0 3.400596 1_455
Ce0 Fe1 3.400596 1_444
Ce0 Fe1 3.400596 1_544
Ce0 Fe0 3.400596 1_555
Fe0 Ge1 2.473840 1_555
Fe0 Ge0 2.473840 1_545
Fe0 Ge1 2.473840 1_656
Fe0 Ge0 2.473840 1_556
Fe1 Ge1 2.473840 1_555
Fe1 Ge0 2.473840 1_455
Fe1 Ge0 2.473840 1_556
Fe1 Ge1 2.473840 1_566
Ge0 Ge1 2.585982 1_555
