# generated using pymatgen
data_Na3LaZr3Si3(SO8)3
_symmetry_space_group_name_H-M   'P 1'
_cell_length_a   9.19107849
_cell_length_b   9.26807370
_cell_length_c   23.79525233
_cell_angle_alpha   89.70280132
_cell_angle_beta   90.49014469
_cell_angle_gamma   120.38814059
_symmetry_Int_Tables_number   1
_chemical_formula_structural   Na3LaZr3Si3(SO8)3
_chemical_formula_sum   'Na9 La3 Zr9 Si9 S9 O72'
_cell_volume   1748.43251695
_cell_formula_units_Z   3
loop_
 _symmetry_equiv_pos_site_id
 _symmetry_equiv_pos_as_xyz
  1  'x, y, z'
loop_
 _atom_site_type_symbol
 _atom_site_label
 _atom_site_symmetry_multiplicity
 _atom_site_fract_x
 _atom_site_fract_y
 _atom_site_fract_z
 _atom_site_occupancy
  Na  Na0  1  0.35258438  0.35667673  0.24087745  1
  Na  Na1  1  0.63391165  0.62144179  0.75688317  1
  Na  Na2  1  0.96920097  0.28844145  0.41780771  1
  Na  Na3  1  0.99302993  0.01066597  0.50065652  1
  Na  Na4  1  0.99442547  0.98527270  0.00295663  1
  Na  Na5  1  0.66117479  0.34219510  0.83261095  1
  Na  Na6  1  0.67371041  0.32038179  0.33063899  1
  Na  Na7  1  0.30421840  0.65152233  0.16308320  1
  Na  Na8  1  0.28983864  0.64214696  0.66697976  1
  La  La0  1  0.99403280  0.00123701  0.35582439  1
  La  La1  1  0.68144803  0.33673864  0.68565585  1
  La  La2  1  0.69241091  0.34704867  0.17533798  1
  Zr  Zr0  1  0.00697802  0.99175459  0.85467973  1
  Zr  Zr1  1  0.01657684  0.01862774  0.64915333  1
  Zr  Zr2  1  0.01298248  0.01527987  0.14363884  1
  Zr  Zr3  1  0.66329684  0.35990659  0.98332744  1
  Zr  Zr4  1  0.65941396  0.31643732  0.48047862  1
  Zr  Zr5  1  0.33725724  0.65906193  0.01789966  1
  Zr  Zr6  1  0.33834062  0.65772136  0.51817099  1
  Zr  Zr7  1  0.33965378  0.66198362  0.31690919  1
  Zr  Zr8  1  0.32192251  0.65275887  0.81349924  1
  Si  Si0  1  0.00503338  0.30414363  0.25235100  1
  Si  Si1  1  0.28771805  0.29303717  0.75459316  1
  Si  Si2  1  0.01133981  0.72297192  0.75046038  1
  Si  Si3  1  0.96972297  0.33074590  0.58068518  1
  Si  Si4  1  0.97862907  0.64849863  0.08016301  1
  Si  Si5  1  0.36722127  0.33627597  0.08477817  1
  Si  Si6  1  0.62606317  0.67244004  0.91448703  1
  Si  Si7  1  0.61487185  0.95780281  0.41943285  1
  Si  Si8  1  0.34785240  0.38206081  0.41813597  1
  S  S0  1  0.29184692  0.98952019  0.24837538  1
  S  S1  1  0.69386541  0.70422825  0.24838849  1
  S  S2  1  0.71184234  0.98825850  0.75347737  1
  S  S3  1  0.36195896  0.02894137  0.58078778  1
  S  S4  1  0.67123732  0.63658773  0.58181921  1
  S  S5  1  0.66683386  0.03048173  0.07863616  1
  S  S6  1  0.03812186  0.37308863  0.91707139  1
  S  S7  1  0.33950140  0.95788747  0.91661304  1
  S  S8  1  0.04363886  0.65385128  0.41971580  1
  O  O0  1  0.21282651  0.00690447  0.29987278  1
  O  O1  1  0.79024654  0.77497403  0.30088849  1
  O  O2  1  0.99617759  0.21125888  0.31165075  1
  O  O3  1  0.18030683  0.18114681  0.80790581  1
  O  O4  1  0.98822117  0.81665954  0.80562753  1
  O  O5  1  0.81351266  0.00402526  0.80379644  1
  O  O6  1  0.79232848  0.97213667  0.70129875  1
  O  O7  1  0.17757264  0.20457728  0.69623947  1
  O  O8  1  0.02245855  0.83266425  0.69408992  1
  O  O9  1  0.78427314  0.80377912  0.19888256  1
  O  O10  1  0.02535238  0.19386641  0.19929700  1
  O  O11  1  0.18458008  0.97262177  0.19817649  1
  O  O12  1  0.89377531  0.36118890  0.63742650  1
  O  O13  1  0.45794104  0.09669481  0.63263479  1
  O  O14  1  0.63838859  0.54414337  0.63524520  1
  O  O15  1  0.92543754  0.54033348  0.13731108  1
  O  O16  1  0.63238813  0.08802889  0.13160726  1
  O  O17  1  0.45689550  0.36495169  0.14540741  1
  O  O18  1  0.47259137  0.31162430  0.03276402  1
  O  O19  1  0.84261837  0.53761564  0.02849905  1
  O  O20  1  0.69189209  0.14401406  0.03094788  1
  O  O21  1  0.45206514  0.14249245  0.53210158  1
  O  O22  1  0.68514463  0.54107590  0.53445067  1
  O  O23  1  0.84617356  0.31127136  0.52581143  1
  O  O24  1  0.52523017  0.68848728  0.96729653  1
  O  O25  1  0.14387032  0.45763012  0.96640246  1
  O  O26  1  0.31315740  0.85556000  0.96648372  1
  O  O27  1  0.50945440  0.85101907  0.47330454  1
  O  O28  1  0.32249894  0.48358183  0.46932769  1
  O  O29  1  0.14376772  0.66928581  0.47009296  1
  O  O30  1  0.12445720  0.63636780  0.36790287  1
  O  O31  1  0.50588718  0.86495182  0.36185553  1
  O  O32  1  0.36212080  0.48953404  0.35971915  1
  O  O33  1  0.11904660  0.47912468  0.86577231  1
  O  O34  1  0.35282860  0.87358989  0.86546111  1
  O  O35  1  0.51185714  0.64908266  0.85738566  1
  O  O36  1  0.02098895  0.79902358  0.41740620  1
  O  O37  1  0.80557405  0.98881451  0.42227111  1
  O  O38  1  0.17667135  0.20021354  0.41945866  1
  O  O39  1  0.02484648  0.20766564  0.91106383  1
  O  O40  1  0.18752554  0.97974395  0.91114590  1
  O  O41  1  0.81560137  0.83945407  0.90999187  1
  O  O42  1  0.98259007  0.15872760  0.58728796  1
  O  O43  1  0.19304280  0.01659700  0.58428571  1
  O  O44  1  0.82563745  0.80472883  0.58553287  1
  O  O45  1  0.98014568  0.82524911  0.08981667  1
  O  O46  1  0.82135222  0.01559073  0.08538291  1
  O  O47  1  0.17751709  0.16566153  0.08669289  1
  O  O48  1  0.68730683  0.13257069  0.75142545  1
  O  O49  1  0.47819074  0.32538438  0.75279771  1
  O  O50  1  0.83851290  0.54101862  0.75093014  1
  O  O51  1  0.65460578  0.52802701  0.24546181  1
  O  O52  1  0.84305255  0.32896631  0.24948971  1
  O  O53  1  0.45843339  0.14351166  0.24366023  1
  O  O54  1  0.64238433  0.50126721  0.92219209  1
  O  O55  1  0.86799937  0.35332825  0.92256758  1
  O  O56  1  0.49280053  0.12712112  0.92184117  1
  O  O57  1  0.63993178  0.15006132  0.42309590  1
  O  O58  1  0.52010987  0.37433226  0.42697231  1
  O  O59  1  0.87608702  0.49488763  0.42326924  1
  O  O60  1  0.34117224  0.49470852  0.07024059  1
  O  O61  1  0.16380736  0.67911179  0.06343748  1
  O  O62  1  0.52121805  0.86020860  0.06861161  1
  O  O63  1  0.33653672  0.86011748  0.57135066  1
  O  O64  1  0.52360578  0.66171213  0.57334652  1
  O  O65  1  0.15759183  0.49684811  0.57293777  1
  O  O66  1  0.30654579  0.83739697  0.25220745  1
  O  O67  1  0.52691055  0.69869896  0.25227130  1
  O  O68  1  0.18763517  0.48778375  0.25404788  1
  O  O69  1  0.30600355  0.48206308  0.75838252  1
  O  O70  1  0.18078887  0.70736563  0.75879772  1
  O  O71  1  0.54425710  0.82901807  0.75701718  1
loop_
_geom_bond_atom_site_label_1
_geom_bond_atom_site_label_2
_geom_bond_distance
_geom_bond_site_symmetry_2
Na0 O68 2.397703 1_555
Na0 O51 2.403367 1_555
Na0 O17 2.459042 1_555
Na0 O53 2.606921 1_555
Na0 O67 2.748081 1_555
Na0 O10 2.770327 1_555
Na1 O50 2.352802 1_555
Na1 O49 2.369395 1_555
Na1 O71 2.446243 1_555
Na1 O69 2.610690 1_555
Na1 O35 2.717771 1_555
Na2 O37 2.399796 1_545
Na2 O38 2.425338 1_655
Na2 O59 2.464021 1_555
Na2 O57 2.626303 1_555
Na2 O2 2.676362 1_555
Na2 O23 2.868025 1_555
Na3 O37 2.466652 1_545
Na3 O42 2.511504 1_555
Na3 O38 2.586280 1_655
Na3 O44 2.670441 1_545
Na3 O43 2.679331 1_655
Na3 O36 2.897719 1_645
Na4 O45 2.502927 1_555
Na4 O47 2.593827 1_665
Na4 O46 2.639621 1_565
Na4 O41 2.672611 1_554
Na4 O40 2.843374 1_654
Na4 O39 2.913496 1_664
Na5 O49 2.478505 1_555
Na5 O50 2.609268 1_555
Na5 O54 2.653979 1_555
Na5 O56 2.787090 1_555
Na5 O55 2.817866 1_555
Na5 O48 2.843088 1_555
Na6 O52 2.466172 1_555
Na6 O57 2.628342 1_555
Na6 O53 2.751249 1_555
Na6 O59 2.803067 1_555
Na6 O51 2.852668 1_555
Na6 O58 2.877329 1_555
Na7 O68 2.548874 1_555
Na7 O66 2.732308 1_555
Na7 O61 2.761911 1_555
Na7 O60 2.766550 1_555
Na7 O67 2.813245 1_555
Na7 O62 2.983453 1_555
Na8 O65 2.574320 1_555
Na8 O70 2.609122 1_555
Na8 O69 2.671661 1_555
Na8 O63 2.921485 1_555
Na8 O71 2.985498 1_555
Na8 O64 3.049080 1_555
La0 O2 2.198730 1_555
La0 O37 2.314454 1_545
La0 O38 2.316255 1_655
La0 O1 2.372192 1_545
La0 O0 2.399474 1_655
La0 O36 2.481143 1_645
La1 O12 2.182896 1_555
La1 O50 2.303905 1_555
La1 O49 2.429817 1_555
La1 O14 2.455228 1_555
La1 O48 2.470556 1_555
La1 O13 2.474329 1_555
La2 O15 2.179373 1_555
La2 O52 2.290916 1_555
La2 O17 2.357162 1_555
La2 O16 2.413780 1_555
La2 O51 2.519328 1_555
La2 O53 2.598077 1_555
O0 S0 1.480101 1_545
O1 S1 1.475533 1_555
O2 Si0 1.630108 1_655
O3 Si1 1.622142 1_555
O3 Zr0 2.009660 1_545
O4 Si2 1.650935 1_655
O4 Zr0 1.938744 1_655
O5 S2 1.474025 1_545
O5 Zr0 2.192507 1_645
O6 S2 1.496866 1_555
O6 Zr1 2.261210 1_665
O7 Si1 1.665270 1_555
O7 Zr1 1.956191 1_555
O8 Si2 1.651151 1_555
O8 Zr1 2.047185 1_565
O9 S1 1.469445 1_555
O9 Zr2 2.416806 1_665
O10 Si0 1.698159 1_555
O10 Zr2 2.082373 1_555
O11 S0 1.499640 1_555
O11 Zr2 2.217745 1_565
O12 Si3 1.615293 1_555
O13 S3 1.457247 1_555
O14 S4 1.474773 1_555
O15 Si4 1.610768 1_555
O16 S5 1.469044 1_555
O17 Si5 1.610377 1_555
O18 Si5 1.664122 1_555
O18 Zr3 1.972970 1_554
O19 Si4 1.678461 1_555
O19 Zr3 1.956058 1_554
O20 S5 1.481485 1_555
O20 Zr3 2.420772 1_554
O21 S3 1.502508 1_555
O21 Zr4 2.156619 1_555
O22 S4 1.482460 1_555
O22 Zr4 2.358875 1_555
O23 Si3 1.672339 1_555
O23 Zr4 2.040411 1_555
O24 Si6 1.619076 1_555
O24 Zr5 2.016092 1_556
O25 S6 1.468355 1_555
O25 Zr5 2.185281 1_556
O26 S7 1.458490 1_555
O26 Zr5 2.289736 1_556
O27 Si7 1.612276 1_555
O27 Zr6 1.995261 1_555
O28 Si8 1.631560 1_555
O28 Zr6 1.937941 1_555
O29 S8 1.467681 1_555
O29 Zr6 2.162423 1_555
O30 S8 1.495854 1_555
O30 Zr7 2.236911 1_555
O31 Si7 1.654588 1_555
O31 Zr7 2.025340 1_555
O32 Si8 1.672774 1_555
O32 Zr7 1.987017 1_555
O33 S6 1.507526 1_555
O33 Zr8 2.144029 1_555
O34 S7 1.488672 1_555
O34 Zr8 2.287015 1_555
O35 Si6 1.656387 1_555
O35 Zr8 2.041519 1_555
O36 S8 1.462550 1_555
O37 Si7 1.627217 1_555
O38 Si8 1.623099 1_555
O39 S6 1.482766 1_555
O39 Zr0 2.350101 1_545
O40 S7 1.513919 1_555
O40 Zr0 2.172235 1_555
O41 Si6 1.647897 1_555
O41 Zr0 2.080165 1_655
O42 Si3 1.663800 1_555
O42 Zr1 2.081660 1_655
O43 S3 1.500917 1_555
O43 Zr1 2.255547 1_555
O44 S4 1.487291 1_555
O44 Zr1 2.401567 1_665
O45 Si4 1.648393 1_555
O45 Zr2 2.076588 1_665
O46 S5 1.501974 1_555
O46 Zr2 2.233172 1_655
O47 Si5 1.659465 1_555
O47 Zr2 1.987125 1_555
O48 S2 1.465065 1_545
O49 Si1 1.620691 1_555
O50 Si2 1.630082 1_655
O51 S1 1.485422 1_555
O52 Si0 1.618223 1_655
O53 S0 1.477931 1_545
O54 Si6 1.676364 1_555
O54 Zr3 2.024813 1_555
O55 S6 1.486289 1_655
O55 Zr3 2.407770 1_555
O56 S7 1.491311 1_545
O56 Zr3 2.413296 1_555
O57 Si7 1.679805 1_545
O57 Zr4 2.003126 1_555
O58 Si8 1.632436 1_555
O58 Zr4 2.051420 1_555
O59 S8 1.501599 1_655
O59 Zr4 2.290247 1_555
O60 Si5 1.637701 1_555
O60 Zr5 1.976801 1_555
O61 Si4 1.630192 1_455
O61 Zr5 2.020268 1_555
O62 S5 1.483295 1_565
O62 Zr5 2.142380 1_555
O63 S3 1.478543 1_565
O63 Zr6 2.275243 1_555
O64 S4 1.500173 1_555
O64 Zr6 2.126766 1_555
O65 Si3 1.642748 1_455
O65 Zr6 2.047466 1_555
O66 S0 1.485097 1_555
O66 Zr7 2.360617 1_555
O67 S1 1.512831 1_555
O67 Zr7 2.211554 1_555
O68 Si0 1.680701 1_555
O68 Zr7 2.122101 1_555
O69 Si1 1.676022 1_555
O69 Zr8 2.007071 1_555
O70 Si2 1.645647 1_555
O70 Zr8 2.064342 1_555
O71 S2 1.502929 1_555
O71 Zr8 2.301677 1_555
