# generated using pymatgen
data_Ba4MgCo(ReO6)2
_symmetry_space_group_name_H-M   'P 1'
_cell_length_a   5.85290290
_cell_length_b   5.85230203
_cell_length_c   10.26413249
_cell_angle_alpha   73.40104560
_cell_angle_beta   73.38722122
_cell_angle_gamma   60.01880630
_symmetry_Int_Tables_number   1
_chemical_formula_structural   Ba4MgCo(ReO6)2
_chemical_formula_sum   'Ba4 Mg1 Co1 Re2 O12'
_cell_volume   287.46947246
_cell_formula_units_Z   1
loop_
 _symmetry_equiv_pos_site_id
 _symmetry_equiv_pos_as_xyz
  1  'x, y, z'
loop_
 _atom_site_type_symbol
 _atom_site_label
 _atom_site_symmetry_multiplicity
 _atom_site_fract_x
 _atom_site_fract_y
 _atom_site_fract_z
 _atom_site_occupancy
  Ba  Ba0  1  0.28663900  0.28655700  0.14072400  1
  Ba  Ba1  1  0.71336100  0.71344300  0.85927600  1
  Ba  Ba2  1  0.12958200  0.12959700  0.61129700  1
  Ba  Ba3  1  0.87041800  0.87040300  0.38870300  1
  Mg  Mg0  1  0.50000000  0.50000000  0.50000000  1
  Co  Co0  1  0.00000000  0.00000000  0.00000000  1
  Re  Re0  1  0.40930000  0.40935500  0.77196700  1
  Re  Re1  1  0.59070000  0.59064500  0.22803300  1
  O  O0  1  0.30593100  0.78476100  0.12461700  1
  O  O1  1  0.78518500  0.78515500  0.12401500  1
  O  O2  1  0.78485600  0.30581200  0.12453700  1
  O  O3  1  0.69406900  0.21523900  0.87538300  1
  O  O4  1  0.21481500  0.21484500  0.87598500  1
  O  O5  1  0.21514300  0.69418800  0.87546300  1
  O  O6  1  0.14802500  0.60478500  0.64197200  1
  O  O7  1  0.60512500  0.60516700  0.64163000  1
  O  O8  1  0.60478000  0.14803700  0.64190600  1
  O  O9  1  0.85197500  0.39521500  0.35802800  1
  O  O10  1  0.39487500  0.39483300  0.35837000  1
  O  O11  1  0.39522000  0.85196300  0.35809400  1
loop_
_geom_bond_atom_site_label_1
_geom_bond_atom_site_label_2
_geom_bond_distance
_geom_bond_site_symmetry_2
Ba0 O9 2.792901 1_455
Ba0 O11 2.793515 1_545
Ba0 O10 2.795094 1_555
Ba0 O0 2.929845 1_555
Ba0 O2 2.929869 1_555
Ba0 O1 2.932270 1_545
Ba0 O0 2.932469 1_545
Ba0 O1 2.932666 1_455
Ba0 O2 2.933115 1_455
Ba0 O4 3.036069 1_554
Ba0 O3 3.036326 1_554
Ba0 O5 3.036753 1_554
Ba1 O6 2.792901 1_655
Ba1 O8 2.793515 1_565
Ba1 O7 2.795094 1_555
Ba1 O3 2.929845 1_555
Ba1 O5 2.929875 1_555
Ba1 O4 2.932270 1_565
Ba1 O3 2.932469 1_565
Ba1 O4 2.932666 1_655
Ba1 O5 2.933110 1_655
Ba1 O1 3.036069 1_556
Ba1 O0 3.036326 1_556
Ba1 O2 3.036753 1_556
Ba2 O6 2.943492 1_555
Ba2 O8 2.943622 1_555
Ba2 O7 2.945395 1_545
Ba2 O7 2.945449 1_455
Ba2 O6 2.946118 1_545
Ba2 O8 2.946430 1_455
Ba2 O10 3.059671 1_555
Ba2 O11 3.064143 1_545
Ba2 O9 3.065350 1_455
Ba2 O3 3.105583 1_455
Ba2 O5 3.106334 1_545
Ba2 O4 3.110759 1_555
Ba3 O9 2.943492 1_555
Ba3 O11 2.943622 1_555
Ba3 O10 2.945395 1_565
Ba3 O10 2.945449 1_655
Ba3 O9 2.946118 1_565
Ba3 O11 2.946430 1_655
Ba3 O7 3.059671 1_555
Ba3 O8 3.064143 1_565
Ba3 O6 3.065350 1_655
Ba3 O0 3.105583 1_655
Ba3 O2 3.106334 1_565
Ba3 O1 3.110759 1_555
Mg0 O7 2.066824 1_555
Mg0 O10 2.066824 1_555
Mg0 O8 2.067490 1_555
Mg0 O11 2.067490 1_555
Mg0 O6 2.067578 1_555
Mg0 O9 2.067578 1_555
Co0 O4 2.128937 1_554
Co0 O1 2.128937 1_445
Co0 O2 2.134706 1_455
Co0 O5 2.134706 1_544
Co0 O0 2.136307 1_545
Co0 O3 2.136307 1_454
O0 Re1 1.904091 1_555
O1 Re1 1.907130 1_555
O2 Re1 1.904402 1_555
O3 Re0 1.904091 1_555
O4 Re0 1.907130 1_555
O5 Re0 1.904402 1_555
O6 Re0 1.993424 1_555
O7 Re0 1.994137 1_555
O8 Re0 1.993564 1_555
O9 Re1 1.993424 1_555
O10 Re1 1.994137 1_555
O11 Re1 1.993564 1_555
