# generated using pymatgen
data_BaMgMnO3
_symmetry_space_group_name_H-M   'P 1'
_cell_length_a   6.60005552
_cell_length_b   4.01585338
_cell_length_c   4.01586541
_cell_angle_alpha   90.00000000
_cell_angle_beta   90.00000000
_cell_angle_gamma   90.00000000
_symmetry_Int_Tables_number   1
_chemical_formula_structural   BaMgMnO3
_chemical_formula_sum   'Ba1 Mg1 Mn1 O3'
_cell_volume   106.43993147
_cell_formula_units_Z   1
loop_
 _symmetry_equiv_pos_site_id
 _symmetry_equiv_pos_as_xyz
  1  'x, y, z'
loop_
 _atom_site_type_symbol
 _atom_site_label
 _atom_site_symmetry_multiplicity
 _atom_site_fract_x
 _atom_site_fract_y
 _atom_site_fract_z
 _atom_site_occupancy
  Ba  Ba0  1  0.50000000  0.50000000  0.50000000  1
  Mg  Mg0  1  0.00000000  0.50000000  0.50000000  1
  Mn  Mn0  1  0.00000000  0.00000000  0.00000000  1
  O  O0  1  0.50000000  -0.00000000  -0.00000000  1
  O  O1  1  0.00000000  0.50000000  -0.00000000  1
  O  O2  1  0.00000000  -0.00000000  0.50000000  1
loop_
_geom_bond_atom_site_label_1
_geom_bond_atom_site_label_2
_geom_bond_distance
_geom_bond_site_symmetry_2
Ba0 O0 2.839641 1_565
Ba0 O0 2.839641 1_555
Ba0 O0 2.839641 1_566
Ba0 O0 2.839641 1_556
Mg0 O2 2.007927 1_555
Mg0 O2 2.007927 1_565
Mg0 O1 2.007933 1_556
Mg0 O1 2.007933 1_555
Mn0 O1 2.007927 1_555
Mn0 O1 2.007927 1_545
Mn0 O2 2.007933 1_554
Mn0 O2 2.007933 1_555
