# generated using pymatgen
data_La3Si3Cl2
_symmetry_space_group_name_H-M   'P 1'
_cell_length_a   4.26389003
_cell_length_b   9.32398446
_cell_length_c   10.65191922
_cell_angle_alpha   97.76360579
_cell_angle_beta   90.00000000
_cell_angle_gamma   103.21770218
_symmetry_Int_Tables_number   1
_chemical_formula_structural   La3Si3Cl2
_chemical_formula_sum   'La6 Si6 Cl4'
_cell_volume   408.27531222
_cell_formula_units_Z   2
loop_
 _symmetry_equiv_pos_site_id
 _symmetry_equiv_pos_as_xyz
  1  'x, y, z'
loop_
 _atom_site_type_symbol
 _atom_site_label
 _atom_site_symmetry_multiplicity
 _atom_site_fract_x
 _atom_site_fract_y
 _atom_site_fract_z
 _atom_site_occupancy
  La  La0  1  0.31987572  0.63975144  0.85132477  1
  La  La1  1  0.68012428  0.36024856  0.14867523  1
  La  La2  1  0.61603661  0.23207422  0.49037671  1
  La  La3  1  0.38396339  0.76792578  0.50962329  1
  La  La4  1  0.53576391  0.07152782  0.83080848  1
  La  La5  1  0.46423609  0.92847218  0.16919152  1
  Si  Si0  1  0.06397879  0.12795658  0.05125562  1
  Si  Si1  1  0.93602121  0.87204342  0.94874438  1
  Si  Si2  1  0.91196557  0.82393014  0.72287992  1
  Si  Si3  1  0.08803443  0.17606986  0.27712008  1
  Si  Si4  1  0.01837121  0.03674241  0.61127886  1
  Si  Si5  1  0.98162879  0.96325759  0.38872114  1
  Cl  Cl0  1  0.77347888  0.54695975  0.39180785  1
  Cl  Cl1  1  0.22652112  0.45304025  0.60819215  1
  Cl  Cl2  1  0.70335617  0.40671234  0.87367742  1
  Cl  Cl3  1  0.29664383  0.59328766  0.12632258  1
loop_
_geom_bond_atom_site_label_1
_geom_bond_atom_site_label_2
_geom_bond_distance
_geom_bond_site_symmetry_2
La0 Si1 3.075808 1_555
La0 Si1 3.075811 1_455
La0 Si2 3.137955 1_455
La0 Si2 3.137958 1_555
La1 Si0 3.075808 1_555
La1 Si0 3.075811 1_655
La1 Si3 3.137955 1_655
La1 Si3 3.137958 1_555
La2 Si3 3.105361 1_655
La2 Si3 3.105361 1_555
La2 Si4 3.159274 1_555
La2 Si4 3.159277 1_655
La2 Si5 3.307301 1_445
La2 Si5 3.307304 1_545
La3 Si2 3.105361 1_455
La3 Si2 3.105361 1_555
La3 Si5 3.159274 1_555
La3 Si5 3.159277 1_455
La3 Si4 3.307301 1_665
La3 Si4 3.307304 1_565
La4 Si4 3.147721 1_555
La4 Si4 3.147721 1_655
La4 Si0 3.160334 1_556
La4 Si0 3.160337 1_656
La4 Si1 3.167539 1_545
La4 Si1 3.167542 1_445
La4 Si2 3.193868 1_445
La4 Si2 3.193870 1_545
La5 Si5 3.147721 1_555
La5 Si5 3.147721 1_455
La5 Si1 3.160334 1_554
La5 Si1 3.160337 1_454
La5 Si0 3.167539 1_565
La5 Si0 3.167542 1_665
La5 Si3 3.193868 1_665
La5 Si3 3.193870 1_565
Si0 Si3 2.384835 1_555
Si0 Si1 2.425767 1_444
Si1 Si2 2.384835 1_555
Si2 Si4 2.404555 1_665
Si3 Si5 2.404555 1_445
Si4 Si5 2.371947 1_445
Cl0 La1 2.891603 1_555
Cl0 La3 3.073171 1_555
Cl0 La3 3.073180 1_655
Cl0 La2 3.178771 1_555
Cl1 La0 2.891603 1_555
Cl1 La2 3.073171 1_555
Cl1 La2 3.073180 1_455
Cl1 La3 3.178771 1_555
Cl2 La4 3.013225 1_555
Cl2 La1 3.016830 1_556
Cl2 La0 3.035804 1_555
Cl2 La0 3.035805 1_655
Cl3 La5 3.013225 1_555
Cl3 La0 3.016830 1_554
Cl3 La1 3.035804 1_555
Cl3 La1 3.035805 1_455
