# generated using pymatgen
data_Y2SiGe2S5O24
_symmetry_space_group_name_H-M   'P 1'
_cell_length_a   8.83294688
_cell_length_b   8.86635181
_cell_length_c   22.87111482
_cell_angle_alpha   89.54032271
_cell_angle_beta   90.04639749
_cell_angle_gamma   120.16338952
_symmetry_Int_Tables_number   1
_chemical_formula_structural   Y2SiGe2S5O24
_chemical_formula_sum   'Y6 Si3 Ge6 S15 O72'
_cell_volume   1548.58184658
_cell_formula_units_Z   3
loop_
 _symmetry_equiv_pos_site_id
 _symmetry_equiv_pos_as_xyz
  1  'x, y, z'
loop_
 _atom_site_type_symbol
 _atom_site_label
 _atom_site_symmetry_multiplicity
 _atom_site_fract_x
 _atom_site_fract_y
 _atom_site_fract_z
 _atom_site_occupancy
  Y  Y0  1  0.99227947  0.00184248  0.36513838  1
  Y  Y1  1  0.00426077  0.00279802  0.86188328  1
  Y  Y2  1  0.67831955  0.33707467  0.68023950  1
  Y  Y3  1  0.65708459  0.33421949  0.18444715  1
  Y  Y4  1  0.65417906  0.33007946  0.98784344  1
  Y  Y5  1  0.32948438  0.66370906  0.80400439  1
  Si  Si0  1  0.97795161  0.33822913  0.58062886  1
  Si  Si1  1  0.35073976  0.33392999  0.08445278  1
  Si  Si2  1  0.59432056  0.94718715  0.42022925  1
  Ge  Ge0  1  0.00082599  0.00822815  0.63982375  1
  Ge  Ge1  1  0.00552196  0.00450964  0.14782896  1
  Ge  Ge2  1  0.68670123  0.30976985  0.47934425  1
  Ge  Ge3  1  0.33227205  0.65945340  0.02265019  1
  Ge  Ge4  1  0.33773671  0.66121202  0.52008244  1
  Ge  Ge5  1  0.33871690  0.67671357  0.31664423  1
  S  S0  1  0.27879446  0.97681443  0.25169839  1
  S  S1  1  0.70289408  0.72077224  0.25051174  1
  S  S2  1  0.02024973  0.30502558  0.25132711  1
  S  S3  1  0.27934383  0.27735268  0.74405293  1
  S  S4  1  0.99858763  0.72786284  0.74383792  1
  S  S5  1  0.72402205  -0.00080232  0.74491720  1
  S  S6  1  0.36290150  0.03072203  0.58021385  1
  S  S7  1  0.67051901  0.63760574  0.57961080  1
  S  S8  1  0.98050471  0.64845903  0.08414363  1
  S  S9  1  0.66645064  0.01846267  0.08428410  1
  S  S10  1  0.61084424  0.66649902  0.92064737  1
  S  S11  1  0.05051491  0.38796956  0.92129686  1
  S  S12  1  0.33666954  0.94146492  0.92184141  1
  S  S13  1  0.35660301  0.39955042  0.41910804  1
  S  S14  1  0.04360256  0.64563931  0.41920975  1
  O  O0  1  0.20013176  0.00695235  0.30289706  1
  O  O1  1  0.81343140  0.80328675  0.30115344  1
  O  O2  1  0.98884493  0.19446367  0.30292075  1
  O  O3  1  0.20165868  0.17894989  0.79841549  1
  O  O4  1  0.98181737  0.80733533  0.79768734  1
  O  O5  1  0.82321382  0.02018120  0.79867006  1
  O  O6  1  0.80890111  0.97498963  0.69163992  1
  O  O7  1  0.16815822  0.19155949  0.69136020  1
  O  O8  1  0.02438589  0.83767034  0.68966467  1
  O  O9  1  0.78277301  0.83244456  0.19522423  1
  O  O10  1  0.05246383  0.22525557  0.19793151  1
  O  O11  1  0.16912425  0.94847398  0.19728591  1
  O  O12  1  0.90301631  0.38504280  0.63655734  1
  O  O13  1  0.47048931  0.10463056  0.63281893  1
  O  O14  1  0.63162783  0.52984322  0.63285172  1
  O  O15  1  0.90629770  0.53059062  0.13483608  1
  O  O16  1  0.63152448  0.09681428  0.13512535  1
  O  O17  1  0.48027564  0.37706603  0.13919049  1
  O  O18  1  0.42588003  0.28588679  0.02780794  1
  O  O19  1  0.87042675  0.57419652  0.03201439  1
  O  O20  1  0.71126579  0.13299326  0.03245119  1
  O  O21  1  0.44386608  0.15277163  0.52883080  1
  O  O22  1  0.70714637  0.55930090  0.52850958  1
  O  O23  1  0.83730347  0.29071589  0.52448864  1
  O  O24  1  0.52471686  0.69152021  0.97334395  1
  O  O25  1  0.16209070  0.47594855  0.97361943  1
  O  O26  1  0.31167878  0.83111029  0.97571155  1
  O  O27  1  0.50267914  0.82542917  0.47771641  1
  O  O28  1  0.31350064  0.47209653  0.47082169  1
  O  O29  1  0.15345103  0.67477359  0.47076109  1
  O  O30  1  0.11347356  0.60629834  0.36450772  1
  O  O31  1  0.47402568  0.86297117  0.35957590  1
  O  O32  1  0.38529800  0.50899304  0.36392898  1
  O  O33  1  0.12912984  0.48660142  0.86689571  1
  O  O34  1  0.35307940  0.86124060  0.86806737  1
  O  O35  1  0.51135074  0.64523408  0.86684444  1
  O  O36  1  0.02832991  0.80084520  0.41122624  1
  O  O37  1  0.78370023  0.96828814  0.41501096  1
  O  O38  1  0.20187616  0.22672450  0.41131147  1
  O  O39  1  0.03994414  0.21710023  0.91867322  1
  O  O40  1  0.17847009  0.95668725  0.91965649  1
  O  O41  1  0.78333604  0.82613191  0.91774662  1
  O  O42  1  0.99342604  0.16155886  0.59160266  1
  O  O43  1  0.18426743  0.01142257  0.58911617  1
  O  O44  1  0.82890361  0.81594774  0.58943351  1
  O  O45  1  0.99168679  0.82044689  0.09573766  1
  O  O46  1  0.81855549  0.99103141  0.09554257  1
  O  O47  1  0.15801246  0.15596650  0.09869832  1
  O  O48  1  0.70313004  0.15237731  0.73970941  1
  O  O49  1  0.45241268  0.29605980  0.73801098  1
  O  O50  1  0.84022817  0.55636408  0.73991048  1
  O  O51  1  0.68445756  0.54891896  0.24290073  1
  O  O52  1  0.87001531  0.32840329  0.24135717  1
  O  O53  1  0.45643802  0.12376639  0.24283882  1
  O  O54  1  0.63189072  0.51390197  0.92661282  1
  O  O55  1  0.87770749  0.36868470  0.92787414  1
  O  O56  1  0.49481530  0.11227405  0.92658541  1
  O  O57  1  0.61276710  0.14273528  0.42775463  1
  O  O58  1  0.51601449  0.38843902  0.42770237  1
  O  O59  1  0.86177940  0.49010310  0.42680995  1
  O  O60  1  0.33001570  0.50657097  0.07155039  1
  O  O61  1  0.16064369  0.67898198  0.07323985  1
  O  O62  1  0.50680891  0.84582720  0.07312999  1
  O  O63  1  0.33906826  0.85532406  0.57104475  1
  O  O64  1  0.51389420  0.65875362  0.57148612  1
  O  O65  1  0.17024692  0.50831208  0.56539632  1
  O  O66  1  0.28624608  0.80960846  0.25830071  1
  O  O67  1  0.52509610  0.70375827  0.25789699  1
  O  O68  1  0.18528216  0.48231109  0.25995119  1
  O  O69  1  0.29188810  0.44903747  0.74723997  1
  O  O70  1  0.15618034  0.71140108  0.74665969  1
  O  O71  1  0.55106997  0.83994812  0.74821202  1
loop_
_geom_bond_atom_site_label_1
_geom_bond_atom_site_label_2
_geom_bond_distance
_geom_bond_site_symmetry_2
Ge0 O42 1.770287 1_455
Ge0 O7 1.956948 1_555
Ge0 O6 1.964890 1_445
Ge0 O8 1.979332 1_545
Ge0 O43 1.981832 1_555
Ge0 O44 1.991916 1_445
Ge1 O47 1.743770 1_555
Ge1 O45 1.981966 1_445
Ge1 O46 1.993097 1_445
Ge1 O11 2.079529 1_545
Ge1 O9 2.081845 1_445
Ge1 O10 2.129641 1_555
Ge2 O57 1.751242 1_555
Ge2 O23 1.756422 1_555
Ge2 O59 1.969518 1_555
Ge2 O21 2.190347 1_555
Ge2 O58 2.279318 1_555
Ge2 O22 2.414530 1_555
Ge3 O60 1.742753 1_555
Ge3 O25 1.932112 1_554
Ge3 O26 1.937433 1_554
Ge3 O24 1.937602 1_554
Ge3 O62 1.976845 1_555
Ge3 O61 1.984130 1_555
Ge4 O27 1.740505 1_555
Ge4 O65 1.750728 1_555
Ge4 O28 1.948307 1_555
Ge4 O64 1.958179 1_555
Ge4 O29 2.031785 1_555
Ge4 O63 2.081483 1_555
Ge5 O31 1.777752 1_555
Ge5 O66 1.976442 1_555
Ge5 O32 2.034344 1_555
Ge5 O68 2.043147 1_555
Ge5 O67 2.043217 1_555
Ge5 O30 2.071421 1_555
O0 S0 1.455430 1_545
O0 Y0 2.306252 1_455
O1 S1 1.457384 1_555
O1 Y0 2.231409 1_565
O2 S2 1.462535 1_655
O2 Y0 2.226108 1_555
O3 S3 1.469789 1_555
O3 Y1 2.194906 1_555
O4 S4 1.467784 1_555
O4 Y1 2.212134 1_665
O5 S5 1.466892 1_555
O5 Y1 2.216237 1_655
O6 S5 1.503438 1_565
O7 S3 1.502516 1_555
O8 S4 1.514294 1_455
O9 S1 1.535060 1_555
O10 S2 1.513021 1_555
O11 S0 1.519443 1_555
O12 Si0 1.591410 1_555
O12 Y2 2.065500 1_555
O13 S6 1.471408 1_555
O13 Y2 2.241497 1_555
O14 S7 1.471673 1_555
O14 Y2 2.223484 1_555
O15 S8 1.469486 1_555
O15 Y3 2.298980 1_555
O16 S9 1.469278 1_555
O16 Y3 2.305266 1_555
O17 Si1 1.608824 1_555
O17 Y3 2.059619 1_555
O18 Si1 1.610814 1_555
O18 Y4 2.063654 1_554
O19 S8 1.472329 1_555
O19 Y4 2.287160 1_554
O20 S9 1.473335 1_555
O20 Y4 2.281382 1_554
O21 S6 1.505580 1_555
O22 S7 1.480543 1_555
O23 Si0 1.688092 1_555
O24 S10 1.501975 1_555
O25 S11 1.500769 1_555
O26 S12 1.512654 1_555
O27 Si2 1.627920 1_555
O28 S13 1.488827 1_555
O29 S14 1.466106 1_555
O30 S14 1.514066 1_555
O31 Si2 1.681619 1_555
O32 S13 1.527155 1_555
O33 S11 1.472654 1_555
O33 Y5 2.200433 1_555
O34 S12 1.468834 1_555
O34 Y5 2.220684 1_555
O35 S10 1.468858 1_555
O35 Y5 2.220345 1_555
O36 S14 1.458665 1_555
O36 Y0 2.219911 1_465
O37 Si2 1.591510 1_555
O37 Y0 2.056948 1_565
O38 S13 1.465306 1_555
O38 Y0 2.199842 1_455
O39 S11 1.472006 1_555
O39 Y1 2.198579 1_555
O40 S12 1.470597 1_555
O40 Y1 2.213861 1_565
O41 S10 1.469896 1_555
O41 Y1 2.189558 1_665
O42 Si0 1.656547 1_555
O43 S6 1.512953 1_555
O44 S7 1.513314 1_555
O45 S8 1.503493 1_555
O46 S9 1.502450 1_565
O47 Si1 1.669477 1_555
O48 S5 1.463568 1_555
O48 Y2 2.214531 1_555
O49 S3 1.459013 1_555
O49 Y2 2.264316 1_555
O50 S4 1.463330 1_555
O50 Y2 2.221076 1_555
O51 S1 1.460606 1_555
O51 Y3 2.246605 1_555
O52 S2 1.459824 1_655
O52 Y3 2.307957 1_555
O53 S0 1.463745 1_545
O53 Y3 2.246517 1_555
O54 S10 1.460646 1_555
O54 Y4 2.222984 1_555
O55 S11 1.455828 1_655
O55 Y4 2.283498 1_555
O56 S12 1.460505 1_545
O56 Y4 2.232068 1_555
O57 Si2 1.668256 1_545
O58 S13 1.472976 1_555
O59 S14 1.510696 1_655
O60 Si1 1.654650 1_555
O61 S8 1.494670 1_455
O62 S9 1.494328 1_565
O63 S6 1.477470 1_565
O64 S7 1.497783 1_555
O65 Si0 1.642855 1_455
O66 S0 1.522962 1_555
O67 S1 1.509846 1_555
O68 S2 1.528560 1_555
O69 S3 1.472075 1_555
O69 Y5 2.195970 1_555
O70 S4 1.472084 1_455
O70 Y5 2.209204 1_555
O71 S5 1.471028 1_565
O71 Y5 2.190747 1_555
