# generated using pymatgen
data_Na4TaIn3(PO4)6
_symmetry_space_group_name_H-M   'P 1'
_cell_length_a   8.98403063
_cell_length_b   8.97616591
_cell_length_c   22.82129098
_cell_angle_alpha   89.93960816
_cell_angle_beta   90.07994404
_cell_angle_gamma   120.00429187
_symmetry_Int_Tables_number   1
_chemical_formula_structural   Na4TaIn3(PO4)6
_chemical_formula_sum   'Na12 Ta3 In9 P18 O72'
_cell_volume   1593.72612636
_cell_formula_units_Z   3
loop_
 _symmetry_equiv_pos_site_id
 _symmetry_equiv_pos_as_xyz
  1  'x, y, z'
loop_
 _atom_site_type_symbol
 _atom_site_label
 _atom_site_symmetry_multiplicity
 _atom_site_fract_x
 _atom_site_fract_y
 _atom_site_fract_z
 _atom_site_occupancy
  Na  Na0  1  0.63593693  0.99972353  0.25068619  1
  Na  Na1  1  0.36319518  0.36366445  0.25056981  1
  Na  Na2  1  0.00003706  0.63669213  0.25003864  1
  Na  Na3  1  0.29862326  0.33342040  0.58568432  1
  Na  Na4  1  0.03629382  0.69993219  0.58556037  1
  Na  Na5  1  0.66471092  0.70207229  0.08108316  1
  Na  Na6  1  0.99023563  0.99914201  0.49728141  1
  Na  Na7  1  0.00985644  0.00913420  0.99617368  1
  Na  Na8  1  0.66677840  0.33325250  0.82725316  1
  Na  Na9  1  0.66654892  0.33295581  0.33467195  1
  Na  Na10  1  0.32285884  0.66619721  0.16207537  1
  Na  Na11  1  0.34594687  0.67828444  0.66723932  1
  Ta  Ta0  1  0.66654875  0.33130641  0.97743651  1
  Ta  Ta1  1  0.66692597  0.33161155  0.48002261  1
  Ta  Ta2  1  0.33225017  0.66616912  0.81395588  1
  In  In0  1  0.00103451  0.00046468  0.35323097  1
  In  In1  1  0.99941406  0.99960365  0.85061495  1
  In  In2  1  0.99197917  0.99929052  0.65296454  1
  In  In3  1  0.00718471  0.00645905  0.14477301  1
  In  In4  1  0.66680408  0.33079169  0.68762080  1
  In  In5  1  0.66654913  0.33063532  0.17999480  1
  In  In6  1  0.32707912  0.66623435  0.01574713  1
  In  In7  1  0.33944659  0.67257646  0.51462895  1
  In  In8  1  0.33399427  0.66735160  0.32259824  1
  P  P0  1  0.29396728  0.99896342  0.24998001  1
  P  P1  1  0.70486209  0.70544664  0.24865143  1
  P  P2  1  0.00109208  0.29531924  0.25010146  1
  P  P3  1  0.29622503  0.29769055  0.75056776  1
  P  P4  1  0.00151055  0.70412956  0.75043906  1
  P  P5  1  0.70219974  0.99807887  0.75212973  1
  P  P6  1  0.95734513  0.33188077  0.58271566  1
  P  P7  1  0.37589817  0.04122408  0.58336132  1
  P  P8  1  0.66632886  0.62363223  0.58302383  1
  P  P9  1  0.95996069  0.62443768  0.08267365  1
  P  P10  1  0.66586355  0.03946646  0.08222205  1
  P  P11  1  0.37482199  0.33329777  0.08160178  1
  P  P12  1  0.62544960  0.66648766  0.91839299  1
  P  P13  1  0.04095712  0.37380134  0.91721381  1
  P  P14  1  0.33286298  0.95902687  0.91696780  1
  P  P15  1  0.63396730  0.96779032  0.41662639  1
  P  P16  1  0.33442825  0.36704157  0.41835675  1
  P  P17  1  0.03232903  0.66548000  0.41817066  1
  O  O0  1  0.21749366  0.03679611  0.30404022  1
  O  O1  1  0.82194296  0.78679956  0.30186602  1
  O  O2  1  0.96392852  0.18072743  0.30409104  1
  O  O3  1  0.21008286  0.18544548  0.80322633  1
  O  O4  1  0.97510955  0.78949511  0.80326349  1
  O  O5  1  0.81163156  0.02598297  0.80580459  1
  O  O6  1  0.76648116  0.95536721  0.69543704  1
  O  O7  1  0.19338196  0.23416049  0.69215019  1
  O  O8  1  0.04046613  0.80740590  0.69212134  1
  O  O9  1  0.77884129  0.81302681  0.19189877  1
  O  O10  1  0.03767631  0.21924186  0.19517337  1
  O  O11  1  0.18067939  0.96199083  0.19510187  1
  O  O12  1  0.88113445  0.36858221  0.63649985  1
  O  O13  1  0.48147803  0.12076987  0.63803597  1
  O  O14  1  0.63318677  0.51181075  0.63707483  1
  O  O15  1  0.88746817  0.52927166  0.14123901  1
  O  O16  1  0.64039938  0.10947168  0.14063445  1
  O  O17  1  0.47640162  0.36479615  0.13961920  1
  O  O18  1  0.48121023  0.31807563  0.02914152  1
  O  O19  1  0.83576795  0.51910694  0.03020289  1
  O  O20  1  0.68132787  0.16043189  0.02960044  1
  O  O21  1  0.47437685  0.15969248  0.52882068  1
  O  O22  1  0.68750539  0.52503855  0.52858625  1
  O  O23  1  0.84116793  0.31418713  0.52802211  1
  O  O24  1  0.55204949  0.69148829  0.97551319  1
  O  O25  1  0.14451159  0.44914688  0.97270562  1
  O  O26  1  0.30658988  0.85709464  0.97268624  1
  O  O27  1  0.54885833  0.85552500  0.46977316  1
  O  O28  1  0.30942080  0.44977020  0.47325737  1
  O  O29  1  0.13908946  0.68948476  0.47331564  1
  O  O30  1  0.10198793  0.62841190  0.36138411  1
  O  O31  1  0.52944704  0.90228076  0.35906354  1
  O  O32  1  0.37220557  0.47388671  0.36140207  1
  O  O33  1  0.13276565  0.49601417  0.86365891  1
  O  O34  1  0.36180341  0.86637913  0.86354314  1
  O  O35  1  0.50164472  0.63812196  0.86559457  1
  O  O36  1  0.00690935  0.82069177  0.41353410  1
  O  O37  1  0.81478589  0.99432405  0.41265695  1
  O  O38  1  0.17933660  0.18663073  0.41372546  1
  O  O39  1  0.01090646  0.19347351  0.90969164  1
  O  O40  1  0.18280920  0.98963431  0.90953125  1
  O  O41  1  0.80559891  0.81740505  0.91058181  1
  O  O42  1  0.97676113  0.17075757  0.58451229  1
  O  O43  1  0.19847328  0.03348049  0.58403585  1
  O  O44  1  0.83642352  0.79763880  0.58465905  1
  O  O45  1  0.95849128  0.79645652  0.08247212  1
  O  O46  1  0.83031993  0.02503184  0.08212131  1
  O  O47  1  0.20015547  0.16809352  0.08182685  1
  O  O48  1  0.67305876  0.15157126  0.74697171  1
  O  O49  1  0.47909394  0.32761888  0.74636630  1
  O  O50  1  0.84835168  0.52126175  0.74608157  1
  O  O51  1  0.68265027  0.52173493  0.24468223  1
  O  O52  1  0.83940471  0.31674304  0.24500840  1
  O  O53  1  0.47695144  0.16082304  0.24470714  1
  O  O54  1  0.63629082  0.49475123  0.92506596  1
  O  O55  1  0.85916838  0.36377914  0.92500939  1
  O  O56  1  0.50489075  0.14102184  0.92450713  1
  O  O57  1  0.64799716  0.14920732  0.42668459  1
  O  O58  1  0.50147048  0.35186543  0.42731947  1
  O  O59  1  0.85006160  0.49823353  0.42683664  1
  O  O60  1  0.36557010  0.49930114  0.07594569  1
  O  O61  1  0.13837885  0.64569642  0.07745349  1
  O  O62  1  0.50925664  0.85733390  0.07681718  1
  O  O63  1  0.34482530  0.85688800  0.57703850  1
  O  O64  1  0.50324937  0.63778080  0.57605228  1
  O  O65  1  0.13848950  0.49424136  0.57579361  1
  O  O66  1  0.31438852  0.83693341  0.25600571  1
  O  O67  1  0.52307658  0.68607523  0.25529480  1
  O  O68  1  0.16291008  0.47805833  0.25621436  1
  O  O69  1  0.31254982  0.48176949  0.76186136  1
  O  O70  1  0.16929097  0.68818827  0.76156531  1
  O  O71  1  0.51783820  0.83066340  0.76271656  1
loop_
_geom_bond_atom_site_label_1
_geom_bond_atom_site_label_2
_geom_bond_distance
_geom_bond_site_symmetry_2
Na0 O67 2.471858 1_555
Na0 O53 2.492906 1_565
Na0 O52 2.500662 1_565
Na0 O66 2.504786 1_555
Na0 O31 2.638699 1_555
Na0 O16 2.689866 1_565
Na0 O2 2.830912 1_565
Na0 O9 2.901363 1_555
Na1 O68 2.481423 1_555
Na1 O51 2.489199 1_555
Na1 O53 2.497872 1_555
Na1 O67 2.508567 1_555
Na1 O32 2.703249 1_555
Na1 O17 2.728095 1_555
Na1 O0 2.822552 1_555
Na1 O10 2.834221 1_555
Na2 O66 2.479444 1_555
Na2 O52 2.489749 1_455
Na2 O51 2.503372 1_455
Na2 O68 2.504272 1_555
Na2 O15 2.672135 1_455
Na2 O30 2.713405 1_555
Na2 O1 2.817650 1_455
Na2 O11 2.826701 1_555
Na3 O43 2.374215 1_555
Na3 O64 2.422497 1_555
Na3 O42 2.504263 1_455
Na3 O65 2.505983 1_555
Na3 O7 2.598173 1_555
Na3 O28 2.752601 1_555
Na3 O14 2.855598 1_555
Na4 O44 2.359836 1_455
Na4 O63 2.408560 1_555
Na4 O65 2.449150 1_555
Na4 O43 2.593284 1_565
Na4 O8 2.610463 1_555
Na4 O29 2.741723 1_555
Na4 O12 2.826911 1_455
Na5 O45 2.334161 1_555
Na5 O60 2.378352 1_555
Na5 O62 2.418311 1_555
Na5 O46 2.510857 1_565
Na5 O24 2.595273 1_554
Na5 O9 2.723163 1_555
Na6 O37 2.477824 1_555
Na6 O36 2.547194 1_655
Na6 O38 2.548993 1_665
Na6 O42 2.558174 1_565
Na6 O44 2.580251 1_555
Na6 O43 2.632297 1_665
Na7 O47 2.517249 1_556
Na7 O39 2.571141 1_555
Na7 O40 2.576037 1_545
Na7 O46 2.590146 1_456
Na7 O45 2.617172 1_446
Na7 O41 2.642584 1_445
Na8 O48 2.473458 1_555
Na8 O49 2.481822 1_555
Na8 O50 2.487793 1_555
Na8 O56 2.740378 1_555
Na8 O55 2.748900 1_555
Na8 O54 2.750435 1_555
Na9 O52 2.618285 1_555
Na9 O51 2.618826 1_555
Na9 O53 2.620828 1_555
Na9 O57 2.622262 1_555
Na9 O59 2.625588 1_555
Na9 O58 2.638180 1_555
Na10 O61 2.489377 1_555
Na10 O62 2.581124 1_555
Na10 O60 2.615011 1_555
Na10 O66 2.659626 1_555
Na10 O68 2.665761 1_555
Na10 O67 2.731719 1_555
Na11 O63 2.610906 1_555
Na11 O71 2.624436 1_555
Na11 O64 2.642650 1_555
Na11 O70 2.704004 1_555
Na11 O69 2.707212 1_555
Na11 O65 2.734057 1_555
In0 O0 2.125884 1_555
In0 O2 2.126381 1_455
In0 O1 2.134109 1_445
In0 O37 2.134479 1_445
In0 O36 2.140311 1_545
In0 O38 2.141472 1_555
In1 O5 2.083783 1_565
In1 O4 2.089038 1_555
In1 O3 2.092536 1_665
In1 O40 2.161368 1_655
In1 O39 2.163679 1_665
In1 O41 2.175617 1_555
In2 O6 2.098804 1_555
In2 O8 2.168171 1_655
In2 O7 2.168554 1_665
In2 O42 2.243375 1_565
In2 O44 2.264782 1_555
In2 O43 2.334082 1_665
In3 O11 2.127039 1_545
In3 O10 2.127551 1_555
In3 O47 2.158949 1_555
In3 O9 2.195360 1_445
In3 O46 2.203402 1_455
In3 O45 2.223808 1_445
In4 O13 2.113437 1_555
In4 O48 2.123980 1_555
In4 O12 2.129801 1_555
In4 O14 2.132574 1_555
In4 O50 2.138475 1_555
In4 O49 2.144823 1_555
In5 O16 2.083220 1_555
In5 O15 2.088747 1_555
In5 O17 2.092893 1_555
In5 O53 2.193481 1_555
In5 O52 2.194397 1_555
In5 O51 2.213418 1_555
In6 O26 2.060575 1_554
In6 O25 2.062811 1_554
In6 O24 2.127437 1_554
In6 O61 2.141171 1_555
In6 O62 2.180451 1_555
In6 O60 2.182832 1_555
In7 O27 2.048429 1_555
In7 O29 2.102425 1_555
In7 O28 2.104206 1_555
In7 O64 2.163591 1_555
In7 O63 2.166279 1_555
In7 O65 2.209586 1_555
In8 O32 2.123647 1_555
In8 O31 2.125803 1_555
In8 O30 2.127448 1_555
In8 O66 2.218153 1_555
In8 O68 2.220719 1_555
In8 O67 2.234782 1_555
O0 P0 1.531671 1_545
O1 P1 1.531202 1_555
O2 P2 1.530552 1_655
O3 P3 1.509445 1_555
O4 P4 1.510365 1_655
O5 P5 1.510217 1_545
O6 P5 1.542396 1_555
O7 P3 1.558013 1_555
O8 P4 1.557991 1_555
O9 P1 1.552278 1_555
O10 P2 1.540494 1_555
O11 P0 1.540780 1_555
O12 P6 1.520747 1_555
O13 P7 1.512489 1_555
O14 P8 1.522234 1_555
O15 P9 1.543958 1_555
O16 P10 1.539675 1_555
O17 P11 1.550868 1_555
O18 P11 1.581037 1_555
O18 Ta0 1.996590 1_554
O19 P9 1.586289 1_555
O19 Ta0 2.009743 1_554
O20 P10 1.577106 1_555
O20 Ta0 1.996677 1_554
O21 P7 1.588127 1_555
O21 Ta1 1.986437 1_555
O22 P8 1.591910 1_555
O22 Ta1 1.989829 1_555
O23 P6 1.582263 1_555
O23 Ta1 1.978527 1_555
O24 P12 1.528229 1_555
O25 P13 1.515229 1_555
O26 P14 1.513982 1_555
O27 P15 1.516771 1_555
O28 P16 1.530124 1_555
O29 P17 1.529920 1_555
O30 P17 1.547013 1_555
O31 P15 1.548925 1_555
O32 P16 1.548377 1_555
O33 P13 1.572428 1_555
O33 Ta2 2.023776 1_555
O34 P14 1.570021 1_555
O34 Ta2 2.026571 1_555
O35 P12 1.570824 1_555
O35 Ta2 2.036104 1_555
O36 P17 1.523878 1_555
O37 P15 1.522260 1_555
O38 P16 1.522600 1_555
O39 P13 1.511884 1_555
O40 P14 1.513706 1_555
O41 P12 1.514548 1_555
O42 P6 1.541417 1_555
O43 P7 1.560491 1_555
O44 P8 1.545639 1_555
O45 P9 1.550715 1_555
O46 P10 1.546354 1_555
O47 P11 1.527796 1_555
O48 P5 1.530026 1_545
O49 P3 1.529529 1_555
O50 P4 1.529262 1_655
O51 P1 1.561560 1_555
O52 P2 1.561861 1_655
O53 P0 1.561824 1_545
O54 P12 1.599572 1_555
O54 Ta0 2.012208 1_555
O55 P13 1.600283 1_655
O55 Ta0 2.002915 1_555
O56 P14 1.600516 1_545
O56 Ta0 2.001051 1_555
O57 P15 1.586122 1_545
O57 Ta1 1.979008 1_555
O58 P16 1.586214 1_555
O58 Ta1 1.988479 1_555
O59 P17 1.586159 1_655
O59 Ta1 1.989427 1_555
O60 P11 1.538611 1_555
O61 P9 1.521352 1_455
O62 P10 1.538494 1_565
O63 P7 1.541097 1_565
O64 P8 1.540582 1_555
O65 P6 1.557412 1_455
O66 P0 1.560208 1_555
O67 P1 1.561113 1_555
O68 P2 1.561565 1_555
O69 P3 1.605159 1_555
O69 Ta2 1.973572 1_555
O70 P4 1.603623 1_555
O70 Ta2 1.973822 1_555
O71 P5 1.603434 1_555
O71 Ta2 1.966499 1_555
