# generated using pymatgen
data_MgV4O5F7
_symmetry_space_group_name_H-M   'P 1'
_cell_length_a   5.12820447
_cell_length_b   7.75171617
_cell_length_c   5.43557898
_cell_angle_alpha   92.68306006
_cell_angle_beta   87.36031077
_cell_angle_gamma   90.28616582
_symmetry_Int_Tables_number   1
_chemical_formula_structural   MgV4O5F7
_chemical_formula_sum   'Mg1 V4 O5 F7'
_cell_volume   215.61045935
_cell_formula_units_Z   1
loop_
 _symmetry_equiv_pos_site_id
 _symmetry_equiv_pos_as_xyz
  1  'x, y, z'
loop_
 _atom_site_type_symbol
 _atom_site_label
 _atom_site_symmetry_multiplicity
 _atom_site_fract_x
 _atom_site_fract_y
 _atom_site_fract_z
 _atom_site_occupancy
  Mg  Mg0  1  0.00353700  0.21560500  0.59992400  1
  V  V0  1  0.48846500  0.50315800  0.49678700  1
  V  V1  1  0.47491600  0.96392500  0.50476800  1
  V  V2  1  0.04190300  0.50152400  0.99872500  1
  V  V3  1  0.99111300  0.99253800  0.01120400  1
  O  O0  1  0.72572000  0.96387700  0.21394000  1
  O  O1  1  0.39937700  0.75472100  0.49911900  1
  O  O2  1  0.28161400  0.45796800  0.19217000  1
  O  O3  1  0.25377500  0.05373200  0.77674600  1
  O  O4  1  0.19206100  0.43220100  0.68357700  1
  F  F0  1  0.89209400  0.25118100  0.97729900  1
  F  F1  1  0.79095900  0.56337500  0.27707200  1
  F  F2  1  0.78659000  0.96624900  0.70093400  1
  F  F3  1  0.71519800  0.54585500  0.78951000  1
  F  F4  1  0.64645900  0.25273300  0.49449100  1
  F  F5  1  0.19969700  0.07709000  0.30841600  1
  F  F6  1  0.11652300  0.75426200  0.98782100  1
loop_
_geom_bond_atom_site_label_1
_geom_bond_atom_site_label_2
_geom_bond_distance
_geom_bond_site_symmetry_2
Mg0 O4 1.978193 1_555
Mg0 O3 2.094676 1_555
O0 V3 1.731411 1_555
O0 V1 1.991457 1_555
O1 V1 1.664645 1_555
O1 V0 2.004398 1_555
O2 V2 1.699179 1_554
O2 V0 2.023189 1_555
O3 V3 1.885634 1_446
O3 V1 1.927010 1_545
O4 V0 1.882988 1_555
O4 V2 1.900682 1_555
F0 V2 2.083709 1_655
F0 V3 2.089241 1_546
F0 Mg0 2.109724 1_655
F1 V0 1.981132 1_555
F1 V2 1.983425 1_654
F2 V1 1.961330 1_555
F2 V3 2.028417 1_556
F2 Mg0 2.301538 1_665
F3 V0 2.027415 1_555
F3 V2 2.106218 1_655
F4 Mg0 1.970231 1_655
F4 V0 2.106533 1_555
F4 V1 2.403446 1_545
F5 V1 2.034547 1_545
F5 V3 2.058323 1_445
F5 Mg0 2.092893 1_555
F6 V3 1.955431 1_456
F6 V2 1.997379 1_555
