# generated using pymatgen
data_MgCo2(SbO3)4
_symmetry_space_group_name_H-M   'P 1'
_cell_length_a   5.05302241
_cell_length_b   4.91209031
_cell_length_c   9.69873889
_cell_angle_alpha   89.99322717
_cell_angle_beta   90.04779014
_cell_angle_gamma   90.95776914
_symmetry_Int_Tables_number   1
_chemical_formula_structural   MgCo2(SbO3)4
_chemical_formula_sum   'Mg1 Co2 Sb4 O12'
_cell_volume   240.69773338
_cell_formula_units_Z   1
loop_
 _symmetry_equiv_pos_site_id
 _symmetry_equiv_pos_as_xyz
  1  'x, y, z'
loop_
 _atom_site_type_symbol
 _atom_site_label
 _atom_site_symmetry_multiplicity
 _atom_site_fract_x
 _atom_site_fract_y
 _atom_site_fract_z
 _atom_site_occupancy
  Mg  Mg0  1  0.49985700  0.99995100  0.26515400  1
  Co  Co0  1  0.00065600  0.99987200  0.99850400  1
  Co  Co1  1  0.49998000  0.49997400  0.50236800  1
  Sb  Sb0  1  0.00019700  0.00009100  0.67504000  1
  Sb  Sb1  1  0.99990000  0.00004400  0.35472600  1
  Sb  Sb2  1  0.49994800  0.49980200  0.13183700  1
  Sb  Sb3  1  0.50003900  0.49991400  0.81293700  1
  O  O0  1  0.29310600  0.27761600  0.34978600  1
  O  O1  1  0.31408100  0.30584200  0.97195200  1
  O  O2  1  0.19494500  0.79840800  0.82293200  1
  O  O3  1  0.68565100  0.69370300  0.97229700  1
  O  O4  1  0.30467000  0.29830600  0.66628000  1
  O  O5  1  0.19069600  0.83119400  0.18067500  1
  O  O6  1  0.80551100  0.20115700  0.82313100  1
  O  O7  1  0.70673800  0.72224600  0.34977300  1
  O  O8  1  0.18330000  0.80901300  0.51253700  1
  O  O9  1  0.81666200  0.19095900  0.51248100  1
  O  O10  1  0.69550300  0.70165900  0.66644200  1
  O  O11  1  0.80856000  0.17025000  0.18114900  1
loop_
_geom_bond_atom_site_label_1
_geom_bond_atom_site_label_2
_geom_bond_distance
_geom_bond_site_symmetry_2
Mg0 O7 1.916541 1_555
Mg0 O0 1.916972 1_565
Mg0 O5 1.937439 1_555
Mg0 O11 1.937821 1_565
Co0 O5 2.180310 1_556
Co0 O1 2.180468 1_565
Co0 O3 2.186182 1_455
Co0 O11 2.193386 1_466
Co0 O6 2.207345 1_465
Co0 O2 2.208719 1_555
Co1 O0 2.106021 1_555
Co1 O7 2.106652 1_555
Co1 O4 2.110007 1_555
Co1 O10 2.110660 1_555
Co1 O9 2.226032 1_555
Co1 O8 2.226264 1_555
O0 Sb1 1.997237 1_455
O0 Sb2 2.591685 1_555
O1 Sb3 2.035280 1_555
O1 Sb2 2.040204 1_556
O2 Sb0 2.009266 1_565
O2 Sb3 2.147499 1_555
O3 Sb3 2.035368 1_555
O3 Sb2 2.038172 1_556
O4 Sb3 1.985899 1_555
O4 Sb0 2.108290 1_555
O5 Sb1 2.120560 1_465
O5 Sb2 2.324336 1_555
O6 Sb0 2.010311 1_655
O6 Sb3 2.149744 1_555
O7 Sb1 1.997770 1_565
O7 Sb2 2.590792 1_555
O8 Sb1 2.026905 1_465
O8 Sb0 2.062236 1_565
O9 Sb1 2.027180 1_555
O9 Sb0 2.061821 1_655
O10 Sb3 1.986350 1_555
O10 Sb0 2.109668 1_665
O11 Sb1 2.119404 1_555
O11 Sb2 2.316027 1_555
