# generated using pymatgen
data_CeDyS3
_symmetry_space_group_name_H-M   'P 1'
_cell_length_a   4.01790220
_cell_length_b   7.43522514
_cell_length_c   15.31969114
_cell_angle_alpha   90.00000000
_cell_angle_beta   90.00000000
_cell_angle_gamma   90.00000000
_symmetry_Int_Tables_number   1
_chemical_formula_structural   CeDyS3
_chemical_formula_sum   'Ce4 Dy4 S12'
_cell_volume   457.66056721
_cell_formula_units_Z   4
loop_
 _symmetry_equiv_pos_site_id
 _symmetry_equiv_pos_as_xyz
  1  'x, y, z'
loop_
 _atom_site_type_symbol
 _atom_site_label
 _atom_site_symmetry_multiplicity
 _atom_site_fract_x
 _atom_site_fract_y
 _atom_site_fract_z
 _atom_site_occupancy
  Ce  Ce0  1  0.75000000  0.36005583  0.29714152  1
  Ce  Ce1  1  0.25000000  0.63994417  0.70285848  1
  Ce  Ce2  1  0.75000000  0.86005583  0.20285848  1
  Ce  Ce3  1  0.25000000  0.13994417  0.79714152  1
  Dy  Dy0  1  0.75000000  0.73223129  0.95674632  1
  Dy  Dy1  1  0.25000000  0.26776871  0.04325368  1
  Dy  Dy2  1  0.75000000  0.23223129  0.54325368  1
  Dy  Dy3  1  0.25000000  0.76776871  0.45674632  1
  S  S0  1  0.25000000  0.37334232  0.43774511  1
  S  S1  1  0.75000000  0.62665768  0.56225489  1
  S  S2  1  0.25000000  0.87334232  0.06225489  1
  S  S3  1  0.75000000  0.12665768  0.93774511  1
  S  S4  1  0.25000000  0.15072032  0.21655562  1
  S  S5  1  0.75000000  0.84927968  0.78344438  1
  S  S6  1  0.25000000  0.65072032  0.28344438  1
  S  S7  1  0.75000000  0.34927968  0.71655562  1
  S  S8  1  0.75000000  0.48590922  0.10450805  1
  S  S9  1  0.25000000  0.51409078  0.89549195  1
  S  S10  1  0.75000000  0.98590922  0.39549195  1
  S  S11  1  0.25000000  0.01409078  0.60450805  1
loop_
_geom_bond_atom_site_label_1
_geom_bond_atom_site_label_2
_geom_bond_distance
_geom_bond_site_symmetry_2
Ce0 S4 2.825342 1_655
Ce0 S4 2.825342 1_555
Ce0 S0 2.947096 1_655
Ce0 S0 2.947096 1_555
Ce0 S6 2.958126 1_555
Ce0 S6 2.958126 1_655
Ce0 S8 3.095889 1_555
Ce0 S10 3.163686 1_545
Ce1 S5 2.825342 1_455
Ce1 S5 2.825342 1_555
Ce1 S1 2.947096 1_455
Ce1 S1 2.947096 1_555
Ce1 S7 2.958126 1_455
Ce1 S7 2.958126 1_555
Ce1 S9 3.095889 1_555
Ce1 S11 3.163686 1_565
Ce2 S6 2.825342 1_555
Ce2 S6 2.825342 1_655
Ce2 S2 2.947096 1_655
Ce2 S2 2.947096 1_555
Ce2 S4 2.958126 1_565
Ce2 S4 2.958126 1_665
Ce2 S10 3.095889 1_555
Ce2 S8 3.163686 1_555
Ce3 S7 2.825342 1_555
Ce3 S7 2.825342 1_455
Ce3 S3 2.947096 1_555
Ce3 S3 2.947096 1_455
Ce3 S5 2.958126 1_445
Ce3 S5 2.958126 1_545
Ce3 S11 3.095889 1_555
Ce3 S9 3.163686 1_555
Dy0 S9 2.747201 1_655
Dy0 S9 2.747201 1_555
Dy0 S2 2.783757 1_656
Dy0 S2 2.783757 1_556
Dy0 S5 2.793932 1_555
Dy0 S8 2.911773 1_556
Dy0 S3 2.947060 1_565
Dy1 S8 2.747201 1_455
Dy1 S8 2.747201 1_555
Dy1 S3 2.783757 1_454
Dy1 S3 2.783757 1_554
Dy1 S4 2.793932 1_555
Dy1 S9 2.911773 1_554
Dy1 S2 2.947060 1_545
Dy2 S11 2.747201 1_555
Dy2 S11 2.747201 1_655
Dy2 S0 2.783757 1_655
Dy2 S0 2.783757 1_555
Dy2 S7 2.793932 1_555
Dy2 S10 2.911773 1_545
Dy2 S1 2.947060 1_555
Dy3 S10 2.747201 1_555
Dy3 S10 2.747201 1_455
Dy3 S1 2.783757 1_555
Dy3 S1 2.783757 1_455
Dy3 S6 2.793932 1_555
Dy3 S11 2.911773 1_565
Dy3 S0 2.947060 1_555
