# generated using pymatgen
data_Na3CaHf3P5SO24
_symmetry_space_group_name_H-M   'P 1'
_cell_length_a   8.98924794
_cell_length_b   8.95546867
_cell_length_c   23.17523318
_cell_angle_alpha   89.98926358
_cell_angle_beta   90.08562345
_cell_angle_gamma   119.95595656
_symmetry_Int_Tables_number   1
_chemical_formula_structural   Na3CaHf3P5SO24
_chemical_formula_sum   'Na9 Ca3 Hf9 P15 S3 O72'
_cell_volume   1616.43565178
_cell_formula_units_Z   3
loop_
 _symmetry_equiv_pos_site_id
 _symmetry_equiv_pos_as_xyz
  1  'x, y, z'
loop_
 _atom_site_type_symbol
 _atom_site_label
 _atom_site_symmetry_multiplicity
 _atom_site_fract_x
 _atom_site_fract_y
 _atom_site_fract_z
 _atom_site_occupancy
  Na  Na0  1  0.99048504  0.36577427  0.74484389  1
  Na  Na1  1  0.31965535  0.97923216  0.08559153  1
  Na  Na2  1  0.32486314  0.03358471  0.40998838  1
  Na  Na3  1  0.98080183  0.99951332  0.49624593  1
  Na  Na4  1  0.98687332  0.00101145  0.99902703  1
  Na  Na5  1  0.65214376  0.33321889  0.82826125  1
  Na  Na6  1  0.66559731  0.33339067  0.32588270  1
  Na  Na7  1  0.33286704  0.65792414  0.16783703  1
  Na  Na8  1  0.34621146  0.66911049  0.66612912  1
  Ca  Ca0  1  0.99345790  0.00006399  0.35554195  1
  Ca  Ca1  1  0.66106804  0.33851722  0.68603083  1
  Ca  Ca2  1  0.66569161  0.33163437  0.18094360  1
  Hf  Hf0  1  0.00050565  0.99735568  0.85557262  1
  Hf  Hf1  1  0.99355717  0.99589718  0.64798869  1
  Hf  Hf2  1  0.00197606  0.99855379  0.14797629  1
  Hf  Hf3  1  0.67028524  0.33530865  0.98084009  1
  Hf  Hf4  1  0.68060202  0.34519230  0.48190179  1
  Hf  Hf5  1  0.33306477  0.66169319  0.01518762  1
  Hf  Hf6  1  0.33281377  0.65860000  0.51933803  1
  Hf  Hf7  1  0.33325635  0.67002029  0.31524052  1
  Hf  Hf8  1  0.33827105  0.67128543  0.81446953  1
  P  P0  1  0.29516605  0.99453501  0.25280080  1
  P  P1  1  0.28298582  0.28823177  0.75274091  1
  P  P2  1  0.00819011  0.71571112  0.75220178  1
  P  P3  1  0.70974559  0.99256309  0.75233794  1
  P  P4  1  0.96505030  0.33133470  0.58563617  1
  P  P5  1  0.66940998  0.63406589  0.58315851  1
  P  P6  1  0.96614409  0.63114731  0.08222206  1
  P  P7  1  0.66791559  0.03430460  0.08111036  1
  P  P8  1  0.36907980  0.33371371  0.08232457  1
  P  P9  1  0.62454715  0.66429469  0.91628998  1
  P  P10  1  0.03878806  0.37522800  0.91458406  1
  P  P11  1  0.33648573  0.96116515  0.91756313  1
  P  P12  1  0.61738911  0.95967026  0.41972118  1
  P  P13  1  0.34369643  0.38055118  0.41750082  1
  P  P14  1  0.04346132  0.65950487  0.41816482  1
  S  S0  1  0.70023691  0.70830565  0.25040293  1
  S  S1  1  0.00861752  0.30032715  0.25018270  1
  S  S2  1  0.36677898  0.03532536  0.58114802  1
  O  O0  1  0.21065741  0.00686205  0.30774308  1
  O  O1  1  0.79503542  0.78926371  0.30242696  1
  O  O2  1  0.98935813  0.20275027  0.30206515  1
  O  O3  1  0.18447710  0.18183863  0.80624527  1
  O  O4  1  0.99613799  0.81142926  0.80571258  1
  O  O5  1  0.82037589  0.00552123  0.80517763  1
  O  O6  1  0.79670128  0.97200691  0.69664966  1
  O  O7  1  0.17101720  0.20030171  0.69782740  1
  O  O8  1  0.02430821  0.82148543  0.69684881  1
  O  O9  1  0.79024878  0.81755137  0.19789405  1
  O  O10  1  0.02231717  0.20711411  0.19758835  1
  O  O11  1  0.17937794  0.97875536  0.19741562  1
  O  O12  1  0.90088326  0.36293620  0.64217154  1
  O  O13  1  0.47010561  0.10628207  0.63270142  1
  O  O14  1  0.63011631  0.52983783  0.63739057  1
  O  O15  1  0.90365107  0.52999280  0.13682702  1
  O  O16  1  0.61541407  0.09538989  0.13404216  1
  O  O17  1  0.46968196  0.37148482  0.13712835  1
  O  O18  1  0.46014831  0.29844680  0.03065657  1
  O  O19  1  0.84728632  0.54038998  0.02936693  1
  O  O20  1  0.69684930  0.15566543  0.02866701  1
  O  O21  1  0.45160338  0.14352882  0.52880592  1
  O  O22  1  0.69132303  0.53748615  0.53010262  1
  O  O23  1  0.84256093  0.30914974  0.53371776  1
  O  O24  1  0.53758914  0.69096056  0.96922357  1
  O  O25  1  0.15500578  0.46665374  0.96676900  1
  O  O26  1  0.31141340  0.85271595  0.97211787  1
  O  O27  1  0.51775968  0.85025028  0.47193812  1
  O  O28  1  0.32922078  0.47541943  0.47078216  1
  O  O29  1  0.15388688  0.67305010  0.47069194  1
  O  O30  1  0.13089832  0.63861302  0.36281492  1
  O  O31  1  0.50549650  0.87218612  0.36417508  1
  O  O32  1  0.36111868  0.48831821  0.36255170  1
  O  O33  1  0.12358218  0.48384435  0.85962320  1
  O  O34  1  0.35939679  0.86803333  0.86479532  1
  O  O35  1  0.51212858  0.63966999  0.86245288  1
  O  O36  1  0.03175156  0.82265082  0.41706175  1
  O  O37  1  0.79442694  0.98193743  0.41838455  1
  O  O38  1  0.18935203  0.19908574  0.41722431  1
  O  O39  1  0.01910229  0.19384861  0.91046046  1
  O  O40  1  0.17515012  0.97962922  0.91105036  1
  O  O41  1  0.80470053  0.82551922  0.91079170  1
  O  O42  1  0.98238731  0.16647718  0.58796643  1
  O  O43  1  0.19444249  0.02068776  0.58627002  1
  O  O44  1  0.83719384  0.81292430  0.58737456  1
  O  O45  1  0.98698906  0.81698134  0.08838209  1
  O  O46  1  0.83029192  0.01720345  0.08962371  1
  O  O47  1  0.18908152  0.16238285  0.08872729  1
  O  O48  1  0.69989387  0.15710673  0.75008818  1
  O  O49  1  0.45948175  0.30838784  0.75156187  1
  O  O50  1  0.85485775  0.53345476  0.75147212  1
  O  O51  1  0.67666973  0.53524778  0.24482698  1
  O  O52  1  0.86438053  0.33151810  0.24452520  1
  O  O53  1  0.47564261  0.14717543  0.24711685  1
  O  O54  1  0.64142904  0.50189041  0.92410956  1
  O  O55  1  0.86052864  0.35893098  0.92324983  1
  O  O56  1  0.49841907  0.14103048  0.92387379  1
  O  O57  1  0.62116024  0.13625840  0.42511261  1
  O  O58  1  0.50913766  0.36522570  0.42365758  1
  O  O59  1  0.86442341  0.49375304  0.42346893  1
  O  O60  1  0.33409914  0.48239730  0.06904531  1
  O  O61  1  0.15322991  0.66937241  0.06987254  1
  O  O62  1  0.51042547  0.85277908  0.06809464  1
  O  O63  1  0.33860177  0.85775864  0.57301130  1
  O  O64  1  0.51847531  0.66844025  0.57202750  1
  O  O65  1  0.14649335  0.48779018  0.57360804  1
  O  O66  1  0.30111402  0.82013846  0.25398976  1
  O  O67  1  0.52716551  0.69779268  0.25238334  1
  O  O68  1  0.17505886  0.47020140  0.25227757  1
  O  O69  1  0.28813543  0.46659075  0.75717955  1
  O  O70  1  0.17576491  0.70261357  0.75678300  1
  O  O71  1  0.53037319  0.82807036  0.75730934  1
loop_
_geom_bond_atom_site_label_1
_geom_bond_atom_site_label_2
_geom_bond_distance
_geom_bond_site_symmetry_2
Na0 O48 2.335883 1_555
Na0 O50 2.365164 1_555
Na0 O69 2.375141 1_655
Na0 O12 2.507002 1_555
Na0 O70 2.632795 1_655
Na0 O33 2.890234 1_655
Na0 O7 2.902490 1_655
Na1 O61 2.433925 1_555
Na1 O47 2.448712 1_565
Na1 O62 2.515820 1_555
Na1 O16 2.576990 1_565
Na1 O45 2.592151 1_455
Na1 O18 2.790342 1_565
Na1 O26 2.849850 1_554
Na1 O11 2.882815 1_555
Na2 O38 2.347869 1_555
Na2 O36 2.359708 1_545
Na2 O57 2.369394 1_555
Na2 O0 2.544331 1_555
Na2 O58 2.598225 1_555
Na2 O31 2.864024 1_545
Na2 O21 2.953179 1_555
Na3 O37 2.411518 1_555
Na3 O38 2.593370 1_665
Na3 O42 2.595019 1_565
Na3 O44 2.602213 1_555
Na3 O36 2.610393 1_655
Na3 O43 2.775142 1_665
Na4 O46 2.573581 1_556
Na4 O41 2.598877 1_545
Na4 O39 2.603851 1_655
Na4 O45 2.646676 1_546
Na4 O47 2.660919 1_656
Na4 O40 2.718871 1_645
Na5 O49 2.411393 1_555
Na5 O50 2.539361 1_555
Na5 O48 2.575530 1_555
Na5 O54 2.715213 1_555
Na5 O56 2.722928 1_555
Na5 O55 2.822264 1_555
Na6 O53 2.485346 1_555
Na6 O51 2.574118 1_555
Na6 O52 2.605451 1_555
Na6 O58 2.757564 1_555
Na6 O59 2.792385 1_555
Na6 O57 2.803875 1_555
Na7 O68 2.508702 1_555
Na7 O67 2.526758 1_555
Na7 O66 2.568106 1_555
Na7 O60 2.780610 1_555
Na7 O61 2.815471 1_555
Na7 O62 2.857258 1_555
Na8 O71 2.620983 1_555
Na8 O69 2.659092 1_555
Na8 O64 2.678310 1_555
Na8 O70 2.705634 1_555
Na8 O65 2.745165 1_555
Na8 O63 2.762164 1_555
Ca0 O1 2.211814 1_545
Ca0 O2 2.213123 1_555
Ca0 O0 2.220507 1_655
Ca0 O37 2.250799 1_545
Ca0 O38 2.275990 1_655
Ca0 O36 2.284609 1_645
Ca1 O14 2.181317 1_555
Ca1 O49 2.276567 1_555
Ca1 O13 2.286685 1_555
Ca1 O12 2.294330 1_555
Ca1 O50 2.310506 1_555
Ca1 O48 2.351354 1_555
Ca2 O17 2.210322 1_555
Ca2 O16 2.215017 1_555
Ca2 O15 2.233299 1_555
Ca2 O53 2.277681 1_555
Ca2 O51 2.312467 1_555
Ca2 O52 2.314146 1_555
Hf0 O4 2.011090 1_455
Hf0 O3 2.011881 1_565
Hf0 O5 2.025796 1_465
Hf0 O40 2.094204 1_555
Hf0 O41 2.098778 1_455
Hf0 O39 2.109254 1_565
Hf1 O6 2.019099 1_555
Hf1 O8 2.056177 1_655
Hf1 O7 2.075755 1_665
Hf1 O44 2.080588 1_555
Hf1 O42 2.104911 1_565
Hf1 O43 2.227856 1_665
Hf2 O11 2.040626 1_555
Hf2 O45 2.085957 1_455
Hf2 O47 2.099684 1_565
Hf2 O46 2.118869 1_465
Hf2 O10 2.122034 1_565
Hf2 O9 2.124412 1_455
Hf3 O19 2.060724 1_556
Hf3 O20 2.063000 1_556
Hf3 O18 2.096118 1_556
Hf3 O55 2.096689 1_555
Hf3 O54 2.099061 1_555
Hf3 O56 2.113589 1_555
Hf4 O22 2.014285 1_555
Hf4 O23 2.032182 1_555
Hf4 O59 2.035899 1_555
Hf4 O58 2.121268 1_555
Hf4 O57 2.125797 1_555
Hf4 O21 2.230237 1_555
Hf5 O25 2.018739 1_554
Hf5 O24 2.026838 1_554
Hf5 O60 2.037236 1_555
Hf5 O62 2.060093 1_555
Hf5 O26 2.071706 1_554
Hf5 O61 2.083598 1_555
Hf6 O28 1.976394 1_555
Hf6 O27 2.017815 1_555
Hf6 O29 2.019193 1_555
Hf6 O64 2.032564 1_555
Hf6 O65 2.043028 1_555
Hf6 O63 2.153838 1_555
Hf7 O30 2.024494 1_555
Hf7 O31 2.038947 1_555
Hf7 O66 2.071666 1_555
Hf7 O32 2.078057 1_555
Hf7 O67 2.190161 1_555
Hf7 O68 2.192515 1_555
Hf8 O34 2.041282 1_555
Hf8 O35 2.048377 1_555
Hf8 O71 2.071962 1_555
Hf8 O70 2.098402 1_555
Hf8 O33 2.099390 1_555
Hf8 O69 2.121409 1_555
O0 P0 1.515676 1_545
O1 S0 1.444202 1_555
O2 S1 1.445151 1_655
O3 P1 1.545883 1_555
O4 P2 1.542072 1_655
O5 P3 1.543762 1_545
O6 P3 1.567584 1_555
O7 P1 1.567727 1_555
O8 P2 1.557867 1_555
O9 S0 1.518111 1_555
O10 S1 1.516964 1_555
O11 P0 1.612469 1_555
O12 P4 1.514895 1_555
O13 S2 1.449657 1_555
O14 P5 1.499098 1_555
O15 P6 1.493698 1_555
O16 P7 1.512158 1_555
O17 P8 1.495530 1_555
O18 P8 1.570034 1_555
O19 P6 1.559436 1_555
O20 P7 1.563390 1_555
O21 S2 1.502098 1_555
O22 P5 1.571631 1_555
O23 P4 1.573934 1_555
O24 P9 1.537001 1_555
O25 P10 1.538440 1_555
O26 P11 1.540891 1_555
O27 P12 1.533985 1_555
O28 P13 1.541027 1_555
O29 P14 1.535622 1_555
O30 P14 1.564670 1_555
O31 P12 1.578658 1_555
O32 P13 1.557832 1_555
O33 P10 1.552916 1_555
O34 P11 1.551199 1_555
O35 P9 1.549310 1_555
O36 P14 1.516563 1_555
O37 P12 1.502202 1_555
O38 P13 1.521265 1_555
O39 P10 1.546566 1_555
O40 P11 1.546700 1_555
O41 P9 1.545624 1_555
O42 P4 1.560967 1_555
O43 S2 1.492969 1_555
O44 P5 1.561084 1_555
O45 P6 1.585477 1_555
O46 P7 1.554125 1_555
O47 P8 1.586068 1_555
O48 P3 1.520605 1_545
O49 P1 1.504873 1_555
O50 P2 1.522294 1_655
O51 S0 1.461371 1_555
O52 S1 1.462023 1_655
O53 P0 1.517825 1_545
O54 P9 1.546418 1_555
O55 P10 1.548151 1_655
O56 P11 1.546858 1_545
O57 P12 1.569778 1_545
O58 P13 1.566568 1_555
O59 P14 1.556741 1_655
O60 P8 1.544106 1_555
O61 P6 1.566486 1_455
O62 P7 1.561565 1_565
O63 S2 1.492030 1_565
O64 P5 1.555065 1_555
O65 P4 1.555672 1_455
O66 P0 1.589409 1_555
O67 S0 1.511741 1_555
O68 S1 1.510622 1_555
O69 P1 1.578056 1_555
O70 P2 1.571673 1_555
O71 P3 1.552937 1_555
