# generated using pymatgen
data_EuZn5
_symmetry_space_group_name_H-M   'P 1'
_cell_length_a   5.37667203
_cell_length_b   5.37665225
_cell_length_c   4.22036360
_cell_angle_alpha   90.00010870
_cell_angle_beta   89.99983965
_cell_angle_gamma   119.99898759
_symmetry_Int_Tables_number   1
_chemical_formula_structural   EuZn5
_chemical_formula_sum   'Eu1 Zn5'
_cell_volume   105.65995578
_cell_formula_units_Z   1
loop_
 _symmetry_equiv_pos_site_id
 _symmetry_equiv_pos_as_xyz
  1  'x, y, z'
loop_
 _atom_site_type_symbol
 _atom_site_label
 _atom_site_symmetry_multiplicity
 _atom_site_fract_x
 _atom_site_fract_y
 _atom_site_fract_z
 _atom_site_occupancy
  Eu  Eu0  1  0.00000000  0.00000000  -0.00000000  1
  Zn  Zn0  1  0.00000000  0.50000000  0.50000000  1
  Zn  Zn1  1  0.33333711  0.66666489  0.00000000  1
  Zn  Zn2  1  0.66666289  0.33333511  -0.00000000  1
  Zn  Zn3  1  0.50000000  0.00000000  0.50000000  1
  Zn  Zn4  1  0.50000000  0.50000000  0.50000000  1
loop_
_geom_bond_atom_site_label_1
_geom_bond_atom_site_label_2
_geom_bond_distance
_geom_bond_site_symmetry_2
Eu0 Zn2 3.104227 1_455
Eu0 Zn1 3.104227 1_545
Eu0 Zn1 3.104235 1_555
Eu0 Zn2 3.104235 1_445
Eu0 Zn1 3.104237 1_445
Eu0 Zn2 3.104237 1_555
Eu0 Zn0 3.417593 1_555
Eu0 Zn0 3.417593 1_544
Eu0 Zn3 3.417599 1_455
Eu0 Zn3 3.417599 1_554
Eu0 Zn0 3.417599 1_554
Eu0 Zn0 3.417599 1_545
Eu0 Zn3 3.417609 1_454
Eu0 Zn3 3.417609 1_555
Eu0 Zn4 3.417631 1_445
Eu0 Zn4 3.417631 1_554
Eu0 Zn4 3.417634 1_555
Eu0 Zn4 3.417634 1_444
Zn0 Zn1 2.619543 1_555
Zn0 Zn2 2.619543 1_456
Zn0 Zn2 2.619549 1_455
Zn0 Zn1 2.619549 1_556
Zn0 Zn4 2.688336 1_555
Zn0 Zn4 2.688336 1_455
Zn0 Zn3 2.688372 1_565
Zn0 Zn3 2.688372 1_455
Zn1 Zn4 2.619501 1_554
Zn1 Zn4 2.619508 1_555
Zn1 Zn3 2.619536 1_565
Zn1 Zn3 2.619538 1_564
Zn2 Zn4 2.619501 1_555
Zn2 Zn4 2.619508 1_554
Zn2 Zn3 2.619536 1_554
Zn2 Zn3 2.619538 1_555
Zn3 Zn4 2.688326 1_545
Zn3 Zn4 2.688326 1_555
