# generated using pymatgen
data_MgV4O7F5
_symmetry_space_group_name_H-M   'P 1'
_cell_length_a   5.26420369
_cell_length_b   7.15948672
_cell_length_c   5.63245604
_cell_angle_alpha   93.00202725
_cell_angle_beta   89.87673382
_cell_angle_gamma   91.19401879
_symmetry_Int_Tables_number   1
_chemical_formula_structural   MgV4O7F5
_chemical_formula_sum   'Mg1 V4 O7 F5'
_cell_volume   211.94414738
_cell_formula_units_Z   1
loop_
 _symmetry_equiv_pos_site_id
 _symmetry_equiv_pos_as_xyz
  1  'x, y, z'
loop_
 _atom_site_type_symbol
 _atom_site_label
 _atom_site_symmetry_multiplicity
 _atom_site_fract_x
 _atom_site_fract_y
 _atom_site_fract_z
 _atom_site_occupancy
  Mg  Mg0  1  0.01429200  0.78180800  0.39632600  1
  V  V0  1  0.45057400  0.49591700  0.53201300  1
  V  V1  1  0.52987100  0.00138400  0.47255200  1
  V  V2  1  0.98627900  0.48790900  0.99415400  1
  V  V3  1  0.05291500  0.00504900  0.96869700  1
  O  O0  1  0.90726300  0.25046800  0.99787300  1
  O  O1  1  0.72330500  0.95137700  0.24128700  1
  O  O2  1  0.56575300  0.24235100  0.50489100  1
  O  O3  1  0.37888300  0.76377300  0.50104500  1
  O  O4  1  0.31575100  0.04225900  0.81382000  1
  O  O5  1  0.19579800  0.46129000  0.71106600  1
  O  O6  1  0.06190600  0.74373100  0.03624600  1
  F  F0  1  0.79340700  0.55481800  0.33320600  1
  F  F1  1  0.83281100  0.92641000  0.67713700  1
  F  F2  1  0.69025600  0.55482500  0.79634200  1
  F  F3  1  0.28653100  0.45183000  0.21873400  1
  F  F4  1  0.20190500  0.04372900  0.30461500  1
loop_
_geom_bond_atom_site_label_1
_geom_bond_atom_site_label_2
_geom_bond_distance
_geom_bond_site_symmetry_2
Mg0 O3 2.017767 1_555
Mg0 O6 2.047736 1_555
Mg0 O1 2.185678 1_455
O0 V2 1.742851 1_555
O0 V3 1.930691 1_655
O1 V1 1.680014 1_565
O1 V3 2.353338 1_664
O2 V1 1.731712 1_555
O2 V0 1.924339 1_555
O3 V1 1.877018 1_565
O3 V0 1.978876 1_555
O4 V3 1.658355 1_555
O4 V1 2.235269 1_555
O5 V0 1.698192 1_555
O5 V2 1.940246 1_455
O6 V2 1.869179 1_454
O6 V3 1.930181 1_564
F0 Mg0 1.995500 1_655
F0 V0 2.167456 1_555
F0 V2 2.196221 1_554
F1 V3 2.059243 1_665
F1 V1 2.065797 1_565
F1 Mg0 2.085507 1_655
F2 V0 1.976506 1_555
F2 V2 1.998440 1_555
F3 V0 1.973774 1_555
F3 V2 2.055453 1_454
F4 V1 2.006550 1_555
F4 V3 2.052832 1_554
F4 Mg0 2.186500 1_545
