# generated using pymatgen
data_Na6Zr7Zn(PO4)12
_symmetry_space_group_name_H-M   'P 1'
_cell_length_a   17.88221066
_cell_length_b   8.95903249
_cell_length_c   23.28292791
_cell_angle_alpha   90.02929632
_cell_angle_beta   89.99607752
_cell_angle_gamma   120.03178777
_symmetry_Int_Tables_number   1
_chemical_formula_structural   Na6Zr7Zn(PO4)12
_chemical_formula_sum   'Na18 Zr21 Zn3 P36 O144'
_cell_volume   3229.32144234
_cell_formula_units_Z   3
loop_
 _symmetry_equiv_pos_site_id
 _symmetry_equiv_pos_as_xyz
  1  'x, y, z'
loop_
 _atom_site_type_symbol
 _atom_site_label
 _atom_site_symmetry_multiplicity
 _atom_site_fract_x
 _atom_site_fract_y
 _atom_site_fract_z
 _atom_site_occupancy
  Na  Na0  1  0.68964155  0.36566659  0.24448989  1
  Na  Na1  1  0.99224363  0.62047039  0.24430961  1
  Na  Na2  1  0.99206145  0.36140174  0.74191906  1
  Na  Na3  1  0.49230083  0.36158443  0.74198466  1
  Na  Na4  1  0.18792806  0.01198717  0.74199039  1
  Na  Na5  1  0.68799675  0.01220323  0.74221835  1
  Na  Na6  1  0.00002537  0.99929117  0.49996925  1
  Na  Na7  1  0.49998673  0.00024760  0.50027906  1
  Na  Na8  1  0.99834194  0.99717564  0.00166092  1
  Na  Na9  1  0.50177375  0.00347585  0.00097674  1
  Na  Na10  1  0.33307595  0.34639234  0.82837851  1
  Na  Na11  1  0.83273470  0.34576516  0.82999065  1
  Na  Na12  1  0.33312312  0.33354786  0.33579962  1
  Na  Na13  1  0.83317856  0.31886981  0.33012579  1
  Na  Na14  1  0.17033269  0.66457443  0.16585949  1
  Na  Na15  1  0.66925476  0.68232940  0.16515652  1
  Na  Na16  1  0.17279142  0.66511617  0.66040476  1
  Na  Na17  1  0.67282117  0.66532992  0.66069553  1
  Zr  Zr0  1  0.00018069  0.00329106  0.35352123  1
  Zr  Zr1  1  0.49944604  0.99844187  0.35403461  1
  Zr  Zr2  1  0.99948797  0.99784487  0.85378930  1
  Zr  Zr3  1  0.49973782  0.99773849  0.85391212  1
  Zr  Zr4  1  0.99854216  0.99741980  0.64458405  1
  Zr  Zr5  1  0.49872814  0.99717130  0.64456912  1
  Zr  Zr6  1  0.99757896  0.00106222  0.14617861  1
  Zr  Zr7  1  0.50116116  0.99936061  0.14576765  1
  Zr  Zr8  1  0.33325938  0.33407705  0.18638004  1
  Zr  Zr9  1  0.33347977  0.33204802  0.97998248  1
  Zr  Zr10  1  0.83337868  0.33287447  0.98258631  1
  Zr  Zr11  1  0.33326398  0.33259271  0.48273766  1
  Zr  Zr12  1  0.83350295  0.33456578  0.48176703  1
  Zr  Zr13  1  0.16514244  0.66625232  0.02055803  1
  Zr  Zr14  1  0.66740070  0.66606640  0.02056242  1
  Zr  Zr15  1  0.16607553  0.66699919  0.51997334  1
  Zr  Zr16  1  0.66645195  0.66623060  0.52017148  1
  Zr  Zr17  1  0.16945519  0.66528317  0.31463546  1
  Zr  Zr18  1  0.66632365  0.67361554  0.31492304  1
  Zr  Zr19  1  0.16911341  0.66547376  0.81558536  1
  Zr  Zr20  1  0.66918934  0.66613873  0.81575041  1
  Zn  Zn0  1  0.33304527  0.34209216  0.67707708  1
  Zn  Zn1  1  0.83296454  0.34178184  0.67708376  1
  Zn  Zn2  1  0.83332203  0.32222541  0.17950098  1
  P  P0  1  0.14474794  -0.00045978  0.25003117  1
  P  P1  1  0.64690529  0.00279895  0.24971356  1
  P  P2  1  0.35537372  0.71024633  0.24952787  1
  P  P3  1  0.85360953  0.70679007  0.25018677  1
  P  P4  1  0.99825857  0.29224598  0.24999485  1
  P  P5  1  0.49995288  0.28980394  0.25040474  1
  P  P6  1  0.14608037  0.28990493  0.74984880  1
  P  P7  1  0.64607406  0.29016968  0.74983303  1
  P  P8  1  0.99841983  0.70551246  0.75042259  1
  P  P9  1  0.49836707  0.70540836  0.75042421  1
  P  P10  1  0.35428003  0.00120375  0.75003806  1
  P  P11  1  0.85412446  0.00110726  0.74994009  1
  P  P12  1  0.47897809  0.33463255  0.58651570  1
  P  P13  1  0.97877818  0.33486973  0.58629841  1
  P  P14  1  0.18878500  0.04213927  0.58667668  1
  P  P15  1  0.68911125  0.04250038  0.58635801  1
  P  P16  1  0.33196995  0.62172132  0.58462222  1
  P  P17  1  0.83217126  0.62159186  0.58471257  1
  P  P18  1  0.47838930  0.62334540  0.08305314  1
  P  P19  1  0.97831581  0.62427582  0.08647785  1
  P  P20  1  0.33346966  0.04300271  0.08347090  1
  P  P21  1  0.83257013  0.04291936  0.08449355  1
  P  P22  1  0.18795325  0.33322621  0.08312081  1
  P  P23  1  0.68865422  0.33435192  0.08642889  1
  P  P24  1  0.31292547  0.66648804  0.91827225  1
  P  P25  1  0.81331145  0.66531690  0.91779533  1
  P  P26  1  0.02013420  0.37432084  0.91622354  1
  P  P27  1  0.52071331  0.37469419  0.91616091  1
  P  P28  1  0.16705353  0.95877544  0.91614092  1
  P  P29  1  0.66736296  0.95917606  0.91662930  1
  P  P30  1  0.31208720  0.95890536  0.41706996  1
  P  P31  1  0.81247836  0.95949401  0.41753318  1
  P  P32  1  0.16737867  0.37511284  0.41754520  1
  P  P33  1  0.66726042  0.37648832  0.41546186  1
  P  P34  1  0.02079163  0.66626705  0.41542784  1
  P  P35  1  0.52006840  0.66515625  0.41741235  1
  O  O0  1  0.10204285  0.02328207  0.30396298  1
  O  O1  1  0.59912034  0.02249193  0.30263225  1
  O  O2  1  0.40961574  0.79646930  0.30353907  1
  O  O3  1  0.91136931  0.80134700  0.30276785  1
  O  O4  1  0.48794119  0.17958652  0.30399515  1
  O  O5  1  0.99105770  0.18268703  0.30342859  1
  O  O6  1  0.09970429  0.17657572  0.80331052  1
  O  O7  1  0.59961206  0.17657755  0.80328790  1
  O  O8  1  0.49013821  0.79860732  0.80407114  1
  O  O9  1  0.99024788  0.79885950  0.80406184  1
  O  O10  1  0.41097347  0.02106614  0.80309782  1
  O  O11  1  0.91091149  0.02111401  0.80299348  1
  O  O12  1  0.39747382  0.97558510  0.69660850  1
  O  O13  1  0.89743908  0.97544609  0.69659521  1
  O  O14  1  0.08711357  0.20471773  0.69708843  1
  O  O15  1  0.58706534  0.20481426  0.69706433  1
  O  O16  1  0.01517155  0.82375547  0.69782747  1
  O  O17  1  0.51497250  0.82346486  0.69781171  1
  O  O18  1  0.39889377  0.82055076  0.19593303  1
  O  O19  1  0.89711293  0.81873614  0.19649265  1
  O  O20  1  0.01114410  0.20478868  0.19652925  1
  O  O21  1  0.51423926  0.20388013  0.19712877  1
  O  O22  1  0.08735577  0.97140268  0.19692428  1
  O  O23  1  0.59020925  0.97702609  0.19600736  1
  O  O24  1  0.44340913  0.36059874  0.64287360  1
  O  O25  1  0.94341402  0.36058196  0.64283624  1
  O  O26  1  0.23784663  0.11275213  0.64293862  1
  O  O27  1  0.73775708  0.11263298  0.64283761  1
  O  O28  1  0.31694459  0.51862924  0.63908475  1
  O  O29  1  0.81692631  0.51855592  0.63917383  1
  O  O30  1  0.43455078  0.51334508  0.13684243  1
  O  O31  1  0.94300366  0.52608891  0.14250623  1
  O  O32  1  0.32223745  0.13144116  0.13703691  1
  O  O33  1  0.81716176  0.11622280  0.13857867  1
  O  O34  1  0.24334415  0.35643249  0.13693647  1
  O  O35  1  0.73778249  0.36173275  0.14247099  1
  O  O36  1  0.23222249  0.31098860  0.02954459  1
  O  O37  1  0.73375607  0.31080580  0.03298413  1
  O  O38  1  0.42335188  0.53518995  0.02939421  1
  O  O39  1  0.92183505  0.53278809  0.03297367  1
  O  O40  1  0.34480188  0.15303808  0.02968885  1
  O  O41  1  0.84480232  0.15316898  0.03011008  1
  O  O42  1  0.23435275  0.15636483  0.53361896  1
  O  O43  1  0.73471248  0.15711745  0.53340876  1
  O  O44  1  0.34435423  0.53525704  0.53056549  1
  O  O45  1  0.84439879  0.53566600  0.53050816  1
  O  O46  1  0.42199224  0.31261913  0.53347276  1
  O  O47  1  0.92178207  0.31289939  0.53331715  1
  O  O48  1  0.26804519  0.68880669  0.97099339  1
  O  O49  1  0.76877360  0.68832468  0.97057698  1
  O  O50  1  0.07760521  0.46659688  0.96852449  1
  O  O51  1  0.57757368  0.46698647  0.96840478  1
  O  O52  1  0.15644462  0.84552453  0.96853184  1
  O  O53  1  0.65603010  0.84454918  0.96869100  1
  O  O54  1  0.26819554  0.84781854  0.47016558  1
  O  O55  1  0.76823780  0.84806932  0.47043026  1
  O  O56  1  0.15592777  0.46366344  0.47048427  1
  O  O57  1  0.65574064  0.46730014  0.46792780  1
  O  O58  1  0.07769889  0.68888231  0.46796785  1
  O  O59  1  0.57595905  0.68875366  0.47034888  1
  O  O60  1  0.06313623  0.64426054  0.36008018  1
  O  O61  1  0.56423837  0.64329926  0.36317190  1
  O  O62  1  0.25709203  0.87062176  0.36285511  1
  O  O63  1  0.75707931  0.87136774  0.36330964  1
  O  O64  1  0.17865373  0.48540313  0.36329595  1
  O  O65  1  0.67776205  0.48196602  0.36000396  1
  O  O66  1  0.06283653  0.48108934  0.86073064  1
  O  O67  1  0.56264627  0.48095244  0.86056746  1
  O  O68  1  0.17819574  0.87461502  0.86067914  1
  O  O69  1  0.67797288  0.87435314  0.86091518  1
  O  O70  1  0.25768742  0.64352881  0.86378489  1
  O  O71  1  0.75784558  0.64293942  0.86344429  1
  O  O72  1  0.01155221  0.82862208  0.40979073  1
  O  O73  1  0.51122099  0.82770415  0.41081992  1
  O  O74  1  0.40252237  0.97708792  0.41059131  1
  O  O75  1  0.90278600  0.97759972  0.41078683  1
  O  O76  1  0.08601102  0.19475841  0.41112541  1
  O  O77  1  0.58579750  0.19499622  0.40991005  1
  O  O78  1  0.01149176  0.19456788  0.91040793  1
  O  O79  1  0.51144563  0.19446709  0.91057694  1
  O  O80  1  0.08592691  0.97693817  0.91091106  1
  O  O81  1  0.58595688  0.97699350  0.91097317  1
  O  O82  1  0.40277282  0.82853370  0.91159896  1
  O  O83  1  0.90306873  0.82788888  0.91117798  1
  O  O84  1  0.48839197  0.17038059  0.58902240  1
  O  O85  1  0.98845942  0.17076617  0.58904883  1
  O  O86  1  0.09712380  0.02343827  0.58960817  1
  O  O87  1  0.59727360  0.02350262  0.58958180  1
  O  O88  1  0.41460211  0.80435059  0.58892303  1
  O  O89  1  0.91463389  0.80449010  0.58893761  1
  O  O90  1  0.48738251  0.80366331  0.08870401  1
  O  O91  1  0.98893132  0.80790297  0.08913829  1
  O  O92  1  0.41451623  0.02467169  0.08960710  1
  O  O93  1  0.91478381  0.02430842  0.08827285  1
  O  O94  1  0.09769199  0.17143888  0.08931620  1
  O  O95  1  0.59669966  0.17028670  0.08895949  1
  O  O96  1  0.34486755  0.16211832  0.74709033  1
  O  O97  1  0.84481902  0.16205047  0.74697172  1
  O  O98  1  0.23437704  0.30357415  0.74578350  1
  O  O99  1  0.73435705  0.30370097  0.74572505  1
  O  O100  1  0.42169265  0.52255746  0.74637757  1
  O  O101  1  0.92175833  0.52272653  0.74638134  1
  O  O102  1  0.34539874  0.52888847  0.24341531  1
  O  O103  1  0.84493888  0.52756439  0.24695103  1
  O  O104  1  0.42056625  0.31274112  0.24370299  1
  O  O105  1  0.92009048  0.31829955  0.24657218  1
  O  O106  1  0.23567263  0.15875255  0.24340209  1
  O  O107  1  0.73480199  0.16801870  0.24618822  1
  O  O108  1  0.32174241  0.50448295  0.92316339  1
  O  O109  1  0.82208376  0.50363706  0.92298561  1
  O  O110  1  0.43076153  0.35728253  0.92232187  1
  O  O111  1  0.93054934  0.35764055  0.92257689  1
  O  O112  1  0.24800136  0.13870838  0.92222733  1
  O  O113  1  0.74806621  0.13917298  0.92280667  1
  O  O114  1  0.32152684  0.13918005  0.42283277  1
  O  O115  1  0.82151696  0.13922377  0.42310706  1
  O  O116  1  0.24819269  0.35613095  0.42303415  1
  O  O117  1  0.74783768  0.35704793  0.42232416  1
  O  O118  1  0.43009823  0.50296947  0.42295195  1
  O  O119  1  0.93090900  0.50400820  0.42243588  1
  O  O120  1  0.17875446  0.49562588  0.07725125  1
  O  O121  1  0.67611950  0.49256276  0.07592812  1
  O  O122  1  0.06998321  0.64692715  0.07592622  1
  O  O123  1  0.56910894  0.64317789  0.07741914  1
  O  O124  1  0.25228851  0.86222254  0.07742297  1
  O  O125  1  0.75306002  0.85883317  0.07532891  1
  O  O126  1  0.17687462  0.85968232  0.57657122  1
  O  O127  1  0.67701563  0.85966454  0.57643955  1
  O  O128  1  0.25288365  0.64745744  0.57566588  1
  O  O129  1  0.75291528  0.64698283  0.57579951  1
  O  O130  1  0.07024187  0.49448736  0.57659091  1
  O  O131  1  0.57035134  0.49392035  0.57665842  1
  O  O132  1  0.15005028  0.83168993  0.25601431  1
  O  O133  1  0.65449212  0.83837091  0.25592281  1
  O  O134  1  0.26447803  0.69097344  0.25524696  1
  O  O135  1  0.76153725  0.68366010  0.25613752  1
  O  O136  1  0.08097709  0.47604932  0.25575279  1
  O  O137  1  0.58404936  0.46812111  0.25649270  1
  O  O138  1  0.15010601  0.46775408  0.75677193  1
  O  O139  1  0.65000813  0.46789041  0.75677547  1
  O  O140  1  0.08380226  0.69458327  0.75692115  1
  O  O141  1  0.58368929  0.69438488  0.75680698  1
  O  O142  1  0.26189507  0.83940675  0.75612867  1
  O  O143  1  0.76180465  0.83933390  0.75605175  1
loop_
_geom_bond_atom_site_label_1
_geom_bond_atom_site_label_2
_geom_bond_distance
_geom_bond_site_symmetry_2
Na0 O107 2.284878 1_555
Na0 O103 2.405666 1_555
Na0 O135 2.485112 1_555
Na0 O137 2.494098 1_555
Na0 O35 2.532663 1_555
Na1 O103 2.332522 1_555
Na1 O105 2.345228 1_555
Na1 O132 2.504574 1_655
Na1 O136 2.513624 1_655
Na1 O31 2.522204 1_555
Na2 O97 2.330130 1_555
Na2 O101 2.344953 1_555
Na2 O25 2.464274 1_555
Na2 O138 2.513792 1_655
Na2 O140 2.611671 1_655
Na2 O14 2.887150 1_655
Na2 O11 2.999668 1_555
Na2 O66 3.007147 1_655
Na3 O96 2.332947 1_555
Na3 O100 2.346706 1_555
Na3 O24 2.466169 1_555
Na3 O139 2.508034 1_555
Na3 O141 2.607938 1_555
Na3 O15 2.884231 1_555
Na3 O67 2.999972 1_555
Na3 O10 3.001618 1_555
Na4 O98 2.312979 1_555
Na4 O96 2.433260 1_555
Na4 O26 2.475006 1_555
Na4 O142 2.509203 1_545
Na4 O140 2.524901 1_545
Na5 O99 2.312306 1_555
Na5 O97 2.431106 1_555
Na5 O27 2.481091 1_555
Na5 O143 2.508182 1_545
Na5 O141 2.527190 1_545
Na6 O89 2.646537 1_455
Na6 O76 2.649121 1_565
Na6 O85 2.649373 1_465
Na6 O75 2.652315 1_455
Na6 O86 2.653584 1_565
Na6 O72 2.664762 1_555
Na7 O84 2.636004 1_555
Na7 O88 2.644264 1_545
Na7 O87 2.651494 1_555
Na7 O73 2.660032 1_545
Na7 O74 2.660697 1_545
Na7 O77 2.673820 1_555
Na8 O93 2.592485 1_565
Na8 O91 2.601891 1_555
Na8 O94 2.641930 1_665
Na8 O83 2.655532 1_554
Na8 O80 2.689560 1_654
Na8 O78 2.698944 1_664
Na9 O95 2.601786 1_555
Na9 O90 2.642976 1_545
Na9 O92 2.650445 1_555
Na9 O81 2.659011 1_544
Na9 O79 2.663689 1_554
Na9 O82 2.672245 1_544
Na10 O100 2.479205 1_555
Na10 O98 2.506464 1_555
Na10 O96 2.587899 1_555
Na10 O108 2.683548 1_555
Na10 O110 2.770350 1_555
Na10 O112 2.778727 1_555
Na11 O101 2.512715 1_555
Na11 O99 2.534206 1_555
Na11 O97 2.616219 1_555
Na11 O109 2.644101 1_555
Na11 O111 2.744408 1_555
Na11 O113 2.754407 1_555
Na12 O116 2.603750 1_555
Na12 O118 2.605999 1_555
Na12 O114 2.612210 1_555
Na12 O102 2.712353 1_555
Na12 O104 2.714528 1_555
Na12 O106 2.717099 1_555
Na13 O105 2.491484 1_555
Na13 O107 2.521619 1_555
Na13 O103 2.626845 1_555
Na13 O115 2.643496 1_555
Na13 O119 2.742263 1_555
Na13 O117 2.752327 1_555
Na14 O120 2.606695 1_555
Na14 O134 2.612092 1_555
Na14 O124 2.632261 1_555
Na14 O136 2.662376 1_555
Na14 O132 2.705448 1_555
Na14 O122 2.710309 1_555
Na15 O125 2.598356 1_555
Na15 O133 2.618474 1_555
Na15 O123 2.621846 1_555
Na15 O135 2.681664 1_555
Na15 O121 2.725207 1_555
Na15 O137 2.757474 1_555
Na16 O128 2.488977 1_555
Na16 O130 2.588289 1_555
Na16 O126 2.594176 1_555
Na16 O142 2.729618 1_555
Na16 O138 2.758839 1_555
Na16 O140 2.840995 1_555
Na17 O129 2.494068 1_555
Na17 O131 2.593278 1_555
Na17 O127 2.599617 1_555
Na17 O143 2.721275 1_555
Na17 O139 2.753399 1_555
Na17 O141 2.833718 1_555
O0 P0 1.538625 1_555
O0 Zr0 2.086812 1_555
O1 P1 1.558818 1_555
O1 Zr1 2.066699 1_545
O2 P2 1.538875 1_555
O2 Zr1 2.079774 1_555
O3 P3 1.551297 1_555
O3 Zr0 2.076988 1_665
O4 P5 1.538492 1_555
O4 Zr1 2.090361 1_545
O5 P4 1.549997 1_555
O5 Zr0 2.057768 1_655
O6 P6 1.557673 1_555
O6 Zr2 2.070315 1_445
O7 P7 1.558772 1_555
O7 Zr3 2.069655 1_545
O8 P9 1.549474 1_555
O8 Zr3 2.061602 1_555
O9 P8 1.549737 1_555
O9 Zr2 2.061298 1_555
O10 P10 1.550810 1_555
O10 Zr3 2.072562 1_545
O11 P11 1.551416 1_555
O11 Zr2 2.069320 1_545
O12 P10 1.540726 1_565
O12 Zr5 2.105550 1_555
O13 P11 1.540533 1_565
O13 Zr4 2.101800 1_555
O14 P6 1.548238 1_555
O14 Zr4 2.122673 1_445
O15 P7 1.548946 1_555
O15 Zr5 2.122818 1_545
O16 P8 1.547626 1_455
O16 Zr4 2.123921 1_455
O17 P9 1.547356 1_555
O17 Zr5 2.120733 1_555
O18 P2 1.539697 1_555
O18 Zr7 2.084246 1_555
O19 P3 1.547297 1_555
O19 Zr6 2.081435 1_565
O20 P4 1.548003 1_455
O20 Zr6 2.078259 1_455
O21 P5 1.546713 1_555
O21 Zr7 2.100216 1_545
O22 P0 1.544869 1_565
O22 Zr6 2.114588 1_465
O23 P1 1.552533 1_565
O23 Zr7 2.064798 1_555
O24 P12 1.525834 1_555
O24 Zn0 2.056444 1_555
O25 P13 1.526824 1_555
O25 Zn1 2.057199 1_555
O26 P14 1.526312 1_555
O26 Zn0 2.061269 1_555
O27 P15 1.527406 1_555
O27 Zn1 2.061290 1_555
O28 P16 1.511931 1_555
O28 Zn0 1.955530 1_555
O29 P17 1.511146 1_555
O29 Zn1 1.955921 1_555
O30 P18 1.543376 1_555
O30 Zr8 2.068893 1_555
O31 P19 1.522935 1_555
O31 Zn2 2.083340 1_555
O32 P20 1.543312 1_555
O32 Zr8 2.072247 1_555
O33 P21 1.507707 1_555
O33 Zn2 1.965169 1_555
O34 P22 1.545343 1_555
O34 Zr8 2.067238 1_555
O35 P23 1.522714 1_555
O35 Zn2 2.096005 1_555
O36 P22 1.542687 1_555
O36 Zr9 2.074567 1_554
O37 P23 1.553473 1_555
O37 Zr10 2.058401 1_554
O38 P18 1.540892 1_555
O38 Zr9 2.070993 1_554
O39 P19 1.553789 1_555
O39 Zr10 2.061196 1_554
O40 P20 1.543427 1_555
O40 Zr9 2.068656 1_554
O41 P21 1.552970 1_555
O41 Zr10 2.046747 1_554
O42 P14 1.550409 1_555
O42 Zr11 2.056941 1_555
O43 P15 1.549912 1_555
O43 Zr12 2.069878 1_555
O44 P16 1.550437 1_555
O44 Zr11 2.052703 1_555
O45 P17 1.549391 1_555
O45 Zr12 2.053867 1_555
O46 P12 1.549611 1_555
O46 Zr11 2.056587 1_555
O47 P13 1.548654 1_555
O47 Zr12 2.068218 1_555
O48 P24 1.533325 1_555
O48 Zr13 2.094375 1_556
O49 P25 1.533282 1_555
O49 Zr14 2.078092 1_556
O50 P26 1.539863 1_555
O50 Zr13 2.076764 1_556
O51 P27 1.534518 1_555
O51 Zr14 2.089592 1_556
O52 P28 1.536864 1_555
O52 Zr13 2.079214 1_556
O53 P29 1.535550 1_555
O53 Zr14 2.093869 1_556
O54 P30 1.534276 1_555
O54 Zr15 2.084323 1_555
O55 P31 1.532921 1_555
O55 Zr16 2.083688 1_555
O56 P32 1.533660 1_555
O56 Zr15 2.084745 1_555
O57 P33 1.537295 1_555
O57 Zr16 2.085359 1_555
O58 P34 1.538369 1_555
O58 Zr15 2.076722 1_555
O59 P35 1.533328 1_555
O59 Zr16 2.081420 1_555
O60 P34 1.556252 1_555
O60 Zr17 2.100275 1_555
O61 P35 1.552901 1_555
O61 Zr18 2.042539 1_555
O62 P30 1.551336 1_555
O62 Zr17 2.052565 1_555
O63 P31 1.553984 1_555
O63 Zr18 2.040104 1_555
O64 P32 1.553765 1_555
O64 Zr17 2.043277 1_555
O65 P33 1.555342 1_555
O65 Zr18 2.108320 1_555
O66 P26 1.561229 1_555
O66 Zr19 2.074729 1_555
O67 P27 1.559021 1_555
O67 Zr20 2.075769 1_555
O68 P28 1.557255 1_555
O68 Zr19 2.081555 1_555
O69 P29 1.561879 1_555
O69 Zr20 2.077239 1_555
O70 P24 1.556906 1_555
O70 Zr19 2.029520 1_555
O71 P25 1.557628 1_555
O71 Zr20 2.029779 1_555
O72 P34 1.549507 1_555
O72 Zr0 2.127725 1_565
O73 P35 1.549248 1_555
O73 Zr1 2.111084 1_555
O74 P30 1.549473 1_555
O74 Zr1 2.107756 1_555
O75 P31 1.548120 1_555
O75 Zr0 2.112515 1_665
O76 P32 1.548146 1_555
O76 Zr0 2.111774 1_555
O77 P33 1.552912 1_555
O77 Zr1 2.110433 1_545
O78 P26 1.544767 1_555
O78 Zr2 2.123454 1_445
O79 P27 1.543838 1_555
O79 Zr3 2.125829 1_545
O80 P28 1.543450 1_555
O80 Zr2 2.117419 1_455
O81 P29 1.547446 1_555
O81 Zr3 2.112829 1_555
O82 P24 1.542273 1_555
O82 Zr3 2.116426 1_555
O83 P25 1.543214 1_555
O83 Zr2 2.109633 1_555
O84 P12 1.563719 1_555
O84 Zr5 2.098569 1_545
O85 P13 1.565393 1_555
O85 Zr4 2.097293 1_545
O86 P14 1.563492 1_555
O86 Zr4 2.095013 1_445
O87 P15 1.565833 1_555
O87 Zr5 2.093802 1_545
O88 P16 1.565371 1_555
O88 Zr5 2.079091 1_555
O89 P17 1.565372 1_555
O89 Zr4 2.078359 1_555
O90 P18 1.546825 1_555
O90 Zr7 2.113074 1_555
O91 P19 1.560001 1_555
O91 Zr6 2.124191 1_565
O92 P20 1.544709 1_555
O92 Zr7 2.124643 1_545
O93 P21 1.562792 1_555
O93 Zr6 2.088617 1_555
O94 P22 1.544463 1_555
O94 Zr6 2.134043 1_455
O95 P23 1.564815 1_555
O95 Zr7 2.096720 1_545
O96 P10 1.534389 1_555
O96 Zn0 2.376069 1_555
O97 P11 1.533557 1_555
O97 Zn1 2.372742 1_555
O98 P6 1.524287 1_555
O98 Zn0 2.276386 1_555
O99 P7 1.524647 1_555
O99 Zn1 2.275488 1_555
O100 P9 1.524468 1_555
O100 Zn0 2.272140 1_555
O101 P8 1.524014 1_555
O101 Zn1 2.274543 1_555
O102 P2 1.549737 1_555
O102 Zr8 2.115455 1_555
O103 P3 1.535783 1_555
O103 Zn2 2.346967 1_555
O104 P5 1.540756 1_555
O104 Zr8 2.134139 1_555
O105 P4 1.530146 1_555
O105 Zn2 2.214134 1_555
O106 P0 1.542990 1_555
O106 Zr8 2.129142 1_555
O107 P1 1.529565 1_555
O107 Zn2 2.233558 1_555
O108 P24 1.540664 1_555
O108 Zr9 2.123066 1_555
O109 P25 1.537846 1_555
O109 Zr10 2.149058 1_555
O110 P27 1.543092 1_555
O110 Zr9 2.118022 1_555
O111 P26 1.539773 1_655
O111 Zr10 2.152858 1_555
O112 P28 1.542123 1_545
O112 Zr9 2.119597 1_555
O113 P29 1.540837 1_545
O113 Zr10 2.150343 1_555
O114 P30 1.543338 1_545
O114 Zr11 2.150698 1_555
O115 P31 1.541106 1_545
O115 Zr12 2.143870 1_555
O116 P32 1.542629 1_555
O116 Zr11 2.147723 1_555
O117 P33 1.543798 1_555
O117 Zr12 2.147587 1_555
O118 P35 1.541615 1_555
O118 Zr11 2.149927 1_555
O119 P34 1.544243 1_655
O119 Zr12 2.145183 1_555
O120 P22 1.549956 1_555
O120 Zr13 2.124366 1_555
O121 P23 1.561238 1_555
O121 Zr14 2.084927 1_555
O122 P19 1.567032 1_455
O122 Zr13 2.071837 1_555
O123 P18 1.546610 1_555
O123 Zr14 2.126752 1_555
O124 P20 1.548145 1_565
O124 Zr13 2.126776 1_555
O125 P21 1.561918 1_565
O125 Zr14 2.074829 1_555
O126 P14 1.556884 1_565
O126 Zr15 2.101851 1_555
O127 P15 1.558282 1_565
O127 Zr16 2.103631 1_555
O128 P16 1.556663 1_555
O128 Zr15 2.096255 1_555
O129 P17 1.557649 1_555
O129 Zr16 2.089309 1_555
O130 P13 1.558933 1_455
O130 Zr15 2.100915 1_555
O131 P12 1.557331 1_555
O131 Zr16 2.100560 1_555
O132 P0 1.559704 1_565
O132 Zr17 2.173907 1_555
O133 P1 1.552304 1_565
O133 Zr18 2.103625 1_555
O134 P2 1.551964 1_555
O134 Zr17 2.112065 1_555
O135 P3 1.559308 1_555
O135 Zr18 2.151005 1_555
O136 P4 1.574572 1_455
O136 Zr17 2.137766 1_555
O137 P5 1.558463 1_555
O137 Zr18 2.165925 1_555
O138 P6 1.566804 1_555
O138 Zr19 2.126816 1_555
O139 P7 1.566466 1_555
O139 Zr20 2.132002 1_555
O140 P8 1.585361 1_455
O140 Zr19 2.158662 1_555
O141 P9 1.584495 1_555
O141 Zr20 2.161713 1_555
O142 P10 1.566432 1_565
O142 Zr19 2.123990 1_555
O143 P11 1.565704 1_565
O143 Zr20 2.124180 1_555
