# generated using pymatgen
data_NaCaLa3(SO4)6
_symmetry_space_group_name_H-M   'P 1'
_cell_length_a   9.50161919
_cell_length_b   9.50161884
_cell_length_c   24.99542361
_cell_angle_alpha   90.00000000
_cell_angle_beta   90.00000000
_cell_angle_gamma   120.00000125
_symmetry_Int_Tables_number   1
_chemical_formula_structural   NaCaLa3(SO4)6
_chemical_formula_sum   'Na3 Ca3 La9 S18 O72'
_cell_volume   1954.27804401
_cell_formula_units_Z   3
loop_
 _symmetry_equiv_pos_site_id
 _symmetry_equiv_pos_as_xyz
  1  'x, y, z'
loop_
 _atom_site_type_symbol
 _atom_site_label
 _atom_site_symmetry_multiplicity
 _atom_site_fract_x
 _atom_site_fract_y
 _atom_site_fract_z
 _atom_site_occupancy
  Na  Na0  1  -0.00000000  0.00000000  0.99464013  1
  Na  Na1  1  0.66666700  0.33333300  0.83890436  1
  Na  Na2  1  0.66666700  0.33333300  0.33314233  1
  Ca  Ca0  1  -0.00000000  0.00000000  0.35455485  1
  Ca  Ca1  1  -0.00000000  0.00000000  0.85125132  1
  Ca  Ca2  1  0.66666700  0.33333300  0.98181821  1
  La  La0  1  -0.00000000  0.00000000  0.64749189  1
  La  La1  1  -0.00000000  0.00000000  0.14945429  1
  La  La2  1  0.66666700  0.33333300  0.68610775  1
  La  La3  1  0.66666700  0.33333300  0.18353039  1
  La  La4  1  0.66666700  0.33333300  0.48100698  1
  La  La5  1  0.33333300  0.66666700  0.01870592  1
  La  La6  1  0.33333300  0.66666700  0.51814842  1
  La  La7  1  0.33333300  0.66666700  0.31198901  1
  La  La8  1  0.33333300  0.66666700  0.81434774  1
  S  S0  1  0.29325127  0.00535234  0.25269044  1
  S  S1  1  0.71210107  0.70674873  0.25269044  1
  S  S2  1  0.99464766  0.28789893  0.25269044  1
  S  S3  1  0.29223484  0.28880072  0.75219446  1
  S  S4  1  0.99656587  0.70776516  0.75219446  1
  S  S5  1  0.71119928  0.00343413  0.75219446  1
  S  S6  1  0.96021277  0.33390982  0.58331789  1
  S  S7  1  0.37369804  0.03978723  0.58331789  1
  S  S8  1  0.66609018  0.62630196  0.58331789  1
  S  S9  1  0.95617305  0.62700195  0.08088239  1
  S  S10  1  0.67082990  0.04382695  0.08088239  1
  S  S11  1  0.37299805  0.32917010  0.08088239  1
  S  S12  1  0.63500444  0.66669543  0.91657920  1
  S  S13  1  0.03168999  0.36499556  0.91657920  1
  S  S14  1  0.33330457  0.96831001  0.91657920  1
  S  S15  1  0.63086911  0.96234408  0.41499560  1
  S  S16  1  0.33147397  0.36913089  0.41499560  1
  S  S17  1  0.03765592  0.66852603  0.41499560  1
  O  O0  1  0.21234267  0.02509323  0.29928825  1
  O  O1  1  0.81275056  0.78765733  0.29928825  1
  O  O2  1  0.97490677  0.18724944  0.29928825  1
  O  O3  1  0.21218055  0.18784342  0.79922048  1
  O  O4  1  0.97566287  0.78781945  0.79922048  1
  O  O5  1  0.81215658  0.02433713  0.79922048  1
  O  O6  1  0.78660167  0.98619345  0.70247364  1
  O  O7  1  0.19959179  0.21339833  0.70247364  1
  O  O8  1  0.01380655  0.80040821  0.70247364  1
  O  O9  1  0.78743333  0.79960927  0.20243655  1
  O  O10  1  0.01217595  0.21256667  0.20243655  1
  O  O11  1  0.20039073  0.98782405  0.20243655  1
  O  O12  1  0.88122134  0.35642415  0.63135914  1
  O  O13  1  0.47520381  0.11877866  0.63135914  1
  O  O14  1  0.64357585  0.52479619  0.63135914  1
  O  O15  1  0.88069624  0.53342566  0.13082426  1
  O  O16  1  0.65273042  0.11930376  0.13082426  1
  O  O17  1  0.46657434  0.34726958  0.13082426  1
  O  O18  1  0.45403776  0.30871495  0.03415358  1
  O  O19  1  0.85467819  0.54596224  0.03415358  1
  O  O20  1  0.69128505  0.14532181  0.03415358  1
  O  O21  1  0.45261108  0.14151948  0.53546197  1
  O  O22  1  0.68890940  0.54738892  0.53546197  1
  O  O23  1  0.85848052  0.31109060  0.53546197  1
  O  O24  1  0.55212891  0.68525369  0.96495306  1
  O  O25  1  0.13312378  0.44787109  0.96495306  1
  O  O26  1  0.31474631  0.86687622  0.96495306  1
  O  O27  1  0.55060209  0.86681797  0.46389372  1
  O  O28  1  0.31621488  0.44939791  0.46389372  1
  O  O29  1  0.13318203  0.68378512  0.46389372  1
  O  O30  1  0.11767684  0.64234722  0.36773550  1
  O  O31  1  0.52466939  0.88232316  0.36773550  1
  O  O32  1  0.35765278  0.47533061  0.36773550  1
  O  O33  1  0.11445333  0.46638916  0.86845151  1
  O  O34  1  0.35193484  0.88554667  0.86845151  1
  O  O35  1  0.53361084  0.64806516  0.86845151  1
  O  O36  1  0.02120572  0.81209320  0.40793612  1
  O  O37  1  0.79088748  0.97879428  0.40793612  1
  O  O38  1  0.18790680  0.20911252  0.40793612  1
  O  O39  1  0.01719178  0.20257840  0.91175203  1
  O  O40  1  0.18538662  0.98280822  0.91175203  1
  O  O41  1  0.79742160  0.81461338  0.91175203  1
  O  O42  1  0.97673556  0.18851571  0.59056593  1
  O  O43  1  0.21178015  0.02326444  0.59056593  1
  O  O44  1  0.81148429  0.78821985  0.59056593  1
  O  O45  1  0.97531847  0.79339203  0.08653255  1
  O  O46  1  0.81807356  0.02468153  0.08653255  1
  O  O47  1  0.20660797  0.18192644  0.08653255  1
  O  O48  1  0.69171523  0.15099234  0.74695765  1
  O  O49  1  0.45927811  0.30828477  0.74695765  1
  O  O50  1  0.84900766  0.54072189  0.74695765  1
  O  O51  1  0.69225817  0.53950737  0.24708506  1
  O  O52  1  0.84725021  0.30774183  0.24708506  1
  O  O53  1  0.46049263  0.15274979  0.24708506  1
  O  O54  1  0.64950753  0.51875135  0.92161577  1
  O  O55  1  0.86924482  0.35049247  0.92161577  1
  O  O56  1  0.48124865  0.13075518  0.92161577  1
  O  O57  1  0.64691036  0.12816077  0.42011976  1
  O  O58  1  0.48125140  0.35308964  0.42011976  1
  O  O59  1  0.87183923  0.51874860  0.42011976  1
  O  O60  1  0.35494735  0.47481495  0.07503041  1
  O  O61  1  0.11986660  0.64505265  0.07503041  1
  O  O62  1  0.52518505  0.88013340  0.07503041  1
  O  O63  1  0.35728176  0.87792528  0.57601455  1
  O  O64  1  0.52064252  0.64271824  0.57601455  1
  O  O65  1  0.12207472  0.47935748  0.57601455  1
  O  O66  1  0.31162438  0.85995822  0.25782968  1
  O  O67  1  0.54833284  0.68837562  0.25782968  1
  O  O68  1  0.14004178  0.45166716  0.25782968  1
  O  O69  1  0.31114801  0.45286830  0.75817297  1
  O  O70  1  0.14171929  0.68885199  0.75817297  1
  O  O71  1  0.54713170  0.85828071  0.75817297  1
loop_
_geom_bond_atom_site_label_1
_geom_bond_atom_site_label_2
_geom_bond_distance
_geom_bond_site_symmetry_2
Na0 O39 2.776627 1_555
Na0 O41 2.776627 1_445
Na0 O40 2.776627 1_545
Na0 O45 2.953663 1_446
Na0 O47 2.953663 1_556
Na0 O46 2.953663 1_456
Na1 O56 2.773418 1_555
Na1 O54 2.773418 1_555
Na1 O55 2.773418 1_555
Na1 O50 2.958477 1_555
Na1 O48 2.958477 1_555
Na1 O49 2.958477 1_555
Na2 O51 2.836792 1_555
Na2 O53 2.836792 1_555
Na2 O52 2.836792 1_555
Na2 O57 2.862892 1_555
Na2 O59 2.862892 1_555
Na2 O58 2.862892 1_555
Ca0 O38 2.316977 1_555
Ca0 O36 2.316977 1_545
Ca0 O37 2.316977 1_445
Ca0 O1 2.356863 1_445
Ca0 O2 2.356863 1_455
Ca0 O0 2.356863 1_555
Ca1 O4 2.311526 1_445
Ca1 O3 2.311526 1_555
Ca1 O5 2.311526 1_455
Ca1 O39 2.388321 1_555
Ca1 O41 2.388321 1_445
Ca1 O40 2.388321 1_545
Ca2 O19 2.318422 1_556
Ca2 O20 2.318422 1_556
Ca2 O18 2.318422 1_556
Ca2 O56 2.383706 1_555
Ca2 O54 2.383706 1_555
Ca2 O55 2.383706 1_555
La0 O44 2.382820 1_445
La0 O42 2.382820 1_455
La0 O43 2.382821 1_555
La0 O7 2.398161 1_555
La0 O6 2.398161 1_445
La0 O8 2.398161 1_545
La1 O10 2.369140 1_555
La1 O9 2.369140 1_445
La1 O11 2.369141 1_545
La1 O45 2.433512 1_445
La1 O47 2.433512 1_555
La1 O46 2.433512 1_455
La2 O13 2.372657 1_555
La2 O14 2.372657 1_555
La2 O12 2.372657 1_555
La2 O50 2.404994 1_555
La2 O48 2.404994 1_555
La2 O49 2.404994 1_555
La3 O16 2.370537 1_555
La3 O15 2.370537 1_555
La3 O17 2.370537 1_555
La3 O51 2.438032 1_555
La3 O53 2.438032 1_555
La3 O52 2.438032 1_555
La4 O22 2.367308 1_555
La4 O21 2.367308 1_555
La4 O23 2.367308 1_555
La4 O57 2.405389 1_555
La4 O59 2.405389 1_555
La4 O58 2.405389 1_555
La5 O62 2.391984 1_555
La5 O60 2.391984 1_555
La5 O61 2.391984 1_555
La5 O25 2.406476 1_554
La5 O26 2.406476 1_554
La5 O24 2.406477 1_554
La6 O63 2.390877 1_555
La6 O65 2.390877 1_555
La6 O64 2.390877 1_555
La6 O28 2.406558 1_555
La6 O27 2.406558 1_555
La6 O29 2.406558 1_555
La7 O68 2.372129 1_555
La7 O66 2.372129 1_555
La7 O67 2.372129 1_555
La7 O31 2.391699 1_555
La7 O30 2.391699 1_555
La7 O32 2.391699 1_555
La8 O69 2.390497 1_555
La8 O71 2.390497 1_555
La8 O70 2.390497 1_555
La8 O34 2.411990 1_555
La8 O33 2.411990 1_555
La8 O35 2.411990 1_555
O0 S0 1.458416 1_555
O1 S1 1.458416 1_555
O2 S2 1.458416 1_555
O3 S3 1.466544 1_555
O4 S4 1.466544 1_555
O5 S5 1.466544 1_555
O6 S5 1.483923 1_565
O7 S3 1.483923 1_555
O8 S4 1.483923 1_455
O9 S1 1.495700 1_555
O10 S2 1.495700 1_455
O11 S0 1.495700 1_565
O12 S6 1.487141 1_555
O13 S7 1.487141 1_555
O14 S8 1.487142 1_555
O15 S9 1.491815 1_555
O16 S10 1.491815 1_555
O17 S11 1.491815 1_555
O18 S11 1.464440 1_555
O19 S9 1.464440 1_555
O20 S10 1.464440 1_555
O21 S7 1.484126 1_555
O22 S8 1.484126 1_555
O23 S6 1.484126 1_555
O24 S12 1.500670 1_555
O25 S13 1.500670 1_555
O26 S14 1.500670 1_555
O27 S15 1.485632 1_555
O28 S16 1.485632 1_555
O29 S17 1.485632 1_555
O30 S17 1.491487 1_555
O31 S15 1.491487 1_555
O32 S16 1.491487 1_555
O33 S13 1.495354 1_555
O34 S14 1.495354 1_555
O35 S12 1.495354 1_555
O36 S17 1.459318 1_555
O37 S15 1.459327 1_555
O38 S16 1.459323 1_555
O39 S13 1.484079 1_555
O40 S14 1.484070 1_555
O41 S12 1.484075 1_555
O42 S6 1.477443 1_555
O43 S7 1.477452 1_555
O44 S8 1.477448 1_555
O45 S9 1.504965 1_555
O46 S10 1.504956 1_555
O47 S11 1.504962 1_555
O48 S5 1.508870 1_555
O49 S3 1.508879 1_555
O50 S4 1.508876 1_555
O51 S1 1.510198 1_555
O52 S2 1.510189 1_555
O53 S0 1.510195 1_555
O54 S12 1.484778 1_555
O55 S13 1.484759 1_655
O56 S14 1.484767 1_545
O57 S15 1.510557 1_545
O58 S16 1.510576 1_555
O59 S17 1.510565 1_655
O60 S11 1.484329 1_555
O61 S9 1.484310 1_455
O62 S10 1.484318 1_565
O63 S7 1.477517 1_565
O64 S8 1.477535 1_555
O65 S6 1.477524 1_455
O66 S0 1.482105 1_565
O67 S1 1.482114 1_555
O68 S2 1.482110 1_455
O69 S3 1.484814 1_555
O70 S4 1.484805 1_455
O71 S5 1.484810 1_565
