# generated using pymatgen
data_Y2Ti2SiS5O24
_symmetry_space_group_name_H-M   'P 1'
_cell_length_a   8.95468544
_cell_length_b   8.95523795
_cell_length_c   23.09267795
_cell_angle_alpha   90.02603454
_cell_angle_beta   90.12065924
_cell_angle_gamma   119.98566356
_symmetry_Int_Tables_number   1
_chemical_formula_structural   Y2Ti2SiS5O24
_chemical_formula_sum   'Y6 Ti6 Si3 S15 O72'
_cell_volume   1603.95986405
_cell_formula_units_Z   3
loop_
 _symmetry_equiv_pos_site_id
 _symmetry_equiv_pos_as_xyz
  1  'x, y, z'
loop_
 _atom_site_type_symbol
 _atom_site_label
 _atom_site_symmetry_multiplicity
 _atom_site_fract_x
 _atom_site_fract_y
 _atom_site_fract_z
 _atom_site_occupancy
  Y  Y0  1  0.99771273  0.00177878  0.36274464  1
  Y  Y1  1  0.00087990  0.00005752  0.86034797  1
  Y  Y2  1  0.67448280  0.33643606  0.68337950  1
  Y  Y3  1  0.66045425  0.33635481  0.18560738  1
  Y  Y4  1  0.65736371  0.32992732  0.98404520  1
  Y  Y5  1  0.33227345  0.66647950  0.80543695  1
  Ti  Ti0  1  0.00057545  0.00904593  0.63964864  1
  Ti  Ti1  1  0.00970227  0.01229172  0.14635809  1
  Ti  Ti2  1  0.68217785  0.32202254  0.47778825  1
  Ti  Ti3  1  0.33230296  0.65911027  0.02334926  1
  Ti  Ti4  1  0.33882416  0.66742078  0.52228369  1
  Ti  Ti5  1  0.34681798  0.67973671  0.31485592  1
  Si  Si0  1  0.96637676  0.33730240  0.58051380  1
  Si  Si1  1  0.36435443  0.33375855  0.08364481  1
  Si  Si2  1  0.60635752  0.95111370  0.42001604  1
  S  S0  1  0.28082795  0.98455029  0.25050205  1
  S  S1  1  0.70514555  0.71792876  0.25121573  1
  S  S2  1  0.01264664  0.29392186  0.24997317  1
  S  S3  1  0.27830718  0.27777503  0.74581695  1
  S  S4  1  0.99887220  0.72207531  0.74610619  1
  S  S5  1  0.72145592  0.99944119  0.74603229  1
  S  S6  1  0.36909496  0.03751225  0.58032137  1
  S  S7  1  0.66966194  0.63135060  0.58064276  1
  S  S8  1  0.97380403  0.64251607  0.08402872  1
  S  S9  1  0.66834422  0.02621492  0.08385456  1
  S  S10  1  0.61306443  0.66673455  0.91964210  1
  S  S11  1  0.05213095  0.38774654  0.91969743  1
  S  S12  1  0.33562118  0.94679454  0.91945973  1
  S  S13  1  0.35110640  0.39956046  0.41855667  1
  S  S14  1  0.04950477  0.65200038  0.41851745  1
  O  O0  1  0.20724688  0.01746396  0.30222212  1
  O  O1  1  0.81139636  0.79577741  0.30298643  1
  O  O2  1  0.98065494  0.18561245  0.30125329  1
  O  O3  1  0.20178820  0.18039409  0.79941471  1
  O  O4  1  0.98081287  0.79964053  0.80045144  1
  O  O5  1  0.81993237  0.02222793  0.79972430  1
  O  O6  1  0.81281022  0.98276082  0.69452338  1
  O  O7  1  0.16930071  0.18595597  0.69408871  1
  O  O8  1  0.01622438  0.82871043  0.69499636  1
  O  O9  1  0.78297733  0.82521882  0.19934441  1
  O  O10  1  0.03362588  0.20129673  0.19794401  1
  O  O11  1  0.16936431  0.96001203  0.19869060  1
  O  O12  1  0.88990477  0.37686589  0.63640065  1
  O  O13  1  0.47488869  0.10500131  0.63277350  1
  O  O14  1  0.62810011  0.52521187  0.63314865  1
  O  O15  1  0.90191524  0.52628427  0.13421524  1
  O  O16  1  0.62950866  0.10161827  0.13424854  1
  O  O17  1  0.48438610  0.37834370  0.13935136  1
  O  O18  1  0.43455245  0.28479580  0.02766358  1
  O  O19  1  0.86212490  0.56901255  0.03309292  1
  O  O20  1  0.71185847  0.13939905  0.03317784  1
  O  O21  1  0.45168303  0.15552071  0.53057025  1
  O  O22  1  0.70207493  0.54906604  0.53083952  1
  O  O23  1  0.82787977  0.29902537  0.52533960  1
  O  O24  1  0.52102336  0.68364021  0.97093394  1
  O  O25  1  0.16171048  0.48089165  0.97107698  1
  O  O26  1  0.31831489  0.83976265  0.97062197  1
  O  O27  1  0.50166066  0.82752983  0.47380124  1
  O  O28  1  0.31886775  0.47836290  0.47006834  1
  O  O29  1  0.15601401  0.67748949  0.47002963  1
  O  O30  1  0.12621419  0.62230886  0.36507009  1
  O  O31  1  0.48368588  0.85486785  0.36051826  1
  O  O32  1  0.37006351  0.50505071  0.36499438  1
  O  O33  1  0.12919162  0.48509229  0.86620309  1
  O  O34  1  0.35255075  0.86773485  0.86546005  1
  O  O35  1  0.51430347  0.64410288  0.86613237  1
  O  O36  1  0.03179394  0.80502968  0.41157454  1
  O  O37  1  0.79184732  0.97379716  0.41260435  1
  O  O38  1  0.19855219  0.22857141  0.41123179  1
  O  O39  1  0.04196555  0.21868931  0.91695726  1
  O  O40  1  0.17934454  0.96275699  0.91627286  1
  O  O41  1  0.78189041  0.82647994  0.91689067  1
  O  O42  1  0.98271608  0.16174032  0.59476381  1
  O  O43  1  0.19508596  0.01923331  0.59084957  1
  O  O44  1  0.82456432  0.80539725  0.59185684  1
  O  O45  1  0.99158919  0.81377831  0.09755809  1
  O  O46  1  0.81844644  0.00169711  0.09735096  1
  O  O47  1  0.17010011  0.16557319  0.10144863  1
  O  O48  1  0.69712967  0.14905938  0.74049747  1
  O  O49  1  0.44997730  0.29773044  0.73906709  1
  O  O50  1  0.84460592  0.54988970  0.74189929  1
  O  O51  1  0.68154703  0.54451732  0.24410201  1
  O  O52  1  0.86319950  0.31531097  0.23911504  1
  O  O53  1  0.45592392  0.12900131  0.24119033  1
  O  O54  1  0.63739656  0.51750314  0.92582947  1
  O  O55  1  0.88076032  0.36754367  0.92716145  1
  O  O56  1  0.49045240  0.11781784  0.92417864  1
  O  O57  1  0.61966968  0.14132557  0.43080756  1
  O  O58  1  0.50751395  0.38696251  0.42678484  1
  O  O59  1  0.87310871  0.49778272  0.42655358  1
  O  O60  1  0.33451226  0.49870475  0.06726628  1
  O  O61  1  0.14896436  0.66831647  0.07124681  1
  O  O62  1  0.51561312  0.85398849  0.07125640  1
  O  O63  1  0.34179316  0.86136104  0.56943009  1
  O  O64  1  0.51897828  0.65724380  0.56968482  1
  O  O65  1  0.15566483  0.49472712  0.56275761  1
  O  O66  1  0.28971837  0.82193389  0.25910956  1
  O  O67  1  0.52831051  0.69923477  0.26123161  1
  O  O68  1  0.17131612  0.46301219  0.25755258  1
  O  O69  1  0.28945662  0.44714429  0.74905778  1
  O  O70  1  0.15523973  0.70607891  0.74987292  1
  O  O71  1  0.55239497  0.84005629  0.74922836  1
loop_
_geom_bond_atom_site_label_1
_geom_bond_atom_site_label_2
_geom_bond_distance
_geom_bond_site_symmetry_2
O0 S0 1.464453 1_545
O0 Y0 2.289415 1_455
O1 S1 1.466963 1_555
O1 Y0 2.236656 1_565
O2 S2 1.466252 1_655
O2 Y0 2.236631 1_555
O3 S3 1.472826 1_555
O3 Y1 2.221097 1_555
O4 S4 1.481875 1_555
O4 Y1 2.200232 1_665
O5 S5 1.473732 1_545
O5 Y1 2.221945 1_655
O6 S5 1.494141 1_555
O6 Ti0 2.025312 1_665
O7 S3 1.499258 1_555
O7 Ti0 1.992669 1_555
O8 S4 1.477349 1_455
O8 Ti0 2.118638 1_565
O9 S1 1.476127 1_555
O9 Ti1 2.244601 1_665
O10 S2 1.524047 1_555
O10 Ti1 1.991100 1_555
O11 S0 1.500519 1_555
O11 Ti1 2.094296 1_565
O12 Si0 1.582993 1_555
O12 Y2 2.083327 1_555
O13 S6 1.467000 1_555
O13 Y2 2.267586 1_555
O14 S7 1.470194 1_555
O14 Y2 2.253337 1_555
O15 S8 1.474942 1_555
O15 Y3 2.305026 1_555
O16 S9 1.472037 1_555
O16 Y3 2.305736 1_555
O17 Si1 1.591952 1_555
O17 Y3 2.086631 1_555
O18 Si1 1.592806 1_555
O18 Y4 2.088437 1_554
O19 S8 1.467408 1_555
O19 Y4 2.300865 1_554
O20 S9 1.468648 1_555
O20 Y4 2.295286 1_554
O21 S6 1.485650 1_555
O21 Ti2 2.214741 1_555
O22 S7 1.471177 1_555
O22 Ti2 2.302462 1_555
O23 Si0 1.687301 1_555
O23 Ti2 1.792553 1_555
O24 S10 1.494609 1_555
O24 Ti3 2.001751 1_556
O25 S11 1.497482 1_555
O25 Ti3 1.972653 1_556
O26 S12 1.480518 1_555
O26 Ti3 2.078270 1_556
O27 Si2 1.617247 1_555
O27 Ti4 1.831401 1_555
O28 S13 1.483468 1_555
O28 Ti4 2.011748 1_555
O29 S14 1.467705 1_555
O29 Ti4 2.069622 1_555
O30 S14 1.500579 1_555
O30 Ti5 2.122773 1_555
O31 Si2 1.698091 1_555
O31 Ti5 1.773534 1_555
O32 S13 1.514206 1_555
O32 Ti5 2.038928 1_555
O33 S11 1.471542 1_555
O33 Y5 2.230445 1_555
O34 S12 1.478690 1_555
O34 Y5 2.207268 1_555
O35 S10 1.471772 1_555
O35 Y5 2.231321 1_555
O36 S14 1.465002 1_555
O36 Y0 2.237612 1_465
O37 Si2 1.579068 1_555
O37 Y0 2.081900 1_565
O38 S13 1.465398 1_555
O38 Y0 2.225187 1_455
O39 S11 1.471892 1_555
O39 Y1 2.225599 1_555
O40 S12 1.477743 1_555
O40 Y1 2.204230 1_565
O41 S10 1.474704 1_555
O41 Y1 2.220890 1_665
O42 Si0 1.682769 1_555
O42 Ti0 1.785758 1_655
O43 S6 1.503515 1_555
O43 Ti0 2.039989 1_555
O44 S7 1.502504 1_555
O44 Ti0 2.036131 1_665
O45 S8 1.493452 1_555
O45 Ti1 2.041028 1_665
O46 S9 1.498428 1_555
O46 Ti1 2.013008 1_655
O47 Si1 1.687633 1_555
O47 Ti1 1.749169 1_555
O48 S5 1.466564 1_545
O48 Y2 2.222077 1_555
O49 S3 1.464860 1_555
O49 Y2 2.265006 1_555
O50 S4 1.471569 1_555
O50 Y2 2.208876 1_555
O51 S1 1.467947 1_555
O51 Y3 2.231604 1_555
O52 S2 1.464696 1_655
O52 Y3 2.278415 1_555
O53 S0 1.467077 1_545
O53 Y3 2.250029 1_555
O54 S10 1.464569 1_555
O54 Y4 2.227600 1_555
O55 S11 1.463207 1_655
O55 Y4 2.275673 1_555
O56 S12 1.468504 1_545
O56 Y4 2.214576 1_555
O57 Si2 1.665648 1_545
O57 Ti2 1.788669 1_555
O58 S13 1.472174 1_555
O58 Ti2 2.252502 1_555
O59 S14 1.502576 1_655
O59 Ti2 2.029952 1_555
O60 Si1 1.670636 1_555
O60 Ti3 1.766920 1_555
O61 S8 1.496825 1_455
O61 Ti3 2.017023 1_555
O62 S9 1.491093 1_565
O62 Ti3 2.022669 1_555
O63 S6 1.491759 1_565
O63 Ti4 2.038251 1_555
O64 S7 1.499947 1_555
O64 Ti4 1.987109 1_555
O65 Si0 1.625907 1_455
O65 Ti4 1.851404 1_555
O66 S0 1.510843 1_555
O66 Ti5 2.046894 1_555
O67 S1 1.524992 1_555
O67 Ti5 1.982490 1_555
O68 S2 1.480032 1_555
O68 Ti5 2.219863 1_555
O69 S3 1.471250 1_555
O69 Y5 2.223274 1_555
O70 S4 1.479427 1_455
O70 Y5 2.199785 1_555
O71 S5 1.474876 1_555
O71 Y5 2.221789 1_555
