# generated using pymatgen
data_Sc(NiGe)6
_symmetry_space_group_name_H-M   'P 1'
_cell_length_a   10.21227785
_cell_length_b   10.21227785
_cell_length_c   7.82557300
_cell_angle_alpha   90.00000000
_cell_angle_beta   90.00000000
_cell_angle_gamma   119.99999900
_symmetry_Int_Tables_number   1
_chemical_formula_structural   Sc(NiGe)6
_chemical_formula_sum   'Sc4 Ni24 Ge24'
_cell_volume   706.79265462
_cell_formula_units_Z   4
loop_
 _symmetry_equiv_pos_site_id
 _symmetry_equiv_pos_as_xyz
  1  'x, y, z'
loop_
 _atom_site_type_symbol
 _atom_site_label
 _atom_site_symmetry_multiplicity
 _atom_site_fract_x
 _atom_site_fract_y
 _atom_site_fract_z
 _atom_site_occupancy
  Sc  Sc0  1  0.00000000  0.00000000  0.00000000  1
  Sc  Sc1  1  0.50000000  0.00000000  0.50000000  1
  Sc  Sc2  1  0.50000000  0.50000000  0.50000000  1
  Sc  Sc3  1  0.00000000  0.50000000  0.50000000  1
  Ni  Ni0  1  0.24969700  0.00000000  0.25270700  1
  Ni  Ni1  1  0.24969700  0.24969700  0.25270700  1
  Ni  Ni2  1  0.00000000  0.75030300  0.25270700  1
  Ni  Ni3  1  0.00000000  0.24969700  0.25270700  1
  Ni  Ni4  1  0.75030300  0.75030300  0.25270700  1
  Ni  Ni5  1  0.24969700  0.00000000  0.74729300  1
  Ni  Ni6  1  0.75030300  0.75030300  0.74729300  1
  Ni  Ni7  1  0.75030300  0.00000000  0.25270700  1
  Ni  Ni8  1  0.00000000  0.24969700  0.74729300  1
  Ni  Ni9  1  0.00000000  0.75030300  0.74729300  1
  Ni  Ni10  1  0.75030300  0.00000000  0.74729300  1
  Ni  Ni11  1  0.24969700  0.24969700  0.74729300  1
  Ni  Ni12  1  0.24994200  0.49988400  0.24824700  1
  Ni  Ni13  1  0.75005800  0.24994200  0.24824700  1
  Ni  Ni14  1  0.49988400  0.24994200  0.24824700  1
  Ni  Ni15  1  0.50011600  0.75005800  0.24824700  1
  Ni  Ni16  1  0.24994200  0.75005800  0.24824700  1
  Ni  Ni17  1  0.75005800  0.50011600  0.75175300  1
  Ni  Ni18  1  0.75005800  0.24994200  0.75175300  1
  Ni  Ni19  1  0.75005800  0.50011600  0.24824700  1
  Ni  Ni20  1  0.49988400  0.24994200  0.75175300  1
  Ni  Ni21  1  0.50011600  0.75005800  0.75175300  1
  Ni  Ni22  1  0.24994200  0.49988400  0.75175300  1
  Ni  Ni23  1  0.24994200  0.75005800  0.75175300  1
  Ge  Ge0  1  0.16614000  0.33227900  0.00000000  1
  Ge  Ge1  1  0.83386000  0.16614000  0.00000000  1
  Ge  Ge2  1  0.33227900  0.16614000  0.00000000  1
  Ge  Ge3  1  0.66772100  0.83386000  0.00000000  1
  Ge  Ge4  1  0.16614000  0.83386000  0.00000000  1
  Ge  Ge5  1  0.83386000  0.66772100  0.00000000  1
  Ge  Ge6  1  0.16772000  0.33544000  0.50000000  1
  Ge  Ge7  1  0.83228000  0.16772000  0.50000000  1
  Ge  Ge8  1  0.33544000  0.16772000  0.50000000  1
  Ge  Ge9  1  0.66456000  0.83228000  0.50000000  1
  Ge  Ge10  1  0.16772000  0.83228000  0.50000000  1
  Ge  Ge11  1  0.83228000  0.66456000  0.50000000  1
  Ge  Ge12  1  0.33333300  0.66666700  0.00000000  1
  Ge  Ge13  1  0.66666700  0.33333300  0.00000000  1
  Ge  Ge14  1  0.33333300  0.66666700  0.50000000  1
  Ge  Ge15  1  0.66666700  0.33333300  0.50000000  1
  Ge  Ge16  1  0.00000000  0.00000000  0.34205200  1
  Ge  Ge17  1  0.00000000  0.00000000  0.65794800  1
  Ge  Ge18  1  0.50000000  0.00000000  0.15961800  1
  Ge  Ge19  1  0.50000000  0.50000000  0.15961800  1
  Ge  Ge20  1  0.00000000  0.50000000  0.15961800  1
  Ge  Ge21  1  0.50000000  0.00000000  0.84038200  1
  Ge  Ge22  1  0.50000000  0.50000000  0.84038200  1
  Ge  Ge23  1  0.00000000  0.50000000  0.84038200  1
loop_
_geom_bond_atom_site_label_1
_geom_bond_atom_site_label_2
_geom_bond_distance
_geom_bond_site_symmetry_2
Ni0 Ni1 2.549975 1_555
Ni0 Ni2 2.549975 1_545
Ni0 Ni16 2.553968 1_545
Ni0 Ni14 2.553968 1_555
Ni0 Sc1 3.206089 1_555
Ni0 Sc0 3.226947 1_555
Ni1 Ni3 2.549975 1_555
Ni1 Ni14 2.553968 1_555
Ni1 Ni12 2.553968 1_555
Ni1 Sc2 3.206089 1_555
Ni1 Sc0 3.226947 1_555
Ni2 Ni4 2.549975 1_455
Ni2 Sc3 3.206089 1_555
Ni2 Sc0 3.226947 1_565
Ni3 Ni7 2.549975 1_455
Ni3 Sc3 3.206089 1_555
Ni3 Sc0 3.226947 1_555
Ni4 Ni7 2.549975 1_565
Ni4 Sc2 3.206089 1_555
Ni4 Sc0 3.226947 1_665
Ni5 Ni9 2.549975 1_545
Ni5 Sc1 3.206089 1_555
Ni5 Sc0 3.226947 1_556
Ni6 Ni9 2.549975 1_655
Ni6 Sc2 3.206089 1_555
Ni6 Sc0 3.226947 1_666
Ni7 Sc1 3.206089 1_555
Ni7 Sc0 3.226947 1_655
Ni8 Sc3 3.206089 1_555
Ni8 Sc0 3.226947 1_556
Ni9 Sc3 3.206089 1_555
Ni9 Sc0 3.226947 1_566
Ni10 Ni6 2.549975 1_545
Ni10 Ni8 2.549975 1_655
Ni10 Ni18 2.553968 1_555
Ni10 Ni21 2.553968 1_545
Ni10 Sc1 3.206089 1_555
Ni10 Sc0 3.226947 1_656
Ni11 Ni8 2.549975 1_555
Ni11 Ni5 2.549975 1_555
Ni11 Ni20 2.553968 1_555
Ni11 Ni22 2.553968 1_555
Ni11 Sc2 3.206089 1_555
Ni11 Sc0 3.226947 1_556
Ni12 Ni3 2.553968 1_555
Ni12 Ni16 2.554846 1_555
Ni12 Ni15 2.554846 1_555
Ni12 Sc3 3.224826 1_555
Ni12 Sc2 3.224826 1_555
Ni13 Ni3 2.553968 1_655
Ni13 Ni7 2.553968 1_555
Ni13 Ni14 2.554846 1_555
Ni13 Ni19 2.554846 1_555
Ni13 Sc1 3.224826 1_555
Ni13 Sc3 3.224826 1_655
Ni14 Ni19 2.554846 1_555
Ni14 Sc1 3.224826 1_555
Ni14 Sc2 3.224826 1_555
Ni15 Ni4 2.553968 1_555
Ni15 Ni7 2.553968 1_565
Ni15 Ni16 2.554846 1_555
Ni15 Sc1 3.224826 1_565
Ni15 Sc2 3.224826 1_555
Ni16 Ni2 2.553968 1_555
Ni16 Sc1 3.224826 1_565
Ni16 Sc3 3.224826 1_555
Ni17 Ni6 2.553968 1_555
Ni17 Ni9 2.553968 1_655
Ni17 Ni18 2.554846 1_555
Ni17 Ni20 2.554846 1_555
Ni17 Sc3 3.224826 1_655
Ni17 Sc2 3.224826 1_555
Ni18 Ni8 2.553968 1_655
Ni18 Ni20 2.554846 1_555
Ni18 Sc1 3.224826 1_555
Ni18 Sc3 3.224826 1_655
Ni19 Ni4 2.553968 1_555
Ni19 Ni2 2.553968 1_655
Ni19 Sc3 3.224826 1_655
Ni19 Sc2 3.224826 1_555
Ni20 Ni5 2.553968 1_555
Ni20 Sc1 3.224826 1_555
Ni20 Sc2 3.224826 1_555
Ni21 Ni6 2.553968 1_555
Ni21 Ni23 2.554846 1_555
Ni21 Ni22 2.554846 1_555
Ni21 Sc1 3.224826 1_565
Ni21 Sc2 3.224826 1_555
Ni22 Ni8 2.553968 1_555
Ni22 Ni23 2.554846 1_555
Ni22 Sc3 3.224826 1_555
Ni22 Sc2 3.224826 1_555
Ni23 Ni5 2.553968 1_565
Ni23 Ni9 2.553968 1_555
Ni23 Sc1 3.224826 1_565
Ni23 Sc3 3.224826 1_555
Ge0 Ni22 2.443612 1_554
Ge0 Ni12 2.443612 1_555
Ge0 Ni11 2.463701 1_554
Ge0 Ni1 2.463701 1_555
Ge0 Ni3 2.463706 1_555
Ge0 Ni8 2.463706 1_554
Ge0 Sc0 2.938706 1_555
Ge1 Ni13 2.443607 1_555
Ge1 Ni18 2.443607 1_554
Ge1 Ni8 2.463706 1_654
Ge1 Ni10 2.463706 1_554
Ge1 Ni7 2.463706 1_555
Ge1 Ni3 2.463706 1_655
Ge1 Sc0 2.938715 1_655
Ge2 Ni14 2.443612 1_555
Ge2 Ni20 2.443612 1_554
Ge2 Ni11 2.463701 1_554
Ge2 Ni1 2.463701 1_555
Ge2 Ni0 2.463706 1_555
Ge2 Ni5 2.463706 1_554
Ge2 Sc0 2.938706 1_555
Ge3 Ni15 2.443612 1_555
Ge3 Ni21 2.443612 1_554
Ge3 Ni6 2.463701 1_554
Ge3 Ni4 2.463701 1_555
Ge3 Ni7 2.463706 1_565
Ge3 Ni10 2.463706 1_564
Ge3 Sc0 2.938706 1_665
Ge4 Ni23 2.443607 1_554
Ge4 Ni16 2.443607 1_555
Ge4 Ni2 2.463706 1_555
Ge4 Ni5 2.463706 1_564
Ge4 Ni0 2.463706 1_565
Ge4 Ni9 2.463706 1_554
Ge4 Sc0 2.938715 1_565
Ge5 Ni17 2.443612 1_554
Ge5 Ni19 2.443612 1_555
Ge5 Ni6 2.463701 1_554
Ge5 Ni4 2.463701 1_555
Ge5 Ni2 2.463706 1_655
Ge5 Ni9 2.463706 1_654
Ge5 Sc0 2.938706 1_665
Ge6 Ni11 2.438376 1_555
Ge6 Ni1 2.438376 1_555
Ge6 Ni8 2.438376 1_555
Ge6 Ni3 2.438376 1_555
Ge6 Ni12 2.448774 1_555
Ge6 Ni22 2.448774 1_555
Ge6 Sc3 2.938759 1_555
Ge6 Sc2 2.938759 1_555
Ge7 Ni8 2.438376 1_655
Ge7 Ni3 2.438376 1_655
Ge7 Ni7 2.438376 1_555
Ge7 Ni10 2.438376 1_555
Ge7 Ni18 2.448774 1_555
Ge7 Ni13 2.448774 1_555
Ge7 Sc1 2.938759 1_555
Ge7 Sc3 2.938759 1_655
Ge8 Ni11 2.438376 1_555
Ge8 Ni1 2.438376 1_555
Ge8 Ni5 2.438376 1_555
Ge8 Ni0 2.438376 1_555
Ge8 Ni14 2.448774 1_555
Ge8 Ni20 2.448774 1_555
Ge8 Sc1 2.938759 1_555
Ge8 Sc2 2.938759 1_555
Ge9 Ni6 2.438376 1_555
Ge9 Ni4 2.438376 1_555
Ge9 Ni7 2.438376 1_565
Ge9 Ni10 2.438376 1_565
Ge9 Ni21 2.448774 1_555
Ge9 Ni15 2.448774 1_555
Ge9 Sc1 2.938759 1_565
Ge9 Sc2 2.938759 1_555
Ge10 Ni5 2.438376 1_565
Ge10 Ni2 2.438376 1_555
Ge10 Ni9 2.438376 1_555
Ge10 Ni0 2.438376 1_565
Ge10 Ni23 2.448774 1_555
Ge10 Ni16 2.448774 1_555
Ge10 Sc1 2.938759 1_565
Ge10 Sc3 2.938759 1_555
Ge11 Ni6 2.438376 1_555
Ge11 Ni4 2.438376 1_555
Ge11 Ni2 2.438376 1_655
Ge11 Ni9 2.438376 1_655
Ge11 Ni19 2.448774 1_555
Ge11 Ni17 2.448774 1_555
Ge11 Sc3 2.938759 1_655
Ge11 Sc2 2.938759 1_555
Ge12 Ni23 2.439204 1_554
Ge12 Ni16 2.439204 1_555
Ge12 Ni15 2.439209 1_555
Ge12 Ni21 2.439209 1_554
Ge12 Ni12 2.439209 1_555
Ge12 Ni22 2.439209 1_554
Ge13 Ni13 2.439204 1_555
Ge13 Ni18 2.439204 1_554
Ge13 Ni19 2.439209 1_555
Ge13 Ni14 2.439209 1_555
Ge13 Ni20 2.439209 1_554
Ge13 Ni17 2.439209 1_554
Ge14 Ni23 2.461111 1_555
Ge14 Ni16 2.461111 1_555
Ge14 Ni21 2.461117 1_555
Ge14 Ni15 2.461117 1_555
Ge14 Ni22 2.461117 1_555
Ge14 Ni12 2.461117 1_555
Ge14 Sc3 2.948028 1_555
Ge14 Sc1 2.948028 1_565
Ge14 Sc2 2.948037 1_555
Ge15 Ni18 2.461111 1_555
Ge15 Ni13 2.461111 1_555
Ge15 Ni20 2.461117 1_555
Ge15 Ni17 2.461117 1_555
Ge15 Ni14 2.461117 1_555
Ge15 Ni19 2.461117 1_555
Ge15 Sc1 2.948028 1_555
Ge15 Sc3 2.948028 1_655
Ge15 Sc2 2.948037 1_555
Ge16 Ge17 2.472067 1_555
Ge16 Ni2 2.644092 1_545
Ge16 Ni7 2.644092 1_455
Ge16 Ni3 2.644092 1_555
Ge16 Ni0 2.644092 1_555
Ge16 Ni4 2.644092 1_445
Ge16 Ni1 2.644092 1_555
Ge16 Sc0 2.676753 1_555
Ge17 Ni9 2.644092 1_545
Ge17 Ni10 2.644092 1_455
Ge17 Ni8 2.644092 1_555
Ge17 Ni5 2.644092 1_555
Ge17 Ni6 2.644092 1_445
Ge17 Ni11 2.644092 1_555
Ge17 Sc0 2.676753 1_556
Ge18 Ge21 2.498205 1_554
Ge18 Ni14 2.645602 1_555
Ge18 Ni15 2.645602 1_545
Ge18 Ni13 2.645602 1_555
Ge18 Ni16 2.645602 1_545
Ge18 Ni0 2.657941 1_555
Ge18 Ni7 2.657941 1_555
Ge18 Sc1 2.663684 1_555
Ge19 Ge22 2.498205 1_554
Ge19 Ni19 2.645602 1_555
Ge19 Ni12 2.645602 1_555
Ge19 Ni14 2.645602 1_555
Ge19 Ni15 2.645602 1_555
Ge19 Ni1 2.657941 1_555
Ge19 Ni4 2.657941 1_555
Ge19 Sc2 2.663684 1_555
Ge20 Ge23 2.498205 1_554
Ge20 Ni19 2.645602 1_455
Ge20 Ni12 2.645602 1_555
Ge20 Ni13 2.645602 1_455
Ge20 Ni16 2.645602 1_555
Ge20 Ni3 2.657941 1_555
Ge20 Ni2 2.657941 1_555
Ge20 Sc3 2.663684 1_555
Ge21 Ni20 2.645602 1_555
Ge21 Ni21 2.645602 1_545
Ge21 Ni18 2.645602 1_555
Ge21 Ni23 2.645602 1_545
Ge21 Ni5 2.657941 1_555
Ge21 Ni10 2.657941 1_555
Ge21 Sc1 2.663684 1_555
Ge22 Ni22 2.645602 1_555
Ge22 Ni17 2.645602 1_555
Ge22 Ni20 2.645602 1_555
Ge22 Ni21 2.645602 1_555
Ge22 Ni11 2.657941 1_555
Ge22 Ni6 2.657941 1_555
Ge22 Sc2 2.663684 1_555
Ge23 Ni17 2.645602 1_455
Ge23 Ni22 2.645602 1_555
Ge23 Ni18 2.645602 1_455
Ge23 Ni23 2.645602 1_555
Ge23 Ni8 2.657941 1_555
Ge23 Ni9 2.657941 1_555
Ge23 Sc3 2.663684 1_555
