# generated using pymatgen
data_MgTi(FeO2)4
_symmetry_space_group_name_H-M   'P 1'
_cell_length_a   5.96859077
_cell_length_b   5.99923610
_cell_length_c   5.95980084
_cell_angle_alpha   59.78087162
_cell_angle_beta   71.80548722
_cell_angle_gamma   59.83000744
_symmetry_Int_Tables_number   1
_chemical_formula_structural   MgTi(FeO2)4
_chemical_formula_sum   'Mg1 Ti1 Fe4 O8'
_cell_volume   158.92002924
_cell_formula_units_Z   1
loop_
 _symmetry_equiv_pos_site_id
 _symmetry_equiv_pos_as_xyz
  1  'x, y, z'
loop_
 _atom_site_type_symbol
 _atom_site_label
 _atom_site_symmetry_multiplicity
 _atom_site_fract_x
 _atom_site_fract_y
 _atom_site_fract_z
 _atom_site_occupancy
  Mg  Mg0  1  0.50000000  0.00000000  -0.00000000  1
  Ti  Ti0  1  0.50000000  0.50000000  -0.00000000  1
  Fe  Fe0  1  0.00746725  0.25683666  0.97885944  1
  Fe  Fe1  1  0.50000000  0.00000000  0.50000000  1
  Fe  Fe2  1  0.50000000  0.50000000  0.50000000  1
  Fe  Fe3  1  0.99253275  0.74316334  0.02114056  1
  O  O0  1  0.27071312  0.29345649  0.16134765  1
  O  O1  1  0.27071312  0.77448274  0.16134765  1
  O  O2  1  0.30280603  0.25818688  0.68082021  1
  O  O3  1  0.70480600  0.24573842  0.30371616  1
  O  O4  1  0.29519400  0.75426158  0.69628384  1
  O  O5  1  0.69719397  0.74181312  0.31917979  1
  O  O6  1  0.72928688  0.22551726  0.83865235  1
  O  O7  1  0.72928688  0.70654351  0.83865235  1
loop_
_geom_bond_atom_site_label_1
_geom_bond_atom_site_label_2
_geom_bond_distance
_geom_bond_site_symmetry_2
Mg0 O2 2.000700 1_554
Mg0 O5 2.000700 1_545
Mg0 O0 2.087479 1_555
Mg0 O7 2.087479 1_544
Mg0 O6 2.087479 1_554
Mg0 O1 2.087479 1_545
Fe0 O2 2.075328 1_555
Fe0 O3 2.196170 1_456
Fe0 O7 2.197341 1_455
Fe0 O6 2.197341 1_455
Fe0 O1 2.313964 1_546
Fe0 O0 2.313964 1_556
Fe1 O5 2.000382 1_545
Fe1 O2 2.000382 1_555
Fe1 O4 2.053896 1_545
Fe1 O3 2.053896 1_555
Fe1 O0 2.184549 1_555
Fe1 O7 2.184549 1_545
Fe2 O2 2.000382 1_555
Fe2 O5 2.000382 1_555
Fe2 O4 2.053900 1_555
Fe2 O3 2.053900 1_555
Fe2 O6 2.184549 1_555
Fe2 O1 2.184549 1_555
Fe3 O5 2.075328 1_555
Fe3 O4 2.196170 1_654
Fe3 O0 2.197341 1_655
Fe3 O1 2.197341 1_655
Fe3 O6 2.313964 1_564
Fe3 O7 2.313964 1_554
O0 Ti0 2.004028 1_555
O1 Ti0 2.004028 1_555
O3 Ti0 1.955941 1_555
O4 Ti0 1.955941 1_556
O6 Ti0 2.004028 1_556
O7 Ti0 2.004028 1_556
