# generated using pymatgen
data_MgCu4(SO5)2
_symmetry_space_group_name_H-M   'P 1'
_cell_length_a   5.90314121
_cell_length_b   5.90314245
_cell_length_c   7.58393338
_cell_angle_alpha   98.43504249
_cell_angle_beta   109.44295898
_cell_angle_gamma   112.57548712
_symmetry_Int_Tables_number   1
_chemical_formula_structural   MgCu4(SO5)2
_chemical_formula_sum   'Mg1 Cu4 S2 O10'
_cell_volume   218.37930677
_cell_formula_units_Z   1
loop_
 _symmetry_equiv_pos_site_id
 _symmetry_equiv_pos_as_xyz
  1  'x, y, z'
loop_
 _atom_site_type_symbol
 _atom_site_label
 _atom_site_symmetry_multiplicity
 _atom_site_fract_x
 _atom_site_fract_y
 _atom_site_fract_z
 _atom_site_occupancy
  Mg  Mg0  1  0.72308700  0.72308700  0.00000000  1
  Cu  Cu0  1  0.18832000  0.14969700  0.21150200  1
  Cu  Cu1  1  0.93819600  0.97681800  0.78849800  1
  Cu  Cu2  1  0.46191600  0.02395700  0.98645900  1
  Cu  Cu3  1  0.03749800  0.47545700  0.01354100  1
  S  S0  1  0.72286400  0.58441800  0.32453600  1
  S  S1  1  0.25988200  0.39832800  0.67546400  1
  O  O0  1  0.39622500  0.68800700  0.73913000  1
  O  O1  1  0.94887700  0.65709700  0.26087000  1
  O  O2  1  0.58443100  0.29363300  0.27931100  1
  O  O3  1  0.01432200  0.30511900  0.72068900  1
  O  O4  1  0.84052000  0.11290700  0.01578200  1
  O  O5  1  0.09712300  0.82473700  0.98421800  1
  O  O6  1  0.46903300  0.33497700  0.80755500  1
  O  O7  1  0.52742300  0.66147900  0.19244500  1
  O  O8  1  0.81532200  0.70646000  0.53358100  1
  O  O9  1  0.17287900  0.28174100  0.46641900  1
loop_
_geom_bond_atom_site_label_1
_geom_bond_atom_site_label_2
_geom_bond_distance
_geom_bond_site_symmetry_2
Mg0 O5 2.104599 1_654
Mg0 O4 2.104610 1_565
Mg0 O7 2.133528 1_555
Mg0 O6 2.133533 1_554
Mg0 O1 2.170637 1_555
Mg0 O0 2.170643 1_554
Cu0 O2 1.999964 1_555
Cu0 O4 1.999978 1_455
Cu0 O9 2.020694 1_555
Cu0 O5 2.135427 1_544
Cu1 O3 1.999960 1_665
Cu1 O5 1.999976 1_655
Cu1 O8 2.020692 1_555
Cu1 O4 2.135431 1_566
Cu2 O5 2.011440 1_545
Cu2 O4 2.013454 1_556
Cu2 O2 2.235937 1_556
Cu2 O0 2.331443 1_545
Cu2 O6 2.433739 1_555
Cu3 O4 2.011429 1_455
Cu3 O5 2.013451 1_554
Cu3 O3 2.235939 1_554
Cu3 O1 2.331448 1_455
Cu3 O7 2.433743 1_555
O0 S1 1.499133 1_555
O1 S0 1.499133 1_555
O2 S0 1.515130 1_555
O3 S1 1.515130 1_555
O6 S1 1.519462 1_555
O7 S0 1.519462 1_555
O8 S0 1.455098 1_555
O9 S1 1.455098 1_555
