# generated using pymatgen
data_LiVPCO7
_symmetry_space_group_name_H-M   'P 1'
_cell_length_a   6.24520800
_cell_length_b   8.74562246
_cell_length_c   10.80186073
_cell_angle_alpha   86.68782124
_cell_angle_beta   89.99843109
_cell_angle_gamma   90.00340184
_symmetry_Int_Tables_number   1
_chemical_formula_structural   LiVPCO7
_chemical_formula_sum   'Li4 V4 P4 C4 O28'
_cell_volume   588.99300297
_cell_formula_units_Z   4
loop_
 _symmetry_equiv_pos_site_id
 _symmetry_equiv_pos_as_xyz
  1  'x, y, z'
loop_
 _atom_site_type_symbol
 _atom_site_label
 _atom_site_symmetry_multiplicity
 _atom_site_fract_x
 _atom_site_fract_y
 _atom_site_fract_z
 _atom_site_occupancy
  Li  Li0  1  0.93980700  0.18253000  0.12146900  1
  Li  Li1  1  0.93973500  0.18243400  0.62148600  1
  Li  Li2  1  0.43978800  0.81746700  0.37851400  1
  Li  Li3  1  0.43974700  0.81757600  0.87851300  1
  V  V0  1  0.75449200  0.33339900  0.89512200  1
  V  V1  1  0.25455200  0.66660100  0.60494500  1
  V  V2  1  0.75405600  0.33321700  0.39512600  1
  V  V3  1  0.25424600  0.66675700  0.10489900  1
  P  P0  1  0.25856500  0.44229400  0.36096000  1
  P  P1  1  0.25890800  0.44243000  0.86096600  1
  P  P2  1  0.75867300  0.55771000  0.13904200  1
  P  P3  1  0.75893600  0.55756500  0.63903900  1
  C  C0  1  0.74943300  0.06051700  0.36703400  1
  C  C1  1  0.74937000  0.06062800  0.86705000  1
  C  C2  1  0.24945100  0.93946700  0.13295000  1
  C  C3  1  0.24936500  0.93940400  0.63293300  1
  O  O0  1  0.45872100  0.33999700  0.39490500  1
  O  O1  1  0.45888800  0.34010700  0.89500000  1
  O  O2  1  0.95881500  0.65997700  0.10510500  1
  O  O3  1  0.95891100  0.65989000  0.60499900  1
  O  O4  1  0.76668700  0.12431500  0.47626500  1
  O  O5  1  0.76678600  0.12449600  0.97632100  1
  O  O6  1  0.26671800  0.87566600  0.02372600  1
  O  O7  1  0.26681300  0.87552200  0.52369000  1
  O  O8  1  0.27275400  0.83045600  0.22460100  1
  O  O9  1  0.27287200  0.83045600  0.72450400  1
  O  O10  1  0.77272200  0.16953500  0.27538900  1
  O  O11  1  0.77286200  0.16957100  0.77550600  1
  O  O12  1  0.56431400  0.65847700  0.10097800  1
  O  O13  1  0.56470000  0.65860900  0.60096100  1
  O  O14  1  0.06423500  0.34153300  0.39901400  1
  O  O15  1  0.06465700  0.34141400  0.89903200  1
  O  O16  1  0.77082400  0.41132600  0.06645100  1
  O  O17  1  0.77057400  0.41121400  0.56638200  1
  O  O18  1  0.27084500  0.58867100  0.43354500  1
  O  O19  1  0.27060500  0.58878900  0.93360600  1
  O  O20  1  0.25960400  0.48179300  0.22041400  1
  O  O21  1  0.25976100  0.48166500  0.72038500  1
  O  O22  1  0.75957300  0.51820600  0.27957900  1
  O  O23  1  0.75975100  0.51833200  0.77961700  1
  O  O24  1  0.70776400  0.92535300  0.35227300  1
  O  O25  1  0.70758500  0.92551700  0.85248100  1
  O  O26  1  0.20776300  0.07462200  0.14769900  1
  O  O27  1  0.20757300  0.07449600  0.64752100  1
loop_
_geom_bond_atom_site_label_1
_geom_bond_atom_site_label_2
_geom_bond_distance
_geom_bond_site_symmetry_2
Li0 O26 1.934066 1_655
Li0 O10 1.960647 1_555
Li0 O5 1.993837 1_554
Li0 O16 2.309469 1_555
Li1 O27 1.933306 1_655
Li1 O11 1.960846 1_555
Li1 O4 1.994783 1_555
Li1 O17 2.310051 1_555
Li2 O24 1.933985 1_555
Li2 O8 1.960469 1_555
Li2 O7 1.993965 1_555
Li2 O18 2.309261 1_555
Li3 O25 1.933204 1_555
Li3 O9 1.960809 1_555
Li3 O6 1.994559 1_556
Li3 O19 2.309900 1_555
C0 O24 1.229729 1_545
C0 O4 1.338340 1_555
C0 O10 1.342040 1_555
C1 O25 1.229051 1_545
C1 O5 1.339099 1_555
C1 O11 1.340980 1_555
C2 O26 1.229682 1_565
C2 O6 1.338290 1_555
C2 O8 1.342072 1_555
C3 O27 1.228965 1_565
C3 O7 1.338899 1_555
C3 O9 1.341241 1_555
O0 P0 1.568323 1_555
O0 V2 1.845382 1_555
O1 P1 1.567768 1_555
O1 V0 1.847042 1_555
O2 P2 1.567990 1_555
O2 V3 1.845974 1_655
O3 P3 1.567665 1_555
O3 V1 1.847268 1_655
O4 V2 1.981724 1_555
O5 V0 1.981902 1_555
O6 V3 1.981872 1_555
O7 V1 1.982260 1_555
O8 V3 1.987142 1_555
O9 V1 1.987040 1_555
O10 V2 1.987354 1_555
O11 V0 1.987310 1_555
O12 P2 1.541855 1_555
O12 V3 1.938350 1_555
O13 P3 1.542635 1_555
O13 V1 1.938770 1_555
O14 P0 1.541558 1_555
O14 V2 1.939040 1_455
O15 P1 1.542441 1_555
O15 V0 1.938858 1_455
O16 P2 1.541287 1_555
O16 V0 2.011369 1_554
O17 P3 1.541281 1_555
O17 V2 2.010927 1_555
O18 P0 1.541233 1_555
O18 V1 2.012086 1_555
O19 P1 1.541251 1_555
O19 V3 2.011152 1_556
O20 P0 1.537393 1_555
O20 V3 1.985334 1_555
O21 P1 1.537372 1_555
O21 V1 1.984657 1_555
O22 P2 1.537303 1_555
O22 V2 1.985718 1_555
O23 P3 1.537337 1_555
O23 V0 1.985046 1_555
