# generated using pymatgen
data_SrSnO3
_symmetry_space_group_name_H-M   'P 1'
_cell_length_a   5.73820206
_cell_length_b   5.72649997
_cell_length_c   8.10161313
_cell_angle_alpha   90.00000000
_cell_angle_beta   90.00000000
_cell_angle_gamma   90.00000000
_symmetry_Int_Tables_number   1
_chemical_formula_structural   SrSnO3
_chemical_formula_sum   'Sr4 Sn4 O12'
_cell_volume   266.21749994
_cell_formula_units_Z   4
loop_
 _symmetry_equiv_pos_site_id
 _symmetry_equiv_pos_as_xyz
  1  'x, y, z'
loop_
 _atom_site_type_symbol
 _atom_site_label
 _atom_site_symmetry_multiplicity
 _atom_site_fract_x
 _atom_site_fract_y
 _atom_site_fract_z
 _atom_site_occupancy
  Sr  Sr0  1  0.47269566  0.49400246  0.75000000  1
  Sr  Sr1  1  0.97269566  0.00599754  0.75000000  1
  Sr  Sr2  1  0.02730334  0.99400346  0.25000000  1
  Sr  Sr3  1  0.52730334  0.50599654  0.25000000  1
  Sn  Sn0  1  0.50000100  0.00000100  -0.00000000  1
  Sn  Sn1  1  -0.00000000  0.49999900  0.50000000  1
  Sn  Sn2  1  -0.00000000  0.49999900  -0.00000000  1
  Sn  Sn3  1  0.50000000  0.00000100  0.50000000  1
  O  O0  1  0.71733019  0.28296128  0.53521656  1
  O  O1  1  0.21733019  0.21703872  0.96478344  1
  O  O2  1  0.78266981  0.78296128  0.46478444  1
  O  O3  1  0.28266981  0.71703872  0.03521556  1
  O  O4  1  0.28266981  0.71703872  0.46478444  1
  O  O5  1  0.78266981  0.78296028  0.03521556  1
  O  O6  1  0.21733019  0.21703872  0.53521656  1
  O  O7  1  0.71733019  0.28296128  0.96478344  1
  O  O8  1  0.51339140  0.93351832  0.75000000  1
  O  O9  1  0.01339140  0.56648168  0.75000000  1
  O  O10  1  0.98660860  0.43351832  0.25000000  1
  O  O11  1  0.48660860  0.06648168  0.25000000  1
loop_
_geom_bond_atom_site_label_1
_geom_bond_atom_site_label_2
_geom_bond_distance
_geom_bond_site_symmetry_2
O0 Sn1 2.063264 1_655
O0 Sn3 2.064516 1_555
O0 Sr0 2.541458 1_555
O0 Sr1 2.773200 1_555
O0 Sr3 2.856513 1_555
O1 Sn0 2.063268 1_556
O1 Sn2 2.064516 1_556
O1 Sr1 2.541458 1_455
O1 Sr0 2.773200 1_555
O1 Sr2 2.856513 1_546
O2 Sn3 2.063269 1_565
O2 Sn1 2.064524 1_655
O2 Sr2 2.541463 1_655
O2 Sr3 2.773212 1_555
O2 Sr1 2.856507 1_565
O3 Sn2 2.063269 1_555
O3 Sn0 2.064528 1_565
O3 Sr3 2.541463 1_555
O3 Sr2 2.773212 1_555
O3 Sr0 2.856507 1_554
O4 Sn1 2.063269 1_555
O4 Sn3 2.064524 1_565
O4 Sr3 2.541463 1_555
O4 Sr2 2.773212 1_555
O4 Sr0 2.856507 1_555
O5 Sn0 2.063268 1_565
O5 Sn2 2.064520 1_655
O5 Sr2 2.541466 1_655
O5 Sr3 2.773208 1_555
O5 Sr1 2.856510 1_564
O6 Sn3 2.063264 1_555
O6 Sn1 2.064516 1_555
O6 Sr1 2.541458 1_455
O6 Sr0 2.773200 1_555
O6 Sr2 2.856513 1_545
O7 Sn2 2.063264 1_656
O7 Sn0 2.064513 1_556
O7 Sr0 2.541458 1_555
O7 Sr1 2.773200 1_555
O7 Sr3 2.856513 1_556
O8 Sn0 2.062306 1_566
O8 Sn3 2.062306 1_565
O8 Sr0 2.527698 1_555
O8 Sr1 2.668062 1_565
O9 Sn1 2.062306 1_555
O9 Sn2 2.062306 1_556
O9 Sr1 2.527698 1_465
O9 Sr0 2.668062 1_555
O10 Sn1 2.062304 1_655
O10 Sn2 2.062304 1_655
O10 Sr2 2.527691 1_645
O10 Sr3 2.668067 1_555
O11 Sn3 2.062304 1_555
O11 Sn0 2.062304 1_555
O11 Sr3 2.527691 1_555
O11 Sr2 2.668067 1_545
