# generated using pymatgen
data_Na2ZrZnSi(SO6)2
_symmetry_space_group_name_H-M   'P 1'
_cell_length_a   9.01535536
_cell_length_b   9.04563567
_cell_length_c   22.98306627
_cell_angle_alpha   89.20328175
_cell_angle_beta   90.00000000
_cell_angle_gamma   119.88932707
_symmetry_Int_Tables_number   1
_chemical_formula_structural   Na2ZrZnSi(SO6)2
_chemical_formula_sum   'Na12 Zr6 Zn6 Si6 S12 O72'
_cell_volume   1624.75518804
_cell_formula_units_Z   6
loop_
 _symmetry_equiv_pos_site_id
 _symmetry_equiv_pos_as_xyz
  1  'x, y, z'
loop_
 _atom_site_type_symbol
 _atom_site_label
 _atom_site_symmetry_multiplicity
 _atom_site_fract_x
 _atom_site_fract_y
 _atom_site_fract_z
 _atom_site_occupancy
  Na  Na0  1  0.99523033  0.63222562  0.23765743  1
  Na  Na1  1  0.63699528  0.63222562  0.73765743  1
  Na  Na2  1  0.64875913  0.94976494  0.57482262  1
  Na  Na3  1  0.30100681  0.94976494  0.07482262  1
  Na  Na4  1  0.69457834  0.02626903  0.90585664  1
  Na  Na5  1  0.33168969  0.02626903  0.40585664  1
  Na  Na6  1  0.97289503  0.98489870  0.48913858  1
  Na  Na7  1  0.01200367  0.98489870  0.98913858  1
  Na  Na8  1  0.65370862  0.30452426  0.82314821  1
  Na  Na9  1  0.65081664  0.30452426  0.32314821  1
  Na  Na10  1  0.32731647  0.65297569  0.15739457  1
  Na  Na11  1  0.32565821  0.65297569  0.65739457  1
  Zr  Zr0  1  0.99233214  0.99358741  0.64720262  1
  Zr  Zr1  1  0.00125527  0.99358741  0.14720262  1
  Zr  Zr2  1  0.67010538  0.34316692  0.98127088  1
  Zr  Zr3  1  0.67306254  0.34316692  0.48127088  1
  Zr  Zr4  1  0.34721819  0.68738538  0.31483898  1
  Zr  Zr5  1  0.34016619  0.68738538  0.81483898  1
  Zn  Zn0  1  0.99760164  0.00754422  0.34831807  1
  Zn  Zn1  1  0.00994258  0.00754422  0.84831807  1
  Zn  Zn2  1  0.66188898  0.32140240  0.68279297  1
  Zn  Zn3  1  0.65951443  0.32140240  0.18279297  1
  Zn  Zn4  1  0.28694475  0.66314625  0.01487798  1
  Zn  Zn5  1  0.37620049  0.66314625  0.51487798  1
  Si  Si0  1  0.30044863  0.01451580  0.25427198  1
  Si  Si1  1  0.71406717  0.01451580  0.75427198  1
  Si  Si2  1  0.66036971  0.61885437  0.59056390  1
  Si  Si3  1  0.95848566  0.61885437  0.09056390  1
  Si  Si4  1  0.32533858  0.97085433  0.92006869  1
  Si  Si5  1  0.64551475  0.97085433  0.42006869  1
  S  S0  1  0.70684334  0.70606198  0.25212210  1
  S  S1  1  0.00153184  0.29564443  0.25136730  1
  S  S2  1  0.29411259  0.29564443  0.75136730  1
  S  S3  1  0.99921865  0.70606198  0.75212210  1
  S  S4  1  0.96615109  0.34006881  0.58384098  1
  S  S5  1  0.37137455  0.03892319  0.58319233  1
  S  S6  1  0.66754965  0.03892319  0.08319233  1
  S  S7  1  0.37391872  0.34006881  0.08384098  1
  S  S8  1  0.61832309  0.66518554  0.91864340  1
  S  S9  1  0.04140154  0.37227559  0.91873382  1
  S  S10  1  0.33087306  0.37227559  0.41873382  1
  S  S11  1  0.04686145  0.66518554  0.41864340  1
  O  O0  1  0.20881518  0.02298702  0.31388041  1
  O  O1  1  0.80954553  0.79109077  0.30308967  1
  O  O2  1  0.98167422  0.19561700  0.30412923  1
  O  O3  1  0.21394278  0.19561700  0.80412923  1
  O  O4  1  0.98154524  0.79109077  0.80308967  1
  O  O5  1  0.81417184  0.02298702  0.81388041  1
  O  O6  1  0.80724972  0.97888356  0.69674678  1
  O  O7  1  0.19352161  0.21009957  0.69809695  1
  O  O8  1  0.02948785  0.81425652  0.69781113  1
  O  O9  1  0.78476867  0.81425652  0.19781113  1
  O  O10  1  0.01657796  0.21009957  0.19809695  1
  O  O11  1  0.17163384  0.97888356  0.19674678  1
  O  O12  1  0.88600225  0.35670348  0.63658017  1
  O  O13  1  0.48232455  0.11897537  0.63335619  1
  O  O14  1  0.65122414  0.51862085  0.65003513  1
  O  O15  1  0.86739770  0.51862085  0.15003513  1
  O  O16  1  0.63665182  0.11897537  0.13335619  1
  O  O17  1  0.47070223  0.35670348  0.13658017  1
  O  O18  1  0.45441437  0.30315908  0.03184701  1
  O  O19  1  0.84086955  0.52154637  0.03273718  1
  O  O20  1  0.68783716  0.14200798  0.02825690  1
  O  O21  1  0.45417182  0.14200798  0.52825690  1
  O  O22  1  0.68067783  0.52154637  0.53273718  1
  O  O23  1  0.84874572  0.30315908  0.53184701  1
  O  O24  1  0.52435603  0.67607055  0.96848726  1
  O  O25  1  0.14119943  0.44949015  0.97109197  1
  O  O26  1  0.31046324  0.87171852  0.98108026  1
  O  O27  1  0.56125428  0.87171852  0.48108026  1
  O  O28  1  0.30828972  0.44949015  0.47109197  1
  O  O29  1  0.15171353  0.67607055  0.46848726  1
  O  O30  1  0.12234472  0.64176414  0.36289246  1
  O  O31  1  0.50765500  0.86905064  0.36494086  1
  O  O32  1  0.34983755  0.47571098  0.36535088  1
  O  O33  1  0.12587243  0.47571098  0.86535088  1
  O  O34  1  0.36139464  0.86905064  0.86494086  1
  O  O35  1  0.51941842  0.64176414  0.86289246  1
  O  O36  1  0.03073256  0.81920065  0.41379895  1
  O  O37  1  0.83054766  0.99038853  0.40867660  1
  O  O38  1  0.18875571  0.19596144  0.41531704  1
  O  O39  1  0.00720572  0.19596144  0.91531704  1
  O  O40  1  0.15984087  0.99038853  0.90867660  1
  O  O41  1  0.78846809  0.81920065  0.91379895  1
  O  O42  1  0.97816251  0.17732261  0.58770244  1
  O  O43  1  0.20420871  0.03561968  0.58834424  1
  O  O44  1  0.83580644  0.81839703  0.58997976  1
  O  O45  1  0.98259059  0.81839703  0.08997976  1
  O  O46  1  0.83141097  0.03561968  0.08834424  1
  O  O47  1  0.19916010  0.17732261  0.08770244  1
  O  O48  1  0.68216721  0.17267545  0.74336899  1
  O  O49  1  0.47097716  0.32567215  0.74765473  1
  O  O50  1  0.84580297  0.53833663  0.74682620  1
  O  O51  1  0.69253466  0.53833663  0.24682620  1
  O  O52  1  0.85469599  0.32567215  0.24765473  1
  O  O53  1  0.49050925  0.17267545  0.24336899  1
  O  O54  1  0.63959764  0.51001182  0.92156594  1
  O  O55  1  0.86741276  0.36236018  0.92179782  1
  O  O56  1  0.51335038  0.15502818  0.92187181  1
  O  O57  1  0.64167880  0.15502818  0.42187181  1
  O  O58  1  0.49494841  0.36236018  0.42179782  1
  O  O59  1  0.87041518  0.51001182  0.42156594  1
  O  O60  1  0.35323368  0.48763314  0.07341182  1
  O  O61  1  0.15453719  0.65401695  0.08559583  1
  O  O62  1  0.52243773  0.86479344  0.07788127  1
  O  O63  1  0.34235470  0.86479344  0.57788127  1
  O  O64  1  0.49947876  0.65401695  0.58559583  1
  O  O65  1  0.13439846  0.48763314  0.57341182  1
  O  O66  1  0.30075483  0.82602539  0.25658721  1
  O  O67  1  0.53030348  0.68532076  0.25547315  1
  O  O68  1  0.16304009  0.46890855  0.25361170  1
  O  O69  1  0.30586747  0.46890855  0.75361170  1
  O  O70  1  0.15501629  0.68532076  0.75547315  1
  O  O71  1  0.52526956  0.82602539  0.75658721  1
loop_
_geom_bond_atom_site_label_1
_geom_bond_atom_site_label_2
_geom_bond_distance
_geom_bond_site_symmetry_2
Na0 O15 2.305841 1_555
Na0 O52 2.414155 1_555
Na0 O51 2.428537 1_555
Na0 O66 2.461300 1_655
Na0 O68 2.611143 1_655
Na0 O11 2.862505 1_655
Na1 O14 2.305843 1_555
Na1 O49 2.414155 1_555
Na1 O50 2.428546 1_555
Na1 O71 2.461307 1_555
Na1 O69 2.611150 1_555
Na1 O6 2.862505 1_555
Na2 O27 2.291242 1_555
Na2 O64 2.328656 1_555
Na2 O63 2.471574 1_555
Na2 O44 2.522428 1_555
Na2 O42 2.658626 1_565
Na3 O26 2.291238 1_554
Na3 O61 2.328656 1_555
Na3 O62 2.471556 1_555
Na3 O45 2.522436 1_455
Na3 O47 2.658633 1_565
Na4 O5 2.380242 1_555
Na4 O41 2.414293 1_545
Na4 O39 2.458574 1_655
Na4 O56 2.463724 1_555
Na4 O55 2.667290 1_555
Na4 O34 2.776530 1_545
Na5 O0 2.380238 1_555
Na5 O36 2.414286 1_545
Na5 O38 2.458566 1_555
Na5 O57 2.463740 1_555
Na5 O58 2.667290 1_555
Na5 O31 2.776530 1_545
Na6 O37 2.264970 1_555
Na6 O36 2.523436 1_655
Na6 O38 2.552985 1_665
Na6 O44 2.686081 1_555
Na6 O42 2.861955 1_565
Na6 O43 2.972110 1_665
Na7 O40 2.264970 1_555
Na7 O41 2.523436 1_455
Na7 O39 2.552985 1_565
Na7 O45 2.686081 1_456
Na7 O47 2.861955 1_566
Na7 O46 2.972110 1_466
Na8 O48 2.283861 1_555
Na8 O49 2.462887 1_555
Na8 O56 2.605252 1_555
Na8 O50 2.606829 1_555
Na8 O55 2.855609 1_555
Na8 O54 2.990011 1_555
Na9 O53 2.283861 1_555
Na9 O52 2.462887 1_555
Na9 O57 2.605252 1_555
Na9 O51 2.606829 1_555
Na9 O58 2.855609 1_555
Na9 O59 2.990011 1_555
Na10 O61 2.272359 1_555
Na10 O60 2.538832 1_555
Na10 O62 2.578489 1_555
Na10 O68 2.701062 1_555
Na10 O67 2.828496 1_555
Na10 O66 2.859675 1_555
Na11 O64 2.272359 1_555
Na11 O65 2.538832 1_555
Na11 O63 2.578489 1_555
Na11 O69 2.701062 1_555
Na11 O70 2.828496 1_555
Na11 O71 2.859675 1_555
O0 Si0 1.622096 1_555
O0 Zn0 2.000906 1_455
O1 S0 1.461613 1_555
O1 Zn0 2.129952 1_565
O2 S1 1.459196 1_655
O2 Zn0 2.035111 1_555
O3 S2 1.459196 1_555
O3 Zn1 2.035111 1_555
O4 S3 1.461613 1_555
O4 Zn1 2.129952 1_665
O5 Si1 1.622096 1_555
O5 Zn1 2.000906 1_655
O6 Si1 1.685019 1_565
O6 Zr0 1.968006 1_555
O7 S2 1.499029 1_555
O7 Zr0 2.239878 1_445
O8 S3 1.513351 1_455
O8 Zr0 2.141400 1_455
O9 S0 1.513351 1_555
O9 Zr1 2.141400 1_655
O10 S1 1.499029 1_555
O10 Zr1 2.239878 1_545
O11 Si0 1.685019 1_565
O11 Zr1 1.968006 1_555
O12 S4 1.458558 1_555
O12 Zn2 2.158671 1_555
O13 S5 1.468135 1_555
O13 Zn2 2.089981 1_555
O14 Si2 1.608763 1_555
O14 Zn2 1.972866 1_555
O15 Si3 1.608763 1_555
O15 Zn3 1.972866 1_555
O16 S6 1.468135 1_555
O16 Zn3 2.089981 1_555
O17 S7 1.458558 1_555
O17 Zn3 2.158671 1_555
O18 S7 1.522715 1_555
O18 Zr2 2.133136 1_554
O19 Si3 1.663664 1_555
O19 Zr2 1.987483 1_554
O20 S6 1.514711 1_555
O20 Zr2 2.176682 1_554
O21 S5 1.514711 1_555
O21 Zr3 2.176682 1_555
O22 Si2 1.663664 1_555
O22 Zr3 1.987483 1_555
O23 S4 1.522715 1_555
O23 Zr3 2.133136 1_555
O24 S8 1.458060 1_555
O24 Zn4 2.340659 1_556
O25 S9 1.463709 1_555
O25 Zn4 1.999377 1_556
O26 Si4 1.622828 1_555
O26 Zn4 1.941240 1_556
O27 Si5 1.622828 1_555
O27 Zn5 1.941240 1_555
O28 S10 1.463709 1_555
O28 Zn5 1.999377 1_555
O29 S11 1.458060 1_555
O29 Zn5 2.340659 1_555
O30 S11 1.516911 1_555
O30 Zr4 2.157208 1_555
O31 Si5 1.699933 1_555
O31 Zr4 1.949900 1_555
O32 S10 1.489492 1_555
O32 Zr4 2.235559 1_555
O33 S9 1.489492 1_555
O33 Zr5 2.235559 1_555
O34 Si4 1.699933 1_555
O34 Zr5 1.949900 1_555
O35 S8 1.516911 1_555
O35 Zr5 2.157208 1_555
O36 S11 1.473782 1_555
O36 Zn0 2.385897 1_465
O37 Si5 1.608539 1_555
O37 Zn0 1.994428 1_565
O38 S10 1.469105 1_555
O38 Zn0 2.321947 1_455
O39 S9 1.469108 1_555
O39 Zn1 2.321947 1_555
O40 Si4 1.608531 1_555
O40 Zn1 1.994428 1_565
O41 S8 1.473787 1_555
O41 Zn1 2.385897 1_665
O42 S4 1.530377 1_555
O42 Zr0 2.190208 1_545
O43 S5 1.497050 1_555
O43 Zr0 2.210204 1_445
O44 Si2 1.706977 1_555
O44 Zr0 2.015303 1_555
O45 Si3 1.706981 1_555
O45 Zr1 2.015303 1_655
O46 S6 1.497041 1_555
O46 Zr1 2.210204 1_645
O47 S7 1.530382 1_555
O47 Zr1 2.190208 1_545
O48 Si1 1.610083 1_555
O48 Zn2 1.993653 1_555
O49 S2 1.480266 1_555
O49 Zn2 2.292142 1_555
O50 S3 1.464023 1_555
O50 Zn2 2.367113 1_555
O51 S0 1.464027 1_555
O51 Zn3 2.367113 1_555
O52 S1 1.480257 1_655
O52 Zn3 2.292142 1_555
O53 Si0 1.610088 1_555
O53 Zn3 1.993653 1_555
O54 S8 1.509043 1_555
O54 Zr2 2.142997 1_555
O55 S9 1.527425 1_655
O55 Zr2 2.179038 1_555
O56 Si4 1.684559 1_545
O56 Zr2 2.103498 1_555
O57 Si5 1.684550 1_545
O57 Zr3 2.103498 1_555
O58 S10 1.527442 1_555
O58 Zr3 2.179039 1_555
O59 S11 1.509032 1_655
O59 Zr3 2.142997 1_555
O60 S7 1.453666 1_555
O60 Zn4 2.360875 1_555
O61 Si3 1.636113 1_455
O61 Zn4 1.992839 1_555
O62 S6 1.469350 1_565
O62 Zn4 2.478924 1_555
O63 S5 1.469343 1_565
O63 Zn5 2.478924 1_555
O64 Si2 1.636130 1_555
O64 Zn5 1.992839 1_555
O65 S4 1.453655 1_455
O65 Zn5 2.360875 1_555
O66 Si0 1.706483 1_565
O66 Zr4 2.004360 1_555
O67 S0 1.508714 1_555
O67 Zr4 2.148907 1_555
O68 S1 1.518872 1_555
O68 Zr4 2.334460 1_555
O69 S2 1.518876 1_555
O69 Zr5 2.334460 1_555
O70 S3 1.508705 1_455
O70 Zr5 2.148907 1_555
O71 Si1 1.706488 1_565
O71 Zr5 2.004360 1_555
