# generated using pymatgen
data_Y6OsI10
_symmetry_space_group_name_H-M   'P 1'
_cell_length_a   7.72792206
_cell_length_b   9.65502879
_cell_length_c   9.69430697
_cell_angle_alpha   107.21738158
_cell_angle_beta   96.72805694
_cell_angle_gamma   105.00426346
_symmetry_Int_Tables_number   1
_chemical_formula_structural   Y6OsI10
_chemical_formula_sum   'Y6 Os1 I10'
_cell_volume   652.46871086
_cell_formula_units_Z   1
loop_
 _symmetry_equiv_pos_site_id
 _symmetry_equiv_pos_as_xyz
  1  'x, y, z'
loop_
 _atom_site_type_symbol
 _atom_site_label
 _atom_site_symmetry_multiplicity
 _atom_site_fract_x
 _atom_site_fract_y
 _atom_site_fract_z
 _atom_site_occupancy
  Y  Y0  1  0.11363319  0.04118139  0.76176432  1
  Y  Y1  1  0.88636681  0.95881861  0.23823568  1
  Y  Y2  1  0.96687488  0.28186429  0.08233596  1
  Y  Y3  1  0.03312512  0.71813571  0.91766404  1
  Y  Y4  1  0.35479281  0.12665951  0.16965634  1
  Y  Y5  1  0.64520719  0.87334049  0.83034366  1
  Os  Os0  1  -0.00000000  -0.00000000  -0.00000000  1
  I  I0  1  0.35093490  0.45300768  0.27336783  1
  I  I1  1  0.64906510  0.54699232  0.72663217  1
  I  I2  1  0.26013638  0.08689320  0.46185117  1
  I  I3  1  0.73986362  0.91310680  0.53814883  1
  I  I4  1  0.08593300  0.37117239  0.81710151  1
  I  I5  1  0.91406700  0.62882761  0.18289849  1
  I  I6  1  0.45541170  0.81369516  0.09277466  1
  I  I7  1  0.54458830  0.18630484  0.90722534  1
  I  I8  1  0.78453249  0.26088647  0.34999720  1
  I  I9  1  0.21546751  0.73911353  0.65000280  1
loop_
_geom_bond_atom_site_label_1
_geom_bond_atom_site_label_2
_geom_bond_distance
_geom_bond_site_symmetry_2
Os0 Y0 2.664810 1_554
Os0 Y1 2.664810 1_445
Os0 Y3 2.689118 1_544
Os0 Y2 2.689118 1_455
Os0 Y5 2.781122 1_444
Os0 Y4 2.781122 1_555
I0 Y4 3.019962 1_555
I0 Y2 3.054528 1_455
I1 Y5 3.019962 1_555
I1 Y3 3.054528 1_655
I2 Y1 3.109366 1_445
I2 Y4 3.112909 1_555
I2 Y0 3.346950 1_555
I3 Y0 3.109366 1_665
I3 Y5 3.112909 1_555
I3 Y1 3.346950 1_555
I4 Y2 3.107655 1_456
I4 Y0 3.138930 1_555
I4 Y3 3.347653 1_555
I5 Y3 3.107655 1_654
I5 Y1 3.138930 1_555
I5 Y2 3.347653 1_555
I6 Y5 3.203062 1_554
I6 Y4 3.210887 1_565
I6 Y1 3.218222 1_555
I6 Y3 3.255535 1_554
I7 Y4 3.203062 1_556
I7 Y5 3.210887 1_545
I7 Y0 3.218222 1_555
I7 Y2 3.255535 1_556
I8 Y2 3.127250 1_555
I8 Y1 3.133140 1_545
I8 Y4 3.291627 1_555
I9 Y3 3.127250 1_555
I9 Y0 3.133140 1_565
I9 Y5 3.291627 1_555
