# generated using pymatgen
data_Y2Si3Pd
_symmetry_space_group_name_H-M   'P 1'
_cell_length_a   8.12244893
_cell_length_b   8.12245406
_cell_length_c   8.17373040
_cell_angle_alpha   90.00031793
_cell_angle_beta   89.99990206
_cell_angle_gamma   120.00040575
_symmetry_Int_Tables_number   1
_chemical_formula_structural   Y2Si3Pd
_chemical_formula_sum   'Y8 Si12 Pd4'
_cell_volume   467.00702978
_cell_formula_units_Z   4
loop_
 _symmetry_equiv_pos_site_id
 _symmetry_equiv_pos_as_xyz
  1  'x, y, z'
loop_
 _atom_site_type_symbol
 _atom_site_label
 _atom_site_symmetry_multiplicity
 _atom_site_fract_x
 _atom_site_fract_y
 _atom_site_fract_z
 _atom_site_occupancy
  Y  Y0  1  0.50009698  0.00019603  0.24999977  1
  Y  Y1  1  0.50004253  0.00007797  0.74999775  1
  Y  Y2  1  0.99980724  0.49990218  0.25000008  1
  Y  Y3  1  -0.00007703  0.49996041  0.74999830  1
  Y  Y4  1  0.50009501  0.49990075  0.24999931  1
  Y  Y5  1  0.50003694  0.49996634  0.75000107  1
  Y  Y6  1  0.00000350  0.00000073  0.24999699  1
  Y  Y7  1  -0.00000268  -0.00000200  0.74999958  1
  Si  Si0  1  0.16593563  0.33186657  0.00033977  1
  Si  Si1  1  0.83408709  0.66817308  -0.00039519  1
  Si  Si2  1  0.66813425  0.83406446  0.00033567  1
  Si  Si3  1  0.83409169  0.66818878  0.50039538  1
  Si  Si4  1  0.33182633  0.16591354  -0.00039511  1
  Si  Si5  1  0.16593182  0.33186543  0.49966029  1
  Si  Si6  1  0.16592820  0.83407492  0.00034019  1
  Si  Si7  1  0.33181889  0.16590911  0.50039451  1
  Si  Si8  1  0.83409632  0.16590365  -0.00039300  1
  Si  Si9  1  0.66813711  0.83406891  0.49966554  1
  Si  Si10  1  0.83408251  0.16591361  0.50039412  1
  Si  Si11  1  0.16592782  0.83407249  0.49966223  1
  Pd  Pd0  1  0.33333280  0.66666731  0.00031245  1
  Pd  Pd1  1  0.66667622  0.33332557  0.99972959  1
  Pd  Pd2  1  0.66665804  0.33332764  0.50025122  1
  Pd  Pd3  1  0.33333180  0.66666353  0.49971046  1
loop_
_geom_bond_atom_site_label_1
_geom_bond_atom_site_label_2
_geom_bond_distance
_geom_bond_site_symmetry_2
Si0 Si8 2.334238 1_455
Si0 Si4 2.334284 1_555
Si0 Y6 3.100602 1_555
Si0 Y7 3.104277 1_554
Si0 Y4 3.112778 1_555
Si0 Y2 3.112813 1_455
Si0 Y5 3.116118 1_554
Si0 Y3 3.116176 1_554
Si1 Si6 2.334251 1_655
Si1 Si2 2.334287 1_555
Si1 Y7 3.100106 1_664
Si1 Y6 3.104341 1_665
Si1 Y5 3.111904 1_554
Si1 Y3 3.111917 1_654
Si1 Y4 3.115843 1_555
Si1 Y2 3.115858 1_555
Si2 Si8 2.334238 1_565
Si2 Y6 3.100631 1_665
Si2 Y7 3.104235 1_664
Si2 Y4 3.112834 1_555
Si2 Y0 3.112859 1_565
Si2 Y5 3.116069 1_554
Si2 Y1 3.116150 1_564
Si3 Si9 2.334221 1_555
Si3 Y7 3.100001 1_665
Si3 Y6 3.104308 1_665
Si3 Y5 3.111943 1_555
Si3 Y3 3.111970 1_655
Si3 Y4 3.115873 1_555
Si3 Y2 3.115904 1_555
Si4 Si6 2.334235 1_545
Si4 Y7 3.100117 1_554
Si4 Y6 3.104324 1_555
Si4 Y5 3.111930 1_554
Si4 Y1 3.111938 1_554
Si4 Y4 3.115808 1_555
Si4 Y0 3.115840 1_555
Si5 Si7 2.334282 1_555
Si5 Y6 3.100612 1_555
Si5 Y7 3.104283 1_555
Si5 Y4 3.112809 1_555
Si5 Y2 3.112812 1_455
Si5 Y3 3.116130 1_555
Si5 Y5 3.116145 1_555
Si6 Y6 3.100514 1_565
Si6 Y7 3.104227 1_564
Si6 Y0 3.112828 1_565
Si6 Y2 3.112862 1_455
Si6 Y3 3.116196 1_554
Si6 Y1 3.116207 1_564
Si7 Y7 3.100080 1_555
Si7 Y6 3.104310 1_555
Si7 Y1 3.111946 1_555
Si7 Y5 3.111951 1_555
Si7 Y0 3.115843 1_555
Si7 Y4 3.115852 1_555
Si8 Y7 3.100016 1_654
Si8 Y6 3.104261 1_655
Si8 Y1 3.111953 1_554
Si8 Y3 3.111977 1_654
Si8 Y2 3.115861 1_555
Si8 Y0 3.115873 1_555
Si9 Y6 3.100659 1_665
Si9 Y7 3.104205 1_665
Si9 Y4 3.112855 1_555
Si9 Y0 3.112873 1_565
Si9 Y1 3.116098 1_565
Si9 Y5 3.116115 1_555
Si10 Si9 2.334277 1_545
Si10 Si5 2.334308 1_655
Si10 Y7 3.100145 1_655
Si10 Y6 3.104412 1_655
Si10 Y1 3.111853 1_555
Si10 Y3 3.111883 1_655
Si10 Y0 3.115804 1_555
Si10 Y2 3.115830 1_555
Si11 Si3 2.334216 1_455
Si11 Si7 2.334220 1_565
Si11 Y6 3.100583 1_565
Si11 Y7 3.104207 1_565
Si11 Y2 3.112845 1_455
Si11 Y0 3.112849 1_565
Si11 Y1 3.116168 1_565
Si11 Y3 3.116168 1_555
Pd0 Si0 2.355063 1_555
Pd0 Si2 2.355067 1_555
Pd0 Si6 2.355157 1_555
Pd0 Y2 3.109557 1_455
Pd0 Y0 3.109563 1_565
Pd0 Y4 3.109586 1_555
Pd0 Y5 3.112270 1_554
Pd0 Y3 3.112303 1_554
Pd0 Y1 3.112322 1_564
Pd1 Si8 2.355367 1_556
Pd1 Si1 2.355392 1_556
Pd1 Si4 2.355407 1_556
Pd1 Y1 3.108311 1_555
Pd1 Y3 3.108312 1_655
Pd1 Y5 3.108490 1_555
Pd1 Y2 3.110591 1_556
Pd1 Y0 3.110593 1_556
Pd1 Y4 3.110728 1_556
Pd2 Si7 2.355332 1_555
Pd2 Si10 2.355343 1_555
Pd2 Si3 2.355488 1_555
Pd2 Y1 3.108417 1_555
Pd2 Y5 3.108484 1_555
Pd2 Y3 3.108490 1_655
Pd2 Y0 3.110487 1_555
Pd2 Y4 3.110538 1_555
Pd2 Y2 3.110587 1_555
Pd3 Si5 2.355044 1_555
Pd3 Si9 2.355094 1_555
Pd3 Si11 2.355163 1_555
Pd3 Y2 3.109670 1_455
Pd3 Y4 3.109689 1_555
Pd3 Y0 3.109725 1_565
Pd3 Y5 3.112157 1_555
Pd3 Y3 3.112161 1_555
Pd3 Y1 3.112178 1_565
