# generated using pymatgen
data_ScFeSi
_symmetry_space_group_name_H-M   'P 1'
_cell_length_a   4.05419900
_cell_length_b   6.53506700
_cell_length_c   6.66402400
_cell_angle_alpha   90.00000000
_cell_angle_beta   90.00000000
_cell_angle_gamma   90.00000000
_symmetry_Int_Tables_number   1
_chemical_formula_structural   ScFeSi
_chemical_formula_sum   'Sc4 Fe4 Si4'
_cell_volume   176.55973128
_cell_formula_units_Z   4
loop_
 _symmetry_equiv_pos_site_id
 _symmetry_equiv_pos_as_xyz
  1  'x, y, z'
loop_
 _atom_site_type_symbol
 _atom_site_label
 _atom_site_symmetry_multiplicity
 _atom_site_fract_x
 _atom_site_fract_y
 _atom_site_fract_z
 _atom_site_occupancy
  Sc  Sc0  1  0.75000000  0.51255300  0.80871600  1
  Sc  Sc1  1  0.25000000  0.98744700  0.30871600  1
  Sc  Sc2  1  0.75000000  0.01255300  0.69128400  1
  Sc  Sc3  1  0.25000000  0.48744700  0.19128400  1
  Fe  Fe0  1  0.25000000  0.65351600  0.56215300  1
  Fe  Fe1  1  0.25000000  0.15351600  0.93784700  1
  Fe  Fe2  1  0.75000000  0.84648400  0.06215300  1
  Fe  Fe3  1  0.75000000  0.34648400  0.43784700  1
  Si  Si0  1  0.25000000  0.79915400  0.89231900  1
  Si  Si1  1  0.25000000  0.29915400  0.60768100  1
  Si  Si2  1  0.75000000  0.20084600  0.10768100  1
  Si  Si3  1  0.75000000  0.70084600  0.39231900  1
loop_
_geom_bond_atom_site_label_1
_geom_bond_atom_site_label_2
_geom_bond_distance
_geom_bond_site_symmetry_2
Sc0 Si1 2.801567 1_555
Sc0 Si1 2.801567 1_655
Sc0 Si0 2.815581 1_655
Sc0 Si0 2.815581 1_555
Sc0 Si2 2.849346 1_556
Sc0 Si3 3.035474 1_555
Sc1 Si2 2.801567 1_565
Sc1 Si2 2.801567 1_465
Sc1 Si3 2.815581 1_455
Sc1 Si3 2.815581 1_555
Sc1 Si1 2.849346 1_565
Sc1 Si0 3.035474 1_554
Sc2 Si0 2.801567 1_545
Sc2 Si0 2.801567 1_645
Sc2 Si1 2.815581 1_555
Sc2 Si1 2.815581 1_655
Sc2 Si3 2.849346 1_545
Sc2 Si2 3.035474 1_556
Sc3 Si3 2.801567 1_455
Sc3 Si3 2.801567 1_555
Sc3 Si2 2.815581 1_455
Sc3 Si2 2.815581 1_555
Sc3 Si0 2.849346 1_554
Sc3 Si1 3.035474 1_555
Fe0 Si1 2.335570 1_555
Fe0 Si3 2.342162 1_455
Fe0 Si3 2.342162 1_555
Fe0 Si0 2.397262 1_555
Fe0 Sc3 2.699264 1_555
Fe0 Sc1 2.759471 1_555
Fe0 Sc0 2.767224 1_555
Fe0 Sc0 2.767224 1_455
Fe1 Si0 2.335570 1_545
Fe1 Si2 2.342162 1_556
Fe1 Si2 2.342162 1_456
Fe1 Si1 2.397262 1_555
Fe1 Sc1 2.699264 1_546
Fe1 Sc3 2.759471 1_556
Fe1 Sc2 2.767224 1_455
Fe1 Sc2 2.767224 1_555
Fe2 Si2 2.335570 1_565
Fe2 Si0 2.342162 1_654
Fe2 Si0 2.342162 1_554
Fe2 Si3 2.397262 1_555
Fe2 Sc2 2.699264 1_564
Fe2 Sc0 2.759471 1_554
Fe2 Sc1 2.767224 1_655
Fe2 Sc1 2.767224 1_555
Fe3 Si3 2.335570 1_555
Fe3 Si1 2.342162 1_555
Fe3 Si1 2.342162 1_655
Fe3 Si2 2.397262 1_555
Fe3 Sc0 2.699264 1_555
Fe3 Sc2 2.759471 1_555
Fe3 Sc3 2.767224 1_655
Fe3 Sc3 2.767224 1_555
