# generated using pymatgen
data_Dy2MgV2O8
_symmetry_space_group_name_H-M   'P 1'
_cell_length_a   6.01751607
_cell_length_b   6.21354058
_cell_length_c   6.21354010
_cell_angle_alpha   108.95968202
_cell_angle_beta   105.01339964
_cell_angle_gamma   115.97915885
_symmetry_Int_Tables_number   1
_chemical_formula_structural   Dy2MgV2O8
_chemical_formula_sum   'Dy2 Mg1 V2 O8'
_cell_volume   174.12206594
_cell_formula_units_Z   1
loop_
 _symmetry_equiv_pos_site_id
 _symmetry_equiv_pos_as_xyz
  1  'x, y, z'
loop_
 _atom_site_type_symbol
 _atom_site_label
 _atom_site_symmetry_multiplicity
 _atom_site_fract_x
 _atom_site_fract_y
 _atom_site_fract_z
 _atom_site_occupancy
  Dy  Dy0  1  0.85568900  0.15399200  0.73449600  1
  Dy  Dy1  1  0.14431100  0.87880800  0.29830400  1
  Mg  Mg0  1  0.00000000  0.74018700  0.74018700  1
  V  V0  1  0.59646100  0.35314000  0.20868800  1
  V  V1  1  0.40353800  0.61222700  0.75667900  1
  O  O0  1  0.79395100  0.73876100  0.43708100  1
  O  O1  1  0.84052400  0.38570400  0.09220600  1
  O  O2  1  0.23052500  0.15897700  0.00232500  1
  O  O3  1  0.20605000  0.64312900  0.94481000  1
  O  O4  1  0.15947500  0.25168300  0.54517900  1
  O  O5  1  0.62924600  0.24866400  0.46300600  1
  O  O6  1  0.76947600  0.77180100  0.92845200  1
  O  O7  1  0.37075300  0.83375900  0.61941700  1
loop_
_geom_bond_atom_site_label_1
_geom_bond_atom_site_label_2
_geom_bond_distance
_geom_bond_site_symmetry_2
Dy0 O1 2.272034 1_556
Dy0 O5 2.281364 1_555
Dy0 O4 2.387439 1_655
Dy0 O3 2.401641 1_655
Dy0 O2 2.412181 1_656
Dy0 O7 2.427631 1_545
Dy0 O0 2.432310 1_545
Dy1 O4 2.272034 1_565
Dy1 O7 2.281360 1_555
Dy1 O1 2.387443 1_455
Dy1 O0 2.401640 1_455
Dy1 O6 2.412182 1_454
Dy1 O5 2.427626 1_565
Dy1 O3 2.432324 1_554
Mg0 O0 1.963207 1_455
Mg0 O3 1.963216 1_555
Mg0 O6 2.064315 1_455
Mg0 O2 2.064318 1_566
Mg0 O7 2.427559 1_555
Mg0 O5 2.427560 1_455
O0 V0 1.894576 1_555
O1 V0 1.762738 1_555
O2 V0 1.775691 1_555
O3 V1 1.894565 1_555
O4 V1 1.762735 1_555
O5 V0 1.890684 1_555
O6 V1 1.775700 1_555
O7 V1 1.890683 1_555
