# generated using pymatgen
data_MgFe6(OF)6
_symmetry_space_group_name_H-M   'P 1'
_cell_length_a   5.22912897
_cell_length_b   14.58395180
_cell_length_c   3.04134539
_cell_angle_alpha   89.96049861
_cell_angle_beta   90.03227433
_cell_angle_gamma   98.69379180
_symmetry_Int_Tables_number   1
_chemical_formula_structural   MgFe6(OF)6
_chemical_formula_sum   'Mg1 Fe6 O6 F6'
_cell_volume   229.27217623
_cell_formula_units_Z   1
loop_
 _symmetry_equiv_pos_site_id
 _symmetry_equiv_pos_as_xyz
  1  'x, y, z'
loop_
 _atom_site_type_symbol
 _atom_site_label
 _atom_site_symmetry_multiplicity
 _atom_site_fract_x
 _atom_site_fract_y
 _atom_site_fract_z
 _atom_site_occupancy
  Mg  Mg0  1  0.52250400  0.33457700  0.98184600  1
  Fe  Fe0  1  0.07468700  0.98411600  0.98788600  1
  Fe  Fe1  1  0.02009800  0.32900900  0.00164400  1
  Fe  Fe2  1  0.94191500  0.68074700  0.98825500  1
  Fe  Fe3  1  0.58152400  0.13646800  0.48756500  1
  Fe  Fe4  1  0.42267400  0.53166300  0.48570400  1
  Fe  Fe5  1  0.45164700  0.82915000  0.48916300  1
  O  O0  1  0.19956700  0.92595500  0.48826100  1
  O  O1  1  0.28631200  0.76715100  0.98909900  1
  O  O2  1  0.36843400  0.08880700  0.98761400  1
  O  O3  1  0.29945800  0.43304900  0.98619900  1
  O  O4  1  0.62313700  0.58219500  0.98583100  1
  O  O5  1  0.72740300  0.22682500  0.98705600  1
  F  F0  1  0.28715100  0.27238500  0.48691700  1
  F  F1  1  0.12184800  0.59549700  0.48741900  1
  F  F2  1  0.69028300  0.91000100  0.98843900  1
  F  F3  1  0.75895800  0.38705000  0.48512500  1
  F  F4  1  0.75894700  0.75675900  0.48826800  1
  F  F5  1  0.87734700  0.06192700  0.48854200  1
loop_
_geom_bond_atom_site_label_1
_geom_bond_atom_site_label_2
_geom_bond_distance
_geom_bond_site_symmetry_2
Mg0 O3 1.982255 1_555
Mg0 O5 2.031414 1_555
Fe0 O0 1.904001 1_555
Fe0 O0 1.904301 1_556
Fe0 O2 1.995390 1_565
Fe1 O3 1.941218 1_554
Fe1 O5 1.968716 1_454
Fe2 O4 2.029828 1_555
Fe2 O1 2.035947 1_655
Fe3 O2 1.949911 1_554
Fe3 O2 1.950375 1_555
Fe3 O5 2.079351 1_555
Fe3 O5 2.080915 1_554
Fe4 O4 1.928707 1_554
Fe4 O4 1.929186 1_555
Fe4 O3 2.124419 1_554
Fe4 O3 2.125674 1_555
Fe5 O1 1.907915 1_555
Fe5 O1 1.908442 1_554
Fe5 O0 2.072029 1_555
F0 Mg0 2.065281 1_555
F0 Mg0 2.087967 1_554
F0 Fe1 2.270436 1_555
F0 Fe1 2.331431 1_556
F1 Fe4 1.945235 1_555
F1 Fe2 2.255033 1_454
F1 Fe2 2.260327 1_455
F2 Fe0 2.133541 1_655
F2 Fe5 2.192890 1_555
F2 Fe5 2.195790 1_556
F3 Mg0 2.027588 1_555
F3 Mg0 2.042240 1_554
F3 Fe1 2.257604 1_655
F3 Fe1 2.322529 1_656
F4 Fe5 2.051742 1_555
F4 Fe2 2.184785 1_555
F4 Fe2 2.186654 1_554
F5 Fe3 2.020656 1_555
F5 Fe0 2.238046 1_645
F5 Fe0 2.242605 1_644
