# generated using pymatgen
data_Na2Ta4Si7Ge4S5O48
_symmetry_space_group_name_H-M   'P 1'
_cell_length_a   17.40339727
_cell_length_b   8.63392322
_cell_length_c   22.43975768
_cell_angle_alpha   90.41409036
_cell_angle_beta   90.09393734
_cell_angle_gamma   119.91307416
_symmetry_Int_Tables_number   1
_chemical_formula_structural   Na2Ta4Si7Ge4S5O48
_chemical_formula_sum   'Na6 Ta12 Si21 Ge12 S15 O144'
_cell_volume   2922.47943230
_cell_formula_units_Z   3
loop_
 _symmetry_equiv_pos_site_id
 _symmetry_equiv_pos_as_xyz
  1  'x, y, z'
loop_
 _atom_site_type_symbol
 _atom_site_label
 _atom_site_symmetry_multiplicity
 _atom_site_fract_x
 _atom_site_fract_y
 _atom_site_fract_z
 _atom_site_occupancy
  Na  Na0  1  0.99694087  0.00549316  0.49791138  1
  Na  Na1  1  0.49628872  0.98755719  0.00285357  1
  Na  Na2  1  0.32790964  0.33313828  0.83954504  1
  Na  Na3  1  0.82660258  0.33023257  0.83920272  1
  Na  Na4  1  0.33042178  0.32323017  0.33660232  1
  Na  Na5  1  0.82562410  0.32002354  0.33844867  1
  Ta  Ta0  1  0.50449740  0.02007210  0.35922255  1
  Ta  Ta1  1  0.00551680  0.99889546  0.86095858  1
  Ta  Ta2  1  0.50108609  0.01743324  0.64118744  1
  Ta  Ta3  1  0.00176057  0.98612978  0.14142595  1
  Ta  Ta4  1  0.33170771  0.34082751  0.68775410  1
  Ta  Ta5  1  0.83254560  0.34456827  0.68907475  1
  Ta  Ta6  1  0.33716245  0.32155900  0.19244093  1
  Ta  Ta7  1  0.83158915  0.32305100  0.18900325  1
  Ta  Ta8  1  0.17476871  0.68748646  0.02488418  1
  Ta  Ta9  1  0.66755521  0.68369057  0.02497908  1
  Ta  Ta10  1  0.16856271  0.65327254  0.52342231  1
  Ta  Ta11  1  0.67428042  0.66115012  0.52267647  1
  Si  Si0  1  0.13993344  0.98683752  0.25636063  1
  Si  Si1  1  0.63871700  0.98590246  0.24970662  1
  Si  Si2  1  0.51033768  0.29481259  0.24915694  1
  Si  Si3  1  0.13923601  0.29379230  0.74979416  1
  Si  Si4  1  0.64030577  0.29363589  0.75667709  1
  Si  Si5  1  0.47320831  0.34456317  0.57874767  1
  Si  Si6  1  0.97200105  0.33173372  0.58123246  1
  Si  Si7  1  0.33638305  0.61691590  0.57918232  1
  Si  Si8  1  0.84346132  0.63069617  0.58173371  1
  Si  Si9  1  0.47153231  0.62217198  0.08353379  1
  Si  Si10  1  0.97231674  0.60143148  0.07933177  1
  Si  Si11  1  0.34499025  0.06190218  0.08171686  1
  Si  Si12  1  0.83799569  0.05802559  0.07924687  1
  Si  Si13  1  0.31686770  0.66686277  0.91602364  1
  Si  Si14  1  0.80846720  0.65460303  0.91879124  1
  Si  Si15  1  0.17734397  0.95632473  0.91453245  1
  Si  Si16  1  0.67016223  0.95652242  0.91321874  1
  Si  Si17  1  0.31004393  0.96158809  0.41869791  1
  Si  Si18  1  0.81259155  0.95777495  0.41258966  1
  Si  Si19  1  0.17022983  0.38183690  0.41197093  1
  Si  Si20  1  0.67740824  0.39319592  0.41397402  1
  Ge  Ge0  1  0.00571106  0.01685566  0.35785467  1
  Ge  Ge1  1  0.50784813  0.99638289  0.85911723  1
  Ge  Ge2  1  0.99869968  0.02223747  0.64233173  1
  Ge  Ge3  1  0.50090556  0.99720856  0.14762432  1
  Ge  Ge4  1  0.33664084  0.33881669  0.97976037  1
  Ge  Ge5  1  0.82985725  0.33138373  0.97854755  1
  Ge  Ge6  1  0.33622753  0.33863235  0.47479147  1
  Ge  Ge7  1  0.83892998  0.33884735  0.47602904  1
  Ge  Ge8  1  0.17918039  0.69010597  0.31603967  1
  Ge  Ge9  1  0.66865378  0.67181257  0.31108698  1
  Ge  Ge10  1  0.17800002  0.66172665  0.81698785  1
  Ge  Ge11  1  0.67531163  0.66129273  0.81871589  1
  S  S0  1  0.35319483  0.71404212  0.25035016  1
  S  S1  1  0.85700082  0.71841014  0.25197249  1
  S  S2  1  0.00365369  0.29222882  0.25224390  1
  S  S3  1  0.00513006  0.71795000  0.74965411  1
  S  S4  1  0.50375386  0.71587964  0.75204902  1
  S  S5  1  0.35534852  0.99495224  0.75237456  1
  S  S6  1  0.85427433  0.99345983  0.74991775  1
  S  S7  1  0.18627772  0.04634492  0.58270607  1
  S  S8  1  0.69057778  0.05010969  0.58226018  1
  S  S9  1  0.19106034  0.33244225  0.08288381  1
  S  S10  1  0.68789793  0.32879407  0.08211282  1
  S  S11  1  0.02267264  0.38547192  0.91546157  1
  S  S12  1  0.52198744  0.37634069  0.91501960  1
  S  S13  1  0.02249541  0.66767493  0.41527409  1
  S  S14  1  0.52265057  0.66341391  0.41615083  1
  O  O0  1  0.09106032  0.02646099  0.31147347  1
  O  O1  1  0.59395805  0.02294408  0.30796617  1
  O  O2  1  0.40866061  0.78837081  0.30388003  1
  O  O3  1  0.91368037  0.79526895  0.30491360  1
  O  O4  1  0.48278406  0.16426621  0.30754066  1
  O  O5  1  0.98102434  0.17625157  0.30550725  1
  O  O6  1  0.09306133  0.16486818  0.80693572  1
  O  O7  1  0.59203649  0.15647839  0.81137280  1
  O  O8  1  0.48130406  0.78772443  0.80572997  1
  O  O9  1  0.98423692  0.79345228  0.80358785  1
  O  O10  1  0.41136201  0.03013062  0.80515548  1
  O  O11  1  0.91102835  0.02745016  0.80276723  1
  O  O12  1  0.39640060  0.96837717  0.69726547  1
  O  O13  1  0.89299370  0.96352350  0.69472256  1
  O  O14  1  0.07906684  0.19154189  0.69063321  1
  O  O15  1  0.58225507  0.19627517  0.69584714  1
  O  O16  1  0.01373644  0.81941687  0.69609112  1
  O  O17  1  0.51259685  0.81967481  0.69817976  1
  O  O18  1  0.39084750  0.81896793  0.19570390  1
  O  O19  1  0.89897011  0.82618600  0.19694905  1
  O  O20  1  0.01257572  0.20555592  0.19797323  1
  O  O21  1  0.51721570  0.19461977  0.18983335  1
  O  O22  1  0.08082529  0.96548412  0.19557895  1
  O  O23  1  0.58091959  0.96342453  0.18977657  1
  O  O24  1  0.42706490  0.35811195  0.64115172  1
  O  O25  1  0.92552470  0.35248849  0.64243122  1
  O  O26  1  0.24263128  0.12674962  0.63792507  1
  O  O27  1  0.74454597  0.12861651  0.63786770  1
  O  O28  1  0.31645259  0.49604907  0.64007839  1
  O  O29  1  0.81918515  0.50323635  0.64166964  1
  O  O30  1  0.42478199  0.49916482  0.14193498  1
  O  O31  1  0.92732382  0.49611104  0.14095904  1
  O  O32  1  0.31755701  0.13534563  0.14075457  1
  O  O33  1  0.81650741  0.13778747  0.13986350  1
  O  O34  1  0.24430197  0.36556703  0.13694504  1
  O  O35  1  0.74409315  0.36223442  0.13650386  1
  O  O36  1  0.22540597  0.29157677  0.02861681  1
  O  O37  1  0.72677300  0.29504810  0.02793137  1
  O  O38  1  0.41078084  0.53475470  0.02356699  1
  O  O39  1  0.90917963  0.52348985  0.02167498  1
  O  O40  1  0.35306625  0.17630462  0.02252674  1
  O  O41  1  0.85080799  0.17676914  0.02157257  1
  O  O42  1  0.22414393  0.15729586  0.52991385  1
  O  O43  1  0.72583929  0.15966606  0.52987296  1
  O  O44  1  0.35066309  0.52377239  0.52213266  1
  O  O45  1  0.85505411  0.53267150  0.52410198  1
  O  O46  1  0.40814243  0.29376482  0.52256736  1
  O  O47  1  0.90864224  0.29039000  0.52359793  1
  O  O48  1  0.26746054  0.69691942  0.97323597  1
  O  O49  1  0.76092856  0.68689263  0.97519236  1
  O  O50  1  0.07719524  0.45649931  0.96907518  1
  O  O51  1  0.57623949  0.45305460  0.96896663  1
  O  O52  1  0.15195774  0.83055435  0.97282487  1
  O  O53  1  0.65003527  0.83222023  0.97229964  1
  O  O54  1  0.25942854  0.83617385  0.47559978  1
  O  O55  1  0.76692774  0.83790450  0.47301364  1
  O  O56  1  0.14973149  0.46547937  0.47239946  1
  O  O57  1  0.65340173  0.46958481  0.47424944  1
  O  O58  1  0.07559308  0.69769476  0.46994736  1
  O  O59  1  0.57670527  0.69547080  0.47059913  1
  O  O60  1  0.06104319  0.63402683  0.36159218  1
  O  O61  1  0.56048254  0.62821763  0.36257809  1
  O  O62  1  0.24934294  0.88168734  0.35852962  1
  O  O63  1  0.74812670  0.86598937  0.35561401  1
  O  O64  1  0.18184685  0.50682008  0.35411328  1
  O  O65  1  0.68912445  0.51294743  0.35646532  1
  O  O66  1  0.06274200  0.49354499  0.86118852  1
  O  O67  1  0.56134540  0.48772240  0.86100992  1
  O  O68  1  0.18444140  0.85604509  0.85387973  1
  O  O69  1  0.68240528  0.85728153  0.85380993  1
  O  O70  1  0.25377600  0.62125519  0.85660962  1
  O  O71  1  0.74995181  0.61673453  0.85769984  1
  O  O72  1  0.01160700  0.82785926  0.41049199  1
  O  O73  1  0.51095139  0.81991423  0.40940130  1
  O  O74  1  0.40296778  0.96474020  0.40865470  1
  O  O75  1  0.91061207  0.97065153  0.40394058  1
  O  O76  1  0.08035584  0.18485310  0.40959047  1
  O  O77  1  0.58833350  0.19552022  0.40974827  1
  O  O78  1  0.01165413  0.20195445  0.90755313  1
  O  O79  1  0.51188748  0.19469621  0.90898528  1
  O  O80  1  0.08759827  0.97434931  0.90609621  1
  O  O81  1  0.58136538  0.97610135  0.90989696  1
  O  O82  1  0.41183278  0.85206243  0.90439953  1
  O  O83  1  0.90386954  0.83370177  0.90431713  1
  O  O84  1  0.48511510  0.16796346  0.59147868  1
  O  O85  1  0.98656896  0.15859987  0.58777727  1
  O  O86  1  0.09752948  0.02748455  0.59158032  1
  O  O87  1  0.60101589  0.02852050  0.59311181  1
  O  O88  1  0.42274097  0.80778843  0.59585232  1
  O  O89  1  0.93107352  0.82371864  0.59644554  1
  O  O90  1  0.48792785  0.82412536  0.09186734  1
  O  O91  1  0.98524712  0.80282714  0.09048040  1
  O  O92  1  0.42906552  0.03428702  0.09183891  1
  O  O93  1  0.92329721  0.03799822  0.09520119  1
  O  O94  1  0.10081840  0.17371533  0.09196205  1
  O  O95  1  0.60044431  0.16880090  0.08805988  1
  O  O96  1  0.34560275  0.15659694  0.74425863  1
  O  O97  1  0.84554031  0.15718655  0.74400116  1
  O  O98  1  0.23765187  0.30915687  0.74315441  1
  O  O99  1  0.73848095  0.30855365  0.74656760  1
  O  O100  1  0.42101427  0.53087901  0.74572540  1
  O  O101  1  0.92114793  0.53311052  0.74568499  1
  O  O102  1  0.34080351  0.53071840  0.24364419  1
  O  O103  1  0.84808992  0.53739461  0.24386728  1
  O  O104  1  0.41958619  0.31477976  0.24468049  1
  O  O105  1  0.92135742  0.31195908  0.24576065  1
  O  O106  1  0.23622947  0.16908719  0.24615574  1
  O  O107  1  0.73796964  0.17347856  0.24283085  1
  O  O108  1  0.32585626  0.48904754  0.92467688  1
  O  O109  1  0.82231160  0.48270537  0.92431562  1
  O  O110  1  0.43326108  0.35948919  0.91946887  1
  O  O111  1  0.93337619  0.36235362  0.91945317  1
  O  O112  1  0.26102800  0.15484031  0.92430814  1
  O  O113  1  0.75839192  0.15082196  0.92297429  1
  O  O114  1  0.32158044  0.16014092  0.42426353  1
  O  O115  1  0.82483001  0.15739844  0.42316452  1
  O  O116  1  0.25846334  0.36598769  0.42263387  1
  O  O117  1  0.76249645  0.36687752  0.42542285  1
  O  O118  1  0.43271420  0.50143043  0.42108116  1
  O  O119  1  0.93297323  0.50488292  0.42001813  1
  O  O120  1  0.17828196  0.48683984  0.07443155  1
  O  O121  1  0.67985657  0.48922259  0.07559030  1
  O  O122  1  0.06989805  0.62458776  0.07179474  1
  O  O123  1  0.56630803  0.62881193  0.07236654  1
  O  O124  1  0.25503264  0.86323884  0.07565862  1
  O  O125  1  0.75042793  0.86063826  0.07566441  1
  O  O126  1  0.17765323  0.86923697  0.57713324  1
  O  O127  1  0.67938150  0.87100179  0.57666078  1
  O  O128  1  0.24998303  0.64120434  0.57580935  1
  O  O129  1  0.75587166  0.65267007  0.57610458  1
  O  O130  1  0.06715050  0.51045486  0.57344919  1
  O  O131  1  0.57069735  0.51663070  0.57263347  1
  O  O132  1  0.14829151  0.80795514  0.26344237  1
  O  O133  1  0.65527409  0.82121107  0.26034181  1
  O  O134  1  0.26371245  0.69540547  0.25657687  1
  O  O135  1  0.76975869  0.70082738  0.25504914  1
  O  O136  1  0.08153901  0.46787022  0.25910318  1
  O  O137  1  0.59391874  0.48772848  0.26198567  1
  O  O138  1  0.14909806  0.49025897  0.76084084  1
  O  O139  1  0.64891488  0.48980476  0.76326622  1
  O  O140  1  0.08097966  0.69398532  0.75852449  1
  O  O141  1  0.58118372  0.69527465  0.75887809  1
  O  O142  1  0.26649950  0.83534259  0.75603780  1
  O  O143  1  0.76538491  0.83585930  0.75597559  1
loop_
_geom_bond_atom_site_label_1
_geom_bond_atom_site_label_2
_geom_bond_distance
_geom_bond_site_symmetry_2
Na0 O85 2.459112 1_555
Na0 O76 2.499019 1_655
Na0 O75 2.514748 1_545
Na0 O72 2.571779 1_645
Na0 O89 2.632521 1_545
Na0 O86 2.677548 1_655
Na1 O90 2.416395 1_555
Na1 O92 2.446531 1_565
Na1 O95 2.550798 1_565
Na1 O82 2.578160 1_554
Na1 O81 2.589655 1_554
Na1 O79 2.698350 1_564
Na2 O108 2.339596 1_555
Na2 O112 2.367471 1_555
Na2 O110 2.489418 1_555
Na2 O98 2.616630 1_555
Na2 O100 2.697514 1_555
Na2 O96 2.722722 1_555
Na3 O109 2.334209 1_555
Na3 O113 2.357490 1_555
Na3 O111 2.498122 1_555
Na3 O99 2.530942 1_555
Na3 O97 2.711444 1_555
Na3 O101 2.714633 1_555
Na4 O114 2.387640 1_555
Na4 O116 2.426984 1_555
Na4 O118 2.518931 1_555
Na4 O106 2.520278 1_555
Na4 O104 2.605625 1_555
Na4 O102 2.706574 1_555
Na5 O115 2.367445 1_555
Na5 O117 2.370356 1_555
Na5 O119 2.522036 1_555
Na5 O107 2.560610 1_555
Na5 O105 2.689169 1_555
Na5 O103 2.740086 1_555
Ge0 O0 1.783221 1_555
Ge0 O76 1.797400 1_555
Ge0 O75 1.822326 1_445
Ge0 O5 2.017375 1_455
Ge0 O72 2.064668 1_545
Ge0 O3 2.131085 1_445
Ge1 O81 1.785396 1_555
Ge1 O7 1.792155 1_565
Ge1 O82 1.823340 1_555
Ge1 O8 2.007759 1_555
Ge1 O79 2.010190 1_565
Ge1 O10 2.203914 1_565
Ge2 O85 1.788080 1_555
Ge2 O14 1.789071 1_655
Ge2 O89 1.828043 1_545
Ge2 O13 2.027061 1_545
Ge2 O86 2.046166 1_655
Ge2 O16 2.253173 1_645
Ge3 O23 1.823092 1_555
Ge3 O21 1.837397 1_565
Ge3 O90 1.866830 1_555
Ge3 O92 1.905918 1_565
Ge3 O18 2.071685 1_555
Ge3 O95 2.111596 1_565
Ge4 O38 1.813227 1_556
Ge4 O40 1.841199 1_556
Ge4 O108 1.873690 1_555
Ge4 O112 1.919492 1_555
Ge4 O36 2.083695 1_556
Ge4 O110 2.097949 1_555
Ge5 O39 1.811652 1_556
Ge5 O41 1.830313 1_556
Ge5 O109 1.843565 1_555
Ge5 O113 1.888212 1_555
Ge5 O37 1.998785 1_556
Ge5 O111 2.146657 1_555
Ge6 O114 1.818649 1_555
Ge6 O44 1.822321 1_555
Ge6 O46 1.830572 1_555
Ge6 O116 1.890719 1_555
Ge6 O118 1.981177 1_555
Ge6 O42 2.185442 1_555
Ge7 O47 1.815171 1_555
Ge7 O117 1.854096 1_555
Ge7 O115 1.873632 1_555
Ge7 O45 1.883471 1_555
Ge7 O119 2.001544 1_555
Ge7 O43 2.173670 1_555
Ge8 O62 1.759282 1_555
Ge8 O132 1.810566 1_555
Ge8 O64 1.824548 1_555
Ge8 O134 1.971543 1_555
Ge8 O60 2.127810 1_555
Ge8 O136 2.215197 1_555
Ge9 O133 1.826098 1_555
Ge9 O137 1.827566 1_555
Ge9 O63 1.838632 1_555
Ge9 O65 1.884556 1_555
Ge9 O135 2.076598 1_555
Ge9 O61 2.080244 1_555
Ge10 O70 1.764079 1_555
Ge10 O138 1.805653 1_555
Ge10 O68 1.817886 1_555
Ge10 O142 2.055152 1_555
Ge10 O66 2.058678 1_555
Ge10 O140 2.262012 1_555
Ge11 O71 1.760740 1_555
Ge11 O139 1.801273 1_555
Ge11 O69 1.808548 1_555
Ge11 O67 2.035343 1_555
Ge11 O143 2.095837 1_555
Ge11 O141 2.247313 1_555
O0 Si0 1.630187 1_545
O1 Si1 1.632156 1_545
O1 Ta0 1.927513 1_555
O2 S0 1.467554 1_555
O2 Ta0 2.226103 1_565
O3 S1 1.468533 1_555
O4 Si2 1.643504 1_555
O4 Ta0 1.877857 1_555
O5 S2 1.487228 1_655
O6 Si3 1.631200 1_555
O6 Ta1 1.923007 1_545
O7 Si4 1.626853 1_555
O8 S4 1.490273 1_555
O9 S3 1.499446 1_655
O9 Ta1 2.061811 1_655
O10 S5 1.463225 1_545
O11 S6 1.473145 1_545
O11 Ta1 2.207254 1_645
O12 S5 1.501545 1_555
O12 Ta2 2.080327 1_565
O13 S6 1.492228 1_555
O14 Si3 1.641581 1_555
O15 Si4 1.649973 1_555
O15 Ta2 1.917192 1_555
O16 S3 1.455854 1_555
O17 S4 1.471981 1_555
O17 Ta2 2.227754 1_565
O18 S0 1.476616 1_555
O19 S1 1.505184 1_555
O19 Ta3 2.056163 1_655
O20 S2 1.473271 1_555
O20 Ta3 2.200804 1_545
O21 Si2 1.619234 1_555
O22 Si0 1.659845 1_555
O22 Ta3 1.908947 1_555
O23 Si1 1.629437 1_555
O24 Si5 1.647580 1_555
O24 Ta4 1.905483 1_555
O25 Si6 1.648303 1_555
O25 Ta5 1.901272 1_555
O26 S7 1.511187 1_555
O26 Ta4 2.043636 1_555
O27 S8 1.499207 1_555
O27 Ta5 2.063377 1_555
O28 Si7 1.654622 1_555
O28 Ta4 1.840039 1_555
O29 Si8 1.660715 1_555
O29 Ta5 1.843990 1_555
O30 Si9 1.633743 1_555
O30 Ta6 1.913053 1_555
O31 Si10 1.632176 1_555
O31 Ta7 1.927966 1_555
O32 Si11 1.636148 1_555
O32 Ta6 1.863092 1_555
O33 Si12 1.645994 1_555
O33 Ta7 1.843418 1_555
O34 S9 1.462536 1_555
O34 Ta6 2.218016 1_555
O35 S10 1.496283 1_555
O35 Ta7 2.081990 1_555
O36 S9 1.473491 1_555
O37 S10 1.488293 1_555
O38 Si9 1.637990 1_555
O39 Si10 1.606055 1_555
O40 Si11 1.625007 1_555
O41 Si12 1.602458 1_555
O42 S7 1.464464 1_555
O43 S8 1.446633 1_555
O44 Si7 1.591493 1_555
O45 Si8 1.607733 1_555
O46 Si5 1.598718 1_555
O47 Si6 1.616167 1_555
O48 Si13 1.635930 1_555
O48 Ta8 1.956674 1_556
O49 Si14 1.610091 1_555
O49 Ta9 1.962439 1_556
O50 S11 1.459130 1_555
O50 Ta8 2.237971 1_556
O51 S12 1.468519 1_555
O51 Ta9 2.207182 1_556
O52 Si15 1.621520 1_555
O52 Ta8 1.885874 1_556
O53 Si16 1.636851 1_555
O53 Ta9 1.882978 1_556
O54 Si17 1.628242 1_555
O54 Ta10 1.919756 1_555
O55 Si18 1.656696 1_555
O55 Ta11 1.935704 1_555
O56 Si19 1.652847 1_555
O56 Ta10 1.867931 1_555
O57 Si20 1.644007 1_555
O57 Ta11 1.849820 1_555
O58 S13 1.476171 1_555
O58 Ta10 2.196387 1_555
O59 S14 1.478531 1_555
O59 Ta11 2.199429 1_555
O60 S13 1.475640 1_555
O61 S14 1.472377 1_555
O62 Si17 1.633963 1_555
O63 Si18 1.617161 1_555
O64 Si19 1.641479 1_555
O65 Si20 1.608043 1_555
O66 S11 1.486743 1_555
O67 S12 1.491785 1_555
O68 Si15 1.645439 1_555
O69 Si16 1.650238 1_555
O70 Si13 1.641519 1_555
O71 Si14 1.637111 1_555
O72 S13 1.491184 1_555
O73 S14 1.472215 1_555
O73 Ta0 2.118559 1_565
O74 Si17 1.619946 1_555
O74 Ta0 1.937260 1_565
O75 Si18 1.665032 1_555
O76 Si19 1.639232 1_555
O77 Si20 1.638103 1_555
O77 Ta0 1.863945 1_555
O78 S11 1.507187 1_555
O78 Ta1 1.991153 1_545
O79 S12 1.493560 1_555
O80 Si15 1.655719 1_555
O80 Ta1 1.847090 1_555
O81 Si16 1.637877 1_555
O82 Si13 1.651667 1_555
O83 Si14 1.643675 1_555
O83 Ta1 1.902506 1_655
O84 Si5 1.664523 1_555
O84 Ta2 1.841427 1_555
O85 Si6 1.643589 1_555
O86 S7 1.484031 1_555
O87 S8 1.495211 1_555
O87 Ta2 2.009756 1_555
O88 Si7 1.622809 1_555
O88 Ta2 1.917718 1_565
O89 Si8 1.633165 1_555
O90 Si9 1.629599 1_555
O91 Si10 1.655305 1_555
O91 Ta3 1.847522 1_655
O92 Si11 1.611527 1_555
O93 Si12 1.617744 1_555
O93 Ta3 1.937302 1_645
O94 S9 1.498188 1_555
O94 Ta3 2.018561 1_545
O95 S10 1.465903 1_555
O96 S5 1.499791 1_545
O96 Ta4 2.146640 1_555
O97 S6 1.501985 1_545
O97 Ta5 2.140214 1_555
O98 Si3 1.657676 1_555
O98 Ta4 1.965915 1_555
O99 Si4 1.664185 1_555
O99 Ta5 1.986468 1_555
O100 S4 1.531990 1_555
O100 Ta4 2.054095 1_555
O101 S3 1.536924 1_655
O101 Ta5 2.025217 1_555
O102 S0 1.493462 1_555
O102 Ta6 2.107364 1_555
O103 S1 1.501256 1_555
O103 Ta7 2.111597 1_555
O104 Si2 1.674980 1_555
O104 Ta6 1.874688 1_555
O105 S2 1.531174 1_655
O105 Ta7 2.053397 1_555
O106 Si0 1.647227 1_545
O106 Ta6 1.998739 1_555
O107 Si1 1.686629 1_545
O107 Ta7 1.926590 1_555
O108 Si13 1.631835 1_555
O109 Si14 1.623372 1_555
O110 S12 1.480590 1_555
O111 S11 1.467756 1_655
O112 Si15 1.615781 1_545
O113 Si16 1.626151 1_545
O114 Si17 1.627341 1_545
O115 Si18 1.643178 1_545
O116 Si19 1.625661 1_555
O117 Si20 1.626554 1_555
O118 S14 1.495855 1_555
O119 S13 1.494271 1_655
O120 S9 1.470259 1_555
O120 Ta8 2.091474 1_555
O121 S10 1.468259 1_555
O121 Ta9 2.130738 1_555
O122 Si10 1.617223 1_455
O122 Ta8 1.939084 1_555
O123 Si9 1.641316 1_555
O123 Ta9 1.908083 1_555
O124 Si11 1.652031 1_565
O124 Ta8 1.845997 1_555
O125 Si12 1.624992 1_565
O125 Ta9 1.865378 1_555
O126 S7 1.464475 1_565
O126 Ta10 2.151084 1_555
O127 S8 1.463455 1_565
O127 Ta11 2.136734 1_555
O128 Si7 1.620194 1_555
O128 Ta10 1.882606 1_555
O129 Si8 1.632107 1_555
O129 Ta11 1.886381 1_555
O130 Si6 1.615549 1_455
O130 Ta10 1.936897 1_555
O131 Si5 1.610668 1_555
O131 Ta11 1.961312 1_555
O132 Si0 1.630734 1_555
O133 Si1 1.604746 1_555
O134 S0 1.490539 1_555
O135 S1 1.450409 1_555
O136 S2 1.451377 1_555
O137 Si2 1.596331 1_555
O138 Si3 1.634526 1_555
O139 Si4 1.629774 1_555
O140 S3 1.448131 1_555
O141 S4 1.452522 1_555
O142 S5 1.474302 1_555
O143 S6 1.472094 1_555
