# generated using pymatgen
data_SrH2N2O5
_symmetry_space_group_name_H-M   'P 1'
_cell_length_a   9.07200400
_cell_length_b   4.54314400
_cell_length_c   12.75231253
_cell_angle_alpha   80.61060965
_cell_angle_beta   90.00000000
_cell_angle_gamma   90.00000000
_symmetry_Int_Tables_number   1
_chemical_formula_structural   SrH2N2O5
_chemical_formula_sum   'Sr4 H8 N8 O20'
_cell_volume   518.55024735
_cell_formula_units_Z   4
loop_
 _symmetry_equiv_pos_site_id
 _symmetry_equiv_pos_as_xyz
  1  'x, y, z'
loop_
 _atom_site_type_symbol
 _atom_site_label
 _atom_site_symmetry_multiplicity
 _atom_site_fract_x
 _atom_site_fract_y
 _atom_site_fract_z
 _atom_site_occupancy
  Sr  Sr0  1  0.77580800  0.12066400  0.42365500  1
  Sr  Sr1  1  0.27580800  0.87933600  0.57634500  1
  Sr  Sr2  1  0.50034200  0.93358200  0.92788100  1
  Sr  Sr3  1  0.00034200  0.06641800  0.07211900  1
  H  H0  1  0.57216900  0.09523800  0.21694900  1
  H  H1  1  0.07216900  0.90476200  0.78305100  1
  H  H2  1  0.47216600  0.15763100  0.30763800  1
  H  H3  1  0.97216600  0.84236900  0.69236200  1
  H  H4  1  0.88764700  0.14175600  0.83086200  1
  H  H5  1  0.38764700  0.85824400  0.16913800  1
  H  H6  1  0.51265900  0.61066000  0.18131200  1
  H  H7  1  0.01265900  0.38934000  0.81868800  1
  N  N0  1  0.76153200  0.47276300  0.01536500  1
  N  N1  1  0.26153200  0.52723700  0.98463500  1
  N  N2  1  0.01389600  0.47119100  0.49720100  1
  N  N3  1  0.51389600  0.52880900  0.50279900  1
  N  N4  1  0.68898500  0.00774600  0.69123600  1
  N  N5  1  0.18898500  0.99225400  0.30876400  1
  N  N6  1  0.37772700  0.42622400  0.73146300  1
  N  N7  1  0.87772700  0.57377600  0.26853700  1
  O  O0  1  0.13947000  0.38010400  0.53421700  1
  O  O1  1  0.63947000  0.61989600  0.46578300  1
  O  O2  1  0.45636500  0.49083400  0.80605300  1
  O  O3  1  0.95636500  0.50916600  0.19394700  1
  O  O4  1  0.34821700  0.14911300  0.73840700  1
  O  O5  1  0.84821700  0.85088700  0.26159300  1
  O  O6  1  0.49273300  0.25331500  0.50422900  1
  O  O7  1  0.99273300  0.74668500  0.49577100  1
  O  O8  1  0.21631500  0.98872000  0.21103800  1
  O  O9  1  0.71631500  0.01128000  0.78896200  1
  O  O10  1  0.30269200  0.97459400  0.36799600  1
  O  O11  1  0.80269200  0.02540600  0.63200400  1
  O  O12  1  0.98498300  0.19316300  0.85963700  1
  O  O13  1  0.48498300  0.80683700  0.14036300  1
  O  O14  1  0.63381300  0.39564400  0.98925500  1
  O  O15  1  0.13381300  0.60435600  0.01074500  1
  O  O16  1  0.77733300  0.75241900  0.00993200  1
  O  O17  1  0.27733300  0.24758100  0.99006800  1
  O  O18  1  0.06466800  0.76941200  0.72970900  1
  O  O19  1  0.56466800  0.23058800  0.27029100  1
loop_
_geom_bond_atom_site_label_1
_geom_bond_atom_site_label_2
_geom_bond_distance
_geom_bond_site_symmetry_2
H0 O19 0.990934 1_555
H1 O18 0.990934 1_555
H2 O19 0.994686 1_555
H3 O18 0.994686 1_655
H4 O12 0.998452 1_555
H4 O9 1.776555 1_555
H5 O13 0.998452 1_555
H5 O8 1.776555 1_555
H6 O13 0.989047 1_555
H7 O12 0.989047 1_455
N0 O16 1.269189 1_555
N0 O14 1.270509 1_554
N0 Sr3 2.861737 1_655
N1 O17 1.269189 1_555
N1 O15 1.270509 1_556
N1 Sr2 2.861737 1_555
N2 O7 1.263436 1_455
N2 O0 1.275981 1_555
N2 Sr0 2.927168 1_455
N3 O6 1.263436 1_555
N3 O1 1.275981 1_555
N3 Sr1 2.927168 1_555
N4 O11 1.273305 1_555
N4 O9 1.273324 1_555
N5 O10 1.273305 1_555
N5 O8 1.273324 1_555
N6 O2 1.261341 1_555
N6 O4 1.275972 1_555
N6 Sr1 2.770707 1_555
N7 O3 1.261341 1_555
N7 O5 1.275972 1_555
N7 Sr0 2.770707 1_555
O0 Sr1 2.568179 1_545
O0 Sr1 2.712971 1_555
O1 Sr0 2.568179 1_565
O1 Sr0 2.712971 1_555
O2 Sr2 2.763775 1_555
O2 Sr2 2.774679 1_545
O3 Sr3 2.763775 1_655
O3 Sr3 2.774679 1_665
O4 Sr1 2.651655 1_545
O4 Sr2 2.815959 1_545
O5 Sr0 2.651655 1_565
O5 Sr3 2.815959 1_665
O6 Sr1 2.663731 1_545
O6 Sr0 2.866343 1_555
O7 Sr0 2.663731 1_565
O7 Sr1 2.866343 1_655
O8 Sr3 2.626366 1_565
O9 Sr2 2.626366 1_545
O10 Sr1 2.632657 1_555
O11 Sr0 2.632657 1_555
O12 Sr3 2.680303 1_656
O13 Sr2 2.680303 1_554
O14 Sr2 2.649810 1_545
O14 Sr2 2.725325 1_555
O15 Sr3 2.649810 1_565
O15 Sr3 2.725325 1_555
O16 Sr3 2.669481 1_665
O16 Sr2 2.793873 1_554
O17 Sr2 2.669481 1_545
O17 Sr3 2.793873 1_556
O18 Sr1 2.724822 1_555
O19 Sr0 2.724822 1_555
