# generated using pymatgen
data_MgMn6(O2F)4
_symmetry_space_group_name_H-M   'P 1'
_cell_length_a   8.33130386
_cell_length_b   5.81303235
_cell_length_c   5.92212218
_cell_angle_alpha   65.65738257
_cell_angle_beta   62.88441825
_cell_angle_gamma   64.35966249
_symmetry_Int_Tables_number   1
_chemical_formula_structural   MgMn6(O2F)4
_chemical_formula_sum   'Mg1 Mn6 O8 F4'
_cell_volume   221.73537445
_cell_formula_units_Z   1
loop_
 _symmetry_equiv_pos_site_id
 _symmetry_equiv_pos_as_xyz
  1  'x, y, z'
loop_
 _atom_site_type_symbol
 _atom_site_label
 _atom_site_symmetry_multiplicity
 _atom_site_fract_x
 _atom_site_fract_y
 _atom_site_fract_z
 _atom_site_occupancy
  Mg  Mg0  1  0.00103094  0.01700576  0.48807846  1
  Mn  Mn0  1  0.81058569  0.64049867  0.65930536  1
  Mn  Mn1  1  0.65610452  0.32608108  0.31869635  1
  Mn  Mn2  1  0.35258214  0.65186698  0.66718944  1
  Mn  Mn3  1  0.21758368  0.35554525  0.35476616  1
  Mn  Mn4  1  0.50479940  0.99553623  -0.00027649  1
  Mn  Mn5  1  0.99663157  0.00008178  0.00622649  1
  O  O0  1  0.70525462  0.02149328  0.64021615  1
  O  O1  1  0.36530835  0.36771090  0.98615486  1
  O  O2  1  0.92765346  0.25229565  0.17386773  1
  O  O3  1  0.38690946  0.41999518  0.48527208  1
  O  O4  1  0.30069437  0.97240918  0.36116538  1
  O  O5  1  0.62931379  0.62396104  0.00949926  1
  O  O6  1  0.98761554  0.27342571  0.66398147  1
  O  O7  1  0.03037725  0.72107742  0.33838103  1
  F  F0  1  0.30147271  0.90625071  0.84863615  1
  F  F1  1  0.64746342  0.58303428  0.51326725  1
  F  F2  1  0.69750307  0.04980261  0.13070309  1
  F  F3  1  0.03945204  0.75049928  0.81915575  1
loop_
_geom_bond_atom_site_label_1
_geom_bond_atom_site_label_2
_geom_bond_distance
_geom_bond_site_symmetry_2
Mg0 O2 1.980457 1_455
Mg0 O6 2.085485 1_455
Mg0 O7 2.121456 1_545
Mg0 O4 2.180607 1_545
Mg0 O0 2.196499 1_455
Mn0 O5 1.922825 1_556
Mn0 O0 1.972291 1_565
Mn0 O6 1.998515 1_555
Mn0 O7 2.005137 1_655
Mn1 O3 1.915371 1_555
Mn1 O2 1.931973 1_555
Mn1 O5 1.955848 1_555
Mn1 O0 2.057221 1_555
Mn2 O3 1.908363 1_555
Mn2 O1 1.940778 1_555
Mn2 O4 2.043648 1_555
Mn3 O1 1.945254 1_554
Mn3 O7 2.014159 1_555
Mn3 O4 2.015174 1_545
Mn3 O6 2.030928 1_455
Mn3 O3 2.101850 1_555
Mn4 O5 1.938417 1_555
Mn4 O1 1.950251 1_564
Mn4 O0 2.014131 1_564
Mn4 O4 2.033230 1_555
Mn5 O2 1.848269 1_555
Mn5 O6 2.004732 1_554
Mn5 O7 2.014516 1_645
F0 Mn2 1.967371 1_555
F0 Mn5 2.163058 1_466
F0 Mn4 2.542625 1_556
F1 Mn0 2.099755 1_555
F1 Mn2 2.105979 1_555
F1 Mn1 2.194122 1_555
F2 Mn1 2.140633 1_555
F2 Mn5 2.171467 1_555
F2 Mn4 2.248101 1_545
F3 Mn5 1.994079 1_466
F3 Mg0 1.996410 1_565
F3 Mn2 2.221509 1_555
