# generated using pymatgen
data_NaMn3P3(HO6)2
_symmetry_space_group_name_H-M   'P 1'
_cell_length_a   8.78098572
_cell_length_b   8.78098572
_cell_length_c   6.74816483
_cell_angle_alpha   73.04241877
_cell_angle_beta   73.04241877
_cell_angle_gamma   91.12373272
_symmetry_Int_Tables_number   1
_chemical_formula_structural   NaMn3P3(HO6)2
_chemical_formula_sum   'Na2 Mn6 P6 H4 O24'
_cell_volume   472.93335834
_cell_formula_units_Z   2
loop_
 _symmetry_equiv_pos_site_id
 _symmetry_equiv_pos_as_xyz
  1  'x, y, z'
loop_
 _atom_site_type_symbol
 _atom_site_label
 _atom_site_symmetry_multiplicity
 _atom_site_fract_x
 _atom_site_fract_y
 _atom_site_fract_z
 _atom_site_occupancy
  Na  Na0  1  0.97686800  0.02313200  0.75000000  1
  Na  Na1  1  0.02313200  0.97686800  0.25000000  1
  Mn  Mn0  1  0.62671100  0.94955000  0.12796200  1
  Mn  Mn1  1  0.05045000  0.37328900  0.37203800  1
  Mn  Mn2  1  0.28308300  0.71691700  0.75000000  1
  Mn  Mn3  1  0.71691700  0.28308300  0.25000000  1
  Mn  Mn4  1  0.37328900  0.05045000  0.87203800  1
  Mn  Mn5  1  0.94955000  0.62671100  0.62796200  1
  P  P0  1  0.32320200  0.10346300  0.38856200  1
  P  P1  1  0.10346300  0.32320200  0.88856200  1
  P  P2  1  0.67857500  0.32142500  0.75000000  1
  P  P3  1  0.32142500  0.67857500  0.25000000  1
  P  P4  1  0.89653700  0.67679800  0.11143800  1
  P  P5  1  0.67679800  0.89653700  0.61143800  1
  H  H0  1  0.37071200  0.38171500  0.81154200  1
  H  H1  1  0.61828500  0.62928800  0.68845800  1
  H  H2  1  0.62928800  0.61828500  0.18845800  1
  H  H3  1  0.38171500  0.37071200  0.31154200  1
  O  O0  1  0.56217900  0.73729900  0.65299700  1
  O  O1  1  0.84760800  0.85190000  0.59734900  1
  O  O2  1  0.85190000  0.84760800  0.09734900  1
  O  O3  1  0.15239200  0.14810000  0.40265100  1
  O  O4  1  0.60943200  0.96372600  0.80122200  1
  O  O5  1  0.03627400  0.39056800  0.69877800  1
  O  O6  1  0.39056800  0.03627400  0.19877800  1
  O  O7  1  0.96372600  0.60943200  0.30122200  1
  O  O8  1  0.26270100  0.43782100  0.84700300  1
  O  O9  1  0.14810000  0.15239200  0.90265100  1
  O  O10  1  0.78668700  0.28618200  0.54230800  1
  O  O11  1  0.71381800  0.21331300  0.95769200  1
  O  O12  1  0.21331300  0.71381800  0.45769200  1
  O  O13  1  0.28618200  0.78668700  0.04230800  1
  O  O14  1  0.28910300  0.49977400  0.26497300  1
  O  O15  1  0.50022600  0.71089700  0.23502700  1
  O  O16  1  0.71089700  0.50022600  0.73502700  1
  O  O17  1  0.73729900  0.56217900  0.15299700  1
  O  O18  1  0.98272100  0.32319900  0.10785200  1
  O  O19  1  0.67680100  0.01727900  0.39214800  1
  O  O20  1  0.01727900  0.67680100  0.89214800  1
  O  O21  1  0.32319900  0.98272100  0.60785200  1
  O  O22  1  0.43782100  0.26270100  0.34700300  1
  O  O23  1  0.49977400  0.28910300  0.76497300  1
loop_
_geom_bond_atom_site_label_1
_geom_bond_atom_site_label_2
_geom_bond_distance
_geom_bond_site_symmetry_2
Na0 O2 2.323737 1_546
Na0 O3 2.323737 1_655
Na0 O9 2.475639 1_655
Na0 O1 2.475639 1_545
Na1 O9 2.323737 1_564
Na1 O1 2.323737 1_455
Na1 O3 2.475639 1_565
Na1 O2 2.475639 1_455
Mn0 O2 2.166338 1_555
Mn0 O15 2.169002 1_555
Mn0 O19 2.188848 1_565
Mn0 O6 2.191839 1_565
Mn0 O4 2.221681 1_554
Mn0 O11 2.266071 1_564
Mn1 O3 2.166338 1_555
Mn1 O14 2.169002 1_555
Mn1 O18 2.188848 1_455
Mn1 O7 2.191839 1_455
Mn1 O5 2.221681 1_555
Mn1 O10 2.266071 1_455
Mn2 O20 2.226325 1_555
Mn2 O21 2.226325 1_555
Mn2 O12 2.236649 1_555
Mn2 O13 2.236649 1_556
Mn2 O0 2.333517 1_555
Mn2 O8 2.333517 1_555
Mn3 O19 2.226325 1_555
Mn3 O18 2.226325 1_555
Mn3 O11 2.236649 1_554
Mn3 O10 2.236649 1_555
Mn3 O22 2.333517 1_555
Mn3 O17 2.333517 1_555
Mn4 O9 2.166338 1_555
Mn4 O23 2.169002 1_555
Mn4 O21 2.188848 1_545
Mn4 O4 2.191839 1_545
Mn4 O6 2.221681 1_556
Mn4 O13 2.266071 1_546
Mn5 O1 2.166338 1_555
Mn5 O16 2.169002 1_555
Mn5 O20 2.188848 1_655
Mn5 O5 2.191839 1_655
Mn5 O7 2.221681 1_555
Mn5 O12 2.266071 1_655
H0 O8 1.074353 1_555
H0 O23 1.421941 1_555
H1 O0 1.074353 1_555
H1 O16 1.421941 1_555
H2 O17 1.074353 1_555
H2 O15 1.421941 1_555
H3 O22 1.074353 1_555
H3 O14 1.421941 1_555
O0 P5 1.611888 1_555
O1 P5 1.540754 1_555
O2 P4 1.540754 1_555
O3 P0 1.540754 1_555
O4 P5 1.533201 1_555
O5 P1 1.533201 1_555
O6 P0 1.533201 1_555
O7 P4 1.533201 1_555
O8 P1 1.611888 1_555
O9 P1 1.540754 1_555
O10 P2 1.565156 1_555
O11 P2 1.565156 1_555
O12 P3 1.565156 1_555
O13 P3 1.565156 1_555
O14 P3 1.558548 1_555
O15 P3 1.558548 1_555
O16 P2 1.558548 1_555
O17 P4 1.611888 1_555
O18 P1 1.548770 1_654
O19 P5 1.548770 1_545
O20 P4 1.548770 1_456
O21 P0 1.548770 1_565
O22 P0 1.611888 1_555
O23 P2 1.558548 1_555
