# generated using pymatgen
data_Mg(MoO3)2
_symmetry_space_group_name_H-M   'P 1'
_cell_length_a   3.70282000
_cell_length_b   3.96960054
_cell_length_c   8.75599987
_cell_angle_alpha   102.85741975
_cell_angle_beta   90.00000000
_cell_angle_gamma   90.00000000
_symmetry_Int_Tables_number   1
_chemical_formula_structural   Mg(MoO3)2
_chemical_formula_sum   'Mg1 Mo2 O6'
_cell_volume   125.47499263
_cell_formula_units_Z   1
loop_
 _symmetry_equiv_pos_site_id
 _symmetry_equiv_pos_as_xyz
  1  'x, y, z'
loop_
 _atom_site_type_symbol
 _atom_site_label
 _atom_site_symmetry_multiplicity
 _atom_site_fract_x
 _atom_site_fract_y
 _atom_site_fract_z
 _atom_site_occupancy
  Mg  Mg0  1  0.75000000  0.97240100  0.44554600  1
  Mo  Mo0  1  0.25000000  0.37939200  0.25609900  1
  Mo  Mo1  1  0.75000000  0.61410400  0.73075100  1
  O  O0  1  0.25000000  0.91452400  0.32742800  1
  O  O1  1  0.75000000  0.08417100  0.66970400  1
  O  O2  1  0.75000000  0.42664600  0.35227300  1
  O  O3  1  0.25000000  0.56430300  0.62817700  1
  O  O4  1  0.25000000  0.28189800  0.05932400  1
  O  O5  1  0.75000000  0.71255900  0.93069900  1
loop_
_geom_bond_atom_site_label_1
_geom_bond_atom_site_label_2
_geom_bond_distance
_geom_bond_site_symmetry_2
Mg0 O1 1.913528 1_565
Mg0 O0 2.108176 1_555
Mg0 O0 2.108176 1_655
Mg0 O2 2.138451 1_555
Mg0 O2 2.138651 1_565
Mo0 O4 1.679766 1_555
Mo0 O2 2.025274 1_555
Mo0 O2 2.025274 1_455
Mo0 O0 2.075640 1_545
Mo0 O0 2.076558 1_555
Mo1 O5 1.706848 1_555
Mo1 O3 2.048031 1_555
Mo1 O3 2.048031 1_655
Mo1 O1 2.051953 1_555
Mo1 O1 2.052193 1_565
