# generated using pymatgen
data_Tl6SeI4
_symmetry_space_group_name_H-M   'P 1'
_cell_length_a   9.49784000
_cell_length_b   9.49784000
_cell_length_c   9.98466700
_cell_angle_alpha   90.00000000
_cell_angle_beta   90.00000000
_cell_angle_gamma   90.00000000
_symmetry_Int_Tables_number   1
_chemical_formula_structural   Tl6SeI4
_chemical_formula_sum   'Tl12 Se2 I8'
_cell_volume   900.70647260
_cell_formula_units_Z   2
loop_
 _symmetry_equiv_pos_site_id
 _symmetry_equiv_pos_as_xyz
  1  'x, y, z'
loop_
 _atom_site_type_symbol
 _atom_site_label
 _atom_site_symmetry_multiplicity
 _atom_site_fract_x
 _atom_site_fract_y
 _atom_site_fract_z
 _atom_site_occupancy
  Tl  Tl0  1  0.69138600  0.89578000  0.50000000  1
  Tl  Tl1  1  0.30861400  0.10422000  0.50000000  1
  Tl  Tl2  1  0.60422000  0.80861400  0.00000000  1
  Tl  Tl3  1  0.10422000  0.69138600  0.50000000  1
  Tl  Tl4  1  0.89578000  0.30861400  0.50000000  1
  Tl  Tl5  1  0.19138600  0.60422000  0.00000000  1
  Tl  Tl6  1  0.80861400  0.39578000  0.00000000  1
  Tl  Tl7  1  0.39578000  0.19138600  0.00000000  1
  Tl  Tl8  1  0.00000000  0.00000000  0.79970500  1
  Tl  Tl9  1  0.50000000  0.50000000  0.70029500  1
  Tl  Tl10  1  0.00000000  0.00000000  0.20029500  1
  Tl  Tl11  1  0.50000000  0.50000000  0.29970500  1
  Se  Se0  1  0.00000000  0.00000000  0.50000000  1
  Se  Se1  1  0.50000000  0.50000000  0.00000000  1
  I  I0  1  0.16757200  0.33242800  0.75000000  1
  I  I1  1  0.66757200  0.16757200  0.75000000  1
  I  I2  1  0.33242800  0.83242800  0.75000000  1
  I  I3  1  0.83242800  0.66757200  0.75000000  1
  I  I4  1  0.83242800  0.66757200  0.25000000  1
  I  I5  1  0.33242800  0.83242800  0.25000000  1
  I  I6  1  0.66757200  0.16757200  0.25000000  1
  I  I7  1  0.16757200  0.33242800  0.25000000  1
loop_
_geom_bond_atom_site_label_1
_geom_bond_atom_site_label_2
_geom_bond_distance
_geom_bond_site_symmetry_2
Se0 Tl10 2.992455 1_555
Se0 Tl8 2.992455 1_555
Se0 Tl1 3.093795 1_555
Se0 Tl4 3.093795 1_455
Se0 Tl0 3.093795 1_445
Se0 Tl3 3.093795 1_545
Se1 Tl11 2.992455 1_555
Se1 Tl9 2.992455 1_554
Se1 Tl6 3.093795 1_555
Se1 Tl2 3.093795 1_555
Se1 Tl7 3.093795 1_555
Se1 Tl5 3.093795 1_555
I0 Tl1 3.566980 1_555
I0 Tl7 3.566980 1_556
I0 Tl8 3.570469 1_555
I0 Tl9 3.570469 1_555
I0 Tl4 3.598030 1_455
I0 Tl5 3.598030 1_556
I1 Tl6 3.566980 1_556
I1 Tl4 3.566980 1_555
I1 Tl9 3.570469 1_555
I1 Tl8 3.570469 1_655
I1 Tl7 3.598030 1_556
I1 Tl0 3.598030 1_545
I2 Tl5 3.566980 1_556
I2 Tl3 3.566980 1_555
I2 Tl9 3.570469 1_555
I2 Tl8 3.570469 1_565
I2 Tl1 3.598030 1_565
I2 Tl2 3.598030 1_556
I3 Tl2 3.566980 1_556
I3 Tl0 3.566980 1_555
I3 Tl9 3.570469 1_555
I3 Tl8 3.570469 1_665
I3 Tl6 3.598030 1_556
I3 Tl3 3.598030 1_655
I4 Tl2 3.566980 1_555
I4 Tl0 3.566980 1_555
I4 Tl11 3.570469 1_555
I4 Tl10 3.570469 1_665
I4 Tl6 3.598030 1_555
I4 Tl3 3.598030 1_655
I5 Tl5 3.566980 1_555
I5 Tl3 3.566980 1_555
I5 Tl11 3.570469 1_555
I5 Tl10 3.570469 1_565
I5 Tl1 3.598030 1_565
I5 Tl2 3.598030 1_555
I6 Tl6 3.566980 1_555
I6 Tl4 3.566980 1_555
I6 Tl11 3.570469 1_555
I6 Tl10 3.570469 1_655
I6 Tl7 3.598030 1_555
I6 Tl0 3.598030 1_545
I7 Tl1 3.566980 1_555
I7 Tl7 3.566980 1_555
I7 Tl10 3.570469 1_555
I7 Tl11 3.570469 1_555
I7 Tl4 3.598030 1_455
I7 Tl5 3.598030 1_555
