# generated using pymatgen
data_V4O5F7
_symmetry_space_group_name_H-M   'P 1'
_cell_length_a   5.26890314
_cell_length_b   7.52319835
_cell_length_c   5.41958292
_cell_angle_alpha   91.95718831
_cell_angle_beta   89.68589831
_cell_angle_gamma   90.11823325
_symmetry_Int_Tables_number   1
_chemical_formula_structural   V4O5F7
_chemical_formula_sum   'V4 O5 F7'
_cell_volume   214.69793666
_cell_formula_units_Z   1
loop_
 _symmetry_equiv_pos_site_id
 _symmetry_equiv_pos_as_xyz
  1  'x, y, z'
loop_
 _atom_site_type_symbol
 _atom_site_label
 _atom_site_symmetry_multiplicity
 _atom_site_fract_x
 _atom_site_fract_y
 _atom_site_fract_z
 _atom_site_occupancy
  V  V0  1  0.52758500  0.50592800  0.46897700  1
  V  V1  1  0.52951100  0.99638800  0.53060900  1
  V  V2  1  0.02073800  0.49416200  0.96410200  1
  V  V3  1  0.03215700  0.98187600  0.03927000  1
  O  O0  1  0.76882000  0.53839300  0.27559300  1
  O  O1  1  0.76947400  0.96299700  0.71804900  1
  O  O2  1  0.21275200  0.03716100  0.28098400  1
  O  O3  1  0.21266700  0.47157000  0.71979800  1
  O  O4  1  0.07083000  0.75992300  0.00694900  1
  F  F0  1  0.91685500  0.24355000  0.99618900  1
  F  F1  1  0.71152400  0.96333700  0.21092600  1
  F  F2  1  0.70586100  0.54655400  0.78292500  1
  F  F3  1  0.57734000  0.25138000  0.50419700  1
  F  F4  1  0.40262300  0.75222300  0.49426300  1
  F  F5  1  0.27156600  0.44708400  0.21929500  1
  F  F6  1  0.26969800  0.04747300  0.78787600  1
loop_
_geom_bond_atom_site_label_1
_geom_bond_atom_site_label_2
_geom_bond_distance
_geom_bond_site_symmetry_2
O0 V0 1.665904 1_555
O0 V2 2.158999 1_654
O1 V1 1.651191 1_555
O1 V3 2.230508 1_656
O2 V3 1.664122 1_545
O2 V1 2.182891 1_545
O3 V2 1.665901 1_555
O3 V0 2.159935 1_555
O4 V3 1.685662 1_555
O4 V2 2.021844 1_554
F0 V2 1.975265 1_655
F0 V3 2.082537 1_646
F1 V3 1.931216 1_655
F1 V1 1.984084 1_555
F2 V0 1.962535 1_555
F2 V2 1.979636 1_655
F3 V1 1.944338 1_545
F3 V0 1.949367 1_555
F4 V1 1.957458 1_555
F4 V0 1.967822 1_555
F5 V0 1.955332 1_555
F5 V2 1.959660 1_554
F6 V3 1.921184 1_546
F6 V1 1.977456 1_545
