# generated using pymatgen
data_BeO2
_symmetry_space_group_name_H-M   'P 1'
_cell_length_a   4.78906918
_cell_length_b   8.05281638
_cell_length_c   9.71646187
_cell_angle_alpha   84.28509097
_cell_angle_beta   90.00000000
_cell_angle_gamma   90.00000000
_symmetry_Int_Tables_number   1
_chemical_formula_structural   BeO2
_chemical_formula_sum   'Be12 O24'
_cell_volume   372.85768484
_cell_formula_units_Z   12
loop_
 _symmetry_equiv_pos_site_id
 _symmetry_equiv_pos_as_xyz
  1  'x, y, z'
loop_
 _atom_site_type_symbol
 _atom_site_label
 _atom_site_symmetry_multiplicity
 _atom_site_fract_x
 _atom_site_fract_y
 _atom_site_fract_z
 _atom_site_occupancy
  Be  Be0  1  0.38125571  0.51733833  0.40778012  1
  Be  Be1  1  0.88125571  0.48266167  0.59221988  1
  Be  Be2  1  0.51593945  0.71978824  0.13580069  1
  Be  Be3  1  0.01593945  0.28021176  0.86419931  1
  Be  Be4  1  0.00873676  0.91768053  0.13039323  1
  Be  Be5  1  0.50873676  0.08231947  0.86960677  1
  Be  Be6  1  0.30390628  0.98218129  0.59336296  1
  Be  Be7  1  0.80390628  0.01781871  0.40663704  1
  Be  Be8  1  0.20339113  0.41698802  0.12927091  1
  Be  Be9  1  0.70339113  0.58301198  0.87072909  1
  Be  Be10  1  0.19673697  0.77980959  0.86834478  1
  Be  Be11  1  0.69673697  0.22019041  0.13165522  1
  O  O0  1  0.33982977  0.89589762  0.09940369  1
  O  O1  1  0.83982977  0.10410238  0.90059631  1
  O  O2  1  0.21083590  0.84193310  0.71208211  1
  O  O3  1  0.71083590  0.15806690  0.28791789  1
  O  O4  1  0.55156146  0.93399102  0.49495615  1
  O  O5  1  0.05156146  0.06600898  0.50504385  1
  O  O6  1  0.35332861  0.91991437  0.94894878  1
  O  O7  1  0.85332861  0.08008563  0.05105122  1
  O  O8  1  0.87361704  0.39547425  0.09670933  1
  O  O9  1  0.37361704  0.60452575  0.90329067  1
  O  O10  1  0.27128706  0.41868210  0.28497534  1
  O  O11  1  0.77128706  0.58131790  0.71502466  1
  O  O12  1  0.62612092  0.43134711  0.50029149  1
  O  O13  1  0.12612092  0.56865289  0.49970851  1
  O  O14  1  0.37455099  0.25644165  0.06982031  1
  O  O15  1  0.87455099  0.74355835  0.93017969  1
  O  O16  1  0.83898301  0.75521588  0.07344694  1
  O  O17  1  0.33898301  0.24478412  0.92655306  1
  O  O18  1  0.36055571  0.58021830  0.05358064  1
  O  O19  1  0.86055571  0.41978170  0.94641936  1
  O  O20  1  0.93010086  0.92220065  0.28508450  1
  O  O21  1  0.43010086  0.07779935  0.71491550  1
  O  O22  1  0.49126236  0.65512744  0.29113374  1
  O  O23  1  0.99126236  0.34487256  0.70886626  1
loop_
_geom_bond_atom_site_label_1
_geom_bond_atom_site_label_2
_geom_bond_distance
_geom_bond_site_symmetry_2
Be0 O10 1.587802 1_555
Be0 O13 1.592182 1_555
Be0 O12 1.593334 1_555
Be0 O22 1.594633 1_555
Be1 O11 1.587802 1_555
Be1 O12 1.592182 1_555
Be1 O13 1.593334 1_655
Be1 O23 1.594633 1_555
Be2 O22 1.551300 1_555
Be2 O18 1.622965 1_555
Be2 O0 1.657629 1_555
Be2 O16 1.675554 1_555
Be3 O23 1.551300 1_455
Be3 O19 1.622965 1_455
Be3 O1 1.657629 1_455
Be3 O17 1.675554 1_555
Be4 O20 1.553450 1_455
Be4 O0 1.626705 1_555
Be4 O7 1.630288 1_465
Be4 O16 1.680143 1_455
Be5 O21 1.553450 1_555
Be5 O1 1.626705 1_555
Be5 O6 1.630288 1_545
Be5 O17 1.680143 1_555
Be6 O21 1.591903 1_565
Be6 O5 1.592861 1_565
Be6 O2 1.595421 1_555
Be6 O4 1.595442 1_555
Be7 O20 1.591903 1_545
Be7 O4 1.592861 1_545
Be7 O3 1.595421 1_555
Be7 O5 1.595442 1_655
Be8 O10 1.548832 1_555
Be8 O8 1.623346 1_455
Be8 O18 1.625631 1_555
Be8 O14 1.681005 1_555
Be9 O11 1.548832 1_555
Be9 O9 1.623346 1_555
Be9 O19 1.625631 1_555
Be9 O15 1.681005 1_555
Be10 O2 1.552047 1_555
Be10 O6 1.620084 1_555
Be10 O9 1.652216 1_555
Be10 O15 1.670937 1_455
Be11 O3 1.552047 1_555
Be11 O7 1.620084 1_555
Be11 O8 1.652216 1_555
Be11 O14 1.670937 1_555
