# generated using pymatgen
data_Na3Si2Sn2PO12
_symmetry_space_group_name_H-M   'P 1'
_cell_length_a   9.04693687
_cell_length_b   9.04693656
_cell_length_c   22.52331072
_cell_angle_alpha   90.05619297
_cell_angle_beta   89.94380702
_cell_angle_gamma   120.09294332
_symmetry_Int_Tables_number   1
_chemical_formula_structural   Na3Si2Sn2PO12
_chemical_formula_sum   'Na18 Si12 Sn12 P6 O72'
_cell_volume   1594.99079837
_cell_formula_units_Z   6
loop_
 _symmetry_equiv_pos_site_id
 _symmetry_equiv_pos_as_xyz
  1  'x, y, z'
loop_
 _atom_site_type_symbol
 _atom_site_label
 _atom_site_symmetry_multiplicity
 _atom_site_fract_x
 _atom_site_fract_y
 _atom_site_fract_z
 _atom_site_occupancy
  Na  Na0  1  0.99692495  0.99197690  0.50028861  1
  Na  Na1  1  0.00802310  0.00307505  0.00028861  1
  Na  Na2  1  0.66359195  0.32530990  0.83362161  1
  Na  Na3  1  0.67469010  0.33640805  0.33362161  1
  Na  Na4  1  0.33025795  0.65864390  0.16695561  1
  Na  Na5  1  0.34135610  0.66974205  0.66695561  1
  Na  Na6  1  0.63948930  0.00151524  0.25131505  1
  Na  Na7  1  0.99830479  0.63088513  0.25177611  1
  Na  Na8  1  0.99848476  0.36051070  0.75131505  1
  Na  Na9  1  0.36911487  0.00169521  0.75177611  1
  Na  Na10  1  0.30615630  0.33484824  0.58464805  1
  Na  Na11  1  0.66497179  0.96421813  0.58510911  1
  Na  Na12  1  0.66515176  0.69384370  0.08464805  1
  Na  Na13  1  0.03578187  0.33502821  0.08510911  1
  Na  Na14  1  0.97282230  0.66818224  0.91798205  1
  Na  Na15  1  0.33163779  0.29755213  0.91844311  1
  Na  Na16  1  0.33181776  0.02717770  0.41798205  1
  Na  Na17  1  0.70244787  0.66836221  0.41844311  1
  Si  Si0  1  0.70531252  0.70564974  0.24995312  1
  Si  Si1  1  0.00132226  0.29340263  0.24841344  1
  Si  Si2  1  0.29435026  0.29468748  0.74995312  1
  Si  Si3  1  0.70659737  0.99867774  0.74841344  1
  Si  Si4  1  0.37197952  0.03898274  0.58328612  1
  Si  Si5  1  0.66798926  0.62673563  0.58174644  1
  Si  Si6  1  0.96101726  0.62802048  0.08328612  1
  Si  Si7  1  0.37326437  0.33201074  0.08174644  1
  Si  Si8  1  0.03864552  0.37231674  0.91662012  1
  Si  Si9  1  0.33465526  0.96006963  0.91508044  1
  Si  Si10  1  0.62768326  0.96135448  0.41662012  1
  Si  Si11  1  0.03993037  0.66534474  0.41508044  1
  Sn  Sn0  1  0.99566005  0.00112138  0.35197376  1
  Sn  Sn1  1  0.99887862  0.00433995  0.85197376  1
  Sn  Sn2  1  0.99758380  0.99404627  0.64807248  1
  Sn  Sn3  1  0.00595373  0.00241620  0.14807248  1
  Sn  Sn4  1  0.66232705  0.33445438  0.68530676  1
  Sn  Sn5  1  0.66554562  0.33767295  0.18530676  1
  Sn  Sn6  1  0.66425080  0.32737927  0.98140548  1
  Sn  Sn7  1  0.67262073  0.33574920  0.48140548  1
  Sn  Sn8  1  0.32899305  0.66778838  0.01864076  1
  Sn  Sn9  1  0.33221162  0.67100695  0.51864076  1
  Sn  Sn10  1  0.33091680  0.66071327  0.31473948  1
  Sn  Sn11  1  0.33928673  0.66908320  0.81473948  1
  P  P0  1  0.29378649  0.00242528  0.25122525  1
  P  P1  1  0.99757472  0.70621351  0.75122525  1
  P  P2  1  0.96045349  0.33575828  0.58455825  1
  P  P3  1  0.66424172  0.03954651  0.08455825  1
  P  P4  1  0.62711949  0.66909228  0.91789225  1
  P  P5  1  0.33090772  0.37288051  0.41789225  1
  O  O0  1  0.21884410  0.03337537  0.30836983  1
  O  O1  1  0.82794018  0.78537374  0.30862541  1
  O  O2  1  0.96081713  0.16834521  0.30535493  1
  O  O3  1  0.21462626  0.17205982  0.80862541  1
  O  O4  1  0.96662463  0.78115590  0.80836983  1
  O  O5  1  0.83165479  0.03918287  0.80535493  1
  O  O6  1  0.78558488  0.96701312  0.68770710  1
  O  O7  1  0.17269891  0.21178400  0.69092969  1
  O  O8  1  0.03610995  0.82457922  0.69714141  1
  O  O9  1  0.78821600  0.82730109  0.19092969  1
  O  O10  1  0.03298688  0.21441512  0.18770710  1
  O  O11  1  0.17542078  0.96389005  0.19714141  1
  O  O12  1  0.88551110  0.36670837  0.64170283  1
  O  O13  1  0.49460718  0.11870674  0.64195841  1
  O  O14  1  0.62748413  0.50167821  0.63868793  1
  O  O15  1  0.88129326  0.50539282  0.14195841  1
  O  O16  1  0.63329163  0.11448890  0.14170283  1
  O  O17  1  0.49832179  0.37251587  0.13868793  1
  O  O18  1  0.45225188  0.30034612  0.02104010  1
  O  O19  1  0.83936591  0.54511700  0.02426269  1
  O  O20  1  0.70277695  0.15791222  0.03047441  1
  O  O21  1  0.45488300  0.16063409  0.52426269  1
  O  O22  1  0.69965388  0.54774812  0.52104010  1
  O  O23  1  0.84208778  0.29722305  0.53047441  1
  O  O24  1  0.55217710  0.70004237  0.97503683  1
  O  O25  1  0.16127318  0.45204074  0.97529241  1
  O  O26  1  0.29415013  0.83501221  0.97202193  1
  O  O27  1  0.54795926  0.83872682  0.47529241  1
  O  O28  1  0.29995763  0.44782290  0.47503683  1
  O  O29  1  0.16498779  0.70584987  0.47202193  1
  O  O30  1  0.11891788  0.63368012  0.35437410  1
  O  O31  1  0.50603191  0.87845100  0.35759669  1
  O  O32  1  0.36944295  0.49124622  0.36380841  1
  O  O33  1  0.12154900  0.49396809  0.85759669  1
  O  O34  1  0.36631988  0.88108212  0.85437410  1
  O  O35  1  0.50875378  0.63055705  0.86380841  1
  O  O36  1  0.02955165  0.84349310  0.41114617  1
  O  O37  1  0.81398833  0.97312472  0.41243547  1
  O  O38  1  0.17622745  0.19083510  0.41090858  1
  O  O39  1  0.02687528  0.18601167  0.91243547  1
  O  O40  1  0.15650690  0.97044835  0.91114617  1
  O  O41  1  0.80916490  0.82377255  0.91090858  1
  O  O42  1  0.97698546  0.17239193  0.58845057  1
  O  O43  1  0.18770512  0.03293960  0.58903782  1
  O  O44  1  0.83130352  0.82186316  0.58687521  1
  O  O45  1  0.96706040  0.81229488  0.08903782  1
  O  O46  1  0.82760807  0.02301454  0.08845057  1
  O  O47  1  0.17813684  0.16869648  0.08687521  1
  O  O48  1  0.69621865  0.17682610  0.74447917  1
  O  O49  1  0.48065533  0.30645772  0.74576847  1
  O  O50  1  0.84289445  0.52416810  0.74424158  1
  O  O51  1  0.69354228  0.51934467  0.24576847  1
  O  O52  1  0.82317390  0.30378135  0.24447917  1
  O  O53  1  0.47583190  0.15710555  0.24424158  1
  O  O54  1  0.64365246  0.50572493  0.92178357  1
  O  O55  1  0.85437212  0.36627260  0.92237082  1
  O  O56  1  0.49797052  0.15519616  0.92020821  1
  O  O57  1  0.63372740  0.14562788  0.42237082  1
  O  O58  1  0.49427507  0.35634754  0.42178357  1
  O  O59  1  0.84480384  0.50202948  0.42020821  1
  O  O60  1  0.36288465  0.51016010  0.07781317  1
  O  O61  1  0.14732133  0.63979172  0.07910247  1
  O  O62  1  0.50956045  0.85750210  0.07757558  1
  O  O63  1  0.36020828  0.85267867  0.57910247  1
  O  O64  1  0.48983990  0.63711535  0.57781317  1
  O  O65  1  0.14249790  0.49043955  0.57757558  1
  O  O66  1  0.31031846  0.83905893  0.25511757  1
  O  O67  1  0.52103812  0.69960660  0.25570482  1
  O  O68  1  0.16463652  0.48853016  0.25354221  1
  O  O69  1  0.30039340  0.47896188  0.75570482  1
  O  O70  1  0.16094107  0.68968154  0.75511757  1
  O  O71  1  0.51146984  0.83536348  0.75354221  1
loop_
_geom_bond_atom_site_label_1
_geom_bond_atom_site_label_2
_geom_bond_distance
_geom_bond_site_symmetry_2
Na0 O44 2.470764 1_555
Na0 O36 2.512769 1_655
Na0 O37 2.531065 1_555
Na0 O43 2.544784 1_665
Na0 O42 2.632078 1_565
Na0 O38 2.644775 1_665
Na1 O47 2.470764 1_555
Na1 O40 2.512769 1_544
Na1 O39 2.531065 1_554
Na1 O45 2.544784 1_445
Na1 O46 2.632078 1_455
Na1 O41 2.644775 1_444
Na2 O56 2.470764 1_555
Na2 O48 2.512769 1_555
Na2 O49 2.531065 1_555
Na2 O55 2.544784 1_555
Na2 O54 2.632078 1_555
Na2 O50 2.644775 1_555
Na3 O59 2.470764 1_555
Na3 O52 2.512769 1_555
Na3 O51 2.531065 1_555
Na3 O57 2.544784 1_555
Na3 O58 2.632078 1_555
Na3 O53 2.644775 1_555
Na4 O68 2.470764 1_555
Na4 O60 2.512769 1_555
Na4 O61 2.531065 1_555
Na4 O67 2.544784 1_555
Na4 O66 2.632078 1_555
Na4 O62 2.644775 1_555
Na5 O71 2.470764 1_555
Na5 O64 2.512769 1_555
Na5 O63 2.531065 1_555
Na5 O69 2.544784 1_555
Na5 O70 2.632078 1_555
Na5 O65 2.644775 1_555
Na6 O67 2.384018 1_545
Na6 O52 2.388817 1_555
Na6 O53 2.507948 1_555
Na6 O66 2.578075 1_545
Na6 O31 2.660679 1_545
Na6 O16 2.684320 1_555
Na6 O2 2.795304 1_555
Na6 O9 2.874576 1_545
Na7 O51 2.418462 1_555
Na7 O68 2.422448 1_655
Na7 O66 2.487896 1_655
Na7 O30 2.551173 1_655
Na7 O52 2.567569 1_555
Na7 O15 2.705916 1_555
Na7 O1 2.849790 1_555
Na7 O11 2.884525 1_655
Na8 O69 2.384018 1_655
Na8 O48 2.388817 1_555
Na8 O50 2.507948 1_555
Na8 O70 2.578075 1_655
Na8 O33 2.660679 1_655
Na8 O12 2.684320 1_555
Na8 O5 2.795304 1_555
Na8 O7 2.874576 1_655
Na9 O49 2.418461 1_555
Na9 O71 2.422448 1_545
Na9 O70 2.487896 1_545
Na9 O34 2.551173 1_545
Na9 O48 2.567569 1_555
Na9 O13 2.705916 1_555
Na9 O3 2.849790 1_555
Na9 O8 2.884525 1_545
Na10 O43 2.384018 1_555
Na10 O64 2.388822 1_555
Na10 O65 2.507962 1_555
Na10 O42 2.578075 1_455
Na10 O7 2.660679 1_555
Na10 O28 2.684305 1_555
Na10 O14 2.795304 1_555
Na10 O21 2.874576 1_555
Na11 O63 2.418470 1_555
Na11 O44 2.422448 1_555
Na11 O42 2.487896 1_565
Na11 O6 2.551173 1_555
Na11 O64 2.567560 1_555
Na11 O27 2.705895 1_555
Na11 O13 2.849790 1_565
Na11 O23 2.884525 1_565
Na12 O45 2.384018 1_555
Na12 O60 2.388822 1_555
Na12 O62 2.507962 1_555
Na12 O46 2.578075 1_565
Na12 O9 2.660679 1_555
Na12 O24 2.684305 1_554
Na12 O17 2.795304 1_555
Na12 O19 2.874576 1_555
Na13 O61 2.418470 1_555
Na13 O47 2.422448 1_555
Na13 O46 2.487896 1_455
Na13 O10 2.551173 1_555
Na13 O60 2.567560 1_555
Na13 O25 2.705895 1_554
Na13 O15 2.849790 1_455
Na13 O20 2.884525 1_455
Na14 O55 2.384027 1_555
Na14 O40 2.388817 1_655
Na14 O41 2.507948 1_555
Na14 O54 2.578066 1_555
Na14 O19 2.660659 1_556
Na14 O4 2.684320 1_555
Na14 O26 2.795304 1_655
Na14 O33 2.874576 1_655
Na15 O39 2.418462 1_555
Na15 O56 2.422464 1_555
Na15 O54 2.487900 1_555
Na15 O18 2.551158 1_556
Na15 O40 2.567569 1_545
Na15 O3 2.705916 1_555
Na15 O25 2.849790 1_555
Na15 O35 2.884525 1_555
Na16 O57 2.384027 1_555
Na16 O36 2.388817 1_545
Na16 O38 2.507948 1_555
Na16 O58 2.578066 1_555
Na16 O21 2.660659 1_555
Na16 O0 2.684320 1_555
Na16 O29 2.795304 1_545
Na16 O31 2.874576 1_545
Na17 O37 2.418461 1_555
Na17 O59 2.422464 1_555
Na17 O58 2.487900 1_555
Na17 O22 2.551158 1_555
Na17 O36 2.567569 1_655
Na17 O1 2.705916 1_555
Na17 O27 2.849790 1_555
Na17 O32 2.884525 1_555
O0 P0 1.543577 1_555
O0 Sn0 2.128945 1_455
O1 Si0 1.641929 1_555
O1 Sn0 2.023499 1_565
O2 Si1 1.626444 1_655
O2 Sn0 1.993147 1_555
O3 Si2 1.641929 1_555
O3 Sn1 2.023499 1_455
O4 P1 1.543577 1_555
O4 Sn1 2.128945 1_565
O5 Si3 1.626444 1_545
O5 Sn1 1.993147 1_555
O6 Si3 1.632433 1_555
O6 Sn2 2.015419 1_555
O7 Si2 1.647497 1_555
O7 Sn2 2.047372 1_445
O8 P1 1.542559 1_455
O8 Sn2 2.057538 1_455
O9 Si0 1.647497 1_555
O9 Sn3 2.047373 1_665
O10 Si1 1.632433 1_555
O10 Sn3 2.015419 1_555
O11 P0 1.542559 1_565
O11 Sn3 2.057538 1_565
O12 P2 1.543577 1_555
O12 Sn4 2.128945 1_555
O13 Si4 1.641929 1_555
O13 Sn4 2.023499 1_555
O14 Si5 1.626444 1_555
O14 Sn4 1.993147 1_555
O15 Si6 1.641929 1_555
O15 Sn5 2.023499 1_555
O16 P3 1.543577 1_555
O16 Sn5 2.128945 1_555
O17 Si7 1.626444 1_555
O17 Sn5 1.993147 1_555
O18 Si7 1.632433 1_555
O18 Sn6 2.015419 1_554
O19 Si6 1.647497 1_555
O19 Sn6 2.047372 1_554
O20 P3 1.542559 1_555
O20 Sn6 2.057538 1_554
O21 Si4 1.647497 1_555
O21 Sn7 2.047373 1_555
O22 Si5 1.632433 1_555
O22 Sn7 2.015419 1_555
O23 P2 1.542559 1_555
O23 Sn7 2.057538 1_555
O24 P4 1.543577 1_555
O24 Sn8 2.128945 1_556
O25 Si8 1.641929 1_555
O25 Sn8 2.023499 1_556
O26 Si9 1.626444 1_555
O26 Sn8 1.993147 1_556
O27 Si10 1.641929 1_555
O27 Sn9 2.023499 1_555
O28 P5 1.543577 1_555
O28 Sn9 2.128945 1_555
O29 Si11 1.626444 1_555
O29 Sn9 1.993147 1_555
O30 Si11 1.632433 1_555
O30 Sn10 2.015419 1_555
O31 Si10 1.647497 1_555
O31 Sn10 2.047372 1_555
O32 P5 1.542559 1_555
O32 Sn10 2.057538 1_555
O33 Si8 1.647497 1_555
O33 Sn11 2.047373 1_555
O34 Si9 1.632433 1_555
O34 Sn11 2.015419 1_555
O35 P4 1.542559 1_555
O35 Sn11 2.057538 1_555
O36 Si11 1.663216 1_555
O36 Sn0 2.084920 1_465
O37 Si10 1.637322 1_555
O37 Sn0 2.049098 1_565
O38 P5 1.544086 1_555
O38 Sn0 2.136476 1_455
O39 Si8 1.637322 1_555
O39 Sn1 2.049098 1_455
O40 Si9 1.663216 1_555
O40 Sn1 2.084920 1_465
O41 P4 1.544086 1_555
O41 Sn1 2.136476 1_565
O42 P2 1.560893 1_555
O42 Sn2 2.178909 1_545
O43 Si4 1.645371 1_555
O43 Sn2 2.059069 1_445
O44 Si5 1.642260 1_555
O44 Sn2 2.058969 1_555
O45 Si6 1.645371 1_555
O45 Sn3 2.059069 1_665
O46 P3 1.560893 1_555
O46 Sn3 2.178909 1_655
O47 Si7 1.642260 1_555
O47 Sn3 2.058969 1_555
O48 Si3 1.663216 1_545
O48 Sn4 2.084920 1_555
O49 Si2 1.637322 1_555
O49 Sn4 2.049098 1_555
O50 P1 1.544086 1_555
O50 Sn4 2.136476 1_555
O51 Si0 1.637322 1_555
O51 Sn5 2.049098 1_555
O52 Si1 1.663216 1_655
O52 Sn5 2.084920 1_555
O53 P0 1.544086 1_555
O53 Sn5 2.136476 1_555
O54 P4 1.560906 1_555
O54 Sn6 2.178909 1_555
O55 Si8 1.645356 1_655
O55 Sn6 2.059069 1_555
O56 Si9 1.642257 1_545
O56 Sn6 2.058969 1_555
O57 Si10 1.645356 1_545
O57 Sn7 2.059069 1_555
O58 P5 1.560906 1_555
O58 Sn7 2.178909 1_555
O59 Si11 1.642257 1_655
O59 Sn7 2.058969 1_555
O60 Si7 1.663229 1_555
O60 Sn8 2.084920 1_555
O61 Si6 1.637308 1_455
O61 Sn8 2.049098 1_555
O62 P3 1.544082 1_565
O62 Sn8 2.136476 1_555
O63 Si4 1.637308 1_565
O63 Sn9 2.049098 1_555
O64 Si5 1.663229 1_555
O64 Sn9 2.084920 1_555
O65 P2 1.544082 1_455
O65 Sn9 2.136476 1_555
O66 P0 1.560893 1_565
O66 Sn10 2.178909 1_555
O67 Si0 1.645371 1_555
O67 Sn10 2.059069 1_555
O68 Si1 1.642260 1_555
O68 Sn10 2.058969 1_555
O69 Si2 1.645371 1_555
O69 Sn11 2.059069 1_555
O70 P1 1.560893 1_455
O70 Sn11 2.178909 1_555
O71 Si3 1.642260 1_555
O71 Sn11 2.058969 1_555
