# generated using pymatgen
data_Cs4Na2MgV2O8
_symmetry_space_group_name_H-M   'P 1'
_cell_length_a   6.59017398
_cell_length_b   6.55116523
_cell_length_c   8.48312597
_cell_angle_alpha   82.30125756
_cell_angle_beta   89.14320553
_cell_angle_gamma   81.09076851
_symmetry_Int_Tables_number   1
_chemical_formula_structural   Cs4Na2MgV2O8
_chemical_formula_sum   'Cs4 Na2 Mg1 V2 O8'
_cell_volume   358.55820444
_cell_formula_units_Z   1
loop_
 _symmetry_equiv_pos_site_id
 _symmetry_equiv_pos_as_xyz
  1  'x, y, z'
loop_
 _atom_site_type_symbol
 _atom_site_label
 _atom_site_symmetry_multiplicity
 _atom_site_fract_x
 _atom_site_fract_y
 _atom_site_fract_z
 _atom_site_occupancy
  Cs  Cs0  1  0.87830054  0.30236805  0.57164265  1
  Cs  Cs1  1  0.17596853  0.75074160  0.47786563  1
  Cs  Cs2  1  0.62308548  0.66918378  0.15410438  1
  Cs  Cs3  1  0.36506489  0.24281669  0.83078429  1
  Na  Na0  1  0.10914996  0.74293551  0.94382258  1
  Na  Na1  1  0.83787673  0.19765508  0.01715360  1
  Mg  Mg0  1  0.57151032  0.04266440  0.41942958  1
  V  V0  1  0.27034018  0.26575082  0.23288605  1
  V  V1  1  0.69195614  0.75338122  0.75487648  1
  O  O0  1  0.14484186  0.08879263  0.14699907  1
  O  O1  1  0.85925779  0.51723993  0.84369713  1
  O  O2  1  0.80039060  0.96502956  0.82739279  1
  O  O3  1  0.19175158  0.53481121  0.18278301  1
  O  O4  1  0.42879818  0.73474300  0.80218696  1
  O  O5  1  0.71533139  0.79167725  0.52771793  1
  O  O6  1  0.56437903  0.18778607  0.20512544  1
  O  O7  1  0.30324681  0.19159019  0.45997044  1
loop_
_geom_bond_atom_site_label_1
_geom_bond_atom_site_label_2
_geom_bond_distance
_geom_bond_site_symmetry_2
Cs0 O1 2.851417 1_555
Cs0 O7 2.956703 1_655
Cs0 O2 2.981284 1_545
Cs0 O5 3.192714 1_555
Cs0 Mg0 3.222071 1_555
Cs1 O3 3.028764 1_555
Cs1 O5 3.034130 1_455
Cs1 O7 3.113941 1_565
Cs1 O4 3.219060 1_555
Cs1 O0 3.322010 1_565
Cs2 O3 3.100208 1_555
Cs2 O6 3.207823 1_555
Cs2 O4 3.215071 1_554
Cs2 O1 3.232179 1_554
Cs2 O6 3.444056 1_565
Cs2 O5 3.456712 1_555
Cs2 O2 3.459551 1_554
Cs2 O3 3.718432 1_655
Cs3 O0 3.151531 1_556
Cs3 O2 3.152378 1_545
Cs3 O7 3.246119 1_555
Cs3 O4 3.290553 1_555
Cs3 O4 3.330809 1_545
Cs3 O6 3.407485 1_556
Cs3 O1 3.541327 1_455
Na0 O3 2.308069 1_556
Na0 O4 2.406362 1_555
Na0 O2 2.447627 1_455
Na0 O1 2.598496 1_455
Na1 O0 2.285509 1_655
Na1 O6 2.391244 1_555
Na1 O2 2.400135 1_544
Na1 O1 2.414161 1_554
Mg0 O5 1.893258 1_545
Mg0 O7 1.932122 1_555
Mg0 O6 1.933059 1_555
O0 V0 1.760710 1_555
O1 V1 1.833244 1_555
O2 V1 1.833074 1_555
O3 V0 1.754692 1_555
O4 V1 1.793118 1_555
O5 V1 1.916669 1_555
O6 V0 1.945070 1_555
O7 V0 1.929542 1_555
