# generated using pymatgen
data_MgFe4(O3F)2
_symmetry_space_group_name_H-M   'P 1'
_cell_length_a   5.14367709
_cell_length_b   9.74566073
_cell_length_c   3.10739337
_cell_angle_alpha   99.19865160
_cell_angle_beta   90.02697868
_cell_angle_gamma   95.56381836
_symmetry_Int_Tables_number   1
_chemical_formula_structural   MgFe4(O3F)2
_chemical_formula_sum   'Mg1 Fe4 O6 F2'
_cell_volume   153.02124507
_cell_formula_units_Z   1
loop_
 _symmetry_equiv_pos_site_id
 _symmetry_equiv_pos_as_xyz
  1  'x, y, z'
loop_
 _atom_site_type_symbol
 _atom_site_label
 _atom_site_symmetry_multiplicity
 _atom_site_fract_x
 _atom_site_fract_y
 _atom_site_fract_z
 _atom_site_occupancy
  Mg  Mg0  1  0.55417474  0.53462313  0.66999701  1
  Fe  Fe0  1  0.91370625  0.99611404  0.90287766  1
  Fe  Fe1  1  0.07510725  0.45550390  0.12947138  1
  Fe  Fe2  1  0.54126732  0.24052146  0.52256732  1
  Fe  Fe3  1  0.39013503  0.81483754  0.31239101  1
  O  O0  1  0.24395956  0.37696934  0.59029107  1
  O  O1  1  0.08529832  0.90636769  0.35745501  1
  O  O2  1  0.37672758  0.61326261  0.20953949  1
  O  O3  1  0.59514367  0.85837426  0.83435506  1
  O  O4  1  0.70067738  0.37273006  0.08973507  1
  O  O5  1  0.79266914  0.10934492  0.45963810  1
  F  F0  1  0.33157663  0.14505351  0.97496447  1
  F  F1  1  0.92733612  0.58343954  0.69671634  1
loop_
_geom_bond_atom_site_label_1
_geom_bond_atom_site_label_2
_geom_bond_distance
_geom_bond_site_symmetry_2
Mg0 O2 1.988138 1_555
Mg0 O2 1.989372 1_556
Mg0 O0 2.090611 1_555
Mg0 O4 2.372894 1_555
Mg0 O4 2.376108 1_556
Fe0 O3 2.003499 1_555
Fe0 O1 2.020598 1_656
Fe0 O1 2.023278 1_655
Fe0 O5 2.029948 1_565
Fe0 O5 2.030354 1_566
Fe1 O0 1.966603 1_554
Fe1 O0 1.966908 1_555
Fe1 O4 2.010454 1_455
Fe1 O2 2.060938 1_555
Fe2 O5 1.893570 1_555
Fe2 O0 2.111011 1_555
Fe2 O4 2.119353 1_555
Fe2 O4 2.122810 1_556
Fe3 O1 1.872262 1_555
Fe3 O3 1.901135 1_555
Fe3 O3 1.901253 1_554
Fe3 O2 1.933665 1_555
F0 Fe2 2.054749 1_556
F0 Fe2 2.056742 1_555
F0 Fe0 2.463244 1_445
F1 Mg0 1.930689 1_555
F1 Fe1 2.158579 1_656
F1 Fe1 2.172928 1_655
