# generated using pymatgen
data_BPt
_symmetry_space_group_name_H-M   'P 1'
_cell_length_a   3.73415748
_cell_length_b   3.73415748
_cell_length_c   3.64869285
_cell_angle_alpha   90.00000000
_cell_angle_beta   90.00000000
_cell_angle_gamma   119.99998516
_symmetry_Int_Tables_number   1
_chemical_formula_structural   BPt
_chemical_formula_sum   'B2 Pt2'
_cell_volume   44.06088963
_cell_formula_units_Z   2
loop_
 _symmetry_equiv_pos_site_id
 _symmetry_equiv_pos_as_xyz
  1  'x, y, z'
loop_
 _atom_site_type_symbol
 _atom_site_label
 _atom_site_symmetry_multiplicity
 _atom_site_fract_x
 _atom_site_fract_y
 _atom_site_fract_z
 _atom_site_occupancy
  B  B0  1  0.00000000  -0.00000000  0.00000000  1
  B  B1  1  0.00000000  -0.00000000  0.50000000  1
  Pt  Pt0  1  0.33333300  0.66666700  0.25000000  1
  Pt  Pt1  1  0.66666700  0.33333300  0.75000000  1
loop_
_geom_bond_atom_site_label_1
_geom_bond_atom_site_label_2
_geom_bond_distance
_geom_bond_site_symmetry_2
B0 B1 1.824346 1_554
B0 B1 1.824346 1_555
B0 Pt1 2.340946 1_454
B0 Pt0 2.340946 1_545
B0 Pt0 2.340949 1_555
B0 Pt1 2.340949 1_554
B0 Pt0 2.340949 1_445
B0 Pt1 2.340949 1_444
B1 Pt1 2.340946 1_455
B1 Pt0 2.340946 1_545
B1 Pt0 2.340949 1_555
B1 Pt0 2.340949 1_445
B1 Pt1 2.340949 1_555
B1 Pt1 2.340949 1_445
