# generated using pymatgen
data_Ba2LaMgCu3O7
_symmetry_space_group_name_H-M   'P 1'
_cell_length_a   3.79504055
_cell_length_b   4.00857842
_cell_length_c   14.63409685
_cell_angle_alpha   90.00000000
_cell_angle_beta   90.00000000
_cell_angle_gamma   90.00000000
_symmetry_Int_Tables_number   1
_chemical_formula_structural   Ba2LaMgCu3O7
_chemical_formula_sum   'Ba2 La1 Mg1 Cu3 O7'
_cell_volume   222.62438347
_cell_formula_units_Z   1
loop_
 _symmetry_equiv_pos_site_id
 _symmetry_equiv_pos_as_xyz
  1  'x, y, z'
loop_
 _atom_site_type_symbol
 _atom_site_label
 _atom_site_symmetry_multiplicity
 _atom_site_fract_x
 _atom_site_fract_y
 _atom_site_fract_z
 _atom_site_occupancy
  Ba  Ba0  1  0.50000000  0.50000000  0.08332292  1
  Ba  Ba1  1  0.50000000  0.50000000  0.78133836  1
  La  La0  1  0.50000000  0.50000000  0.52104479  1
  Mg  Mg0  1  0.50000000  0.00000000  0.27140299  1
  Cu  Cu0  1  0.00000000  0.00000000  0.93591781  1
  Cu  Cu1  1  0.00000000  0.00000000  0.40916393  1
  Cu  Cu2  1  0.00000000  0.00000000  0.64555932  1
  O  O0  1  0.50000000  0.00000000  0.40385603  1
  O  O1  1  0.50000000  0.00000000  0.62102467  1
  O  O2  1  0.00000000  0.50000000  0.41743885  1
  O  O3  1  0.00000000  0.50000000  0.63460958  1
  O  O4  1  0.00000000  0.00000000  0.20504790  1
  O  O5  1  0.00000000  0.00000000  0.80417855  1
  O  O6  1  0.00000000  0.50000000  0.97165030  1
loop_
_geom_bond_atom_site_label_1
_geom_bond_atom_site_label_2
_geom_bond_distance
_geom_bond_site_symmetry_2
Ba0 O6 2.504253 1_654
Ba0 O6 2.504253 1_554
Ba1 O5 2.780194 1_665
Ba1 O5 2.780194 1_555
Ba1 O5 2.780194 1_565
Ba1 O5 2.780194 1_655
Ba1 O3 2.865526 1_655
Ba1 O3 2.865526 1_555
Ba1 O1 3.085629 1_555
Ba1 O1 3.085629 1_565
Ba1 O6 3.370022 1_655
Ba1 O6 3.370022 1_555
La0 O2 2.428865 1_655
La0 O2 2.428865 1_555
La0 O1 2.481508 1_565
La0 O1 2.481508 1_555
La0 O3 2.522411 1_655
La0 O3 2.522411 1_555
La0 O0 2.637847 1_565
La0 O0 2.637847 1_555
Mg0 O0 1.938331 1_555
Mg0 O4 2.131552 1_655
Mg0 O4 2.131552 1_555
Cu0 O5 1.927885 1_555
Cu0 O6 2.071379 1_545
Cu0 O6 2.071379 1_555
Cu1 O0 1.899109 1_455
Cu1 O0 1.899109 1_555
Cu1 O2 2.007944 1_555
Cu1 O2 2.007944 1_545
Cu2 O1 1.931190 1_555
Cu2 O1 1.931190 1_455
Cu2 O3 2.010684 1_555
Cu2 O3 2.010684 1_545
Cu2 O5 2.321249 1_555
