# generated using pymatgen
data_Na10Sc7Ta(PO4)12
_symmetry_space_group_name_H-M   'P 1'
_cell_length_a   17.94140394
_cell_length_b   8.98027684
_cell_length_c   22.59959087
_cell_angle_alpha   90.00157433
_cell_angle_beta   89.97884700
_cell_angle_gamma   120.10609128
_symmetry_Int_Tables_number   1
_chemical_formula_structural   Na10Sc7Ta(PO4)12
_chemical_formula_sum   'Na30 Sc21 Ta3 P36 O144'
_cell_volume   3150.01082884
_cell_formula_units_Z   3
loop_
 _symmetry_equiv_pos_site_id
 _symmetry_equiv_pos_as_xyz
  1  'x, y, z'
loop_
 _atom_site_type_symbol
 _atom_site_label
 _atom_site_symmetry_multiplicity
 _atom_site_fract_x
 _atom_site_fract_y
 _atom_site_fract_z
 _atom_site_occupancy
  Na  Na0  1  0.31740529  0.00008076  0.25211615  1
  Na  Na1  1  0.68343268  0.36478901  0.25227515  1
  Na  Na2  1  0.31396144  0.62954351  0.75296102  1
  Na  Na3  1  0.81392694  0.62923291  0.75271601  1
  Na  Na4  1  0.15205728  0.33459671  0.58249218  1
  Na  Na5  1  0.65199814  0.33393495  0.58246924  1
  Na  Na6  1  0.01410848  0.69599857  0.58295597  1
  Na  Na7  1  0.51489558  0.69659214  0.58270398  1
  Na  Na8  1  0.33275923  0.96879554  0.58249901  1
  Na  Na9  1  0.83314458  0.97040795  0.58214950  1
  Na  Na10  1  0.15223677  0.97041780  0.08246654  1
  Na  Na11  1  0.65258650  0.97184051  0.08314359  1
  Na  Na12  1  0.33293984  0.69572475  0.08300096  1
  Na  Na13  1  0.83300975  0.69537945  0.08275126  1
  Na  Na14  1  0.01430752  0.33361860  0.08239039  1
  Na  Na15  1  0.51464325  0.33317029  0.08316317  1
  Na  Na16  1  0.66718482  0.03218086  0.41388540  1
  Na  Na17  1  0.34803557  0.66521935  0.41327021  1
  Na  Na18  1  0.00002542  0.99902765  0.49787080  1
  Na  Na19  1  0.49943539  0.01477648  0.49484795  1
  Na  Na20  1  0.99994324  0.99978109  0.99959205  1
  Na  Na21  1  0.50001571  0.99990675  -0.00002635  1
  Na  Na22  1  0.33391400  0.32037514  0.83722023  1
  Na  Na23  1  0.83387635  0.32040510  0.83722339  1
  Na  Na24  1  0.33500283  0.33530203  0.33253774  1
  Na  Na25  1  0.84589885  0.34490876  0.33306633  1
  Na  Na26  1  0.16081637  0.65095869  0.17197566  1
  Na  Na27  1  0.66567803  0.68108262  0.17187960  1
  Na  Na28  1  0.15973487  0.66735321  0.67267598  1
  Na  Na29  1  0.65979262  0.66735468  0.67268792  1
  Sc  Sc0  1  0.49946554  0.00487077  0.35043612  1
  Sc  Sc1  1  0.00158451  0.00287983  0.65113047  1
  Sc  Sc2  1  0.50155248  0.00215336  0.65053005  1
  Sc  Sc3  1  0.99985348  0.99936668  0.15107207  1
  Sc  Sc4  1  0.50033545  0.99772052  0.15160542  1
  Sc  Sc5  1  0.33366958  0.32637610  0.68959410  1
  Sc  Sc6  1  0.83361833  0.32624172  0.68967296  1
  Sc  Sc7  1  0.33264646  0.34165017  0.18692156  1
  Sc  Sc8  1  0.83754443  0.33088688  0.18831420  1
  Sc  Sc9  1  0.33325856  0.33389555  0.97852952  1
  Sc  Sc10  1  0.83317478  0.33423156  0.97862208  1
  Sc  Sc11  1  0.33252367  0.32444150  0.47949211  1
  Sc  Sc12  1  0.83687169  0.34184573  0.47913343  1
  Sc  Sc13  1  0.16671109  0.66739917  0.01214647  1
  Sc  Sc14  1  0.66659375  0.66637754  0.01229774  1
  Sc  Sc15  1  0.16325520  0.66398663  0.51344405  1
  Sc  Sc16  1  0.66858145  0.66516672  0.51371527  1
  Sc  Sc17  1  0.16369569  0.66095129  0.31501876  1
  Sc  Sc18  1  0.66467471  0.66881112  0.31570137  1
  Sc  Sc19  1  0.16349738  0.66729342  0.81667858  1
  Sc  Sc20  1  0.66350651  0.66734287  0.81670088  1
  Ta  Ta0  1  0.00024098  0.99884394  0.35114096  1
  Ta  Ta1  1  0.00129926  0.00271750  0.85327163  1
  Ta  Ta2  1  0.50128493  0.00266998  0.85323688  1
  P  P0  1  0.14719329  0.99909599  0.24929808  1
  P  P1  1  0.64924909  0.00072332  0.25021648  1
  P  P2  1  0.35075797  0.70313906  0.25131151  1
  P  P3  1  0.85255966  0.70469630  0.24963128  1
  P  P4  1  0.00029400  0.29202707  0.24951830  1
  P  P5  1  0.49970571  0.29727241  0.24808140  1
  P  P6  1  0.14716490  0.29519418  0.74970884  1
  P  P7  1  0.64705878  0.29491715  0.74963358  1
  P  P8  1  0.00074524  0.70865033  0.74938087  1
  P  P9  1  0.50074981  0.70877989  0.74932569  1
  P  P10  1  0.35402739  0.99954638  0.75021522  1
  P  P11  1  0.85389925  0.99934441  0.75029787  1
  P  P12  1  0.48034542  0.33442631  0.58399054  1
  P  P13  1  0.97960028  0.33380301  0.58369401  1
  P  P14  1  0.18665956  0.03890827  0.58379787  1
  P  P15  1  0.68721597  0.03981327  0.58181698  1
  P  P16  1  0.33249530  0.62629572  0.58361919  1
  P  P17  1  0.83318285  0.62703900  0.58606232  1
  P  P18  1  0.48025283  0.62603873  0.08245266  1
  P  P19  1  0.98050086  0.62614246  0.08288613  1
  P  P20  1  0.33239924  0.03875765  0.08467520  1
  P  P21  1  0.83308491  0.03955743  0.08247276  1
  P  P22  1  0.18613608  0.33410660  0.08212128  1
  P  P23  1  0.68746219  0.33526032  0.08492016  1
  P  P24  1  0.31596478  0.66801530  0.91416033  1
  P  P25  1  0.81596836  0.66808782  0.91416626  1
  P  P26  1  0.01809696  0.36828195  0.91645644  1
  P  P27  1  0.51812267  0.36810159  0.91644318  1
  P  P28  1  0.16611866  0.96367465  0.91619018  1
  P  P29  1  0.66611898  0.96362722  0.91626241  1
  P  P30  1  0.31430882  0.96128991  0.41557424  1
  P  P31  1  0.81668107  0.96374741  0.41684600  1
  P  P32  1  0.16488745  0.36772708  0.41693925  1
  P  P33  1  0.66708071  0.36804338  0.41588975  1
  P  P34  1  0.01873747  0.67069688  0.41611447  1
  P  P35  1  0.51784431  0.66689658  0.41791209  1
  O  O0  1  0.09355517  0.01022822  0.30262174  1
  O  O1  1  0.60457418  0.02391809  0.30526880  1
  O  O2  1  0.40385590  0.79161462  0.30735599  1
  O  O3  1  0.91195343  0.81251658  0.30292612  1
  O  O4  1  0.48684114  0.17823738  0.30100496  1
  O  O5  1  0.99499235  0.17278719  0.30261409  1
  O  O6  1  0.09433299  0.17701064  0.80270480  1
  O  O7  1  0.59423787  0.17699049  0.80273676  1
  O  O8  1  0.49294646  0.81518452  0.80188275  1
  O  O9  1  0.99302075  0.81533902  0.80188650  1
  O  O10  1  0.41336772  0.01249993  0.80327561  1
  O  O11  1  0.91337472  0.01271890  0.80327780  1
  O  O12  1  0.39443780  0.97557163  0.69294336  1
  O  O13  1  0.89423187  0.97557614  0.69297340  1
  O  O14  1  0.09757701  0.21502015  0.69182399  1
  O  O15  1  0.59741732  0.21453874  0.69180523  1
  O  O16  1  0.00987273  0.80790370  0.69134686  1
  O  O17  1  0.50993381  0.80792134  0.69125911  1
  O  O18  1  0.39500723  0.81444962  0.19517708  1
  O  O19  1  0.89321372  0.80518471  0.19215783  1
  O  O20  1  0.00921593  0.21143908  0.19152687  1
  O  O21  1  0.51255157  0.21554358  0.19086961  1
  O  O22  1  0.09732669  0.98182609  0.19184443  1
  O  O23  1  0.59632523  0.98158489  0.19320612  1
  O  O24  1  0.43808358  0.36396224  0.63897298  1
  O  O25  1  0.93758895  0.36336398  0.63877973  1
  O  O26  1  0.24403976  0.12372490  0.63862480  1
  O  O27  1  0.74605393  0.13044933  0.63561056  1
  O  O28  1  0.31940252  0.51563481  0.63968425  1
  O  O29  1  0.81952173  0.52003142  0.64304341  1
  O  O30  1  0.43829757  0.51278961  0.13752684  1
  O  O31  1  0.93896600  0.51261860  0.13812810  1
  O  O32  1  0.31751958  0.11537688  0.14203573  1
  O  O33  1  0.81829961  0.12288251  0.13772772  1
  O  O34  1  0.24271107  0.36383180  0.13729367  1
  O  O35  1  0.74084122  0.36402690  0.14212098  1
  O  O36  1  0.22843467  0.30355788  0.02795333  1
  O  O37  1  0.73210885  0.30602372  0.03180759  1
  O  O38  1  0.42278155  0.54262942  0.02813892  1
  O  O39  1  0.92280682  0.54239504  0.02862382  1
  O  O40  1  0.34725208  0.15827583  0.03186282  1
  O  O41  1  0.84873058  0.15487658  0.02827734  1
  O  O42  1  0.22831746  0.15313119  0.52919936  1
  O  O43  1  0.72659617  0.14631601  0.52500371  1
  O  O44  1  0.34597909  0.54181026  0.52823927  1
  O  O45  1  0.84734111  0.53749623  0.53273349  1
  O  O46  1  0.42280004  0.30280118  0.52952333  1
  O  O47  1  0.92285260  0.30344996  0.52898819  1
  O  O48  1  0.27723537  0.69963608  0.97094322  1
  O  O49  1  0.77729701  0.69965020  0.97098214  1
  O  O50  1  0.07011073  0.43955422  0.97447955  1
  O  O51  1  0.57011557  0.43933917  0.97451152  1
  O  O52  1  0.14914828  0.85946653  0.97426222  1
  O  O53  1  0.64922469  0.85907083  0.97424071  1
  O  O54  1  0.26963630  0.84849481  0.47164391  1
  O  O55  1  0.78191558  0.86183587  0.47555032  1
  O  O56  1  0.14777463  0.43729373  0.47530679  1
  O  O57  1  0.65830449  0.45476990  0.47312992  1
  O  O58  1  0.06899483  0.70241082  0.47499214  1
  O  O59  1  0.57181673  0.69168280  0.47504047  1
  O  O60  1  0.06659323  0.65098071  0.36379890  1
  O  O61  1  0.56493208  0.64750716  0.36437502  1
  O  O62  1  0.26165033  0.87190044  0.35969439  1
  O  O63  1  0.75546323  0.86822893  0.36543078  1
  O  O64  1  0.17899541  0.48919420  0.36540233  1
  O  O65  1  0.67535206  0.47459172  0.36024988  1
  O  O66  1  0.06615579  0.48204266  0.86369328  1
  O  O67  1  0.56593411  0.48214063  0.86372606  1
  O  O68  1  0.17560585  0.86856611  0.86347377  1
  O  O69  1  0.67577482  0.86893693  0.86346374  1
  O  O70  1  0.26253024  0.65047846  0.85898049  1
  O  O71  1  0.76248377  0.65035175  0.85898911  1
  O  O72  1  0.00965789  0.83537329  0.40647070  1
  O  O73  1  0.51097515  0.83243265  0.41320059  1
  O  O74  1  0.40287756  0.97007868  0.41334336  1
  O  O75  1  0.90787078  0.98404791  0.40624511  1
  O  O76  1  0.08435946  0.18468681  0.40643000  1
  O  O77  1  0.58669879  0.18478185  0.41326605  1
  O  O78  1  0.01013019  0.18569420  0.90684483  1
  O  O79  1  0.51014470  0.18563604  0.90688039  1
  O  O80  1  0.08310252  0.98040707  0.90629949  1
  O  O81  1  0.58306799  0.98027101  0.90627425  1
  O  O82  1  0.40804692  0.83525435  0.90648276  1
  O  O83  1  0.90808124  0.83510322  0.90645118  1
  O  O84  1  0.49082475  0.17287578  0.58916466  1
  O  O85  1  0.99078100  0.17304014  0.58891616  1
  O  O86  1  0.09526616  0.01805123  0.58885371  1
  O  O87  1  0.59611446  0.01970462  0.58814164  1
  O  O88  1  0.41349107  0.80990742  0.58827547  1
  O  O89  1  0.91408400  0.81089691  0.58892900  1
  O  O90  1  0.49098699  0.80931476  0.08836504  1
  O  O91  1  0.99126489  0.80921706  0.08860371  1
  O  O92  1  0.41335223  0.01654569  0.08870598  1
  O  O93  1  0.91357286  0.01692131  0.08817357  1
  O  O94  1  0.09452853  0.17242541  0.08797416  1
  O  O95  1  0.59535355  0.17269787  0.08854305  1
  O  O96  1  0.34843657  0.16409636  0.75003235  1
  O  O97  1  0.84821387  0.16380688  0.74993191  1
  O  O98  1  0.23694621  0.31036578  0.74994088  1
  O  O99  1  0.73674535  0.30947332  0.75001464  1
  O  O100  1  0.41419209  0.53585627  0.74968921  1
  O  O101  1  0.91435681  0.53556824  0.74984017  1
  O  O102  1  0.34089883  0.52338094  0.24684826  1
  O  O103  1  0.84602334  0.52703627  0.25058908  1
  O  O104  1  0.41682305  0.30840778  0.24446608  1
  O  O105  1  0.91671265  0.29926031  0.25110510  1
  O  O106  1  0.23698888  0.16232198  0.25061470  1
  O  O107  1  0.73719821  0.17045566  0.24611292  1
  O  O108  1  0.32923340  0.51318269  0.91941631  1
  O  O109  1  0.82913742  0.51314680  0.91949593  1
  O  O110  1  0.42690028  0.33977466  0.92035050  1
  O  O111  1  0.92700047  0.34060174  0.92014471  1
  O  O112  1  0.24369644  0.14561648  0.92017229  1
  O  O113  1  0.74330986  0.14600528  0.92038674  1
  O  O114  1  0.32466994  0.14128579  0.42039054  1
  O  O115  1  0.82483561  0.14240378  0.42099185  1
  O  O116  1  0.24669372  0.35327627  0.42159897  1
  O  O117  1  0.74663922  0.34348808  0.41967477  1
  O  O118  1  0.42532959  0.51142749  0.42137184  1
  O  O119  1  0.92767866  0.51437424  0.41984392  1
  O  O120  1  0.17644370  0.49662372  0.07629479  1
  O  O121  1  0.67748981  0.49721681  0.07719831  1
  O  O122  1  0.07170332  0.64652530  0.07676463  1
  O  O123  1  0.57165652  0.64729689  0.07646102  1
  O  O124  1  0.25151834  0.85616817  0.07691980  1
  O  O125  1  0.75176099  0.85688412  0.07640650  1
  O  O126  1  0.17601903  0.85636375  0.57804952  1
  O  O127  1  0.67672991  0.85696318  0.57802328  1
  O  O128  1  0.25118203  0.64626904  0.57789580  1
  O  O129  1  0.75198871  0.64633382  0.57934370  1
  O  O130  1  0.07070264  0.49648664  0.57798490  1
  O  O131  1  0.57176729  0.49585016  0.57798323  1
  O  O132  1  0.15751836  0.83997440  0.25556065  1
  O  O133  1  0.65981360  0.84146989  0.25460520  1
  O  O134  1  0.26246279  0.69521721  0.25407506  1
  O  O135  1  0.76195940  0.68139268  0.25661489  1
  O  O136  1  0.08101208  0.46860847  0.25659905  1
  O  O137  1  0.58286376  0.47385604  0.25412084  1
  O  O138  1  0.15886181  0.47660856  0.75572727  1
  O  O139  1  0.65890726  0.47645144  0.75577955  1
  O  O140  1  0.07971792  0.68860082  0.75585248  1
  O  O141  1  0.57961365  0.68837714  0.75587344  1
  O  O142  1  0.26619097  0.83304294  0.75654106  1
  O  O143  1  0.76608864  0.83298284  0.75659557  1
loop_
_geom_bond_atom_site_label_1
_geom_bond_atom_site_label_2
_geom_bond_distance
_geom_bond_site_symmetry_2
Na0 O134 2.400327 1_545
Na0 O104 2.433766 1_555
Na0 O132 2.482806 1_545
Na0 O106 2.512849 1_555
Na0 O62 2.660774 1_545
Na0 O32 2.694264 1_555
Na0 O4 2.853898 1_555
Na0 O18 2.949617 1_545
Na1 O107 2.384163 1_555
Na1 O137 2.447369 1_555
Na1 O135 2.461670 1_555
Na1 O103 2.523861 1_555
Na1 O65 2.662866 1_555
Na1 O35 2.695072 1_555
Na1 O1 2.908713 1_555
Na1 O21 3.000395 1_555
Na2 O100 2.337697 1_555
Na2 O142 2.377402 1_555
Na2 O138 2.408203 1_555
Na2 O98 2.481217 1_555
Na2 O70 2.607678 1_555
Na2 O28 2.776583 1_555
Na3 O101 2.340678 1_555
Na3 O143 2.380685 1_555
Na3 O139 2.407150 1_555
Na3 O99 2.485538 1_555
Na3 O71 2.613440 1_555
Na3 O29 2.685785 1_555
Na4 O128 2.452293 1_555
Na4 O86 2.496759 1_555
Na4 O85 2.507328 1_455
Na4 O130 2.526534 1_555
Na4 O56 2.606828 1_555
Na4 O14 2.675636 1_555
Na4 O42 2.865954 1_555
Na4 O28 2.904146 1_555
Na5 O129 2.458593 1_555
Na5 O87 2.479161 1_555
Na5 O84 2.506098 1_555
Na5 O131 2.509263 1_555
Na5 O15 2.675666 1_555
Na5 O57 2.678253 1_555
Na5 O43 2.928744 1_555
Na5 O29 2.943545 1_555
Na6 O130 2.465495 1_555
Na6 O89 2.482100 1_455
Na6 O86 2.505547 1_565
Na6 O126 2.515483 1_555
Na6 O58 2.620624 1_555
Na6 O16 2.663177 1_555
Na6 O45 2.827811 1_455
Na6 O25 2.878242 1_455
Na7 O131 2.479422 1_555
Na7 O88 2.493689 1_555
Na7 O87 2.513232 1_565
Na7 O127 2.514078 1_555
Na7 O59 2.647346 1_555
Na7 O17 2.667421 1_555
Na7 O24 2.882407 1_555
Na7 O44 2.899711 1_555
Na8 O126 2.467680 1_555
Na8 O84 2.492020 1_565
Na8 O88 2.494886 1_555
Na8 O128 2.507851 1_555
Na8 O12 2.718960 1_555
Na8 O54 2.738735 1_555
Na8 O46 2.859645 1_565
Na8 O26 2.880700 1_565
Na9 O127 2.460479 1_555
Na9 O85 2.484111 1_565
Na9 O89 2.504235 1_555
Na9 O129 2.518486 1_555
Na9 O55 2.588756 1_555
Na9 O13 2.725296 1_555
Na9 O47 2.854554 1_565
Na9 O27 2.866745 1_565
Na10 O124 2.464644 1_555
Na10 O91 2.502247 1_455
Na10 O94 2.502506 1_565
Na10 O122 2.519623 1_555
Na10 O52 2.630639 1_554
Na10 O22 2.681558 1_555
Na10 O36 2.869294 1_565
Na10 O32 2.903583 1_565
Na11 O125 2.469306 1_555
Na11 O95 2.486125 1_565
Na11 O90 2.510929 1_555
Na11 O123 2.525887 1_555
Na11 O53 2.650512 1_554
Na11 O23 2.701908 1_555
Na11 O37 2.844547 1_565
Na11 O33 2.856214 1_565
Na12 O120 2.463199 1_555
Na12 O90 2.488830 1_555
Na12 O92 2.495757 1_565
Na12 O124 2.518043 1_555
Na12 O48 2.729562 1_554
Na12 O18 2.759449 1_555
Na12 O34 2.857938 1_555
Na12 O38 2.871799 1_555
Na13 O121 2.446829 1_555
Na13 O91 2.492521 1_555
Na13 O93 2.501029 1_565
Na13 O125 2.523923 1_555
Na13 O19 2.680644 1_555
Na13 O49 2.724203 1_554
Na13 O39 2.863272 1_555
Na13 O35 2.907122 1_555
Na14 O122 2.463664 1_555
Na14 O93 2.493048 1_455
Na14 O94 2.504623 1_555
Na14 O120 2.520243 1_555
Na14 O50 2.626343 1_554
Na14 O20 2.682343 1_555
Na14 O41 2.848846 1_455
Na14 O31 2.859427 1_455
Na15 O123 2.476309 1_555
Na15 O92 2.493809 1_555
Na15 O95 2.506388 1_555
Na15 O121 2.531102 1_555
Na15 O51 2.641084 1_554
Na15 O21 2.646219 1_555
Na15 O40 2.846190 1_555
Na15 O30 2.864037 1_555
Na16 O117 2.422162 1_555
Na16 O77 2.438991 1_555
Na16 O73 2.455445 1_545
Na16 O115 2.489473 1_555
Na16 O1 2.685381 1_555
Na16 O43 2.720076 1_555
Na16 O63 2.865921 1_545
Na16 O59 2.989564 1_545
Na17 O74 2.400181 1_555
Na17 O118 2.405337 1_555
Na17 O116 2.465529 1_555
Na17 O73 2.529243 1_555
Na17 O2 2.622736 1_555
Na17 O44 2.817723 1_555
Na17 O64 2.838991 1_555
Na17 O54 2.957822 1_555
Na18 O72 2.590534 1_555
Na18 O76 2.608984 1_565
Na18 O75 2.611315 1_455
Na18 O89 2.617468 1_455
Na18 O86 2.624234 1_565
Na18 O85 2.638699 1_465
Na19 O77 2.404456 1_555
Na19 O74 2.420710 1_545
Na19 O73 2.543360 1_545
Na19 O84 2.608186 1_555
Na19 O88 2.715215 1_545
Na19 O87 2.716925 1_555
Na20 O94 2.576044 1_666
Na20 O93 2.582553 1_566
Na20 O91 2.594637 1_556
Na20 O83 2.625143 1_555
Na20 O78 2.628311 1_665
Na20 O80 2.638111 1_655
Na21 O90 2.582239 1_555
Na21 O95 2.584529 1_565
Na21 O92 2.586885 1_565
Na21 O82 2.632096 1_554
Na21 O79 2.633822 1_564
Na21 O81 2.645138 1_554
Na22 O112 2.459042 1_555
Na22 O110 2.460460 1_555
Na22 O96 2.507254 1_555
Na22 O108 2.569294 1_555
Na22 O98 2.602130 1_555
Na22 O100 2.633290 1_555
Na23 O111 2.456525 1_555
Na23 O113 2.463817 1_555
Na23 O97 2.509575 1_555
Na23 O109 2.570523 1_555
Na23 O99 2.600346 1_555
Na23 O101 2.630119 1_555
Na24 O106 2.488980 1_555
Na24 O102 2.536714 1_555
Na24 O104 2.555071 1_555
Na24 O118 2.566955 1_555
Na24 O114 2.586095 1_555
Na24 O116 2.615662 1_555
Na25 O105 2.394558 1_555
Na25 O119 2.465110 1_555
Na25 O103 2.479085 1_555
Na25 O115 2.590103 1_555
Na25 O117 2.641464 1_555
Na25 O107 2.656502 1_555
Na26 O136 2.456645 1_555
Na26 O134 2.490309 1_555
Na26 O132 2.559977 1_555
Na26 O120 2.657913 1_555
Na26 O122 2.669534 1_555
Na26 O124 2.765542 1_555
Na27 O133 2.394287 1_555
Na27 O137 2.519821 1_555
Na27 O135 2.578522 1_555
Na27 O123 2.660256 1_555
Na27 O125 2.661738 1_555
Na27 O121 2.774947 1_555
Na28 O140 2.429748 1_555
Na28 O138 2.535842 1_555
Na28 O142 2.570149 1_555
Na28 O130 2.651226 1_555
Na28 O126 2.653662 1_555
Na28 O128 2.761319 1_555
Na29 O141 2.430980 1_555
Na29 O139 2.537401 1_555
Na29 O143 2.569445 1_555
Na29 O131 2.647498 1_555
Na29 O127 2.655042 1_555
Na29 O129 2.744557 1_555
O0 P0 1.576071 1_545
O0 Ta0 1.960266 1_545
O1 P1 1.549359 1_555
O1 Sc0 2.074231 1_555
O2 P2 1.544201 1_555
O2 Sc0 2.064820 1_565
O3 P3 1.577819 1_555
O3 Ta0 1.959188 1_655
O4 P5 1.542352 1_555
O4 Sc0 2.019205 1_555
O5 P4 1.579033 1_655
O5 Ta0 1.949193 1_645
O6 P6 1.565035 1_555
O6 Ta1 1.979812 1_555
O7 P7 1.565976 1_555
O7 Ta2 1.978386 1_555
O8 P9 1.574001 1_555
O8 Ta2 1.987816 1_565
O9 P8 1.574232 1_655
O9 Ta1 1.987824 1_665
O10 P10 1.568963 1_545
O10 Ta2 1.977811 1_555
O11 P11 1.568126 1_545
O11 Ta1 1.979024 1_655
O12 P10 1.550213 1_555
O12 Sc2 2.051206 1_565
O13 P11 1.549767 1_555
O13 Sc1 2.046688 1_665
O14 P6 1.542538 1_555
O14 Sc1 2.037341 1_555
O15 P7 1.542111 1_555
O15 Sc2 2.043578 1_555
O16 P8 1.547546 1_555
O16 Sc1 2.043366 1_565
O17 P9 1.547459 1_555
O17 Sc2 2.043432 1_565
O18 P2 1.562708 1_555
O18 Sc4 2.031760 1_555
O19 P3 1.540287 1_555
O19 Sc3 2.053125 1_555
O20 P4 1.543698 1_555
O20 Sc3 2.042102 1_445
O21 P5 1.559800 1_555
O21 Sc4 2.057122 1_545
O22 P0 1.540151 1_555
O22 Sc3 2.051764 1_455
O23 P1 1.558307 1_565
O23 Sc4 2.030367 1_555
O24 P12 1.546069 1_555
O24 Sc5 2.072723 1_555
O25 P13 1.545456 1_555
O25 Sc6 2.070807 1_555
O26 P14 1.545805 1_555
O26 Sc5 2.071245 1_555
O27 P15 1.547170 1_555
O27 Sc6 2.069435 1_555
O28 P16 1.553648 1_555
O28 Sc5 2.159435 1_555
O29 P17 1.550923 1_555
O29 Sc6 2.155207 1_555
O30 P18 1.543200 1_555
O30 Sc7 2.068127 1_555
O31 P19 1.546125 1_555
O31 Sc8 2.068891 1_555
O32 P20 1.552136 1_555
O32 Sc7 2.162989 1_555
O33 P21 1.545471 1_555
O33 Sc8 2.066044 1_555
O34 P22 1.544455 1_555
O34 Sc7 2.055479 1_555
O35 P23 1.551685 1_555
O35 Sc8 2.169780 1_555
O36 P22 1.535558 1_555
O36 Sc9 2.084047 1_554
O37 P23 1.536751 1_555
O37 Sc10 2.081932 1_554
O38 P18 1.535252 1_555
O38 Sc9 2.081174 1_554
O39 P19 1.536493 1_555
O39 Sc10 2.083975 1_554
O40 P20 1.536371 1_555
O40 Sc9 2.097772 1_554
O41 P21 1.536088 1_555
O41 Sc10 2.093493 1_554
O42 P14 1.537394 1_555
O42 Sc11 2.058443 1_555
O43 P15 1.544011 1_555
O43 Sc12 2.141425 1_555
O44 P16 1.544157 1_555
O44 Sc11 2.147022 1_555
O45 P17 1.538928 1_555
O45 Sc12 2.063644 1_555
O46 P12 1.539015 1_555
O46 Sc11 2.063185 1_555
O47 P13 1.536849 1_555
O47 Sc12 2.074348 1_555
O48 P24 1.551617 1_555
O48 Sc13 2.075038 1_556
O49 P25 1.551459 1_555
O49 Sc14 2.075877 1_556
O50 P26 1.549734 1_555
O50 Sc13 2.087683 1_556
O51 P27 1.550417 1_555
O51 Sc14 2.083966 1_556
O52 P28 1.550739 1_555
O52 Sc13 2.086343 1_556
O53 P29 1.550678 1_555
O53 Sc14 2.091055 1_556
O54 P30 1.568105 1_555
O54 Sc15 2.026531 1_555
O55 P31 1.553554 1_555
O55 Sc16 2.096150 1_555
O56 P32 1.554545 1_555
O56 Sc15 2.096945 1_555
O57 P33 1.558075 1_555
O57 Sc16 2.023790 1_555
O58 P34 1.551747 1_555
O58 Sc15 2.078649 1_555
O59 P35 1.561662 1_555
O59 Sc16 2.061680 1_555
O60 P34 1.522546 1_555
O60 Sc17 2.024976 1_555
O61 P35 1.534518 1_555
O61 Sc18 2.025858 1_555
O62 P30 1.540062 1_555
O62 Sc17 2.087570 1_555
O63 P31 1.532326 1_555
O63 Sc18 2.048956 1_555
O64 P32 1.527532 1_555
O64 Sc17 2.043533 1_555
O65 P33 1.541487 1_555
O65 Sc18 2.104226 1_555
O66 P26 1.524673 1_555
O66 Sc19 2.007636 1_555
O67 P27 1.523821 1_555
O67 Sc20 2.009474 1_555
O68 P28 1.524291 1_555
O68 Sc19 2.009665 1_555
O69 P29 1.524621 1_555
O69 Sc20 2.010738 1_555
O70 P24 1.532453 1_555
O70 Sc19 2.089055 1_555
O71 P25 1.532542 1_555
O71 Sc20 2.088818 1_555
O72 P34 1.582000 1_555
O72 Ta0 1.999063 1_555
O73 P35 1.555699 1_555
O73 Sc0 2.184894 1_565
O74 P30 1.551762 1_555
O74 Sc0 2.139356 1_565
O75 P31 1.570941 1_555
O75 Ta0 2.023008 1_655
O76 P32 1.569549 1_555
O76 Ta0 2.024532 1_545
O77 P33 1.552686 1_555
O77 Sc0 2.130916 1_555
O78 P26 1.587790 1_555
O78 Ta1 1.982391 1_555
O79 P27 1.586469 1_555
O79 Ta2 1.983113 1_555
O80 P28 1.586096 1_555
O80 Ta1 1.981583 1_565
O81 P29 1.586576 1_555
O81 Ta2 1.981802 1_565
O82 P24 1.589248 1_555
O82 Ta2 1.995555 1_565
O83 P25 1.588803 1_555
O83 Ta1 1.995082 1_665
O84 P12 1.558017 1_555
O84 Sc2 2.146438 1_555
O85 P13 1.558519 1_555
O85 Sc1 2.155682 1_655
O86 P14 1.558394 1_555
O86 Sc1 2.143123 1_555
O87 P15 1.558306 1_555
O87 Sc2 2.149688 1_555
O88 P16 1.561384 1_555
O88 Sc2 2.172860 1_565
O89 P17 1.559794 1_555
O89 Sc1 2.167771 1_665
O90 P18 1.563921 1_555
O90 Sc4 2.156100 1_555
O91 P19 1.561542 1_555
O91 Sc3 2.160730 1_555
O92 P20 1.564711 1_555
O92 Sc4 2.179690 1_545
O93 P21 1.561370 1_555
O93 Sc3 2.165226 1_545
O94 P22 1.559738 1_555
O94 Sc3 2.164258 1_445
O95 P23 1.564771 1_555
O95 Sc4 2.171970 1_545
O96 P10 1.530486 1_545
O96 Sc5 2.108865 1_555
O97 P11 1.530652 1_545
O97 Sc6 2.105840 1_555
O98 P6 1.546969 1_555
O98 Sc5 2.154081 1_555
O99 P7 1.547698 1_555
O99 Sc6 2.153792 1_555
O100 P9 1.550463 1_555
O100 Sc5 2.178386 1_555
O101 P8 1.549674 1_655
O101 Sc6 2.179567 1_555
O102 P2 1.536522 1_555
O102 Sc7 2.068120 1_555
O103 P3 1.540110 1_555
O103 Sc8 2.199518 1_555
O104 P5 1.541819 1_555
O104 Sc7 2.124848 1_555
O105 P4 1.533586 1_655
O105 Sc8 2.125579 1_555
O106 P0 1.541414 1_545
O106 Sc7 2.199198 1_555
O107 P1 1.552038 1_555
O107 Sc8 2.102241 1_555
O108 P24 1.528463 1_555
O108 Sc9 2.121091 1_555
O109 P25 1.528463 1_555
O109 Sc10 2.118775 1_555
O110 P27 1.527540 1_555
O110 Sc9 2.112711 1_555
O111 P26 1.527195 1_655
O111 Sc10 2.117847 1_555
O112 P28 1.527615 1_545
O112 Sc9 2.110932 1_555
O113 P29 1.527638 1_545
O113 Sc10 2.110975 1_555
O114 P30 1.535499 1_545
O114 Sc11 2.068022 1_555
O115 P31 1.539075 1_545
O115 Sc12 2.143147 1_555
O116 P32 1.540560 1_555
O116 Sc11 2.133476 1_555
O117 P33 1.552175 1_555
O117 Sc12 2.110035 1_555
O118 P35 1.544515 1_555
O118 Sc11 2.123905 1_555
O119 P34 1.531655 1_655
O119 Sc12 2.077591 1_555
O120 P22 1.559551 1_555
O120 Sc13 2.180165 1_555
O121 P23 1.561691 1_555
O121 Sc14 2.189853 1_555
O122 P19 1.558680 1_455
O122 Sc13 2.179664 1_555
O123 P18 1.558799 1_555
O123 Sc14 2.176854 1_555
O124 P20 1.561484 1_565
O124 Sc13 2.178439 1_555
O125 P21 1.561312 1_565
O125 Sc14 2.177104 1_555
O126 P14 1.557780 1_565
O126 Sc15 2.184497 1_555
O127 P15 1.558571 1_565
O127 Sc16 2.201721 1_555
O128 P16 1.562008 1_555
O128 Sc15 2.211123 1_555
O129 P17 1.558380 1_555
O129 Sc16 2.173317 1_555
O130 P13 1.557848 1_455
O130 Sc15 2.154071 1_555
O131 P12 1.557153 1_555
O131 Sc16 2.187991 1_555
O132 P0 1.536831 1_555
O132 Sc17 2.140443 1_555
O133 P1 1.537214 1_565
O133 Sc18 2.110466 1_555
O134 P2 1.550912 1_555
O134 Sc17 2.140771 1_555
O135 P3 1.539315 1_555
O135 Sc18 2.154721 1_555
O136 P4 1.527678 1_555
O136 Sc17 2.087587 1_555
O137 P5 1.544638 1_555
O137 Sc18 2.140039 1_555
O138 P6 1.540680 1_555
O138 Sc19 2.166508 1_555
O139 P7 1.540932 1_555
O139 Sc20 2.167742 1_555
O140 P8 1.522315 1_555
O140 Sc19 2.115588 1_555
O141 P9 1.522407 1_555
O141 Sc20 2.116052 1_555
O142 P10 1.541301 1_555
O142 Sc19 2.168953 1_555
O143 P11 1.540412 1_555
O143 Sc20 2.167231 1_555
