# generated using pymatgen
data_Ba2MgCu(PO4)2
_symmetry_space_group_name_H-M   'P 1'
_cell_length_a   5.89685255
_cell_length_b   9.40904546
_cell_length_c   6.76242110
_cell_angle_alpha   109.81647432
_cell_angle_beta   84.95977276
_cell_angle_gamma   127.84969708
_symmetry_Int_Tables_number   1
_chemical_formula_structural   Ba2MgCu(PO4)2
_chemical_formula_sum   'Ba2 Mg1 Cu1 P2 O8'
_cell_volume   275.05571522
_cell_formula_units_Z   1
loop_
 _symmetry_equiv_pos_site_id
 _symmetry_equiv_pos_as_xyz
  1  'x, y, z'
loop_
 _atom_site_type_symbol
 _atom_site_label
 _atom_site_symmetry_multiplicity
 _atom_site_fract_x
 _atom_site_fract_y
 _atom_site_fract_z
 _atom_site_occupancy
  Ba  Ba0  1  0.83854916  0.60505764  0.78675493  1
  Ba  Ba1  1  0.16144961  0.39494029  0.21324469  1
  Mg  Mg0  1  -0.00000200  0.00000722  0.50000386  1
  Cu  Cu0  1  0.49999910  0.99999815  0.49999512  1
  P  P0  1  0.90663921  0.67156796  0.30786522  1
  P  P1  1  0.09336023  0.32842763  0.69213333  1
  O  O0  1  0.25658672  0.28623095  0.51246328  1
  O  O1  1  0.15342351  0.69304246  0.41952847  1
  O  O2  1  0.74341255  0.71376900  0.48753747  1
  O  O3  1  0.84657443  0.30695600  0.58047313  1
  O  O4  1  0.70045260  0.47117664  0.13197043  1
  O  O5  1  0.96491799  0.16362723  0.78305451  1
  O  O6  1  0.03508712  0.83637368  0.21694668  1
  O  O7  1  0.29954878  0.52882515  0.86803088  1
loop_
_geom_bond_atom_site_label_1
_geom_bond_atom_site_label_2
_geom_bond_distance
_geom_bond_site_symmetry_2
Ba0 O3 2.704403 1_555
Ba0 O6 2.783386 1_656
Ba0 O2 2.786080 1_555
Ba0 O7 2.842789 1_555
Ba0 O4 2.846190 1_556
Ba0 O0 2.988107 1_555
Ba0 O1 2.999543 1_655
Ba0 O7 3.336046 1_655
Ba1 O1 2.704413 1_555
Ba1 O5 2.783372 1_454
Ba1 O0 2.786074 1_555
Ba1 O4 2.842788 1_555
Ba1 O7 2.846198 1_554
Ba1 O2 2.988113 1_555
Ba1 O3 2.999556 1_455
Ba1 O4 3.336056 1_455
Mg0 O5 2.097608 1_455
Mg0 O6 2.097723 1_545
Mg0 O0 2.101714 1_555
Mg0 O2 2.101812 1_445
Cu0 O1 2.168092 1_555
Cu0 O3 2.168096 1_565
O0 P1 1.580104 1_555
O1 P0 1.567665 1_455
O2 P0 1.580129 1_555
O3 P1 1.567678 1_655
O4 P0 1.538970 1_555
O5 P1 1.574622 1_655
O6 P0 1.574646 1_455
O7 P1 1.539007 1_555
