# generated using pymatgen
data_Ba2MgMnWO6
_symmetry_space_group_name_H-M   'P 1'
_cell_length_a   6.19186982
_cell_length_b   6.19370579
_cell_length_c   6.94955364
_cell_angle_alpha   63.77511582
_cell_angle_beta   63.29256401
_cell_angle_gamma   60.00397476
_symmetry_Int_Tables_number   1
_chemical_formula_structural   Ba2MgMnWO6
_chemical_formula_sum   'Ba2 Mg1 Mn1 W1 O6'
_cell_volume   197.90340475
_cell_formula_units_Z   1
loop_
 _symmetry_equiv_pos_site_id
 _symmetry_equiv_pos_as_xyz
  1  'x, y, z'
loop_
 _atom_site_type_symbol
 _atom_site_label
 _atom_site_symmetry_multiplicity
 _atom_site_fract_x
 _atom_site_fract_y
 _atom_site_fract_z
 _atom_site_occupancy
  Ba  Ba0  1  0.18257397  0.18266871  0.45167590  1
  Ba  Ba1  1  0.76452595  0.77453678  0.69039259  1
  Mg  Mg0  1  0.40383662  0.40674509  0.78360451  1
  Mn  Mn0  1  0.00136273  0.00538129  0.98918540  1
  W  W0  1  0.57394596  0.57240459  0.28014244  1
  O  O0  1  0.23179019  0.76132170  0.77687895  1
  O  O1  1  0.23057114  0.74095010  0.28703693  1
  O  O2  1  0.75863221  0.23055790  0.77799812  1
  O  O3  1  0.23257211  0.22940593  0.77755658  1
  O  O4  1  0.74261766  0.22933450  0.28502356  1
  O  O5  1  0.74215348  0.74169342  0.28592002  1
loop_
_geom_bond_atom_site_label_1
_geom_bond_atom_site_label_2
_geom_bond_distance
_geom_bond_site_symmetry_2
Ba0 O2 2.566419 1_455
Ba0 O3 2.570572 1_555
Ba0 O0 2.573400 1_545
Ba0 O5 3.243860 1_545
Ba0 O1 3.245050 1_545
Ba0 O4 3.247499 1_555
Ba0 O1 3.252588 1_555
Ba0 O4 3.255563 1_455
Ba0 O5 3.257257 1_455
Ba1 O4 2.972802 1_565
Ba1 O5 2.974103 1_555
Ba1 O1 2.978635 1_655
Ba1 O3 3.096705 1_565
Ba1 O0 3.113404 1_555
Ba1 O2 3.121905 1_565
Ba1 O2 3.164473 1_555
Ba1 O0 3.165694 1_655
Ba1 O3 3.186269 1_655
Ba1 W0 3.514629 1_556
Mg0 O0 1.890730 1_555
Mg0 O3 1.891633 1_555
Mg0 O2 1.892644 1_555
Mn0 O0 2.102389 1_545
Mn0 O3 2.104257 1_555
Mn0 O2 2.106144 1_455
Mn0 O4 2.460760 1_456
Mn0 O5 2.482994 1_446
Mn0 O1 2.510287 1_546
O1 W0 1.829179 1_555
O4 W0 1.831995 1_555
O5 W0 1.830984 1_555
