# generated using pymatgen
data_MgV2(H2O3)2
_symmetry_space_group_name_H-M   'P 1'
_cell_length_a   3.90858205
_cell_length_b   6.22991143
_cell_length_c   5.56101293
_cell_angle_alpha   65.76315105
_cell_angle_beta   74.49826987
_cell_angle_gamma   82.89050494
_symmetry_Int_Tables_number   1
_chemical_formula_structural   MgV2(H2O3)2
_chemical_formula_sum   'Mg1 V2 H4 O6'
_cell_volume   118.96871263
_cell_formula_units_Z   1
loop_
 _symmetry_equiv_pos_site_id
 _symmetry_equiv_pos_as_xyz
  1  'x, y, z'
loop_
 _atom_site_type_symbol
 _atom_site_label
 _atom_site_symmetry_multiplicity
 _atom_site_fract_x
 _atom_site_fract_y
 _atom_site_fract_z
 _atom_site_occupancy
  Mg  Mg0  1  0.01250042  0.99913393  0.50640135  1
  V  V0  1  0.48009349  0.24756085  0.75591721  1
  V  V1  1  0.53794888  0.75849040  0.24903988  1
  H  H0  1  0.55731477  0.23735468  0.19908297  1
  H  H1  1  0.92987602  0.42813548  0.30331891  1
  H  H2  1  0.45812439  0.76807497  0.80794843  1
  H  H3  1  0.08657832  0.57411212  0.69468244  1
  O  O0  1  0.03054376  0.21974531  0.69773300  1
  O  O1  1  0.59989399  0.87683113  0.83596054  1
  O  O2  1  0.98632659  0.78579728  0.30734672  1
  O  O3  1  0.41577547  0.12897288  0.16957569  1
  O  O4  1  0.33056192  0.61023112  0.68243832  1
  O  O5  1  0.68160997  0.39680886  0.32180153  1
loop_
_geom_bond_atom_site_label_1
_geom_bond_atom_site_label_2
_geom_bond_distance
_geom_bond_site_symmetry_2
Mg0 O1 2.029270 1_455
Mg0 O3 2.034887 1_565
Mg0 O0 2.071407 1_565
Mg0 O2 2.074679 1_455
H0 O3 1.010364 1_555
H0 O5 1.594311 1_555
H1 O5 0.983546 1_555
H2 O1 1.008019 1_555
H2 O4 1.604247 1_555
H3 O4 0.985144 1_555
O0 V0 1.909826 1_555
O0 V0 2.084520 1_455
O1 V1 2.058020 1_556
O1 V0 2.179762 1_565
O2 V1 1.904794 1_555
O2 V1 2.088895 1_655
O3 V0 2.059663 1_554
O3 V1 2.180159 1_545
O4 V1 2.152275 1_555
O4 V0 2.157836 1_555
O5 V1 2.148452 1_555
O5 V0 2.152876 1_555
