# generated using pymatgen
data_TaSiRh
_symmetry_space_group_name_H-M   'P 1'
_cell_length_a   3.74207714
_cell_length_b   6.38437253
_cell_length_c   7.29358669
_cell_angle_alpha   90.00000000
_cell_angle_beta   90.00000000
_cell_angle_gamma   90.00000000
_symmetry_Int_Tables_number   1
_chemical_formula_structural   TaSiRh
_chemical_formula_sum   'Ta4 Si4 Rh4'
_cell_volume   174.24972663
_cell_formula_units_Z   4
loop_
 _symmetry_equiv_pos_site_id
 _symmetry_equiv_pos_as_xyz
  1  'x, y, z'
loop_
 _atom_site_type_symbol
 _atom_site_label
 _atom_site_symmetry_multiplicity
 _atom_site_fract_x
 _atom_site_fract_y
 _atom_site_fract_z
 _atom_site_occupancy
  Ta  Ta0  1  0.25000000  0.52552300  0.32701238  1
  Ta  Ta1  1  0.75000000  0.47447700  0.67298762  1
  Ta  Ta2  1  0.25000000  0.02552300  0.17298762  1
  Ta  Ta3  1  0.75000000  0.97447700  0.82701238  1
  Si  Si0  1  0.25000000  0.26765698  0.87543220  1
  Si  Si1  1  0.75000000  0.73234302  0.12456780  1
  Si  Si2  1  0.25000000  0.76765698  0.62456780  1
  Si  Si3  1  0.75000000  0.23234302  0.37543220  1
  Rh  Rh0  1  0.75000000  0.85566072  0.43615426  1
  Rh  Rh1  1  0.25000000  0.14433928  0.56384574  1
  Rh  Rh2  1  0.75000000  0.35566072  0.06384574  1
  Rh  Rh3  1  0.25000000  0.64433928  0.93615426  1
loop_
_geom_bond_atom_site_label_1
_geom_bond_atom_site_label_2
_geom_bond_distance
_geom_bond_site_symmetry_2
Si0 Ta2 2.664525 1_556
Si0 Ta3 2.670024 1_545
Si0 Ta3 2.670024 1_445
Si0 Ta1 2.724789 1_455
Si0 Ta1 2.724789 1_555
Si1 Ta3 2.664525 1_554
Si1 Ta2 2.670024 1_565
Si1 Ta2 2.670024 1_665
Si1 Ta0 2.724789 1_555
Si1 Ta0 2.724789 1_655
Si2 Ta0 2.664525 1_555
Si2 Ta1 2.670024 1_555
Si2 Ta1 2.670024 1_455
Si2 Ta3 2.724789 1_455
Si2 Ta3 2.724789 1_555
Si3 Ta1 2.664525 1_555
Si3 Ta0 2.670024 1_555
Si3 Ta0 2.670024 1_655
Si3 Ta2 2.724789 1_655
Si3 Ta2 2.724789 1_555
Rh0 Si2 2.388496 1_555
Rh0 Si2 2.388496 1_655
Rh0 Si1 2.405095 1_555
Rh0 Si3 2.445321 1_565
Rh0 Ta2 2.891549 1_565
Rh0 Ta2 2.891549 1_665
Rh0 Ta0 2.928643 1_555
Rh0 Ta0 2.928643 1_655
Rh0 Ta3 2.949956 1_555
Rh0 Ta1 2.984341 1_555
Rh1 Si3 2.388496 1_555
Rh1 Si3 2.388496 1_455
Rh1 Si0 2.405095 1_555
Rh1 Si2 2.445321 1_545
Rh1 Ta3 2.891549 1_545
Rh1 Ta3 2.891549 1_445
Rh1 Ta1 2.928643 1_455
Rh1 Ta1 2.928643 1_555
Rh1 Ta2 2.949956 1_555
Rh1 Ta0 2.984341 1_555
Rh2 Si0 2.388496 1_554
Rh2 Si0 2.388496 1_654
Rh2 Si3 2.405095 1_555
Rh2 Si1 2.445321 1_555
Rh2 Ta0 2.891549 1_555
Rh2 Ta0 2.891549 1_655
Rh2 Ta2 2.928643 1_655
Rh2 Ta2 2.928643 1_555
Rh2 Ta1 2.949956 1_554
Rh2 Ta3 2.984341 1_544
Rh3 Si1 2.388496 1_456
Rh3 Si1 2.388496 1_556
Rh3 Si2 2.405095 1_555
Rh3 Si0 2.445321 1_555
Rh3 Ta1 2.891549 1_555
Rh3 Ta1 2.891549 1_455
Rh3 Ta3 2.928643 1_455
Rh3 Ta3 2.928643 1_555
Rh3 Ta0 2.949956 1_556
Rh3 Ta2 2.984341 1_566
