# generated using pymatgen
data_Na5Nb3AlSi5PO24
_symmetry_space_group_name_H-M   'P 1'
_cell_length_a   8.96452620
_cell_length_b   8.94249300
_cell_length_c   22.39160926
_cell_angle_alpha   89.93139082
_cell_angle_beta   89.91476224
_cell_angle_gamma   120.12455193
_symmetry_Int_Tables_number   1
_chemical_formula_structural   Na5Nb3AlSi5PO24
_chemical_formula_sum   'Na15 Nb9 Al3 Si15 P3 O72'
_cell_volume   1552.57958850
_cell_formula_units_Z   3
loop_
 _symmetry_equiv_pos_site_id
 _symmetry_equiv_pos_as_xyz
  1  'x, y, z'
loop_
 _atom_site_type_symbol
 _atom_site_label
 _atom_site_symmetry_multiplicity
 _atom_site_fract_x
 _atom_site_fract_y
 _atom_site_fract_z
 _atom_site_occupancy
  Na  Na0  1  0.99287572  0.62830746  0.24385270  1
  Na  Na1  1  0.63515903  0.62543492  0.74579529  1
  Na  Na2  1  0.99040774  0.36436949  0.74559587  1
  Na  Na3  1  0.37255802  0.00849275  0.74664117  1
  Na  Na4  1  0.31094896  0.97154816  0.08445941  1
  Na  Na5  1  0.66774361  0.69468486  0.08445790  1
  Na  Na6  1  0.96810122  0.29366770  0.41231558  1
  Na  Na7  1  0.32445115  0.03174410  0.41160996  1
  Na  Na8  1  0.70589958  0.67488654  0.41299048  1
  Na  Na9  1  0.99895123  0.99944945  0.50022957  1
  Na  Na10  1  0.99950330  0.01022318  0.99575673  1
  Na  Na11  1  0.66621385  0.33395924  0.83391364  1
  Na  Na12  1  0.65159549  0.32003350  0.32264208  1
  Na  Na13  1  0.33478804  0.65750601  0.16572474  1
  Na  Na14  1  0.33262841  0.66524438  0.66376851  1
  Nb  Nb0  1  0.00028212  0.99928146  0.85493054  1
  Nb  Nb1  1  0.99649522  0.99979321  0.64308956  1
  Nb  Nb2  1  0.00388034  0.00399665  0.14600232  1
  Nb  Nb3  1  0.66697065  0.33173695  0.97775690  1
  Nb  Nb4  1  0.67113583  0.33619953  0.48087733  1
  Nb  Nb5  1  0.32759914  0.66181959  0.02231828  1
  Nb  Nb6  1  0.33351309  0.66195343  0.52291253  1
  Nb  Nb7  1  0.33771672  0.67193301  0.31013405  1
  Nb  Nb8  1  0.33353434  0.66608616  0.81331237  1
  Al  Al0  1  0.00587061  0.00281893  0.35219866  1
  Al  Al1  1  0.66947707  0.33775218  0.68790359  1
  Al  Al2  1  0.65275841  0.32242367  0.18481079  1
  Si  Si0  1  0.29864592  0.01693761  0.25279000  1
  Si  Si1  1  0.29527937  0.28854381  0.74759709  1
  Si  Si2  1  0.99525300  0.70565466  0.74800642  1
  Si  Si3  1  0.71019086  0.00634414  0.74840112  1
  Si  Si4  1  0.95153171  0.33506998  0.58795174  1
  Si  Si5  1  0.66623631  0.61750482  0.58790272  1
  Si  Si6  1  0.94590422  0.60748550  0.09000343  1
  Si  Si7  1  0.66913622  0.05277826  0.08679844  1
  Si  Si8  1  0.38740623  0.33633176  0.08692228  1
  Si  Si9  1  0.62397768  0.66680573  0.91773048  1
  Si  Si10  1  0.04048657  0.37396341  0.91624961  1
  Si  Si11  1  0.33321975  0.95839222  0.91709571  1
  Si  Si12  1  0.62941211  0.95603671  0.41546981  1
  Si  Si13  1  0.32704314  0.37122014  0.41482341  1
  Si  Si14  1  0.04601492  0.67332570  0.41505066  1
  P  P0  1  0.71614074  0.71149794  0.25275252  1
  P  P1  1  0.99321681  0.28239021  0.25393765  1
  P  P2  1  0.38301496  0.04829217  0.58630852  1
  O  O0  1  0.19778387  0.02593846  0.31147734  1
  O  O1  1  0.82766720  0.80474079  0.30760194  1
  O  O2  1  0.97709496  0.17677852  0.30984211  1
  O  O3  1  0.20062142  0.16256317  0.80560598  1
  O  O4  1  0.96297866  0.80046463  0.80566433  1
  O  O5  1  0.83813589  0.04046049  0.80548395  1
  O  O6  1  0.80124153  0.96282483  0.69200078  1
  O  O7  1  0.16185312  0.19894074  0.69161671  1
  O  O8  1  0.03848656  0.83963879  0.69193189  1
  O  O9  1  0.79749724  0.82202874  0.19491424  1
  O  O10  1  0.01755461  0.19089639  0.19793186  1
  O  O11  1  0.16895412  0.97396428  0.19371781  1
  O  O12  1  0.85867683  0.35632588  0.64575285  1
  O  O13  1  0.49075459  0.13441153  0.64205590  1
  O  O14  1  0.63959064  0.50212034  0.64601290  1
  O  O15  1  0.85911116  0.49900190  0.14961045  1
  O  O16  1  0.62676234  0.13734319  0.14206184  1
  O  O17  1  0.51092411  0.37638641  0.14295851  1
  O  O18  1  0.46453312  0.29272227  0.02691479  1
  O  O19  1  0.82497466  0.52798980  0.03021025  1
  O  O20  1  0.69937549  0.16679775  0.02569692  1
  O  O21  1  0.47012437  0.15657135  0.52805947  1
  O  O22  1  0.68709572  0.52584654  0.52569176  1
  O  O23  1  0.83804538  0.30908277  0.52560045  1
  O  O24  1  0.53037260  0.69130904  0.97704081  1
  O  O25  1  0.16456509  0.47451077  0.97383544  1
  O  O26  1  0.30938807  0.84118790  0.97684370  1
  O  O27  1  0.53500280  0.82771893  0.47256095  1
  O  O28  1  0.29561516  0.46674214  0.47291850  1
  O  O29  1  0.17464361  0.70623029  0.47162347  1
  O  O30  1  0.13025919  0.62814834  0.35677763  1
  O  O31  1  0.49485162  0.86444895  0.35864256  1
  O  O32  1  0.37065480  0.50700256  0.35913132  1
  O  O33  1  0.13365167  0.49136828  0.85598555  1
  O  O34  1  0.35705163  0.86370952  0.85714485  1
  O  O35  1  0.50591539  0.64263353  0.85762932  1
  O  O36  1  0.01891140  0.83796077  0.40771507  1
  O  O37  1  0.81714815  0.97708270  0.40566883  1
  O  O38  1  0.15632632  0.18337154  0.40856827  1
  O  O39  1  0.02763078  0.18742718  0.91146606  1
  O  O40  1  0.15944150  0.97142700  0.91114334  1
  O  O41  1  0.81156158  0.84040161  0.91109109  1
  O  O42  1  0.97587701  0.16453177  0.58812986  1
  O  O43  1  0.20267475  0.03159316  0.58788452  1
  O  O44  1  0.84162050  0.80918831  0.58790676  1
  O  O45  1  0.97076864  0.80737274  0.09354391  1
  O  O46  1  0.83303865  0.01726595  0.09187716  1
  O  O47  1  0.19244477  0.16176973  0.09245654  1
  O  O48  1  0.68572847  0.17230445  0.74138288  1
  O  O49  1  0.48345943  0.30684472  0.74188262  1
  O  O50  1  0.82570808  0.51581712  0.74379156  1
  O  O51  1  0.70308025  0.53465723  0.24782227  1
  O  O52  1  0.84036223  0.31223677  0.24770430  1
  O  O53  1  0.48764378  0.18166137  0.24327908  1
  O  O54  1  0.63912564  0.49411766  0.92189044  1
  O  O55  1  0.85521509  0.36277882  0.92129958  1
  O  O56  1  0.50643277  0.14640513  0.92053951  1
  O  O57  1  0.64089418  0.14473072  0.42169962  1
  O  O58  1  0.49939920  0.35274541  0.42260556  1
  O  O59  1  0.85456907  0.49666334  0.42213930  1
  O  O60  1  0.36505391  0.50719715  0.07933354  1
  O  O61  1  0.14632705  0.64830333  0.08156788  1
  O  O62  1  0.49808248  0.85540582  0.07911505  1
  O  O63  1  0.36467462  0.86735329  0.57846086  1
  O  O64  1  0.49642791  0.64174171  0.57799153  1
  O  O65  1  0.14322563  0.50913596  0.57802211  1
  O  O66  1  0.30238913  0.82836884  0.25595441  1
  O  O67  1  0.53244626  0.69339888  0.25616193  1
  O  O68  1  0.16295028  0.46740234  0.25532705  1
  O  O69  1  0.31161996  0.48024242  0.75366747  1
  O  O70  1  0.17082329  0.69043792  0.75371105  1
  O  O71  1  0.51997161  0.82925305  0.75352467  1
loop_
_geom_bond_atom_site_label_1
_geom_bond_atom_site_label_2
_geom_bond_distance
_geom_bond_site_symmetry_2
Na0 O51 2.296418 1_555
Na0 O15 2.418607 1_555
Na0 O52 2.446577 1_555
Na0 O66 2.448164 1_655
Na0 O68 2.581331 1_655
Na0 O30 2.814511 1_655
Na0 O11 2.897455 1_655
Na1 O50 2.358270 1_555
Na1 O49 2.466937 1_555
Na1 O14 2.501853 1_555
Na1 O71 2.511496 1_555
Na1 O69 2.519326 1_555
Na1 O35 2.794265 1_555
Na1 O6 2.871859 1_555
Na1 O4 2.878005 1_555
Na2 O48 2.389822 1_555
Na2 O50 2.454158 1_555
Na2 O12 2.514120 1_555
Na2 O69 2.530811 1_655
Na2 O70 2.533679 1_655
Na2 O33 2.756967 1_655
Na2 O5 2.840436 1_555
Na2 O7 2.879665 1_655
Na3 O49 2.335502 1_555
Na3 O48 2.431452 1_555
Na3 O70 2.494026 1_545
Na3 O71 2.542709 1_545
Na3 O13 2.581379 1_555
Na3 O34 2.762013 1_545
Na3 O3 2.854311 1_555
Na3 O8 2.868060 1_545
Na4 O62 2.378195 1_555
Na4 O47 2.422449 1_565
Na4 O61 2.501308 1_555
Na4 O45 2.645755 1_455
Na4 O26 2.675110 1_554
Na4 O11 2.761245 1_555
Na4 O16 2.771133 1_565
Na4 O18 2.796689 1_565
Na5 O60 2.371063 1_555
Na5 O45 2.385483 1_555
Na5 O46 2.501196 1_565
Na5 O62 2.566618 1_555
Na5 O24 2.697087 1_554
Na5 O9 2.729964 1_555
Na5 O17 2.786243 1_555
Na5 O19 2.791508 1_555
Na6 O38 2.344638 1_655
Na6 O37 2.454465 1_545
Na6 O59 2.496851 1_555
Na6 O2 2.540441 1_555
Na6 O57 2.549137 1_555
Na6 O23 2.822438 1_555
Na6 O30 2.868375 1_655
Na6 O28 2.883173 1_655
Na7 O36 2.397821 1_545
Na7 O38 2.483159 1_555
Na7 O58 2.498855 1_555
Na7 O57 2.498917 1_555
Na7 O0 2.503580 1_555
Na7 O29 2.853775 1_545
Na7 O31 2.875927 1_545
Na7 O21 2.881720 1_555
Na8 O37 2.370149 1_555
Na8 O36 2.430114 1_655
Na8 O58 2.533060 1_555
Na8 O59 2.547621 1_555
Na8 O1 2.611929 1_555
Na8 O22 2.817496 1_555
Na8 O27 2.845017 1_555
Na8 O32 2.868185 1_555
Na9 O44 2.512641 1_555
Na9 O42 2.531457 1_565
Na9 O38 2.561675 1_665
Na9 O36 2.583452 1_655
Na9 O43 2.599107 1_665
Na9 O37 2.619829 1_555
Na10 O39 2.393183 1_655
Na10 O41 2.487376 1_545
Na10 O40 2.501694 1_645
Na10 O46 2.635966 1_556
Na10 O47 2.679909 1_656
Na10 O45 2.769674 1_546
Na11 O56 2.489903 1_555
Na11 O55 2.517655 1_555
Na11 O54 2.518990 1_555
Na11 O50 2.531967 1_555
Na11 O49 2.569421 1_555
Na11 O48 2.583237 1_555
Na12 O53 2.244282 1_555
Na12 O52 2.407132 1_555
Na12 O51 2.409195 1_555
Na12 O57 2.688229 1_555
Na12 O58 2.711152 1_555
Na12 O59 2.811560 1_555
Na13 O60 2.448080 1_555
Na13 O61 2.506459 1_555
Na13 O62 2.533526 1_555
Na13 O68 2.577285 1_555
Na13 O67 2.604768 1_555
Na13 O66 2.636667 1_555
Na14 O65 2.480932 1_555
Na14 O64 2.488314 1_555
Na14 O63 2.542985 1_555
Na14 O69 2.550037 1_555
Na14 O70 2.555615 1_555
Na14 O71 2.560371 1_555
Nb0 O4 1.974530 1_455
Nb0 O3 1.983759 1_565
Nb0 O5 2.003849 1_465
Nb0 O41 2.009683 1_455
Nb0 O40 2.010823 1_555
Nb0 O39 2.021243 1_565
Nb1 O6 1.945535 1_555
Nb1 O7 1.977170 1_665
Nb1 O8 1.981805 1_655
Nb1 O42 1.997127 1_565
Nb1 O44 1.998604 1_555
Nb1 O43 2.118934 1_665
Nb2 O11 1.951008 1_545
Nb2 O47 1.970167 1_555
Nb2 O10 1.989959 1_555
Nb2 O46 2.004004 1_455
Nb2 O45 2.010375 1_445
Nb2 O9 2.058680 1_445
Nb3 O20 1.959448 1_556
Nb3 O19 1.995110 1_556
Nb3 O18 1.996062 1_556
Nb3 O55 2.011348 1_555
Nb3 O56 2.018857 1_555
Nb3 O54 2.023890 1_555
Nb4 O22 1.914289 1_555
Nb4 O23 1.915341 1_555
Nb4 O21 2.007079 1_555
Nb4 O59 2.028177 1_555
Nb4 O57 2.074024 1_555
Nb4 O58 2.080560 1_555
Nb5 O25 1.916259 1_554
Nb5 O26 1.973759 1_554
Nb5 O24 1.978483 1_554
Nb5 O60 2.029176 1_555
Nb5 O61 2.052184 1_555
Nb5 O62 2.074935 1_555
Nb6 O28 1.956138 1_555
Nb6 O65 1.987438 1_555
Nb6 O64 1.989077 1_555
Nb6 O27 2.008345 1_555
Nb6 O29 2.018369 1_555
Nb6 O63 2.119050 1_555
Nb7 O31 1.924241 1_555
Nb7 O32 1.974943 1_555
Nb7 O30 1.991270 1_555
Nb7 O66 1.992699 1_555
Nb7 O67 2.049758 1_555
Nb7 O68 2.107296 1_555
Nb8 O35 1.935477 1_555
Nb8 O33 1.935478 1_555
Nb8 O34 1.939510 1_555
Nb8 O71 2.062864 1_555
Nb8 O69 2.064604 1_555
Nb8 O70 2.068821 1_555
Al0 O0 1.863283 1_555
Al0 O2 1.945778 1_455
Al0 O38 1.960429 1_555
Al0 O1 1.963522 1_445
Al0 O36 1.975196 1_545
Al0 O37 1.987750 1_445
Al1 O14 1.872123 1_555
Al1 O12 1.872749 1_555
Al1 O50 1.958208 1_555
Al1 O49 1.961790 1_555
Al1 O48 1.963873 1_555
Al1 O13 2.003095 1_555
Al2 O16 1.824053 1_555
Al2 O17 1.829232 1_555
Al2 O15 1.896651 1_555
Al2 O53 1.899867 1_555
Al2 O51 2.223771 1_555
Al2 O52 2.231697 1_555
O0 Si0 1.618845 1_555
O1 P0 1.540307 1_555
O2 P1 1.529523 1_555
O3 Si1 1.646226 1_555
O4 Si2 1.648359 1_555
O5 Si3 1.642072 1_555
O6 Si3 1.652131 1_565
O7 Si1 1.639755 1_555
O8 Si2 1.640470 1_455
O9 P0 1.567381 1_555
O10 P1 1.571787 1_455
O11 Si0 1.675200 1_565
O12 Si4 1.600104 1_555
O13 P2 1.530814 1_555
O14 Si5 1.601017 1_555
O15 Si6 1.601273 1_555
O16 Si7 1.592670 1_555
O17 Si8 1.592434 1_555
O18 Si8 1.644596 1_555
O19 Si6 1.645049 1_555
O20 Si7 1.644107 1_555
O21 P2 1.575918 1_555
O22 Si5 1.674236 1_555
O23 Si4 1.675089 1_555
O24 Si9 1.642502 1_555
O25 Si10 1.646662 1_555
O26 Si11 1.644700 1_555
O27 Si12 1.638800 1_555
O28 Si13 1.656614 1_555
O29 Si14 1.638764 1_555
O30 Si14 1.655510 1_555
O31 Si12 1.661448 1_555
O32 Si13 1.643390 1_555
O33 Si10 1.653424 1_555
O34 Si11 1.657712 1_555
O35 Si9 1.659291 1_555
O36 Si14 1.616207 1_555
O37 Si12 1.611466 1_555
O38 Si13 1.613781 1_555
O39 Si10 1.617037 1_555
O40 Si11 1.625136 1_555
O41 Si9 1.624243 1_555
O42 Si4 1.645434 1_555
O43 P2 1.547463 1_555
O44 Si5 1.644691 1_555
O45 Si6 1.688655 1_555
O46 Si7 1.655723 1_555
O47 Si8 1.663460 1_555
O48 Si3 1.612934 1_555
O49 Si1 1.615899 1_555
O50 Si2 1.616105 1_555
O51 P0 1.530137 1_555
O52 P1 1.528378 1_555
O53 Si0 1.605871 1_555
O54 Si9 1.619273 1_555
O55 Si10 1.616773 1_655
O56 Si11 1.619874 1_545
O57 Si12 1.644270 1_545
O58 Si13 1.643752 1_555
O59 Si14 1.656346 1_655
O60 Si8 1.646359 1_555
O61 Si6 1.654560 1_455
O62 Si7 1.667645 1_565
O63 P2 1.552326 1_565
O64 Si5 1.656967 1_555
O65 Si4 1.654844 1_455
O66 Si0 1.704755 1_565
O67 P0 1.573475 1_555
O68 P1 1.589600 1_455
O69 Si1 1.651421 1_555
O70 Si2 1.651527 1_455
O71 Si3 1.648400 1_565
