# generated using pymatgen
data_Na3SiSn2Ge2P5O24
_symmetry_space_group_name_H-M   'P 1'
_cell_length_a   8.62380196
_cell_length_b   8.60331210
_cell_length_c   22.22740655
_cell_angle_alpha   90.11387696
_cell_angle_beta   89.71039425
_cell_angle_gamma   119.87243934
_symmetry_Int_Tables_number   1
_chemical_formula_structural   Na3SiSn2Ge2P5O24
_chemical_formula_sum   'Na9 Si3 Sn6 Ge6 P15 O72'
_cell_volume   1429.99674904
_cell_formula_units_Z   3
loop_
 _symmetry_equiv_pos_site_id
 _symmetry_equiv_pos_as_xyz
  1  'x, y, z'
loop_
 _atom_site_type_symbol
 _atom_site_label
 _atom_site_symmetry_multiplicity
 _atom_site_fract_x
 _atom_site_fract_y
 _atom_site_fract_z
 _atom_site_occupancy
  Na  Na0  1  0.36963068  0.00126590  0.74835478  1
  Na  Na1  1  0.66567759  0.96692629  0.58576928  1
  Na  Na2  1  0.66904602  0.69938008  0.08262171  1
  Na  Na3  1  0.01041987  0.00086958  0.50103403  1
  Na  Na4  1  0.00836779  0.00473614  0.99761053  1
  Na  Na5  1  0.67511746  0.34000698  0.83399511  1
  Na  Na6  1  0.66679681  0.33341531  0.33348505  1
  Na  Na7  1  0.32136363  0.66538221  0.16725054  1
  Na  Na8  1  0.32704312  0.65507305  0.66677381  1
  Si  Si0  1  0.72430480  0.00724970  0.74798896  1
  Si  Si1  1  0.37590118  0.05521370  0.58529003  1
  Si  Si2  1  0.94893990  0.61023715  0.08358649  1
  Sn  Sn0  1  0.00108905  0.00032915  0.35135888  1
  Sn  Sn1  1  0.00574398  0.00212263  0.14565071  1
  Sn  Sn2  1  0.32486212  0.66614293  0.01849594  1
  Sn  Sn3  1  0.32847390  0.66535255  0.52130827  1
  Sn  Sn4  1  0.33215645  0.66621516  0.31559584  1
  Sn  Sn5  1  0.33686331  0.66531121  0.81407574  1
  Ge  Ge0  1  0.99509520  0.00059779  0.85155693  1
  Ge  Ge1  1  0.00350271  0.99870952  0.64678482  1
  Ge  Ge2  1  0.67019165  0.33080185  0.68675231  1
  Ge  Ge3  1  0.67114080  0.33445842  0.18615006  1
  Ge  Ge4  1  0.66957785  0.33682631  0.98056098  1
  Ge  Ge5  1  0.65983944  0.33079512  0.48207685  1
  P  P0  1  0.30281471  0.00779197  0.24829546  1
  P  P1  1  0.70475801  0.69918821  0.24821292  1
  P  P2  1  0.99344817  0.29334255  0.24857198  1
  P  P3  1  0.28384298  0.28274464  0.74860841  1
  P  P4  1  0.98986659  0.71082921  0.74929267  1
  P  P5  1  0.94883924  0.33162874  0.58444962  1
  P  P6  1  0.67278110  0.61494792  0.58492153  1
  P  P7  1  0.66630793  0.05579810  0.08305772  1
  P  P8  1  0.38734232  0.33069618  0.08258647  1
  P  P9  1  0.63420809  0.66591374  0.91751456  1
  P  P10  1  0.03316163  0.36550729  0.91608895  1
  P  P11  1  0.33320910  0.97116037  0.91556673  1
  P  P12  1  0.62820533  0.96762556  0.41878319  1
  P  P13  1  0.33990262  0.37336430  0.41836049  1
  P  P14  1  0.03015599  0.65839957  0.41864541  1
  O  O0  1  0.22608634  0.04502065  0.30575010  1
  O  O1  1  0.82121357  0.77954251  0.30438892  1
  O  O2  1  0.95807597  0.17982669  0.30582727  1
  O  O3  1  0.20808856  0.16264432  0.80546069  1
  O  O4  1  0.96194159  0.79346346  0.80710237  1
  O  O5  1  0.84152616  0.03865469  0.80831073  1
  O  O6  1  0.80511671  0.96827703  0.68672554  1
  O  O7  1  0.16849127  0.19974216  0.69246226  1
  O  O8  1  0.03863886  0.83489395  0.69358113  1
  O  O9  1  0.78081899  0.81457443  0.19066817  1
  O  O10  1  0.03401308  0.21528216  0.19223721  1
  O  O11  1  0.18378321  0.96628213  0.19264419  1
  O  O12  1  0.86977427  0.36928114  0.64117104  1
  O  O13  1  0.50396076  0.13404385  0.64490831  1
  O  O14  1  0.63812429  0.49945591  0.64142284  1
  O  O15  1  0.86051819  0.49355354  0.14390337  1
  O  O16  1  0.62987555  0.13087829  0.14054478  1
  O  O17  1  0.50085797  0.36654799  0.13962864  1
  O  O18  1  0.46579552  0.29732438  0.02520576  1
  O  O19  1  0.82180548  0.52976734  0.02432503  1
  O  O20  1  0.69581349  0.16534346  0.02566081  1
  O  O21  1  0.46551103  0.17265690  0.52482939  1
  O  O22  1  0.70610171  0.53771545  0.52692243  1
  O  O23  1  0.83166200  0.29394985  0.52786128  1
  O  O24  1  0.55776910  0.70541195  0.97554548  1
  O  O25  1  0.15179957  0.44191391  0.97240792  1
  O  O26  1  0.29188596  0.85014888  0.97132600  1
  O  O27  1  0.55212380  0.85190181  0.47624095  1
  O  O28  1  0.29949826  0.45193336  0.47459961  1
  O  O29  1  0.15025240  0.70062136  0.47408333  1
  O  O30  1  0.10700772  0.62159111  0.36104403  1
  O  O31  1  0.51234537  0.88778734  0.36242683  1
  O  O32  1  0.37572453  0.48650346  0.36096324  1
  O  O33  1  0.11121151  0.48600789  0.85982291  1
  O  O34  1  0.37306061  0.89481720  0.85773846  1
  O  O35  1  0.51379719  0.62613418  0.86200451  1
  O  O36  1  0.01365947  0.82809939  0.41236813  1
  O  O37  1  0.81341363  0.98306815  0.41256662  1
  O  O38  1  0.17155858  0.18694824  0.41264091  1
  O  O39  1  0.02013448  0.18054566  0.90854587  1
  O  O40  1  0.16252429  0.98519308  0.90690416  1
  O  O41  1  0.81987227  0.83507096  0.90929367  1
  O  O42  1  0.96299715  0.15907794  0.58990833  1
  O  O43  1  0.17629332  0.02969830  0.59248942  1
  O  O44  1  0.83712199  0.80741330  0.59010379  1
  O  O45  1  0.96262855  0.80823141  0.08611107  1
  O  O46  1  0.83389373  0.03331164  0.08714203  1
  O  O47  1  0.19791035  0.16792303  0.08610666  1
  O  O48  1  0.69493075  0.18270106  0.74258669  1
  O  O49  1  0.47309747  0.30334967  0.74260824  1
  O  O50  1  0.82190398  0.52581634  0.74161742  1
  O  O51  1  0.68635350  0.51247050  0.24226087  1
  O  O52  1  0.82198081  0.30568374  0.24291701  1
  O  O53  1  0.48713320  0.17702651  0.24051409  1
  O  O54  1  0.64698387  0.49411824  0.92387605  1
  O  O55  1  0.84681268  0.34734531  0.92435898  1
  O  O56  1  0.50340485  0.15462042  0.92466450  1
  O  O57  1  0.64556887  0.15403730  0.42542082  1
  O  O58  1  0.51128931  0.36052263  0.42441177  1
  O  O59  1  0.84585838  0.48897791  0.42679522  1
  O  O60  1  0.37610676  0.50543500  0.07804285  1
  O  O61  1  0.14762485  0.63478343  0.08127854  1
  O  O62  1  0.50427431  0.86168314  0.07841662  1
  O  O63  1  0.36479569  0.85843383  0.58078528  1
  O  O64  1  0.50561369  0.63923999  0.58019012  1
  O  O65  1  0.13740676  0.49660746  0.58045890  1
  O  O66  1  0.31987874  0.83848077  0.25447857  1
  O  O67  1  0.51945235  0.68386981  0.25428895  1
  O  O68  1  0.16206004  0.47982271  0.25418402  1
  O  O69  1  0.30010305  0.46886819  0.75380285  1
  O  O70  1  0.16117385  0.69390396  0.75490592  1
  O  O71  1  0.51875874  0.83443522  0.75279177  1
loop_
_geom_bond_atom_site_label_1
_geom_bond_atom_site_label_2
_geom_bond_distance
_geom_bond_site_symmetry_2
Na0 O49 2.292820 1_555
Na0 O70 2.347109 1_545
Na0 O71 2.358880 1_545
Na0 O48 2.440886 1_555
Na0 O13 2.568889 1_555
Na0 O34 2.605272 1_545
Na0 O3 2.716867 1_555
Na0 O8 2.763506 1_545
Na1 O42 2.257212 1_565
Na1 O63 2.281693 1_555
Na1 O64 2.447949 1_555
Na1 O44 2.470165 1_555
Na1 O6 2.548510 1_555
Na1 O27 2.629521 1_555
Na1 O23 2.757796 1_565
Na1 O13 2.776939 1_565
Na2 O45 2.221008 1_555
Na2 O60 2.231454 1_555
Na2 O62 2.440489 1_555
Na2 O46 2.493314 1_565
Na2 O24 2.580949 1_554
Na2 O9 2.596400 1_555
Na2 O19 2.726540 1_555
Na2 O17 2.786996 1_555
Na3 O43 2.431881 1_555
Na3 O38 2.474471 1_555
Na3 O36 2.474555 1_545
Na3 O44 2.535465 1_445
Na3 O42 2.541243 1_455
Na3 O37 2.559293 1_445
Na4 O40 2.460642 1_545
Na4 O39 2.464586 1_555
Na4 O45 2.494878 1_446
Na4 O47 2.499535 1_556
Na4 O41 2.506771 1_445
Na4 O46 2.573116 1_456
Na5 O54 2.472465 1_555
Na5 O55 2.483362 1_555
Na5 O48 2.490936 1_555
Na5 O50 2.518920 1_555
Na5 O56 2.535384 1_555
Na5 O49 2.597444 1_555
Na6 O52 2.487843 1_555
Na6 O58 2.493958 1_555
Na6 O51 2.502622 1_555
Na6 O57 2.513626 1_555
Na6 O53 2.534959 1_555
Na6 O59 2.537719 1_555
Na7 O61 2.366407 1_555
Na7 O68 2.443446 1_555
Na7 O66 2.446295 1_555
Na7 O67 2.539264 1_555
Na7 O62 2.562666 1_555
Na7 O60 2.583601 1_555
Na8 O69 2.449359 1_555
Na8 O65 2.452421 1_555
Na8 O71 2.499809 1_555
Na8 O63 2.501935 1_555
Na8 O64 2.504356 1_555
Na8 O70 2.537773 1_555
Ge0 O5 1.797544 1_555
Ge0 O39 1.926116 1_655
Ge0 O4 1.929273 1_545
Ge0 O41 1.949974 1_545
Ge0 O3 1.950146 1_655
Ge0 O40 1.955766 1_645
Ge1 O6 1.822922 1_455
Ge1 O43 1.826294 1_565
Ge1 O8 1.895902 1_555
Ge1 O7 1.898120 1_565
Ge1 O44 2.003084 1_455
Ge1 O42 2.028625 1_465
Ge2 O13 1.837252 1_555
Ge2 O48 1.867875 1_555
Ge2 O12 1.874722 1_555
Ge2 O14 1.898773 1_555
Ge2 O50 1.958377 1_555
Ge2 O49 2.016461 1_555
Ge3 O15 1.784741 1_555
Ge3 O16 1.896717 1_555
Ge3 O53 1.912817 1_555
Ge3 O52 1.919405 1_555
Ge3 O51 1.926682 1_555
Ge3 O17 1.929317 1_555
Ge4 O19 1.805770 1_556
Ge4 O20 1.890330 1_556
Ge4 O18 1.891398 1_556
Ge4 O54 1.930961 1_555
Ge4 O55 1.936036 1_555
Ge4 O56 1.956289 1_555
Ge5 O21 1.811165 1_555
Ge5 O22 1.900362 1_555
Ge5 O58 1.921898 1_555
Ge5 O57 1.929012 1_555
Ge5 O59 1.935805 1_555
Ge5 O23 1.953504 1_555
O0 P0 1.540217 1_555
O0 Sn0 2.044245 1_555
O1 P1 1.537295 1_555
O1 Sn0 2.043932 1_665
O2 P2 1.539702 1_555
O2 Sn0 2.031562 1_655
O3 P3 1.554262 1_555
O4 P4 1.542180 1_555
O5 Si0 1.622599 1_555
O6 Si0 1.635163 1_565
O7 P3 1.535692 1_555
O8 P4 1.549970 1_455
O9 P1 1.549084 1_555
O9 Sn1 2.058226 1_665
O10 P2 1.538699 1_455
O10 Sn1 2.011081 1_555
O11 P0 1.535344 1_565
O11 Sn1 2.008138 1_565
O12 P5 1.539184 1_555
O13 Si1 1.643396 1_555
O14 P6 1.535959 1_555
O15 Si2 1.618374 1_555
O16 P7 1.530854 1_555
O17 P8 1.539881 1_555
O18 P8 1.533035 1_555
O19 Si2 1.634412 1_555
O20 P7 1.530753 1_555
O21 Si1 1.625181 1_555
O22 P6 1.539180 1_555
O23 P5 1.547007 1_555
O24 P9 1.557754 1_555
O24 Sn2 2.089435 1_556
O25 P10 1.544558 1_555
O25 Sn2 2.034189 1_556
O26 P11 1.542090 1_555
O26 Sn2 2.035755 1_556
O27 P12 1.548764 1_555
O27 Sn3 2.050016 1_555
O28 P13 1.538768 1_555
O28 Sn3 2.012372 1_555
O29 P14 1.536027 1_555
O29 Sn3 2.009539 1_555
O30 P14 1.541962 1_555
O30 Sn4 2.043773 1_555
O31 P12 1.537803 1_555
O31 Sn4 2.046883 1_555
O32 P13 1.540113 1_555
O32 Sn4 2.034013 1_555
O33 P10 1.547083 1_555
O33 Sn5 2.048502 1_555
O34 P11 1.555222 1_555
O34 Sn5 2.078338 1_555
O35 P9 1.541116 1_555
O35 Sn5 2.026548 1_555
O36 P14 1.542452 1_555
O36 Sn0 2.053230 1_565
O37 P12 1.540861 1_555
O37 Sn0 2.057079 1_665
O38 P13 1.541963 1_555
O38 Sn0 2.062700 1_555
O39 P10 1.547243 1_555
O40 P11 1.548635 1_555
O41 P9 1.546573 1_555
O42 P5 1.553966 1_555
O43 Si1 1.630301 1_555
O44 P6 1.557842 1_555
O45 Si2 1.648653 1_555
O45 Sn1 2.012612 1_665
O46 P7 1.553788 1_555
O46 Sn1 2.092038 1_655
O47 P8 1.534992 1_555
O47 Sn1 2.040411 1_555
O48 Si0 1.654989 1_555
O49 P3 1.556479 1_555
O50 P4 1.538022 1_555
O51 P1 1.539018 1_555
O52 P2 1.540115 1_555
O53 P0 1.539226 1_555
O54 P9 1.542676 1_555
O55 P10 1.545239 1_655
O56 P11 1.542862 1_545
O57 P12 1.541523 1_545
O58 P13 1.542571 1_555
O59 P14 1.540735 1_655
O60 P8 1.557370 1_555
O60 Sn2 2.116749 1_555
O61 Si2 1.619181 1_455
O61 Sn2 1.981296 1_555
O62 P7 1.558329 1_565
O62 Sn2 2.101664 1_555
O63 Si1 1.650218 1_565
O63 Sn3 2.020489 1_555
O64 P6 1.560368 1_555
O64 Sn3 2.111934 1_555
O65 P5 1.538412 1_455
O65 Sn3 2.038145 1_555
O66 P0 1.541708 1_565
O66 Sn4 2.054004 1_555
O67 P1 1.541893 1_555
O67 Sn4 2.055011 1_555
O68 P2 1.543056 1_455
O68 Sn4 2.062735 1_555
O69 P3 1.540404 1_555
O69 Sn5 2.052612 1_555
O70 P4 1.560598 1_455
O70 Sn5 2.116247 1_555
O71 Si0 1.654514 1_565
O71 Sn5 2.036157 1_555
