# generated using pymatgen
data_Na6Hf3ZnSi4(SO12)2
_symmetry_space_group_name_H-M   'P 1'
_cell_length_a   9.15732227
_cell_length_b   9.13687459
_cell_length_c   22.61622849
_cell_angle_alpha   89.70685189
_cell_angle_beta   90.30711775
_cell_angle_gamma   119.93698848
_symmetry_Int_Tables_number   1
_chemical_formula_structural   Na6Hf3ZnSi4(SO12)2
_chemical_formula_sum   'Na18 Hf9 Zn3 Si12 S6 O72'
_cell_volume   1639.77559408
_cell_formula_units_Z   3
loop_
 _symmetry_equiv_pos_site_id
 _symmetry_equiv_pos_as_xyz
  1  'x, y, z'
loop_
 _atom_site_type_symbol
 _atom_site_label
 _atom_site_symmetry_multiplicity
 _atom_site_fract_x
 _atom_site_fract_y
 _atom_site_fract_z
 _atom_site_occupancy
  Na  Na0  1  0.98783043  0.35240961  0.75369406  1
  Na  Na1  1  0.39607907  0.02345128  0.74857807  1
  Na  Na2  1  0.32960911  0.33513899  0.58583279  1
  Na  Na3  1  0.02840877  0.70382905  0.57201066  1
  Na  Na4  1  0.65152470  0.96381451  0.59223250  1
  Na  Na5  1  0.32396850  0.98391369  0.08467157  1
  Na  Na6  1  0.65518791  0.67484907  0.08954471  1
  Na  Na7  1  0.02016358  0.33880513  0.08596107  1
  Na  Na8  1  0.32752461  0.29302541  0.92592829  1
  Na  Na9  1  0.96473322  0.28802021  0.40602451  1
  Na  Na10  1  0.31886120  0.02976244  0.40981424  1
  Na  Na11  1  0.71493680  0.68221163  0.40991410  1
  Na  Na12  1  0.00091356  0.99186177  0.48724312  1
  Na  Na13  1  0.00001996  0.99327569  0.99895575  1
  Na  Na14  1  0.66402060  0.31700569  0.83032461  1
  Na  Na15  1  0.66880865  0.33451716  0.31757528  1
  Na  Na16  1  0.33578368  0.66530742  0.16580977  1
  Na  Na17  1  0.38090639  0.67534465  0.67005888  1
  Hf  Hf0  1  0.00163287  0.01425720  0.85385938  1
  Hf  Hf1  1  0.99692006  0.00088650  0.64807832  1
  Hf  Hf2  1  0.00251784  0.00009514  0.14817249  1
  Hf  Hf3  1  0.67267596  0.32321372  0.98206131  1
  Hf  Hf4  1  0.65661935  0.33572729  0.47786765  1
  Hf  Hf5  1  0.32300933  0.66904377  0.01849006  1
  Hf  Hf6  1  0.34301982  0.67183193  0.51607704  1
  Hf  Hf7  1  0.33335176  0.66909209  0.31595791  1
  Hf  Hf8  1  0.33651546  0.67418269  0.81340023  1
  Zn  Zn0  1  0.00054681  0.99866187  0.35519791  1
  Zn  Zn1  1  0.62169211  0.31480438  0.68551349  1
  Zn  Zn2  1  0.66626305  0.32896152  0.16329392  1
  Si  Si0  1  0.29619851  0.30227978  0.75026101  1
  Si  Si1  1  0.70319372  0.00313209  0.74765973  1
  Si  Si2  1  0.36864066  0.03035006  0.58573115  1
  Si  Si3  1  0.66780014  0.62493761  0.58486420  1
  Si  Si4  1  0.95505237  0.62132419  0.08571323  1
  Si  Si5  1  0.66263288  0.03388290  0.08733972  1
  Si  Si6  1  0.37662226  0.33673332  0.08324735  1
  Si  Si7  1  0.03425832  0.37751564  0.91443307  1
  Si  Si8  1  0.33381730  0.96814481  0.91540999  1
  Si  Si9  1  0.62961690  0.96445191  0.41573783  1
  Si  Si10  1  0.33074263  0.37311745  0.41677012  1
  Si  Si11  1  0.03831967  0.66159640  0.41710874  1
  S  S0  1  0.29574588  0.99814035  0.25347007  1
  S  S1  1  0.70271239  0.70545788  0.25304650  1
  S  S2  1  0.00330678  0.29796182  0.25294567  1
  S  S3  1  0.00295944  0.71126362  0.75121509  1
  S  S4  1  0.96235778  0.33345243  0.58475043  1
  S  S5  1  0.62615754  0.66714196  0.91725322  1
  O  O0  1  0.20739242  0.00118214  0.30759693  1
  O  O1  1  0.79513023  0.79331629  0.30737287  1
  O  O2  1  0.99941997  0.20528529  0.30738363  1
  O  O3  1  0.18897967  0.18306538  0.80707821  1
  O  O4  1  0.98901926  0.79965355  0.80307440  1
  O  O5  1  0.82221328  0.00698952  0.80264905  1
  O  O6  1  0.79008773  0.98061710  0.68648769  1
  O  O7  1  0.17872171  0.20297651  0.69103010  1
  O  O8  1  0.01949216  0.81284618  0.69607714  1
  O  O9  1  0.79702560  0.81011807  0.19921871  1
  O  O10  1  0.01379732  0.20391226  0.19931209  1
  O  O11  1  0.19179639  0.98839106  0.19941626  1
  O  O12  1  0.88979506  0.35587368  0.63879859  1
  O  O13  1  0.48443340  0.09489665  0.64439468  1
  O  O14  1  0.63436600  0.50112826  0.63941390  1
  O  O15  1  0.89358369  0.49618420  0.14172518  1
  O  O16  1  0.59823247  0.09895762  0.14172913  1
  O  O17  1  0.50410064  0.39367660  0.13857250  1
  O  O18  1  0.45316305  0.29284662  0.02408885  1
  O  O19  1  0.82558713  0.53725257  0.02938917  1
  O  O20  1  0.71092342  0.16493059  0.03051487  1
  O  O21  1  0.46451491  0.15626967  0.52858068  1
  O  O22  1  0.70002585  0.54499347  0.52382759  1
  O  O23  1  0.85686905  0.31302113  0.53153212  1
  O  O24  1  0.55080523  0.68906251  0.97183080  1
  O  O25  1  0.15727802  0.46689476  0.97165934  1
  O  O26  1  0.32574426  0.86055773  0.97461927  1
  O  O27  1  0.54237850  0.84925043  0.47565123  1
  O  O28  1  0.30778693  0.45801063  0.47742563  1
  O  O29  1  0.15071802  0.68558773  0.47713354  1
  O  O30  1  0.13508530  0.63179793  0.36145343  1
  O  O31  1  0.49715599  0.87009812  0.36097842  1
  O  O32  1  0.36669120  0.50456543  0.36184000  1
  O  O33  1  0.13468845  0.48688945  0.85528708  1
  O  O34  1  0.35146988  0.87176750  0.85677741  1
  O  O35  1  0.51766055  0.65275326  0.86518257  1
  O  O36  1  0.01714159  0.82681092  0.41174187  1
  O  O37  1  0.81350066  0.98217885  0.41058785  1
  O  O38  1  0.16909629  0.18600865  0.41116627  1
  O  O39  1  0.01768142  0.18783733  0.91219559  1
  O  O40  1  0.16032539  0.98166509  0.91288181  1
  O  O41  1  0.79709366  0.81386528  0.91082597  1
  O  O42  1  0.97648865  0.17484919  0.58578658  1
  O  O43  1  0.18159789  0.01897686  0.58927602  1
  O  O44  1  0.83616821  0.81752566  0.58873983  1
  O  O45  1  0.97704195  0.81240459  0.09478461  1
  O  O46  1  0.83624190  0.02169910  0.09629869  1
  O  O47  1  0.18712986  0.16513684  0.09383101  1
  O  O48  1  0.69954137  0.17938379  0.74785889  1
  O  O49  1  0.47441804  0.30913381  0.75263111  1
  O  O50  1  0.86378414  0.53920504  0.74733215  1
  O  O51  1  0.68288275  0.53730175  0.24985603  1
  O  O52  1  0.85446948  0.31676467  0.24976816  1
  O  O53  1  0.46331291  0.14655221  0.25049994  1
  O  O54  1  0.63063184  0.50757346  0.91901122  1
  O  O55  1  0.85046140  0.36243129  0.91951764  1
  O  O56  1  0.49641372  0.16160676  0.91880130  1
  O  O57  1  0.64434289  0.14943394  0.42309977  1
  O  O58  1  0.50483884  0.36166309  0.42040444  1
  O  O59  1  0.85534823  0.48753203  0.42235747  1
  O  O60  1  0.33963167  0.49360142  0.07309859  1
  O  O61  1  0.15020077  0.66131263  0.07427515  1
  O  O62  1  0.51196559  0.84001209  0.07416922  1
  O  O63  1  0.33277201  0.83549135  0.57738915  1
  O  O64  1  0.49897941  0.64844573  0.57991010  1
  O  O65  1  0.13619090  0.48011406  0.57807590  1
  O  O66  1  0.30336756  0.83660331  0.25130615  1
  O  O67  1  0.53370463  0.69797409  0.25116637  1
  O  O68  1  0.16372884  0.46783955  0.25126913  1
  O  O69  1  0.29938003  0.48455695  0.75272581  1
  O  O70  1  0.16764515  0.70988909  0.75282066  1
  O  O71  1  0.51080133  0.83947997  0.75300164  1
loop_
_geom_bond_atom_site_label_1
_geom_bond_atom_site_label_2
_geom_bond_distance
_geom_bond_site_symmetry_2
Na0 O48 2.306270 1_555
Na0 O50 2.480872 1_555
Na0 O69 2.481928 1_655
Na0 O33 2.635150 1_655
Na0 O12 2.749848 1_555
Na0 O70 2.830508 1_655
Na1 O49 2.338631 1_555
Na1 O71 2.387225 1_545
Na1 O48 2.408531 1_555
Na1 O13 2.471870 1_555
Na1 O70 2.571145 1_545
Na1 O34 2.736181 1_545
Na2 O64 2.486981 1_555
Na2 O43 2.505765 1_555
Na2 O65 2.694159 1_555
Na2 O14 2.704630 1_555
Na2 O7 2.714460 1_555
Na2 O28 2.738966 1_555
Na2 O42 2.806154 1_455
Na2 O21 2.815604 1_555
Na3 O63 2.425188 1_555
Na3 O29 2.470278 1_555
Na3 O44 2.481493 1_455
Na3 O43 2.526986 1_565
Na3 O65 2.679636 1_555
Na3 O22 2.821634 1_455
Na3 O8 2.997371 1_555
Na4 O6 2.440829 1_555
Na4 O64 2.513666 1_555
Na4 O63 2.566160 1_555
Na4 O42 2.620946 1_565
Na4 O44 2.628681 1_555
Na4 O13 2.651470 1_565
Na4 O27 2.828825 1_555
Na5 O16 2.534176 1_565
Na5 O47 2.536144 1_565
Na5 O61 2.568503 1_555
Na5 O62 2.648709 1_555
Na5 O26 2.740983 1_554
Na5 O45 2.763329 1_455
Na5 O18 2.808778 1_565
Na5 O11 2.878417 1_555
Na6 O62 2.466478 1_555
Na6 O17 2.486631 1_555
Na6 O60 2.539570 1_555
Na6 O45 2.565331 1_555
Na6 O46 2.751997 1_565
Na6 O9 2.785964 1_555
Na6 O19 2.804390 1_555
Na6 O24 2.848012 1_554
Na7 O46 2.532340 1_455
Na7 O60 2.553146 1_555
Na7 O61 2.581494 1_555
Na7 O15 2.588376 1_455
Na7 O47 2.702407 1_555
Na7 O20 2.758184 1_455
Na7 O10 2.826997 1_555
Na7 O25 2.857620 1_554
Na8 O56 2.391203 1_555
Na8 O54 2.478358 1_555
Na8 O40 2.486129 1_545
Na8 O18 2.495322 1_556
Na8 O39 2.518430 1_555
Na8 O25 2.920609 1_555
Na8 O3 2.926240 1_555
Na9 O37 2.423511 1_545
Na9 O2 2.431809 1_555
Na9 O38 2.474268 1_655
Na9 O59 2.509215 1_555
Na9 O57 2.580609 1_555
Na9 O30 2.899947 1_655
Na10 O38 2.423817 1_555
Na10 O36 2.441542 1_545
Na10 O0 2.483797 1_555
Na10 O57 2.628775 1_555
Na10 O58 2.646196 1_555
Na10 O31 2.902915 1_545
Na10 O21 2.963870 1_555
Na11 O36 2.399112 1_655
Na11 O37 2.420310 1_555
Na11 O1 2.489602 1_555
Na11 O58 2.590257 1_555
Na11 O59 2.677727 1_555
Na11 O22 2.833313 1_555
Na11 O32 2.966643 1_555
Na12 O36 2.337687 1_555
Na12 O38 2.397788 1_565
Na12 O37 2.403508 1_455
Na12 O43 2.771250 1_565
Na12 O44 2.771941 1_455
Na12 O42 2.868645 1_465
Na13 O40 2.478685 1_555
Na13 O39 2.591766 1_565
Na13 O41 2.658261 1_455
Na13 O45 2.663391 1_456
Na13 O47 2.704690 1_566
Na13 O46 2.755627 1_466
Na14 O48 2.367307 1_555
Na14 O49 2.439510 1_555
Na14 O56 2.490884 1_555
Na14 O55 2.533901 1_555
Na14 O50 2.698547 1_555
Na14 O54 2.778843 1_555
Na15 O51 2.351583 1_555
Na15 O53 2.358454 1_555
Na15 O52 2.361002 1_555
Na15 O59 2.845221 1_555
Na15 O58 2.852998 1_555
Na15 O57 2.862156 1_555
Na16 O67 2.555200 1_555
Na16 O68 2.575453 1_555
Na16 O66 2.603333 1_555
Na16 O62 2.622601 1_555
Na16 O60 2.636030 1_555
Na16 O61 2.660109 1_555
Na17 O71 2.325331 1_555
Na17 O64 2.383331 1_555
Na17 O69 2.402968 1_555
Na17 O63 2.707464 1_555
Na17 O70 2.842073 1_555
Na17 O65 2.920557 1_555
Hf0 O3 1.950204 1_555
Hf0 O5 1.979079 1_455
Hf0 O39 2.016011 1_555
Hf0 O40 2.095087 1_545
Hf0 O4 2.229994 1_445
Hf0 O41 2.258178 1_445
Hf1 O6 2.010506 1_545
Hf1 O7 2.014334 1_655
Hf1 O44 2.077271 1_545
Hf1 O43 2.097328 1_655
Hf1 O8 2.122730 1_645
Hf1 O42 2.194823 1_555
Hf2 O46 2.003059 1_455
Hf2 O45 2.017939 1_445
Hf2 O47 2.025151 1_555
Hf2 O11 2.126277 1_545
Hf2 O9 2.151620 1_445
Hf2 O10 2.155252 1_555
Hf3 O20 1.974916 1_556
Hf3 O19 2.050157 1_556
Hf3 O55 2.053525 1_555
Hf3 O56 2.109635 1_555
Hf3 O18 2.117134 1_556
Hf3 O54 2.373998 1_555
Hf4 O58 1.995789 1_555
Hf4 O22 2.037565 1_555
Hf4 O21 2.054772 1_555
Hf4 O57 2.067183 1_555
Hf4 O59 2.073414 1_555
Hf4 O23 2.287356 1_555
Hf5 O26 1.996439 1_554
Hf5 O61 2.002463 1_555
Hf5 O25 2.010346 1_554
Hf5 O62 2.078200 1_555
Hf5 O60 2.083110 1_555
Hf5 O24 2.266985 1_554
Hf6 O27 1.960991 1_555
Hf6 O28 2.017508 1_555
Hf6 O29 2.023780 1_555
Hf6 O63 2.080937 1_555
Hf6 O64 2.109223 1_555
Hf6 O65 2.305155 1_555
Hf7 O32 1.966847 1_555
Hf7 O30 1.967268 1_555
Hf7 O31 1.978097 1_555
Hf7 O66 2.224437 1_555
Hf7 O68 2.255388 1_555
Hf7 O67 2.263757 1_555
Hf8 O34 2.002557 1_555
Hf8 O33 2.021669 1_555
Hf8 O71 2.071364 1_555
Hf8 O69 2.105176 1_555
Hf8 O35 2.112461 1_555
Hf8 O70 2.202537 1_555
O0 S0 1.478961 1_545
O0 Zn0 2.173795 1_545
O1 S1 1.480238 1_555
O1 Zn0 2.169077 1_655
O2 S2 1.481155 1_655
O2 Zn0 2.175329 1_645
O3 Si0 1.653313 1_555
O4 S3 1.469125 1_655
O5 Si1 1.638100 1_555
O6 Si1 1.663610 1_565
O7 Si0 1.672654 1_555
O8 S3 1.513059 1_555
O9 S1 1.522305 1_555
O10 S2 1.520957 1_555
O11 S0 1.520705 1_555
O12 S4 1.457675 1_555
O12 Zn1 2.527610 1_555
O13 Si2 1.612819 1_555
O13 Zn1 1.991917 1_555
O14 Si3 1.593593 1_555
O14 Zn1 1.945415 1_555
O15 Si4 1.606038 1_555
O15 Zn2 1.932473 1_555
O16 Si5 1.606130 1_555
O16 Zn2 1.934649 1_555
O17 Si6 1.607434 1_555
O17 Zn2 1.931702 1_555
O18 Si6 1.654756 1_555
O19 Si4 1.644121 1_555
O20 Si5 1.656125 1_555
O21 Si2 1.659483 1_555
O22 Si3 1.660123 1_555
O23 S4 1.492142 1_555
O24 S5 1.479676 1_555
O25 Si7 1.639514 1_555
O26 Si8 1.637069 1_555
O27 Si9 1.655271 1_555
O28 Si10 1.644503 1_555
O29 Si11 1.647185 1_555
O30 Si11 1.643152 1_555
O31 Si9 1.642989 1_555
O32 Si10 1.639715 1_555
O33 Si7 1.648029 1_555
O34 Si8 1.648117 1_555
O35 S5 1.499973 1_555
O36 Si11 1.618992 1_555
O36 Zn0 2.083133 1_555
O37 Si9 1.613987 1_555
O37 Zn0 2.071086 1_655
O38 Si10 1.613786 1_555
O38 Zn0 2.068541 1_545
O39 Si7 1.663539 1_555
O40 Si8 1.654510 1_555
O41 S5 1.474628 1_555
O42 S4 1.517919 1_555
O43 Si2 1.665739 1_555
O44 Si3 1.665375 1_555
O45 Si4 1.668251 1_555
O46 Si5 1.659472 1_555
O47 Si6 1.676818 1_555
O48 Si1 1.627368 1_555
O48 Zn1 2.208867 1_555
O49 Si0 1.602296 1_555
O49 Zn1 2.019175 1_555
O50 S3 1.450476 1_655
O50 Zn1 2.555896 1_555
O51 S1 1.456470 1_555
O52 S2 1.457685 1_655
O53 S0 1.456454 1_545
O54 S5 1.479159 1_555
O55 Si7 1.623388 1_655
O56 Si8 1.649439 1_545
O57 Si9 1.636366 1_545
O58 Si10 1.650575 1_555
O59 Si11 1.640543 1_655
O60 Si6 1.643808 1_555
O61 Si4 1.657172 1_455
O62 Si5 1.640657 1_565
O63 Si2 1.652997 1_565
O64 Si3 1.666720 1_555
O65 S4 1.491271 1_455
O66 S0 1.513033 1_555
O67 S1 1.515068 1_555
O68 S2 1.514217 1_555
O69 Si0 1.652320 1_555
O70 S3 1.514627 1_555
O71 Si1 1.650894 1_565
