# generated using pymatgen
data_Li3Cr(PO3)8
_symmetry_space_group_name_H-M   'P 1'
_cell_length_a   7.28668991
_cell_length_b   7.28668991
_cell_length_c   10.02471852
_cell_angle_alpha   66.76142783
_cell_angle_beta   66.76142783
_cell_angle_gamma   70.12322841
_symmetry_Int_Tables_number   1
_chemical_formula_structural   Li3Cr(PO3)8
_chemical_formula_sum   'Li3 Cr1 P8 O24'
_cell_volume   438.56851685
_cell_formula_units_Z   1
loop_
 _symmetry_equiv_pos_site_id
 _symmetry_equiv_pos_as_xyz
  1  'x, y, z'
loop_
 _atom_site_type_symbol
 _atom_site_label
 _atom_site_symmetry_multiplicity
 _atom_site_fract_x
 _atom_site_fract_y
 _atom_site_fract_z
 _atom_site_occupancy
  Li  Li0  1  0.05218400  0.94781600  0.50000000  1
  Li  Li1  1  0.48633500  0.99583400  0.25716700  1
  Li  Li2  1  0.00416600  0.51366500  0.74283300  1
  Cr  Cr0  1  0.94798000  0.05202000  0.00000000  1
  P  P0  1  0.26360400  0.74152100  0.77852300  1
  P  P1  1  0.68646600  0.69954700  0.55957800  1
  P  P2  1  0.25847900  0.73639600  0.22147700  1
  P  P3  1  0.30375900  0.29228200  0.95386000  1
  P  P4  1  0.30045300  0.31353400  0.44042200  1
  P  P5  1  0.75275400  0.27488900  0.26894400  1
  P  P6  1  0.72511100  0.24724600  0.73105600  1
  P  P7  1  0.70771800  0.69624100  0.04614000  1
  O  O0  1  0.11656800  0.26327500  0.93792900  1
  O  O1  1  0.91980300  0.16484400  0.34024400  1
  O  O2  1  0.54005300  0.30191700  0.40073600  1
  O  O3  1  0.15664300  0.91464400  0.84718200  1
  O  O4  1  0.08535600  0.84335700  0.15281800  1
  O  O5  1  0.73324100  0.18677700  0.16057000  1
  O  O6  1  0.23307100  0.50186200  0.30347600  1
  O  O7  1  0.46686300  0.71511300  0.08181800  1
  O  O8  1  0.81322300  0.26675900  0.83943000  1
  O  O9  1  0.81453500  0.64665100  0.90090300  1
  O  O10  1  0.48971400  0.23095900  0.81360500  1
  O  O11  1  0.28736300  0.81211600  0.32849400  1
  O  O12  1  0.18788400  0.71263700  0.67150600  1
  O  O13  1  0.35334900  0.18546500  0.09909700  1
  O  O14  1  0.83515600  0.08019700  0.65975600  1
  O  O15  1  0.27607700  0.12316400  0.43069500  1
  O  O16  1  0.87683600  0.72392300  0.56930500  1
  O  O17  1  0.64535000  0.80697100  0.40925500  1
  O  O18  1  0.73672500  0.88343200  0.06207100  1
  O  O19  1  0.19302900  0.35465000  0.59074500  1
  O  O20  1  0.76904100  0.51028600  0.18639500  1
  O  O21  1  0.69808300  0.45994700  0.59926400  1
  O  O22  1  0.49813800  0.76692900  0.69652400  1
  O  O23  1  0.28488700  0.53313700  0.91818200  1
loop_
_geom_bond_atom_site_label_1
_geom_bond_atom_site_label_2
_geom_bond_distance
_geom_bond_site_symmetry_2
Li0 O1 2.044355 1_465
Li0 O14 2.044355 1_465
Li0 O16 2.144605 1_455
Li0 O15 2.144605 1_565
Li0 O11 2.175937 1_555
Li0 O12 2.175937 1_555
Li1 O13 1.983100 1_565
Li1 O11 2.037601 1_555
Li1 O17 2.053048 1_555
Li1 O15 2.106683 1_565
Li1 O18 2.292773 1_555
Li1 O5 2.318313 1_565
Li2 O9 1.983100 1_455
Li2 O12 2.037601 1_555
Li2 O19 2.053048 1_555
Li2 O16 2.106683 1_455
Li2 O0 2.292773 1_555
Li2 O8 2.318313 1_455
Cr0 O4 1.999454 1_645
Cr0 O3 1.999454 1_644
Cr0 O0 2.047606 1_654
Cr0 O18 2.047606 1_545
Cr0 O8 2.053909 1_554
Cr0 O5 2.053909 1_555
O0 P3 1.524882 1_555
O1 P5 1.485294 1_555
O2 P5 1.602606 1_555
O2 P4 1.609827 1_555
O3 P0 1.505269 1_555
O4 P2 1.505269 1_555
O5 P5 1.532042 1_555
O6 P4 1.611222 1_555
O6 P2 1.617740 1_555
O7 P7 1.614417 1_555
O7 P2 1.619704 1_555
O8 P6 1.532042 1_555
O9 P7 1.478465 1_556
O10 P6 1.606812 1_555
O10 P3 1.610353 1_555
O11 P2 1.491274 1_555
O12 P0 1.491274 1_555
O13 P3 1.478465 1_554
O14 P6 1.485294 1_555
O15 P4 1.501080 1_555
O16 P1 1.501080 1_555
O17 P1 1.496440 1_555
O18 P7 1.524882 1_555
O19 P4 1.496440 1_555
O20 P5 1.606812 1_555
O20 P7 1.610353 1_555
O21 P6 1.602606 1_555
O21 P1 1.609827 1_555
O22 P1 1.611222 1_555
O22 P0 1.617740 1_555
O23 P3 1.614417 1_555
O23 P0 1.619704 1_555
