# generated using pymatgen
data_Nb3Cl5O2
_symmetry_space_group_name_H-M   'P 1'
_cell_length_a   6.74894069
_cell_length_b   8.15280247
_cell_length_c   14.72144038
_cell_angle_alpha   90.00000000
_cell_angle_beta   90.00000000
_cell_angle_gamma   90.00000000
_symmetry_Int_Tables_number   1
_chemical_formula_structural   Nb3Cl5O2
_chemical_formula_sum   'Nb12 Cl20 O8'
_cell_volume   810.01458013
_cell_formula_units_Z   4
loop_
 _symmetry_equiv_pos_site_id
 _symmetry_equiv_pos_as_xyz
  1  'x, y, z'
loop_
 _atom_site_type_symbol
 _atom_site_label
 _atom_site_symmetry_multiplicity
 _atom_site_fract_x
 _atom_site_fract_y
 _atom_site_fract_z
 _atom_site_occupancy
  Nb  Nb0  1  0.71070821  0.73924819  0.26020241  1
  Nb  Nb1  1  0.71070821  0.26075181  0.73979759  1
  Nb  Nb2  1  0.78929179  0.23924819  0.23979759  1
  Nb  Nb3  1  0.78929179  0.76075181  0.76020241  1
  Nb  Nb4  1  0.28929179  0.26075181  0.73979759  1
  Nb  Nb5  1  0.28929179  0.73924819  0.26020241  1
  Nb  Nb6  1  0.21070821  0.76075181  0.76020241  1
  Nb  Nb7  1  0.21070821  0.23924819  0.23979759  1
  Nb  Nb8  1  0.50000000  0.47279043  0.63522387  1
  Nb  Nb9  1  0.50000000  0.52720957  0.36477613  1
  Nb  Nb10  1  -0.00000000  0.97279043  0.86477613  1
  Nb  Nb11  1  -0.00000000  0.02720957  0.13522387  1
  Cl  Cl0  1  0.50000000  0.17221767  0.61140699  1
  Cl  Cl1  1  0.50000000  0.82778233  0.38859301  1
  Cl  Cl2  1  -0.00000000  0.67221767  0.88859301  1
  Cl  Cl3  1  -0.00000000  0.32778233  0.11140699  1
  Cl  Cl4  1  0.23977142  0.00000000  0.00000000  1
  Cl  Cl5  1  0.26022858  0.50000000  0.50000000  1
  Cl  Cl6  1  0.76022858  0.00000000  0.00000000  1
  Cl  Cl7  1  0.73977142  0.50000000  0.50000000  1
  Cl  Cl8  1  -0.00000000  0.20902226  0.37276743  1
  Cl  Cl9  1  -0.00000000  0.79097774  0.62723257  1
  Cl  Cl10  1  0.50000000  0.70902226  0.12723257  1
  Cl  Cl11  1  0.50000000  0.29097774  0.87276743  1
  Cl  Cl12  1  0.50000000  0.20606426  0.35823601  1
  Cl  Cl13  1  0.50000000  0.79393574  0.64176399  1
  Cl  Cl14  1  -0.00000000  0.70606426  0.14176399  1
  Cl  Cl15  1  -0.00000000  0.29393574  0.85823601  1
  Cl  Cl16  1  0.50000000  0.27379949  0.13007578  1
  Cl  Cl17  1  0.50000000  0.72620051  0.86992422  1
  Cl  Cl18  1  -0.00000000  0.77379949  0.36992422  1
  Cl  Cl19  1  -0.00000000  0.22620051  0.63007578  1
  O  O0  1  0.72185272  0.49007832  0.27387219  1
  O  O1  1  0.72185272  0.50992168  0.72612781  1
  O  O2  1  0.77814728  0.99007832  0.22612781  1
  O  O3  1  0.77814728  0.00992168  0.77387219  1
  O  O4  1  0.27814728  0.50992168  0.72612781  1
  O  O5  1  0.27814728  0.49007832  0.27387219  1
  O  O6  1  0.22185272  0.00992168  0.77387219  1
  O  O7  1  0.22185272  0.99007832  0.22612781  1
loop_
_geom_bond_atom_site_label_1
_geom_bond_atom_site_label_2
_geom_bond_distance
_geom_bond_site_symmetry_2
Nb0 O0 2.042761 1_555
Nb0 O2 2.154224 1_555
Nb1 O1 2.042761 1_555
Nb1 O3 2.154224 1_555
Nb2 O2 2.042761 1_545
Nb2 O0 2.154224 1_555
Nb3 O3 2.042761 1_565
Nb3 O1 2.154224 1_555
Nb4 O4 2.042761 1_555
Nb4 O6 2.154224 1_555
Nb5 O5 2.042761 1_555
Nb5 O7 2.154224 1_555
Nb6 O6 2.042761 1_565
Nb6 O4 2.154224 1_555
Nb7 O7 2.042761 1_545
Nb7 O5 2.154224 1_555
Nb8 O4 2.030847 1_555
Nb8 O1 2.030847 1_555
Nb9 O5 2.030847 1_555
Nb9 O0 2.030847 1_555
Nb10 O6 2.030847 1_565
Nb10 O3 2.030847 1_465
Nb11 O7 2.030847 1_545
Nb11 O2 2.030847 1_445
Cl0 Nb4 2.472994 1_555
Cl0 Nb1 2.472994 1_555
Cl0 Nb8 2.475467 1_555
Cl1 Nb0 2.472994 1_555
Cl1 Nb5 2.472994 1_555
Cl1 Nb9 2.475467 1_555
Cl2 Nb3 2.472994 1_455
Cl2 Nb6 2.472994 1_555
Cl2 Nb10 2.475467 1_555
Cl3 Nb2 2.472994 1_455
Cl3 Nb7 2.472994 1_555
Cl3 Nb11 2.475467 1_555
Cl4 Nb11 2.575003 1_555
Cl4 Nb10 2.575003 1_544
Cl5 Nb9 2.575003 1_555
Cl5 Nb8 2.575003 1_555
Cl6 Nb11 2.575003 1_655
Cl6 Nb10 2.575003 1_644
Cl7 Nb9 2.575003 1_555
Cl7 Nb8 2.575003 1_555
Cl8 Nb7 2.432038 1_555
Cl8 Nb2 2.432038 1_455
Cl9 Nb3 2.432038 1_455
Cl9 Nb6 2.432038 1_555
Cl10 Nb5 2.432038 1_555
Cl10 Nb0 2.432038 1_555
Cl11 Nb4 2.432038 1_555
Cl11 Nb1 2.432038 1_555
Cl12 Nb9 2.620004 1_555
Cl12 Nb7 2.631577 1_555
Cl12 Nb2 2.631577 1_555
Cl13 Nb8 2.620004 1_555
Cl13 Nb6 2.631577 1_555
Cl13 Nb3 2.631577 1_555
Cl14 Nb11 2.620004 1_565
Cl14 Nb0 2.631577 1_455
Cl14 Nb5 2.631577 1_555
Cl15 Nb10 2.620004 1_545
Cl15 Nb1 2.631577 1_455
Cl15 Nb4 2.631577 1_555
Cl16 Nb2 2.549577 1_555
Cl16 Nb7 2.549577 1_555
Cl17 Nb6 2.549577 1_555
Cl17 Nb3 2.549577 1_555
Cl18 Nb0 2.549577 1_455
Cl18 Nb5 2.549577 1_555
Cl19 Nb1 2.549577 1_455
Cl19 Nb4 2.549577 1_555
