# generated using pymatgen
data_Na2Mg5Ge3(SO4)12
_symmetry_space_group_name_H-M   'P 1'
_cell_length_a   17.01971184
_cell_length_b   8.51502678
_cell_length_c   22.20754765
_cell_angle_alpha   90.07976385
_cell_angle_beta   89.95154829
_cell_angle_gamma   120.01188008
_symmetry_Int_Tables_number   1
_chemical_formula_structural   Na2Mg5Ge3(SO4)12
_chemical_formula_sum   'Na6 Mg15 Ge9 S36 O144'
_cell_volume   2786.87201971
_cell_formula_units_Z   3
loop_
 _symmetry_equiv_pos_site_id
 _symmetry_equiv_pos_as_xyz
  1  'x, y, z'
loop_
 _atom_site_type_symbol
 _atom_site_label
 _atom_site_symmetry_multiplicity
 _atom_site_fract_x
 _atom_site_fract_y
 _atom_site_fract_z
 _atom_site_occupancy
  Na  Na0  1  0.00016668  0.00011335  0.50157044  1
  Na  Na1  1  0.50274579  0.00435889  0.99909050  1
  Na  Na2  1  0.33466023  0.33494642  0.83001932  1
  Na  Na3  1  0.83204010  0.33143548  0.83104306  1
  Na  Na4  1  0.33224840  0.33385422  0.33725362  1
  Na  Na5  1  0.83448050  0.33280843  0.33362550  1
  Mg  Mg0  1  0.00097095  0.00147799  0.35497077  1
  Mg  Mg1  1  0.50056623  0.00036268  0.85303590  1
  Mg  Mg2  1  -0.00008502  0.99944528  0.64604313  1
  Mg  Mg3  1  0.50246870  0.00314925  0.14648807  1
  Mg  Mg4  1  0.33177896  0.33112561  0.68316936  1
  Mg  Mg5  1  0.83486767  0.33586018  0.68360713  1
  Mg  Mg6  1  0.83121824  0.33178685  0.18367543  1
  Mg  Mg7  1  0.33100116  0.33130371  0.98015805  1
  Mg  Mg8  1  0.83561841  0.33532166  0.98242827  1
  Mg  Mg9  1  0.33576355  0.33673964  0.48426395  1
  Mg  Mg10  1  0.83118286  0.33022999  0.48345646  1
  Mg  Mg11  1  0.16436355  0.66272371  0.31060666  1
  Mg  Mg12  1  0.66889790  0.66896576  0.31106867  1
  Mg  Mg13  1  0.16891033  0.66985204  0.80891009  1
  Mg  Mg14  1  0.66433684  0.66347952  0.80829588  1
  Ge  Ge0  1  0.50048075  0.99853326  0.35386215  1
  Ge  Ge1  1  0.99885406  0.99893391  0.84854541  1
  Ge  Ge2  1  0.50015017  0.00000762  0.64967547  1
  Ge  Ge3  1  0.99577014  0.99716496  0.14940770  1
  Ge  Ge4  1  0.33448647  0.33380892  0.18264789  1
  Ge  Ge5  1  0.16232471  0.66620066  0.01590838  1
  Ge  Ge6  1  0.67137863  0.66739752  0.01645791  1
  Ge  Ge7  1  0.16629081  0.66529570  0.52063268  1
  Ge  Ge8  1  0.66647182  0.66724439  0.52091774  1
  S  S0  1  0.14683395  0.00514895  0.24699753  1
  S  S1  1  0.64399707  0.00123980  0.25120477  1
  S  S2  1  0.35582117  0.70721954  0.24878598  1
  S  S3  1  0.85622246  0.70945557  0.25028854  1
  S  S4  1  0.99875851  0.28669510  0.24953546  1
  S  S5  1  0.49757424  0.28815945  0.24940778  1
  S  S6  1  0.14453418  0.28669135  0.75071359  1
  S  S7  1  0.64503989  0.28707075  0.74951431  1
  S  S8  1  -0.00094348  0.71038386  0.75049040  1
  S  S9  1  0.49833235  0.71008508  0.74955704  1
  S  S10  1  0.35676140  0.00294689  0.74964574  1
  S  S11  1  0.85582458  0.00193712  0.75038598  1
  S  S12  1  0.48261735  0.33193697  0.58300347  1
  S  S13  1  0.98253177  0.33763412  0.58125500  1
  S  S14  1  0.18673352  0.03524218  0.58037344  1
  S  S15  1  0.68298301  0.03407229  0.58376474  1
  S  S16  1  0.33418747  0.63365133  0.58361433  1
  S  S17  1  0.83085471  0.62709100  0.58066113  1
  S  S18  1  0.48074392  0.62245610  0.08195314  1
  S  S19  1  0.98327105  0.63365160  0.08314332  1
  S  S20  1  0.33014485  0.03714076  0.08156313  1
  S  S21  1  0.83310448  0.03422655  0.08330774  1
  S  S22  1  0.18506633  0.33340045  0.08420044  1
  S  S23  1  0.68669754  0.33900792  0.08022851  1
  S  S24  1  0.30987774  0.66770858  0.91805338  1
  S  S25  1  0.81487979  0.67206330  0.91413014  1
  S  S26  1  0.02218540  0.37192803  0.91508149  1
  S  S27  1  0.52277150  0.37886937  0.91714004  1
  S  S28  1  0.16328489  0.95550511  0.91464621  1
  S  S29  1  0.66704758  0.95383040  0.91780871  1
  S  S30  1  0.31366961  0.95605641  0.41418123  1
  S  S31  1  0.81004723  0.95414963  0.41786464  1
  S  S32  1  0.16783766  0.37981195  0.41762465  1
  S  S33  1  0.66395589  0.37339989  0.41482970  1
  S  S34  1  0.02247333  0.66609076  0.41706360  1
  S  S35  1  0.52226745  0.67012364  0.41539596  1
  O  O0  1  0.11057261  0.04607605  0.30004588  1
  O  O1  1  0.60264299  0.04251721  0.30846444  1
  O  O2  1  0.41463549  0.78119673  0.30508173  1
  O  O3  1  0.91538141  0.79576072  0.30175420  1
  O  O4  1  0.47529309  0.16904999  0.30521608  1
  O  O5  1  0.98375235  0.17175791  0.30170139  1
  O  O6  1  0.10510347  0.16744794  0.80916127  1
  O  O7  1  0.60407172  0.17297010  0.80248498  1
  O  O8  1  0.48226809  0.79197522  0.80265957  1
  O  O9  1  0.97859728  0.78880824  0.80896993  1
  O  O10  1  0.41354442  0.03450413  0.80268620  1
  O  O11  1  0.91585209  0.04386121  0.80885670  1
  O  O12  1  0.39767144  0.96929337  0.69254749  1
  O  O13  1  0.89921650  0.97569326  0.69863064  1
  O  O14  1  0.08866424  0.20093246  0.69875615  1
  O  O15  1  0.58680468  0.20488710  0.69255328  1
  O  O16  1  0.01202366  0.82248808  0.69868116  1
  O  O17  1  0.51543830  0.82615365  0.69267948  1
  O  O18  1  0.39774657  0.81516602  0.19573127  1
  O  O19  1  0.89643908  0.82387315  0.19210807  1
  O  O20  1  0.01702188  0.20519513  0.19192922  1
  O  O21  1  0.50879019  0.20415038  0.19586371  1
  O  O22  1  0.09061007  0.97452372  0.19101522  1
  O  O23  1  0.58810935  0.97534819  0.19858449  1
  O  O24  1  0.44503704  0.36903140  0.63625725  1
  O  O25  1  0.94395483  0.37086565  0.63523605  1
  O  O26  1  0.24142431  0.11186386  0.63447934  1
  O  O27  1  0.73918251  0.10941851  0.63699491  1
  O  O28  1  0.31582064  0.52175557  0.63699703  1
  O  O29  1  0.81461840  0.51747926  0.63454775  1
  O  O30  1  0.44072013  0.50507043  0.13953793  1
  O  O31  1  0.94598665  0.52279493  0.13658804  1
  O  O32  1  0.31164655  0.11670650  0.13858462  1
  O  O33  1  0.81598163  0.10922982  0.13727774  1
  O  O34  1  0.24523283  0.37491733  0.13997804  1
  O  O35  1  0.74058289  0.37100702  0.13472012  1
  O  O36  1  0.22459314  0.29719886  0.03219384  1
  O  O37  1  0.72776803  0.31075109  0.02660901  1
  O  O38  1  0.42213302  0.53658751  0.03063136  1
  O  O39  1  0.92946578  0.55948645  0.02890129  1
  O  O40  1  0.34534850  0.15175102  0.02967896  1
  O  O41  1  0.85105199  0.14517085  0.02978873  1
  O  O42  1  0.22743430  0.14470763  0.52634865  1
  O  O43  1  0.72025417  0.14190000  0.52948404  1
  O  O44  1  0.35173424  0.55840616  0.52963658  1
  O  O45  1  0.84394890  0.54630026  0.52619647  1
  O  O46  1  0.42862315  0.29830859  0.52860211  1
  O  O47  1  0.92815698  0.31020178  0.52717516  1
  O  O48  1  0.26856484  0.70235843  0.97654038  1
  O  O49  1  0.77701570  0.70986536  0.97172480  1
  O  O50  1  0.07962486  0.44881491  0.97327440  1
  O  O51  1  0.58055946  0.46076295  0.97487603  1
  O  O52  1  0.14483831  0.84163355  0.97245514  1
  O  O53  1  0.64999173  0.83799939  0.97614627  1
  O  O54  1  0.27599093  0.84347089  0.46989461  1
  O  O55  1  0.76806216  0.83689414  0.47459057  1
  O  O56  1  0.15180145  0.46280375  0.47447124  1
  O  O57  1  0.64549926  0.45097826  0.47064428  1
  O  O58  1  0.08122674  0.70008817  0.47329685  1
  O  O59  1  0.57887621  0.70706651  0.47157172  1
  O  O60  1  0.06448758  0.64081607  0.36347020  1
  O  O61  1  0.56319689  0.64193719  0.36247429  1
  O  O62  1  0.25885584  0.87484361  0.36085611  1
  O  O63  1  0.75522286  0.86969264  0.36475495  1
  O  O64  1  0.18085643  0.48972677  0.36446286  1
  O  O65  1  0.67791202  0.48272157  0.36162620  1
  O  O66  1  0.06517809  0.48824047  0.86390136  1
  O  O67  1  0.56536598  0.48999389  0.86476310  1
  O  O68  1  0.17921442  0.87092623  0.86337501  1
  O  O69  1  0.67947970  0.86717339  0.86553711  1
  O  O70  1  0.25409554  0.64179734  0.86577894  1
  O  O71  1  0.75702001  0.64135181  0.86279034  1
  O  O72  1  0.01539164  0.83118297  0.41359103  1
  O  O73  1  0.51422569  0.83948679  0.40971191  1
  O  O74  1  0.40644462  0.96890194  0.40775456  1
  O  O75  1  0.89987243  0.96968344  0.41481669  1
  O  O76  1  0.08550671  0.20042921  0.41431740  1
  O  O77  1  0.57784619  0.18921899  0.40906392  1
  O  O78  1  0.01515444  0.18998857  0.90978404  1
  O  O79  1  0.51476575  0.19908139  0.91457127  1
  O  O80  1  0.07953380  0.96973398  0.90945771  1
  O  O81  1  0.58460214  0.96838801  0.91547009  1
  O  O82  1  0.39954398  0.83114685  0.91578303  1
  O  O83  1  0.90616360  0.84171439  0.90899740  1
  O  O84  1  0.49530313  0.17053004  0.59156498  1
  O  O85  1  0.99626299  0.18133410  0.58740568  1
  O  O86  1  0.09453865  0.00586376  0.58670502  1
  O  O87  1  0.58960056  0.01040303  0.59205384  1
  O  O88  1  0.41555068  0.82055882  0.59201823  1
  O  O89  1  0.90866894  0.81126176  0.58676934  1
  O  O90  1  0.49001983  0.80094266  0.09087650  1
  O  O91  1  0.99645287  0.82175832  0.09185147  1
  O  O92  1  0.40892994  0.01527093  0.09063938  1
  O  O93  1  0.91601984  0.01164161  0.09099143  1
  O  O94  1  0.09457258  0.17021225  0.09486491  1
  O  O95  1  0.59422755  0.18196125  0.08633214  1
  O  O96  1  0.34875557  0.16534378  0.74131760  1
  O  O97  1  0.84847204  0.16639409  0.74671143  1
  O  O98  1  0.23435006  0.30188991  0.74725398  1
  O  O99  1  0.73412170  0.30264765  0.74087333  1
  O  O100  1  0.41686681  0.53184710  0.74099094  1
  O  O101  1  0.91693497  0.53098158  0.74704411  1
  O  O102  1  0.34832237  0.51943949  0.24298389  1
  O  O103  1  0.84879505  0.53181517  0.24152712  1
  O  O104  1  0.41071540  0.30237501  0.24355082  1
  O  O105  1  0.91716227  0.30073998  0.24061041  1
  O  O106  1  0.24023504  0.17809335  0.23841433  1
  O  O107  1  0.73341431  0.16618522  0.24758264  1
  O  O108  1  0.31706110  0.50475036  0.92619702  1
  O  O109  1  0.82605599  0.51406195  0.92326425  1
  O  O110  1  0.43322098  0.36264323  0.92502298  1
  O  O111  1  0.93279070  0.35218563  0.92459691  1
  O  O112  1  0.24301266  0.13485188  0.92388458  1
  O  O113  1  0.74822469  0.13232936  0.92578939  1
  O  O114  1  0.32727234  0.13877257  0.42222436  1
  O  O115  1  0.81769280  0.13220913  0.42537488  1
  O  O116  1  0.24896060  0.36234828  0.42494998  1
  O  O117  1  0.74213868  0.34818604  0.42277530  1
  O  O118  1  0.43158177  0.51262136  0.42360711  1
  O  O119  1  0.93275670  0.50422444  0.42423657  1
  O  O120  1  0.17563202  0.49736744  0.07714959  1
  O  O121  1  0.67914807  0.50992588  0.07314092  1
  O  O122  1  0.07729823  0.65329937  0.07455012  1
  O  O123  1  0.57117701  0.63748607  0.07640395  1
  O  O124  1  0.24602820  0.85530697  0.07550475  1
  O  O125  1  0.75075845  0.84787652  0.07489903  1
  O  O126  1  0.18058277  0.85067483  0.57295780  1
  O  O127  1  0.67139961  0.84599139  0.57532627  1
  O  O128  1  0.25172135  0.65473079  0.57465997  1
  O  O129  1  0.74465260  0.64132758  0.57402625  1
  O  O130  1  0.07602601  0.50813548  0.57472826  1
  O  O131  1  0.57569718  0.49887035  0.57394578  1
  O  O132  1  0.15906992  0.84959058  0.25274072  1
  O  O133  1  0.65024855  0.84032484  0.26088369  1
  O  O134  1  0.26693349  0.68365841  0.25848871  1
  O  O135  1  0.76802707  0.69609189  0.25492022  1
  O  O136  1  0.08024097  0.46387487  0.25382697  1
  O  O137  1  0.57446062  0.46529907  0.25892835  1
  O  O138  1  0.15105311  0.46104738  0.76092538  1
  O  O139  1  0.65150588  0.46316428  0.75456974  1
  O  O140  1  0.07986058  0.69788433  0.76075834  1
  O  O141  1  0.57991068  0.69702995  0.75444548  1
  O  O142  1  0.26849839  0.83928664  0.75445357  1
  O  O143  1  0.76899956  0.84094828  0.76078703  1
loop_
_geom_bond_atom_site_label_1
_geom_bond_atom_site_label_2
_geom_bond_distance
_geom_bond_site_symmetry_2
Na0 O86 2.466356 1_555
Na0 O89 2.467642 1_445
Na0 O85 2.472506 1_455
Na0 O75 2.500875 1_445
Na0 O76 2.509925 1_555
Na0 O72 2.513528 1_545
Na1 O81 2.429839 1_545
Na1 O79 2.445962 1_555
Na1 O82 2.467705 1_545
Na1 O95 2.471099 1_556
Na1 O92 2.614181 1_556
Na1 O90 2.614516 1_546
Na2 O98 2.428039 1_555
Na2 O100 2.517031 1_555
Na2 O96 2.522170 1_555
Na2 O110 2.632420 1_555
Na2 O112 2.650851 1_555
Na2 O108 2.676903 1_555
Na3 O97 2.438339 1_555
Na3 O101 2.450072 1_555
Na3 O99 2.538280 1_555
Na3 O109 2.602338 1_555
Na3 O113 2.630961 1_555
Na3 O111 2.643846 1_555
Na4 O114 2.488970 1_555
Na4 O116 2.489816 1_555
Na4 O118 2.505164 1_555
Na4 O102 2.555501 1_555
Na4 O104 2.556834 1_555
Na4 O106 2.636174 1_555
Na5 O107 2.485878 1_555
Na5 O119 2.555887 1_555
Na5 O117 2.570341 1_555
Na5 O115 2.582882 1_555
Na5 O105 2.588359 1_555
Na5 O103 2.590334 1_555
Mg0 O5 2.004514 1_455
Mg0 O3 2.007889 1_445
Mg0 O72 2.054135 1_545
Mg0 O76 2.058072 1_555
Mg0 O75 2.081212 1_445
Mg0 O0 2.097730 1_555
Mg1 O7 1.983669 1_555
Mg1 O8 1.984791 1_545
Mg1 O10 1.990681 1_555
Mg1 O79 2.091433 1_555
Mg1 O81 2.106219 1_545
Mg1 O82 2.120693 1_545
Mg2 O13 1.998146 1_455
Mg2 O16 1.998832 1_555
Mg2 O14 2.000107 1_565
Mg2 O85 2.049481 1_465
Mg2 O89 2.054342 1_455
Mg2 O86 2.059522 1_565
Mg3 O23 1.966687 1_545
Mg3 O21 1.988470 1_555
Mg3 O18 2.020497 1_545
Mg3 O90 2.040654 1_545
Mg3 O95 2.040912 1_555
Mg3 O92 2.061905 1_555
Mg4 O26 2.035888 1_555
Mg4 O96 2.038986 1_555
Mg4 O100 2.046520 1_555
Mg4 O28 2.050888 1_555
Mg4 O24 2.068911 1_555
Mg4 O98 2.102636 1_555
Mg5 O25 2.033163 1_555
Mg5 O99 2.037060 1_555
Mg5 O29 2.058128 1_555
Mg5 O27 2.073049 1_555
Mg5 O101 2.090783 1_555
Mg5 O97 2.107178 1_555
Mg6 O103 2.031244 1_555
Mg6 O35 2.047500 1_555
Mg6 O105 2.049164 1_555
Mg6 O33 2.055153 1_555
Mg6 O31 2.092233 1_555
Mg6 O107 2.104030 1_555
Mg7 O40 1.996292 1_556
Mg7 O38 2.000726 1_556
Mg7 O108 2.007360 1_555
Mg7 O112 2.023356 1_555
Mg7 O110 2.032244 1_555
Mg7 O36 2.042262 1_556
Mg8 O37 1.997281 1_556
Mg8 O111 2.040730 1_555
Mg8 O39 2.051139 1_556
Mg8 O113 2.051186 1_555
Mg8 O41 2.056083 1_556
Mg8 O109 2.079165 1_555
Mg9 O42 1.982934 1_555
Mg9 O46 2.023687 1_555
Mg9 O44 2.033161 1_555
Mg9 O118 2.067757 1_555
Mg9 O116 2.071609 1_555
Mg9 O114 2.123867 1_555
Mg10 O45 1.982098 1_555
Mg10 O47 1.995120 1_555
Mg10 O43 2.038012 1_555
Mg10 O115 2.041252 1_555
Mg10 O119 2.086288 1_555
Mg10 O117 2.090917 1_555
Mg11 O60 1.995633 1_555
Mg11 O136 2.019602 1_555
Mg11 O64 2.024428 1_555
Mg11 O134 2.026016 1_555
Mg11 O62 2.045885 1_555
Mg11 O132 2.083420 1_555
Mg12 O133 1.985020 1_555
Mg12 O63 1.996648 1_555
Mg12 O65 2.011904 1_555
Mg12 O135 2.015451 1_555
Mg12 O137 2.034904 1_555
Mg12 O61 2.043447 1_555
Mg13 O138 1.960569 1_555
Mg13 O140 1.965412 1_555
Mg13 O142 1.992996 1_555
Mg13 O70 2.025940 1_555
Mg13 O68 2.029633 1_555
Mg13 O66 2.066448 1_555
Mg14 O143 1.969337 1_555
Mg14 O141 1.997741 1_555
Mg14 O139 2.000692 1_555
Mg14 O67 2.025952 1_555
Mg14 O69 2.058622 1_555
Mg14 O71 2.071127 1_555
Ge0 O1 1.877937 1_565
Ge0 O74 1.910804 1_555
Ge0 O77 1.931694 1_565
Ge0 O73 1.936290 1_555
Ge0 O2 2.006312 1_555
Ge0 O4 2.021589 1_565
Ge1 O11 1.860779 1_565
Ge1 O9 1.863240 1_555
Ge1 O6 1.870586 1_665
Ge1 O83 1.992967 1_555
Ge1 O78 2.028802 1_665
Ge1 O80 2.030468 1_655
Ge2 O15 1.883935 1_555
Ge2 O12 1.886403 1_545
Ge2 O17 1.887045 1_545
Ge2 O87 1.955831 1_555
Ge2 O88 1.960679 1_545
Ge2 O84 1.976287 1_555
Ge3 O19 1.854814 1_555
Ge3 O20 1.874915 1_665
Ge3 O93 1.926466 1_565
Ge3 O22 1.952113 1_655
Ge3 O91 1.968940 1_555
Ge3 O94 1.997227 1_665
Ge4 O30 1.917185 1_555
Ge4 O106 1.933527 1_555
Ge4 O32 1.950082 1_555
Ge4 O34 1.965533 1_555
Ge4 O104 1.983811 1_555
Ge4 O102 1.992878 1_555
Ge5 O48 1.889392 1_554
Ge5 O122 1.907978 1_555
Ge5 O50 1.922230 1_554
Ge5 O52 1.923669 1_554
Ge5 O124 2.019031 1_555
Ge5 O120 2.073494 1_555
Ge6 O53 1.891384 1_554
Ge6 O121 1.892707 1_555
Ge6 O51 1.901323 1_554
Ge6 O49 1.922945 1_554
Ge6 O125 1.947248 1_555
Ge6 O123 2.075595 1_555
Ge7 O126 1.874139 1_555
Ge7 O130 1.881203 1_555
Ge7 O56 1.911756 1_555
Ge7 O128 1.922465 1_555
Ge7 O58 1.929081 1_555
Ge7 O54 2.055448 1_555
Ge8 O129 1.872797 1_555
Ge8 O131 1.901321 1_555
Ge8 O55 1.907179 1_555
Ge8 O127 1.910738 1_555
Ge8 O59 2.011970 1_555
Ge8 O57 2.025446 1_555
O0 S0 1.450162 1_555
O1 S1 1.574989 1_555
O2 S2 1.526737 1_555
O3 S3 1.455861 1_555
O4 S5 1.525265 1_555
O5 S4 1.455248 1_555
O6 S6 1.576904 1_555
O7 S7 1.462202 1_555
O8 S9 1.462720 1_555
O9 S8 1.575820 1_655
O10 S10 1.461129 1_555
O11 S11 1.579049 1_555
O12 S10 1.540086 1_565
O13 S11 1.441983 1_565
O14 S6 1.440031 1_555
O15 S7 1.542086 1_555
O16 S8 1.440685 1_555
O17 S9 1.540134 1_555
O18 S2 1.444889 1_555
O19 S3 1.556276 1_555
O20 S4 1.558030 1_455
O21 S5 1.447728 1_555
O22 S0 1.510228 1_565
O23 S1 1.452688 1_565
O24 S12 1.451644 1_555
O25 S13 1.460076 1_555
O26 S14 1.458779 1_555
O27 S15 1.452519 1_555
O28 S16 1.454480 1_555
O29 S17 1.457431 1_555
O30 S18 1.555455 1_555
O31 S19 1.450869 1_555
O32 S20 1.540125 1_555
O33 S21 1.453539 1_555
O34 S22 1.531898 1_555
O35 S23 1.459699 1_555
O36 S22 1.444515 1_555
O37 S23 1.459606 1_555
O38 S18 1.448673 1_555
O39 S19 1.452467 1_555
O40 S20 1.448094 1_555
O41 S21 1.453337 1_555
O42 S14 1.464200 1_555
O43 S15 1.455213 1_555
O44 S16 1.457835 1_555
O45 S17 1.461667 1_555
O46 S12 1.457301 1_555
O47 S13 1.462263 1_555
O48 S24 1.572700 1_555
O49 S25 1.536167 1_555
O50 S26 1.553688 1_555
O51 S27 1.552781 1_555
O52 S28 1.544382 1_555
O53 S29 1.565880 1_555
O54 S30 1.499352 1_555
O55 S31 1.543602 1_555
O56 S32 1.535407 1_555
O57 S33 1.508661 1_555
O58 S34 1.534525 1_555
O59 S35 1.510395 1_555
O60 S34 1.458068 1_555
O61 S35 1.445401 1_555
O62 S30 1.450910 1_555
O63 S31 1.451598 1_555
O64 S32 1.453973 1_555
O65 S33 1.449254 1_555
O66 S26 1.443922 1_555
O67 S27 1.445431 1_555
O68 S28 1.442611 1_555
O69 S29 1.445734 1_555
O70 S24 1.445441 1_555
O71 S25 1.442735 1_555
O72 S34 1.471890 1_555
O73 S35 1.520658 1_555
O74 S30 1.533778 1_555
O75 S31 1.468627 1_555
O76 S32 1.469949 1_555
O77 S33 1.524576 1_555
O78 S26 1.497432 1_555
O79 S27 1.468528 1_555
O80 S28 1.494275 1_555
O81 S29 1.470091 1_555
O82 S24 1.464154 1_555
O83 S25 1.506179 1_555
O84 S12 1.506434 1_555
O85 S13 1.468424 1_555
O86 S14 1.466824 1_555
O87 S15 1.509863 1_555
O88 S16 1.510066 1_555
O89 S17 1.467562 1_555
O90 S18 1.460558 1_555
O91 S19 1.514270 1_555
O92 S20 1.457283 1_555
O93 S21 1.526289 1_555
O94 S22 1.489451 1_555
O95 S23 1.475910 1_555
O96 S10 1.467715 1_555
O97 S11 1.469337 1_555
O98 S6 1.470143 1_555
O99 S7 1.466808 1_555
O100 S9 1.468539 1_555
O101 S8 1.468657 1_655
O102 S2 1.544296 1_555
O103 S3 1.466211 1_555
O104 S5 1.548016 1_555
O105 S4 1.465903 1_555
O106 S0 1.546102 1_555
O107 S1 1.468689 1_555
O108 S24 1.464074 1_555
O109 S25 1.464316 1_555
O110 S27 1.470255 1_555
O111 S26 1.459960 1_655
O112 S28 1.463612 1_545
O113 S29 1.466081 1_545
O114 S30 1.464612 1_545
O115 S31 1.464761 1_545
O116 S32 1.469937 1_555
O117 S33 1.460872 1_555
O118 S35 1.464107 1_555
O119 S34 1.466802 1_655
O120 S22 1.491491 1_555
O121 S23 1.532034 1_555
O122 S19 1.535304 1_455
O123 S18 1.484320 1_555
O124 S20 1.499101 1_565
O125 S21 1.513899 1_565
O126 S14 1.530595 1_565
O127 S15 1.523881 1_565
O128 S16 1.514695 1_555
O129 S17 1.538578 1_555
O130 S13 1.532978 1_455
O131 S12 1.522575 1_555
O132 S0 1.445898 1_565
O133 S1 1.442794 1_565
O134 S2 1.439208 1_555
O135 S3 1.451072 1_555
O136 S4 1.454398 1_455
O137 S5 1.434322 1_555
O138 S6 1.449909 1_555
O139 S7 1.451730 1_555
O140 S8 1.449722 1_555
O141 S9 1.451412 1_555
O142 S10 1.454659 1_565
O143 S11 1.445710 1_565
