# generated using pymatgen
data_MgCo6(OF)6
_symmetry_space_group_name_H-M   'P 1'
_cell_length_a   4.83155433
_cell_length_b   4.89817684
_cell_length_c   8.94486229
_cell_angle_alpha   88.78668878
_cell_angle_beta   90.82483158
_cell_angle_gamma   89.77899020
_symmetry_Int_Tables_number   1
_chemical_formula_structural   MgCo6(OF)6
_chemical_formula_sum   'Mg1 Co6 O6 F6'
_cell_volume   211.61616259
_cell_formula_units_Z   1
loop_
 _symmetry_equiv_pos_site_id
 _symmetry_equiv_pos_as_xyz
  1  'x, y, z'
loop_
 _atom_site_type_symbol
 _atom_site_label
 _atom_site_symmetry_multiplicity
 _atom_site_fract_x
 _atom_site_fract_y
 _atom_site_fract_z
 _atom_site_occupancy
  Mg  Mg0  1  0.01090100  0.47812800  0.99348200  1
  Co  Co0  1  0.94356500  0.96841000  0.99139200  1
  Co  Co1  1  0.96271500  0.98351600  0.33339400  1
  Co  Co2  1  0.06527800  0.01775500  0.66135400  1
  Co  Co3  1  0.55312400  0.47320300  0.17794800  1
  Co  Co4  1  0.47887900  0.54039700  0.82089700  1
  Co  Co5  1  0.46682500  0.54783900  0.49736000  1
  O  O0  1  0.16346600  0.77171100  0.84081300  1
  O  O1  1  0.20065600  0.79780500  0.48993600  1
  O  O2  1  0.33712000  0.34643800  0.66146200  1
  O  O3  1  0.65575200  0.68269100  0.99519800  1
  O  O4  1  0.66797500  0.69277600  0.33597600  1
  O  O5  1  0.83589700  0.21071000  0.15393900  1
  F  F0  1  0.16217400  0.71546100  0.15641300  1
  F  F1  1  0.32833600  0.27999500  0.33792300  1
  F  F2  1  0.33023100  0.25266800  0.99463800  1
  F  F3  1  0.69556000  0.74601400  0.65692900  1
  F  F4  1  0.83162900  0.25743900  0.82888200  1
  F  F5  1  0.82380600  0.22315700  0.50064100  1
loop_
_geom_bond_atom_site_label_1
_geom_bond_atom_site_label_2
_geom_bond_distance
_geom_bond_site_symmetry_2
Mg0 O3 1.984123 1_455
Mg0 O0 2.104787 1_555
Mg0 O5 2.110576 1_456
Co0 O5 1.970600 1_566
Co0 O3 1.976828 1_555
Co0 O0 1.989854 1_655
Co0 F4 2.072218 1_565
Co0 F0 2.167280 1_656
Co0 F2 2.334492 1_665
Co1 O1 2.000357 1_655
Co1 O4 2.017847 1_555
Co1 O5 2.020218 1_565
Co1 F5 2.040458 1_565
Co1 F1 2.291583 1_665
Co1 F0 2.298027 1_655
Co2 O1 2.008222 1_545
Co2 O0 2.036173 1_545
Co2 F5 2.078787 1_455
Co2 O2 2.081669 1_555
Co2 F3 2.232190 1_445
Co2 F4 2.238578 1_455
Co3 O4 1.873269 1_555
Co3 O5 1.890085 1_555
Co3 O3 1.981705 1_554
Co3 F1 2.029316 1_555
Co3 F0 2.230619 1_555
Co3 F2 2.246850 1_554
Co4 O2 1.854671 1_555
Co4 O0 1.908110 1_555
Co4 O3 1.912882 1_555
Co4 F3 2.061861 1_555
Co4 F4 2.191999 1_555
Co4 F2 2.205551 1_555
Co5 O1 1.771802 1_555
Co5 O2 1.868281 1_555
Co5 O4 1.880079 1_555
Co5 F3 2.054844 1_555
Co5 F1 2.064301 1_555
Co5 F5 2.341009 1_555
F0 Mg0 2.014257 1_554
F2 Mg0 1.893676 1_555
F4 Mg0 2.030859 1_655
