# generated using pymatgen
data_Na4Ti3ZnSi3(SO8)3
_symmetry_space_group_name_H-M   'P 1'
_cell_length_a   8.86096709
_cell_length_b   8.86661299
_cell_length_c   22.30539917
_cell_angle_alpha   89.58982674
_cell_angle_beta   90.46174296
_cell_angle_gamma   120.07020572
_symmetry_Int_Tables_number   1
_chemical_formula_structural   Na4Ti3ZnSi3(SO8)3
_chemical_formula_sum   'Na12 Ti9 Zn3 Si9 S9 O72'
_cell_volume   1516.54362740
_cell_formula_units_Z   3
loop_
 _symmetry_equiv_pos_site_id
 _symmetry_equiv_pos_as_xyz
  1  'x, y, z'
loop_
 _atom_site_type_symbol
 _atom_site_label
 _atom_site_symmetry_multiplicity
 _atom_site_fract_x
 _atom_site_fract_y
 _atom_site_fract_z
 _atom_site_occupancy
  Na  Na0  1  0.63589061  0.01094210  0.24043476  1
  Na  Na1  1  0.37328439  0.35332134  0.24999368  1
  Na  Na2  1  0.99024405  0.63600553  0.24769062  1
  Na  Na3  1  0.99150825  0.36207977  0.75411419  1
  Na  Na4  1  0.38031779  0.01013101  0.75375366  1
  Na  Na5  1  0.70855998  0.67644855  0.40663685  1
  Na  Na6  1  0.00929313  0.01723793  0.49351524  1
  Na  Na7  1  0.00339720  0.00734555  0.00078280  1
  Na  Na8  1  0.65945266  0.33664919  0.83430287  1
  Na  Na9  1  0.65166445  0.31992855  0.32552669  1
  Na  Na10  1  0.34336497  0.67814852  0.15984652  1
  Na  Na11  1  0.35137454  0.66477777  0.66904816  1
  Ti  Ti0  1  0.01585224  0.02966956  0.85790208  1
  Ti  Ti1  1  0.99143141  0.01017396  0.65111777  1
  Ti  Ti2  1  0.98650999  0.98236806  0.14800953  1
  Ti  Ti3  1  0.66770087  0.30657499  0.97747445  1
  Ti  Ti4  1  0.65172810  0.31950625  0.47558290  1
  Ti  Ti5  1  0.33014105  0.67612976  0.01819578  1
  Ti  Ti6  1  0.34271828  0.66049581  0.51590159  1
  Ti  Ti7  1  0.35867388  0.68489035  0.31195197  1
  Ti  Ti8  1  0.34226693  0.66893091  0.81669865  1
  Zn  Zn0  1  0.00791100  0.00646649  0.35398493  1
  Zn  Zn1  1  0.65675514  0.32823176  0.68767807  1
  Zn  Zn2  1  0.64424258  0.31445553  0.17958649  1
  Si  Si0  1  0.28697107  0.99825450  0.25264789  1
  Si  Si1  1  0.71094702  0.70447070  0.25350581  1
  Si  Si2  1  0.29471399  0.29826460  0.75086738  1
  Si  Si3  1  0.70748764  0.99389645  0.75258801  1
  Si  Si4  1  0.66955668  0.03223108  0.08589198  1
  Si  Si5  1  0.04726615  0.38723807  0.91751046  1
  Si  Si6  1  0.32648844  0.95394618  0.91461796  1
  Si  Si7  1  0.62738679  0.96025546  0.41748069  1
  Si  Si8  1  0.32606373  0.37182383  0.41559393  1
  S  S0  1  0.00396167  0.29340192  0.25017725  1
  S  S1  1  0.99890617  0.71651494  0.74966418  1
  S  S2  1  0.95917667  0.33618990  0.58390467  1
  S  S3  1  0.36907006  0.03499927  0.58281615  1
  S  S4  1  0.66990337  0.62731045  0.58270790  1
  S  S5  1  0.95798799  0.62372860  0.08262986  1
  S  S6  1  0.37200911  0.33512247  0.08159800  1
  S  S7  1  0.62376428  0.66659713  0.91831359  1
  S  S8  1  0.04361809  0.65687310  0.42010519  1
  O  O0  1  0.21101183  0.04797599  0.30876218  1
  O  O1  1  0.81855525  0.78055436  0.31439909  1
  O  O2  1  0.96536949  0.18713213  0.30455284  1
  O  O3  1  0.19775868  0.16976987  0.80873323  1
  O  O4  1  0.97825201  0.79639309  0.80387584  1
  O  O5  1  0.83822239  0.01823850  0.80770130  1
  O  O6  1  0.80174536  0.96626223  0.69123597  1
  O  O7  1  0.15815738  0.19080225  0.69285061  1
  O  O8  1  0.02420324  0.82755666  0.69474267  1
  O  O9  1  0.80274401  0.83981431  0.19505930  1
  O  O10  1  0.03320540  0.21055829  0.19688196  1
  O  O11  1  0.15770311  0.96722524  0.19294058  1
  O  O12  1  0.88705883  0.35860405  0.64008286  1
  O  O13  1  0.47062809  0.10634073  0.63837396  1
  O  O14  1  0.64332603  0.52237326  0.63657649  1
  O  O15  1  0.88819337  0.53055154  0.13962226  1
  O  O16  1  0.63367943  0.10453444  0.14625342  1
  O  O17  1  0.46725744  0.36661464  0.13952432  1
  O  O18  1  0.46911081  0.31718539  0.03095483  1
  O  O19  1  0.84774367  0.53457123  0.03053942  1
  O  O20  1  0.69139586  0.16250137  0.02707095  1
  O  O21  1  0.46486523  0.15299764  0.53045595  1
  O  O22  1  0.68706743  0.54284281  0.52789255  1
  O  O23  1  0.84643599  0.31559063  0.53159353  1
  O  O24  1  0.54106514  0.69395749  0.97067311  1
  O  O25  1  0.17211725  0.47975991  0.97454309  1
  O  O26  1  0.30975423  0.83302955  0.97248686  1
  O  O27  1  0.51142128  0.83233240  0.47333335  1
  O  O28  1  0.31731373  0.48047649  0.47476051  1
  O  O29  1  0.15100662  0.67018516  0.47321267  1
  O  O30  1  0.11657356  0.63208097  0.36428695  1
  O  O31  1  0.50869841  0.87786828  0.35587366  1
  O  O32  1  0.37007574  0.50393510  0.35787000  1
  O  O33  1  0.13944223  0.50018265  0.85583666  1
  O  O34  1  0.36403045  0.86723064  0.85501114  1
  O  O35  1  0.51212382  0.64035584  0.86256178  1
  O  O36  1  0.02279759  0.81020335  0.42009269  1
  O  O37  1  0.80773114  0.96421660  0.41786910  1
  O  O38  1  0.16358213  0.18370516  0.41728636  1
  O  O39  1  0.02253616  0.19067401  0.91138836  1
  O  O40  1  0.14880353  0.96371515  0.90908734  1
  O  O41  1  0.79638575  0.82228093  0.91041798  1
  O  O42  1  0.97493105  0.17356432  0.58658183  1
  O  O43  1  0.19581370  0.02261951  0.58523436  1
  O  O44  1  0.82815895  0.80410856  0.58632133  1
  O  O45  1  0.97765517  0.80273369  0.08494385  1
  O  O46  1  0.85026654  0.02184272  0.08882038  1
  O  O47  1  0.19811276  0.17438450  0.08518919  1
  O  O48  1  0.69822166  0.17133244  0.74658535  1
  O  O49  1  0.47861866  0.30660597  0.74609429  1
  O  O50  1  0.85057457  0.53941082  0.74309228  1
  O  O51  1  0.68540176  0.51391858  0.24182605  1
  O  O52  1  0.85756115  0.32713015  0.24176342  1
  O  O53  1  0.48595527  0.15625741  0.24616408  1
  O  O54  1  0.63621867  0.50799075  0.92327962  1
  O  O55  1  0.85370826  0.36924147  0.92428613  1
  O  O56  1  0.49879857  0.14960612  0.92379127  1
  O  O57  1  0.64010123  0.15118980  0.42773839  1
  O  O58  1  0.51568678  0.37228330  0.42784336  1
  O  O59  1  0.86400957  0.49759982  0.42704545  1
  O  O60  1  0.34986791  0.48992084  0.07356944  1
  O  O61  1  0.13779286  0.64668863  0.07666217  1
  O  O62  1  0.49998780  0.83790457  0.07264238  1
  O  O63  1  0.34722327  0.85935603  0.57414074  1
  O  O64  1  0.51116015  0.64966409  0.57747306  1
  O  O65  1  0.13737903  0.48980177  0.57671100  1
  O  O66  1  0.29003964  0.80977225  0.25735533  1
  O  O67  1  0.51555742  0.69341684  0.25470169  1
  O  O68  1  0.16823703  0.46758423  0.25552945  1
  O  O69  1  0.29278923  0.48043637  0.75444681  1
  O  O70  1  0.16376950  0.70632673  0.75157408  1
  O  O71  1  0.51162334  0.82406645  0.75564134  1
loop_
_geom_bond_atom_site_label_1
_geom_bond_atom_site_label_2
_geom_bond_distance
_geom_bond_site_symmetry_2
Na0 O16 2.256737 1_555
Na0 O53 2.272021 1_555
Na0 O67 2.479689 1_545
Na0 O52 2.490097 1_555
Na0 O66 2.691982 1_545
Na0 O9 2.794059 1_545
Na0 O31 2.821920 1_545
Na0 O2 2.898886 1_555
Na1 O51 2.401582 1_555
Na1 O53 2.410130 1_555
Na1 O68 2.488561 1_555
Na1 O17 2.590257 1_555
Na1 O67 2.624179 1_555
Na1 O0 2.682194 1_555
Na1 O32 2.767538 1_555
Na1 O10 2.868430 1_555
Na2 O66 2.317568 1_655
Na2 O51 2.356156 1_555
Na2 O52 2.382455 1_555
Na2 O15 2.579214 1_555
Na2 O68 2.664620 1_655
Na2 O11 2.815815 1_655
Na2 O30 2.829995 1_655
Na2 O1 2.861619 1_555
Na3 O48 2.287971 1_555
Na3 O69 2.328217 1_655
Na3 O50 2.459551 1_555
Na3 O33 2.597922 1_655
Na3 O70 2.641906 1_655
Na3 O12 2.694736 1_555
Na3 O5 2.896974 1_555
Na3 O7 2.943426 1_655
Na4 O49 2.323681 1_555
Na4 O70 2.400207 1_545
Na4 O48 2.443929 1_555
Na4 O71 2.449283 1_545
Na4 O34 2.551172 1_545
Na4 O13 2.703537 1_555
Na5 O37 2.259194 1_555
Na5 O1 2.266817 1_555
Na5 O58 2.407025 1_555
Na5 O36 2.435594 1_655
Na5 O59 2.605333 1_555
Na5 O32 2.809355 1_555
Na5 O22 2.913954 1_555
Na6 O38 2.217676 1_555
Na6 O37 2.319337 1_445
Na6 O36 2.516457 1_545
Na6 O43 2.605219 1_555
Na6 O42 2.607215 1_455
Na6 O44 2.718540 1_445
Na7 O46 2.436222 1_455
Na7 O47 2.478275 1_555
Na7 O39 2.515902 1_554
Na7 O45 2.531975 1_445
Na7 O40 2.558574 1_544
Na7 O41 2.662979 1_444
Na8 O49 2.457364 1_555
Na8 O56 2.528587 1_555
Na8 O55 2.555191 1_555
Na8 O48 2.579007 1_555
Na8 O54 2.579241 1_555
Na8 O50 2.681671 1_555
Na9 O53 2.292421 1_555
Na9 O51 2.445653 1_555
Na9 O52 2.599996 1_555
Na9 O57 2.692223 1_555
Na9 O58 2.737838 1_555
Na9 O59 2.856854 1_555
Na10 O62 2.397930 1_555
Na10 O61 2.506470 1_555
Na10 O67 2.562806 1_555
Na10 O60 2.576106 1_555
Na10 O66 2.630841 1_555
Na10 O68 2.746222 1_555
Na11 O69 2.385487 1_555
Na11 O71 2.393076 1_555
Na11 O64 2.536842 1_555
Na11 O70 2.638248 1_555
Na11 O65 2.698019 1_555
Na11 O63 2.733013 1_555
O0 Si0 1.591495 1_545
O0 Zn0 1.936993 1_555
O1 Si1 1.598985 1_555
O1 Zn0 2.059279 1_665
O2 S0 1.463986 1_655
O2 Zn0 2.120620 1_655
O3 Si2 1.648640 1_555
O3 Ti0 1.829340 1_555
O4 S1 1.463909 1_555
O4 Ti0 2.275962 1_665
O5 Si3 1.621753 1_545
O5 Ti0 1.885431 1_655
O6 Si3 1.690759 1_555
O6 Ti1 1.772257 1_565
O7 Si2 1.698153 1_555
O7 Ti1 1.800604 1_455
O8 S1 1.512066 1_455
O8 Ti1 2.024123 1_465
O9 Si1 1.678628 1_555
O9 Ti2 1.815628 1_555
O10 S0 1.492679 1_555
O10 Ti2 2.153734 1_445
O11 Si0 1.681147 1_555
O11 Ti2 1.871153 1_455
O12 S2 1.470307 1_555
O12 Zn1 2.200952 1_555
O13 S3 1.472572 1_555
O13 Zn1 2.133150 1_555
O14 S4 1.460785 1_555
O14 Zn1 2.109865 1_555
O15 S5 1.471966 1_555
O15 Zn2 2.234849 1_555
O16 Si4 1.596342 1_555
O16 Zn2 1.967249 1_555
O17 S6 1.486996 1_555
O17 Zn2 2.042097 1_555
O18 S6 1.482231 1_555
O18 Ti3 2.174799 1_554
O19 S5 1.466353 1_555
O19 Ti3 2.191966 1_554
O20 Si4 1.688613 1_555
O20 Ti3 1.773298 1_554
O21 S3 1.512511 1_555
O21 Ti4 1.994100 1_555
O22 S4 1.486353 1_555
O22 Ti4 2.187825 1_555
O23 S2 1.481293 1_555
O23 Ti4 2.136207 1_555
O24 S7 1.468274 1_555
O24 Ti5 2.091701 1_556
O25 Si5 1.611827 1_555
O25 Ti5 1.870674 1_556
O26 Si6 1.631418 1_555
O26 Ti5 1.798902 1_556
O27 Si7 1.651326 1_555
O27 Ti6 1.782501 1_555
O28 Si8 1.664487 1_555
O28 Ti6 1.760139 1_555
O29 S8 1.481191 1_555
O29 Ti6 1.979600 1_555
O30 S8 1.475015 1_555
O30 Ti7 2.282530 1_555
O31 Si7 1.658076 1_555
O31 Ti7 1.838013 1_555
O32 Si8 1.646428 1_555
O32 Ti7 1.941848 1_555
O33 Si5 1.655636 1_555
O33 Ti8 1.882191 1_555
O34 Si6 1.657595 1_555
O34 Ti8 1.880954 1_555
O35 S7 1.527368 1_555
O35 Ti8 1.931229 1_555
O36 S8 1.460710 1_555
O36 Zn0 2.325972 1_565
O37 Si7 1.580674 1_555
O37 Zn0 2.164342 1_665
O38 Si8 1.565200 1_555
O38 Zn0 2.047940 1_555
O39 Si5 1.650581 1_555
O39 Ti0 1.844801 1_555
O40 Si6 1.623277 1_555
O40 Ti0 1.921587 1_565
O41 S7 1.470065 1_555
O41 Ti0 2.226567 1_665
O42 S2 1.517429 1_555
O42 Ti1 2.090775 1_555
O43 S3 1.484666 1_555
O43 Ti1 2.300410 1_455
O44 S4 1.492443 1_555
O44 Ti1 2.208042 1_565
O45 S5 1.508636 1_555
O45 Ti2 2.104017 1_555
O46 Si4 1.650100 1_555
O46 Ti2 1.927205 1_545
O47 S6 1.487136 1_555
O47 Ti2 2.277472 1_445
O48 Si3 1.620512 1_545
O48 Zn1 2.067633 1_555
O49 Si2 1.598192 1_555
O49 Zn1 1.988058 1_555
O50 S1 1.465186 1_555
O50 Zn1 2.181674 1_555
O51 Si1 1.611147 1_555
O51 Zn2 2.137464 1_555
O52 S0 1.480391 1_655
O52 Zn2 2.292611 1_555
O53 Si0 1.618101 1_545
O53 Zn2 2.042618 1_555
O54 S7 1.468070 1_555
O54 Ti3 2.278457 1_555
O55 Si5 1.649085 1_655
O55 Ti3 1.880733 1_555
O56 Si6 1.651780 1_545
O56 Ti3 1.875732 1_555
O57 Si7 1.656831 1_545
O57 Ti4 1.801030 1_555
O58 Si8 1.698130 1_555
O58 Ti4 1.828520 1_555
O59 S8 1.516486 1_655
O59 Ti4 2.058063 1_555
O60 S6 1.490029 1_555
O60 Ti5 2.130395 1_555
O61 S5 1.508504 1_455
O61 Ti5 2.063710 1_555
O62 Si4 1.649092 1_565
O62 Ti5 1.905140 1_555
O63 S3 1.483875 1_565
O63 Ti6 2.181622 1_555
O64 S4 1.519177 1_555
O64 Ti6 2.057143 1_555
O65 S2 1.489942 1_455
O65 Ti6 2.166042 1_555
O66 Si0 1.687498 1_555
O66 Ti7 1.929395 1_555
O67 Si1 1.684790 1_555
O67 Ti7 1.868373 1_555
O68 S0 1.505091 1_555
O68 Ti7 2.210450 1_555
O69 Si2 1.626395 1_555
O69 Ti8 2.050045 1_555
O70 S1 1.508390 1_455
O70 Ti8 2.281084 1_555
O71 Si3 1.632704 1_555
O71 Ti8 1.984034 1_555
