# generated using pymatgen
data_NbGaSi(SO6)2
_symmetry_space_group_name_H-M   'P 1'
_cell_length_a   8.70953170
_cell_length_b   8.74590711
_cell_length_c   22.55346523
_cell_angle_alpha   89.50682921
_cell_angle_beta   90.00000000
_cell_angle_gamma   119.86251203
_symmetry_Int_Tables_number   1
_chemical_formula_structural   NbGaSi(SO6)2
_chemical_formula_sum   'Nb6 Ga6 Si6 S12 O72'
_cell_volume   1489.78019787
_cell_formula_units_Z   6
loop_
 _symmetry_equiv_pos_site_id
 _symmetry_equiv_pos_as_xyz
  1  'x, y, z'
loop_
 _atom_site_type_symbol
 _atom_site_label
 _atom_site_symmetry_multiplicity
 _atom_site_fract_x
 _atom_site_fract_y
 _atom_site_fract_z
 _atom_site_occupancy
  Nb  Nb0  1  0.00775590  0.01858211  0.64203855  1
  Nb  Nb1  1  0.01082621  0.01858211  0.14203855  1
  Nb  Nb2  1  0.64990934  0.32474852  0.97514511  1
  Nb  Nb3  1  0.67484018  0.32474852  0.47514511  1
  Nb  Nb4  1  0.33661902  0.67035254  0.30873973  1
  Nb  Nb5  1  0.33373253  0.67035254  0.80873973  1
  Ga  Ga0  1  0.98372210  0.00971611  0.35471246  1
  Ga  Ga1  1  0.02599401  0.00971611  0.85471246  1
  Ga  Ga2  1  0.67081022  0.33963702  0.68666274  1
  Ga  Ga3  1  0.66882780  0.33963702  0.18666274  1
  Ga  Ga4  1  0.32725627  0.66480729  0.02151600  1
  Ga  Ga5  1  0.33755002  0.66480729  0.52151600  1
  Si  Si0  1  0.98537394  0.28767421  0.25091490  1
  Si  Si1  1  0.30230027  0.28767421  0.75091490  1
  Si  Si2  1  0.96340816  0.35455891  0.58594450  1
  Si  Si3  1  0.39115174  0.35455891  0.08594450  1
  Si  Si4  1  0.31874072  0.93955553  0.91911484  1
  Si  Si5  1  0.62081382  0.93955553  0.41911484  1
  S  S0  1  0.28771556  0.00622826  0.25153340  1
  S  S1  1  0.71809480  0.70957159  0.25071459  1
  S  S2  1  0.99147679  0.70957159  0.75071459  1
  S  S3  1  0.71851270  0.00622826  0.75153340  1
  S  S4  1  0.38229874  0.04148694  0.58387551  1
  S  S5  1  0.66347529  0.61990595  0.58370565  1
  S  S6  1  0.95643166  0.61990595  0.08370565  1
  S  S7  1  0.65918920  0.04148694  0.08387551  1
  S  S8  1  0.62781092  0.67721051  0.91628808  1
  S  S9  1  0.04633666  0.37438821  0.91736735  1
  S  S10  1  0.32805055  0.37438821  0.41736735  1
  S  S11  1  0.04939859  0.67721051  0.41628808  1
  O  O0  1  0.20437067  0.02641164  0.30468718  1
  O  O1  1  0.82379474  0.78699119  0.30388811  1
  O  O2  1  0.96797735  0.16744506  0.30643377  1
  O  O3  1  0.19946772  0.16744506  0.80643377  1
  O  O4  1  0.96319645  0.78699119  0.80388811  1
  O  O5  1  0.82204097  0.02641164  0.80468718  1
  O  O6  1  0.79376036  0.96715234  0.69728219  1
  O  O7  1  0.16492885  0.19357583  0.69222239  1
  O  O8  1  0.02983437  0.82247726  0.69692611  1
  O  O9  1  0.79264289  0.82247726  0.19692611  1
  O  O10  1  0.02864698  0.19357583  0.19222239  1
  O  O11  1  0.17339198  0.96715234  0.19728219  1
  O  O12  1  0.86035424  0.36535211  0.64265459  1
  O  O13  1  0.48729974  0.12169626  0.63661706  1
  O  O14  1  0.63280247  0.51124061  0.63709443  1
  O  O15  1  0.87843915  0.51124061  0.13709443  1
  O  O16  1  0.63439751  0.12169626  0.13661706  1
  O  O17  1  0.50499887  0.36535211  0.14265459  1
  O  O18  1  0.47566184  0.30614442  0.02670626  1
  O  O19  1  0.84430611  0.54035413  0.03024684  1
  O  O20  1  0.70234894  0.15887170  0.02998641  1
  O  O21  1  0.45652376  0.15887170  0.52998641  1
  O  O22  1  0.69604901  0.54035413  0.53024684  1
  O  O23  1  0.83048358  0.30614442  0.52670626  1
  O  O24  1  0.54711725  0.69913268  0.96963192  1
  O  O25  1  0.15572400  0.45114931  0.96981952  1
  O  O26  1  0.30545398  0.82659249  0.97667916  1
  O  O27  1  0.52113752  0.82659249  0.47667916  1
  O  O28  1  0.29542432  0.45114931  0.46981952  1
  O  O29  1  0.15201443  0.69913268  0.46963192  1
  O  O30  1  0.12370295  0.63348254  0.36303134  1
  O  O31  1  0.49326171  0.85678254  0.35986959  1
  O  O32  1  0.36238506  0.49075744  0.36354632  1
  O  O33  1  0.12837137  0.49075744  0.86354632  1
  O  O34  1  0.36351983  0.85678254  0.85986959  1
  O  O35  1  0.50977860  0.63348254  0.86303134  1
  O  O36  1  0.02817100  0.82938793  0.40505806  1
  O  O37  1  0.81472477  0.97048357  0.40980885  1
  O  O38  1  0.17988199  0.19729497  0.40771145  1
  O  O39  1  0.01741297  0.19729497  0.90771145  1
  O  O40  1  0.15575880  0.97048357  0.90980885  1
  O  O41  1  0.80121693  0.82938793  0.90505806  1
  O  O42  1  0.96940996  0.16568488  0.59275643  1
  O  O43  1  0.19991853  0.02268935  0.59088341  1
  O  O44  1  0.82647027  0.79663579  0.59242121  1
  O  O45  1  0.97016552  0.79663579  0.09242121  1
  O  O46  1  0.82277081  0.02268935  0.09088341  1
  O  O47  1  0.19627492  0.16568488  0.09275643  1
  O  O48  1  0.69171759  0.15552515  0.74224337  1
  O  O49  1  0.49110126  0.31163084  0.73569089  1
  O  O50  1  0.84271184  0.53275987  0.74308419  1
  O  O51  1  0.69004903  0.53275987  0.24308419  1
  O  O52  1  0.82053059  0.31163084  0.23569089  1
  O  O53  1  0.46380856  0.15552515  0.24224337  1
  O  O54  1  0.64732387  0.51437404  0.92399595  1
  O  O55  1  0.87101281  0.36512811  0.92515240  1
  O  O56  1  0.50436181  0.13939538  0.92695441  1
  O  O57  1  0.63503456  0.13939538  0.42695441  1
  O  O58  1  0.49411629  0.36512811  0.42515240  1
  O  O59  1  0.86705117  0.51437404  0.42399595  1
  O  O60  1  0.35569941  0.51112951  0.07006484  1
  O  O61  1  0.13301189  0.64265353  0.07590772  1
  O  O62  1  0.50909986  0.86676125  0.07516510  1
  O  O63  1  0.35766039  0.86676125  0.57516510  1
  O  O64  1  0.50964064  0.64265353  0.57590772  1
  O  O65  1  0.15542911  0.51112951  0.57006484  1
  O  O66  1  0.30206798  0.84054877  0.25767438  1
  O  O67  1  0.53620328  0.69340171  0.25821826  1
  O  O68  1  0.16819564  0.48048208  0.26161247  1
  O  O69  1  0.31228543  0.48048208  0.76161247  1
  O  O70  1  0.15719743  0.69340171  0.75821826  1
  O  O71  1  0.53847979  0.84054877  0.75767438  1
loop_
_geom_bond_atom_site_label_1
_geom_bond_atom_site_label_2
_geom_bond_distance
_geom_bond_site_symmetry_2
Nb0 O42 1.845375 1_455
Nb0 O7 1.854921 1_555
Nb0 O43 2.018138 1_555
Nb0 O6 2.093784 1_445
Nb0 O44 2.120956 1_445
Nb0 O8 2.191549 1_545
Nb1 O47 1.845375 1_555
Nb1 O10 1.854921 1_555
Nb1 O46 2.018138 1_455
Nb1 O11 2.093784 1_545
Nb1 O45 2.120956 1_445
Nb1 O9 2.191549 1_445
Nb2 O56 1.843919 1_555
Nb2 O18 1.852772 1_556
Nb2 O54 2.021381 1_555
Nb2 O55 2.102438 1_555
Nb2 O20 2.114716 1_556
Nb2 O19 2.197207 1_556
Nb3 O57 1.843919 1_555
Nb3 O23 1.852772 1_555
Nb3 O59 2.021381 1_555
Nb3 O58 2.102438 1_555
Nb3 O21 2.114716 1_555
Nb3 O22 2.197208 1_555
Nb4 O68 1.908836 1_555
Nb4 O31 1.914869 1_555
Nb4 O67 2.001917 1_555
Nb4 O66 2.012267 1_555
Nb4 O32 2.088783 1_555
Nb4 O30 2.107085 1_555
Nb5 O69 1.908836 1_555
Nb5 O34 1.914869 1_555
Nb5 O70 2.001917 1_555
Nb5 O71 2.012267 1_555
Nb5 O33 2.088783 1_555
Nb5 O35 2.107085 1_555
Ga0 O2 1.808286 1_555
Ga0 O37 1.821537 1_545
Ga0 O38 2.069204 1_655
Ga0 O1 2.094033 1_545
Ga0 O36 2.122191 1_645
Ga0 O0 2.169120 1_655
Ga1 O3 1.808286 1_555
Ga1 O40 1.821537 1_545
Ga1 O39 2.069204 1_555
Ga1 O4 2.094033 1_445
Ga1 O41 2.122191 1_445
Ga1 O5 2.169120 1_455
Ga2 O49 1.829218 1_555
Ga2 O12 1.840491 1_555
Ga2 O14 2.019337 1_555
Ga2 O50 2.057273 1_555
Ga2 O48 2.110588 1_555
Ga2 O13 2.113032 1_555
Ga3 O52 1.829218 1_555
Ga3 O17 1.840491 1_555
Ga3 O15 2.019337 1_555
Ga3 O51 2.057273 1_555
Ga3 O53 2.110588 1_555
Ga3 O16 2.113032 1_555
Ga4 O26 1.817602 1_554
Ga4 O60 1.836569 1_555
Ga4 O61 2.018410 1_555
Ga4 O25 2.083403 1_554
Ga4 O62 2.084019 1_555
Ga4 O24 2.132530 1_554
Ga5 O27 1.817602 1_555
Ga5 O65 1.836569 1_555
Ga5 O64 2.018410 1_555
Ga5 O28 2.083403 1_555
Ga5 O63 2.084019 1_555
Ga5 O29 2.132530 1_555
O0 S0 1.458237 1_555
O1 S1 1.461983 1_555
O2 Si0 1.585930 1_555
O3 Si1 1.585930 1_555
O4 S2 1.461983 1_555
O5 S3 1.458237 1_555
O6 S3 1.507857 1_565
O7 Si1 1.702704 1_555
O8 S2 1.486339 1_455
O9 S1 1.486339 1_555
O10 Si0 1.702704 1_455
O11 S0 1.507857 1_565
O12 Si2 1.592741 1_555
O13 S4 1.455630 1_555
O14 S5 1.466940 1_555
O15 S6 1.466940 1_555
O16 S7 1.455630 1_555
O17 Si3 1.592741 1_555
O18 Si3 1.681108 1_555
O19 S6 1.493061 1_555
O20 S7 1.505542 1_555
O21 S4 1.505542 1_555
O22 S5 1.493061 1_555
O23 Si2 1.681108 1_555
O24 S8 1.454742 1_555
O25 S9 1.461005 1_555
O26 Si4 1.593439 1_555
O27 Si5 1.593439 1_555
O28 S10 1.461005 1_555
O29 S11 1.454742 1_555
O30 S11 1.504044 1_555
O31 Si5 1.661137 1_555
O32 S10 1.508089 1_555
O33 S9 1.508089 1_555
O34 Si4 1.661137 1_555
O35 S8 1.504044 1_555
O36 S11 1.452220 1_555
O37 Si5 1.585435 1_555
O38 S10 1.458438 1_555
O39 S9 1.458441 1_555
O40 Si4 1.585427 1_555
O41 S8 1.452225 1_555
O42 Si2 1.684234 1_555
O43 S4 1.521402 1_555
O44 S5 1.504368 1_555
O45 S6 1.504371 1_555
O46 S7 1.521394 1_555
O47 Si3 1.684239 1_555
O48 S3 1.449847 1_555
O49 Si1 1.587892 1_555
O50 S2 1.452234 1_555
O51 S1 1.452238 1_555
O52 Si0 1.587883 1_555
O53 S0 1.449853 1_555
O54 S8 1.524493 1_555
O55 S9 1.498560 1_655
O56 Si4 1.700327 1_545
O57 Si5 1.700320 1_545
O58 S10 1.498578 1_555
O59 S11 1.524483 1_655
O60 Si3 1.584724 1_555
O61 S6 1.459604 1_455
O62 S7 1.448609 1_565
O63 S4 1.448602 1_565
O64 S5 1.459621 1_555
O65 Si2 1.584713 1_455
O66 S0 1.520323 1_565
O67 S1 1.527999 1_555
O68 Si0 1.664411 1_455
O69 Si1 1.664415 1_555
O70 S2 1.527990 1_455
O71 S3 1.520328 1_565
