# generated using pymatgen
data_InFe2CuSe4
_symmetry_space_group_name_H-M   'P 1'
_cell_length_a   7.07047762
_cell_length_b   7.07047762
_cell_length_c   7.07047762
_cell_angle_alpha   131.88170060
_cell_angle_beta   131.88170060
_cell_angle_gamma   70.41593221
_symmetry_Int_Tables_number   1
_chemical_formula_structural   InFe2CuSe4
_chemical_formula_sum   'In1 Fe2 Cu1 Se4'
_cell_volume   191.99969236
_cell_formula_units_Z   1
loop_
 _symmetry_equiv_pos_site_id
 _symmetry_equiv_pos_as_xyz
  1  'x, y, z'
loop_
 _atom_site_type_symbol
 _atom_site_label
 _atom_site_symmetry_multiplicity
 _atom_site_fract_x
 _atom_site_fract_y
 _atom_site_fract_z
 _atom_site_occupancy
  In  In0  1  0.00000000  0.00000000  0.00000000  1
  Fe  Fe0  1  0.75000000  0.25000000  0.50000000  1
  Fe  Fe1  1  0.25000000  0.75000000  0.50000000  1
  Cu  Cu0  1  0.50000000  0.50000000  0.00000000  1
  Se  Se0  1  0.39961100  0.86521700  0.00000000  1
  Se  Se1  1  0.60038900  0.60038900  0.46560700  1
  Se  Se2  1  0.13478300  0.13478300  0.53439300  1
  Se  Se3  1  0.86521700  0.39961100  0.00000000  1
loop_
_geom_bond_atom_site_label_1
_geom_bond_atom_site_label_2
_geom_bond_distance
_geom_bond_site_symmetry_2
In0 Se2 2.661991 1_555
In0 Se1 2.661997 1_444
In0 Se0 2.661997 1_545
In0 Se3 2.661997 1_455
Fe0 Se1 2.453528 1_555
Fe0 Se0 2.453531 1_545
Fe0 Se3 2.453531 1_556
Fe0 Se2 2.453534 1_655
Fe1 Se1 2.453528 1_555
Fe1 Se3 2.453531 1_455
Fe1 Se0 2.453531 1_556
Fe1 Se2 2.453534 1_565
Cu0 Se2 2.437857 1_554
Cu0 Se3 2.437857 1_555
Cu0 Se0 2.437857 1_555
Cu0 Se1 2.437864 1_555
