# generated using pymatgen
data_LiCoP2O7
_symmetry_space_group_name_H-M   'P 1'
_cell_length_a   5.09525400
_cell_length_b   8.53088400
_cell_length_c   12.52910017
_cell_angle_alpha   78.40544987
_cell_angle_beta   90.00000000
_cell_angle_gamma   90.00000000
_symmetry_Int_Tables_number   1
_chemical_formula_structural   LiCoP2O7
_chemical_formula_sum   'Li4 Co4 P8 O28'
_cell_volume   533.48969820
_cell_formula_units_Z   4
loop_
 _symmetry_equiv_pos_site_id
 _symmetry_equiv_pos_as_xyz
  1  'x, y, z'
loop_
 _atom_site_type_symbol
 _atom_site_label
 _atom_site_symmetry_multiplicity
 _atom_site_fract_x
 _atom_site_fract_y
 _atom_site_fract_z
 _atom_site_occupancy
  Li  Li0  1  0.51281800  0.37633300  0.68801600  1
  Li  Li1  1  0.02893100  0.41290200  0.08438300  1
  Li  Li2  1  0.48718200  0.87633300  0.18801600  1
  Li  Li3  1  0.97106900  0.91290200  0.58438300  1
  Co  Co0  1  0.98662900  0.75090300  0.01986500  1
  Co  Co1  1  0.01337100  0.25090300  0.51986500  1
  Co  Co2  1  0.48811500  0.76506200  0.46806900  1
  Co  Co3  1  0.51188500  0.26506200  0.96806900  1
  P  P0  1  0.48706200  0.03298700  0.63880100  1
  P  P1  1  0.99953300  0.96948800  0.35565200  1
  P  P2  1  0.51462600  0.42530500  0.38384200  1
  P  P3  1  0.51293800  0.53298700  0.13880100  1
  P  P4  1  0.48537400  0.92530500  0.88384200  1
  P  P5  1  0.00046700  0.46948800  0.85565200  1
  P  P6  1  0.00099000  0.07283600  0.11721200  1
  P  P7  1  0.99901000  0.57283600  0.61721200  1
  O  O0  1  0.79137100  0.83722700  0.36719600  1
  O  O1  1  0.42245600  0.41801100  0.06558500  1
  O  O2  1  0.29610300  0.07998200  0.09518900  1
  O  O3  1  0.85540900  0.22084900  0.05456900  1
  O  O4  1  0.66129000  0.79003200  0.94064500  1
  O  O5  1  0.19598100  0.89126300  0.91474500  1
  O  O6  1  0.03474200  0.56611000  0.94397600  1
  O  O7  1  0.20862900  0.33722700  0.86719600  1
  O  O8  1  0.71911400  0.40599400  0.84732700  1
  O  O9  1  0.57059000  0.09246200  0.89547000  1
  O  O10  1  0.52249500  0.91829800  0.75789000  1
  O  O11  1  0.04979700  0.59382300  0.74234100  1
  O  O12  1  0.57754400  0.91801100  0.56558500  1
  O  O13  1  0.70389700  0.57998200  0.59518900  1
  O  O14  1  0.12645500  0.41107400  0.61159500  1
  O  O15  1  0.33422600  0.67958400  0.12887600  1
  O  O16  1  0.66577400  0.17958400  0.62887600  1
  O  O17  1  0.19325000  0.07343800  0.63177100  1
  O  O18  1  0.14459100  0.72084900  0.55456900  1
  O  O19  1  0.28088600  0.90599400  0.34732700  1
  O  O20  1  0.33871000  0.29003200  0.44064500  1
  O  O21  1  0.42941000  0.59246200  0.39547000  1
  O  O22  1  0.80401900  0.39126300  0.41474500  1
  O  O23  1  0.96525800  0.06611000  0.44397600  1
  O  O24  1  0.47750500  0.41829800  0.25789000  1
  O  O25  1  0.95020300  0.09382300  0.24234100  1
  O  O26  1  0.87354500  0.91107400  0.11159500  1
  O  O27  1  0.80675000  0.57343800  0.13177100  1
loop_
_geom_bond_atom_site_label_1
_geom_bond_atom_site_label_2
_geom_bond_distance
_geom_bond_site_symmetry_2
Li0 O16 2.115069 1_555
Li0 O13 2.122871 1_555
Li0 O14 2.183118 1_555
Li0 O8 2.314310 1_555
Li1 O27 1.958702 1_455
Li1 O3 1.962534 1_455
Li1 O6 1.969668 1_554
Li1 O1 2.018343 1_555
Li2 O15 2.115069 1_555
Li2 O2 2.122871 1_565
Li2 O26 2.183118 1_555
Li2 O19 2.314310 1_555
Li3 O17 1.958702 1_665
Li3 O18 1.962534 1_655
Li3 O23 1.969668 1_565
Li3 O12 2.018343 1_555
Co0 O5 1.916332 1_654
Co0 O4 1.926481 1_554
Co0 O6 2.012924 1_654
Co0 O26 2.037443 1_555
Co0 O27 2.060245 1_555
Co0 O15 2.244628 1_655
Co1 O22 1.916332 1_455
Co1 O20 1.926481 1_555
Co1 O23 2.012924 1_455
Co1 O14 2.037443 1_555
Co1 O17 2.060245 1_555
Co1 O16 2.244628 1_455
Co2 O21 1.903487 1_555
Co2 O12 2.010891 1_555
Co2 O0 2.012733 1_555
Co2 O19 2.029233 1_555
Co2 O18 2.053338 1_555
Co2 O13 2.286392 1_555
Co3 O9 1.903487 1_555
Co3 O1 2.010891 1_556
Co3 O7 2.012733 1_555
Co3 O8 2.029233 1_555
Co3 O3 2.053338 1_556
Co3 O2 2.286392 1_556
O0 P1 1.534061 1_555
O1 P3 1.542005 1_555
O2 P6 1.527787 1_555
O3 P6 1.536956 1_655
O4 P4 1.520362 1_555
O5 P4 1.537301 1_555
O6 P5 1.516967 1_555
O7 P5 1.534061 1_555
O8 P5 1.543403 1_655
O9 P4 1.525362 1_545
O10 P4 1.602359 1_555
O10 P0 1.621524 1_565
O11 P5 1.611967 1_555
O11 P7 1.633921 1_455
O12 P0 1.542005 1_565
O13 P7 1.527787 1_555
O14 P7 1.539477 1_455
O15 P3 1.531704 1_555
O16 P0 1.531704 1_555
O17 P0 1.534852 1_555
O18 P7 1.536956 1_455
O19 P1 1.543403 1_455
O20 P2 1.520362 1_555
O21 P2 1.525362 1_555
O22 P2 1.537301 1_555
O23 P1 1.516967 1_545
O24 P2 1.602359 1_555
O24 P3 1.621524 1_555
O25 P1 1.611967 1_545
O25 P6 1.633921 1_655
O26 P6 1.539477 1_665
O27 P3 1.534852 1_555
