# generated using pymatgen
data_ThCrB4
_symmetry_space_group_name_H-M   'P 1'
_cell_length_a   3.62059675
_cell_length_b   6.06143296
_cell_length_c   11.74221103
_cell_angle_alpha   90.00000000
_cell_angle_beta   90.00000000
_cell_angle_gamma   90.00000000
_symmetry_Int_Tables_number   1
_chemical_formula_structural   ThCrB4
_chemical_formula_sum   'Th4 Cr4 B16'
_cell_volume   257.69461581
_cell_formula_units_Z   4
loop_
 _symmetry_equiv_pos_site_id
 _symmetry_equiv_pos_as_xyz
  1  'x, y, z'
loop_
 _atom_site_type_symbol
 _atom_site_label
 _atom_site_symmetry_multiplicity
 _atom_site_fract_x
 _atom_site_fract_y
 _atom_site_fract_z
 _atom_site_occupancy
  Th  Th0  1  0.50000000  0.12400414  0.84927292  1
  Th  Th1  1  0.50000000  0.87599586  0.15072708  1
  Th  Th2  1  0.50000000  0.62400414  0.65072708  1
  Th  Th3  1  0.50000000  0.37599586  0.34927292  1
  Cr  Cr0  1  0.50000000  0.12913208  0.58608064  1
  Cr  Cr1  1  0.50000000  0.87086792  0.41391936  1
  Cr  Cr2  1  0.50000000  0.62913208  0.91391936  1
  Cr  Cr3  1  0.50000000  0.37086792  0.08608064  1
  B  B0  1  -0.00000000  0.27734149  0.68277907  1
  B  B1  1  -0.00000000  0.72265851  0.31722093  1
  B  B2  1  -0.00000000  0.77734149  0.81722093  1
  B  B3  1  -0.00000000  0.22265851  0.18277907  1
  B  B4  1  -0.00000000  0.38956114  0.95550603  1
  B  B5  1  -0.00000000  0.61043886  0.04449397  1
  B  B6  1  -0.00000000  0.88956114  0.54449397  1
  B  B7  1  -0.00000000  0.11043886  0.45550603  1
  B  B8  1  -0.00000000  0.14280562  0.03304453  1
  B  B9  1  0.00000000  0.85719438  0.96695547  1
  B  B10  1  -0.00000000  0.64280562  0.46695547  1
  B  B11  1  -0.00000000  0.35719438  0.53304453  1
  B  B12  1  -0.00000000  0.02518687  0.31278710  1
  B  B13  1  -0.00000000  0.97481313  0.68721290  1
  B  B14  1  -0.00000000  0.52518687  0.18721290  1
  B  B15  1  -0.00000000  0.47481313  0.81278710  1
loop_
_geom_bond_atom_site_label_1
_geom_bond_atom_site_label_2
_geom_bond_distance
_geom_bond_site_symmetry_2
B0 B11 1.823622 1_555
B0 B13 1.834494 1_545
B0 B15 1.939889 1_555
B0 Cr0 2.318078 1_455
B0 Cr0 2.318078 1_555
B0 Th2 2.798959 1_455
B0 Th2 2.798959 1_555
B0 Th0 2.821896 1_555
B0 Th0 2.821896 1_455
B1 B10 1.823622 1_555
B1 B12 1.834494 1_565
B1 B14 1.939889 1_555
B1 Cr1 2.318078 1_455
B1 Cr1 2.318078 1_555
B1 Th3 2.798959 1_555
B1 Th3 2.798959 1_455
B1 Th1 2.821896 1_555
B1 Th1 2.821896 1_455
B2 B9 1.823622 1_555
B2 Cr2 2.318078 1_455
B2 Cr2 2.318078 1_555
B2 Th0 2.798959 1_465
B2 Th0 2.798959 1_565
B2 Th2 2.821896 1_555
B2 Th2 2.821896 1_455
B3 B8 1.823622 1_555
B3 Cr3 2.318078 1_455
B3 Cr3 2.318078 1_555
B3 Th1 2.798959 1_445
B3 Th1 2.798959 1_545
B3 Th3 2.821896 1_455
B3 Th3 2.821896 1_555
B4 B5 1.698331 1_556
B4 B8 1.751016 1_556
B4 Cr2 2.371572 1_455
B4 Cr2 2.371572 1_555
B4 Cr3 2.375043 1_556
B4 Cr3 2.375043 1_456
B4 Th0 2.724740 1_555
B4 Th0 2.724740 1_455
B5 B9 1.751016 1_554
B5 Cr3 2.371572 1_555
B5 Cr3 2.371572 1_455
B5 Cr2 2.375043 1_454
B5 Cr2 2.375043 1_554
B5 Th1 2.724740 1_455
B5 Th1 2.724740 1_555
B6 B7 1.698331 1_565
B6 Cr0 2.371572 1_565
B6 Cr0 2.371572 1_465
B6 Cr1 2.375043 1_455
B6 Cr1 2.375043 1_555
B6 Th2 2.724740 1_555
B6 Th2 2.724740 1_455
B7 Cr1 2.371572 1_445
B7 Cr1 2.371572 1_545
B7 Cr0 2.375043 1_455
B7 Cr0 2.375043 1_555
B7 Th3 2.724740 1_555
B7 Th3 2.724740 1_455
B8 B9 1.897189 1_544
B8 Cr3 2.361355 1_455
B8 Cr3 2.361355 1_555
B8 Th1 2.793241 1_445
B8 Th1 2.793241 1_545
B8 Th0 2.818978 1_554
B8 Th0 2.818978 1_454
B9 Cr2 2.361355 1_555
B9 Cr2 2.361355 1_455
B9 Th0 2.793241 1_565
B9 Th0 2.793241 1_465
B9 Th1 2.818978 1_456
B9 Th1 2.818978 1_556
B10 B6 1.751016 1_555
B10 B11 1.897189 1_555
B10 Cr1 2.361355 1_555
B10 Cr1 2.361355 1_455
B10 Th3 2.793241 1_455
B10 Th3 2.793241 1_555
B10 Th2 2.818978 1_555
B10 Th2 2.818978 1_455
B11 B7 1.751016 1_555
B11 Cr0 2.361355 1_455
B11 Cr0 2.361355 1_555
B11 Th2 2.793241 1_555
B11 Th2 2.793241 1_455
B11 Th3 2.818978 1_555
B11 Th3 2.818978 1_455
B12 B7 1.753698 1_555
B12 B3 1.939889 1_555
B12 Cr1 2.358461 1_545
B12 Cr1 2.358461 1_445
B12 Th1 2.777796 1_445
B12 Th1 2.777796 1_545
B12 Th3 2.825301 1_555
B12 Th3 2.825301 1_455
B13 B6 1.753698 1_555
B13 B2 1.939889 1_555
B13 Cr0 2.358461 1_465
B13 Cr0 2.358461 1_565
B13 Th0 2.777796 1_465
B13 Th0 2.777796 1_565
B13 Th2 2.825301 1_455
B13 Th2 2.825301 1_555
B14 B5 1.753698 1_555
B14 B3 1.834494 1_555
B14 Cr3 2.358461 1_455
B14 Cr3 2.358461 1_555
B14 Th3 2.777796 1_555
B14 Th3 2.777796 1_455
B14 Th1 2.825301 1_555
B14 Th1 2.825301 1_455
B15 B4 1.753698 1_555
B15 B2 1.834494 1_555
B15 Cr2 2.358461 1_555
B15 Cr2 2.358461 1_455
B15 Th2 2.777796 1_455
B15 Th2 2.777796 1_555
B15 Th0 2.825301 1_555
B15 Th0 2.825301 1_455
