# generated using pymatgen
data_Na5InS4
_symmetry_space_group_name_H-M   'P 1'
_cell_length_a   8.75246348
_cell_length_b   6.76158263
_cell_length_c   7.81217621
_cell_angle_alpha   88.96603127
_cell_angle_beta   90.00000000
_cell_angle_gamma   90.00000000
_symmetry_Int_Tables_number   1
_chemical_formula_structural   Na5InS4
_chemical_formula_sum   'Na10 In2 S8'
_cell_volume   462.25325356
_cell_formula_units_Z   2
loop_
 _symmetry_equiv_pos_site_id
 _symmetry_equiv_pos_as_xyz
  1  'x, y, z'
loop_
 _atom_site_type_symbol
 _atom_site_label
 _atom_site_symmetry_multiplicity
 _atom_site_fract_x
 _atom_site_fract_y
 _atom_site_fract_z
 _atom_site_occupancy
  Na  Na0  1  0.47955936  0.34357690  0.66518117  1
  Na  Na1  1  0.97955936  0.65642310  0.33481883  1
  Na  Na2  1  0.52044064  0.65642310  0.33481883  1
  Na  Na3  1  0.02044064  0.34357690  0.66518117  1
  Na  Na4  1  0.75000000  0.02528724  0.52859402  1
  Na  Na5  1  0.25000000  0.97471276  0.47140598  1
  Na  Na6  1  0.75000000  0.33098509  0.16091715  1
  Na  Na7  1  0.25000000  0.66901491  0.83908285  1
  Na  Na8  1  -0.00000000  -0.00000000  0.00000000  1
  Na  Na9  1  0.50000000  -0.00000000  0.00000000  1
  In  In0  1  0.25000000  0.36073593  0.17610751  1
  In  In1  1  0.75000000  0.63926407  0.82389249  1
  S  S0  1  0.25000000  0.24016758  0.87905140  1
  S  S1  1  0.75000000  0.75983242  0.12094860  1
  S  S2  1  0.98159665  0.76667352  0.67166090  1
  S  S3  1  0.48159665  0.23332648  0.32833910  1
  S  S4  1  0.01840335  0.23332648  0.32833910  1
  S  S5  1  0.51840335  0.76667352  0.67166090  1
  S  S6  1  0.75000000  0.27124354  0.82150746  1
  S  S7  1  0.25000000  0.72875646  0.17849254  1
loop_
_geom_bond_atom_site_label_1
_geom_bond_atom_site_label_2
_geom_bond_distance
_geom_bond_site_symmetry_2
Na0 S0 2.697259 1_555
Na0 S6 2.704051 1_555
Na0 S3 2.747994 1_555
Na0 S5 2.882285 1_555
Na1 S1 2.697259 1_555
Na1 S7 2.704051 1_655
Na1 S2 2.747994 1_555
Na1 S4 2.882285 1_655
Na2 S1 2.697259 1_555
Na2 S7 2.704051 1_555
Na2 S5 2.747994 1_555
Na2 S3 2.882285 1_555
Na3 S0 2.697259 1_555
Na3 S6 2.704051 1_455
Na3 S4 2.747994 1_555
Na3 S2 2.882285 1_455
Na4 S6 2.852958 1_555
Na4 S5 2.888818 1_545
Na4 S2 2.888818 1_545
Na4 S3 3.140930 1_555
Na4 S4 3.140930 1_655
Na5 S7 2.852958 1_555
Na5 S3 2.888818 1_565
Na5 S4 2.888818 1_565
Na5 S2 3.140930 1_455
Na5 S5 3.140930 1_555
Na6 S6 2.689318 1_554
Na6 S3 2.763012 1_555
Na6 S4 2.763012 1_655
Na6 S1 2.910842 1_555
Na7 S7 2.689318 1_556
Na7 S2 2.763012 1_455
Na7 S5 2.763012 1_555
Na7 S0 2.910842 1_555
Na8 S1 2.874430 1_445
Na8 S0 2.874430 1_554
Na8 S2 3.039809 1_444
Na8 S4 3.039809 1_555
Na8 S7 3.162852 1_545
Na8 S6 3.162852 1_454
Na9 S1 2.874430 1_545
Na9 S0 2.874430 1_554
Na9 S5 3.039809 1_544
Na9 S3 3.039809 1_555
Na9 S7 3.162852 1_545
Na9 S6 3.162852 1_554
In0 S0 2.473524 1_554
In0 S7 2.488807 1_555
In0 S3 2.495681 1_555
In0 S4 2.495681 1_555
In1 S1 2.473524 1_556
In1 S6 2.488807 1_555
In1 S5 2.495681 1_555
In1 S2 2.495681 1_555
