# generated using pymatgen
data_LiCeGe2
_symmetry_space_group_name_H-M   'P 1'
_cell_length_a   3.97346090
_cell_length_b   7.85338829
_cell_length_c   10.71230226
_cell_angle_alpha   89.99797909
_cell_angle_beta   90.00000000
_cell_angle_gamma   90.00000000
_symmetry_Int_Tables_number   1
_chemical_formula_structural   LiCeGe2
_chemical_formula_sum   'Li4 Ce4 Ge8'
_cell_volume   334.27879848
_cell_formula_units_Z   4
loop_
 _symmetry_equiv_pos_site_id
 _symmetry_equiv_pos_as_xyz
  1  'x, y, z'
loop_
 _atom_site_type_symbol
 _atom_site_label
 _atom_site_symmetry_multiplicity
 _atom_site_fract_x
 _atom_site_fract_y
 _atom_site_fract_z
 _atom_site_occupancy
  Li  Li0  1  0.25000000  0.99219402  0.60851012  1
  Li  Li1  1  0.25000000  0.49216909  0.89146805  1
  Li  Li2  1  0.75000000  0.50784107  0.10850855  1
  Li  Li3  1  0.75000000  0.00785225  0.39146390  1
  Ce  Ce0  1  0.25000000  0.63525014  0.36779847  1
  Ce  Ce1  1  0.75000000  0.36470960  0.63223697  1
  Ce  Ce2  1  0.25000000  0.13526083  0.13220315  1
  Ce  Ce3  1  0.75000000  0.86472416  0.86778057  1
  Ge  Ge0  1  0.75000000  0.33992947  0.31331339  1
  Ge  Ge1  1  0.25000000  0.16007928  0.81337341  1
  Ge  Ge2  1  0.25000000  0.66007631  0.68662463  1
  Ge  Ge3  1  0.75000000  0.83991990  0.18666827  1
  Ge  Ge4  1  0.75000000  0.77694928  0.56941127  1
  Ge  Ge5  1  0.25000000  0.22300904  0.43051814  1
  Ge  Ge6  1  0.75000000  0.27697664  0.93061497  1
  Ge  Ge7  1  0.25000000  0.72306092  0.06950714  1
loop_
_geom_bond_atom_site_label_1
_geom_bond_atom_site_label_2
_geom_bond_distance
_geom_bond_site_symmetry_2
Ce0 Ge0 3.109157 1_555
Ce0 Ge0 3.109157 1_455
Ce0 Ge4 3.138486 1_455
Ce0 Ge4 3.138486 1_555
Ce0 Ge3 3.208629 1_555
Ce0 Ge3 3.208629 1_455
Ce0 Ge7 3.268931 1_555
Ce0 Ge5 3.306448 1_555
Ce0 Ge2 3.420930 1_555
Ce1 Ge2 3.109231 1_555
Ce1 Ge2 3.109231 1_655
Ce1 Ge5 3.139272 1_555
Ce1 Ge5 3.139272 1_655
Ce1 Ge1 3.208515 1_655
Ce1 Ge1 3.208515 1_555
Ce1 Ge6 3.269709 1_555
Ce1 Ge4 3.306668 1_555
Ce1 Ge0 3.421951 1_555
Ce2 Ge3 3.109205 1_445
Ce2 Ge3 3.109205 1_545
Ce2 Ge6 3.138297 1_454
Ce2 Ge6 3.138297 1_554
Ce2 Ge0 3.208564 1_555
Ce2 Ge0 3.208564 1_455
Ce2 Ge5 3.269122 1_555
Ce2 Ge7 3.306126 1_545
Ce2 Ge1 3.420951 1_554
Ce3 Ge1 3.109171 1_565
Ce3 Ge1 3.109171 1_665
Ce3 Ge7 3.139171 1_556
Ce3 Ge7 3.139171 1_656
Ce3 Ge2 3.208779 1_555
Ce3 Ge2 3.208779 1_655
Ce3 Ge4 3.269735 1_555
Ce3 Ge6 3.306832 1_565
Ce3 Ge3 3.421564 1_556
Ge0 Ge5 2.523194 1_655
Ge0 Ge5 2.523194 1_555
Ge0 Li2 2.559694 1_555
Ge0 Li3 2.738979 1_555
Ge1 Ge6 2.523357 1_455
Ge1 Ge6 2.523357 1_555
Ge1 Li0 2.560204 1_545
Ge1 Li1 2.738947 1_555
Ge2 Ge4 2.523105 1_555
Ge2 Ge4 2.523105 1_455
Ge2 Li1 2.560031 1_555
Ge2 Li0 2.739164 1_555
Ge3 Ge7 2.522818 1_655
Ge3 Ge7 2.522818 1_555
Ge3 Li3 2.559773 1_565
Ge3 Li2 2.739078 1_555
Ge4 Li3 2.630925 1_565
Ge4 Li0 2.641974 1_555
Ge4 Li0 2.641974 1_655
Ge5 Li0 2.630795 1_545
Ge5 Li3 2.641457 1_555
Ge5 Li3 2.641457 1_455
Ge6 Li2 2.630392 1_556
Ge6 Li1 2.641774 1_555
Ge6 Li1 2.641774 1_655
Ge7 Li1 2.631669 1_554
Ge7 Li2 2.641665 1_455
Ge7 Li2 2.641665 1_555
