# generated using pymatgen
data_Sm2SCl4
_symmetry_space_group_name_H-M   'P 1'
_cell_length_a   6.42619968
_cell_length_b   7.03569351
_cell_length_c   8.27180258
_cell_angle_alpha   97.39260385
_cell_angle_beta   112.85746445
_cell_angle_gamma   89.99999972
_symmetry_Int_Tables_number   1
_chemical_formula_structural   Sm2SCl4
_chemical_formula_sum   'Sm4 S2 Cl8'
_cell_volume   341.24697530
_cell_formula_units_Z   2
loop_
 _symmetry_equiv_pos_site_id
 _symmetry_equiv_pos_as_xyz
  1  'x, y, z'
loop_
 _atom_site_type_symbol
 _atom_site_label
 _atom_site_symmetry_multiplicity
 _atom_site_fract_x
 _atom_site_fract_y
 _atom_site_fract_z
 _atom_site_occupancy
  Sm  Sm0  1  0.68517657  0.42265888  0.78583885  1
  Sm  Sm1  1  0.89933673  0.07734112  0.21416115  1
  Sm  Sm2  1  0.31482343  0.57734112  0.21416115  1
  Sm  Sm3  1  0.10066327  0.92265888  0.78583885  1
  S  S0  1  0.93449843  0.75000000  -0.00000000  1
  S  S1  1  0.06550057  0.25000000  0.00000000  1
  Cl  Cl0  1  0.30568315  0.57463044  0.82365575  1
  Cl  Cl1  1  0.48202740  0.92536956  0.17634425  1
  Cl  Cl2  1  0.69431685  0.42536956  0.17634425  1
  Cl  Cl3  1  0.51797260  0.07463044  0.82365575  1
  Cl  Cl4  1  0.69976939  0.67945489  0.55934766  1
  Cl  Cl5  1  0.14042273  0.82054511  0.44065234  1
  Cl  Cl6  1  0.30023161  0.32054511  0.44065234  1
  Cl  Cl7  1  0.85957727  0.17945489  0.55934766  1
loop_
_geom_bond_atom_site_label_1
_geom_bond_atom_site_label_2
_geom_bond_distance
_geom_bond_site_symmetry_2
S0 Sm0 2.784684 1_554
S0 Sm1 2.784686 1_565
S0 Sm2 2.788803 1_655
S0 Sm3 2.788807 1_654
S1 Sm2 2.784686 1_555
S1 Sm3 2.784688 1_544
S1 Sm0 2.788799 1_454
S1 Sm1 2.788802 1_455
Cl0 Sm0 2.773975 1_555
Cl0 Sm3 2.776029 1_555
Cl0 Sm2 3.205409 1_556
Cl1 Sm1 2.773969 1_565
Cl1 Sm2 2.776031 1_555
Cl1 Sm3 3.205407 1_554
Cl2 Sm2 2.773975 1_555
Cl2 Sm1 2.776029 1_555
Cl2 Sm0 3.205409 1_554
Cl3 Sm3 2.773969 1_545
Cl3 Sm0 2.776031 1_555
Cl3 Sm1 3.205407 1_556
Cl4 Sm0 2.791166 1_555
Cl4 Sm3 2.915511 1_655
Cl4 Sm2 2.961948 1_555
Cl5 Sm1 2.791170 1_465
Cl5 Sm2 2.915502 1_555
Cl5 Sm3 2.961948 1_555
Cl6 Sm2 2.791164 1_555
Cl6 Sm1 2.915515 1_455
Cl6 Sm0 2.961945 1_555
Cl7 Sm3 2.791170 1_645
Cl7 Sm0 2.915502 1_555
Cl7 Sm1 2.961948 1_555
