# generated using pymatgen
data_US2
_symmetry_space_group_name_H-M   'P 1'
_cell_length_a   7.28705637
_cell_length_b   7.28705637
_cell_length_c   4.05786455
_cell_angle_alpha   90.00000000
_cell_angle_beta   90.00000000
_cell_angle_gamma   119.99999923
_symmetry_Int_Tables_number   1
_chemical_formula_structural   US2
_chemical_formula_sum   'U3 S6'
_cell_volume   186.60893743
_cell_formula_units_Z   3
loop_
 _symmetry_equiv_pos_site_id
 _symmetry_equiv_pos_as_xyz
  1  'x, y, z'
loop_
 _atom_site_type_symbol
 _atom_site_label
 _atom_site_symmetry_multiplicity
 _atom_site_fract_x
 _atom_site_fract_y
 _atom_site_fract_z
 _atom_site_occupancy
  U  U0  1  0.66666700  0.33333300  0.50000000  1
  U  U1  1  0.33333300  0.66666700  0.50000000  1
  U  U2  1  0.00000000  -0.00000000  0.00000000  1
  S  S0  1  0.00014251  0.59429971  0.00000000  1
  S  S1  1  0.40570029  0.40584280  0.00000000  1
  S  S2  1  0.59415720  -0.00014251  -0.00000000  1
  S  S3  1  0.25942220  0.00010196  0.50000000  1
  S  S4  1  0.74067976  0.74057780  0.50000000  1
  S  S5  1  -0.00010196  0.25932024  0.50000000  1
loop_
_geom_bond_atom_site_label_1
_geom_bond_atom_site_label_2
_geom_bond_distance
_geom_bond_site_symmetry_2
S0 U2 2.956880 1_565
S0 U1 3.001559 1_554
S0 U1 3.001559 1_555
S0 U0 3.002821 1_455
S0 U0 3.002821 1_454
S1 U2 2.956880 1_555
S1 U1 3.001564 1_554
S1 U1 3.001564 1_555
S1 U0 3.002824 1_555
S1 U0 3.002824 1_554
S2 U2 2.956880 1_655
S2 U1 3.001560 1_545
S2 U1 3.001560 1_544
S2 U0 3.002819 1_555
S2 U0 3.002819 1_554
S3 U0 2.738078 1_555
S3 U1 2.739062 1_545
S3 U2 2.772880 1_556
S3 U2 2.772880 1_555
S4 U0 2.738081 1_555
S4 U1 2.739069 1_555
S4 U2 2.772880 1_666
S4 U2 2.772880 1_665
S5 U0 2.738074 1_455
S5 U1 2.739067 1_555
S5 U2 2.772880 1_556
S5 U2 2.772880 1_555
