# generated using pymatgen
data_Na12Mg10Ta2Si3(S5O24)3
_symmetry_space_group_name_H-M   'P 1'
_cell_length_a   8.81960975
_cell_length_b   8.86237546
_cell_length_c   22.50962436
_cell_angle_alpha   90.12208662
_cell_angle_beta   90.14362927
_cell_angle_gamma   119.81933106
_symmetry_Int_Tables_number   1
_chemical_formula_structural   Na12Mg10Ta2Si3(S5O24)3
_chemical_formula_sum   'Na12 Mg10 Ta2 Si3 S15 O72'
_cell_volume   1526.44624039
_cell_formula_units_Z   1
loop_
 _symmetry_equiv_pos_site_id
 _symmetry_equiv_pos_as_xyz
  1  'x, y, z'
loop_
 _atom_site_type_symbol
 _atom_site_label
 _atom_site_symmetry_multiplicity
 _atom_site_fract_x
 _atom_site_fract_y
 _atom_site_fract_z
 _atom_site_occupancy
  Na  Na0  1  0.30341259  0.33795926  0.57700229  1
  Na  Na1  1  0.67213052  0.97208972  0.59401565  1
  Na  Na2  1  0.29843469  0.97088438  0.09349573  1
  Na  Na3  1  0.02896843  0.33363110  0.08346239  1
  Na  Na4  1  0.33081048  0.04795895  0.40590462  1
  Na  Na5  1  0.68661398  0.65149073  0.41530500  1
  Na  Na6  1  0.01198176  0.01788381  0.49699471  1
  Na  Na7  1  0.98569415  0.98840284  0.99525465  1
  Na  Na8  1  0.67278105  0.31558651  0.82771288  1
  Na  Na9  1  0.64446109  0.31770004  0.32668838  1
  Na  Na10  1  0.34487727  0.68193968  0.16643144  1
  Na  Na11  1  0.33049816  0.67594080  0.66608912  1
  Mg  Mg0  1  0.01943885  0.02136015  0.34862997  1
  Mg  Mg1  1  0.99472494  0.00417677  0.84937744  1
  Mg  Mg2  1  0.98778141  0.98778591  0.65639132  1
  Mg  Mg3  1  0.00190343  0.98690225  0.15523191  1
  Mg  Mg4  1  0.67020480  0.32946240  0.68763158  1
  Mg  Mg5  1  0.65558121  0.32739494  0.18699065  1
  Mg  Mg6  1  0.66714623  0.33446750  0.97930451  1
  Mg  Mg7  1  0.66473616  0.33423380  0.48110124  1
  Mg  Mg8  1  0.33877493  0.66769647  0.01505297  1
  Mg  Mg9  1  0.32313896  0.65809428  0.51678934  1
  Ta  Ta0  1  0.33151870  0.65957680  0.31236011  1
  Ta  Ta1  1  0.34074564  0.67204032  0.81252940  1
  Si  Si0  1  0.30193471  0.00741190  0.24995764  1
  Si  Si1  1  0.71633284  0.01565009  0.74873860  1
  Si  Si2  1  0.32825483  0.36497765  0.42254657  1
  S  S0  1  0.71150243  0.70907537  0.25223239  1
  S  S1  1  0.99559549  0.29216378  0.24830927  1
  S  S2  1  0.29395696  0.29265959  0.75044452  1
  S  S3  1  0.99832626  0.70807979  0.75214100  1
  S  S4  1  0.96020680  0.33752332  0.58324938  1
  S  S5  1  0.36966825  0.03756356  0.58221911  1
  S  S6  1  0.67309145  0.62997029  0.58272224  1
  S  S7  1  0.95496054  0.62462497  0.08194788  1
  S  S8  1  0.66889428  0.04055133  0.08228031  1
  S  S9  1  0.37442458  0.33755177  0.08163337  1
  S  S10  1  0.62735173  0.66549579  0.91795321  1
  S  S11  1  0.04096628  0.37242806  0.91916652  1
  S  S12  1  0.33024743  0.95851730  0.91813650  1
  S  S13  1  0.62526892  0.95550396  0.41787521  1
  S  S14  1  0.04082397  0.66268757  0.41700765  1
  O  O0  1  0.21041904  0.01800847  0.31037236  1
  O  O1  1  0.80359479  0.78943367  0.30772587  1
  O  O2  1  0.97116941  0.18662761  0.30093796  1
  O  O3  1  0.21418182  0.18594838  0.80250396  1
  O  O4  1  0.98418950  0.79236727  0.80553135  1
  O  O5  1  0.82446095  0.02569129  0.80622904  1
  O  O6  1  0.76884780  0.96202894  0.68635941  1
  O  O7  1  0.19087875  0.22427641  0.69519629  1
  O  O8  1  0.04322125  0.81592750  0.69833701  1
  O  O9  1  0.78342552  0.81964834  0.19979257  1
  O  O10  1  0.02860655  0.22179682  0.19355390  1
  O  O11  1  0.19256166  0.96289345  0.18794656  1
  O  O12  1  0.87437192  0.35327871  0.63660048  1
  O  O13  1  0.48372564  0.12441508  0.63378410  1
  O  O14  1  0.64723993  0.51678750  0.63399089  1
  O  O15  1  0.87534466  0.51763447  0.13522627  1
  O  O16  1  0.64073493  0.12283191  0.13507816  1
  O  O17  1  0.47769735  0.36036018  0.13561888  1
  O  O18  1  0.45635286  0.30894040  0.02883359  1
  O  O19  1  0.85373917  0.53864181  0.02805811  1
  O  O20  1  0.69731559  0.14884551  0.02869450  1
  O  O21  1  0.44667704  0.13999191  0.52677518  1
  O  O22  1  0.68696626  0.54860508  0.52672885  1
  O  O23  1  0.85240451  0.31083090  0.52950097  1
  O  O24  1  0.54318820  0.68933317  0.97046048  1
  O  O25  1  0.14049318  0.45629130  0.97429733  1
  O  O26  1  0.30990973  0.85765537  0.97261476  1
  O  O27  1  0.54657638  0.85402461  0.47231562  1
  O  O28  1  0.31612634  0.45747883  0.48210489  1
  O  O29  1  0.15621824  0.70243563  0.46889390  1
  O  O30  1  0.13286886  0.64718230  0.36281880  1
  O  O31  1  0.50492973  0.86705302  0.36504708  1
  O  O32  1  0.35292636  0.50182834  0.36516303  1
  O  O33  1  0.13691122  0.48562437  0.86680443  1
  O  O34  1  0.34814130  0.85799642  0.86558089  1
  O  O35  1  0.51205801  0.64847076  0.86399981  1
  O  O36  1  0.00764242  0.81001922  0.40987353  1
  O  O37  1  0.79271510  0.96116721  0.40802587  1
  O  O38  1  0.15949408  0.17309624  0.41591549  1
  O  O39  1  0.03003792  0.20160155  0.91351134  1
  O  O40  1  0.17403293  0.97398013  0.90904515  1
  O  O41  1  0.80089108  0.81848852  0.91109217  1
  O  O42  1  0.98563316  0.18094817  0.58678150  1
  O  O43  1  0.19514397  0.02314444  0.58938802  1
  O  O44  1  0.83102244  0.80538546  0.58696041  1
  O  O45  1  0.97616602  0.80189936  0.08572150  1
  O  O46  1  0.82777821  0.02312196  0.08952842  1
  O  O47  1  0.19369973  0.17954328  0.08613479  1
  O  O48  1  0.66980745  0.16867668  0.74551739  1
  O  O49  1  0.47518188  0.33384528  0.74365879  1
  O  O50  1  0.84671380  0.53553341  0.74414320  1
  O  O51  1  0.69003976  0.53599881  0.24454616  1
  O  O52  1  0.85475770  0.33153438  0.24232895  1
  O  O53  1  0.49773788  0.16905847  0.24590106  1
  O  O54  1  0.63285113  0.50247493  0.91917539  1
  O  O55  1  0.86655588  0.35821695  0.92035350  1
  O  O56  1  0.49206631  0.12856655  0.91947295  1
  O  O57  1  0.64192055  0.12903180  0.42103431  1
  O  O58  1  0.51067068  0.35516833  0.41819650  1
  O  O59  1  0.87293374  0.49978886  0.42131493  1
  O  O60  1  0.34852541  0.49149864  0.07600946  1
  O  O61  1  0.13756684  0.64666236  0.07767158  1
  O  O62  1  0.50802287  0.86585176  0.07575737  1
  O  O63  1  0.35562103  0.86272841  0.57673827  1
  O  O64  1  0.51504590  0.65463477  0.58056119  1
  O  O65  1  0.13767876  0.49495593  0.58000486  1
  O  O66  1  0.31847981  0.82251990  0.26170495  1
  O  O67  1  0.52518011  0.68571286  0.25756235  1
  O  O68  1  0.16485274  0.47067748  0.25729938  1
  O  O69  1  0.30271280  0.47139641  0.76036492  1
  O  O70  1  0.15814270  0.68010857  0.76098419  1
  O  O71  1  0.50936956  0.82604767  0.76260021  1
loop_
_geom_bond_atom_site_label_1
_geom_bond_atom_site_label_2
_geom_bond_distance
_geom_bond_site_symmetry_2
Na0 O28 2.364361 1_555
Na0 O42 2.442453 1_455
Na0 O65 2.469776 1_555
Na0 O43 2.475631 1_555
Na0 O64 2.480986 1_555
Na0 O7 2.847556 1_555
Na0 O21 2.855926 1_555
Na0 O14 2.923194 1_555
Na1 O6 2.263579 1_555
Na1 O42 2.451800 1_565
Na1 O64 2.458492 1_555
Na1 O63 2.487015 1_555
Na1 O44 2.496179 1_555
Na1 O13 2.760085 1_565
Na1 O27 2.940359 1_555
Na1 O23 2.988692 1_565
Na2 O11 2.311244 1_555
Na2 O47 2.449421 1_565
Na2 O45 2.472865 1_455
Na2 O62 2.481157 1_555
Na2 O61 2.516905 1_555
Na2 O16 2.782243 1_565
Na2 O26 2.917485 1_554
Na2 O18 2.985479 1_565
Na3 O46 2.426202 1_455
Na3 O47 2.439741 1_555
Na3 O61 2.447474 1_555
Na3 O60 2.451647 1_555
Na3 O10 2.670348 1_555
Na3 O25 2.673469 1_554
Na3 O20 2.822571 1_455
Na3 O15 2.837218 1_455
Na4 O38 2.287090 1_555
Na4 O0 2.351150 1_555
Na4 O58 2.388474 1_555
Na4 O57 2.488901 1_555
Na4 O36 2.569636 1_545
Na4 O31 2.867738 1_545
Na4 O21 2.873966 1_555
Na5 O58 2.292837 1_555
Na5 O37 2.425522 1_555
Na5 O36 2.460013 1_655
Na5 O59 2.592875 1_555
Na5 O22 2.671057 1_555
Na5 O1 2.682107 1_555
Na5 O32 2.790913 1_555
Na5 O27 2.932049 1_555
Na6 O38 2.271209 1_555
Na6 O42 2.559499 1_455
Na6 O43 2.616277 1_555
Na6 O37 2.648134 1_445
Na6 O36 2.674875 1_545
Na6 O44 2.690360 1_445
Na7 O41 2.458562 1_555
Na7 O39 2.528264 1_665
Na7 O45 2.600559 1_556
Na7 O40 2.601437 1_655
Na7 O46 2.641184 1_566
Na7 O47 2.701033 1_666
Na8 O48 2.252676 1_555
Na8 O50 2.597627 1_555
Na8 O55 2.597808 1_555
Na8 O49 2.628374 1_555
Na8 O56 2.637706 1_555
Na8 O54 2.770392 1_555
Na9 O53 2.235941 1_555
Na9 O58 2.478789 1_555
Na9 O51 2.562954 1_555
Na9 O52 2.617896 1_555
Na9 O57 2.698968 1_555
Na9 O59 2.816262 1_555
Na10 O66 2.546602 1_555
Na10 O62 2.566959 1_555
Na10 O67 2.582295 1_555
Na10 O61 2.615933 1_555
Na10 O60 2.651787 1_555
Na10 O68 2.699297 1_555
Na11 O65 2.544982 1_555
Na11 O63 2.546795 1_555
Na11 O64 2.590575 1_555
Na11 O71 2.619393 1_555
Na11 O70 2.635639 1_555
Na11 O69 2.725193 1_555
Mg0 O0 1.906964 1_555
Mg0 O38 1.989475 1_555
Mg0 O2 2.025702 1_455
Mg0 O1 2.188183 1_445
Mg0 O37 2.241901 1_445
Mg0 O36 2.288507 1_545
Mg1 O5 1.874276 1_555
Mg1 O4 2.079552 1_545
Mg1 O3 2.090724 1_655
Mg1 O39 2.165038 1_655
Mg1 O41 2.187282 1_545
Mg1 O40 2.188200 1_645
Mg2 O6 1.950485 1_555
Mg2 O8 2.048115 1_655
Mg2 O7 2.148221 1_665
Mg2 O44 2.173198 1_555
Mg2 O43 2.272338 1_665
Mg2 O42 2.330143 1_565
Mg3 O11 1.940461 1_555
Mg3 O9 2.022768 1_455
Mg3 O10 2.153342 1_565
Mg3 O45 2.192029 1_455
Mg3 O46 2.264880 1_465
Mg3 O47 2.312487 1_565
Mg4 O48 1.931637 1_555
Mg4 O12 2.059098 1_555
Mg4 O13 2.117685 1_555
Mg4 O50 2.128269 1_555
Mg4 O14 2.143997 1_555
Mg4 O49 2.151189 1_555
Mg5 O53 1.933874 1_555
Mg5 O17 2.081356 1_555
Mg5 O16 2.103186 1_555
Mg5 O52 2.136251 1_555
Mg5 O51 2.148871 1_555
Mg5 O15 2.174092 1_555
Mg6 O19 2.051276 1_556
Mg6 O18 2.084137 1_556
Mg6 O20 2.110597 1_556
Mg6 O55 2.131423 1_555
Mg6 O54 2.143548 1_555
Mg6 O56 2.169052 1_555
Mg7 O58 2.031722 1_555
Mg7 O23 2.074327 1_555
Mg7 O22 2.079160 1_555
Mg7 O21 2.108063 1_555
Mg7 O59 2.162618 1_555
Mg7 O57 2.190904 1_555
Mg8 O24 1.990135 1_554
Mg8 O25 2.033748 1_554
Mg8 O26 2.059939 1_554
Mg8 O60 2.114366 1_555
Mg8 O62 2.133491 1_555
Mg8 O61 2.203472 1_555
Mg9 O28 1.912821 1_555
Mg9 O29 2.013268 1_555
Mg9 O65 2.111657 1_555
Mg9 O27 2.124820 1_555
Mg9 O63 2.159375 1_555
Mg9 O64 2.228422 1_555
O0 Si0 1.609344 1_555
O1 S0 1.463924 1_555
O2 S1 1.459524 1_555
O3 S2 1.452487 1_555
O4 S3 1.451689 1_555
O5 Si1 1.581439 1_555
O6 Si1 1.622111 1_565
O7 S2 1.477674 1_555
O8 S3 1.472429 1_455
O9 S0 1.465087 1_555
O10 S1 1.473727 1_455
O11 Si0 1.626946 1_565
O12 S4 1.464156 1_555
O13 S5 1.473738 1_555
O14 S6 1.472663 1_555
O15 S7 1.475565 1_555
O16 S8 1.477751 1_555
O17 S9 1.468828 1_555
O18 S9 1.477900 1_555
O19 S7 1.470774 1_555
O20 S8 1.485275 1_555
O21 S5 1.496259 1_555
O22 S6 1.485996 1_555
O23 S4 1.480883 1_555
O24 S10 1.466917 1_555
O25 S11 1.484821 1_555
O26 S12 1.476916 1_555
O27 S13 1.476615 1_555
O28 Si2 1.601259 1_555
O29 S14 1.469588 1_555
O30 S14 1.510276 1_555
O30 Ta0 2.047141 1_555
O31 S13 1.522255 1_555
O31 Ta0 2.076382 1_555
O32 Si2 1.712411 1_555
O32 Ta0 1.916065 1_555
O33 S11 1.509119 1_555
O33 Ta1 2.125950 1_555
O34 S12 1.534373 1_555
O34 Ta1 2.007624 1_555
O35 S10 1.540170 1_555
O35 Ta1 1.993719 1_555
O36 S14 1.482224 1_555
O37 S13 1.469902 1_555
O38 Si2 1.615544 1_555
O39 S11 1.473591 1_555
O40 S12 1.464695 1_555
O41 S10 1.463907 1_555
O42 S4 1.513928 1_555
O43 S5 1.489070 1_555
O44 S6 1.487000 1_555
O45 S7 1.489158 1_555
O46 S8 1.492760 1_555
O47 S9 1.514391 1_555
O48 Si1 1.602052 1_555
O49 S2 1.460302 1_555
O50 S3 1.456992 1_555
O51 S0 1.458925 1_555
O52 S1 1.453670 1_555
O53 Si0 1.607409 1_555
O54 S10 1.469786 1_555
O55 S11 1.479960 1_655
O56 S12 1.472905 1_545
O57 S13 1.471913 1_545
O58 Si2 1.656910 1_555
O59 S14 1.470189 1_655
O60 S9 1.496710 1_555
O61 S7 1.526175 1_455
O62 S8 1.498334 1_565
O63 S5 1.496521 1_565
O64 S6 1.515200 1_555
O65 S4 1.493666 1_455
O66 Si0 1.736553 1_565
O66 Ta0 1.889492 1_555
O67 S0 1.555757 1_555
O67 Ta0 2.027501 1_555
O68 S1 1.555833 1_455
O68 Ta0 2.008499 1_555
O69 S2 1.562607 1_555
O69 Ta1 2.012243 1_555
O70 S3 1.560166 1_455
O70 Ta1 2.012586 1_555
O71 Si1 1.790922 1_565
O71 Ta1 1.825906 1_555
