# generated using pymatgen
data_Na7Mg2Sc2P5SO24
_symmetry_space_group_name_H-M   'P 1'
_cell_length_a   9.01659621
_cell_length_b   9.02793232
_cell_length_c   22.36674809
_cell_angle_alpha   90.06469702
_cell_angle_beta   89.93412011
_cell_angle_gamma   119.92601760
_symmetry_Int_Tables_number   1
_chemical_formula_structural   Na7Mg2Sc2P5SO24
_chemical_formula_sum   'Na21 Mg6 Sc6 P15 S3 O72'
_cell_volume   1577.92842549
_cell_formula_units_Z   3
loop_
 _symmetry_equiv_pos_site_id
 _symmetry_equiv_pos_as_xyz
  1  'x, y, z'
loop_
 _atom_site_type_symbol
 _atom_site_label
 _atom_site_symmetry_multiplicity
 _atom_site_fract_x
 _atom_site_fract_y
 _atom_site_fract_z
 _atom_site_occupancy
  Na  Na0  1  0.64065241  0.99730724  0.25157534  1
  Na  Na1  1  0.99983622  0.62989467  0.25337947  1
  Na  Na2  1  0.63410454  0.63850355  0.74884358  1
  Na  Na3  1  0.00518910  0.36766350  0.75204770  1
  Na  Na4  1  0.36303110  0.99456630  0.75209162  1
  Na  Na5  1  0.29865611  0.33226961  0.58545837  1
  Na  Na6  1  0.03589496  0.70257998  0.58255476  1
  Na  Na7  1  0.66741174  0.96401229  0.58338740  1
  Na  Na8  1  0.29906260  0.96485132  0.08056369  1
  Na  Na9  1  0.66705948  0.70080199  0.08587188  1
  Na  Na10  1  0.03611139  0.33344176  0.08375857  1
  Na  Na11  1  0.98066959  0.66860140  0.91644471  1
  Na  Na12  1  0.32889152  0.29871462  0.91869844  1
  Na  Na13  1  0.96571939  0.30629810  0.41464550  1
  Na  Na14  1  0.70065908  0.67157777  0.41815447  1
  Na  Na15  1  0.00511780  0.99434852  0.50215759  1
  Na  Na16  1  0.99802221  0.00620594  0.00172104  1
  Na  Na17  1  0.66851174  0.31790766  0.83420651  1
  Na  Na18  1  0.65976357  0.32913703  0.33328872  1
  Na  Na19  1  0.33425596  0.65031753  0.16785604  1
  Na  Na20  1  0.33374113  0.66777178  0.66673427  1
  Mg  Mg0  1  0.99949853  0.99973432  0.65053190  1
  Mg  Mg1  1  0.99668995  0.00395960  0.14985637  1
  Mg  Mg2  1  0.32769438  0.66684685  0.01688422  1
  Mg  Mg3  1  0.33451653  0.67640693  0.51649075  1
  Mg  Mg4  1  0.33288521  0.66286387  0.31668166  1
  Mg  Mg5  1  0.32907442  0.67059746  0.81660574  1
  Sc  Sc0  1  0.99434873  0.99484248  0.35034684  1
  Sc  Sc1  1  0.00029035  0.00586462  0.84977053  1
  Sc  Sc2  1  0.66715062  0.33319358  0.68324403  1
  Sc  Sc3  1  0.66726500  0.33827505  0.18330103  1
  Sc  Sc4  1  0.66788483  0.32194062  0.98304742  1
  Sc  Sc5  1  0.66610165  0.32696889  0.48313972  1
  P  P0  1  0.70113840  0.70433785  0.24868003  1
  P  P1  1  0.00469617  0.29840052  0.24894766  1
  P  P2  1  0.29524666  0.29763743  0.74913313  1
  P  P3  1  0.00112080  0.70661356  0.74925821  1
  P  P4  1  0.70415284  0.99692168  0.74816513  1
  P  P5  1  0.96633937  0.33339591  0.58312915  1
  P  P6  1  0.36942642  0.03706067  0.58406101  1
  P  P7  1  0.66552087  0.62990365  0.58250745  1
  P  P8  1  0.96369133  0.63136266  0.08285479  1
  P  P9  1  0.66550820  0.03393794  0.08500903  1
  P  P10  1  0.37092331  0.33360112  0.08209213  1
  P  P11  1  0.04173941  0.37465201  0.91660102  1
  P  P12  1  0.33374015  0.96027168  0.91631134  1
  P  P13  1  0.62353931  0.95878334  0.41560752  1
  P  P14  1  0.04162596  0.66820255  0.41667598  1
  S  S0  1  0.29282830  0.00055048  0.24890353  1
  S  S1  1  0.62557981  0.66849386  0.91695500  1
  S  S2  1  0.33324560  0.37541205  0.41726662  1
  O  O0  1  0.21005083  0.02370609  0.30226864  1
  O  O1  1  0.81753396  0.78819629  0.30523090  1
  O  O2  1  0.97619305  0.18494076  0.30565050  1
  O  O3  1  0.21359103  0.18386325  0.80552087  1
  O  O4  1  0.96945689  0.78761796  0.80591385  1
  O  O5  1  0.82269414  0.02935043  0.80258141  1
  O  O6  1  0.78348868  0.96926655  0.69149772  1
  O  O7  1  0.18408162  0.21510705  0.69365345  1
  O  O8  1  0.02742939  0.81680177  0.69380821  1
  O  O9  1  0.78828673  0.81496734  0.19332583  1
  O  O10  1  0.02448433  0.21296916  0.19283178  1
  O  O11  1  0.19011733  0.97583032  0.19453449  1
  O  O12  1  0.88022368  0.36280427  0.63880657  1
  O  O13  1  0.48119640  0.11979525  0.64072445  1
  O  O14  1  0.63768496  0.51619786  0.63861678  1
  O  O15  1  0.87748007  0.51610094  0.13864901  1
  O  O16  1  0.63459302  0.11651016  0.14127233  1
  O  O17  1  0.49027172  0.36212097  0.13600423  1
  O  O18  1  0.45393020  0.30517779  0.02537208  1
  O  O19  1  0.84809629  0.54608346  0.02733165  1
  O  O20  1  0.69614198  0.15428472  0.03112513  1
  O  O21  1  0.46025568  0.15681000  0.53044393  1
  O  O22  1  0.69262068  0.54234360  0.52693537  1
  O  O23  1  0.85099059  0.30500644  0.52758676  1
  O  O24  1  0.54609734  0.68877279  0.97149014  1
  O  O25  1  0.15176625  0.45429133  0.97282260  1
  O  O26  1  0.30564981  0.85243896  0.97277604  1
  O  O27  1  0.54803831  0.84888430  0.47199017  1
  O  O28  1  0.30549575  0.44999736  0.47233144  1
  O  O29  1  0.14252249  0.68763903  0.47392472  1
  O  O30  1  0.12056469  0.63689736  0.36051379  1
  O  O31  1  0.52142754  0.87661099  0.35878375  1
  O  O32  1  0.36030548  0.48364765  0.36462997  1
  O  O33  1  0.12272203  0.48282906  0.86013388  1
  O  O34  1  0.35718448  0.88012571  0.85934950  1
  O  O35  1  0.52183567  0.64313330  0.86276818  1
  O  O36  1  0.01384407  0.82619848  0.41109520  1
  O  O37  1  0.81139976  0.98334317  0.41099184  1
  O  O38  1  0.17777298  0.20261950  0.41063207  1
  O  O39  1  0.02276351  0.19323253  0.91109235  1
  O  O40  1  0.16748646  0.97810935  0.91186526  1
  O  O41  1  0.80258687  0.81799056  0.91215632  1
  O  O42  1  0.98101201  0.17048873  0.58818998  1
  O  O43  1  0.19048885  0.02010653  0.58873081  1
  O  O44  1  0.82825483  0.80756646  0.58771330  1
  O  O45  1  0.98174465  0.81042998  0.08940896  1
  O  O46  1  0.82846812  0.01857035  0.08896080  1
  O  O47  1  0.19291002  0.17093264  0.08861366  1
  O  O48  1  0.68633872  0.16120609  0.74481078  1
  O  O49  1  0.47640167  0.31379599  0.74494365  1
  O  O50  1  0.83710220  0.52466510  0.74501053  1
  O  O51  1  0.69052679  0.52620805  0.24498380  1
  O  O52  1  0.83406730  0.30903642  0.24608650  1
  O  O53  1  0.46868617  0.15184076  0.24522665  1
  O  O54  1  0.64410207  0.51074967  0.92097760  1
  O  O55  1  0.86213608  0.36186719  0.92222756  1
  O  O56  1  0.48846081  0.14769968  0.92125405  1
  O  O57  1  0.65311499  0.14462916  0.42119612  1
  O  O58  1  0.48974924  0.35880649  0.42211189  1
  O  O59  1  0.85471660  0.50574565  0.42106685  1
  O  O60  1  0.35489946  0.49616568  0.07735941  1
  O  O61  1  0.14166328  0.64612268  0.07804260  1
  O  O62  1  0.50464990  0.85582710  0.07754495  1
  O  O63  1  0.35444318  0.85927034  0.57825987  1
  O  O64  1  0.50229301  0.64490292  0.57730810  1
  O  O65  1  0.14470210  0.49489872  0.57729950  1
  O  O66  1  0.31023289  0.84427939  0.25477096  1
  O  O67  1  0.52577199  0.69206771  0.25635330  1
  O  O68  1  0.15635821  0.48184789  0.25558594  1
  O  O69  1  0.31864068  0.47864799  0.75676279  1
  O  O70  1  0.16015286  0.68439445  0.75516850  1
  O  O71  1  0.52446387  0.83757651  0.75616483  1
loop_
_geom_bond_atom_site_label_1
_geom_bond_atom_site_label_2
_geom_bond_distance
_geom_bond_site_symmetry_2
Na0 O67 2.414648 1_555
Na0 O52 2.465739 1_565
Na0 O53 2.555394 1_565
Na0 O66 2.585097 1_555
Na0 O31 2.631371 1_555
Na0 O16 2.704209 1_565
Na0 O9 2.890810 1_555
Na0 O2 2.894113 1_565
Na1 O68 2.379693 1_655
Na1 O51 2.466896 1_555
Na1 O66 2.484990 1_655
Na1 O52 2.516154 1_555
Na1 O30 2.620677 1_655
Na1 O15 2.779810 1_555
Na1 O1 2.902602 1_555
Na1 O11 3.014529 1_655
Na2 O71 2.450673 1_555
Na2 O69 2.471521 1_555
Na2 O50 2.508001 1_555
Na2 O49 2.542352 1_555
Na2 O14 2.706979 1_555
Na2 O35 2.748716 1_555
Na2 O6 2.892717 1_555
Na2 O4 2.920305 1_555
Na3 O70 2.479289 1_555
Na3 O69 2.485519 1_555
Na3 O48 2.533651 1_455
Na3 O50 2.544636 1_455
Na3 O33 2.636170 1_555
Na3 O12 2.764737 1_455
Na3 O5 2.881441 1_455
Na3 O7 2.900375 1_555
Na4 O70 2.466051 1_555
Na4 O71 2.488910 1_555
Na4 O48 2.532093 1_565
Na4 O49 2.537235 1_565
Na4 O34 2.603155 1_555
Na4 O13 2.723313 1_565
Na4 O3 2.907493 1_565
Na4 O8 2.930953 1_555
Na5 O65 2.480033 1_555
Na5 O43 2.481254 1_555
Na5 O42 2.483117 1_455
Na5 O64 2.490050 1_555
Na5 O7 2.636677 1_555
Na5 O28 2.734240 1_555
Na5 O21 2.905296 1_555
Na5 O14 2.907711 1_555
Na6 O44 2.487288 1_455
Na6 O43 2.488414 1_565
Na6 O63 2.491123 1_555
Na6 O65 2.515203 1_555
Na6 O29 2.639932 1_555
Na6 O8 2.708044 1_555
Na6 O12 2.944698 1_455
Na6 O22 2.959331 1_455
Na7 O44 2.480282 1_555
Na7 O63 2.491699 1_555
Na7 O42 2.494559 1_565
Na7 O64 2.500937 1_555
Na7 O6 2.626934 1_555
Na7 O27 2.707572 1_555
Na7 O23 2.948598 1_565
Na7 O13 2.964596 1_565
Na8 O47 2.487075 1_565
Na8 O45 2.487620 1_455
Na8 O61 2.494464 1_555
Na8 O62 2.495904 1_555
Na8 O26 2.626781 1_554
Na8 O11 2.750233 1_555
Na8 O18 2.938975 1_565
Na8 O16 2.956924 1_565
Na9 O60 2.486686 1_555
Na9 O62 2.486760 1_555
Na9 O46 2.487330 1_565
Na9 O45 2.496996 1_555
Na9 O9 2.628642 1_555
Na9 O24 2.762987 1_554
Na9 O17 2.878843 1_555
Na9 O19 2.931864 1_555
Na10 O61 2.492115 1_555
Na10 O60 2.495403 1_555
Na10 O47 2.496660 1_555
Na10 O46 2.507880 1_455
Na10 O10 2.652782 1_555
Na10 O25 2.701759 1_554
Na10 O20 2.907837 1_455
Na10 O15 2.935501 1_455
Na11 O55 2.423806 1_555
Na11 O40 2.441224 1_655
Na11 O41 2.562765 1_555
Na11 O54 2.633460 1_555
Na11 O4 2.718736 1_555
Na11 O19 2.735648 1_556
Na11 O26 2.842463 1_655
Na11 O33 2.859105 1_655
Na12 O56 2.426848 1_555
Na12 O39 2.435722 1_555
Na12 O40 2.513073 1_545
Na12 O54 2.513238 1_555
Na12 O18 2.628202 1_556
Na12 O3 2.736522 1_555
Na12 O25 2.866825 1_555
Na12 O35 2.977630 1_555
Na13 O57 2.447697 1_555
Na13 O59 2.462059 1_555
Na13 O38 2.514948 1_655
Na13 O37 2.528931 1_545
Na13 O2 2.692419 1_555
Na13 O23 2.726462 1_555
Na13 O30 2.858279 1_655
Na13 O28 2.961973 1_655
Na14 O36 2.452372 1_655
Na14 O37 2.478141 1_555
Na14 O58 2.497969 1_555
Na14 O59 2.500106 1_555
Na14 O22 2.684766 1_555
Na14 O1 2.737001 1_555
Na14 O27 2.845275 1_555
Na14 O32 2.922042 1_555
Na15 O43 2.493155 1_565
Na15 O44 2.523018 1_455
Na15 O36 2.563379 1_555
Na15 O42 2.572100 1_465
Na15 O37 2.655783 1_455
Na15 O38 2.688942 1_565
Na16 O46 2.513974 1_555
Na16 O47 2.543732 1_655
Na16 O39 2.576926 1_654
Na16 O45 2.596236 1_545
Na16 O40 2.610904 1_644
Na16 O41 2.649235 1_544
Na17 O48 2.498983 1_555
Na17 O56 2.509568 1_555
Na17 O55 2.529075 1_555
Na17 O49 2.632783 1_555
Na17 O50 2.635409 1_555
Na17 O54 2.686960 1_555
Na18 O57 2.559625 1_555
Na18 O52 2.565897 1_555
Na18 O51 2.580227 1_555
Na18 O53 2.580508 1_555
Na18 O59 2.586717 1_555
Na18 O58 2.601939 1_555
Na19 O68 2.510348 1_555
Na19 O60 2.513896 1_555
Na19 O67 2.529576 1_555
Na19 O61 2.644735 1_555
Na19 O62 2.653332 1_555
Na19 O66 2.694832 1_555
Na20 O70 2.571243 1_555
Na20 O63 2.573828 1_555
Na20 O64 2.580338 1_555
Na20 O71 2.584385 1_555
Na20 O65 2.586320 1_555
Na20 O69 2.600710 1_555
Mg0 O8 2.036411 1_655
Mg0 O6 2.042200 1_555
Mg0 O7 2.061894 1_665
Mg0 O43 2.142243 1_665
Mg0 O42 2.147154 1_565
Mg0 O44 2.166742 1_555
Mg1 O10 2.017886 1_655
Mg1 O9 2.046468 1_545
Mg1 O46 2.092359 1_555
Mg1 O11 2.133383 1_645
Mg1 O47 2.148707 1_655
Mg1 O45 2.158443 1_545
Mg2 O25 2.032732 1_554
Mg2 O26 2.038779 1_554
Mg2 O61 2.098078 1_555
Mg2 O24 2.134227 1_554
Mg2 O62 2.140344 1_555
Mg2 O60 2.155634 1_555
Mg3 O29 2.023039 1_555
Mg3 O27 2.032197 1_555
Mg3 O63 2.089473 1_555
Mg3 O64 2.157465 1_555
Mg3 O65 2.160005 1_555
Mg3 O28 2.164342 1_555
Mg4 O31 2.055954 1_555
Mg4 O30 2.056572 1_555
Mg4 O32 2.057350 1_555
Mg4 O67 2.110191 1_555
Mg4 O68 2.115669 1_555
Mg4 O66 2.231855 1_555
Mg5 O34 2.018547 1_555
Mg5 O33 2.033681 1_555
Mg5 O70 2.101933 1_555
Mg5 O71 2.133789 1_555
Mg5 O35 2.140804 1_555
Mg5 O69 2.153083 1_555
O0 S0 1.475983 1_555
O0 Sc0 2.120631 1_445
O1 P0 1.575622 1_555
O1 Sc0 2.017979 1_555
O2 P1 1.569477 1_655
O2 Sc0 2.063035 1_545
O3 P2 1.560126 1_555
O3 Sc1 2.043598 1_555
O4 P3 1.558047 1_655
O4 Sc1 2.090784 1_665
O5 P4 1.549021 1_545
O5 Sc1 2.016514 1_655
O6 P4 1.534898 1_555
O7 P2 1.534689 1_555
O8 P3 1.533196 1_555
O9 P0 1.537969 1_555
O10 P1 1.528608 1_555
O11 S0 1.477170 1_565
O12 P5 1.557865 1_555
O12 Sc2 2.057694 1_555
O13 P6 1.558690 1_555
O13 Sc2 2.050324 1_555
O14 P7 1.561043 1_555
O14 Sc2 2.058839 1_555
O15 P8 1.561417 1_555
O15 Sc3 2.032375 1_555
O16 P9 1.556101 1_555
O16 Sc3 2.094445 1_555
O17 P10 1.550547 1_555
O17 Sc3 2.014809 1_555
O18 P10 1.556974 1_555
O18 Sc4 2.084586 1_554
O19 P8 1.556114 1_555
O19 Sc4 2.105845 1_554
O20 P9 1.553070 1_555
O20 Sc4 1.975170 1_554
O21 P6 1.547550 1_555
O21 Sc5 2.019527 1_555
O22 P7 1.555424 1_555
O22 Sc5 2.080798 1_555
O23 P5 1.557883 1_555
O23 Sc5 2.034894 1_555
O24 S1 1.470838 1_555
O25 P11 1.539989 1_555
O26 P12 1.537168 1_555
O27 P13 1.537895 1_555
O28 S2 1.482706 1_555
O29 P14 1.530005 1_555
O30 P14 1.536970 1_555
O31 P13 1.527234 1_555
O32 S2 1.471210 1_555
O33 P11 1.539881 1_555
O34 P12 1.530139 1_555
O35 S1 1.478047 1_555
O36 P14 1.571579 1_555
O36 Sc0 2.113613 1_455
O37 P13 1.598095 1_555
O37 Sc0 2.096686 1_555
O38 S2 1.496221 1_555
O38 Sc0 2.230709 1_445
O39 P11 1.564280 1_555
O39 Sc1 2.106417 1_555
O40 P12 1.588770 1_555
O40 Sc1 2.155665 1_565
O41 S1 1.493653 1_555
O41 Sc1 2.232585 1_665
O42 P5 1.545272 1_555
O43 P6 1.546180 1_555
O44 P7 1.546258 1_555
O45 P8 1.548666 1_555
O46 P9 1.545883 1_555
O47 P10 1.549929 1_555
O48 P4 1.571347 1_545
O48 Sc2 2.147197 1_555
O49 P2 1.568437 1_555
O49 Sc2 2.141908 1_555
O50 P3 1.571779 1_655
O50 Sc2 2.145076 1_555
O51 P0 1.564708 1_555
O51 Sc3 2.113370 1_555
O52 P1 1.589940 1_655
O52 Sc3 2.169226 1_555
O53 S0 1.491845 1_555
O53 Sc3 2.224836 1_555
O54 S1 1.517131 1_555
O54 Sc4 2.291202 1_555
O55 P11 1.569943 1_655
O55 Sc4 2.100921 1_555
O56 P12 1.570419 1_545
O56 Sc4 2.112587 1_555
O57 P13 1.566826 1_545
O57 Sc5 2.108546 1_555
O58 S2 1.495650 1_555
O58 Sc5 2.221740 1_555
O59 P14 1.592057 1_655
O59 Sc5 2.164647 1_555
O60 P10 1.548531 1_555
O61 P8 1.546186 1_455
O62 P9 1.545984 1_565
O63 P6 1.547443 1_565
O64 P7 1.548294 1_555
O65 P5 1.545834 1_455
O66 S0 1.501196 1_565
O67 P0 1.538376 1_555
O68 P1 1.541137 1_555
O69 P2 1.549061 1_555
O70 P3 1.549629 1_555
O71 P4 1.549470 1_555
