# generated using pymatgen
data_MgCuS
_symmetry_space_group_name_H-M   'P 1'
_cell_length_a   4.26201093
_cell_length_b   4.26200943
_cell_length_c   4.26201100
_cell_angle_alpha   59.99999555
_cell_angle_beta   60.00000718
_cell_angle_gamma   60.00000211
_symmetry_Int_Tables_number   1
_chemical_formula_structural   MgCuS
_chemical_formula_sum   'Mg1 Cu1 S1'
_cell_volume   54.74299435
_cell_formula_units_Z   1
loop_
 _symmetry_equiv_pos_site_id
 _symmetry_equiv_pos_as_xyz
  1  'x, y, z'
loop_
 _atom_site_type_symbol
 _atom_site_label
 _atom_site_symmetry_multiplicity
 _atom_site_fract_x
 _atom_site_fract_y
 _atom_site_fract_z
 _atom_site_occupancy
  Mg  Mg0  1  0.25000000  0.25000000  0.25000000  1
  Cu  Cu0  1  0.00000000  0.00000000  0.00000000  1
  S  S0  1  0.50000000  0.50000000  0.50000000  1
loop_
_geom_bond_atom_site_label_1
_geom_bond_atom_site_label_2
_geom_bond_distance
_geom_bond_site_symmetry_2
Mg0 S0 2.609937 1_545
Mg0 S0 2.609938 1_555
Mg0 S0 2.609938 1_554
Mg0 S0 2.609938 1_455
Cu0 Mg0 2.609937 1_545
Cu0 Mg0 2.609938 1_555
Cu0 Mg0 2.609938 1_554
Cu0 Mg0 2.609938 1_455
Cu0 S0 3.013696 1_554
Cu0 S0 3.013696 1_445
Cu0 S0 3.013697 1_454
Cu0 S0 3.013697 1_545
Cu0 S0 3.013697 1_544
Cu0 S0 3.013697 1_455
