# generated using pymatgen
data_Na7TaAl3Si3(PO8)3
_symmetry_space_group_name_H-M   'P 1'
_cell_length_a   8.81882176
_cell_length_b   8.78432009
_cell_length_c   21.69888696
_cell_angle_alpha   89.99641082
_cell_angle_beta   90.10745571
_cell_angle_gamma   120.07213343
_symmetry_Int_Tables_number   1
_chemical_formula_structural   Na7TaAl3Si3(PO8)3
_chemical_formula_sum   'Na21 Ta3 Al9 Si9 P9 O72'
_cell_volume   1454.68743380
_cell_formula_units_Z   3
loop_
 _symmetry_equiv_pos_site_id
 _symmetry_equiv_pos_as_xyz
  1  'x, y, z'
loop_
 _atom_site_type_symbol
 _atom_site_label
 _atom_site_symmetry_multiplicity
 _atom_site_fract_x
 _atom_site_fract_y
 _atom_site_fract_z
 _atom_site_occupancy
  Na  Na0  1  0.63022183  0.99857422  0.25251399  1
  Na  Na1  1  0.36801668  0.37022575  0.25218513  1
  Na  Na2  1  0.00227206  0.63349553  0.25389890  1
  Na  Na3  1  0.63780589  0.62806709  0.74432382  1
  Na  Na4  1  0.99709364  0.35819021  0.74367216  1
  Na  Na5  1  0.29801372  0.33866844  0.58427760  1
  Na  Na6  1  0.03330105  0.69910252  0.58277130  1
  Na  Na7  1  0.66792256  0.96426568  0.58112327  1
  Na  Na8  1  0.30192619  0.96826836  0.08445160  1
  Na  Na9  1  0.66270228  0.69922352  0.08515469  1
  Na  Na10  1  0.03716312  0.33071032  0.08235581  1
  Na  Na11  1  0.32454830  0.29724642  0.91322489  1
  Na  Na12  1  0.97388260  0.29889114  0.41589255  1
  Na  Na13  1  0.32724715  0.02729147  0.41522670  1
  Na  Na14  1  0.69928649  0.67329024  0.41567893  1
  Na  Na15  1  0.99765815  0.00028491  0.49971227  1
  Na  Na16  1  0.99152057  0.99694891  0.99698899  1
  Na  Na17  1  0.66436780  0.32332312  0.82768669  1
  Na  Na18  1  0.66558565  0.33238580  0.33180648  1
  Na  Na19  1  0.33632451  0.66679873  0.16656333  1
  Na  Na20  1  0.33440698  0.67122180  0.66029935  1
  Ta  Ta0  1  0.66922217  0.32833274  0.97918371  1
  Ta  Ta1  1  0.67153893  0.33711678  0.47942760  1
  Ta  Ta2  1  0.32811553  0.66500179  0.81011399  1
  Al  Al0  1  0.99852451  0.99899716  0.35518431  1
  Al  Al1  1  0.00085899  0.00584126  0.85231544  1
  Al  Al2  1  0.99892465  0.00410157  0.64651441  1
  Al  Al3  1  0.00100880  0.00432581  0.14722092  1
  Al  Al4  1  0.65940824  0.33090684  0.68500797  1
  Al  Al5  1  0.66109661  0.33021994  0.18377760  1
  Al  Al6  1  0.33787830  0.66345631  0.01982512  1
  Al  Al7  1  0.33259133  0.66096098  0.51803773  1
  Al  Al8  1  0.33231056  0.66567104  0.31797493  1
  Si  Si0  1  0.29100089  0.27180842  0.74937044  1
  Si  Si1  1  0.96127437  0.33471394  0.58854384  1
  Si  Si2  1  0.66685998  0.63087261  0.58778614  1
  Si  Si3  1  0.66495134  0.03544733  0.08790040  1
  Si  Si4  1  0.37239536  0.33369524  0.08650779  1
  Si  Si5  1  0.04247613  0.37095470  0.91903498  1
  Si  Si6  1  0.61825811  0.94662469  0.41500973  1
  Si  Si7  1  0.32722158  0.37837508  0.41455045  1
  Si  Si8  1  0.05483901  0.67352940  0.41524811  1
  P  P0  1  0.28671506  -0.00003731  0.24915879  1
  P  P1  1  0.71434072  0.71222458  0.24874766  1
  P  P2  1  0.99952889  0.28925052  0.24926574  1
  P  P3  1  0.99801504  0.72188808  0.74961822  1
  P  P4  1  0.71837730  0.00601009  0.74926353  1
  P  P5  1  0.37611576  0.04219924  0.58643296  1
  P  P6  1  0.95752212  0.62423270  0.08683918  1
  P  P7  1  0.63036839  0.67808771  0.91783095  1
  P  P8  1  0.32392955  0.94700523  0.91953532  1
  O  O0  1  0.20152126  0.03117423  0.30627886  1
  O  O1  1  0.82968855  0.79733757  0.30635746  1
  O  O2  1  0.96610029  0.17152458  0.30633565  1
  O  O3  1  0.20079679  0.16972989  0.81267043  1
  O  O4  1  0.96878416  0.80775548  0.80636403  1
  O  O5  1  0.83335818  0.03330601  0.80607724  1
  O  O6  1  0.79041157  0.96165941  0.69149667  1
  O  O7  1  0.16146400  0.19780119  0.69028187  1
  O  O8  1  0.02715691  0.82850558  0.69096019  1
  O  O9  1  0.80161304  0.82847139  0.19147049  1
  O  O10  1  0.03040666  0.20367673  0.19180803  1
  O  O11  1  0.17012037  0.96927212  0.19167132  1
  O  O12  1  0.86330647  0.36707477  0.64595292  1
  O  O13  1  0.50079443  0.13265277  0.64018634  1
  O  O14  1  0.62841185  0.49862505  0.64507782  1
  O  O15  1  0.87266480  0.50300256  0.14298384  1
  O  O16  1  0.62803832  0.12960614  0.14566937  1
  O  O17  1  0.50538044  0.37533527  0.14427457  1
  O  O18  1  0.46350199  0.29754949  0.02490045  1
  O  O19  1  0.83380435  0.53725545  0.02949735  1
  O  O20  1  0.70772424  0.17220085  0.02799486  1
  O  O21  1  0.45672276  0.15824820  0.52651333  1
  O  O22  1  0.70172756  0.53849403  0.52557390  1
  O  O23  1  0.83309898  0.29620965  0.52626157  1
  O  O24  1  0.54391321  0.70043449  0.97544874  1
  O  O25  1  0.16890950  0.46804105  0.97741490  1
  O  O26  1  0.30820303  0.84136641  0.97694600  1
  O  O27  1  0.53421678  0.82945914  0.47647455  1
  O  O28  1  0.29139456  0.45993712  0.47616364  1
  O  O29  1  0.17184389  0.70722896  0.47673257  1
  O  O30  1  0.12990393  0.62556665  0.35426243  1
  O  O31  1  0.49583929  0.86928616  0.35367592  1
  O  O32  1  0.37466764  0.50318430  0.35378576  1
  O  O33  1  0.13603020  0.49618728  0.85736960  1
  O  O34  1  0.36047343  0.86555155  0.86181400  1
  O  O35  1  0.50810847  0.64103703  0.86014519  1
  O  O36  1  0.02292392  0.83980373  0.40753375  1
  O  O37  1  0.81548188  0.97585498  0.40750586  1
  O  O38  1  0.15823354  0.18157726  0.40668509  1
  O  O39  1  0.02551234  0.17989726  0.91106720  1
  O  O40  1  0.16435774  0.97112393  0.91254469  1
  O  O41  1  0.81255801  0.83559439  0.90831104  1
  O  O42  1  0.97736774  0.15790878  0.59026428  1
  O  O43  1  0.19392703  0.02549822  0.59124319  1
  O  O44  1  0.84693662  0.82044386  0.59174181  1
  O  O45  1  0.97332616  0.80642526  0.09209186  1
  O  O46  1  0.83907539  0.01668490  0.09213875  1
  O  O47  1  0.18129596  0.15520091  0.09203045  1
  O  O48  1  0.69906934  0.16949131  0.74328695  1
  O  O49  1  0.49191852  0.31261949  0.74429930  1
  O  O50  1  0.84119824  0.53112046  0.74666503  1
  O  O51  1  0.69651786  0.52545130  0.24388293  1
  O  O52  1  0.83381662  0.31071371  0.24344895  1
  O  O53  1  0.47356303  0.16830471  0.24465073  1
  O  O54  1  0.63578119  0.50202497  0.92230171  1
  O  O55  1  0.85047529  0.36020151  0.92084103  1
  O  O56  1  0.49153389  0.13853484  0.92254855  1
  O  O57  1  0.64003501  0.14584855  0.42114125  1
  O  O58  1  0.50262869  0.35481467  0.42149059  1
  O  O59  1  0.85465577  0.49537148  0.42099502  1
  O  O60  1  0.35354850  0.50792858  0.07807881  1
  O  O61  1  0.13851762  0.64294835  0.07792289  1
  O  O62  1  0.48871805  0.84715403  0.07608810  1
  O  O63  1  0.35897446  0.86035114  0.57924780  1
  O  O64  1  0.49365323  0.64952384  0.57879602  1
  O  O65  1  0.15066748  0.51201613  0.57939918  1
  O  O66  1  0.30711142  0.83363237  0.25292720  1
  O  O67  1  0.52851542  0.69200031  0.25235006  1
  O  O68  1  0.16679757  0.47549109  0.25352916  1
  O  O69  1  0.31450841  0.48122726  0.75566114  1
  O  O70  1  0.16654522  0.69923347  0.75512488  1
  O  O71  1  0.53124949  0.83731176  0.75690250  1
loop_
_geom_bond_atom_site_label_1
_geom_bond_atom_site_label_2
_geom_bond_distance
_geom_bond_site_symmetry_2
Na0 O67 2.374075 1_555
Na0 O52 2.418277 1_565
Na0 O66 2.466029 1_555
Na0 O31 2.484621 1_555
Na0 O53 2.494830 1_565
Na0 O16 2.592675 1_565
Na0 O2 2.814806 1_565
Na0 O9 2.922834 1_555
Na1 O68 2.376855 1_555
Na1 O53 2.386305 1_555
Na1 O67 2.446100 1_555
Na1 O32 2.481750 1_555
Na1 O51 2.515435 1_555
Na1 O17 2.628386 1_555
Na1 O0 2.833292 1_555
Na1 O10 2.888168 1_555
Na2 O66 2.362622 1_555
Na2 O51 2.377322 1_455
Na2 O68 2.459661 1_555
Na2 O52 2.464824 1_455
Na2 O30 2.466538 1_555
Na2 O15 2.662657 1_455
Na2 O1 2.808120 1_455
Na2 O11 2.888893 1_555
Na3 O50 2.340002 1_555
Na3 O49 2.400170 1_555
Na3 O14 2.417165 1_555
Na3 O71 2.463347 1_555
Na3 O69 2.483966 1_555
Na3 O6 2.786639 1_555
Na3 O35 2.789045 1_555
Na3 O4 2.862102 1_555
Na4 O48 2.299813 1_555
Na4 O12 2.444810 1_555
Na4 O69 2.456984 1_655
Na4 O50 2.509036 1_555
Na4 O70 2.604222 1_655
Na4 O7 2.735254 1_655
Na4 O33 2.749156 1_655
Na4 O5 2.817854 1_555
Na5 O64 2.393020 1_555
Na5 O43 2.429636 1_555
Na5 O65 2.449673 1_555
Na5 O42 2.456769 1_455
Na5 O28 2.589050 1_555
Na5 O7 2.605534 1_555
Na5 O14 2.843843 1_555
Na5 O21 2.876059 1_555
Na6 O65 2.341476 1_555
Na6 O44 2.373193 1_455
Na6 O63 2.486905 1_555
Na6 O43 2.487930 1_565
Na6 O29 2.591373 1_555
Na6 O8 2.620825 1_555
Na6 O22 2.816617 1_455
Na6 O12 2.873846 1_455
Na7 O42 2.392874 1_565
Na7 O64 2.397901 1_555
Na7 O63 2.401094 1_555
Na7 O44 2.477683 1_555
Na7 O27 2.557329 1_555
Na7 O6 2.630281 1_555
Na7 O23 2.791204 1_565
Na7 O13 2.862677 1_565
Na8 O47 2.367810 1_565
Na8 O62 2.374005 1_555
Na8 O61 2.476980 1_555
Na8 O45 2.513809 1_455
Na8 O26 2.598097 1_554
Na8 O11 2.604694 1_555
Na8 O18 2.818269 1_565
Na8 O16 2.818722 1_565
Na9 O60 2.384848 1_555
Na9 O45 2.413844 1_555
Na9 O46 2.423052 1_565
Na9 O62 2.465464 1_555
Na9 O9 2.589889 1_555
Na9 O24 2.601175 1_554
Na9 O17 2.777702 1_555
Na9 O19 2.813942 1_555
Na10 O60 2.421760 1_555
Na10 O61 2.423733 1_555
Na10 O46 2.424466 1_455
Na10 O47 2.449398 1_555
Na10 O25 2.568131 1_554
Na10 O10 2.612076 1_555
Na10 O20 2.775602 1_455
Na10 O15 2.886785 1_455
Na11 O39 2.300979 1_555
Na11 O54 2.420331 1_555
Na11 O3 2.443926 1_555
Na11 O40 2.479288 1_545
Na11 O56 2.491917 1_555
Na11 O18 2.712802 1_556
Na11 O25 2.854130 1_555
Na11 O35 2.859102 1_555
Na12 O38 2.329219 1_655
Na12 O59 2.432246 1_555
Na12 O37 2.462372 1_545
Na12 O57 2.553991 1_555
Na12 O2 2.613548 1_555
Na12 O23 2.694309 1_555
Na12 O28 2.751145 1_655
Na12 O30 2.822360 1_655
Na13 O36 2.347685 1_545
Na13 O57 2.414466 1_555
Na13 O38 2.473091 1_555
Na13 O58 2.495570 1_555
Na13 O0 2.616730 1_555
Na13 O21 2.670575 1_555
Na13 O29 2.776500 1_545
Na13 O31 2.827819 1_545
Na14 O37 2.327382 1_555
Na14 O58 2.447151 1_555
Na14 O36 2.476830 1_655
Na14 O59 2.545352 1_555
Na14 O1 2.625080 1_555
Na14 O22 2.667180 1_555
Na14 O27 2.783907 1_555
Na14 O32 2.816145 1_555
Na15 O42 2.461685 1_555
Na15 O44 2.481002 1_545
Na15 O37 2.504542 1_545
Na15 O36 2.520804 1_645
Na15 O38 2.523170 1_655
Na15 O43 2.567600 1_655
Na16 O39 2.380650 1_665
Na16 O41 2.439164 1_555
Na16 O40 2.467644 1_655
Na16 O46 2.518774 1_566
Na16 O47 2.577261 1_666
Na16 O45 2.610937 1_556
Na17 O49 2.332819 1_555
Na17 O48 2.385475 1_555
Na17 O50 2.451890 1_555
Na17 O55 2.517791 1_555
Na17 O56 2.593625 1_555
Na17 O54 2.672390 1_555
Na18 O53 2.462500 1_555
Na18 O57 2.474804 1_555
Na18 O51 2.475566 1_555
Na18 O59 2.484178 1_555
Na18 O58 2.487052 1_555
Na18 O52 2.491378 1_555
Na19 O60 2.423016 1_555
Na19 O67 2.449279 1_555
Na19 O62 2.458868 1_555
Na19 O66 2.471139 1_555
Na19 O68 2.472351 1_555
Na19 O61 2.531317 1_555
Na20 O65 2.319828 1_555
Na20 O64 2.326776 1_555
Na20 O63 2.353839 1_555
Na20 O69 2.608727 1_555
Na20 O70 2.619591 1_555
Na20 O71 2.642832 1_555
Al0 O38 1.880247 1_665
Al0 O36 1.895417 1_655
Al0 O37 1.901042 1_555
Al0 O1 1.956644 1_555
Al0 O0 1.977573 1_665
Al0 O2 1.983708 1_565
Al1 O3 1.839333 1_555
Al1 O5 1.896950 1_455
Al1 O4 1.899440 1_445
Al1 O39 1.917367 1_555
Al1 O41 1.997231 1_445
Al1 O40 2.076910 1_545
Al2 O7 1.844606 1_655
Al2 O42 1.899395 1_555
Al2 O44 1.907617 1_545
Al2 O8 1.937827 1_645
Al2 O6 1.947475 1_545
Al2 O43 2.028502 1_655
Al3 O47 1.900976 1_555
Al3 O10 1.901080 1_555
Al3 O46 1.904905 1_455
Al3 O9 1.919418 1_445
Al3 O11 1.924600 1_545
Al3 O45 2.021519 1_445
Al4 O14 1.843524 1_555
Al4 O12 1.866970 1_555
Al4 O13 1.867942 1_555
Al4 O49 1.905794 1_555
Al4 O48 2.056008 1_555
Al4 O50 2.149377 1_555
Al5 O17 1.821682 1_555
Al5 O16 1.832679 1_555
Al5 O15 1.932963 1_555
Al5 O53 2.037992 1_555
Al5 O51 2.049774 1_555
Al5 O52 2.068843 1_555
Al6 O25 1.856217 1_554
Al6 O60 1.916182 1_555
Al6 O62 1.925307 1_555
Al6 O24 1.936282 1_554
Al6 O26 1.945605 1_554
Al6 O61 2.098473 1_555
Al7 O28 1.852527 1_555
Al7 O27 1.879922 1_555
Al7 O29 1.884330 1_555
Al7 O64 1.975267 1_555
Al7 O65 1.990666 1_555
Al7 O63 2.115827 1_555
Al8 O31 1.813824 1_555
Al8 O30 1.818054 1_555
Al8 O32 1.820366 1_555
Al8 O68 2.103762 1_555
Al8 O66 2.132053 1_555
Al8 O67 2.164091 1_555
O0 P0 1.544611 1_555
O1 P1 1.545825 1_555
O2 P2 1.544524 1_555
O3 Si0 1.616339 1_555
O4 P3 1.532228 1_555
O5 P4 1.535301 1_555
O6 P4 1.541951 1_565
O7 Si0 1.619225 1_555
O8 P3 1.524176 1_455
O9 P1 1.547762 1_555
O10 P2 1.549250 1_455
O11 P0 1.550289 1_565
O12 Si1 1.621497 1_555
O13 P5 1.523320 1_555
O14 Si2 1.617600 1_555
O15 P6 1.543655 1_555
O16 Si3 1.622626 1_555
O17 Si4 1.626352 1_555
O18 Si4 1.671276 1_555
O18 Ta0 1.965608 1_554
O19 P6 1.575408 1_555
O19 Ta0 1.997862 1_554
O20 Si3 1.680058 1_555
O20 Ta0 1.892961 1_554
O21 P5 1.584953 1_555
O21 Ta1 2.031133 1_555
O22 Si2 1.681412 1_555
O22 Ta1 1.931321 1_555
O23 Si1 1.682174 1_555
O23 Ta1 1.923399 1_555
O24 P7 1.528575 1_555
O25 Si5 1.617754 1_555
O26 P8 1.517816 1_555
O27 Si6 1.620637 1_555
O28 Si7 1.621456 1_555
O29 Si8 1.618964 1_555
O30 Si8 1.627816 1_555
O31 Si6 1.630328 1_555
O32 Si7 1.630260 1_555
O33 Si5 1.666034 1_555
O33 Ta2 1.899695 1_555
O34 P8 1.554757 1_555
O34 Ta2 1.984625 1_555
O35 P7 1.574333 1_555
O35 Ta2 2.017643 1_555
O36 Si8 1.628616 1_555
O37 Si6 1.634329 1_555
O38 Si7 1.629647 1_555
O39 Si5 1.617811 1_555
O40 P8 1.531731 1_555
O41 P7 1.520468 1_555
O42 Si1 1.629287 1_555
O43 P5 1.542164 1_555
O44 Si2 1.628373 1_555
O45 P6 1.539557 1_555
O46 Si3 1.626868 1_555
O47 Si4 1.632643 1_555
O48 P4 1.533970 1_555
O49 Si0 1.626112 1_555
O50 P3 1.549826 1_555
O51 P1 1.571365 1_555
O52 P2 1.569256 1_555
O53 P0 1.571653 1_555
O54 P7 1.574035 1_555
O54 Ta0 2.094689 1_555
O55 Si5 1.648458 1_655
O55 Ta0 1.948116 1_555
O56 P8 1.589677 1_545
O56 Ta0 2.029829 1_555
O57 Si6 1.667440 1_545
O57 Ta1 2.007699 1_555
O58 Si7 1.666832 1_555
O58 Ta1 2.012101 1_555
O59 Si8 1.677288 1_655
O59 Ta1 1.976265 1_555
O60 Si4 1.630448 1_555
O61 P6 1.533094 1_455
O62 Si3 1.624582 1_565
O63 P5 1.535196 1_565
O64 Si2 1.627198 1_555
O65 Si1 1.627562 1_455
O66 P0 1.561142 1_565
O67 P1 1.559460 1_555
O68 P2 1.562680 1_455
O69 Si0 1.750278 1_555
O69 Ta2 1.955030 1_555
O70 P3 1.599540 1_455
O70 Ta2 1.991821 1_555
O71 P4 1.580184 1_565
O71 Ta2 2.030633 1_555
