# generated using pymatgen
data_NaLiSe
_symmetry_space_group_name_H-M   'P 1'
_cell_length_a   4.23926885
_cell_length_b   7.11896855
_cell_length_c   7.68086402
_cell_angle_alpha   90.00000000
_cell_angle_beta   90.00000000
_cell_angle_gamma   90.00000000
_symmetry_Int_Tables_number   1
_chemical_formula_structural   NaLiSe
_chemical_formula_sum   'Na4 Li4 Se4'
_cell_volume   231.80249748
_cell_formula_units_Z   4
loop_
 _symmetry_equiv_pos_site_id
 _symmetry_equiv_pos_as_xyz
  1  'x, y, z'
loop_
 _atom_site_type_symbol
 _atom_site_label
 _atom_site_symmetry_multiplicity
 _atom_site_fract_x
 _atom_site_fract_y
 _atom_site_fract_z
 _atom_site_occupancy
  Na  Na0  1  0.75000000  0.48733489  0.31469509  1
  Na  Na1  1  0.25000000  0.51266511  0.68530491  1
  Na  Na2  1  0.75000000  0.98733489  0.18530491  1
  Na  Na3  1  0.25000000  0.01266511  0.81469509  1
  Li  Li0  1  0.75000000  0.35592783  0.92679184  1
  Li  Li1  1  0.25000000  0.64407217  0.07320816  1
  Li  Li2  1  0.75000000  0.85592783  0.57320816  1
  Li  Li3  1  0.25000000  0.14407217  0.42679184  1
  Se  Se0  1  0.75000000  0.72264540  0.89488818  1
  Se  Se1  1  0.25000000  0.27735460  0.10511182  1
  Se  Se2  1  0.75000000  0.22264540  0.60511182  1
  Se  Se3  1  0.25000000  0.77735460  0.39488818  1
loop_
_geom_bond_atom_site_label_1
_geom_bond_atom_site_label_2
_geom_bond_distance
_geom_bond_site_symmetry_2
Na0 Se2 2.920009 1_555
Na0 Se3 3.022415 1_555
Na0 Se3 3.022415 1_655
Na0 Se1 3.052671 1_555
Na0 Se1 3.052671 1_655
Na1 Se3 2.920009 1_555
Na1 Se2 3.022415 1_455
Na1 Se2 3.022415 1_555
Na1 Se0 3.052671 1_555
Na1 Se0 3.052671 1_455
Na2 Se0 2.920009 1_554
Na2 Se1 3.022415 1_565
Na2 Se1 3.022415 1_665
Na2 Se3 3.052671 1_555
Na2 Se3 3.052671 1_655
Na3 Se1 2.920009 1_556
Na3 Se0 3.022415 1_445
Na3 Se0 3.022415 1_545
Na3 Se2 3.052671 1_555
Na3 Se2 3.052671 1_455
Li0 Se1 2.584894 1_656
Li0 Se1 2.584894 1_556
Li0 Se0 2.622126 1_555
Li0 Se2 2.646704 1_555
Li1 Se0 2.584894 1_554
Li1 Se0 2.584894 1_454
Li1 Se1 2.622126 1_555
Li1 Se3 2.646704 1_555
Li2 Se3 2.584894 1_555
Li2 Se3 2.584894 1_655
Li2 Se2 2.622126 1_565
Li2 Se0 2.646704 1_555
Li3 Se2 2.584894 1_455
Li3 Se2 2.584894 1_555
Li3 Se3 2.622126 1_545
Li3 Se1 2.646704 1_555
