# generated using pymatgen
data_Na3Zr3Ga(PO4)6
_symmetry_space_group_name_H-M   'P 1'
_cell_length_a   8.88415178
_cell_length_b   8.87364911
_cell_length_c   23.01478157
_cell_angle_alpha   89.99729941
_cell_angle_beta   90.00300502
_cell_angle_gamma   120.16405379
_symmetry_Int_Tables_number   1
_chemical_formula_structural   Na3Zr3Ga(PO4)6
_chemical_formula_sum   'Na9 Zr9 Ga3 P18 O72'
_cell_volume   1568.68373701
_cell_formula_units_Z   3
loop_
 _symmetry_equiv_pos_site_id
 _symmetry_equiv_pos_as_xyz
  1  'x, y, z'
loop_
 _atom_site_type_symbol
 _atom_site_label
 _atom_site_symmetry_multiplicity
 _atom_site_fract_x
 _atom_site_fract_y
 _atom_site_fract_z
 _atom_site_occupancy
  Na  Na0  1  0.36693954  0.36283545  0.24749979  1
  Na  Na1  1  0.63751489  0.63320207  0.74775692  1
  Na  Na2  1  0.97067402  0.29951117  0.41386765  1
  Na  Na3  1  0.00062793  0.99182740  0.49716848  1
  Na  Na4  1  0.99986350  0.99983779  0.00095026  1
  Na  Na5  1  0.66714036  0.32515563  0.83171132  1
  Na  Na6  1  0.66757537  0.33352648  0.32822150  1
  Na  Na7  1  0.33257013  0.67481214  0.16507313  1
  Na  Na8  1  0.32530268  0.66713308  0.66530013  1
  Zr  Zr0  1  0.00114608  0.00205202  0.85226080  1
  Zr  Zr1  1  0.00200051  0.00272129  0.64552875  1
  Zr  Zr2  1  0.99751614  0.99756846  0.14658610  1
  Zr  Zr3  1  0.66654600  0.33383850  0.98121121  1
  Zr  Zr4  1  0.66096604  0.33396737  0.48107300  1
  Zr  Zr5  1  0.33369065  0.66665438  0.02226031  1
  Zr  Zr6  1  0.33448923  0.66864933  0.52035047  1
  Zr  Zr7  1  0.33489818  0.67391389  0.31263432  1
  Zr  Zr8  1  0.32797841  0.66732328  0.81414659  1
  Ga  Ga0  1  0.99851863  0.99199638  0.34811757  1
  Ga  Ga1  1  0.66756669  0.32723178  0.68328808  1
  Ga  Ga2  1  0.67377521  0.33286778  0.18401260  1
  P  P0  1  0.29254783  0.00704222  0.25044957  1
  P  P1  1  0.71494369  0.70569646  0.25105691  1
  P  P2  1  0.98963828  0.28489480  0.25168760  1
  P  P3  1  0.29991456  0.29167081  0.74858633  1
  P  P4  1  0.99393632  0.70129208  0.74801230  1
  P  P5  1  0.70902998  0.00938288  0.74855949  1
  P  P6  1  0.95220141  0.33496254  0.58478971  1
  P  P7  1  0.38159879  0.04669043  0.58612003  1
  P  P8  1  0.66494096  0.61887898  0.58667647  1
  P  P9  1  0.95219584  0.61784632  0.08601004  1
  P  P10  1  0.66618911  0.04885247  0.08612575  1
  P  P11  1  0.38181585  0.33385044  0.08682746  1
  P  P12  1  0.62416980  0.66645086  0.91612860  1
  P  P13  1  0.04120055  0.37484985  0.91749199  1
  P  P14  1  0.33296556  0.95821734  0.91732134  1
  P  P15  1  0.63340809  0.95811439  0.41583673  1
  P  P16  1  0.32716396  0.36820355  0.41427604  1
  P  P17  1  0.04259984  0.67653446  0.41567374  1
  O  O0  1  0.20869759  0.03922639  0.30442837  1
  O  O1  1  0.82448589  0.79129316  0.30549790  1
  O  O2  1  0.96744980  0.17919665  0.30779635  1
  O  O3  1  0.21152954  0.18044541  0.80291690  1
  O  O4  1  0.96428858  0.78770101  0.80210419  1
  O  O5  1  0.82033657  0.03157737  0.80300119  1
  O  O6  1  0.79263023  0.97041328  0.69620542  1
  O  O7  1  0.18234355  0.20748584  0.69565980  1
  O  O8  1  0.02457613  0.81903848  0.69520459  1
  O  O9  1  0.79404630  0.81943373  0.19693122  1
  O  O10  1  0.02920145  0.20354092  0.19880600  1
  O  O11  1  0.17880225  0.97479000  0.19640882  1
  O  O12  1  0.86754491  0.36263856  0.63813438  1
  O  O13  1  0.49270410  0.13053486  0.63973095  1
  O  O14  1  0.63834613  0.51118620  0.64175635  1
  O  O15  1  0.86879424  0.50668912  0.13987100  1
  O  O16  1  0.63736148  0.13148398  0.13995533  1
  O  O17  1  0.48943499  0.36084467  0.14209343  1
  O  O18  1  0.46469870  0.30804355  0.03165635  1
  O  O19  1  0.84516057  0.53754624  0.03025643  1
  O  O20  1  0.69289211  0.15572406  0.03033608  1
  O  O21  1  0.46234955  0.15449013  0.53042518  1
  O  O22  1  0.69141536  0.53535609  0.53167205  1
  O  O23  1  0.84802077  0.30808671  0.52799458  1
  O  O24  1  0.53621408  0.69204027  0.96937815  1
  O  O25  1  0.15391300  0.46127256  0.97098386  1
  O  O26  1  0.30680868  0.84560145  0.97083857  1
  O  O27  1  0.54421806  0.84642786  0.47009533  1
  O  O28  1  0.29855764  0.45745631  0.46792151  1
  O  O29  1  0.15445162  0.69876407  0.47008215  1
  O  O30  1  0.12619906  0.63735590  0.36319823  1
  O  O31  1  0.51566970  0.87383783  0.36281802  1
  O  O32  1  0.35754863  0.48210693  0.36006716  1
  O  O33  1  0.12751072  0.48610926  0.86275922  1
  O  O34  1  0.35857846  0.87248489  0.86260630  1
  O  O35  1  0.51682423  0.64175486  0.86021655  1
  O  O36  1  0.02339385  0.83654982  0.40778336  1
  O  O37  1  0.81635022  0.98235844  0.40870949  1
  O  O38  1  0.16033345  0.18940770  0.40815690  1
  O  O39  1  0.02365295  0.19411164  0.91039855  1
  O  O40  1  0.17011420  0.97570876  0.90994819  1
  O  O41  1  0.80589749  0.82964173  0.90991478  1
  O  O42  1  0.97306821  0.17267877  0.59023510  1
  O  O43  1  0.19856852  0.02575880  0.59031873  1
  O  O44  1  0.82760963  0.80245644  0.59051642  1
  O  O45  1  0.97361746  0.80136083  0.09039247  1
  O  O46  1  0.82794868  0.02737097  0.09077483  1
  O  O47  1  0.19762769  0.17192509  0.09076150  1
  O  O48  1  0.68948651  0.16937446  0.74147007  1
  O  O49  1  0.48337114  0.31673267  0.74209174  1
  O  O50  1  0.82735646  0.52253233  0.74154384  1
  O  O51  1  0.68538808  0.51958057  0.24368812  1
  O  O52  1  0.83136798  0.30798472  0.24317478  1
  O  O53  1  0.47357898  0.17206454  0.24327807  1
  O  O54  1  0.64253769  0.50421559  0.92206017  1
  O  O55  1  0.86056239  0.35615597  0.92232019  1
  O  O56  1  0.49542079  0.13938549  0.92229526  1
  O  O57  1  0.65521587  0.14263675  0.42269684  1
  O  O58  1  0.49029689  0.35171188  0.42207867  1
  O  O59  1  0.86403576  0.50570065  0.42293544  1
  O  O60  1  0.36125581  0.49621741  0.07898369  1
  O  O61  1  0.13551542  0.63964149  0.07868924  1
  O  O62  1  0.50439754  0.86482126  0.07875960  1
  O  O63  1  0.36015905  0.86358667  0.57829380  1
  O  O64  1  0.50288738  0.63890925  0.57812358  1
  O  O65  1  0.13628624  0.49662968  0.57767849  1
  O  O66  1  0.31145916  0.84358855  0.25688374  1
  O  O67  1  0.52786136  0.68210731  0.25720235  1
  O  O68  1  0.16107044  0.46718783  0.25752885  1
  O  O69  1  0.32179583  0.47649759  0.75558447  1
  O  O70  1  0.15709858  0.68428315  0.75512772  1
  O  O71  1  0.53008000  0.83845709  0.75581093  1
loop_
_geom_bond_atom_site_label_1
_geom_bond_atom_site_label_2
_geom_bond_distance
_geom_bond_site_symmetry_2
Na0 O53 2.320444 1_555
Na0 O68 2.440887 1_555
Na0 O51 2.447819 1_555
Na0 O67 2.459646 1_555
Na0 O17 2.662565 1_555
Na0 O0 2.807470 1_555
Na0 O32 2.815658 1_555
Na0 O10 2.827462 1_555
Na1 O50 2.343919 1_555
Na1 O49 2.431834 1_555
Na1 O69 2.431847 1_555
Na1 O71 2.451493 1_555
Na1 O14 2.670615 1_555
Na1 O4 2.805718 1_555
Na1 O35 2.817178 1_555
Na1 O6 2.848924 1_555
Na2 O38 2.337815 1_655
Na2 O57 2.431648 1_555
Na2 O37 2.436496 1_545
Na2 O59 2.455763 1_555
Na2 O2 2.658882 1_555
Na2 O28 2.809669 1_655
Na2 O30 2.844922 1_655
Na2 O23 2.859350 1_555
Na3 O36 2.540043 1_555
Na3 O37 2.587178 1_455
Na3 O38 2.604566 1_565
Na3 O44 2.684452 1_455
Na3 O43 2.691965 1_565
Na3 O42 2.760144 1_465
Na4 O45 2.642091 1_555
Na4 O39 2.644482 1_664
Na4 O47 2.644784 1_665
Na4 O41 2.650395 1_554
Na4 O46 2.653577 1_565
Na4 O40 2.654414 1_654
Na5 O48 2.557312 1_555
Na5 O49 2.608127 1_555
Na5 O56 2.619880 1_555
Na5 O50 2.625761 1_555
Na5 O55 2.627133 1_555
Na5 O54 2.691753 1_555
Na6 O51 2.504591 1_555
Na6 O52 2.516304 1_555
Na6 O53 2.522577 1_555
Na6 O57 2.724295 1_555
Na6 O58 2.725511 1_555
Na6 O59 2.729886 1_555
Na7 O62 2.555913 1_555
Na7 O61 2.562306 1_555
Na7 O60 2.628382 1_555
Na7 O66 2.650578 1_555
Na7 O67 2.719738 1_555
Na7 O68 2.724429 1_555
Na8 O63 2.569399 1_555
Na8 O65 2.573387 1_555
Na8 O70 2.599832 1_555
Na8 O64 2.640972 1_555
Na8 O69 2.669619 1_555
Na8 O71 2.679670 1_555
Ga0 O1 1.938364 1_555
Ga0 O0 1.971559 1_665
Ga0 O36 2.035516 1_655
Ga0 O2 2.038963 1_565
Ga0 O37 2.105316 1_555
Ga0 O38 2.124594 1_665
Ga1 O13 1.933866 1_555
Ga1 O12 1.942754 1_555
Ga1 O48 2.016695 1_555
Ga1 O14 2.017739 1_555
Ga1 O50 2.084194 1_555
Ga1 O49 2.089289 1_555
Ga2 O15 1.930648 1_555
Ga2 O16 1.935292 1_555
Ga2 O17 2.020613 1_555
Ga2 O52 2.042887 1_555
Ga2 O51 2.114334 1_555
Ga2 O53 2.123553 1_555
O0 P0 1.547179 1_555
O1 P1 1.533299 1_555
O2 P2 1.549261 1_555
O3 P3 1.541221 1_555
O3 Zr0 2.077417 1_555
O4 P4 1.552481 1_555
O4 Zr0 2.105202 1_665
O5 P5 1.546200 1_555
O5 Zr0 2.087335 1_655
O6 P5 1.543138 1_565
O6 Zr1 2.089654 1_665
O7 P3 1.532521 1_555
O7 Zr1 2.067384 1_555
O8 P4 1.535244 1_455
O8 Zr1 2.081426 1_565
O9 P1 1.533434 1_555
O9 Zr2 2.058473 1_555
O10 P2 1.543064 1_455
O10 Zr2 2.085029 1_445
O11 P0 1.535976 1_565
O11 Zr2 2.067987 1_455
O12 P6 1.522827 1_555
O13 P7 1.520580 1_555
O14 P8 1.532645 1_555
O15 P9 1.524482 1_555
O16 P10 1.525415 1_555
O17 P11 1.535928 1_555
O18 P11 1.541589 1_555
O18 Zr3 2.050290 1_554
O19 P9 1.541911 1_555
O19 Zr3 2.043788 1_554
O20 P10 1.542102 1_555
O20 Zr3 2.050043 1_554
O21 P7 1.543716 1_555
O21 Zr4 2.028797 1_555
O22 P8 1.543526 1_555
O22 Zr4 2.034010 1_555
O23 P6 1.549254 1_555
O23 Zr4 2.088991 1_555
O24 P12 1.530531 1_555
O24 Zr5 2.088586 1_556
O25 P13 1.527963 1_555
O25 Zr5 2.083230 1_556
O26 P14 1.528471 1_555
O26 Zr5 2.088058 1_556
O27 P15 1.542806 1_555
O27 Zr6 2.084287 1_555
O28 P16 1.555180 1_555
O28 Zr6 2.113984 1_555
O29 P17 1.548312 1_555
O29 Zr6 2.097027 1_555
O30 P17 1.546179 1_555
O30 Zr7 2.071943 1_555
O31 P15 1.534974 1_555
O31 Zr7 2.048708 1_555
O32 P16 1.541656 1_555
O32 Zr7 2.114971 1_555
O33 P13 1.545520 1_555
O33 Zr8 2.032578 1_555
O34 P14 1.546074 1_555
O34 Zr8 2.033445 1_555
O35 P12 1.550243 1_555
O35 Zr8 2.091128 1_555
O36 P17 1.523718 1_555
O37 P15 1.537329 1_555
O38 P16 1.539681 1_555
O39 P13 1.540101 1_555
O39 Zr0 2.095843 1_555
O40 P14 1.540049 1_555
O40 Zr0 2.103130 1_565
O41 P12 1.540944 1_555
O41 Zr0 2.107904 1_665
O42 P6 1.546635 1_555
O42 Zr1 2.085512 1_655
O43 P7 1.544160 1_555
O43 Zr1 2.085060 1_555
O44 P8 1.544062 1_555
O44 Zr1 2.096306 1_665
O45 P9 1.544922 1_555
O45 Zr2 2.092296 1_555
O46 P10 1.545415 1_555
O46 Zr2 2.095090 1_545
O47 P11 1.545177 1_555
O47 Zr2 2.107348 1_445
O48 P5 1.523167 1_555
O49 P3 1.537528 1_555
O50 P4 1.539273 1_555
O51 P1 1.545791 1_555
O52 P2 1.531982 1_555
O53 P0 1.546424 1_555
O54 P12 1.534220 1_555
O54 Zr3 2.123287 1_555
O55 P13 1.532249 1_655
O55 Zr3 2.122369 1_555
O56 P14 1.532599 1_545
O56 Zr3 2.119192 1_555
O57 P15 1.557150 1_545
O57 Zr4 2.145510 1_555
O58 P16 1.538584 1_555
O58 Zr4 2.099277 1_555
O59 P17 1.557506 1_655
O59 Zr4 2.145817 1_555
O60 P11 1.551215 1_555
O60 Zr5 2.103231 1_555
O61 P9 1.549754 1_455
O61 Zr5 2.102368 1_555
O62 P10 1.550055 1_565
O62 Zr5 2.098330 1_555
O63 P7 1.548452 1_565
O63 Zr6 2.103887 1_555
O64 P8 1.549268 1_555
O64 Zr6 2.114793 1_555
O65 P6 1.549733 1_455
O65 Zr6 2.114319 1_555
O66 P0 1.548799 1_565
O66 Zr7 2.066755 1_555
O67 P1 1.573747 1_555
O67 Zr7 2.108713 1_555
O68 P2 1.574315 1_455
O68 Zr7 2.124024 1_555
O69 P3 1.559883 1_555
O69 Zr8 2.143277 1_555
O70 P4 1.539694 1_455
O70 Zr8 2.098025 1_555
O71 P5 1.559674 1_565
O71 Zr8 2.142983 1_555
