# generated using pymatgen
data_Ba2HoMgCu3O7
_symmetry_space_group_name_H-M   'P 1'
_cell_length_a   3.73488496
_cell_length_b   3.94433655
_cell_length_c   14.54927022
_cell_angle_alpha   90.00000000
_cell_angle_beta   90.00000000
_cell_angle_gamma   90.00000000
_symmetry_Int_Tables_number   1
_chemical_formula_structural   Ba2HoMgCu3O7
_chemical_formula_sum   'Ba2 Ho1 Mg1 Cu3 O7'
_cell_volume   214.33465854
_cell_formula_units_Z   1
loop_
 _symmetry_equiv_pos_site_id
 _symmetry_equiv_pos_as_xyz
  1  'x, y, z'
loop_
 _atom_site_type_symbol
 _atom_site_label
 _atom_site_symmetry_multiplicity
 _atom_site_fract_x
 _atom_site_fract_y
 _atom_site_fract_z
 _atom_site_occupancy
  Ba  Ba0  1  0.50000000  0.50000000  0.77842371  1
  Ba  Ba1  1  0.50000000  0.50000000  0.08695910  1
  Ho  Ho0  1  0.50000000  0.50000000  0.52192135  1
  Mg  Mg0  1  0.50000000  -0.00000000  0.27778593  1
  Cu  Cu0  1  -0.00000000  -0.00000000  0.63742030  1
  Cu  Cu1  1  0.00000000  0.00000000  0.42000531  1
  Cu  Cu2  1  -0.00000000  0.00000000  0.93511547  1
  O  O0  1  0.00000000  0.50000000  0.97300185  1
  O  O1  1  0.50000000  0.00000000  0.60676230  1
  O  O2  1  0.50000000  0.00000000  0.41109120  1
  O  O3  1  -0.00000000  0.50000000  0.62682798  1
  O  O4  1  0.00000000  0.50000000  0.42977882  1
  O  O5  1  0.00000000  -0.00000000  0.80122331  1
  O  O6  1  -0.00000000  -0.00000000  0.21035038  1
loop_
_geom_bond_atom_site_label_1
_geom_bond_atom_site_label_2
_geom_bond_distance
_geom_bond_site_symmetry_2
Ba0 O5 2.736206 1_655
Ba0 O5 2.736206 1_665
Ba0 O5 2.736206 1_555
Ba0 O5 2.736206 1_565
Ba0 O3 2.889990 1_555
Ba0 O3 2.889990 1_655
Ba1 O0 2.497256 1_654
Ba1 O0 2.497256 1_554
Ho0 O4 2.298819 1_655
Ho0 O4 2.298819 1_555
Ho0 O1 2.326613 1_565
Ho0 O1 2.326613 1_555
Ho0 O3 2.411841 1_655
Ho0 O3 2.411841 1_555
Ho0 O2 2.547469 1_555
Ho0 O2 2.547469 1_565
Mg0 O2 1.939494 1_555
Mg0 O6 2.109496 1_655
Mg0 O6 2.109496 1_555
Cu0 O1 1.919975 1_455
Cu0 O1 1.919975 1_555
Cu0 O3 1.978180 1_545
Cu0 O3 1.978180 1_555
Cu0 O5 2.383214 1_555
Cu1 O2 1.871941 1_555
Cu1 O2 1.871941 1_455
Cu1 O4 1.977288 1_555
Cu1 O4 1.977288 1_545
Cu2 O5 1.948033 1_555
Cu2 O0 2.047752 1_545
Cu2 O0 2.047752 1_555
