# generated using pymatgen
data_Na5U5O18
_symmetry_space_group_name_H-M   'P 1'
_cell_length_a   11.53150649
_cell_length_b   11.53146176
_cell_length_c   6.84879326
_cell_angle_alpha   84.24107337
_cell_angle_beta   84.24204564
_cell_angle_gamma   117.01618446
_symmetry_Int_Tables_number   1
_chemical_formula_structural   Na5U5O18
_chemical_formula_sum   'Na10 U10 O36'
_cell_volume   796.23328228
_cell_formula_units_Z   2
loop_
 _symmetry_equiv_pos_site_id
 _symmetry_equiv_pos_as_xyz
  1  'x, y, z'
loop_
 _atom_site_type_symbol
 _atom_site_label
 _atom_site_symmetry_multiplicity
 _atom_site_fract_x
 _atom_site_fract_y
 _atom_site_fract_z
 _atom_site_occupancy
  Na  Na0  1  0.55287957  0.44935492  0.75261788  1
  Na  Na1  1  0.44930736  0.55286861  0.25262937  1
  Na  Na2  1  0.05899267  0.94245670  0.25197333  1
  Na  Na3  1  0.94244459  0.05899608  0.75198965  1
  Na  Na4  1  0.14827364  0.85244887  0.75275255  1
  Na  Na5  1  0.85246788  0.14828125  0.25272939  1
  Na  Na6  1  0.25157624  0.75228880  0.25293787  1
  Na  Na7  1  0.75230882  0.25156962  0.75292296  1
  Na  Na8  1  0.64518101  0.35665890  0.25348828  1
  Na  Na9  1  0.35665267  0.64516924  0.75345422  1
  U  U0  1  0.90790900  0.60247056  0.52923139  1
  U  U1  1  0.39912389  0.09362760  0.97397696  1
  U  U2  1  0.09360632  0.39914224  0.47398198  1
  U  U3  1  0.60249069  0.90789390  0.02921568  1
  U  U4  1  0.00078136  0.50087923  0.00167808  1
  U  U5  1  0.50087286  0.00078678  0.50168485  1
  U  U6  1  0.79425122  0.70742551  0.99025632  1
  U  U7  1  0.29387493  0.20707629  0.51324591  1
  U  U8  1  0.20705255  0.29388841  0.01323608  1
  U  U9  1  0.70744814  0.79422251  0.49026117  1
  O  O0  1  0.78220845  0.68305021  0.66992784  1
  O  O1  1  0.31763142  0.21855866  0.83374663  1
  O  O2  1  0.21852373  0.31767904  0.33373545  1
  O  O3  1  0.68308725  0.78218057  0.16993782  1
  O  O4  1  0.75244134  0.44318409  0.57013235  1
  O  O5  1  0.55831013  0.24914755  0.93242065  1
  O  O6  1  0.24912160  0.55831732  0.43243178  1
  O  O7  1  0.44320450  0.75242307  0.07013741  1
  O  O8  1  0.64428366  0.54091480  0.04991616  1
  O  O9  1  0.46014999  0.35742294  0.45434811  1
  O  O10  1  0.35737223  0.46016824  0.95435535  1
  O  O11  1  0.54093166  0.64425789  0.54992277  1
  O  O12  1  0.06611120  0.76188572  0.47723452  1
  O  O13  1  0.23972949  0.93539759  0.02660520  1
  O  O14  1  0.93538873  0.23975934  0.52657719  1
  O  O15  1  0.76191515  0.06608817  0.97720558  1
  O  O16  1  0.84263623  0.68320159  0.28587983  1
  O  O17  1  0.31861134  0.15904117  0.21756538  1
  O  O18  1  0.15900062  0.31864048  0.71758162  1
  O  O19  1  0.68324165  0.84260354  0.78589307  1
  O  O20  1  0.92463361  0.62599719  0.87979464  1
  O  O21  1  0.37582391  0.07709405  0.62339843  1
  O  O22  1  0.07707017  0.37583614  0.12340417  1
  O  O23  1  0.62602250  0.92461332  0.37977774  1
  O  O24  1  0.94341043  0.87196981  0.92965692  1
  O  O25  1  0.12937780  0.05781135  0.57370730  1
  O  O26  1  0.05776695  0.12941943  0.07371579  1
  O  O27  1  0.87198499  0.94338887  0.42965986  1
  O  O28  1  0.17118414  0.64455945  0.93815921  1
  O  O29  1  0.35727717  0.83024558  0.56490462  1
  O  O30  1  0.83026860  0.35727523  0.06489374  1
  O  O31  1  0.64458897  0.17118696  0.43813255  1
  O  O32  1  -0.00093301  0.47239917  0.69153849  1
  O  O33  1  0.52910142  0.00221624  0.81175318  1
  O  O34  1  0.00221840  0.52908321  0.31175131  1
  O  O35  1  0.47239818  -0.00092600  0.19153638  1
loop_
_geom_bond_atom_site_label_1
_geom_bond_atom_site_label_2
_geom_bond_distance
_geom_bond_site_symmetry_2
Na0 O8 2.494517 1_556
Na0 O9 2.506651 1_555
Na0 O5 2.535081 1_555
Na0 O4 2.540145 1_555
Na0 O10 2.583064 1_555
Na0 O11 2.586698 1_555
Na0 O0 2.737738 1_555
Na0 O1 2.755482 1_555
Na1 O11 2.494666 1_555
Na1 O10 2.506582 1_554
Na1 O6 2.534992 1_555
Na1 O7 2.539679 1_555
Na1 O9 2.582548 1_555
Na1 O8 2.587527 1_555
Na1 O3 2.738154 1_555
Na1 O2 2.755053 1_555
Na2 O27 2.372461 1_455
Na2 O26 2.375233 1_565
Na2 O12 2.501725 1_555
Na2 O13 2.503325 1_555
Na2 O25 2.692550 1_565
Na2 O24 2.697467 1_454
Na2 O16 2.860843 1_455
Na2 O17 2.864177 1_565
Na3 O24 2.372746 1_545
Na3 O25 2.374816 1_655
Na3 O15 2.501067 1_555
Na3 O14 2.503681 1_555
Na3 O26 2.692403 1_656
Na3 O27 2.697631 1_545
Na3 O19 2.860627 1_545
Na3 O18 2.864236 1_655
Na4 O13 2.320638 1_556
Na4 O12 2.324700 1_555
Na4 O24 2.657628 1_455
Na4 O25 2.664361 1_565
Na4 O20 2.683754 1_455
Na4 O21 2.697863 1_565
Na4 O28 2.731466 1_555
Na4 O29 2.744808 1_555
Na5 O14 2.320607 1_555
Na5 O15 2.324794 1_554
Na5 O27 2.657941 1_545
Na5 O26 2.663454 1_655
Na5 O23 2.683880 1_545
Na5 O22 2.697623 1_655
Na5 O31 2.731349 1_555
Na5 O30 2.744626 1_555
Na6 O7 2.427314 1_555
Na6 O6 2.428755 1_555
Na6 O13 2.554929 1_555
Na6 O12 2.556552 1_555
Na6 O29 2.602195 1_555
Na6 O28 2.634882 1_554
Na6 O35 2.778700 1_565
Na6 O34 2.809127 1_555
Na7 O4 2.427132 1_555
Na7 O5 2.429236 1_555
Na7 O14 2.554537 1_555
Na7 O15 2.556676 1_555
Na7 O30 2.602252 1_556
Na7 O31 2.634884 1_555
Na7 O32 2.778561 1_655
Na7 O33 2.809096 1_555
Na8 O31 2.369759 1_555
Na8 O30 2.378028 1_555
Na8 O9 2.423975 1_555
Na8 O8 2.426283 1_555
Na8 O4 2.660757 1_555
Na8 O5 2.690095 1_554
Na9 O28 2.369841 1_555
Na9 O29 2.377709 1_555
Na9 O10 2.423562 1_555
Na9 O11 2.426467 1_555
Na9 O7 2.661048 1_556
Na9 O6 2.689845 1_555
O0 U9 2.191151 1_555
O0 U0 2.239665 1_555
O0 U6 2.249612 1_555
O1 U8 2.190382 1_556
O1 U1 2.239254 1_555
O1 U7 2.248739 1_555
O2 U7 2.190811 1_555
O2 U2 2.238938 1_555
O2 U8 2.248795 1_555
O3 U6 2.191116 1_554
O3 U3 2.239981 1_555
O3 U9 2.249542 1_555
O4 U0 1.862988 1_555
O5 U1 1.862476 1_555
O6 U2 1.862382 1_555
O7 U3 1.862998 1_555
O8 U6 1.878441 1_554
O9 U7 1.878660 1_555
O10 U8 1.878552 1_556
O11 U9 1.878468 1_555
O12 U0 1.877711 1_455
O13 U1 1.877728 1_564
O14 U2 1.877587 1_655
O15 U3 1.877719 1_546
O16 U6 2.177927 1_554
O16 U0 2.188129 1_555
O17 U7 2.177564 1_555
O17 U1 2.189098 1_554
O18 U8 2.177490 1_556
O18 U2 2.188935 1_555
O19 U9 2.177945 1_555
O19 U3 2.188242 1_556
O20 U4 2.146129 1_656
O20 U6 2.216183 1_555
O20 U0 2.459956 1_555
O21 U5 2.146460 1_555
O21 U7 2.216245 1_555
O21 U1 2.459331 1_555
O22 U4 2.146258 1_555
O22 U8 2.216285 1_555
O22 U2 2.459343 1_555
O23 U5 2.146728 1_565
O23 U9 2.216271 1_555
O23 U3 2.459949 1_555
O24 U6 1.861389 1_555
O25 U7 1.861586 1_555
O26 U8 1.861505 1_555
O27 U9 1.861378 1_555
O28 U4 1.876615 1_556
O29 U5 1.877155 1_565
O30 U4 1.876990 1_655
O31 U5 1.876760 1_555
O32 U4 2.182314 1_556
O32 U2 2.210326 1_555
O32 U0 2.433653 1_455
O33 U5 2.180995 1_555
O33 U3 2.209407 1_546
O33 U1 2.434809 1_555
O34 U4 2.180967 1_555
O34 U0 2.209405 1_455
O34 U2 2.434281 1_555
O35 U5 2.182354 1_555
O35 U1 2.210550 1_554
O35 U3 2.434095 1_545
