# generated using pymatgen
data_Nb3Br8
_symmetry_space_group_name_H-M   'P 1'
_cell_length_a   14.30624499
_cell_length_b   14.30624499
_cell_length_c   14.30624528
_cell_angle_alpha   28.94476757
_cell_angle_beta   28.94476757
_cell_angle_gamma   28.94476568
_symmetry_Int_Tables_number   1
_chemical_formula_structural   Nb3Br8
_chemical_formula_sum   'Nb6 Br16'
_cell_volume   606.54893872
_cell_formula_units_Z   2
loop_
 _symmetry_equiv_pos_site_id
 _symmetry_equiv_pos_as_xyz
  1  'x, y, z'
loop_
 _atom_site_type_symbol
 _atom_site_label
 _atom_site_symmetry_multiplicity
 _atom_site_fract_x
 _atom_site_fract_y
 _atom_site_fract_z
 _atom_site_occupancy
  Nb  Nb0  1  0.45023900  0.45023900  0.85276751  1
  Nb  Nb1  1  0.85276751  0.45023900  0.45023900  1
  Nb  Nb2  1  0.45023900  0.85276751  0.45023900  1
  Nb  Nb3  1  0.54976100  0.14723249  0.54976100  1
  Nb  Nb4  1  0.54976100  0.54976100  0.14723249  1
  Nb  Nb5  1  0.14723249  0.54976100  0.54976100  1
  Br  Br0  1  0.63303665  0.63303665  0.63303665  1
  Br  Br1  1  0.36696335  0.36696335  0.36696335  1
  Br  Br2  1  0.78338077  0.78338077  0.78338077  1
  Br  Br3  1  0.21661923  0.21661923  0.21661923  1
  Br  Br4  1  0.11682758  0.11682758  0.62426796  1
  Br  Br5  1  0.62426796  0.11682758  0.11682758  1
  Br  Br6  1  0.79035181  0.29265589  0.29265589  1
  Br  Br7  1  0.29265589  0.29265589  0.79035181  1
  Br  Br8  1  0.29265589  0.79035181  0.29265589  1
  Br  Br9  1  0.70734411  0.20964819  0.70734411  1
  Br  Br10  1  0.20964819  0.70734411  0.70734411  1
  Br  Br11  1  0.70734411  0.70734411  0.20964819  1
  Br  Br12  1  0.37573204  0.88317242  0.88317242  1
  Br  Br13  1  0.88317242  0.88317242  0.37573204  1
  Br  Br14  1  0.88317242  0.37573204  0.88317242  1
  Br  Br15  1  0.11682758  0.62426796  0.11682758  1
loop_
_geom_bond_atom_site_label_1
_geom_bond_atom_site_label_2
_geom_bond_distance
_geom_bond_site_symmetry_2
Br0 Nb1 2.598768 1_555
Br0 Nb2 2.598768 1_555
Br0 Nb0 2.598768 1_555
Br1 Nb5 2.598768 1_555
Br1 Nb3 2.598768 1_555
Br1 Nb4 2.598768 1_555
Br2 Nb3 2.844244 1_565
Br2 Nb5 2.844244 1_655
Br2 Nb4 2.844244 1_556
Br3 Nb1 2.844244 1_455
Br3 Nb2 2.844244 1_545
Br3 Nb0 2.844244 1_554
Br4 Nb2 2.713193 1_545
Br4 Nb1 2.713193 1_455
Br5 Nb0 2.713194 1_554
Br5 Nb2 2.713194 1_545
Br6 Nb4 2.585875 1_555
Br6 Nb3 2.585875 1_555
Br7 Nb5 2.585875 1_555
Br7 Nb3 2.585875 1_555
Br8 Nb4 2.585875 1_555
Br8 Nb5 2.585875 1_555
Br9 Nb0 2.585875 1_555
Br9 Nb1 2.585875 1_555
Br10 Nb0 2.585875 1_555
Br10 Nb2 2.585875 1_555
Br11 Nb1 2.585875 1_555
Br11 Nb2 2.585875 1_555
Br12 Nb4 2.713194 1_556
Br12 Nb3 2.713194 1_565
Br13 Nb5 2.713193 1_655
Br13 Nb3 2.713193 1_565
Br14 Nb4 2.713194 1_556
Br14 Nb5 2.713194 1_655
Br15 Nb0 2.713194 1_554
Br15 Nb1 2.713194 1_455
