# generated using pymatgen
data_Na7CaAl3Si3(SO8)3
_symmetry_space_group_name_H-M   'P 1'
_cell_length_a   8.94239944
_cell_length_b   8.92816717
_cell_length_c   21.95091725
_cell_angle_alpha   90.80619845
_cell_angle_beta   90.04284397
_cell_angle_gamma   119.89288423
_symmetry_Int_Tables_number   1
_chemical_formula_structural   Na7CaAl3Si3(SO8)3
_chemical_formula_sum   'Na21 Ca3 Al9 Si9 S9 O72'
_cell_volume   1519.17232152
_cell_formula_units_Z   3
loop_
 _symmetry_equiv_pos_site_id
 _symmetry_equiv_pos_as_xyz
  1  'x, y, z'
loop_
 _atom_site_type_symbol
 _atom_site_label
 _atom_site_symmetry_multiplicity
 _atom_site_fract_x
 _atom_site_fract_y
 _atom_site_fract_z
 _atom_site_occupancy
  Na  Na0  1  0.63760262  0.99431518  0.24305502  1
  Na  Na1  1  0.37727534  0.37527757  0.24189930  1
  Na  Na2  1  0.98207162  0.63726911  0.25495491  1
  Na  Na3  1  0.62110578  0.62366825  0.74322536  1
  Na  Na4  1  0.99384583  0.35277100  0.75198166  1
  Na  Na5  1  0.38595700  0.01566393  0.75749770  1
  Na  Na6  1  0.01855010  0.69499944  0.57607131  1
  Na  Na7  1  0.66510150  0.96141947  0.58301774  1
  Na  Na8  1  0.31643089  0.98012699  0.08073314  1
  Na  Na9  1  0.65229387  0.68723033  0.08785374  1
  Na  Na10  1  0.69526151  0.03379366  0.91513712  1
  Na  Na11  1  0.33162129  0.28979937  0.91630394  1
  Na  Na12  1  0.96117399  0.29649685  0.41507033  1
  Na  Na13  1  0.33170754  0.02326042  0.41767781  1
  Na  Na14  1  0.72199275  0.68560129  0.41636953  1
  Na  Na15  1  0.99295860  0.99098287  0.50067702  1
  Na  Na16  1  0.00784375  0.00575588  0.00147405  1
  Na  Na17  1  0.65903603  0.32543727  0.83409494  1
  Na  Na18  1  0.67437343  0.34758591  0.33286216  1
  Na  Na19  1  0.34366698  0.65850084  0.15991376  1
  Na  Na20  1  0.35308664  0.64828996  0.66606668  1
  Ca  Ca0  1  0.99450806  0.99232823  0.35550788  1
  Ca  Ca1  1  0.65755915  0.33437378  0.68383853  1
  Ca  Ca2  1  0.65757550  0.33340257  0.17161194  1
  Al  Al0  1  0.01649646  0.00517849  0.85016848  1
  Al  Al1  1  0.98279624  0.99875505  0.65309307  1
  Al  Al2  1  0.97765081  0.00821720  0.14202557  1
  Al  Al3  1  0.62453821  0.28559995  0.98790751  1
  Al  Al4  1  0.69289057  0.35710381  0.47860346  1
  Al  Al5  1  0.32881905  0.67135072  0.01731919  1
  Al  Al6  1  0.35056101  0.67675276  0.51531612  1
  Al  Al7  1  0.35134765  0.69085972  0.31902720  1
  Al  Al8  1  0.35183167  0.67614521  0.81305198  1
  Si  Si0  1  0.69608980  0.70291790  0.25052435  1
  Si  Si1  1  0.27764326  0.28969719  0.75306034  1
  Si  Si2  1  0.71375893  0.99105169  0.75623033  1
  Si  Si3  1  0.66328083  0.63557101  0.58201899  1
  Si  Si4  1  0.66241693  0.02445162  0.08044424  1
  Si  Si5  1  0.34827173  0.33490661  0.08116640  1
  Si  Si6  1  0.32090727  0.94521001  0.91569377  1
  Si  Si7  1  0.62046542  0.97197846  0.42132389  1
  Si  Si8  1  0.05574967  0.65884300  0.41937115  1
  S  S0  1  0.29380883  0.99192411  0.24983377  1
  S  S1  1  0.00981813  0.30201669  0.24940622  1
  S  S2  1  0.01097569  0.72248284  0.75144174  1
  S  S3  1  0.97328755  0.33628252  0.58112713  1
  S  S4  1  0.36171071  0.03020239  0.58054211  1
  S  S5  1  0.96681747  0.62837786  0.07966989  1
  S  S6  1  0.62593687  0.66500716  0.91626779  1
  S  S7  1  0.04326012  0.38496104  0.91547525  1
  S  S8  1  0.34656438  0.39289894  0.41852241  1
  O  O0  1  0.22505511  0.02450716  0.30657396  1
  O  O1  1  0.80217327  0.77309659  0.31339070  1
  O  O2  1  0.98905128  0.20973557  0.30670730  1
  O  O3  1  0.19372256  0.17250046  0.81320380  1
  O  O4  1  0.98518477  0.80765512  0.80532334  1
  O  O5  1  0.83440171  0.00688529  0.81490256  1
  O  O6  1  0.79259798  0.96127603  0.69199274  1
  O  O7  1  0.15180414  0.18817272  0.69339855  1
  O  O8  1  0.03195377  0.82254461  0.69464828  1
  O  O9  1  0.80265124  0.83558773  0.19209884  1
  O  O10  1  0.02966228  0.20516022  0.19667158  1
  O  O11  1  0.18558299  0.97357005  0.19612007  1
  O  O12  1  0.90454037  0.37007474  0.63750059  1
  O  O13  1  0.46647178  0.09439283  0.63691460  1
  O  O14  1  0.63316741  0.54146853  0.64578850  1
  O  O15  1  0.91262081  0.54290825  0.13884374  1
  O  O16  1  0.61550100  0.08168458  0.14416893  1
  O  O17  1  0.46625395  0.40080917  0.14234868  1
  O  O18  1  0.45333602  0.29371265  0.02564408  1
  O  O19  1  0.84023847  0.53146197  0.02996636  1
  O  O20  1  0.69486610  0.15787030  0.02417935  1
  O  O21  1  0.45149915  0.14156522  0.52810781  1
  O  O22  1  0.70080641  0.53096044  0.52511960  1
  O  O23  1  0.85153678  0.30654950  0.52832080  1
  O  O24  1  0.54119863  0.69359969  0.96970658  1
  O  O25  1  0.15910472  0.47214905  0.96811920  1
  O  O26  1  0.30397429  0.83320472  0.97520073  1
  O  O27  1  0.52655543  0.84189804  0.47654371  1
  O  O28  1  0.32169954  0.47613851  0.47226738  1
  O  O29  1  0.16629677  0.66593454  0.47883418  1
  O  O30  1  0.14431785  0.63059707  0.35660527  1
  O  O31  1  0.50396780  0.88596152  0.35855038  1
  O  O32  1  0.36805958  0.49221494  0.36166957  1
  O  O33  1  0.12478586  0.48234113  0.85887514  1
  O  O34  1  0.36121565  0.85625717  0.85634808  1
  O  O35  1  0.51403278  0.63286811  0.86038582  1
  O  O36  1  0.03985532  0.83240421  0.42300280  1
  O  O37  1  0.81551933  0.00430554  0.42206348  1
  O  O38  1  0.19348938  0.21763367  0.41537019  1
  O  O39  1  0.02312842  0.20533203  0.91350775  1
  O  O40  1  0.15504170  0.97997023  0.90904592  1
  O  O41  1  0.79805333  0.82335893  0.91114826  1
  O  O42  1  0.97933640  0.17235273  0.58473197  1
  O  O43  1  0.18819761  0.01327650  0.58672027  1
  O  O44  1  0.84796142  0.83184323  0.58805295  1
  O  O45  1  0.98388001  0.80503487  0.08421479  1
  O  O46  1  0.83299556  0.00086054  0.08412839  1
  O  O47  1  0.17132840  0.14633231  0.09354083  1
  O  O48  1  0.69774258  0.16485437  0.75527714  1
  O  O49  1  0.47198826  0.31848691  0.75323243  1
  O  O50  1  0.85882808  0.54707056  0.74888575  1
  O  O51  1  0.67196160  0.50918674  0.24710036  1
  O  O52  1  0.85614569  0.32225600  0.24326551  1
  O  O53  1  0.47216957  0.13920095  0.24600393  1
  O  O54  1  0.64229538  0.50793718  0.92205650  1
  O  O55  1  0.86819690  0.36391586  0.92115481  1
  O  O56  1  0.50156441  0.14592407  0.92234771  1
  O  O57  1  0.62961625  0.16253378  0.43005193  1
  O  O58  1  0.50351496  0.37429104  0.42329839  1
  O  O59  1  0.85674741  0.48787045  0.42218508  1
  O  O60  1  0.33046883  0.50088636  0.06243963  1
  O  O61  1  0.14231832  0.65329058  0.06973535  1
  O  O62  1  0.49137364  0.83285757  0.06844716  1
  O  O63  1  0.33663396  0.85029231  0.57339181  1
  O  O64  1  0.49542280  0.66326011  0.57135356  1
  O  O65  1  0.14588000  0.48772144  0.57251558  1
  O  O66  1  0.29643332  0.82428311  0.25366769  1
  O  O67  1  0.50165097  0.69080464  0.25775350  1
  O  O68  1  0.17001787  0.47460689  0.25115368  1
  O  O69  1  0.29209187  0.48427466  0.76043054  1
  O  O70  1  0.16868325  0.70679458  0.75607700  1
  O  O71  1  0.51791696  0.81695372  0.75874564  1
loop_
_geom_bond_atom_site_label_1
_geom_bond_atom_site_label_2
_geom_bond_distance
_geom_bond_site_symmetry_2
Na0 O16 2.357943 1_565
Na0 O67 2.380454 1_555
Na0 O53 2.402348 1_565
Na0 O52 2.586136 1_565
Na0 O66 2.657294 1_555
Na0 O9 2.735048 1_555
Na0 O31 2.777147 1_555
Na1 O51 2.289555 1_555
Na1 O17 2.301330 1_555
Na1 O68 2.428280 1_555
Na1 O67 2.478478 1_555
Na1 O53 2.637946 1_555
Na1 O32 2.831544 1_555
Na1 O10 2.863946 1_555
Na2 O51 2.420842 1_555
Na2 O66 2.452371 1_655
Na2 O52 2.463012 1_555
Na2 O15 2.647123 1_555
Na2 O30 2.678134 1_655
Na2 O68 2.714867 1_655
Na2 O1 2.758233 1_555
Na2 O11 2.943000 1_655
Na3 O14 2.271540 1_555
Na3 O71 2.348762 1_555
Na3 O49 2.376168 1_555
Na3 O50 2.540327 1_555
Na3 O69 2.590947 1_555
Na3 O35 2.759296 1_555
Na3 O6 2.862257 1_555
Na4 O69 2.323338 1_655
Na4 O48 2.325282 1_555
Na4 O50 2.561760 1_555
Na4 O33 2.604665 1_655
Na4 O12 2.665995 1_555
Na4 O70 2.740270 1_655
Na4 O7 2.797699 1_655
Na5 O49 2.417510 1_555
Na5 O48 2.418773 1_555
Na5 O70 2.457130 1_545
Na5 O34 2.560569 1_545
Na5 O71 2.574646 1_545
Na5 O13 2.751246 1_555
Na6 O44 2.395461 1_455
Na6 O63 2.467419 1_555
Na6 O43 2.472811 1_565
Na6 O29 2.588273 1_555
Na6 O65 2.612233 1_555
Na6 O22 2.696403 1_455
Na6 O8 2.804662 1_555
Na6 O12 2.904735 1_455
Na7 O64 2.325586 1_555
Na7 O44 2.431752 1_555
Na7 O42 2.483396 1_565
Na7 O27 2.596899 1_555
Na7 O63 2.597122 1_555
Na7 O6 2.649433 1_555
Na7 O13 2.833667 1_565
Na7 O23 2.949996 1_565
Na8 O47 2.423372 1_565
Na8 O62 2.507961 1_555
Na8 O61 2.539384 1_555
Na8 O45 2.581291 1_455
Na8 O26 2.620662 1_554
Na8 O16 2.730454 1_565
Na8 O18 2.735080 1_565
Na8 O11 2.779964 1_555
Na9 O62 2.412944 1_555
Na9 O46 2.440322 1_565
Na9 O60 2.561329 1_555
Na9 O17 2.566425 1_555
Na9 O45 2.607489 1_555
Na9 O9 2.633140 1_555
Na9 O24 2.787961 1_554
Na9 O19 2.942222 1_555
Na10 O56 2.398314 1_555
Na10 O41 2.469692 1_545
Na10 O39 2.543408 1_655
Na10 O55 2.557648 1_555
Na10 O5 2.595014 1_555
Na10 O20 2.624061 1_556
Na10 O34 2.884112 1_545
Na10 O24 2.914113 1_545
Na11 O40 2.409164 1_545
Na11 O56 2.434630 1_555
Na11 O39 2.471336 1_555
Na11 O54 2.475200 1_555
Na11 O3 2.526086 1_555
Na11 O18 2.627217 1_556
Na11 O35 2.945832 1_555
Na11 O25 2.962795 1_555
Na12 O37 2.269418 1_555
Na12 O59 2.323547 1_555
Na12 O38 2.503947 1_655
Na12 O2 2.541998 1_555
Na12 O57 2.609074 1_555
Na12 O23 2.689667 1_555
Na12 O30 2.910051 1_655
Na13 O36 2.302588 1_545
Na13 O57 2.324761 1_555
Na13 O38 2.585006 1_555
Na13 O0 2.620208 1_555
Na13 O21 2.633515 1_555
Na13 O58 2.717967 1_555
Na13 O31 2.720383 1_545
Na14 O1 2.393308 1_555
Na14 O36 2.469648 1_655
Na14 O58 2.482959 1_555
Na14 O37 2.535629 1_565
Na14 O59 2.590654 1_555
Na14 O22 2.733745 1_555
Na15 O36 2.369064 1_655
Na15 O44 2.371230 1_555
Na15 O37 2.387364 1_565
Na15 O42 2.480762 1_565
Na15 O43 2.508626 1_665
Na15 O38 2.704015 1_665
Na16 O46 2.382608 1_455
Na16 O47 2.427354 1_555
Na16 O40 2.488960 1_544
Na16 O45 2.503106 1_445
Na16 O39 2.603202 1_554
Na16 O41 2.638381 1_444
Na17 O48 2.365247 1_555
Na17 O49 2.416873 1_555
Na17 O56 2.479190 1_555
Na17 O54 2.561344 1_555
Na17 O55 2.569865 1_555
Na17 O50 2.681665 1_555
Na18 O51 2.394477 1_555
Na18 O59 2.441915 1_555
Na18 O58 2.585819 1_555
Na18 O57 2.623478 1_555
Na18 O53 2.628303 1_555
Na18 O52 2.630594 1_555
Na19 O62 2.498302 1_555
Na19 O67 2.502689 1_555
Na19 O60 2.514279 1_555
Na19 O68 2.583424 1_555
Na19 O61 2.659157 1_555
Na19 O66 2.672683 1_555
Na20 O64 2.408852 1_555
Na20 O69 2.454251 1_555
Na20 O71 2.505165 1_555
Na20 O65 2.639931 1_555
Na20 O70 2.780336 1_555
Na20 O63 2.789256 1_555
Ca0 O1 2.057955 1_555
Ca0 O37 2.208488 1_565
Ca0 O0 2.215470 1_665
Ca0 O36 2.243649 1_655
Ca0 O2 2.251756 1_565
Ca0 O38 2.300789 1_665
Ca1 O14 2.146878 1_555
Ca1 O13 2.203969 1_555
Ca1 O49 2.206684 1_555
Ca1 O12 2.307581 1_555
Ca1 O50 2.323223 1_555
Ca1 O48 2.342415 1_555
Ca2 O16 2.161920 1_555
Ca2 O17 2.176563 1_555
Ca2 O51 2.225016 1_555
Ca2 O15 2.237382 1_555
Ca2 O53 2.374889 1_555
Ca2 O52 2.411070 1_555
Al0 O3 1.754394 1_555
Al0 O5 1.809487 1_455
Al0 O40 1.881396 1_545
Al0 O4 1.901574 1_445
Al0 O39 2.225828 1_555
Al0 O41 2.268707 1_445
Al1 O6 1.782367 1_555
Al1 O7 1.826247 1_665
Al1 O44 1.964541 1_555
Al1 O8 2.056572 1_655
Al1 O42 2.183602 1_565
Al1 O43 2.298958 1_665
Al2 O46 1.789778 1_555
Al2 O47 1.887809 1_655
Al2 O9 1.917996 1_545
Al2 O10 1.967639 1_655
Al2 O45 2.222672 1_545
Al2 O11 2.354450 1_645
Al3 O20 1.752031 1_556
Al3 O18 1.773693 1_556
Al3 O56 1.848148 1_555
Al3 O19 2.260824 1_556
Al3 O54 2.412889 1_555
Al3 O55 2.428695 1_555
Al4 O22 1.817350 1_555
Al4 O59 1.839034 1_555
Al4 O57 1.854978 1_555
Al4 O23 2.014249 1_555
Al4 O58 2.150901 1_555
Al4 O21 2.337841 1_555
Al5 O62 1.820602 1_555
Al5 O26 1.830199 1_554
Al5 O60 1.833641 1_555
Al5 O61 1.967568 1_555
Al5 O25 1.971245 1_554
Al5 O24 2.090801 1_554
Al6 O27 1.760557 1_555
Al6 O29 1.789684 1_555
Al6 O64 1.833853 1_555
Al6 O28 1.912824 1_555
Al6 O63 2.044080 1_555
Al6 O65 2.181507 1_555
Al7 O31 1.798784 1_555
Al7 O30 1.849130 1_555
Al7 O67 1.902350 1_555
Al7 O66 2.085341 1_555
Al7 O32 2.086772 1_555
Al7 O68 2.317693 1_555
Al8 O34 1.821686 1_555
Al8 O71 1.841480 1_555
Al8 O69 1.893511 1_555
Al8 O35 1.974938 1_555
Al8 O33 2.162938 1_555
Al8 O70 2.185095 1_555
O0 S0 1.477541 1_545
O1 Si0 1.605641 1_555
O2 S1 1.473904 1_655
O3 Si1 1.630531 1_555
O4 S2 1.476570 1_655
O5 Si2 1.638098 1_545
O6 Si2 1.653412 1_555
O7 Si1 1.658536 1_555
O8 S2 1.500708 1_555
O9 Si0 1.695695 1_555
O10 S1 1.498117 1_555
O11 S0 1.479344 1_555
O12 S3 1.475041 1_555
O13 S4 1.476636 1_555
O14 Si3 1.595611 1_555
O15 S5 1.471252 1_555
O16 Si4 1.608805 1_555
O17 Si5 1.618600 1_555
O18 Si5 1.684308 1_555
O19 S5 1.488506 1_555
O20 Si4 1.651034 1_555
O21 S4 1.481844 1_555
O22 Si3 1.680807 1_555
O23 S3 1.516847 1_555
O24 S6 1.483607 1_555
O25 S7 1.477695 1_555
O26 Si6 1.617188 1_555
O27 Si7 1.610055 1_555
O28 S8 1.460820 1_555
O29 Si8 1.618127 1_555
O30 Si8 1.667353 1_555
O31 Si7 1.656620 1_555
O32 S8 1.497413 1_555
O33 S7 1.493645 1_555
O34 Si6 1.647602 1_555
O35 S6 1.513428 1_555
O36 Si8 1.625989 1_555
O37 Si7 1.619877 1_545
O38 S8 1.479499 1_555
O39 S7 1.522028 1_555
O40 Si6 1.666545 1_555
O41 S6 1.488668 1_555
O42 S3 1.494475 1_555
O43 S4 1.488603 1_555
O44 Si3 1.710035 1_555
O45 S5 1.508822 1_555
O46 Si4 1.642630 1_555
O47 Si5 1.664388 1_555
O48 Si2 1.628276 1_545
O49 Si1 1.625151 1_555
O50 S2 1.476654 1_655
O51 Si0 1.633484 1_555
O52 S1 1.478908 1_655
O53 S0 1.480830 1_545
O54 S6 1.487812 1_555
O55 S7 1.486388 1_655
O56 Si6 1.717309 1_545
O57 Si7 1.670297 1_545
O58 S8 1.497041 1_555
O59 Si8 1.672104 1_655
O60 Si5 1.625587 1_555
O61 S5 1.487943 1_455
O62 Si4 1.647340 1_565
O63 S4 1.512890 1_565
O64 Si3 1.655315 1_555
O65 S3 1.474280 1_455
O66 S0 1.512078 1_555
O67 Si0 1.695166 1_555
O68 S1 1.492007 1_555
O69 Si1 1.682002 1_555
O70 S2 1.488608 1_555
O71 Si2 1.665947 1_555
