# generated using pymatgen
data_Cr(PO3)4
_symmetry_space_group_name_H-M   'P 1'
_cell_length_a   8.34102938
_cell_length_b   8.34102938
_cell_length_c   7.69805801
_cell_angle_alpha   82.00962906
_cell_angle_beta   82.00962906
_cell_angle_gamma   108.73542326
_symmetry_Int_Tables_number   1
_chemical_formula_structural   Cr(PO3)4
_chemical_formula_sum   'Cr2 P8 O24'
_cell_volume   492.54662554
_cell_formula_units_Z   2
loop_
 _symmetry_equiv_pos_site_id
 _symmetry_equiv_pos_as_xyz
  1  'x, y, z'
loop_
 _atom_site_type_symbol
 _atom_site_label
 _atom_site_symmetry_multiplicity
 _atom_site_fract_x
 _atom_site_fract_y
 _atom_site_fract_z
 _atom_site_occupancy
  Cr  Cr0  1  0.86783100  0.13216900  0.25000000  1
  Cr  Cr1  1  0.13216900  0.86783100  0.75000000  1
  P  P0  1  0.74975000  0.42515600  0.37895100  1
  P  P1  1  0.57484400  0.25025000  0.12104900  1
  P  P2  1  0.79522800  0.95849100  0.66979000  1
  P  P3  1  0.42515600  0.74975000  0.87895100  1
  P  P4  1  0.25025000  0.57484400  0.62104900  1
  P  P5  1  0.20477200  0.04150900  0.33021000  1
  P  P6  1  0.04150900  0.20477200  0.83021000  1
  P  P7  1  0.95849100  0.79522800  0.16979000  1
  O  O0  1  0.61077300  0.38922700  0.25000000  1
  O  O1  1  0.87082700  0.12917300  0.75000000  1
  O  O2  1  0.12917300  0.87082700  0.25000000  1
  O  O3  1  0.34467300  0.88650000  0.81623400  1
  O  O4  1  0.74602600  0.00460900  0.49232100  1
  O  O5  1  0.63054800  0.85074000  0.81470600  1
  O  O6  1  0.11350000  0.65532700  0.68376600  1
  O  O7  1  0.85898300  0.91872500  0.16801500  1
  O  O8  1  0.91872500  0.85898300  0.66801500  1
  O  O9  1  0.38504800  0.67037900  0.06870500  1
  O  O10  1  0.38922700  0.61077300  0.75000000  1
  O  O11  1  0.32962100  0.61495200  0.43129500  1
  O  O12  1  0.00460900  0.74602600  0.99232100  1
  O  O13  1  0.14926000  0.36945200  0.68529400  1
  O  O14  1  0.85074000  0.63054800  0.31470600  1
  O  O15  1  0.25397400  0.99539100  0.50767900  1
  O  O16  1  0.67037900  0.38504800  0.56870500  1
  O  O17  1  0.99539100  0.25397400  0.00767900  1
  O  O18  1  0.61495200  0.32962100  0.93129500  1
  O  O19  1  0.08127500  0.14101700  0.33198500  1
  O  O20  1  0.14101700  0.08127500  0.83198500  1
  O  O21  1  0.88650000  0.34467300  0.31623400  1
  O  O22  1  0.36945200  0.14926000  0.18529400  1
  O  O23  1  0.65532700  0.11350000  0.18376600  1
loop_
_geom_bond_atom_site_label_1
_geom_bond_atom_site_label_2
_geom_bond_distance
_geom_bond_site_symmetry_2
Cr0 O23 1.876700 1_555
Cr0 O21 1.876700 1_555
Cr0 O19 1.953026 1_655
Cr0 O7 1.953026 1_545
Cr0 O17 1.967458 1_555
Cr0 O4 1.967458 1_555
Cr1 O6 1.876700 1_555
Cr1 O3 1.876700 1_555
Cr1 O20 1.953026 1_565
Cr1 O8 1.953026 1_455
Cr1 O12 1.967458 1_555
Cr1 O15 1.967458 1_555
O0 P0 1.611966 1_555
O0 P1 1.611966 1_555
O1 P6 1.606748 1_655
O1 P2 1.606748 1_545
O2 P5 1.606748 1_565
O2 P7 1.606748 1_455
O3 P3 1.553611 1_555
O4 P2 1.514593 1_545
O5 P2 1.562442 1_555
O5 P3 1.615773 1_555
O6 P4 1.553611 1_555
O7 P7 1.516130 1_555
O8 P2 1.516130 1_555
O9 P3 1.461838 1_554
O10 P3 1.611966 1_555
O10 P4 1.611966 1_555
O11 P4 1.461838 1_555
O12 P7 1.514593 1_456
O13 P6 1.562442 1_555
O13 P4 1.615773 1_555
O14 P7 1.562442 1_555
O14 P0 1.615773 1_555
O15 P5 1.514593 1_565
O16 P0 1.461838 1_555
O17 P6 1.514593 1_654
O18 P1 1.461838 1_556
O19 P5 1.516130 1_555
O20 P6 1.516130 1_555
O21 P0 1.553611 1_555
O22 P5 1.562442 1_555
O22 P1 1.615773 1_555
O23 P1 1.553611 1_555
