# generated using pymatgen
data_RbNO3
_symmetry_space_group_name_H-M   'P 1'
_cell_length_a   4.47788372
_cell_length_b   4.47788378
_cell_length_c   4.47788413
_cell_angle_alpha   78.92312851
_cell_angle_beta   78.92313944
_cell_angle_gamma   78.92313497
_symmetry_Int_Tables_number   1
_chemical_formula_structural   RbNO3
_chemical_formula_sum   'Rb1 N1 O3'
_cell_volume   85.34336287
_cell_formula_units_Z   1
loop_
 _symmetry_equiv_pos_site_id
 _symmetry_equiv_pos_as_xyz
  1  'x, y, z'
loop_
 _atom_site_type_symbol
 _atom_site_label
 _atom_site_symmetry_multiplicity
 _atom_site_fract_x
 _atom_site_fract_y
 _atom_site_fract_z
 _atom_site_occupancy
  Rb  Rb0  1  0.47541908  0.47541908  0.47541908  1
  N  N0  1  0.03851538  0.03851538  0.03851538  1
  O  O0  1  0.29563889  0.91166283  0.91166283  1
  O  O1  1  0.91166283  0.29563889  0.91166283  1
  O  O2  1  0.91166283  0.91166283  0.29563889  1
loop_
_geom_bond_atom_site_label_1
_geom_bond_atom_site_label_2
_geom_bond_distance
_geom_bond_site_symmetry_2
N0 O1 1.261880 1_454
N0 O2 1.261880 1_445
N0 O0 1.261880 1_544
O0 Rb0 2.921943 1_555
O0 Rb0 3.019696 1_556
O0 Rb0 3.019696 1_565
O1 Rb0 2.921943 1_555
O1 Rb0 3.019696 1_655
O1 Rb0 3.019696 1_556
O2 Rb0 2.921943 1_555
O2 Rb0 3.019695 1_655
O2 Rb0 3.019696 1_565
