# generated using pymatgen
data_Ba2MnReO6
_symmetry_space_group_name_H-M   'P 1'
_cell_length_a   5.86090386
_cell_length_b   5.86090386
_cell_length_c   5.86090422
_cell_angle_alpha   60.00000191
_cell_angle_beta   60.00000191
_cell_angle_gamma   60.00000153
_symmetry_Int_Tables_number   1
_chemical_formula_structural   Ba2MnReO6
_chemical_formula_sum   'Ba2 Mn1 Re1 O6'
_cell_volume   142.35700411
_cell_formula_units_Z   1
loop_
 _symmetry_equiv_pos_site_id
 _symmetry_equiv_pos_as_xyz
  1  'x, y, z'
loop_
 _atom_site_type_symbol
 _atom_site_label
 _atom_site_symmetry_multiplicity
 _atom_site_fract_x
 _atom_site_fract_y
 _atom_site_fract_z
 _atom_site_occupancy
  Ba  Ba0  1  0.75000000  0.75000000  0.75000000  1
  Ba  Ba1  1  0.25000000  0.25000000  0.25000000  1
  Mn  Mn0  1  0.00000000  0.00000000  0.00000000  1
  Re  Re0  1  0.50000000  0.50000000  0.50000000  1
  O  O0  1  0.73510000  0.26490000  0.73510000  1
  O  O1  1  0.26490000  0.73510000  0.73510000  1
  O  O2  1  0.73510000  0.26490000  0.26490000  1
  O  O3  1  0.26490000  0.26490000  0.73510000  1
  O  O4  1  0.26490000  0.73510000  0.26490000  1
  O  O5  1  0.73510000  0.73510000  0.26490000  1
loop_
_geom_bond_atom_site_label_1
_geom_bond_atom_site_label_2
_geom_bond_distance
_geom_bond_site_symmetry_2
Ba0 O0 2.933053 1_555
Ba0 O1 2.933053 1_555
Ba0 O0 2.933053 1_565
Ba0 O1 2.933053 1_655
Ba0 O3 2.933053 1_655
Ba0 O3 2.933053 1_565
Ba0 O4 2.933053 1_655
Ba0 O2 2.933053 1_565
Ba0 O5 2.933053 1_555
Ba0 O4 2.933053 1_556
Ba0 O2 2.933053 1_556
Ba0 O5 2.933053 1_556
Ba1 O4 2.933053 1_555
Ba1 O2 2.933053 1_555
Ba1 O2 2.933053 1_455
Ba1 O4 2.933053 1_545
Ba1 O5 2.933053 1_545
Ba1 O5 2.933053 1_455
Ba1 O1 2.933053 1_545
Ba1 O0 2.933053 1_455
Ba1 O3 2.933053 1_555
Ba1 O1 2.933053 1_554
Ba1 O0 2.933053 1_554
Ba1 O3 2.933053 1_554
Mn0 O3 2.195642 1_554
Mn0 O5 2.195642 1_445
Mn0 O2 2.195642 1_455
Mn0 O1 2.195642 1_544
Mn0 O4 2.195642 1_545
Mn0 O0 2.195642 1_454
O0 Re0 1.948643 1_555
O1 Re0 1.948643 1_555
O2 Re0 1.948643 1_555
O3 Re0 1.948643 1_555
O4 Re0 1.948643 1_555
O5 Re0 1.948643 1_555
