# generated using pymatgen
data_LuNi2
_symmetry_space_group_name_H-M   'P 1'
_cell_length_a   4.93987957
_cell_length_b   4.93986317
_cell_length_c   4.93986859
_cell_angle_alpha   60.00191302
_cell_angle_beta   60.00199076
_cell_angle_gamma   60.00171460
_symmetry_Int_Tables_number   1
_chemical_formula_structural   LuNi2
_chemical_formula_sum   'Lu2 Ni4'
_cell_volume   85.24131080
_cell_formula_units_Z   2
loop_
 _symmetry_equiv_pos_site_id
 _symmetry_equiv_pos_as_xyz
  1  'x, y, z'
loop_
 _atom_site_type_symbol
 _atom_site_label
 _atom_site_symmetry_multiplicity
 _atom_site_fract_x
 _atom_site_fract_y
 _atom_site_fract_z
 _atom_site_occupancy
  Lu  Lu0  1  0.87499668  0.87500333  0.87499740  1
  Lu  Lu1  1  0.12500218  0.12499617  0.12500240  1
  Ni  Ni0  1  0.49999909  -0.00000038  0.50000091  1
  Ni  Ni1  1  0.00000043  0.49999887  0.49999965  1
  Ni  Ni2  1  0.50000087  0.49999971  0.49999899  1
  Ni  Ni3  1  0.49999976  0.50000130  0.00000065  1
loop_
_geom_bond_atom_site_label_1
_geom_bond_atom_site_label_2
_geom_bond_distance
_geom_bond_site_symmetry_2
Lu0 Ni0 2.896227 1_565
Lu0 Ni3 2.896238 1_556
Lu0 Ni1 2.896242 1_655
Lu0 Ni1 2.896293 1_665
Lu0 Ni3 2.896294 1_566
Lu0 Ni2 2.896308 1_565
Lu0 Ni0 2.896312 1_566
Lu0 Ni0 2.896316 1_665
Lu0 Ni1 2.896320 1_656
Lu0 Ni3 2.896323 1_656
Lu0 Ni2 2.896344 1_556
Lu0 Ni2 2.896346 1_655
Lu0 Lu1 3.025011 1_666
Lu0 Lu1 3.025094 1_566
Lu0 Lu1 3.025095 1_665
Lu0 Lu1 3.025133 1_656
Lu1 Ni0 2.896232 1_555
Lu1 Ni1 2.896236 1_555
Lu1 Ni3 2.896257 1_555
Lu1 Ni3 2.896278 1_545
Lu1 Ni1 2.896297 1_545
Lu1 Ni0 2.896304 1_554
Lu1 Ni2 2.896310 1_545
Lu1 Ni3 2.896317 1_455
Lu1 Ni1 2.896318 1_554
Lu1 Ni0 2.896320 1_455
Lu1 Ni2 2.896336 1_455
Lu1 Ni2 2.896353 1_554
Ni0 Ni2 2.469931 1_545
Ni0 Ni2 2.469932 1_555
Ni0 Ni1 2.469995 1_555
Ni0 Ni3 2.470000 1_546
Ni0 Ni1 2.470005 1_645
Ni0 Ni3 2.470009 1_555
Ni1 Ni2 2.469937 1_455
Ni1 Ni2 2.469942 1_555
Ni1 Ni3 2.470007 1_555
Ni1 Ni3 2.470015 1_456
Ni2 Ni3 2.469925 1_555
Ni2 Ni3 2.469944 1_556
