# generated using pymatgen
data_CdHgO2
_symmetry_space_group_name_H-M   'P 1'
_cell_length_a   3.57818113
_cell_length_b   3.57818113
_cell_length_c   6.60827537
_cell_angle_alpha   74.66278907
_cell_angle_beta   74.66278907
_cell_angle_gamma   59.93069190
_symmetry_Int_Tables_number   1
_chemical_formula_structural   CdHgO2
_chemical_formula_sum   'Cd1 Hg1 O2'
_cell_volume   69.72553758
_cell_formula_units_Z   1
loop_
 _symmetry_equiv_pos_site_id
 _symmetry_equiv_pos_as_xyz
  1  'x, y, z'
loop_
 _atom_site_type_symbol
 _atom_site_label
 _atom_site_symmetry_multiplicity
 _atom_site_fract_x
 _atom_site_fract_y
 _atom_site_fract_z
 _atom_site_occupancy
  Cd  Cd0  1  0.00000000  -0.00000000  -0.00000000  1
  Hg  Hg0  1  0.50000000  0.50000000  0.50000000  1
  O  O0  1  0.39198012  0.39198012  0.81975877  1
  O  O1  1  0.60801988  0.60801988  0.18024123  1
loop_
_geom_bond_atom_site_label_1
_geom_bond_atom_site_label_2
_geom_bond_distance
_geom_bond_site_symmetry_2
Cd0 O1 2.355501 1_545
Cd0 O1 2.355501 1_455
Cd0 O0 2.355501 1_544
Cd0 O0 2.355501 1_454
Cd0 O0 2.357325 1_554
Cd0 O1 2.357325 1_445
Hg0 O0 2.012311 1_555
Hg0 O1 2.012311 1_555
