# generated using pymatgen
data_Li2Te2O5
_symmetry_space_group_name_H-M   'P 1'
_cell_length_a   4.72723192
_cell_length_b   10.35085939
_cell_length_c   12.09778119
_cell_angle_alpha   57.41125327
_cell_angle_beta   90.00000000
_cell_angle_gamma   90.00000000
_symmetry_Int_Tables_number   1
_chemical_formula_structural   Li2Te2O5
_chemical_formula_sum   'Li8 Te8 O20'
_cell_volume   498.75694126
_cell_formula_units_Z   4
loop_
 _symmetry_equiv_pos_site_id
 _symmetry_equiv_pos_as_xyz
  1  'x, y, z'
loop_
 _atom_site_type_symbol
 _atom_site_label
 _atom_site_symmetry_multiplicity
 _atom_site_fract_x
 _atom_site_fract_y
 _atom_site_fract_z
 _atom_site_occupancy
  Li  Li0  1  0.18842171  0.92359386  0.82485055  1
  Li  Li1  1  0.68842171  0.07640614  0.67514945  1
  Li  Li2  1  0.81157829  0.07640614  0.17514945  1
  Li  Li3  1  0.31157829  0.92359386  0.32485055  1
  Li  Li4  1  0.29023836  0.07470781  0.51052337  1
  Li  Li5  1  0.79023836  0.92529219  0.98947663  1
  Li  Li6  1  0.70976164  0.92529219  0.48947663  1
  Li  Li7  1  0.20976164  0.07470781  0.01052337  1
  Te  Te0  1  0.18198564  0.30261781  0.62499478  1
  Te  Te1  1  0.68198564  0.69738219  0.87500522  1
  Te  Te2  1  0.81801436  0.69738219  0.37500522  1
  Te  Te3  1  0.31801436  0.30261781  0.12499478  1
  Te  Te4  1  0.18688387  0.69756945  0.65021882  1
  Te  Te5  1  0.68688387  0.30243055  0.84978118  1
  Te  Te6  1  0.81311613  0.30243055  0.34978118  1
  Te  Te7  1  0.31311613  0.69756945  0.15021882  1
  O  O0  1  0.00872777  0.62224842  0.54465411  1
  O  O1  1  0.50872777  0.37775158  0.95534589  1
  O  O2  1  0.99127223  0.37775158  0.45534589  1
  O  O3  1  0.49127223  0.62224842  0.04465411  1
  O  O4  1  0.17226049  0.76453420  0.28865684  1
  O  O5  1  0.67226049  0.23546580  0.21134316  1
  O  O6  1  0.82773951  0.23546580  0.71134316  1
  O  O7  1  0.32773951  0.76453420  0.78865684  1
  O  O8  1  0.22538081  0.11025690  0.15758925  1
  O  O9  1  0.72538081  0.88974310  0.34241075  1
  O  O10  1  0.77461919  0.88974310  0.84241075  1
  O  O11  1  0.27461919  0.11025690  0.65758925  1
  O  O12  1  0.32769828  0.23876472  0.82949777  1
  O  O13  1  0.82769828  0.76123528  0.67050223  1
  O  O14  1  0.67230172  0.76123528  0.17050223  1
  O  O15  1  0.17230172  0.23876472  0.32949777  1
  O  O16  1  0.28714639  0.88794030  0.50624399  1
  O  O17  1  0.78714639  0.11205970  0.99375601  1
  O  O18  1  0.71285361  0.11205970  0.49375601  1
  O  O19  1  0.21285361  0.88794030  0.00624399  1
loop_
_geom_bond_atom_site_label_1
_geom_bond_atom_site_label_2
_geom_bond_distance
_geom_bond_site_symmetry_2
Li0 O11 1.944775 1_565
Li0 O10 1.978434 1_455
Li0 O19 2.023066 1_556
Li0 O7 2.027972 1_555
Li1 O10 1.944775 1_545
Li1 O11 1.978434 1_555
Li1 O18 2.023066 1_555
Li1 O6 2.027972 1_555
Li2 O9 1.944775 1_545
Li2 O8 1.978434 1_655
Li2 O17 2.023066 1_554
Li2 O5 2.027972 1_555
Li3 O8 1.944775 1_565
Li3 O9 1.978434 1_555
Li3 O16 2.023066 1_555
Li3 O4 2.027972 1_555
Li4 O16 1.961628 1_545
Li4 O15 1.996132 1_555
Li4 O11 2.002877 1_555
Li4 O18 2.024191 1_555
Li5 O17 1.961628 1_565
Li5 O14 1.996132 1_556
Li5 O10 2.002877 1_555
Li5 O19 2.024191 1_656
Li6 O18 1.961628 1_565
Li6 O13 1.996132 1_555
Li6 O9 2.002877 1_555
Li6 O16 2.024191 1_555
Li7 O19 1.961628 1_545
Li7 O12 1.996132 1_554
Li7 O8 2.002877 1_555
Li7 O17 2.024191 1_454
O0 Te2 1.977493 1_455
O0 Te4 2.005154 1_555
O1 Te3 1.977493 1_556
O1 Te5 2.005154 1_555
O2 Te0 1.977493 1_655
O2 Te6 2.005154 1_555
O3 Te1 1.977493 1_554
O3 Te7 2.005154 1_555
O4 Te2 1.896447 1_455
O4 Te7 2.231422 1_555
O5 Te3 1.896447 1_555
O5 Te6 2.231422 1_555
O6 Te0 1.896447 1_655
O6 Te5 2.231422 1_555
O7 Te1 1.896447 1_555
O7 Te4 2.231422 1_555
O8 Te3 1.861713 1_555
O9 Te2 1.861713 1_555
O10 Te1 1.861713 1_555
O11 Te0 1.861713 1_555
O12 Te5 1.884603 1_555
O12 Te0 2.295804 1_555
O13 Te4 1.884603 1_655
O13 Te1 2.295804 1_555
O14 Te7 1.884603 1_555
O14 Te2 2.295804 1_555
O15 Te6 1.884603 1_455
O15 Te3 2.295804 1_555
O16 Te4 1.855837 1_555
O17 Te5 1.855837 1_555
O18 Te6 1.855837 1_555
O19 Te7 1.855837 1_555
