# generated using pymatgen
data_Na14Ta5Al3(SiO4)12
_symmetry_space_group_name_H-M   'P 1'
_cell_length_a   17.93715876
_cell_length_b   8.96950247
_cell_length_c   22.15107785
_cell_angle_alpha   90.03133405
_cell_angle_beta   89.89792732
_cell_angle_gamma   120.07119748
_symmetry_Int_Tables_number   1
_chemical_formula_structural   Na14Ta5Al3(SiO4)12
_chemical_formula_sum   'Na42 Ta15 Al9 Si36 O144'
_cell_volume   3084.14474750
_cell_formula_units_Z   3
loop_
 _symmetry_equiv_pos_site_id
 _symmetry_equiv_pos_as_xyz
  1  'x, y, z'
loop_
 _atom_site_type_symbol
 _atom_site_label
 _atom_site_symmetry_multiplicity
 _atom_site_fract_x
 _atom_site_fract_y
 _atom_site_fract_z
 _atom_site_occupancy
  Na  Na0  1  0.31978205  0.00945115  0.24755849  1
  Na  Na1  1  0.81598192  0.00855086  0.24613437  1
  Na  Na2  1  0.18865570  0.36853793  0.24593121  1
  Na  Na3  1  0.68492747  0.36042514  0.24766838  1
  Na  Na4  1  0.99575728  0.62519557  0.24659745  1
  Na  Na5  1  0.49483031  0.62758208  0.24723581  1
  Na  Na6  1  0.31761824  0.62671208  0.74715402  1
  Na  Na7  1  0.81749782  0.62651652  0.74737388  1
  Na  Na8  1  0.99549495  0.36519691  0.74741299  1
  Na  Na9  1  0.49537386  0.36491241  0.74732611  1
  Na  Na10  1  0.18730242  0.00878837  0.74713504  1
  Na  Na11  1  0.68701798  0.00863151  0.74714678  1
  Na  Na12  1  0.15231635  0.34428997  0.57997829  1
  Na  Na13  1  0.65182100  0.34273283  0.58007136  1
  Na  Na14  1  0.01998009  0.69596315  0.57985885  1
  Na  Na15  1  0.51918964  0.69569000  0.58005854  1
  Na  Na16  1  0.32836864  0.96010893  0.57984543  1
  Na  Na17  1  0.82836278  0.96083239  0.58059441  1
  Na  Na18  1  0.15298826  0.96167265  0.08009763  1
  Na  Na19  1  0.65187672  0.96100723  0.08067047  1
  Na  Na20  1  0.32894908  0.69706920  0.08113428  1
  Na  Na21  1  0.82811522  0.69529198  0.08046072  1
  Na  Na22  1  0.01949818  0.34363249  0.07982441  1
  Na  Na23  1  0.51919601  0.34255323  0.08058575  1
  Na  Na24  1  0.34832440  0.03028832  0.91957963  1
  Na  Na25  1  0.84822708  0.03026659  0.91949125  1
  Na  Na26  1  0.48415428  0.29331832  0.41474835  1
  Na  Na27  1  0.66137323  0.03200235  0.41457222  1
  Na  Na28  1  0.35363055  0.67714463  0.41502426  1
  Na  Na29  1  0.84742314  0.66512538  0.41786295  1
  Na  Na30  1  0.00376733  0.00712264  0.49752051  1
  Na  Na31  1  0.49943314  0.99981885  0.49387200  1
  Na  Na32  1  0.00347991  0.99976331  0.99806541  1
  Na  Na33  1  0.50337912  0.99979994  0.99896686  1
  Na  Na34  1  0.33315324  0.33899510  0.83260728  1
  Na  Na35  1  0.83312690  0.33898737  0.83255585  1
  Na  Na36  1  0.33123173  0.32906544  0.32961264  1
  Na  Na37  1  0.83523239  0.33151376  0.32969405  1
  Na  Na38  1  0.16755529  0.66714497  0.16112091  1
  Na  Na39  1  0.66596819  0.66638151  0.16091921  1
  Na  Na40  1  0.16696281  0.66689904  0.66133896  1
  Na  Na41  1  0.66657445  0.66675969  0.66153404  1
  Ta  Ta0  1  0.00289617  0.00438638  0.35556411  1
  Ta  Ta1  1  0.00196047  0.00003866  0.85655200  1
  Ta  Ta2  1  0.50189816  0.99994547  0.85659346  1
  Ta  Ta3  1  0.00004164  0.99972438  0.64525516  1
  Ta  Ta4  1  0.50001781  0.99982754  0.64474784  1
  Ta  Ta5  1  0.00001540  0.00034358  0.14481908  1
  Ta  Ta6  1  0.49992326  0.00011459  0.14641720  1
  Ta  Ta7  1  0.33339732  0.33744138  0.97856092  1
  Ta  Ta8  1  0.83317782  0.33747603  0.97846413  1
  Ta  Ta9  1  0.33040199  0.32864399  0.47846202  1
  Ta  Ta10  1  0.83619063  0.33372329  0.47888838  1
  Ta  Ta11  1  0.16770612  0.66850336  0.31431210  1
  Ta  Ta12  1  0.66537165  0.66530219  0.31335051  1
  Ta  Ta13  1  0.16636980  0.66578070  0.81500772  1
  Ta  Ta14  1  0.66619065  0.66558479  0.81502579  1
  Al  Al0  1  0.49935793  0.99988693  0.35234000  1
  Al  Al1  1  0.33342508  0.33336226  0.68483123  1
  Al  Al2  1  0.83326727  0.33305223  0.68486283  1
  Al  Al3  1  0.33440701  0.33497703  0.18486965  1
  Al  Al4  1  0.83205445  0.33184156  0.18465910  1
  Al  Al5  1  0.16649649  0.66677007  0.02015090  1
  Al  Al6  1  0.66610611  0.66615366  0.02016636  1
  Al  Al7  1  0.16696679  0.66746296  0.51934552  1
  Al  Al8  1  0.66582167  0.66544872  0.51922642  1
  Si  Si0  1  0.14892343  0.00541192  0.24854817  1
  Si  Si1  1  0.64577954  0.00653723  0.25247639  1
  Si  Si2  1  0.35711972  0.70767718  0.25259249  1
  Si  Si3  1  0.85446049  0.70299656  0.24978342  1
  Si  Si4  1  0.99728251  0.29131311  0.24934592  1
  Si  Si5  1  0.49646584  0.28524343  0.25246959  1
  Si  Si6  1  0.14859028  0.29197675  0.74901918  1
  Si  Si7  1  0.64849674  0.29170248  0.74894034  1
  Si  Si8  1  0.99726500  0.70301511  0.74939346  1
  Si  Si9  1  0.49726347  0.70330341  0.74929819  1
  Si  Si10  1  0.35434013  0.00558230  0.74981017  1
  Si  Si11  1  0.85422170  0.00553093  0.74990055  1
  Si  Si12  1  0.47870776  0.34047607  0.58507591  1
  Si  Si13  1  0.97968433  0.34060984  0.58614748  1
  Si  Si14  1  0.19082873  0.04103216  0.58615705  1
  Si  Si15  1  0.69150482  0.04245624  0.58505905  1
  Si  Si16  1  0.32973984  0.61691074  0.58515632  1
  Si  Si17  1  0.82968420  0.61745697  0.58540938  1
  Si  Si18  1  0.47935281  0.61850956  0.08568686  1
  Si  Si19  1  0.97899614  0.61715142  0.08592652  1
  Si  Si20  1  0.33005661  0.04271732  0.08521134  1
  Si  Si21  1  0.82971836  0.04272475  0.08488474  1
  Si  Si22  1  0.19163124  0.34073525  0.08559279  1
  Si  Si23  1  0.69096983  0.34011529  0.08564052  1
  Si  Si24  1  0.30852886  0.66348125  0.92023649  1
  Si  Si25  1  0.80847519  0.66369166  0.92023533  1
  Si  Si26  1  0.02461503  0.38276443  0.92104578  1
  Si  Si27  1  0.52458926  0.38260211  0.92106137  1
  Si  Si28  1  0.16544276  0.95045409  0.92108050  1
  Si  Si29  1  0.66537890  0.95025959  0.92111654  1
  Si  Si30  1  0.31220524  0.95303251  0.41954998  1
  Si  Si31  1  0.80970092  0.95213844  0.41973059  1
  Si  Si32  1  0.16509484  0.38135958  0.42074154  1
  Si  Si33  1  0.66336630  0.37383544  0.41932583  1
  Si  Si34  1  0.02582116  0.66825123  0.42021317  1
  Si  Si35  1  0.52321152  0.67313118  0.41974354  1
  O  O0  1  0.09831221  0.03255359  0.30580906  1
  O  O1  1  0.59927343  0.03443912  0.31022809  1
  O  O2  1  0.41756933  0.80110992  0.31017585  1
  O  O3  1  0.91608162  0.79874942  0.30843511  1
  O  O4  1  0.48299317  0.16480840  0.31015306  1
  O  O5  1  0.98316719  0.16199190  0.30618610  1
  O  O6  1  0.09806984  0.16300518  0.80562692  1
  O  O7  1  0.59819897  0.16315578  0.80562595  1
  O  O8  1  0.48290485  0.80359299  0.80586183  1
  O  O9  1  0.98282513  0.80361899  0.80583928  1
  O  O10  1  0.41611105  0.03373397  0.80802572  1
  O  O11  1  0.91611899  0.03376462  0.80796727  1
  O  O12  1  0.39951073  0.96479115  0.69167017  1
  O  O13  1  0.89925631  0.96462371  0.69170613  1
  O  O14  1  0.08337629  0.20243098  0.69074487  1
  O  O15  1  0.58349140  0.20254627  0.69062250  1
  O  O16  1  0.01784212  0.83335318  0.69093676  1
  O  O17  1  0.51800949  0.83373428  0.69087144  1
  O  O18  1  0.39920038  0.83408395  0.19227094  1
  O  O19  1  0.89948502  0.83400755  0.19191518  1
  O  O20  1  0.01776826  0.20191687  0.19116264  1
  O  O21  1  0.51782128  0.20151528  0.19218760  1
  O  O22  1  0.08318340  0.96430686  0.19084228  1
  O  O23  1  0.58297408  0.96465716  0.19221640  1
  O  O24  1  0.43324401  0.36817537  0.64362471  1
  O  O25  1  0.93338897  0.36795428  0.64433845  1
  O  O26  1  0.25041918  0.13258390  0.64450369  1
  O  O27  1  0.75100470  0.13369512  0.64343070  1
  O  O28  1  0.31613220  0.49794666  0.64358144  1
  O  O29  1  0.81608402  0.49827868  0.64366735  1
  O  O30  1  0.43371136  0.49963125  0.14423374  1
  O  O31  1  0.93328475  0.49867419  0.14462384  1
  O  O32  1  0.31596277  0.13416885  0.14363765  1
  O  O33  1  0.81661583  0.13438635  0.14355822  1
  O  O34  1  0.25040317  0.36767582  0.14433467  1
  O  O35  1  0.75055883  0.36905883  0.14423979  1
  O  O36  1  0.23424970  0.29593392  0.02699502  1
  O  O37  1  0.73464730  0.29656828  0.02723854  1
  O  O38  1  0.41425296  0.53063022  0.02719966  1
  O  O39  1  0.91414565  0.53075819  0.02734097  1
  O  O40  1  0.35129195  0.16715583  0.02493324  1
  O  O41  1  0.85182613  0.16745758  0.02475539  1
  O  O42  1  0.23396590  0.17137131  0.52759288  1
  O  O43  1  0.73292550  0.16858017  0.52523657  1
  O  O44  1  0.35161784  0.53474556  0.52529211  1
  O  O45  1  0.85115694  0.53511103  0.52530155  1
  O  O46  1  0.41589609  0.29776327  0.52543718  1
  O  O47  1  0.91444237  0.29733047  0.52753849  1
  O  O48  1  0.26615551  0.70272742  0.97700205  1
  O  O49  1  0.76627869  0.70290424  0.97706407  1
  O  O50  1  0.08307222  0.47052953  0.97841937  1
  O  O51  1  0.58313920  0.47043176  0.97828205  1
  O  O52  1  0.15262129  0.83481117  0.97864290  1
  O  O53  1  0.65288788  0.83492321  0.97861196  1
  O  O54  1  0.26623490  0.83080560  0.47699813  1
  O  O55  1  0.76607796  0.83024551  0.47742125  1
  O  O56  1  0.15254561  0.47018966  0.47917545  1
  O  O57  1  0.64977133  0.46808764  0.47682544  1
  O  O58  1  0.08254681  0.69488836  0.47876874  1
  O  O59  1  0.58481916  0.70205363  0.47680869  1
  O  O60  1  0.06702949  0.63779727  0.35777763  1
  O  O61  1  0.56649919  0.63285225  0.35928925  1
  O  O62  1  0.25166996  0.86591817  0.35838200  1
  O  O63  1  0.75043825  0.86755016  0.35831303  1
  O  O64  1  0.18240445  0.49861020  0.35870711  1
  O  O65  1  0.68428577  0.50121104  0.35899999  1
  O  O66  1  0.06731060  0.49587749  0.85795600  1
  O  O67  1  0.56733613  0.49596136  0.85793507  1
  O  O68  1  0.18216326  0.86576242  0.85856463  1
  O  O69  1  0.68231693  0.86588176  0.85851304  1
  O  O70  1  0.25197522  0.63851725  0.85748119  1
  O  O71  1  0.75201409  0.63858478  0.85745316  1
  O  O72  1  0.00925295  0.83270918  0.41074116  1
  O  O73  1  0.51187677  0.83992555  0.41053320  1
  O  O74  1  0.40760660  0.97574071  0.41037969  1
  O  O75  1  0.90436232  0.96851551  0.41060032  1
  O  O76  1  0.08167611  0.18767131  0.41085700  1
  O  O77  1  0.57982181  0.18422702  0.41039825  1
  O  O78  1  0.00961433  0.18575363  0.91049397  1
  O  O79  1  0.50962746  0.18574084  0.91042654  1
  O  O80  1  0.08122774  0.97460650  0.91050122  1
  O  O81  1  0.58126745  0.97461020  0.91049708  1
  O  O82  1  0.40372308  0.83950917  0.90975355  1
  O  O83  1  0.90375209  0.83957802  0.90979635  1
  O  O84  1  0.48674845  0.16259542  0.58952351  1
  O  O85  1  0.98666064  0.16162985  0.58949789  1
  O  O86  1  0.09419948  0.02632122  0.58961066  1
  O  O87  1  0.59468907  0.02682569  0.58946115  1
  O  O88  1  0.41903736  0.81123358  0.58961424  1
  O  O89  1  0.91894472  0.81155967  0.58945332  1
  O  O90  1  0.48701291  0.81203122  0.08936764  1
  O  O91  1  0.98662953  0.81107965  0.08958481  1
  O  O92  1  0.41909883  0.02637315  0.08961860  1
  O  O93  1  0.91896390  0.02625479  0.08954834  1
  O  O94  1  0.09438059  0.16225432  0.08954210  1
  O  O95  1  0.59421319  0.16199017  0.08954032  1
  O  O96  1  0.34505045  0.17410687  0.74314708  1
  O  O97  1  0.84494512  0.17396156  0.74310340  1
  O  O98  1  0.24207317  0.31004542  0.74309714  1
  O  O99  1  0.74205605  0.30987637  0.74300767  1
  O  O100  1  0.41284546  0.51608903  0.74309015  1
  O  O101  1  0.91270532  0.51603567  0.74309355  1
  O  O102  1  0.34489409  0.51753288  0.24373375  1
  O  O103  1  0.84517537  0.51591717  0.24371344  1
  O  O104  1  0.41376834  0.31004016  0.24377551  1
  O  O105  1  0.91272654  0.30884081  0.24365262  1
  O  O106  1  0.24233956  0.17461514  0.24344805  1
  O  O107  1  0.74117585  0.17253545  0.24354754  1
  O  O108  1  0.32044242  0.49486940  0.92209812  1
  O  O109  1  0.82053498  0.49513614  0.92208896  1
  O  O110  1  0.42582822  0.35165203  0.92243730  1
  O  O111  1  0.92583219  0.35177605  0.92250554  1
  O  O112  1  0.25380732  0.14111374  0.92254786  1
  O  O113  1  0.75382042  0.14117306  0.92264658  1
  O  O114  1  0.32346843  0.14810069  0.42274968  1
  O  O115  1  0.81691510  0.14191282  0.42264245  1
  O  O116  1  0.25373862  0.36703198  0.42305222  1
  O  O117  1  0.75212764  0.35931961  0.42282883  1
  O  O118  1  0.42750693  0.49559958  0.42281251  1
  O  O119  1  0.92635352  0.49976685  0.42279147  1
  O  O120  1  0.17872467  0.50559778  0.07722638  1
  O  O121  1  0.67881625  0.50586525  0.07715362  1
  O  O122  1  0.07455304  0.64367965  0.07795480  1
  O  O123  1  0.57468126  0.64370644  0.07769406  1
  O  O124  1  0.24740111  0.85078259  0.07776479  1
  O  O125  1  0.74747916  0.85082087  0.07782274  1
  O  O126  1  0.17841281  0.85089643  0.57752058  1
  O  O127  1  0.67850137  0.85125623  0.57694271  1
  O  O128  1  0.24764788  0.64432755  0.57781817  1
  O  O129  1  0.74700200  0.64320824  0.57730125  1
  O  O130  1  0.07489148  0.50566494  0.57799133  1
  O  O131  1  0.57458071  0.50608842  0.57697787  1
  O  O132  1  0.15405924  0.82826208  0.25495945  1
  O  O133  1  0.65381939  0.82916534  0.25638174  1
  O  O134  1  0.26051054  0.69190444  0.25600288  1
  O  O135  1  0.76027409  0.69220020  0.25543385  1
  O  O136  1  0.08580092  0.47926683  0.25559367  1
  O  O137  1  0.58565993  0.47845157  0.25626988  1
  O  O138  1  0.15422577  0.47992196  0.75487018  1
  O  O139  1  0.65438236  0.47997984  0.75486206  1
  O  O140  1  0.08561639  0.69181532  0.75533438  1
  O  O141  1  0.58562781  0.69175869  0.75534507  1
  O  O142  1  0.25977360  0.82867430  0.75489056  1
  O  O143  1  0.75974683  0.82854905  0.75480452  1
loop_
_geom_bond_atom_site_label_1
_geom_bond_atom_site_label_2
_geom_bond_distance
_geom_bond_site_symmetry_2
Na0 O104 2.358588 1_555
Na0 O106 2.489063 1_555
Na0 O134 2.498594 1_545
Na0 O32 2.575903 1_555
Na0 O132 2.581002 1_545
Na0 O62 2.755527 1_545
Na0 O18 2.870641 1_545
Na0 O4 2.891173 1_555
Na1 O105 2.363220 1_555
Na1 O107 2.438317 1_555
Na1 O135 2.500164 1_545
Na1 O133 2.531594 1_545
Na1 O33 2.535088 1_555
Na1 O63 2.767535 1_545
Na1 O19 2.911762 1_545
Na1 O5 2.921075 1_555
Na2 O106 2.373602 1_555
Na2 O102 2.426621 1_555
Na2 O136 2.504119 1_555
Na2 O34 2.508205 1_555
Na2 O134 2.525367 1_555
Na2 O64 2.782298 1_555
Na2 O20 2.919148 1_555
Na2 O0 2.927415 1_555
Na3 O107 2.360072 1_555
Na3 O103 2.489315 1_555
Na3 O137 2.493008 1_555
Na3 O35 2.557351 1_555
Na3 O135 2.584881 1_555
Na3 O65 2.772639 1_555
Na3 O21 2.873341 1_555
Na3 O1 2.885325 1_555
Na4 O103 2.368053 1_555
Na4 O105 2.457444 1_555
Na4 O132 2.496605 1_655
Na4 O31 2.525400 1_555
Na4 O136 2.545903 1_655
Na4 O60 2.752895 1_655
Na4 O22 2.907451 1_655
Na4 O3 2.926137 1_555
Na5 O102 2.356616 1_555
Na5 O104 2.466206 1_555
Na5 O133 2.505455 1_555
Na5 O30 2.543597 1_555
Na5 O137 2.582461 1_555
Na5 O61 2.786758 1_555
Na5 O23 2.886643 1_555
Na5 O2 2.905043 1_555
Na6 O100 2.368142 1_555
Na6 O98 2.460660 1_555
Na6 O142 2.504012 1_555
Na6 O138 2.546307 1_555
Na6 O28 2.562161 1_555
Na6 O70 2.735779 1_555
Na6 O8 2.880236 1_555
Na6 O12 2.897826 1_555
Na7 O101 2.366998 1_555
Na7 O99 2.460765 1_555
Na7 O143 2.502848 1_555
Na7 O139 2.541686 1_555
Na7 O29 2.562994 1_555
Na7 O71 2.730198 1_555
Na7 O9 2.878428 1_555
Na7 O13 2.899799 1_555
Na8 O97 2.366945 1_555
Na8 O101 2.461503 1_555
Na8 O138 2.501595 1_655
Na8 O140 2.545782 1_655
Na8 O25 2.547825 1_555
Na8 O66 2.743009 1_655
Na8 O11 2.901663 1_555
Na8 O14 2.913618 1_655
Na9 O96 2.363076 1_555
Na9 O100 2.459896 1_555
Na9 O139 2.505869 1_555
Na9 O141 2.547774 1_555
Na9 O24 2.561515 1_555
Na9 O67 2.745624 1_555
Na9 O10 2.901427 1_555
Na9 O15 2.914543 1_555
Na10 O98 2.369439 1_555
Na10 O96 2.451006 1_555
Na10 O140 2.499105 1_545
Na10 O26 2.533138 1_555
Na10 O142 2.536723 1_545
Na10 O68 2.762396 1_545
Na10 O6 2.891949 1_555
Na10 O16 2.912583 1_545
Na11 O99 2.368675 1_555
Na11 O97 2.453786 1_555
Na11 O141 2.497566 1_545
Na11 O143 2.540167 1_545
Na11 O27 2.560658 1_555
Na11 O69 2.761620 1_545
Na11 O7 2.888034 1_555
Na11 O17 2.906966 1_545
Na12 O128 2.357304 1_555
Na12 O130 2.457760 1_555
Na12 O56 2.501822 1_555
Na12 O86 2.507317 1_555
Na12 O85 2.584053 1_455
Na12 O14 2.753923 1_555
Na12 O42 2.857521 1_555
Na12 O28 2.910796 1_555
Na13 O129 2.360255 1_555
Na13 O131 2.471017 1_555
Na13 O87 2.492432 1_555
Na13 O57 2.557441 1_555
Na13 O84 2.573975 1_555
Na13 O15 2.743764 1_555
Na13 O43 2.881110 1_555
Na13 O29 2.916399 1_555
Na14 O130 2.360059 1_555
Na14 O126 2.460026 1_555
Na14 O58 2.505136 1_555
Na14 O89 2.507207 1_455
Na14 O86 2.578036 1_565
Na14 O16 2.760041 1_555
Na14 O45 2.888742 1_455
Na14 O25 2.919844 1_455
Na15 O131 2.361548 1_555
Na15 O127 2.474088 1_555
Na15 O88 2.492043 1_555
Na15 O59 2.557947 1_555
Na15 O87 2.582322 1_565
Na15 O17 2.753453 1_555
Na15 O44 2.872787 1_555
Na15 O24 2.906422 1_555
Na16 O126 2.357343 1_555
Na16 O128 2.451768 1_555
Na16 O84 2.499239 1_565
Na16 O54 2.547177 1_555
Na16 O88 2.579319 1_555
Na16 O12 2.779087 1_555
Na16 O46 2.884772 1_565
Na16 O26 2.925347 1_565
Na17 O127 2.356136 1_555
Na17 O129 2.466790 1_555
Na17 O85 2.494319 1_565
Na17 O55 2.556933 1_555
Na17 O89 2.579266 1_555
Na17 O13 2.764714 1_555
Na17 O47 2.863922 1_565
Na17 O27 2.900622 1_565
Na18 O124 2.355324 1_555
Na18 O122 2.468912 1_555
Na18 O94 2.505980 1_565
Na18 O52 2.516957 1_554
Na18 O91 2.594557 1_455
Na18 O22 2.757666 1_555
Na18 O36 2.848756 1_565
Na18 O32 2.898297 1_565
Na19 O125 2.370529 1_555
Na19 O123 2.464219 1_555
Na19 O95 2.495134 1_565
Na19 O53 2.531342 1_554
Na19 O90 2.570185 1_555
Na19 O23 2.768268 1_555
Na19 O37 2.860686 1_565
Na19 O33 2.915095 1_565
Na20 O120 2.362378 1_555
Na20 O124 2.463259 1_555
Na20 O90 2.491344 1_555
Na20 O92 2.566787 1_565
Na20 O48 2.580403 1_554
Na20 O18 2.759428 1_555
Na20 O38 2.877143 1_555
Na20 O34 2.915454 1_555
Na21 O121 2.346177 1_555
Na21 O125 2.462512 1_555
Na21 O91 2.499264 1_555
Na21 O49 2.562368 1_554
Na21 O93 2.580901 1_565
Na21 O19 2.773756 1_555
Na21 O39 2.866642 1_555
Na21 O35 2.900281 1_555
Na22 O122 2.357208 1_555
Na22 O120 2.472318 1_555
Na22 O93 2.501370 1_455
Na22 O50 2.516818 1_554
Na22 O94 2.586207 1_555
Na22 O20 2.768173 1_555
Na22 O41 2.877264 1_455
Na22 O31 2.920736 1_455
Na23 O123 2.365775 1_555
Na23 O121 2.478984 1_555
Na23 O92 2.490579 1_555
Na23 O51 2.538050 1_554
Na23 O95 2.580351 1_555
Na23 O21 2.772032 1_555
Na23 O40 2.885829 1_555
Na23 O30 2.911884 1_555
Na24 O112 2.356940 1_555
Na24 O82 2.380310 1_545
Na24 O110 2.495915 1_555
Na24 O79 2.512340 1_555
Na24 O40 2.624476 1_556
Na24 O10 2.745382 1_555
Na24 O48 2.842562 1_545
Na24 O68 2.914095 1_545
Na25 O113 2.355778 1_555
Na25 O83 2.381058 1_545
Na25 O111 2.497112 1_555
Na25 O78 2.513383 1_655
Na25 O41 2.621653 1_556
Na25 O11 2.745510 1_555
Na25 O49 2.842678 1_545
Na25 O69 2.910259 1_545
Na26 O77 2.365043 1_555
Na26 O74 2.467643 1_545
Na26 O118 2.490540 1_555
Na26 O114 2.504294 1_555
Na26 O4 2.582691 1_555
Na26 O46 2.747810 1_555
Na26 O61 2.907795 1_555
Na26 O57 2.918658 1_555
Na27 O73 2.353237 1_545
Na27 O77 2.452507 1_555
Na27 O115 2.456219 1_555
Na27 O117 2.552202 1_555
Na27 O1 2.572379 1_555
Na27 O43 2.754861 1_555
Na27 O59 2.910285 1_545
Na27 O63 2.938285 1_545
Na28 O74 2.349970 1_555
Na28 O116 2.446201 1_555
Na28 O73 2.458568 1_555
Na28 O118 2.569220 1_555
Na28 O2 2.580905 1_555
Na28 O44 2.748748 1_555
Na28 O54 2.897781 1_555
Na28 O64 2.938729 1_555
Na29 O75 2.385132 1_555
Na29 O117 2.399699 1_555
Na29 O119 2.514224 1_555
Na29 O72 2.517210 1_655
Na29 O45 2.666483 1_555
Na29 O3 2.709615 1_555
Na29 O65 2.850345 1_555
Na29 O55 2.866988 1_555
Na30 O76 2.446742 1_555
Na30 O72 2.510459 1_545
Na30 O75 2.529617 1_445
Na30 O86 2.559981 1_555
Na30 O85 2.566432 1_455
Na30 O89 2.618594 1_445
Na31 O73 2.414738 1_555
Na31 O74 2.415363 1_555
Na31 O77 2.416128 1_565
Na31 O88 2.643304 1_555
Na31 O84 2.645845 1_565
Na31 O87 2.656879 1_565
Na32 O80 2.462357 1_555
Na32 O78 2.525230 1_565
Na32 O94 2.552584 1_566
Na32 O83 2.553622 1_455
Na32 O91 2.560130 1_456
Na32 O93 2.609722 1_466
Na33 O81 2.479809 1_555
Na33 O95 2.535609 1_566
Na33 O90 2.537459 1_556
Na33 O79 2.540892 1_565
Na33 O82 2.569354 1_555
Na33 O92 2.593097 1_566
Na34 O100 2.493239 1_555
Na34 O108 2.500221 1_555
Na34 O98 2.500718 1_555
Na34 O96 2.543886 1_555
Na34 O110 2.560871 1_555
Na34 O112 2.570463 1_555
Na35 O101 2.491615 1_555
Na35 O99 2.500964 1_555
Na35 O109 2.501662 1_555
Na35 O97 2.543992 1_555
Na35 O111 2.562944 1_555
Na35 O113 2.572646 1_555
Na36 O106 2.428729 1_555
Na36 O104 2.465559 1_555
Na36 O102 2.474507 1_555
Na36 O114 2.585827 1_555
Na36 O116 2.606810 1_555
Na36 O118 2.626736 1_555
Na37 O105 2.424757 1_555
Na37 O103 2.470125 1_555
Na37 O107 2.473587 1_555
Na37 O115 2.584693 1_555
Na37 O119 2.595830 1_555
Na37 O117 2.627062 1_555
Na38 O124 2.409017 1_555
Na38 O122 2.424790 1_555
Na38 O120 2.424844 1_555
Na38 O132 2.610216 1_555
Na38 O136 2.624107 1_555
Na38 O134 2.624420 1_555
Na39 O123 2.407847 1_555
Na39 O125 2.415024 1_555
Na39 O121 2.428361 1_555
Na39 O135 2.630161 1_555
Na39 O137 2.633845 1_555
Na39 O133 2.639075 1_555
Na40 O130 2.417010 1_555
Na40 O128 2.417027 1_555
Na40 O126 2.423925 1_555
Na40 O142 2.599889 1_555
Na40 O138 2.602958 1_555
Na40 O140 2.613349 1_555
Na41 O129 2.429529 1_555
Na41 O131 2.435737 1_555
Na41 O127 2.437730 1_555
Na41 O143 2.597313 1_555
Na41 O139 2.600642 1_555
Na41 O141 2.606070 1_555
Al0 O2 1.893460 1_555
Al0 O4 1.893487 1_565
Al0 O1 1.901558 1_565
Al0 O74 2.010936 1_555
Al0 O77 2.020803 1_565
Al0 O73 2.023996 1_555
Al1 O24 1.889610 1_555
Al1 O28 1.889914 1_555
Al1 O26 1.890462 1_555
Al1 O98 2.010930 1_555
Al1 O100 2.011317 1_555
Al1 O96 2.013469 1_555
Al2 O25 1.886846 1_555
Al2 O27 1.890991 1_555
Al2 O29 1.893215 1_555
Al2 O99 2.007675 1_555
Al2 O97 2.011706 1_555
Al2 O101 2.012071 1_555
Al3 O30 1.877127 1_555
Al3 O32 1.894697 1_555
Al3 O34 1.900168 1_555
Al3 O106 2.023302 1_555
Al3 O104 2.026087 1_555
Al3 O102 2.026476 1_555
Al4 O35 1.882533 1_555
Al4 O33 1.884118 1_555
Al4 O31 1.896174 1_555
Al4 O107 2.015132 1_555
Al4 O103 2.025315 1_555
Al4 O105 2.037230 1_555
Al5 O50 1.885604 1_554
Al5 O52 1.886101 1_554
Al5 O48 1.905137 1_554
Al5 O122 2.013133 1_555
Al5 O120 2.014233 1_555
Al5 O124 2.015634 1_555
Al6 O51 1.882107 1_554
Al6 O53 1.886002 1_554
Al6 O49 1.910348 1_554
Al6 O123 2.003897 1_555
Al6 O121 2.010956 1_555
Al6 O125 2.021535 1_555
Al7 O56 1.878831 1_555
Al7 O58 1.881420 1_555
Al7 O54 1.891595 1_555
Al7 O126 2.017395 1_555
Al7 O130 2.028251 1_555
Al7 O128 2.030511 1_555
Al8 O59 1.893409 1_555
Al8 O57 1.893978 1_555
Al8 O55 1.899487 1_555
Al8 O131 2.002069 1_555
Al8 O127 2.020553 1_555
Al8 O129 2.028075 1_555
O0 Si0 1.645984 1_555
O0 Ta0 1.941127 1_555
O1 Si1 1.612476 1_555
O2 Si2 1.611867 1_555
O3 Si3 1.643109 1_555
O3 Ta0 2.010492 1_665
O4 Si5 1.611449 1_555
O5 Si4 1.643468 1_555
O5 Ta0 1.955601 1_655
O6 Si6 1.636676 1_555
O6 Ta1 1.962296 1_555
O7 Si7 1.635572 1_555
O7 Ta2 1.965234 1_545
O8 Si9 1.635601 1_555
O8 Ta2 1.969409 1_555
O9 Si8 1.636010 1_555
O9 Ta1 1.968959 1_665
O10 Si10 1.636666 1_555
O10 Ta2 2.022548 1_545
O11 Si11 1.635295 1_555
O11 Ta1 2.023266 1_655
O12 Si10 1.655833 1_565
O12 Ta4 1.963444 1_555
O13 Si11 1.655796 1_565
O13 Ta3 1.961971 1_655
O14 Si6 1.656016 1_555
O14 Ta3 1.958376 1_545
O15 Si7 1.654576 1_555
O15 Ta4 1.963588 1_545
O16 Si8 1.657465 1_455
O16 Ta3 1.957814 1_555
O17 Si9 1.657043 1_555
O17 Ta4 1.962670 1_555
O18 Si2 1.667652 1_555
O18 Ta6 1.952515 1_565
O19 Si3 1.650187 1_555
O19 Ta5 1.965900 1_665
O20 Si4 1.652722 1_455
O20 Ta5 1.961197 1_555
O21 Si5 1.667082 1_555
O21 Ta6 1.952501 1_555
O22 Si0 1.652120 1_565
O22 Ta5 1.964245 1_565
O23 Si1 1.665142 1_565
O23 Ta6 1.957061 1_565
O24 Si12 1.614829 1_555
O25 Si13 1.615916 1_555
O26 Si14 1.615975 1_555
O27 Si15 1.615263 1_555
O28 Si16 1.616306 1_555
O29 Si17 1.614494 1_555
O30 Si18 1.616164 1_555
O31 Si19 1.617602 1_555
O32 Si20 1.617781 1_555
O33 Si21 1.616086 1_555
O34 Si22 1.616199 1_555
O35 Si23 1.619026 1_555
O36 Si22 1.653612 1_555
O36 Ta7 1.944880 1_554
O37 Si23 1.656031 1_555
O37 Ta8 1.941446 1_554
O38 Si18 1.656858 1_555
O38 Ta7 1.936966 1_554
O39 Si19 1.654885 1_555
O39 Ta8 1.940949 1_554
O40 Si20 1.657548 1_555
O40 Ta7 1.996307 1_554
O41 Si21 1.654727 1_555
O41 Ta8 2.000759 1_554
O42 Si14 1.655258 1_555
O42 Ta9 1.927721 1_555
O43 Si15 1.656374 1_555
O43 Ta10 1.981005 1_555
O44 Si16 1.656043 1_555
O44 Ta9 1.983081 1_555
O45 Si17 1.657962 1_555
O45 Ta10 1.976093 1_555
O46 Si12 1.653340 1_555
O46 Ta9 1.985656 1_555
O47 Si13 1.659894 1_555
O47 Ta10 1.924306 1_555
O48 Si24 1.595915 1_555
O49 Si25 1.595025 1_555
O50 Si26 1.584540 1_555
O51 Si27 1.582608 1_555
O52 Si28 1.586171 1_555
O53 Si29 1.584478 1_555
O54 Si30 1.610290 1_555
O55 Si31 1.606641 1_555
O56 Si32 1.593258 1_555
O57 Si33 1.612677 1_555
O58 Si34 1.592328 1_555
O59 Si35 1.613576 1_555
O60 Si34 1.652872 1_555
O60 Ta11 1.938974 1_555
O61 Si35 1.674385 1_555
O61 Ta12 1.934444 1_555
O62 Si30 1.667107 1_555
O62 Ta11 1.920267 1_555
O63 Si31 1.658994 1_555
O63 Ta12 1.959718 1_555
O64 Si32 1.662375 1_555
O64 Ta11 1.940079 1_555
O65 Si33 1.673919 1_555
O65 Ta12 1.951179 1_555
O66 Si26 1.669716 1_555
O66 Ta13 1.914829 1_555
O67 Si27 1.671369 1_555
O67 Ta14 1.911631 1_555
O68 Si28 1.676410 1_555
O68 Ta13 1.928338 1_555
O69 Si29 1.678068 1_555
O69 Ta14 1.928095 1_555
O70 Si24 1.669908 1_555
O70 Ta13 1.919501 1_555
O71 Si25 1.669288 1_555
O71 Ta14 1.921134 1_555
O72 Si34 1.657759 1_555
O72 Ta0 2.014082 1_565
O73 Si35 1.620638 1_555
O74 Si30 1.631124 1_555
O75 Si31 1.641460 1_555
O75 Ta0 2.033811 1_665
O76 Si32 1.643372 1_555
O76 Ta0 1.968625 1_555
O77 Si33 1.619799 1_555
O78 Si26 1.665206 1_555
O78 Ta1 1.997645 1_555
O79 Si27 1.664409 1_555
O79 Ta2 1.996310 1_545
O80 Si28 1.647106 1_555
O80 Ta1 1.957838 1_565
O81 Si29 1.646460 1_555
O81 Ta2 1.958241 1_555
O82 Si24 1.661210 1_555
O82 Ta2 2.003349 1_555
O83 Si25 1.661342 1_555
O83 Ta1 2.004815 1_665
O84 Si12 1.675399 1_555
O84 Ta4 2.008913 1_545
O85 Si13 1.673271 1_555
O85 Ta3 2.011040 1_645
O86 Si14 1.672656 1_555
O86 Ta3 2.004438 1_545
O87 Si15 1.673428 1_555
O87 Ta4 2.005717 1_545
O88 Si16 1.678056 1_555
O88 Ta4 2.001137 1_555
O89 Si17 1.676137 1_555
O89 Ta3 2.009010 1_655
O90 Si18 1.673134 1_555
O90 Ta6 2.025785 1_565
O91 Si19 1.676953 1_555
O91 Ta5 2.006677 1_665
O92 Si20 1.678444 1_555
O92 Ta6 2.022186 1_555
O93 Si21 1.683060 1_555
O93 Ta5 2.002958 1_655
O94 Si22 1.677628 1_555
O94 Ta5 2.001119 1_555
O95 Si23 1.671220 1_555
O95 Ta6 2.022223 1_555
O96 Si10 1.608471 1_555
O97 Si11 1.607777 1_555
O98 Si6 1.606888 1_555
O99 Si7 1.607870 1_555
O100 Si9 1.607439 1_555
O101 Si8 1.607479 1_555
O102 Si2 1.618735 1_555
O103 Si3 1.606640 1_555
O104 Si5 1.618210 1_555
O105 Si4 1.606438 1_555
O106 Si0 1.604615 1_555
O107 Si1 1.621692 1_555
O108 Si24 1.630519 1_555
O108 Ta7 1.985941 1_555
O109 Si25 1.631577 1_555
O109 Ta8 1.983671 1_555
O110 Si27 1.650200 1_555
O110 Ta7 2.022778 1_555
O111 Si26 1.650492 1_655
O111 Ta8 2.023419 1_555
O112 Si28 1.649715 1_545
O112 Ta7 2.040360 1_555
O113 Si29 1.651618 1_545
O113 Ta8 2.036496 1_555
O114 Si30 1.659167 1_545
O114 Ta9 1.989315 1_555
O115 Si31 1.642406 1_545
O115 Ta10 2.008688 1_555
O116 Si32 1.659025 1_555
O116 Ta9 1.999244 1_555
O117 Si33 1.663139 1_555
O117 Ta10 2.054812 1_555
O118 Si35 1.657548 1_555
O118 Ta9 2.043602 1_555
O119 Si34 1.663719 1_655
O119 Ta10 1.989664 1_555
O120 Si22 1.618062 1_555
O121 Si23 1.618140 1_555
O122 Si19 1.617377 1_455
O123 Si18 1.618005 1_555
O124 Si20 1.622273 1_565
O125 Si21 1.618410 1_565
O126 Si14 1.616735 1_565
O127 Si15 1.620737 1_565
O128 Si16 1.618310 1_555
O129 Si17 1.621553 1_555
O130 Si13 1.614406 1_455
O131 Si12 1.623350 1_555
O132 Si0 1.643286 1_565
O132 Ta11 2.048540 1_555
O133 Si1 1.670175 1_565
O133 Ta12 2.025779 1_555
O134 Si2 1.668084 1_555
O134 Ta11 2.031219 1_555
O135 Si3 1.647588 1_555
O135 Ta12 2.045194 1_555
O136 Si4 1.643254 1_455
O136 Ta11 2.058285 1_555
O137 Si5 1.670847 1_555
O137 Ta12 2.013591 1_555
O138 Si6 1.642525 1_555
O138 Ta13 2.058094 1_555
O139 Si7 1.643588 1_555
O139 Ta14 2.058553 1_555
O140 Si8 1.642929 1_455
O140 Ta13 2.060585 1_555
O141 Si9 1.645040 1_555
O141 Ta14 2.058672 1_555
O142 Si10 1.646193 1_565
O142 Ta13 2.063019 1_555
O143 Si11 1.645334 1_565
O143 Ta14 2.065944 1_555
