# generated using pymatgen
data_MgMn4(FeO6)2
_symmetry_space_group_name_H-M   'P 1'
_cell_length_a   5.12019069
_cell_length_b   5.12137934
_cell_length_c   10.24712658
_cell_angle_alpha   89.63551464
_cell_angle_beta   90.71298635
_cell_angle_gamma   120.26513587
_symmetry_Int_Tables_number   1
_chemical_formula_structural   MgMn4(FeO6)2
_chemical_formula_sum   'Mg1 Mn4 Fe2 O12'
_cell_volume   232.06287880
_cell_formula_units_Z   1
loop_
 _symmetry_equiv_pos_site_id
 _symmetry_equiv_pos_as_xyz
  1  'x, y, z'
loop_
 _atom_site_type_symbol
 _atom_site_label
 _atom_site_symmetry_multiplicity
 _atom_site_fract_x
 _atom_site_fract_y
 _atom_site_fract_z
 _atom_site_occupancy
  Mg  Mg0  1  0.66513800  0.17577200  0.74983800  1
  Mn  Mn0  1  0.16754200  0.83586500  0.50097100  1
  Mn  Mn1  1  0.33468000  0.66654300  0.99877200  1
  Mn  Mn2  1  0.66637100  0.33760900  0.01107300  1
  Mn  Mn3  1  0.83836100  0.16712800  0.48997400  1
  Fe  Fe0  1  0.99797800  0.99792200  0.00697800  1
  Fe  Fe1  1  0.49857100  0.49902300  0.49198100  1
  O  O0  1  0.00944600  0.65784100  0.09651400  1
  O  O1  1  0.97787900  0.33363100  0.89971900  1
  O  O2  1  0.15568500  0.50760600  0.40363600  1
  O  O3  1  0.51343400  0.86165900  0.60181300  1
  O  O4  1  0.15746900  0.15728300  0.59633100  1
  O  O5  1  0.34282700  0.34909000  0.09693400  1
  O  O6  1  0.65382400  0.65173800  0.90368100  1
  O  O7  1  0.35792200  0.01118300  0.89855600  1
  O  O8  1  0.84784800  0.84265400  0.40318400  1
  O  O9  1  0.49269600  0.14737800  0.40206600  1
  O  O10  1  0.83587400  0.48186800  0.60016000  1
  O  O11  1  0.64895600  0.99320600  0.09781900  1
loop_
_geom_bond_atom_site_label_1
_geom_bond_atom_site_label_2
_geom_bond_distance
_geom_bond_site_symmetry_2
Mg0 O10 2.048300 1_555
Mg0 O7 2.052806 1_555
Mg0 O1 2.055780 1_555
Mg0 O3 2.057711 1_545
Mn0 O9 1.920473 1_565
Mn0 O8 1.923749 1_455
Mn0 O2 1.934341 1_555
Mn0 O4 1.942799 1_565
Mn0 O3 1.985489 1_555
Mn0 O10 2.029747 1_455
Mn1 O11 1.919806 1_556
Mn1 O5 1.924385 1_556
Mn1 O0 1.935035 1_556
Mn1 O6 1.947021 1_555
Mn1 O7 1.988047 1_565
Mn1 O1 2.027519 1_455
Mn2 O0 1.902093 1_655
Mn2 O5 1.912334 1_555
Mn2 O11 1.932003 1_545
Mn2 O6 1.970580 1_554
Mn2 O1 1.981095 1_554
Mn2 O7 1.983985 1_554
Mn3 O2 1.903540 1_655
Mn3 O8 1.912060 1_545
Mn3 O9 1.932654 1_555
Mn3 O4 1.974324 1_655
Mn3 O10 1.979253 1_555
Mn3 O3 1.982361 1_545
Fe0 O0 1.990002 1_655
Fe0 O5 1.995363 1_665
Fe0 O11 2.014515 1_555
Fe0 O6 2.048692 1_554
Fe0 O1 2.079920 1_564
Fe0 O7 2.135270 1_664
Fe1 O2 1.985315 1_555
Fe1 O8 1.992729 1_555
Fe1 O9 2.014674 1_555
Fe1 O4 2.048974 1_555
Fe1 O10 2.079262 1_555
Fe1 O3 2.145607 1_555
