# generated using pymatgen
data_NaInGeP2SO12
_symmetry_space_group_name_H-M   'P 1'
_cell_length_a   8.61502820
_cell_length_b   8.68279132
_cell_length_c   22.43371145
_cell_angle_alpha   88.93021928
_cell_angle_beta   90.00000000
_cell_angle_gamma   119.74216985
_symmetry_Int_Tables_number   1
_chemical_formula_structural   NaInGeP2SO12
_chemical_formula_sum   'Na6 In6 Ge6 P12 S6 O72'
_cell_volume   1456.69918268
_cell_formula_units_Z   6
loop_
 _symmetry_equiv_pos_site_id
 _symmetry_equiv_pos_as_xyz
  1  'x, y, z'
loop_
 _atom_site_type_symbol
 _atom_site_label
 _atom_site_symmetry_multiplicity
 _atom_site_fract_x
 _atom_site_fract_y
 _atom_site_fract_z
 _atom_site_occupancy
  Na  Na0  1  0.98202803  0.99154991  0.50096047  1
  Na  Na1  1  0.00952188  0.99154991  0.00096047  1
  Na  Na2  1  0.64869503  0.32488291  0.83429347  1
  Na  Na3  1  0.67618888  0.32488291  0.33429347  1
  Na  Na4  1  0.31536103  0.65821691  0.16762747  1
  Na  Na5  1  0.34285488  0.65821691  0.66762747  1
  In  In0  1  0.99425171  0.00359600  0.64626715  1
  In  In1  1  0.00934429  0.00359600  0.14626715  1
  In  In2  1  0.66091871  0.33692900  0.97960015  1
  In  In3  1  0.67601129  0.33692900  0.47960015  1
  In  In4  1  0.32758471  0.67026300  0.31293415  1
  In  In5  1  0.34267729  0.67026300  0.81293415  1
  Ge  Ge0  1  0.00332001  0.00509499  0.35297244  1
  Ge  Ge1  1  0.00177498  0.00509499  0.85297244  1
  Ge  Ge2  1  0.66998701  0.33842799  0.68630544  1
  Ge  Ge3  1  0.66844198  0.33842799  0.18630544  1
  Ge  Ge4  1  0.33665301  0.67176199  0.01963944  1
  Ge  Ge5  1  0.33510798  0.67176199  0.51963944  1
  P  P0  1  0.30231846  0.01711234  0.24950984  1
  P  P1  1  0.98735390  0.28410680  0.24940482  1
  P  P2  1  0.29675289  0.28410680  0.74940482  1
  P  P3  1  0.71479388  0.01711234  0.74950984  1
  P  P4  1  0.96898546  0.35044534  0.58284284  1
  P  P5  1  0.65402090  0.61743980  0.58273782  1
  P  P6  1  0.96341989  0.61743980  0.08273782  1
  P  P7  1  0.38146088  0.35044534  0.08284284  1
  P  P8  1  0.63565146  0.68377934  0.91617684  1
  P  P9  1  0.32068690  0.95077380  0.91607182  1
  P  P10  1  0.63008589  0.95077380  0.41607182  1
  P  P11  1  0.04812688  0.68377934  0.41617684  1
  S  S0  1  0.71378509  0.70004569  0.25060398  1
  S  S1  1  0.98626060  0.70004569  0.75060398  1
  S  S2  1  0.38045209  0.03337869  0.58393698  1
  S  S3  1  0.65292760  0.03337869  0.08393698  1
  S  S4  1  0.04711809  0.36671269  0.91727098  1
  S  S5  1  0.31959360  0.36671269  0.41727098  1
  O  O0  1  0.20862210  0.04236660  0.30631193  1
  O  O1  1  0.82262612  0.78364326  0.30452611  1
  O  O2  1  0.95583537  0.16401472  0.30765083  1
  O  O3  1  0.20817935  0.16401472  0.80765083  1
  O  O4  1  0.96101714  0.78364326  0.80452611  1
  O  O5  1  0.83374451  0.04236660  0.80631193  1
  O  O6  1  0.78181383  0.97584014  0.69364979  1
  O  O7  1  0.19392963  0.20616292  0.69338355  1
  O  O8  1  0.02052492  0.80366595  0.69524405  1
  O  O9  1  0.78314103  0.80366595  0.19524405  1
  O  O10  1  0.01223329  0.20616292  0.19338355  1
  O  O11  1  0.19402631  0.97584014  0.19364979  1
  O  O12  1  0.87528910  0.37569960  0.63964493  1
  O  O13  1  0.48929312  0.11697626  0.63785911  1
  O  O14  1  0.62250237  0.49734772  0.64098383  1
  O  O15  1  0.87484635  0.49734772  0.14098383  1
  O  O16  1  0.62768414  0.11697626  0.13785911  1
  O  O17  1  0.50041151  0.37569960  0.13964493  1
  O  O18  1  0.44848083  0.30917314  0.02698279  1
  O  O19  1  0.86059663  0.53949592  0.02671655  1
  O  O20  1  0.68719192  0.13699895  0.02857705  1
  O  O21  1  0.44980803  0.13699895  0.52857705  1
  O  O22  1  0.67890029  0.53949592  0.52671655  1
  O  O23  1  0.86069331  0.30917314  0.52698279  1
  O  O24  1  0.54195510  0.70903360  0.97297893  1
  O  O25  1  0.15595912  0.45031026  0.97119311  1
  O  O26  1  0.28916837  0.83068172  0.97431783  1
  O  O27  1  0.54151235  0.83068172  0.47431783  1
  O  O28  1  0.29435014  0.45031026  0.47119311  1
  O  O29  1  0.16707751  0.70903360  0.47297893  1
  O  O30  1  0.11514683  0.64250714  0.36031679  1
  O  O31  1  0.52726263  0.87282992  0.36005055  1
  O  O32  1  0.35385792  0.47033295  0.36191105  1
  O  O33  1  0.11647403  0.47033295  0.86191105  1
  O  O34  1  0.34556629  0.87282992  0.86005055  1
  O  O35  1  0.52735931  0.64250714  0.86031679  1
  O  O36  1  0.04967596  0.86623732  0.40992237  1
  O  O37  1  0.81865997  0.96200241  0.41118063  1
  O  O38  1  0.14714743  0.19312255  0.41322489  1
  O  O39  1  0.04597512  0.19312255  0.91322489  1
  O  O40  1  0.14334244  0.96200241  0.91118063  1
  O  O41  1  0.81656136  0.86623732  0.90992237  1
  O  O42  1  0.01347936  0.20063440  0.58791326  1
  O  O43  1  0.19449163  -0.00288346  0.58924144  1
  O  O44  1  0.81624056  0.80368746  0.58803244  1
  O  O45  1  0.98744690  0.80368746  0.08803244  1
  O  O46  1  0.80262490  -0.00288346  0.08924144  1
  O  O47  1  0.18715504  0.20063440  0.08791326  1
  O  O48  1  0.71634296  0.19957032  0.74325537  1
  O  O49  1  0.48532697  0.29533541  0.74451363  1
  O  O50  1  0.81381443  0.52645555  0.74655789  1
  O  O51  1  0.71264212  0.52645555  0.24655789  1
  O  O52  1  0.81000944  0.29533541  0.24451363  1
  O  O53  1  0.48322836  0.19957032  0.24325537  1
  O  O54  1  0.68014636  0.53396740  0.92124626  1
  O  O55  1  0.86115863  0.33044954  0.92257444  1
  O  O56  1  0.48290756  0.13702046  0.92136544  1
  O  O57  1  0.65411390  0.13702046  0.42136544  1
  O  O58  1  0.46929190  0.33044954  0.42257444  1
  O  O59  1  0.85382204  0.53396740  0.42124626  1
  O  O60  1  0.38300896  0.53290432  0.07658937  1
  O  O61  1  0.15199297  0.62866941  0.07784763  1
  O  O62  1  0.48048043  0.85978955  0.07989189  1
  O  O63  1  0.37930812  0.85978955  0.57989189  1
  O  O64  1  0.47667544  0.62866941  0.57784763  1
  O  O65  1  0.14989436  0.53290432  0.57658937  1
  O  O66  1  0.34681236  0.86730140  0.25458026  1
  O  O67  1  0.52782463  0.66378354  0.25590844  1
  O  O68  1  0.14957356  0.47035446  0.25469944  1
  O  O69  1  0.32077990  0.47035446  0.75469944  1
  O  O70  1  0.13595790  0.66378354  0.75590844  1
  O  O71  1  0.52048804  0.86730140  0.75458026  1
loop_
_geom_bond_atom_site_label_1
_geom_bond_atom_site_label_2
_geom_bond_distance
_geom_bond_site_symmetry_2
Na0 O37 2.400888 1_555
Na0 O44 2.466918 1_555
Na0 O38 2.522267 1_665
Na0 O36 2.531155 1_655
Na0 O42 2.611231 1_665
Na0 O43 2.681545 1_665
Na1 O40 2.400888 1_554
Na1 O45 2.466918 1_455
Na1 O39 2.522267 1_564
Na1 O41 2.531155 1_454
Na1 O47 2.611231 1_565
Na1 O46 2.681545 1_465
Na2 O49 2.400888 1_555
Na2 O56 2.466918 1_555
Na2 O50 2.522267 1_555
Na2 O48 2.531155 1_555
Na2 O54 2.611231 1_555
Na2 O55 2.681545 1_555
Na3 O52 2.400888 1_555
Na3 O57 2.466918 1_555
Na3 O51 2.522267 1_555
Na3 O53 2.531155 1_555
Na3 O59 2.611231 1_555
Na3 O58 2.681545 1_555
Na4 O61 2.400888 1_555
Na4 O68 2.466918 1_555
Na4 O62 2.522267 1_555
Na4 O60 2.531155 1_555
Na4 O66 2.611231 1_555
Na4 O67 2.681545 1_555
Na5 O64 2.400888 1_555
Na5 O69 2.466918 1_555
Na5 O63 2.522267 1_555
Na5 O65 2.531155 1_555
Na5 O71 2.611231 1_555
Na5 O70 2.681545 1_555
In0 O6 2.022442 1_545
In0 O7 2.058491 1_655
In0 O42 2.074449 1_655
In0 O44 2.124849 1_545
In0 O8 2.142571 1_645
In0 O43 2.171319 1_655
In1 O11 2.022442 1_545
In1 O10 2.058491 1_555
In1 O47 2.074449 1_555
In1 O45 2.124849 1_445
In1 O9 2.142571 1_445
In1 O46 2.171319 1_455
In2 O18 2.022442 1_556
In2 O19 2.058491 1_556
In2 O54 2.074449 1_555
In2 O56 2.124849 1_555
In2 O20 2.142571 1_556
In2 O55 2.171319 1_555
In3 O23 2.022442 1_555
In3 O22 2.058491 1_555
In3 O59 2.074449 1_555
In3 O57 2.124849 1_555
In3 O21 2.142571 1_555
In3 O58 2.171319 1_555
In4 O30 2.022442 1_555
In4 O31 2.058491 1_555
In4 O66 2.074449 1_555
In4 O68 2.124849 1_555
In4 O32 2.142571 1_555
In4 O67 2.171319 1_555
In5 O35 2.022442 1_555
In5 O34 2.058491 1_555
In5 O71 2.074449 1_555
In5 O69 2.124849 1_555
In5 O33 2.142571 1_555
In5 O70 2.171319 1_555
Ge0 O2 1.900739 1_455
Ge0 O36 1.914578 1_545
Ge0 O0 1.936009 1_555
Ge0 O37 1.940915 1_445
Ge0 O38 2.025594 1_555
Ge0 O1 2.099969 1_445
Ge1 O3 1.900739 1_555
Ge1 O41 1.914578 1_445
Ge1 O5 1.936009 1_455
Ge1 O40 1.940915 1_545
Ge1 O39 2.025594 1_555
Ge1 O4 2.099969 1_445
Ge2 O14 1.900739 1_555
Ge2 O48 1.914578 1_555
Ge2 O12 1.936009 1_555
Ge2 O49 1.940915 1_555
Ge2 O50 2.025594 1_555
Ge2 O13 2.099969 1_555
Ge3 O15 1.900739 1_555
Ge3 O53 1.914578 1_555
Ge3 O17 1.936009 1_555
Ge3 O52 1.940915 1_555
Ge3 O51 2.025594 1_555
Ge3 O16 2.099969 1_555
Ge4 O26 1.900739 1_554
Ge4 O60 1.914578 1_555
Ge4 O24 1.936009 1_554
Ge4 O61 1.940915 1_555
Ge4 O62 2.025594 1_555
Ge4 O25 2.099969 1_554
Ge5 O27 1.900739 1_555
Ge5 O65 1.914578 1_555
Ge5 O29 1.936009 1_555
Ge5 O64 1.940915 1_555
Ge5 O63 2.025594 1_555
Ge5 O28 2.099969 1_555
O0 P0 1.584139 1_555
O1 S0 1.492276 1_555
O2 P1 1.592677 1_555
O3 P2 1.592677 1_555
O4 S1 1.492276 1_555
O5 P3 1.584139 1_555
O6 P3 1.501409 1_565
O7 P2 1.503030 1_555
O8 S1 1.460743 1_455
O9 S0 1.460743 1_555
O10 P1 1.503031 1_455
O11 P0 1.501409 1_565
O12 P4 1.584139 1_555
O13 S2 1.492276 1_555
O14 P5 1.592677 1_555
O15 P6 1.592677 1_555
O16 S3 1.492276 1_555
O17 P7 1.584139 1_555
O18 P7 1.501409 1_555
O19 P6 1.503030 1_555
O20 S3 1.460743 1_555
O21 S2 1.460743 1_555
O22 P5 1.503031 1_555
O23 P4 1.501409 1_555
O24 P8 1.584139 1_555
O25 S4 1.492276 1_555
O26 P9 1.592677 1_555
O27 P10 1.592677 1_555
O28 S5 1.492276 1_555
O29 P11 1.584139 1_555
O30 P11 1.501409 1_555
O31 P10 1.503030 1_555
O32 S5 1.460743 1_555
O33 S4 1.460743 1_555
O34 P9 1.503031 1_555
O35 P8 1.501409 1_555
O36 P11 1.581271 1_555
O37 P10 1.582158 1_555
O38 S5 1.506818 1_555
O39 S4 1.506822 1_555
O40 P9 1.582150 1_555
O41 P8 1.581275 1_555
O42 P4 1.530060 1_455
O43 S2 1.475803 1_555
O44 P5 1.532045 1_555
O45 P6 1.532049 1_555
O46 S3 1.475794 1_555
O47 P7 1.530066 1_555
O48 P3 1.581271 1_555
O49 P2 1.582158 1_555
O50 S1 1.506818 1_555
O51 S0 1.506822 1_555
O52 P1 1.582150 1_555
O53 P0 1.581275 1_555
O54 P8 1.530073 1_555
O55 S4 1.475790 1_655
O56 P9 1.532041 1_545
O57 P10 1.532034 1_545
O58 S5 1.475807 1_555
O59 P11 1.530061 1_655
O60 P7 1.581282 1_555
O61 P6 1.582144 1_455
O62 S3 1.506816 1_565
O63 S2 1.506807 1_565
O64 P5 1.582161 1_555
O65 P4 1.581274 1_455
O66 P0 1.530060 1_565
O67 S0 1.475803 1_555
O68 P1 1.532045 1_455
O69 P2 1.532049 1_555
O70 S1 1.475794 1_455
O71 P3 1.530066 1_565
