# generated using pymatgen
data_Li3V2(GeO5)2
_symmetry_space_group_name_H-M   'P 1'
_cell_length_a   6.56067951
_cell_length_b   6.56067951
_cell_length_c   9.28027800
_cell_angle_alpha   90.00000000
_cell_angle_beta   90.00000000
_cell_angle_gamma   90.28119923
_symmetry_Int_Tables_number   1
_chemical_formula_structural   Li3V2(GeO5)2
_chemical_formula_sum   'Li6 V4 Ge4 O20'
_cell_volume   399.44169966
_cell_formula_units_Z   2
loop_
 _symmetry_equiv_pos_site_id
 _symmetry_equiv_pos_as_xyz
  1  'x, y, z'
loop_
 _atom_site_type_symbol
 _atom_site_label
 _atom_site_symmetry_multiplicity
 _atom_site_fract_x
 _atom_site_fract_y
 _atom_site_fract_z
 _atom_site_occupancy
  Li  Li0  1  0.00000000  0.00000000  0.00000000  1
  Li  Li1  1  0.00000000  0.50000000  0.50000000  1
  Li  Li2  1  0.00000000  0.50000000  0.00000000  1
  Li  Li3  1  0.50000000  0.50000000  0.50000000  1
  Li  Li4  1  0.50000000  0.00000000  0.50000000  1
  Li  Li5  1  0.50000000  0.00000000  0.00000000  1
  V  V0  1  0.75827200  0.24172800  0.30280100  1
  V  V1  1  0.74172800  0.25827200  0.80280100  1
  V  V2  1  0.24172800  0.75827200  0.69719900  1
  V  V3  1  0.25827200  0.74172800  0.19719900  1
  Ge  Ge0  1  0.75091000  0.74909000  0.25000000  1
  Ge  Ge1  1  0.74909000  0.75091000  0.75000000  1
  Ge  Ge2  1  0.24909000  0.25091000  0.75000000  1
  Ge  Ge3  1  0.25091000  0.24909000  0.25000000  1
  O  O0  1  0.03346300  0.24772000  0.86445400  1
  O  O1  1  0.26848500  0.73151500  0.37557900  1
  O  O2  1  0.23151500  0.76848500  0.87557900  1
  O  O3  1  0.73882900  0.96564500  0.36385600  1
  O  O4  1  0.24772000  0.03346300  0.13554600  1
  O  O5  1  0.26117100  0.03435500  0.63614400  1
  O  O6  1  0.76848500  0.23151500  0.12442100  1
  O  O7  1  0.73151500  0.26848500  0.62442100  1
  O  O8  1  0.53346300  0.74772000  0.63554600  1
  O  O9  1  0.46653700  0.25228000  0.36445400  1
  O  O10  1  0.03435500  0.26117100  0.36385600  1
  O  O11  1  0.46564500  0.23882900  0.86385600  1
  O  O12  1  0.23882900  0.46564500  0.13614400  1
  O  O13  1  0.25228000  0.46653700  0.63554600  1
  O  O14  1  0.76117100  0.53435500  0.86385600  1
  O  O15  1  0.74772000  0.53346300  0.36445400  1
  O  O16  1  0.96653700  0.75228000  0.13554600  1
  O  O17  1  0.96564500  0.73882900  0.63614400  1
  O  O18  1  0.53435500  0.76117100  0.13614400  1
  O  O19  1  0.75228000  0.96653700  0.86445400  1
loop_
_geom_bond_atom_site_label_1
_geom_bond_atom_site_label_2
_geom_bond_distance
_geom_bond_site_symmetry_2
Li0 O4 2.065994 1_555
Li0 O0 2.065994 1_554
Li0 O16 2.065994 1_445
Li0 O19 2.065994 1_444
Li0 O6 2.443354 1_455
Li0 O2 2.443354 1_544
Li1 O10 2.026252 1_555
Li1 O17 2.026252 1_455
Li1 O15 2.091301 1_455
Li1 O13 2.091301 1_555
Li1 O7 2.591662 1_455
Li1 O1 2.591662 1_555
Li2 O14 2.026252 1_454
Li2 O12 2.026252 1_555
Li2 O16 2.091301 1_455
Li2 O0 2.091301 1_554
Li2 O6 2.591662 1_455
Li2 O2 2.591662 1_554
Li3 O9 2.065994 1_555
Li3 O13 2.065994 1_555
Li3 O15 2.065994 1_555
Li3 O8 2.065994 1_555
Li3 O7 2.443354 1_555
Li3 O1 2.443354 1_555
Li4 O3 2.026252 1_545
Li4 O5 2.026252 1_555
Li4 O9 2.091301 1_555
Li4 O8 2.091301 1_545
Li4 O7 2.591662 1_555
Li4 O1 2.591662 1_545
Li5 O18 2.026252 1_545
Li5 O11 2.026252 1_554
Li5 O4 2.091301 1_555
Li5 O19 2.091301 1_544
Li5 O6 2.591662 1_555
Li5 O2 2.591662 1_544
Ge0 O16 1.769069 1_555
Ge0 O15 1.769069 1_555
Ge0 O18 1.772667 1_555
Ge0 O3 1.772667 1_555
Ge1 O8 1.769069 1_555
Ge1 O19 1.769069 1_555
Ge1 O17 1.772667 1_555
Ge1 O14 1.772667 1_555
Ge2 O13 1.769069 1_555
Ge2 O0 1.769069 1_555
Ge2 O11 1.772667 1_555
Ge2 O5 1.772667 1_555
Ge3 O9 1.769069 1_555
Ge3 O4 1.769069 1_555
Ge3 O12 1.772667 1_555
Ge3 O10 1.772667 1_555
O0 V1 1.999194 1_455
O1 V3 1.658139 1_555
O2 V2 1.658139 1_555
O3 V0 1.901533 1_565
O4 V3 1.999194 1_545
O5 V2 1.901533 1_545
O6 V0 1.658139 1_555
O7 V1 1.658139 1_555
O8 V2 1.999194 1_555
O9 V0 1.999194 1_555
O10 V0 1.901533 1_455
O11 V1 1.901533 1_555
O12 V3 1.901533 1_555
O13 V2 1.999194 1_555
O14 V1 1.901533 1_555
O15 V0 1.999194 1_555
O16 V3 1.999194 1_655
O17 V2 1.901533 1_655
O18 V3 1.901533 1_555
O19 V1 1.999194 1_565
