# generated using pymatgen
data_Na8Mg(NiO4)2
_symmetry_space_group_name_H-M   'P 1'
_cell_length_a   9.03435749
_cell_length_b   5.78970323
_cell_length_c   5.73160816
_cell_angle_alpha   70.76055882
_cell_angle_beta   109.94910625
_cell_angle_gamma   100.81184767
_symmetry_Int_Tables_number   1
_chemical_formula_structural   Na8Mg(NiO4)2
_chemical_formula_sum   'Na8 Mg1 Ni2 O8'
_cell_volume   265.11486035
_cell_formula_units_Z   1
loop_
 _symmetry_equiv_pos_site_id
 _symmetry_equiv_pos_as_xyz
  1  'x, y, z'
loop_
 _atom_site_type_symbol
 _atom_site_label
 _atom_site_symmetry_multiplicity
 _atom_site_fract_x
 _atom_site_fract_y
 _atom_site_fract_z
 _atom_site_occupancy
  Na  Na0  1  0.13561281  0.06693218  0.56365020  1
  Na  Na1  1  0.16547155  0.56512745  0.08056102  1
  Na  Na2  1  0.29954628  0.57155222  0.67474233  1
  Na  Na3  1  0.32958244  0.08013431  0.16440645  1
  Na  Na4  1  0.52907875  0.08474420  0.71660599  1
  Na  Na5  1  0.80540710  0.42367942  0.82227549  1
  Na  Na6  1  0.75039463  0.01638711  0.43482718  1
  Na  Na7  1  0.95287073  0.58708101  0.48365914  1
  Mg  Mg0  1  0.64895550  0.69979926  0.03176465  1
  Ni  Ni0  1  0.50226647  0.56342687  0.38803254  1
  Ni  Ni1  1  0.99154795  0.98159008  0.98886752  1
  O  O0  1  0.09457960  0.28014238  0.83476244  1
  O  O1  1  0.13347648  0.82207160  0.30465344  1
  O  O2  1  0.44586020  0.79019376  0.05333280  1
  O  O3  1  0.34369379  0.32543829  0.43963595  1
  O  O4  1  0.57567940  0.69356020  0.66755661  1
  O  O5  1  0.67797471  0.42897430  0.36229589  1
  O  O6  1  0.95676242  0.79194015  0.76793521  1
  O  O7  1  0.79493719  0.00445121  0.04080815  1
loop_
_geom_bond_atom_site_label_1
_geom_bond_atom_site_label_2
_geom_bond_distance
_geom_bond_site_symmetry_2
Na0 O3 2.331168 1_555
Na0 O1 2.360279 1_545
Na0 O6 2.369368 1_445
Na0 O0 2.429972 1_555
Na1 O3 2.334268 1_555
Na1 O6 2.358648 1_454
Na1 O1 2.370697 1_555
Na1 O0 2.374274 1_554
Na1 O2 2.652632 1_555
Na2 O1 2.339103 1_555
Na2 O3 2.418833 1_555
Na2 O0 2.466519 1_555
Na2 O4 2.472639 1_555
Na2 O2 2.698807 1_556
Na3 O1 2.281356 1_545
Na3 O3 2.406910 1_555
Na3 O2 2.479720 1_545
Na3 O0 2.482240 1_554
Na4 O3 2.206938 1_555
Na4 O2 2.353373 1_546
Na4 O7 2.498408 1_556
Na4 O4 2.498778 1_545
Na4 O5 2.845433 1_555
Na5 O6 2.296063 1_555
Na5 O7 2.336723 1_556
Na5 O5 2.483125 1_555
Na5 O4 2.565723 1_555
Na5 O0 2.858071 1_655
Na6 O6 2.377973 1_545
Na6 O7 2.449558 1_555
Na6 O5 2.460354 1_555
Na6 O4 2.539890 1_545
Na7 O1 2.226106 1_655
Na7 O6 2.298193 1_555
Na7 O0 2.363358 1_655
Na7 O5 2.424363 1_555
Mg0 O4 1.973559 1_554
Mg0 O5 1.993493 1_555
Mg0 O7 1.998517 1_565
Mg0 O2 2.052678 1_555
Ni0 O3 1.821642 1_555
Ni0 O4 1.859383 1_555
Ni0 O2 1.894101 1_555
Ni0 O5 1.961291 1_555
Ni1 O6 1.850198 1_555
Ni1 O1 1.879374 1_656
Ni1 O0 1.893574 1_665
Ni1 O7 1.932931 1_566
