# generated using pymatgen
data_MgTe2Mo3W(Se2S)2
_symmetry_space_group_name_H-M   'P 1'
_cell_length_a   6.67389200
_cell_length_b   6.67355804
_cell_length_c   76.24152200
_cell_angle_alpha   90.00045595
_cell_angle_beta   89.99982097
_cell_angle_gamma   119.99815924
_symmetry_Int_Tables_number   1
_chemical_formula_structural   MgTe2Mo3W(Se2S)2
_chemical_formula_sum   'Mg8 Te16 Mo24 W8 Se32 S16'
_cell_volume   2940.80928397
_cell_formula_units_Z   8
loop_
 _symmetry_equiv_pos_site_id
 _symmetry_equiv_pos_as_xyz
  1  'x, y, z'
loop_
 _atom_site_type_symbol
 _atom_site_label
 _atom_site_symmetry_multiplicity
 _atom_site_fract_x
 _atom_site_fract_y
 _atom_site_fract_z
 _atom_site_occupancy
  Mg  Mg0_0  1  0.00297600  0.49702300  0.44270900  1
  Mg  Mg0_1  1  0.00297600  0.49702300  0.94270900  1
  Mg  Mg0_2  1  0.00297600  0.99702300  0.44270900  1
  Mg  Mg0_3  1  0.00297600  0.99702300  0.94270900  1
  Mg  Mg0_4  1  0.50297600  0.49702300  0.44270900  1
  Mg  Mg0_5  1  0.50297600  0.49702300  0.94270900  1
  Mg  Mg0_6  1  0.50297600  0.99702300  0.44270900  1
  Mg  Mg0_7  1  0.50297600  0.99702300  0.94270900  1
  Te  Te0_0  1  0.16667800  0.33335300  0.35382750  1
  Te  Te0_1  1  0.16667800  0.33335300  0.85382750  1
  Te  Te0_2  1  0.16667800  0.83335300  0.35382750  1
  Te  Te0_3  1  0.16667800  0.83335300  0.85382750  1
  Te  Te0_4  1  0.66667800  0.33335300  0.35382750  1
  Te  Te0_5  1  0.66667800  0.33335300  0.85382750  1
  Te  Te0_6  1  0.66667800  0.83335300  0.35382750  1
  Te  Te0_7  1  0.66667800  0.83335300  0.85382750  1
  Te  Te1_0  1  0.16667400  0.33335050  0.30375550  1
  Te  Te1_1  1  0.16667400  0.33335050  0.80375550  1
  Te  Te1_2  1  0.16667400  0.83335050  0.30375550  1
  Te  Te1_3  1  0.16667400  0.83335050  0.80375550  1
  Te  Te1_4  1  0.66667400  0.33335050  0.30375550  1
  Te  Te1_5  1  0.66667400  0.33335050  0.80375550  1
  Te  Te1_6  1  0.66667400  0.83335050  0.30375550  1
  Te  Te1_7  1  0.66667400  0.83335050  0.80375550  1
  Mo  Mo0_0  1  0.16665150  0.33330550  0.04693750  1
  Mo  Mo0_1  1  0.16665150  0.33330550  0.54693750  1
  Mo  Mo0_2  1  0.16665150  0.83330550  0.04693750  1
  Mo  Mo0_3  1  0.16665150  0.83330550  0.54693750  1
  Mo  Mo0_4  1  0.66665150  0.33330550  0.04693750  1
  Mo  Mo0_5  1  0.66665150  0.33330550  0.54693750  1
  Mo  Mo0_6  1  0.66665150  0.83330550  0.04693750  1
  Mo  Mo0_7  1  0.66665150  0.83330550  0.54693750  1
  Mo  Mo1_0  1  0.16665450  0.33331200  0.23479800  1
  Mo  Mo1_1  1  0.16665450  0.33331200  0.73479800  1
  Mo  Mo1_2  1  0.16665450  0.83331200  0.23479800  1
  Mo  Mo1_3  1  0.16665450  0.83331200  0.73479800  1
  Mo  Mo1_4  1  0.66665450  0.33331200  0.23479800  1
  Mo  Mo1_5  1  0.66665450  0.33331200  0.73479800  1
  Mo  Mo1_6  1  0.66665450  0.83331200  0.23479800  1
  Mo  Mo1_7  1  0.66665450  0.83331200  0.73479800  1
  Mo  Mo2_0  1  0.33334900  0.16669500  0.14088800  1
  Mo  Mo2_1  1  0.33334900  0.16669500  0.64088800  1
  Mo  Mo2_2  1  0.33334900  0.66669500  0.14088800  1
  Mo  Mo2_3  1  0.33334900  0.66669500  0.64088800  1
  Mo  Mo2_4  1  0.83334900  0.16669500  0.14088800  1
  Mo  Mo2_5  1  0.83334900  0.16669500  0.64088800  1
  Mo  Mo2_6  1  0.83334900  0.66669500  0.14088800  1
  Mo  Mo2_7  1  0.83334900  0.66669500  0.64088800  1
  W  W0_0  1  0.33334500  0.16668600  0.32881900  1
  W  W0_1  1  0.33334500  0.16668600  0.82881900  1
  W  W0_2  1  0.33334500  0.66668600  0.32881900  1
  W  W0_3  1  0.33334500  0.66668600  0.82881900  1
  W  W0_4  1  0.83334500  0.16668600  0.32881900  1
  W  W0_5  1  0.83334500  0.16668600  0.82881900  1
  W  W0_6  1  0.83334500  0.66668600  0.32881900  1
  W  W0_7  1  0.83334500  0.66668600  0.82881900  1
  Se  Se0_0  1  0.33331700  0.16663500  0.02506350  1
  Se  Se0_1  1  0.33331700  0.16663500  0.52506350  1
  Se  Se0_2  1  0.33331700  0.66663500  0.02506350  1
  Se  Se0_3  1  0.33331700  0.66663500  0.52506350  1
  Se  Se0_4  1  0.83331700  0.16663500  0.02506350  1
  Se  Se0_5  1  0.83331700  0.16663500  0.52506350  1
  Se  Se0_6  1  0.83331700  0.66663500  0.02506350  1
  Se  Se0_7  1  0.83331700  0.66663500  0.52506350  1
  Se  Se1_0  1  0.33332700  0.16665150  0.21289950  1
  Se  Se1_1  1  0.33332700  0.16665150  0.71289950  1
  Se  Se1_2  1  0.33332700  0.66665150  0.21289950  1
  Se  Se1_3  1  0.33332700  0.66665150  0.71289950  1
  Se  Se1_4  1  0.83332700  0.16665150  0.21289950  1
  Se  Se1_5  1  0.83332700  0.16665150  0.71289950  1
  Se  Se1_6  1  0.83332700  0.66665150  0.21289950  1
  Se  Se1_7  1  0.83332700  0.66665150  0.71289950  1
  Se  Se2_0  1  0.33332200  0.16664550  0.06887200  1
  Se  Se2_1  1  0.33332200  0.16664550  0.56887200  1
  Se  Se2_2  1  0.33332200  0.66664550  0.06887200  1
  Se  Se2_3  1  0.33332200  0.66664550  0.56887200  1
  Se  Se2_4  1  0.83332200  0.16664550  0.06887200  1
  Se  Se2_5  1  0.83332200  0.16664550  0.56887200  1
  Se  Se2_6  1  0.83332200  0.66664550  0.06887200  1
  Se  Se2_7  1  0.83332200  0.66664550  0.56887200  1
  Se  Se3_0  1  0.33332650  0.16665050  0.25670750  1
  Se  Se3_1  1  0.33332650  0.16665050  0.75670750  1
  Se  Se3_2  1  0.33332650  0.66665050  0.25670750  1
  Se  Se3_3  1  0.33332650  0.66665050  0.75670750  1
  Se  Se3_4  1  0.83332650  0.16665050  0.25670750  1
  Se  Se3_5  1  0.83332650  0.16665050  0.75670750  1
  Se  Se3_6  1  0.83332650  0.66665050  0.25670750  1
  Se  Se3_7  1  0.83332650  0.66665050  0.75670750  1
  S  S0_0  1  0.16667800  0.33335800  0.16081000  1
  S  S0_1  1  0.16667800  0.33335800  0.66081000  1
  S  S0_2  1  0.16667800  0.83335800  0.16081000  1
  S  S0_3  1  0.16667800  0.83335800  0.66081000  1
  S  S0_4  1  0.66667800  0.33335800  0.16081000  1
  S  S0_5  1  0.66667800  0.33335800  0.66081000  1
  S  S0_6  1  0.66667800  0.83335800  0.16081000  1
  S  S0_7  1  0.66667800  0.83335800  0.66081000  1
  S  S1_0  1  0.16667800  0.33335900  0.12099500  1
  S  S1_1  1  0.16667800  0.33335900  0.62099500  1
  S  S1_2  1  0.16667800  0.83335900  0.12099500  1
  S  S1_3  1  0.16667800  0.83335900  0.62099500  1
  S  S1_4  1  0.66667800  0.33335900  0.12099500  1
  S  S1_5  1  0.66667800  0.33335900  0.62099500  1
  S  S1_6  1  0.66667800  0.83335900  0.12099500  1
  S  S1_7  1  0.66667800  0.83335900  0.62099500  1
loop_
_geom_bond_atom_site_label_1
_geom_bond_atom_site_label_2
_geom_bond_distance
_geom_bond_site_symmetry_2
Mg0_0 Mg0_2 3.336779 1_555
Mg0_0 Mg0_2 3.336779 1_545
Mg0_0 Mg0_4 3.336946 1_555
Mg0_0 Mg0_4 3.336946 1_455
Mg0_0 Mg0_6 3.336955 1_445
Mg0_0 Mg0_6 3.336955 1_555
Mg0_1 Mg0_3 3.336779 1_555
Mg0_1 Mg0_3 3.336779 1_545
Mg0_1 Mg0_5 3.336946 1_455
Mg0_1 Mg0_5 3.336946 1_555
Mg0_1 Mg0_7 3.336955 1_555
Mg0_1 Mg0_7 3.336955 1_445
Mg0_2 Mg0_6 3.336946 1_555
Mg0_2 Mg0_6 3.336946 1_455
Mg0_2 Mg0_4 3.336955 1_455
Mg0_2 Mg0_4 3.336955 1_565
Mg0_3 Mg0_7 3.336946 1_555
Mg0_3 Mg0_7 3.336946 1_455
Mg0_3 Mg0_5 3.336955 1_455
Mg0_3 Mg0_5 3.336955 1_565
Mg0_4 Mg0_6 3.336779 1_545
Mg0_4 Mg0_6 3.336779 1_555
Mg0_5 Mg0_7 3.336779 1_555
Mg0_5 Mg0_7 3.336779 1_545
Te0_0 W0_0 2.710517 1_555
Te0_0 W0_2 2.710535 1_555
Te0_0 W0_4 2.710592 1_455
Te0_1 W0_1 2.710517 1_555
Te0_1 W0_3 2.710535 1_555
Te0_1 W0_5 2.710592 1_455
Te0_2 W0_2 2.710517 1_555
Te0_2 W0_0 2.710535 1_565
Te0_2 W0_6 2.710592 1_455
Te0_3 W0_3 2.710517 1_555
Te0_3 W0_1 2.710535 1_565
Te0_3 W0_7 2.710592 1_455
Te0_4 W0_4 2.710517 1_555
Te0_4 W0_6 2.710535 1_555
Te0_4 W0_0 2.710592 1_555
Te0_5 W0_5 2.710517 1_555
Te0_5 W0_7 2.710535 1_555
Te0_5 W0_1 2.710592 1_555
Te0_6 W0_6 2.710517 1_555
Te0_6 W0_4 2.710535 1_565
Te0_6 W0_2 2.710592 1_555
Te0_7 W0_7 2.710517 1_555
Te0_7 W0_5 2.710535 1_565
Te0_7 W0_3 2.710592 1_555
Te1_0 W0_2 2.713477 1_555
Te1_0 W0_0 2.713492 1_555
Te1_0 W0_4 2.713530 1_455
Te1_1 W0_3 2.713477 1_555
Te1_1 W0_1 2.713492 1_555
Te1_1 W0_5 2.713530 1_455
Te1_2 W0_0 2.713477 1_565
Te1_2 W0_2 2.713492 1_555
Te1_2 W0_6 2.713530 1_455
Te1_3 W0_1 2.713477 1_565
Te1_3 W0_3 2.713492 1_555
Te1_3 W0_7 2.713530 1_455
Te1_4 W0_6 2.713477 1_555
Te1_4 W0_4 2.713492 1_555
Te1_4 W0_0 2.713530 1_555
Te1_5 W0_7 2.713477 1_555
Te1_5 W0_5 2.713492 1_555
Te1_5 W0_1 2.713530 1_555
Te1_6 W0_4 2.713477 1_565
Te1_6 W0_6 2.713492 1_555
Te1_6 W0_2 2.713530 1_555
Te1_7 W0_5 2.713477 1_565
Te1_7 W0_7 2.713492 1_555
Te1_7 W0_3 2.713530 1_555
Mo0_0 Se0_2 2.548080 1_555
Mo0_0 Se0_0 2.548087 1_555
Mo0_0 Se0_4 2.548164 1_455
Mo0_0 Se2_0 2.551100 1_555
Mo0_0 Se2_2 2.551128 1_555
Mo0_0 Se2_4 2.551166 1_455
Mo0_1 Se0_3 2.548080 1_555
Mo0_1 Se0_1 2.548087 1_555
Mo0_1 Se0_5 2.548164 1_455
Mo0_1 Se2_1 2.551100 1_555
Mo0_1 Se2_3 2.551128 1_555
Mo0_1 Se2_5 2.551166 1_455
Mo0_2 Se0_0 2.548080 1_565
Mo0_2 Se0_2 2.548087 1_555
Mo0_2 Se0_6 2.548164 1_455
Mo0_2 Se2_2 2.551100 1_555
Mo0_2 Se2_0 2.551128 1_565
Mo0_2 Se2_6 2.551166 1_455
Mo0_3 Se0_1 2.548080 1_565
Mo0_3 Se0_3 2.548087 1_555
Mo0_3 Se0_7 2.548164 1_455
Mo0_3 Se2_3 2.551100 1_555
Mo0_3 Se2_1 2.551128 1_565
Mo0_3 Se2_7 2.551166 1_455
Mo0_4 Se0_6 2.548080 1_555
Mo0_4 Se0_4 2.548087 1_555
Mo0_4 Se0_0 2.548164 1_555
Mo0_4 Se2_4 2.551100 1_555
Mo0_4 Se2_6 2.551128 1_555
Mo0_4 Se2_0 2.551166 1_555
Mo0_5 Se0_7 2.548080 1_555
Mo0_5 Se0_5 2.548087 1_555
Mo0_5 Se0_1 2.548164 1_555
Mo0_5 Se2_5 2.551100 1_555
Mo0_5 Se2_7 2.551128 1_555
Mo0_5 Se2_1 2.551166 1_555
Mo0_6 Se0_4 2.548080 1_565
Mo0_6 Se0_6 2.548087 1_555
Mo0_6 Se0_2 2.548164 1_555
Mo0_6 Se2_6 2.551100 1_555
Mo0_6 Se2_4 2.551128 1_565
Mo0_6 Se2_2 2.551166 1_555
Mo0_7 Se0_5 2.548080 1_565
Mo0_7 Se0_7 2.548087 1_555
Mo0_7 Se0_3 2.548164 1_555
Mo0_7 Se2_7 2.551100 1_555
Mo0_7 Se2_5 2.551128 1_565
Mo0_7 Se2_3 2.551166 1_555
Mo1_0 Se1_0 2.549297 1_555
Mo1_0 Se1_2 2.549347 1_555
Mo1_0 Se1_4 2.549356 1_455
Mo1_0 Se3_0 2.549864 1_555
Mo1_0 Se3_2 2.549873 1_555
Mo1_0 Se3_4 2.549910 1_455
Mo1_1 Se1_1 2.549297 1_555
Mo1_1 Se1_3 2.549347 1_555
Mo1_1 Se1_5 2.549356 1_455
Mo1_1 Se3_1 2.549864 1_555
Mo1_1 Se3_3 2.549873 1_555
Mo1_1 Se3_5 2.549910 1_455
Mo1_2 Se1_2 2.549297 1_555
Mo1_2 Se1_0 2.549347 1_565
Mo1_2 Se1_6 2.549356 1_455
Mo1_2 Se3_2 2.549864 1_555
Mo1_2 Se3_0 2.549873 1_565
Mo1_2 Se3_6 2.549910 1_455
Mo1_3 Se1_3 2.549297 1_555
Mo1_3 Se1_1 2.549347 1_565
Mo1_3 Se1_7 2.549356 1_455
Mo1_3 Se3_3 2.549864 1_555
Mo1_3 Se3_1 2.549873 1_565
Mo1_3 Se3_7 2.549910 1_455
Mo1_4 Se1_4 2.549297 1_555
Mo1_4 Se1_6 2.549347 1_555
Mo1_4 Se1_0 2.549356 1_555
Mo1_4 Se3_4 2.549864 1_555
Mo1_4 Se3_6 2.549873 1_555
Mo1_4 Se3_0 2.549910 1_555
Mo1_5 Se1_5 2.549297 1_555
Mo1_5 Se1_7 2.549347 1_555
Mo1_5 Se1_1 2.549356 1_555
Mo1_5 Se3_5 2.549864 1_555
Mo1_5 Se3_7 2.549873 1_555
Mo1_5 Se3_1 2.549910 1_555
Mo1_6 Se1_6 2.549297 1_555
Mo1_6 Se1_4 2.549347 1_565
Mo1_6 Se1_2 2.549356 1_555
Mo1_6 Se3_6 2.549864 1_555
Mo1_6 Se3_4 2.549873 1_565
Mo1_6 Se3_2 2.549910 1_555
Mo1_7 Se1_7 2.549297 1_555
Mo1_7 Se1_5 2.549347 1_565
Mo1_7 Se1_3 2.549356 1_555
Mo1_7 Se3_7 2.549864 1_555
Mo1_7 Se3_5 2.549873 1_565
Mo1_7 Se3_3 2.549910 1_555
Mo2_0 S1_2 2.451900 1_545
Mo2_0 S1_0 2.451908 1_555
Mo2_0 S1_4 2.451954 1_555
Mo2_0 S0_0 2.453256 1_555
Mo2_0 S0_2 2.453291 1_545
Mo2_0 S0_4 2.453320 1_555
Mo2_1 S1_3 2.451900 1_545
Mo2_1 S1_1 2.451908 1_555
Mo2_1 S1_5 2.451954 1_555
Mo2_1 S0_1 2.453256 1_555
Mo2_1 S0_3 2.453291 1_545
Mo2_1 S0_5 2.453320 1_555
Mo2_2 S1_0 2.451900 1_555
Mo2_2 S1_2 2.451908 1_555
Mo2_2 S1_6 2.451954 1_555
Mo2_2 S0_2 2.453256 1_555
Mo2_2 S0_0 2.453291 1_555
Mo2_2 S0_6 2.453320 1_555
Mo2_3 S1_1 2.451900 1_555
Mo2_3 S1_3 2.451908 1_555
Mo2_3 S1_7 2.451954 1_555
Mo2_3 S0_3 2.453256 1_555
Mo2_3 S0_1 2.453291 1_555
Mo2_3 S0_7 2.453320 1_555
Mo2_4 S1_6 2.451900 1_545
Mo2_4 S1_4 2.451908 1_555
Mo2_4 S1_0 2.451954 1_655
Mo2_4 S0_4 2.453256 1_555
Mo2_4 S0_6 2.453291 1_545
Mo2_4 S0_0 2.453320 1_655
Mo2_5 S1_7 2.451900 1_545
Mo2_5 S1_5 2.451908 1_555
Mo2_5 S1_1 2.451954 1_655
Mo2_5 S0_5 2.453256 1_555
Mo2_5 S0_7 2.453291 1_545
Mo2_5 S0_1 2.453320 1_655
Mo2_6 S1_4 2.451900 1_555
Mo2_6 S1_6 2.451908 1_555
Mo2_6 S1_2 2.451954 1_655
Mo2_6 S0_6 2.453256 1_555
Mo2_6 S0_4 2.453291 1_555
Mo2_6 S0_2 2.453320 1_655
Mo2_7 S1_5 2.451900 1_555
Mo2_7 S1_7 2.451908 1_555
Mo2_7 S1_3 2.451954 1_655
Mo2_7 S0_7 2.453256 1_555
Mo2_7 S0_5 2.453291 1_555
Mo2_7 S0_3 2.453320 1_655
