# generated using pymatgen
data_MgMn4(CuO4)2
_symmetry_space_group_name_H-M   'P 1'
_cell_length_a   6.22272619
_cell_length_b   6.95181226
_cell_length_c   6.22272607
_cell_angle_alpha   53.54855820
_cell_angle_beta   60.10086201
_cell_angle_gamma   53.54855207
_symmetry_Int_Tables_number   1
_chemical_formula_structural   MgMn4(CuO4)2
_chemical_formula_sum   'Mg1 Mn4 Cu2 O8'
_cell_volume   169.70567970
_cell_formula_units_Z   1
loop_
 _symmetry_equiv_pos_site_id
 _symmetry_equiv_pos_as_xyz
  1  'x, y, z'
loop_
 _atom_site_type_symbol
 _atom_site_label
 _atom_site_symmetry_multiplicity
 _atom_site_fract_x
 _atom_site_fract_y
 _atom_site_fract_z
 _atom_site_occupancy
  Mg  Mg0  1  0.12500000  0.12500000  0.12500000  1
  Mn  Mn0  1  0.94528388  0.00476263  0.94528388  1
  Mn  Mn1  1  0.30471612  0.24523737  0.30471612  1
  Mn  Mn2  1  0.12500000  0.62500000  0.62500000  1
  Mn  Mn3  1  0.62500000  0.62500000  0.12500000  1
  Cu  Cu0  1  0.62500000  0.12500000  0.62500000  1
  Cu  Cu1  1  0.62500000  0.62500000  0.62500000  1
  O  O0  1  0.38269314  0.43882614  0.38269314  1
  O  O1  1  0.36461192  0.34267157  0.89005659  1
  O  O2  1  0.38467665  0.86286449  0.38467665  1
  O  O3  1  0.35994341  0.90732843  0.88538808  1
  O  O4  1  0.89005659  0.34267157  0.36461192  1
  O  O5  1  0.88538808  0.90732843  0.35994341  1
  O  O6  1  0.86532335  0.38713551  0.86532335  1
  O  O7  1  0.86730686  0.81117386  0.86730686  1
loop_
_geom_bond_atom_site_label_1
_geom_bond_atom_site_label_2
_geom_bond_distance
_geom_bond_site_symmetry_2
Mg0 O6 2.036670 1_454
Mg0 O2 2.036670 1_545
Mg0 O4 2.128244 1_455
Mg0 O3 2.128244 1_544
Mg0 O5 2.128244 1_445
Mg0 O1 2.128244 1_554
Mn0 O7 2.017108 1_545
Mn0 O3 2.126051 1_645
Mn0 O5 2.126051 1_546
Mn0 O6 2.159765 1_555
Mn1 O0 2.017108 1_555
Mn1 O4 2.126051 1_455
Mn1 O1 2.126051 1_554
Mn1 O2 2.159765 1_545
Mn2 O5 1.980757 1_455
Mn2 O1 1.980757 1_555
Mn2 O0 1.990532 1_555
Mn2 O7 1.990532 1_455
Mn2 O6 2.325809 1_455
Mn2 O2 2.325809 1_555
Mn3 O3 1.980757 1_554
Mn3 O4 1.980757 1_555
Mn3 O0 1.990533 1_555
Mn3 O7 1.990533 1_554
Mn3 O6 2.325809 1_554
Mn3 O2 2.325809 1_555
Cu0 O7 1.937884 1_545
Cu0 O0 1.937884 1_555
Cu0 O5 2.241331 1_545
Cu0 O1 2.241331 1_555
Cu0 O4 2.241331 1_555
Cu0 O3 2.241331 1_545
Cu1 O2 1.886748 1_555
Cu1 O6 1.886748 1_555
Cu1 O3 2.542820 1_555
Cu1 O4 2.542820 1_555
Cu1 O1 2.542820 1_555
Cu1 O5 2.542820 1_555
