# generated using pymatgen
data_SmNiO3
_symmetry_space_group_name_H-M   'P 1'
_cell_length_a   5.28682054
_cell_length_b   5.44978590
_cell_length_c   7.53088649
_cell_angle_alpha   90.00021620
_cell_angle_beta   90.00051183
_cell_angle_gamma   89.99971112
_symmetry_Int_Tables_number   1
_chemical_formula_structural   SmNiO3
_chemical_formula_sum   'Sm4 Ni4 O12'
_cell_volume   216.98020304
_cell_formula_units_Z   4
loop_
 _symmetry_equiv_pos_site_id
 _symmetry_equiv_pos_as_xyz
  1  'x, y, z'
loop_
 _atom_site_type_symbol
 _atom_site_label
 _atom_site_symmetry_multiplicity
 _atom_site_fract_x
 _atom_site_fract_y
 _atom_site_fract_z
 _atom_site_occupancy
  Sm  Sm0  1  0.01278856  0.94363263  0.75002558  1
  Sm  Sm1  1  0.51279778  0.55632602  0.24997455  1
  Sm  Sm2  1  0.48720222  0.44367398  0.75002545  1
  Sm  Sm3  1  0.98721144  0.05636737  0.24997442  1
  Ni  Ni0  1  0.50000000  0.00000000  0.50000000  1
  Ni  Ni1  1  -0.00000000  0.50000000  0.50000000  1
  Ni  Ni2  1  -0.00000000  0.50000000  -0.00000000  1
  Ni  Ni3  1  0.50000000  0.00000000  -0.00000000  1
  O  O0  1  0.70673583  0.29349112  0.45729712  1
  O  O1  1  0.20665270  0.20658996  0.54270157  1
  O  O2  1  0.79332335  0.79339711  0.04265886  1
  O  O3  1  0.29324811  0.70652011  0.95733636  1
  O  O4  1  0.29326417  0.70650888  0.54270288  1
  O  O5  1  0.79334730  0.79341004  0.45729843  1
  O  O6  1  0.20667665  0.20660289  0.95734114  1
  O  O7  1  0.70675189  0.29347989  0.04266364  1
  O  O8  1  0.08061070  0.48489862  0.24996387  1
  O  O9  1  0.58066172  0.01510971  0.75003744  1
  O  O10  1  0.41933828  0.98489029  0.24996256  1
  O  O11  1  0.91938930  0.51510138  0.75003613  1
loop_
_geom_bond_atom_site_label_1
_geom_bond_atom_site_label_2
_geom_bond_distance
_geom_bond_site_symmetry_2
Ni0 O10 1.932440 1_545
Ni0 O9 1.932440 1_555
Ni0 O1 1.943245 1_555
Ni0 O5 1.943245 1_545
Ni0 O4 1.963753 1_545
Ni0 O0 1.963753 1_555
Ni1 O8 1.932376 1_555
Ni1 O11 1.932376 1_455
Ni1 O4 1.942644 1_555
Ni1 O0 1.942644 1_455
Ni1 O1 1.963135 1_555
Ni1 O5 1.963135 1_455
Ni2 O11 1.931839 1_454
Ni2 O8 1.931839 1_555
Ni2 O7 1.942569 1_455
Ni2 O3 1.942569 1_554
Ni2 O6 1.963097 1_554
Ni2 O2 1.963097 1_455
Ni3 O9 1.931898 1_554
Ni3 O10 1.931898 1_545
Ni3 O6 1.943128 1_554
Ni3 O2 1.943128 1_545
Ni3 O3 1.963697 1_544
Ni3 O7 1.963697 1_555
O0 Sm1 2.353875 1_555
O0 Sm3 2.511270 1_555
O0 Sm2 2.622369 1_555
O1 Sm0 2.354136 1_545
O1 Sm2 2.511386 1_555
O1 Sm3 2.622199 1_455
O2 Sm3 2.354173 1_565
O2 Sm1 2.511259 1_555
O2 Sm0 2.621705 1_654
O3 Sm2 2.353896 1_555
O3 Sm0 2.511122 1_555
O3 Sm1 2.621842 1_556
O4 Sm2 2.353875 1_555
O4 Sm0 2.511270 1_555
O4 Sm1 2.622369 1_555
O5 Sm3 2.354136 1_565
O5 Sm1 2.511386 1_555
O5 Sm0 2.622199 1_655
O6 Sm0 2.354173 1_545
O6 Sm2 2.511259 1_555
O6 Sm3 2.621705 1_456
O7 Sm1 2.353896 1_555
O7 Sm3 2.511122 1_555
O7 Sm2 2.621842 1_554
O8 Sm1 2.317819 1_555
O8 Sm3 2.387037 1_455
O9 Sm0 2.317546 1_645
O9 Sm2 2.387274 1_555
O10 Sm3 2.317546 1_465
O10 Sm1 2.387274 1_555
O11 Sm2 2.317819 1_555
O11 Sm0 2.387037 1_655
