# generated using pymatgen
data_MgMn6(OF)6
_symmetry_space_group_name_H-M   'P 1'
_cell_length_a   5.01654901
_cell_length_b   4.83341758
_cell_length_c   9.46595691
_cell_angle_alpha   89.47476147
_cell_angle_beta   90.55482423
_cell_angle_gamma   88.93696812
_symmetry_Int_Tables_number   1
_chemical_formula_structural   MgMn6(OF)6
_chemical_formula_sum   'Mg1 Mn6 O6 F6'
_cell_volume   229.46148821
_cell_formula_units_Z   1
loop_
 _symmetry_equiv_pos_site_id
 _symmetry_equiv_pos_as_xyz
  1  'x, y, z'
loop_
 _atom_site_type_symbol
 _atom_site_label
 _atom_site_symmetry_multiplicity
 _atom_site_fract_x
 _atom_site_fract_y
 _atom_site_fract_z
 _atom_site_occupancy
  Mg  Mg0  1  0.97273900  0.48806800  0.83564400  1
  Mn  Mn0  1  0.97765900  0.96061000  0.01861800  1
  Mn  Mn1  1  0.03969800  0.01078900  0.33469600  1
  Mn  Mn2  1  0.05080400  0.00769400  0.65681300  1
  Mn  Mn3  1  0.46607900  0.54906500  0.83948400  1
  Mn  Mn4  1  0.54700600  0.46275500  0.17575800  1
  Mn  Mn5  1  0.45401200  0.49448700  0.49839000  1
  O  O0  1  0.22777000  0.83034900  0.49290200  1
  O  O1  1  0.17717400  0.82895000  0.85055800  1
  O  O2  1  0.31396300  0.31147000  0.32984000  1
  O  O3  1  0.25801900  0.37227800  0.69423600  1
  O  O4  1  0.71520100  0.64590300  0.98965800  1
  O  O5  1  0.82018000  0.15364500  0.17353400  1
  F  F0  1  0.25389300  0.79191600  0.16340500  1
  F  F1  1  0.22279500  0.31676900  0.98902300  1
  F  F2  1  0.75129400  0.69205400  0.34073500  1
  F  F3  1  0.73355600  0.67060200  0.68256200  1
  F  F4  1  0.77798200  0.20321800  0.51269100  1
  F  F5  1  0.74017500  0.18160300  0.83118000  1
loop_
_geom_bond_atom_site_label_1
_geom_bond_atom_site_label_2
_geom_bond_distance
_geom_bond_site_symmetry_2
Mg0 O1 1.962276 1_655
Mg0 O3 2.043084 1_655
Mg0 O4 2.096872 1_555
Mn0 O5 1.914473 1_565
Mn0 O1 1.990799 1_654
Mn0 O4 2.048760 1_554
Mn1 O0 1.952345 1_545
Mn1 O5 1.984114 1_455
Mn1 O2 2.020257 1_555
Mn2 O0 1.988237 1_545
Mn2 O3 2.093715 1_555
Mn2 O1 2.107103 1_545
Mn3 O3 1.933072 1_555
Mn3 O4 1.949663 1_555
Mn3 O1 1.968335 1_555
Mn4 O5 2.008927 1_555
Mn4 O2 2.018397 1_555
Mn4 O4 2.150990 1_554
Mn5 O2 1.961865 1_555
Mn5 O0 1.963433 1_555
Mn5 O3 2.188428 1_555
F0 Mn0 2.089093 1_455
F0 Mn4 2.147893 1_555
F0 Mn1 2.219417 1_565
F1 Mg0 2.066685 1_455
F1 Mn0 2.151872 1_446
F1 Mn3 2.192948 1_555
F1 Mn4 2.505474 1_556
F2 Mn1 2.133671 1_665
F2 Mn4 2.181802 1_555
F2 Mn5 2.330855 1_555
F3 Mg0 2.054626 1_555
F3 Mn3 2.098537 1_555
F3 Mn2 2.311565 1_665
F3 Mn5 2.398886 1_555
F4 Mn2 2.125946 1_655
F4 Mn5 2.132828 1_555
F4 Mn1 2.335365 1_655
F5 Mg0 1.902994 1_555
F5 Mn3 2.228319 1_555
F5 Mn0 2.363352 1_546
F5 Mn2 2.426063 1_655
