# generated using pymatgen
data_Sr4MgMn2(ClO3)2
_symmetry_space_group_name_H-M   'P 1'
_cell_length_a   4.14767900
_cell_length_b   4.14768300
_cell_length_c   14.70291000
_cell_angle_alpha   90.00000000
_cell_angle_beta   90.00000000
_cell_angle_gamma   90.00000000
_symmetry_Int_Tables_number   1
_chemical_formula_structural   Sr4MgMn2(ClO3)2
_chemical_formula_sum   'Sr4 Mg1 Mn2 Cl2 O6'
_cell_volume   252.93794934
_cell_formula_units_Z   1
loop_
 _symmetry_equiv_pos_site_id
 _symmetry_equiv_pos_as_xyz
  1  'x, y, z'
loop_
 _atom_site_type_symbol
 _atom_site_label
 _atom_site_symmetry_multiplicity
 _atom_site_fract_x
 _atom_site_fract_y
 _atom_site_fract_z
 _atom_site_occupancy
  Sr  Sr0  1  0.25000000  0.25000000  0.13455200  1
  Sr  Sr1  1  0.75000000  0.75000000  0.86544800  1
  Sr  Sr2  1  0.25000000  0.25000000  0.35243100  1
  Sr  Sr3  1  0.75000000  0.75000000  0.64756900  1
  Mg  Mg0  1  0.25000000  0.75000000  0.00000000  1
  Mn  Mn0  1  0.75000000  0.75000000  0.21578500  1
  Mn  Mn1  1  0.25000000  0.25000000  0.78421500  1
  Cl  Cl0  1  0.75000000  0.75000000  0.42753800  1
  Cl  Cl1  1  0.25000000  0.25000000  0.57246200  1
  O  O0  1  0.75000000  0.25000000  0.24242700  1
  O  O1  1  0.25000000  0.75000000  0.22562200  1
  O  O2  1  0.25000000  0.75000000  0.77437600  1
  O  O3  1  0.75000000  0.25000000  0.75757500  1
  O  O4  1  0.75000000  0.75000000  0.04879900  1
  O  O5  1  0.25000000  0.25000000  0.95120100  1
loop_
_geom_bond_atom_site_label_1
_geom_bond_atom_site_label_2
_geom_bond_distance
_geom_bond_site_symmetry_2
Mg0 O4 2.194447 1_455
Mg0 O4 2.194447 1_555
Mg0 O5 2.194449 1_564
Mg0 O5 2.194449 1_554
Mn0 O1 2.078877 1_655
Mn0 O1 2.078877 1_555
Mn0 O0 2.110512 1_555
Mn0 O0 2.110512 1_565
Mn0 O4 2.455180 1_555
Mn1 O2 2.078881 1_555
Mn1 O2 2.078881 1_545
Mn1 O3 2.110504 1_555
Mn1 O3 2.110504 1_455
Mn1 O5 2.455180 1_555
Cl0 Mn0 3.113385 1_555
Cl0 Sr2 3.133862 1_565
Cl0 Sr2 3.133862 1_555
Cl0 Sr2 3.133862 1_655
Cl0 Sr2 3.133862 1_665
Cl0 Sr3 3.235096 1_555
Cl1 Mn1 3.113385 1_555
Cl1 Sr3 3.133862 1_445
Cl1 Sr3 3.133862 1_455
Cl1 Sr3 3.133862 1_555
Cl1 Sr3 3.133862 1_545
Cl1 Sr2 3.235096 1_555
O0 Sr0 2.610833 1_555
O0 Sr0 2.610833 1_655
O0 Sr2 2.629967 1_555
O0 Sr2 2.629967 1_655
O1 Sr0 2.468547 1_555
O1 Sr0 2.468547 1_565
O1 Sr2 2.788734 1_555
O1 Sr2 2.788734 1_565
O2 Sr1 2.468561 1_455
O2 Sr1 2.468561 1_555
O2 Sr3 2.788712 1_555
O2 Sr3 2.788712 1_455
O3 Sr1 2.610817 1_555
O3 Sr1 2.610817 1_545
O3 Sr3 2.629986 1_545
O3 Sr3 2.629986 1_555
O4 Sr1 2.695793 1_554
O5 Sr0 2.695793 1_556
