# generated using pymatgen
data_Na2MgZr3P4(SO12)2
_symmetry_space_group_name_H-M   'P 1'
_cell_length_a   8.85557368
_cell_length_b   8.86084732
_cell_length_c   23.36075805
_cell_angle_alpha   90.00266268
_cell_angle_beta   89.96720690
_cell_angle_gamma   120.02341893
_symmetry_Int_Tables_number   1
_chemical_formula_structural   Na2MgZr3P4(SO12)2
_chemical_formula_sum   'Na6 Mg3 Zr9 P12 S6 O72'
_cell_volume   1587.10951113
_cell_formula_units_Z   3
loop_
 _symmetry_equiv_pos_site_id
 _symmetry_equiv_pos_as_xyz
  1  'x, y, z'
loop_
 _atom_site_type_symbol
 _atom_site_label
 _atom_site_symmetry_multiplicity
 _atom_site_fract_x
 _atom_site_fract_y
 _atom_site_fract_z
 _atom_site_occupancy
  Na  Na0  1  0.00052105  0.99293305  0.50870789  1
  Na  Na1  1  0.00680579  0.99806765  0.00454558  1
  Na  Na2  1  0.66213976  0.32574670  0.83152254  1
  Na  Na3  1  0.66794346  0.33234675  0.33899090  1
  Na  Na4  1  0.32805836  0.66121665  0.17154396  1
  Na  Na5  1  0.34434682  0.66986929  0.66381486  1
  Mg  Mg0  1  0.99764740  0.00068027  0.64698296  1
  Mg  Mg1  1  0.00831327  -0.00001850  0.14734069  1
  Mg  Mg2  1  0.33250503  0.66724546  0.32012548  1
  Zr  Zr0  1  0.00150665  0.00002383  0.35681185  1
  Zr  Zr1  1  0.00193313  0.00778890  0.85233401  1
  Zr  Zr2  1  0.65256051  0.32477876  0.68503890  1
  Zr  Zr3  1  0.66848822  0.34111977  0.18604869  1
  Zr  Zr4  1  0.66368171  0.33875181  0.98010461  1
  Zr  Zr5  1  0.66017223  0.33591246  0.48027938  1
  Zr  Zr6  1  0.32769745  0.66124986  0.01983999  1
  Zr  Zr7  1  0.34030851  0.67213653  0.51772455  1
  Zr  Zr8  1  0.34007610  0.66846306  0.81261208  1
  P  P0  1  0.28537617  0.28788015  0.74737344  1
  P  P1  1  0.71436129  0.00235151  0.74716948  1
  P  P2  1  0.36523580  0.03762501  0.58303999  1
  P  P3  1  0.67256593  0.63192113  0.58412613  1
  P  P4  1  0.95836361  0.63164146  0.08387252  1
  P  P5  1  0.36818263  0.32801571  0.08417931  1
  P  P6  1  0.62594216  0.66984384  0.91704680  1
  P  P7  1  0.04121812  0.37660557  0.91620970  1
  P  P8  1  0.33247066  0.95613522  0.91684488  1
  P  P9  1  0.62082616  0.95838537  0.41374320  1
  P  P10  1  0.33486351  0.38215819  0.41406896  1
  P  P11  1  0.04471739  0.66233248  0.41463600  1
  S  S0  1  0.28912921  0.99403254  0.24856592  1
  S  S1  1  0.70706786  0.71506699  0.24852988  1
  S  S2  1  0.00481839  0.29183994  0.24817149  1
  S  S3  1  0.99975142  0.71053330  0.74855009  1
  S  S4  1  0.95799862  0.33097311  0.58371557  1
  S  S5  1  0.67096853  0.04257852  0.08421933  1
  O  O0  1  0.20943282  0.02353466  0.30055139  1
  O  O1  1  0.81524045  0.79378980  0.30056186  1
  O  O2  1  0.97715953  0.18427286  0.30039811  1
  O  O3  1  0.20437431  0.17966475  0.80318974  1
  O  O4  1  0.97615074  0.79008074  0.80174404  1
  O  O5  1  0.82048372  0.02257707  0.80307288  1
  O  O6  1  0.79530662  0.97350580  0.69518267  1
  O  O7  1  0.17912273  0.20314614  0.69513890  1
  O  O8  1  0.02451271  0.81436732  0.69807559  1
  O  O9  1  0.79379541  0.81645572  0.19740040  1
  O  O10  1  0.02056082  0.20476561  0.19722481  1
  O  O11  1  0.18574834  0.97705616  0.19774533  1
  O  O12  1  0.87438122  0.35641582  0.63532916  1
  O  O13  1  0.48366085  0.12469643  0.63680712  1
  O  O14  1  0.64668768  0.51372820  0.63709461  1
  O  O15  1  0.86954644  0.51201663  0.13709991  1
  O  O16  1  0.64340660  0.12693902  0.13547036  1
  O  O17  1  0.48732925  0.35395655  0.13702235  1
  O  O18  1  0.46146536  0.30806773  0.03077452  1
  O  O19  1  0.84705923  0.53481612  0.03062083  1
  O  O20  1  0.69096396  0.14759030  0.03241498  1
  O  O21  1  0.46396024  0.15074710  0.53037878  1
  O  O22  1  0.68979015  0.53691783  0.53066784  1
  O  O23  1  0.85255999  0.31235685  0.53207787  1
  O  O24  1  0.53836732  0.69266681  0.97076183  1
  O  O25  1  0.15313525  0.46211473  0.97035726  1
  O  O26  1  0.30962817  0.84511378  0.97070061  1
  O  O27  1  0.54037227  0.84693116  0.46861244  1
  O  O28  1  0.30708181  0.46226880  0.46905404  1
  O  O29  1  0.15559042  0.69190384  0.46917199  1
  O  O30  1  0.12351309  0.63702935  0.36106274  1
  O  O31  1  0.51403179  0.87803033  0.36083162  1
  O  O32  1  0.36184978  0.48731853  0.36075474  1
  O  O33  1  0.12770864  0.48728113  0.86310870  1
  O  O34  1  0.35692545  0.86960839  0.86350958  1
  O  O35  1  0.51408388  0.64292844  0.86362423  1
  O  O36  1  0.02316639  0.82762571  0.40861469  1
  O  O37  1  0.80592680  0.97700553  0.40803079  1
  O  O38  1  0.17102817  0.19525145  0.40863646  1
  O  O39  1  0.02403347  0.19507584  0.91119238  1
  O  O40  1  0.16964045  0.97455030  0.91047481  1
  O  O41  1  0.80791252  0.82978071  0.91033923  1
  O  O42  1  0.97545073  0.17639745  0.58898543  1
  O  O43  1  0.18944028  0.02365875  0.58929274  1
  O  O44  1  0.83172972  0.81036875  0.58928538  1
  O  O45  1  0.97242389  0.80750783  0.09029123  1
  O  O46  1  0.82481984  0.02458297  0.09111975  1
  O  O47  1  0.18935529  0.16994383  0.09044054  1
  O  O48  1  0.69551437  0.16790684  0.74387132  1
  O  O49  1  0.47317755  0.31232823  0.74471813  1
  O  O50  1  0.84368560  0.53257819  0.74445038  1
  O  O51  1  0.69187839  0.53511826  0.24398992  1
  O  O52  1  0.84068443  0.30660958  0.24318251  1
  O  O53  1  0.46793430  0.15694245  0.24307405  1
  O  O54  1  0.64291794  0.50472198  0.92282425  1
  O  O55  1  0.85854500  0.35460702  0.92394020  1
  O  O56  1  0.49623115  0.13791279  0.92403070  1
  O  O57  1  0.64788454  0.14288042  0.42380230  1
  O  O58  1  0.49411919  0.35489148  0.42241709  1
  O  O59  1  0.85969319  0.50360923  0.42396208  1
  O  O60  1  0.36105299  0.49904232  0.07824786  1
  O  O61  1  0.13995556  0.64532109  0.07832444  1
  O  O62  1  0.51017466  0.86876880  0.07884408  1
  O  O63  1  0.35305509  0.85712788  0.57745790  1
  O  O64  1  0.50156968  0.63973230  0.57792614  1
  O  O65  1  0.13233289  0.49115180  0.57826800  1
  O  O66  1  0.31141673  0.84206444  0.25514607  1
  O  O67  1  0.53150689  0.68978116  0.25491373  1
  O  O68  1  0.15605526  0.46709540  0.25454511  1
  O  O69  1  0.30897415  0.47297322  0.75660880  1
  O  O70  1  0.15636060  0.68975177  0.75621190  1
  O  O71  1  0.52680239  0.84244139  0.75651416  1
loop_
_geom_bond_atom_site_label_1
_geom_bond_atom_site_label_2
_geom_bond_distance
_geom_bond_site_symmetry_2
Na0 O43 2.442265 1_565
Na0 O44 2.443710 1_455
Na0 O42 2.563075 1_465
Na0 O36 2.818912 1_555
Na0 O38 2.871642 1_565
Na0 O37 2.877868 1_455
Na1 O45 2.537971 1_455
Na1 O47 2.549270 1_565
Na1 O46 2.667923 1_465
Na1 O40 2.692414 1_554
Na1 O41 2.746795 1_454
Na1 O39 2.749539 1_564
Na2 O48 2.578521 1_555
Na2 O49 2.594436 1_555
Na2 O50 2.670022 1_555
Na2 O56 2.673678 1_555
Na2 O55 2.703830 1_555
Na2 O54 2.713400 1_555
Na3 O57 2.544975 1_555
Na3 O58 2.551833 1_555
Na3 O59 2.559567 1_555
Na3 O52 2.783260 1_555
Na3 O51 2.795918 1_555
Na3 O53 2.796942 1_555
Na4 O68 2.532478 1_555
Na4 O66 2.576734 1_555
Na4 O67 2.578901 1_555
Na4 O61 2.703001 1_555
Na4 O60 2.705472 1_555
Na4 O62 2.775075 1_555
Na5 O64 2.530684 1_555
Na5 O63 2.588622 1_555
Na5 O65 2.656170 1_555
Na5 O71 2.677620 1_555
Na5 O69 2.700693 1_555
Na5 O70 2.784001 1_555
Mg0 O6 2.025456 1_545
Mg0 O7 2.045345 1_655
Mg0 O44 2.083706 1_545
Mg0 O43 2.096127 1_655
Mg0 O8 2.144802 1_645
Mg0 O42 2.146003 1_555
Mg1 O47 2.046173 1_555
Mg1 O11 2.053839 1_545
Mg1 O45 2.060015 1_445
Mg1 O10 2.113148 1_555
Mg1 O9 2.127689 1_445
Mg1 O46 2.183990 1_455
Mg2 O30 1.978288 1_555
Mg2 O32 1.981213 1_555
Mg2 O31 1.993453 1_555
Mg2 O66 2.242470 1_555
Mg2 O67 2.260759 1_555
Mg2 O68 2.272283 1_555
O0 S0 1.491597 1_545
O0 Zr0 2.185074 1_555
O1 S1 1.488032 1_555
O1 Zr0 2.184670 1_665
O2 S2 1.491018 1_655
O2 Zr0 2.191216 1_655
O3 P0 1.563623 1_555
O3 Zr1 2.029022 1_555
O4 S3 1.493896 1_555
O4 Zr1 2.174745 1_665
O5 P1 1.566407 1_555
O5 Zr1 2.033770 1_655
O6 P1 1.495450 1_565
O7 P0 1.494097 1_555
O8 S3 1.443203 1_455
O9 S1 1.460201 1_555
O10 S2 1.462379 1_555
O11 S0 1.460699 1_555
O12 S4 1.489609 1_555
O12 Zr2 2.175347 1_555
O13 P2 1.569853 1_555
O13 Zr2 1.999489 1_555
O14 P3 1.562073 1_555
O14 Zr2 2.036574 1_555
O15 P4 1.566210 1_555
O15 Zr3 2.017549 1_555
O16 S5 1.494636 1_555
O16 Zr3 2.150671 1_555
O17 P5 1.564844 1_555
O17 Zr3 2.020650 1_555
O18 P5 1.554027 1_555
O18 Zr4 2.047480 1_554
O19 P4 1.552484 1_555
O19 Zr4 2.055896 1_554
O20 S5 1.482130 1_555
O20 Zr4 2.197924 1_554
O21 P2 1.550613 1_555
O21 Zr5 2.055681 1_555
O22 P3 1.555523 1_555
O22 Zr5 2.039438 1_555
O23 S4 1.483688 1_555
O23 Zr5 2.183720 1_555
O24 P6 1.540366 1_555
O24 Zr6 2.085738 1_556
O25 P7 1.551215 1_555
O25 Zr6 2.027714 1_556
O26 P8 1.546674 1_555
O26 Zr6 2.063705 1_556
O27 P9 1.555910 1_555
O27 Zr7 2.026296 1_555
O28 P10 1.545526 1_555
O28 Zr7 2.071246 1_555
O29 P11 1.549099 1_555
O29 Zr7 2.069250 1_555
O30 P11 1.502991 1_555
O31 P9 1.502199 1_555
O32 P10 1.501159 1_555
O33 P7 1.527916 1_555
O33 Zr8 2.117076 1_555
O34 P8 1.533912 1_555
O34 Zr8 2.084833 1_555
O35 P6 1.536413 1_555
O35 Zr8 2.048613 1_555
O36 P11 1.575164 1_555
O36 Zr0 2.031860 1_565
O37 P9 1.568766 1_555
O37 Zr0 2.029068 1_665
O38 P10 1.568305 1_555
O38 Zr0 2.028536 1_555
O39 P7 1.542478 1_555
O39 Zr1 2.087571 1_555
O40 P8 1.537435 1_555
O40 Zr1 2.139440 1_565
O41 P6 1.531053 1_555
O41 Zr1 2.135807 1_665
O42 S4 1.458392 1_555
O43 P2 1.505701 1_555
O44 P3 1.507079 1_555
O45 P4 1.507381 1_555
O46 S5 1.457846 1_555
O47 P5 1.507034 1_555
O48 P1 1.559102 1_555
O48 Zr2 2.120288 1_555
O49 P0 1.567161 1_555
O49 Zr2 2.073980 1_555
O50 S3 1.491634 1_555
O50 Zr2 2.250564 1_555
O51 S1 1.535297 1_555
O51 Zr3 2.115119 1_555
O52 S2 1.527719 1_655
O52 Zr3 2.160835 1_555
O53 S0 1.523122 1_545
O53 Zr3 2.165465 1_555
O54 P6 1.549736 1_555
O54 Zr4 2.063540 1_555
O55 P7 1.540000 1_655
O55 Zr4 2.115136 1_555
O56 P8 1.545436 1_545
O56 Zr4 2.107849 1_555
O57 P9 1.546990 1_545
O57 Zr5 2.119383 1_555
O58 P10 1.557771 1_555
O58 Zr5 2.065796 1_555
O59 P11 1.550396 1_655
O59 Zr5 2.104968 1_555
O60 P5 1.554196 1_555
O60 Zr6 2.107201 1_555
O61 P4 1.556336 1_455
O61 Zr6 2.100772 1_555
O62 S5 1.490263 1_565
O62 Zr6 2.218375 1_555
O63 P2 1.553686 1_565
O63 Zr7 2.112261 1_555
O64 P3 1.556893 1_555
O64 Zr7 2.124217 1_555
O65 S4 1.490344 1_455
O65 Zr7 2.237350 1_555
O66 S0 1.463501 1_555
O67 S1 1.463102 1_555
O68 S2 1.465038 1_555
O69 P0 1.561129 1_555
O69 Zr8 2.076237 1_555
O70 S3 1.498394 1_455
O70 Zr8 2.174381 1_555
O71 P1 1.567990 1_565
O71 Zr8 2.067597 1_555
