# generated using pymatgen
data_Rb3Pu
_symmetry_space_group_name_H-M   'P 1'
_cell_length_a   6.64682246
_cell_length_b   6.64682246
_cell_length_c   6.64682220
_cell_angle_alpha   90.24066232
_cell_angle_beta   90.24066232
_cell_angle_gamma   90.24065511
_symmetry_Int_Tables_number   1
_chemical_formula_structural   Rb3Pu
_chemical_formula_sum   'Rb3 Pu1'
_cell_volume   293.65046591
_cell_formula_units_Z   1
loop_
 _symmetry_equiv_pos_site_id
 _symmetry_equiv_pos_as_xyz
  1  'x, y, z'
loop_
 _atom_site_type_symbol
 _atom_site_label
 _atom_site_symmetry_multiplicity
 _atom_site_fract_x
 _atom_site_fract_y
 _atom_site_fract_z
 _atom_site_occupancy
  Rb  Rb0  1  0.50000000  0.00000000  0.50000000  1
  Rb  Rb1  1  -0.00000000  0.50000000  0.50000000  1
  Rb  Rb2  1  0.50000000  0.50000000  0.00000000  1
  Pu  Pu0  1  0.00000000  0.00000000  -0.00000000  1
loop_
_geom_bond_atom_site_label_1
_geom_bond_atom_site_label_2
_geom_bond_distance
_geom_bond_site_symmetry_2
Rb0 Rb2 4.690132 1_556
Rb0 Rb2 4.690132 1_545
Rb0 Rb1 4.690132 1_655
Rb0 Rb1 4.690132 1_545
Rb0 Rb1 4.709873 1_555
Rb0 Rb1 4.709873 1_645
Rb0 Rb2 4.709874 1_546
Rb0 Rb2 4.709874 1_555
Rb1 Rb2 4.690132 1_455
Rb1 Rb2 4.690132 1_556
Rb1 Rb2 4.709874 1_456
Rb1 Rb2 4.709874 1_555
Pu0 Rb1 4.690132 1_544
Pu0 Rb0 4.690132 1_555
Pu0 Rb1 4.690132 1_555
Pu0 Rb0 4.690132 1_454
Pu0 Rb2 4.690132 1_445
Pu0 Rb2 4.690132 1_555
Pu0 Rb2 4.709873 1_545
Pu0 Rb2 4.709873 1_455
Pu0 Rb1 4.709874 1_545
Pu0 Rb0 4.709874 1_455
Pu0 Rb0 4.709874 1_554
Pu0 Rb1 4.709874 1_554
