# generated using pymatgen
data_Na3Ti2SiGe2P5O24
_symmetry_space_group_name_H-M   'P 1'
_cell_length_a   8.56087117
_cell_length_b   8.54084895
_cell_length_c   22.04679184
_cell_angle_alpha   90.04546879
_cell_angle_beta   89.90403081
_cell_angle_gamma   119.91687880
_symmetry_Int_Tables_number   1
_chemical_formula_structural   Na3Ti2SiGe2P5O24
_chemical_formula_sum   'Na9 Ti6 Si3 Ge6 P15 O72'
_cell_volume   1397.19677916
_cell_formula_units_Z   3
loop_
 _symmetry_equiv_pos_site_id
 _symmetry_equiv_pos_as_xyz
  1  'x, y, z'
loop_
 _atom_site_type_symbol
 _atom_site_label
 _atom_site_symmetry_multiplicity
 _atom_site_fract_x
 _atom_site_fract_y
 _atom_site_fract_z
 _atom_site_occupancy
  Na  Na0  1  0.36679135  -0.00018386  0.74969384  1
  Na  Na1  1  0.66519061  0.96719764  0.58408062  1
  Na  Na2  1  0.66754368  0.69952892  0.08270832  1
  Na  Na3  1  0.00685554  0.00071574  0.49955122  1
  Na  Na4  1  0.00509471  0.00419249  0.99905836  1
  Na  Na5  1  0.67256136  0.33806348  0.83393216  1
  Na  Na6  1  0.66668432  0.33334881  0.33337158  1
  Na  Na7  1  0.32698028  0.66592017  0.16750028  1
  Na  Na8  1  0.32827225  0.65749438  0.66667330  1
  Ti  Ti0  1  0.00011082  0.00125187  0.35301268  1
  Ti  Ti1  1  0.00608747  0.00057058  0.14580223  1
  Ti  Ti2  1  0.32154500  0.66499687  0.01965114  1
  Ti  Ti3  1  0.32778030  0.66733243  0.52101676  1
  Ti  Ti4  1  0.33321321  0.66536336  0.31373613  1
  Ti  Ti5  1  0.34030736  0.66618068  0.81312264  1
  Si  Si0  1  0.72224172  0.00524830  0.74894902  1
  Si  Si1  1  0.37464434  0.05245146  0.58408022  1
  Si  Si2  1  0.95083656  0.61296459  0.08358379  1
  Ge  Ge0  1  0.99554440  0.00037119  0.85274023  1
  Ge  Ge1  1  0.00295581  0.99864982  0.64718760  1
  Ge  Ge2  1  0.66990808  0.33150315  0.68621521  1
  Ge  Ge3  1  0.67084188  0.33424296  0.18642171  1
  Ge  Ge4  1  0.66876910  0.33614329  0.98040271  1
  Ge  Ge5  1  0.66110506  0.33145732  0.48079680  1
  P  P0  1  0.29429825  0.00434165  0.24942318  1
  P  P1  1  0.71029072  0.70697640  0.24928480  1
  P  P2  1  0.99628092  0.28892017  0.24923992  1
  P  P3  1  0.28485787  0.28643129  0.74945759  1
  P  P4  1  0.99289546  0.70951867  0.74984199  1
  P  P5  1  0.95305851  0.33470371  0.58369366  1
  P  P6  1  0.66921838  0.61590232  0.58399317  1
  P  P7  1  0.66642625  0.05220407  0.08327617  1
  P  P8  1  0.38212900  0.33020968  0.08300223  1
  P  P9  1  0.62738683  0.66640052  0.91756098  1
  P  P10  1  0.03991776  0.37307750  0.91600249  1
  P  P11  1  0.33320287  0.96216271  0.91610386  1
  P  P12  1  0.62304670  0.95977300  0.41744516  1
  P  P13  1  0.33701420  0.37789206  0.41757218  1
  P  P14  1  0.03881889  0.66206460  0.41734248  1
  O  O0  1  0.20622888  0.03523893  0.30573388  1
  O  O1  1  0.82976005  0.79575006  0.30538365  1
  O  O2  1  0.96657277  0.17084828  0.30601426  1
  O  O3  1  0.20844869  0.16358933  0.80648170  1
  O  O4  1  0.96277358  0.79403148  0.80743826  1
  O  O5  1  0.84081078  0.03953066  0.80945830  1
  O  O6  1  0.80069678  0.96344911  0.68725039  1
  O  O7  1  0.16837295  0.20434087  0.69255397  1
  O  O8  1  0.04117691  0.83418908  0.69332595  1
  O  O9  1  0.79274664  0.82411893  0.19204505  1
  O  O10  1  0.03034727  0.20286360  0.19322350  1
  O  O11  1  0.17314964  0.96968520  0.19326861  1
  O  O12  1  0.87344809  0.37225563  0.64096867  1
  O  O13  1  0.50432814  0.12950620  0.64420159  1
  O  O14  1  0.63297684  0.49972649  0.64148532  1
  O  O15  1  0.86541914  0.49388589  0.14388517  1
  O  O16  1  0.62726607  0.12876940  0.14103546  1
  O  O17  1  0.50222980  0.37247526  0.14019416  1
  O  O18  1  0.46176388  0.29415650  0.02541608  1
  O  O19  1  0.82264996  0.53473622  0.02397915  1
  O  O20  1  0.70184979  0.16702122  0.02556575  1
  O  O21  1  0.46648992  0.17158897  0.52386193  1
  O  O22  1  0.70650908  0.53838755  0.52603147  1
  O  O23  1  0.83206031  0.29292514  0.52678552  1
  O  O24  1  0.54424215  0.69968466  0.97447264  1
  O  O25  1  0.15991075  0.46090927  0.97262250  1
  O  O26  1  0.30013256  0.84035652  0.97215835  1
  O  O27  1  0.54044472  0.84238140  0.47465736  1
  O  O28  1  0.30306580  0.46414698  0.47351917  1
  O  O29  1  0.16049056  0.69697997  0.47346538  1
  O  O30  1  0.12702415  0.63135891  0.36097626  1
  O  O31  1  0.50365019  0.87113732  0.36133445  1
  O  O32  1  0.36691873  0.49576287  0.36068320  1
  O  O33  1  0.12784882  0.49382965  0.86035104  1
  O  O34  1  0.36642226  0.87749366  0.85899499  1
  O  O35  1  0.50620664  0.63519340  0.86118822  1
  O  O36  1  0.02274818  0.83234166  0.40950999  1
  O  O37  1  0.80970776  0.97647075  0.40934085  1
  O  O38  1  0.16793271  0.19061889  0.40929568  1
  O  O39  1  0.02699483  0.18601663  0.91002829  1
  O  O40  1  0.16108773  0.97702044  0.90853601  1
  O  O41  1  0.81547472  0.83686520  0.90951400  1
  O  O42  1  0.96843695  0.16171098  0.59001929  1
  O  O43  1  0.17400190  0.02456600  0.59210301  1
  O  O44  1  0.83457443  0.81001323  0.58973026  1
  O  O45  1  0.97108165  0.81362225  0.09076087  1
  O  O46  1  0.83258628  0.02701004  0.09000515  1
  O  O47  1  0.19309764  0.16633245  0.09008629  1
  O  O48  1  0.68851701  0.17840877  0.74287936  1
  O  O49  1  0.47499280  0.30660925  0.74285666  1
  O  O50  1  0.82453630  0.52210752  0.74190205  1
  O  O51  1  0.69001741  0.51737468  0.24303927  1
  O  O52  1  0.82450721  0.30452571  0.24367393  1
  O  O53  1  0.48162892  0.17462755  0.24165881  1
  O  O54  1  0.64026158  0.49223193  0.92273118  1
  O  O55  1  0.85188986  0.35540511  0.92387426  1
  O  O56  1  0.50517125  0.14857270  0.92450192  1
  O  O57  1  0.64313768  0.14936942  0.42390967  1
  O  O58  1  0.50877096  0.36190480  0.42325154  1
  O  O59  1  0.85157804  0.49186766  0.42527880  1
  O  O60  1  0.36646026  0.50221511  0.07630444  1
  O  O61  1  0.15203432  0.64130639  0.07597077  1
  O  O62  1  0.50317291  0.85889329  0.07632962  1
  O  O63  1  0.36068326  0.85349071  0.57596382  1
  O  O64  1  0.50301178  0.64098990  0.57704951  1
  O  O65  1  0.14114328  0.49945453  0.57654710  1
  O  O66  1  0.31062182  0.83422503  0.25716425  1
  O  O67  1  0.52350104  0.69027382  0.25733142  1
  O  O68  1  0.16552400  0.47612432  0.25735829  1
  O  O69  1  0.30448686  0.47359148  0.75710800  1
  O  O70  1  0.16372599  0.69269396  0.75713591  1
  O  O71  1  0.51639359  0.82992522  0.75737596  1
loop_
_geom_bond_atom_site_label_1
_geom_bond_atom_site_label_2
_geom_bond_distance
_geom_bond_site_symmetry_2
Na0 O49 2.307746 1_555
Na0 O70 2.319647 1_545
Na0 O71 2.372588 1_545
Na0 O48 2.396561 1_555
Na0 O13 2.591611 1_555
Na0 O34 2.626597 1_545
Na0 O3 2.691542 1_555
Na0 O8 2.718702 1_545
Na1 O42 2.283718 1_565
Na1 O63 2.290594 1_555
Na1 O64 2.419822 1_555
Na1 O44 2.421401 1_555
Na1 O6 2.562495 1_555
Na1 O27 2.639261 1_555
Na1 O23 2.722341 1_565
Na1 O13 2.733177 1_565
Na2 O60 2.274125 1_555
Na2 O45 2.282325 1_555
Na2 O62 2.400817 1_555
Na2 O46 2.429678 1_565
Na2 O24 2.611179 1_554
Na2 O9 2.637934 1_555
Na2 O19 2.697438 1_555
Na2 O17 2.732783 1_555
Na3 O43 2.443545 1_555
Na3 O36 2.493381 1_545
Na3 O38 2.501331 1_555
Na3 O44 2.525872 1_445
Na3 O42 2.534089 1_455
Na3 O37 2.551255 1_445
Na4 O39 2.452066 1_555
Na4 O40 2.473793 1_545
Na4 O41 2.503405 1_445
Na4 O47 2.513730 1_556
Na4 O45 2.520305 1_446
Na4 O46 2.552624 1_456
Na5 O54 2.449537 1_555
Na5 O48 2.467448 1_555
Na5 O55 2.468553 1_555
Na5 O50 2.497304 1_555
Na5 O56 2.518341 1_555
Na5 O49 2.553802 1_555
Na6 O52 2.473623 1_555
Na6 O58 2.476448 1_555
Na6 O51 2.483334 1_555
Na6 O57 2.486309 1_555
Na6 O53 2.509986 1_555
Na6 O59 2.512554 1_555
Na7 O61 2.460633 1_555
Na7 O66 2.487777 1_555
Na7 O68 2.494764 1_555
Na7 O67 2.541157 1_555
Na7 O62 2.558728 1_555
Na7 O60 2.564408 1_555
Na8 O69 2.483611 1_555
Na8 O65 2.487155 1_555
Na8 O64 2.522280 1_555
Na8 O71 2.530146 1_555
Na8 O63 2.533524 1_555
Na8 O70 2.542526 1_555
Ge0 O5 1.795490 1_555
Ge0 O4 1.920148 1_545
Ge0 O41 1.934481 1_545
Ge0 O39 1.937490 1_655
Ge0 O3 1.940887 1_655
Ge0 O40 1.962031 1_645
Ge1 O43 1.827349 1_565
Ge1 O6 1.828853 1_455
Ge1 O8 1.891189 1_555
Ge1 O7 1.900637 1_565
Ge1 O44 1.991119 1_455
Ge1 O42 2.007484 1_465
Ge2 O13 1.845586 1_555
Ge2 O48 1.872640 1_555
Ge2 O12 1.882082 1_555
Ge2 O14 1.895565 1_555
Ge2 O50 1.939707 1_555
Ge2 O49 2.007123 1_555
Ge3 O15 1.801265 1_555
Ge3 O16 1.888277 1_555
Ge3 O17 1.924719 1_555
Ge3 O52 1.930628 1_555
Ge3 O53 1.938732 1_555
Ge3 O51 1.942401 1_555
Ge4 O19 1.818839 1_556
Ge4 O20 1.889262 1_556
Ge4 O18 1.901244 1_556
Ge4 O55 1.942777 1_555
Ge4 O54 1.944659 1_555
Ge4 O56 1.952294 1_555
Ge5 O21 1.808094 1_555
Ge5 O22 1.892742 1_555
Ge5 O58 1.929313 1_555
Ge5 O23 1.940141 1_555
Ge5 O57 1.942721 1_555
Ge5 O59 1.949784 1_555
O0 P0 1.540821 1_555
O0 Ti0 1.941077 1_555
O1 P1 1.542668 1_555
O1 Ti0 1.938818 1_665
O2 P2 1.547082 1_555
O2 Ti0 1.916360 1_655
O3 P3 1.556910 1_555
O4 P4 1.543712 1_555
O5 Si0 1.613435 1_555
O6 Si0 1.632237 1_565
O7 P3 1.537942 1_555
O8 P4 1.555155 1_455
O9 P1 1.544783 1_555
O9 Ti1 1.974065 1_665
O10 P2 1.536756 1_455
O10 Ti1 1.939393 1_555
O11 P0 1.547089 1_565
O11 Ti1 1.895243 1_565
O12 P5 1.541542 1_555
O13 Si1 1.642351 1_555
O14 P6 1.543050 1_555
O15 Si2 1.610459 1_555
O16 P7 1.541917 1_555
O17 P8 1.552644 1_555
O18 P8 1.541859 1_555
O19 Si2 1.627753 1_555
O20 P7 1.541585 1_555
O21 Si1 1.617646 1_555
O22 P6 1.543138 1_555
O23 P5 1.552221 1_555
O24 P9 1.536248 1_555
O24 Ti2 2.035988 1_556
O25 P10 1.552529 1_555
O25 Ti2 1.903708 1_556
O26 P11 1.548151 1_555
O26 Ti2 1.910523 1_556
O27 P12 1.545349 1_555
O27 Ti3 1.968641 1_555
O28 P13 1.536067 1_555
O28 Ti3 1.945372 1_555
O29 P14 1.548797 1_555
O29 Ti3 1.892456 1_555
O30 P14 1.541796 1_555
O30 Ti4 1.941082 1_555
O31 P12 1.542428 1_555
O31 Ti4 1.939906 1_555
O32 P13 1.547880 1_555
O32 Ti4 1.916533 1_555
O33 P10 1.536288 1_555
O33 Ti5 1.970945 1_555
O34 P11 1.546466 1_555
O34 Ti5 1.981274 1_555
O35 P9 1.555598 1_555
O35 Ti5 1.894861 1_555
O36 P14 1.537473 1_555
O36 Ti0 1.988158 1_565
O37 P12 1.541937 1_555
O37 Ti0 1.973186 1_665
O38 P13 1.542027 1_555
O38 Ti0 1.976019 1_555
O39 P10 1.550970 1_555
O40 P11 1.549960 1_555
O41 P9 1.550783 1_555
O42 P5 1.553776 1_555
O43 Si1 1.621542 1_555
O44 P6 1.558119 1_555
O45 Si2 1.641805 1_555
O45 Ti1 1.905950 1_665
O46 P7 1.548489 1_555
O46 Ti1 2.027698 1_655
O47 P8 1.530490 1_555
O47 Ti1 1.952334 1_555
O48 Si0 1.647688 1_555
O49 P3 1.555567 1_555
O50 P4 1.539238 1_555
O51 P1 1.546217 1_555
O52 P2 1.546424 1_555
O53 P0 1.545755 1_555
O54 P9 1.549772 1_555
O55 P10 1.549430 1_655
O56 P11 1.548832 1_545
O57 P12 1.547247 1_545
O58 P13 1.548314 1_555
O59 P14 1.545417 1_655
O60 P8 1.547561 1_555
O60 Ti2 2.044123 1_555
O61 Si2 1.623802 1_455
O61 Ti2 1.841200 1_555
O62 P7 1.549607 1_565
O62 Ti2 2.038710 1_555
O63 Si1 1.652545 1_565
O63 Ti3 1.904244 1_555
O64 P6 1.548809 1_555
O64 Ti3 2.042157 1_555
O65 P5 1.528706 1_455
O65 Ti3 1.954130 1_555
O66 P0 1.537106 1_565
O66 Ti4 1.988687 1_555
O67 P1 1.542865 1_555
O67 Ti4 1.973150 1_555
O68 P2 1.541865 1_455
O68 Ti4 1.976474 1_555
O69 P3 1.530894 1_555
O69 Ti5 1.954390 1_555
O70 P4 1.547818 1_455
O70 Ti5 2.051390 1_555
O71 Si0 1.658138 1_565
O71 Ti5 1.905889 1_555
