# generated using pymatgen
data_K2Pb2O3
_symmetry_space_group_name_H-M   'P 1'
_cell_length_a   7.30952155
_cell_length_b   7.30952099
_cell_length_c   7.30952142
_cell_angle_alpha   109.47122181
_cell_angle_beta   109.47122028
_cell_angle_gamma   109.47121461
_symmetry_Int_Tables_number   1
_chemical_formula_structural   K2Pb2O3
_chemical_formula_sum   'K4 Pb4 O6'
_cell_volume   300.63874425
_cell_formula_units_Z   2
loop_
 _symmetry_equiv_pos_site_id
 _symmetry_equiv_pos_as_xyz
  1  'x, y, z'
loop_
 _atom_site_type_symbol
 _atom_site_label
 _atom_site_symmetry_multiplicity
 _atom_site_fract_x
 _atom_site_fract_y
 _atom_site_fract_z
 _atom_site_occupancy
  K  K0  1  0.45055059  0.50000000  0.00000000  1
  K  K1  1  0.04944941  0.04944941  0.04944941  1
  K  K2  1  0.00000000  0.45055059  0.50000000  1
  K  K3  1  0.50000000  -0.00000000  0.45055059  1
  Pb  Pb0  1  0.50000000  -0.00000000  0.98469350  1
  Pb  Pb1  1  -0.00000000  0.98469350  0.50000000  1
  Pb  Pb2  1  0.51530650  0.51530650  0.51530650  1
  Pb  Pb3  1  0.98469350  0.50000000  -0.00000000  1
  O  O0  1  0.75000000  0.96214400  0.21214400  1
  O  O1  1  0.25000000  0.53785600  0.28785600  1
  O  O2  1  0.96214400  0.21214400  0.75000000  1
  O  O3  1  0.21214400  0.75000000  0.96214400  1
  O  O4  1  0.28785600  0.25000000  0.53785600  1
  O  O5  1  0.53785600  0.28785600  0.25000000  1
loop_
_geom_bond_atom_site_label_1
_geom_bond_atom_site_label_2
_geom_bond_distance
_geom_bond_site_symmetry_2
K0 O5 2.814700 1_555
K0 O4 2.814700 1_554
K0 O0 2.814700 1_555
K0 O3 2.931089 1_554
K0 O1 2.931089 1_555
K0 O2 2.931089 1_454
K1 O3 2.814700 1_544
K1 O2 2.814700 1_454
K1 O0 2.814700 1_445
K1 O1 2.931089 1_555
K1 O4 2.931089 1_555
K1 O5 2.931089 1_555
K2 O3 2.814700 1_555
K2 O1 2.814700 1_555
K2 O5 2.814700 1_455
K2 O4 2.931089 1_555
K2 O2 2.931089 1_455
K2 O0 2.931089 1_445
K3 O4 2.814700 1_555
K3 O1 2.814700 1_545
K3 O2 2.814700 1_555
K3 O5 2.931089 1_555
K3 O0 2.931089 1_545
K3 O3 2.931089 1_544
O0 Pb0 2.190516 1_564
O0 Pb1 2.190516 1_655
O1 Pb2 2.190516 1_555
O1 Pb3 2.190516 1_455
O2 Pb3 2.190516 1_556
O2 Pb1 2.190516 1_645
O3 Pb3 2.190516 1_456
O3 Pb0 2.190516 1_565
O4 Pb2 2.190516 1_555
O4 Pb1 2.190516 1_545
O5 Pb2 2.190516 1_555
O5 Pb0 2.190516 1_554
