# generated using pymatgen
data_Na3ScTa3Si3(PO8)3
_symmetry_space_group_name_H-M   'P 1'
_cell_length_a   8.87315243
_cell_length_b   8.89509695
_cell_length_c   22.84951522
_cell_angle_alpha   89.94890470
_cell_angle_beta   89.99295297
_cell_angle_gamma   119.90169192
_symmetry_Int_Tables_number   1
_chemical_formula_structural   Na3ScTa3Si3(PO8)3
_chemical_formula_sum   'Na9 Sc3 Ta9 Si9 P9 O72'
_cell_volume   1563.38288124
_cell_formula_units_Z   3
loop_
 _symmetry_equiv_pos_site_id
 _symmetry_equiv_pos_as_xyz
  1  'x, y, z'
loop_
 _atom_site_type_symbol
 _atom_site_label
 _atom_site_symmetry_multiplicity
 _atom_site_fract_x
 _atom_site_fract_y
 _atom_site_fract_z
 _atom_site_occupancy
  Na  Na0  1  0.63957862  0.00285407  0.24906141  1
  Na  Na1  1  0.37099253  0.36248951  0.24798660  1
  Na  Na2  1  0.70753561  0.67549516  0.41452414  1
  Na  Na3  1  0.00719917  0.00714836  0.49445069  1
  Na  Na4  1  0.00149187  0.00125873  0.99967755  1
  Na  Na5  1  0.66716696  0.33302537  0.83047981  1
  Na  Na6  1  0.67541401  0.33782350  0.33231218  1
  Na  Na7  1  0.32801994  0.66434062  0.16419338  1
  Na  Na8  1  0.33535852  0.66594070  0.66548517  1
  Sc  Sc0  1  0.00103219  0.99907597  0.35619792  1
  Sc  Sc1  1  0.66439958  0.33672864  0.68622836  1
  Sc  Sc2  1  0.67047722  0.34466988  0.18298022  1
  Ta  Ta0  1  0.00096693  0.00105437  0.85630154  1
  Ta  Ta1  1  0.99789122  0.99778043  0.64439042  1
  Ta  Ta2  1  0.99810134  0.99818748  0.14490275  1
  Ta  Ta3  1  0.66098346  0.33138758  0.97727814  1
  Ta  Ta4  1  0.66786379  0.33436609  0.47897528  1
  Ta  Ta5  1  0.33398838  0.66376903  0.01910570  1
  Ta  Ta6  1  0.33504587  0.66586391  0.52031247  1
  Ta  Ta7  1  0.33258160  0.66729447  0.31532774  1
  Ta  Ta8  1  0.33329226  0.66649775  0.81299302  1
  Si  Si0  1  0.71071421  0.70584846  0.25167946  1
  Si  Si1  1  0.66450508  0.62110359  0.58434101  1
  Si  Si2  1  0.37497556  0.33396027  0.08418726  1
  Si  Si3  1  0.62094667  0.66689362  0.91609602  1
  Si  Si4  1  0.04523329  0.38013477  0.91624310  1
  Si  Si5  1  0.33403890  0.95249903  0.91657901  1
  Si  Si6  1  0.62167977  0.95960772  0.41755898  1
  Si  Si7  1  0.32855355  0.37306696  0.41779345  1
  Si  Si8  1  0.04550879  0.66671422  0.41837778  1
  P  P0  1  0.28762520  0.99687360  0.24960239  1
  P  P1  1  0.99907470  0.28932925  0.24986575  1
  P  P2  1  0.28619009  0.28711707  0.75028445  1
  P  P3  1  0.00096791  0.71393470  0.75047242  1
  P  P4  1  0.71285987  0.99958355  0.75042043  1
  P  P5  1  0.95576474  0.33438049  0.58441566  1
  P  P6  1  0.37884016  0.04435652  0.58426907  1
  P  P7  1  0.95758113  0.62315621  0.08242058  1
  P  P8  1  0.66503491  0.04326241  0.08376701  1
  O  O0  1  0.21040831  0.03494403  0.30298780  1
  O  O1  1  0.81824838  0.79327799  0.30989035  1
  O  O2  1  0.97034676  0.17756548  0.30368988  1
  O  O3  1  0.19043699  0.17324346  0.80449758  1
  O  O4  1  0.98168972  0.80897291  0.80446794  1
  O  O5  1  0.82692207  0.01779831  0.80445459  1
  O  O6  1  0.80462125  0.97354431  0.69572286  1
  O  O7  1  0.16992483  0.19752619  0.69574054  1
  O  O8  1  0.02766644  0.83172282  0.69579762  1
  O  O9  1  0.80538829  0.83833525  0.19420055  1
  O  O10  1  0.03410894  0.20198544  0.19462265  1
  O  O11  1  0.17086341  0.97228043  0.19435883  1
  O  O12  1  0.87628515  0.36264702  0.63893434  1
  O  O13  1  0.48766313  0.12078231  0.63877742  1
  O  O14  1  0.63336893  0.50558097  0.64118013  1
  O  O15  1  0.88420783  0.51633853  0.13765040  1
  O  O16  1  0.63726685  0.11613073  0.14041563  1
  O  O17  1  0.48268513  0.36590049  0.14362995  1
  O  O18  1  0.47276693  0.30570279  0.02727896  1
  O  O19  1  0.84152124  0.53633274  0.02824783  1
  O  O20  1  0.69599061  0.16087394  0.02962548  1
  O  O21  1  0.46419005  0.15963952  0.52914054  1
  O  O22  1  0.69706085  0.53434820  0.52503611  1
  O  O23  1  0.83976288  0.30160275  0.52915211  1
  O  O24  1  0.53113605  0.69888818  0.97338246  1
  O  O25  1  0.16846851  0.47031320  0.97324904  1
  O  O26  1  0.30192516  0.83277954  0.97397957  1
  O  O27  1  0.52257503  0.83090092  0.47275322  1
  O  O28  1  0.31153927  0.47772789  0.47359875  1
  O  O29  1  0.16562802  0.68892155  0.47459955  1
  O  O30  1  0.13602731  0.63298495  0.35968579  1
  O  O31  1  0.49955806  0.86812769  0.35767255  1
  O  O32  1  0.37097672  0.50219224  0.35871807  1
  O  O33  1  0.13852603  0.50239967  0.85876298  1
  O  O34  1  0.36370381  0.86074608  0.85885522  1
  O  O35  1  0.49781814  0.63565805  0.85883206  1
  O  O36  1  0.01446129  0.82799137  0.41416633  1
  O  O37  1  0.80457938  0.96751645  0.41318265  1
  O  O38  1  0.16309555  0.18743504  0.41316067  1
  O  O39  1  0.02516891  0.18878146  0.90670513  1
  O  O40  1  0.16476465  0.97624712  0.90660289  1
  O  O41  1  0.81250969  0.83698328  0.90676695  1
  O  O42  1  0.97811403  0.17024831  0.59202289  1
  O  O43  1  0.19414770  0.02716087  0.59202862  1
  O  O44  1  0.83979037  0.81754544  0.59279746  1
  O  O45  1  0.97496971  0.80707150  0.09032741  1
  O  O46  1  0.83127231  0.02338367  0.08994841  1
  O  O47  1  0.18007349  0.15932335  0.09059013  1
  O  O48  1  0.69380619  0.15912921  0.74569714  1
  O  O49  1  0.46499696  0.30426579  0.74694581  1
  O  O50  1  0.84203378  0.53453699  0.74616806  1
  O  O51  1  0.67407040  0.50956630  0.24586678  1
  O  O52  1  0.83736204  0.30451642  0.24164603  1
  O  O53  1  0.47287106  0.15175840  0.24194567  1
  O  O54  1  0.64348093  0.49722276  0.92564843  1
  O  O55  1  0.85410266  0.35799555  0.92632776  1
  O  O56  1  0.50557397  0.14426523  0.92519804  1
  O  O57  1  0.63381000  0.14673037  0.42546986  1
  O  O58  1  0.51263797  0.37112600  0.42554622  1
  O  O59  1  0.85325201  0.49000073  0.42548331  1
  O  O60  1  0.35088598  0.50402036  0.07447793  1
  O  O61  1  0.14305089  0.65077021  0.07392594  1
  O  O62  1  0.50528829  0.86017466  0.07428370  1
  O  O63  1  0.34960871  0.85953846  0.57473379  1
  O  O64  1  0.49816740  0.65107517  0.57567121  1
  O  O65  1  0.13895644  0.49284853  0.57508908  1
  O  O66  1  0.30466480  0.83033781  0.25428349  1
  O  O67  1  0.51438430  0.69376806  0.25447619  1
  O  O68  1  0.16988565  0.46997387  0.25459531  1
  O  O69  1  0.29975338  0.46861404  0.75685030  1
  O  O70  1  0.17013070  0.70175672  0.75640598  1
  O  O71  1  0.53215868  0.83069687  0.75650373  1
loop_
_geom_bond_atom_site_label_1
_geom_bond_atom_site_label_2
_geom_bond_distance
_geom_bond_site_symmetry_2
Na0 O52 2.369132 1_555
Na0 O67 2.400528 1_545
Na0 O53 2.433513 1_555
Na0 O66 2.579377 1_545
Na0 O16 2.682289 1_555
Na0 O31 2.765524 1_545
Na0 O9 2.833196 1_545
Na0 O2 2.836192 1_555
Na1 O51 2.331964 1_555
Na1 O68 2.412959 1_555
Na1 O53 2.457596 1_555
Na1 O67 2.566496 1_555
Na1 O17 2.576485 1_555
Na1 O32 2.819879 1_555
Na1 O0 2.819998 1_555
Na1 O10 2.865228 1_555
Na2 O37 2.293359 1_555
Na2 O36 2.360874 1_655
Na2 O58 2.390529 1_555
Na2 O59 2.565796 1_555
Na2 O1 2.597610 1_555
Na2 O22 2.799867 1_555
Na2 O32 2.887061 1_555
Na2 O27 2.939270 1_555
Na3 O38 2.391157 1_555
Na3 O36 2.452872 1_545
Na3 O37 2.484937 1_445
Na3 O43 2.731618 1_555
Na3 O42 2.742425 1_455
Na3 O44 2.755968 1_445
Na4 O47 2.566645 1_556
Na4 O46 2.621225 1_456
Na4 O45 2.630116 1_446
Na4 O39 2.642653 1_555
Na4 O40 2.644372 1_545
Na4 O41 2.649051 1_445
Na5 O49 2.543780 1_555
Na5 O50 2.559676 1_555
Na5 O48 2.563439 1_555
Na5 O56 2.674239 1_555
Na5 O54 2.686575 1_555
Na5 O55 2.689151 1_555
Na6 O51 2.499650 1_555
Na6 O59 2.594405 1_555
Na6 O52 2.620953 1_555
Na6 O57 2.631400 1_555
Na6 O58 2.671931 1_555
Na6 O53 2.697046 1_555
Na7 O60 2.563343 1_555
Na7 O67 2.574666 1_555
Na7 O61 2.601198 1_555
Na7 O66 2.602127 1_555
Na7 O68 2.607497 1_555
Na7 O62 2.643871 1_555
Na8 O64 2.550724 1_555
Na8 O71 2.641433 1_555
Na8 O69 2.641851 1_555
Na8 O65 2.646747 1_555
Na8 O70 2.651987 1_555
Na8 O63 2.656672 1_555
O0 P0 1.517883 1_545
O0 Sc0 2.106969 1_545
O1 Si0 1.595838 1_555
O1 Sc0 2.035888 1_655
O2 P1 1.520176 1_555
O2 Sc0 2.112352 1_645
O3 P2 1.556219 1_555
O3 Ta0 2.000605 1_555
O4 P3 1.553093 1_655
O4 Ta0 2.015820 1_665
O5 P4 1.553101 1_545
O5 Ta0 2.009988 1_655
O6 P4 1.570642 1_555
O6 Ta1 1.998399 1_555
O7 P2 1.560457 1_555
O7 Ta1 2.040525 1_445
O8 P3 1.569945 1_555
O8 Ta1 2.004357 1_455
O9 Si0 1.682072 1_555
O9 Ta2 1.946058 1_555
O10 P1 1.592501 1_455
O10 Ta2 2.026153 1_445
O11 P0 1.577803 1_555
O11 Ta2 2.008034 1_455
O12 P5 1.513123 1_555
O12 Sc1 2.079084 1_555
O13 P6 1.514301 1_555
O13 Sc1 2.079742 1_555
O14 Si1 1.591691 1_555
O14 Sc1 1.949575 1_555
O15 P7 1.516621 1_555
O15 Sc2 2.027444 1_555
O16 P8 1.522148 1_555
O16 Sc2 2.138146 1_555
O17 Si2 1.602878 1_555
O17 Sc2 1.983557 1_555
O18 Si2 1.650674 1_555
O18 Ta3 1.940433 1_554
O19 P7 1.548622 1_555
O19 Ta3 2.082910 1_554
O20 P8 1.552885 1_555
O20 Ta3 2.072256 1_554
O21 P6 1.560451 1_555
O21 Ta4 2.047288 1_555
O22 Si1 1.655070 1_555
O22 Ta4 1.970552 1_555
O23 P5 1.562293 1_555
O23 Ta4 2.041804 1_555
O24 Si3 1.629716 1_555
O24 Ta5 1.924408 1_556
O25 Si4 1.632021 1_555
O25 Ta5 1.923509 1_556
O26 Si5 1.621833 1_555
O26 Ta5 1.956523 1_556
O27 Si6 1.633375 1_555
O27 Ta6 1.914693 1_555
O28 Si7 1.630226 1_555
O28 Ta6 1.907513 1_555
O29 Si8 1.617468 1_555
O29 Ta6 1.923620 1_555
O30 Si8 1.665634 1_555
O30 Ta7 1.905389 1_555
O31 Si6 1.682859 1_555
O31 Ta7 1.920203 1_555
O32 Si7 1.687914 1_555
O32 Ta7 1.937047 1_555
O33 Si4 1.640920 1_555
O33 Ta8 1.921657 1_555
O34 Si5 1.640448 1_555
O34 Ta8 1.922211 1_555
O35 Si3 1.637448 1_555
O35 Ta8 1.924226 1_555
O36 Si8 1.592783 1_555
O36 Sc0 2.064411 1_555
O37 Si6 1.592124 1_555
O37 Sc0 2.079349 1_655
O38 Si7 1.573685 1_555
O38 Sc0 2.042386 1_545
O39 Si4 1.635511 1_555
O39 Ta0 1.951124 1_555
O40 Si5 1.633682 1_555
O40 Ta0 1.949825 1_565
O41 Si3 1.630645 1_555
O41 Ta0 1.954275 1_665
O42 P5 1.577744 1_555
O42 Ta1 2.020221 1_545
O43 P6 1.578122 1_555
O43 Ta1 2.019275 1_445
O44 Si1 1.673533 1_555
O44 Ta1 1.920785 1_555
O45 P7 1.575320 1_555
O45 Ta2 2.035467 1_555
O46 P8 1.577036 1_555
O46 Ta2 2.036906 1_545
O47 Si2 1.657214 1_555
O47 Ta2 1.972450 1_445
O48 P4 1.514344 1_545
O48 Sc1 2.194859 1_555
O49 P2 1.518216 1_555
O49 Sc1 2.151274 1_555
O50 P3 1.517073 1_655
O50 Sc1 2.166979 1_555
O51 Si0 1.614349 1_555
O51 Sc2 2.043119 1_555
O52 P1 1.518471 1_555
O52 Sc2 2.155036 1_555
O53 P0 1.540184 1_545
O53 Sc2 2.197658 1_555
O54 Si3 1.632703 1_555
O54 Ta3 1.953759 1_555
O55 Si4 1.623237 1_655
O55 Ta3 1.985537 1_555
O56 Si5 1.636223 1_545
O56 Ta3 1.950293 1_555
O57 Si6 1.623778 1_545
O57 Ta4 1.967888 1_555
O58 Si7 1.651632 1_555
O58 Ta4 1.985734 1_555
O59 Si8 1.653266 1_655
O59 Ta4 1.960200 1_555
O60 Si2 1.644678 1_555
O60 Ta5 1.962582 1_555
O61 P7 1.550209 1_455
O61 Ta5 2.063176 1_555
O62 P8 1.551626 1_565
O62 Ta5 2.075792 1_555
O63 P6 1.546904 1_565
O63 Ta6 2.076724 1_555
O64 Si1 1.637379 1_555
O64 Ta6 1.975422 1_555
O65 P5 1.545797 1_455
O65 Ta6 2.070906 1_555
O66 P0 1.565801 1_555
O66 Ta7 2.113032 1_555
O67 Si0 1.692260 1_555
O67 Ta7 2.052110 1_555
O68 P1 1.569390 1_455
O68 Ta7 2.137522 1_555
O69 P2 1.565281 1_555
O69 Ta8 2.077105 1_555
O70 P3 1.563737 1_555
O70 Ta8 2.078131 1_555
O71 P4 1.563648 1_555
O71 Ta8 2.083141 1_555
