# generated using pymatgen
data_TePdI
_symmetry_space_group_name_H-M   'P 1'
_cell_length_a   5.75684511
_cell_length_b   7.97773996
_cell_length_c   7.97773996
_cell_angle_alpha   90.00000000
_cell_angle_beta   90.00000000
_cell_angle_gamma   90.00000000
_symmetry_Int_Tables_number   1
_chemical_formula_structural   TePdI
_chemical_formula_sum   'Te4 Pd4 I4'
_cell_volume   366.39057797
_cell_formula_units_Z   4
loop_
 _symmetry_equiv_pos_site_id
 _symmetry_equiv_pos_as_xyz
  1  'x, y, z'
loop_
 _atom_site_type_symbol
 _atom_site_label
 _atom_site_symmetry_multiplicity
 _atom_site_fract_x
 _atom_site_fract_y
 _atom_site_fract_z
 _atom_site_occupancy
  Te  Te0  1  0.00000000  0.21024698  0.00000000  1
  Te  Te1  1  0.50000000  -0.00000000  0.21024698  1
  Te  Te2  1  0.50000000  -0.00000000  0.78975202  1
  Te  Te3  1  0.00000000  0.78975202  0.00000000  1
  Pd  Pd0  1  -0.00000000  -0.00000000  0.25020881  1
  Pd  Pd1  1  0.50000000  0.74979119  0.00000000  1
  Pd  Pd2  1  0.50000000  0.25020881  0.00000000  1
  Pd  Pd3  1  -0.00000000  -0.00000000  0.74979119  1
  I  I0  1  0.00000000  0.23625655  0.50000000  1
  I  I1  1  0.50000000  0.50000000  0.23625655  1
  I  I2  1  0.50000000  0.50000000  0.76374345  1
  I  I3  1  0.00000000  0.76374345  0.50000000  1
loop_
_geom_bond_atom_site_label_1
_geom_bond_atom_site_label_2
_geom_bond_distance
_geom_bond_site_symmetry_2
Pd0 Te0 2.607247 1_555
Pd0 Te3 2.607253 1_545
Pd0 Te1 2.896024 1_555
Pd0 Te1 2.896024 1_455
Pd1 Te1 2.607247 1_565
Pd1 Te2 2.607253 1_564
Pd1 Te3 2.896023 1_555
Pd1 Te3 2.896023 1_655
Pd2 Te1 2.607247 1_555
Pd2 Te2 2.607253 1_554
Pd2 Te0 2.896024 1_655
Pd2 Te0 2.896024 1_555
Pd3 Te0 2.607247 1_556
Pd3 Te3 2.607253 1_546
Pd3 Te2 2.896023 1_455
Pd3 Te2 2.896023 1_555
I0 Pd0 2.742914 1_555
I0 Pd3 2.742914 1_555
I1 Pd2 2.742914 1_555
I1 Pd1 2.742914 1_555
I2 Pd2 2.742914 1_556
I2 Pd1 2.742914 1_556
I3 Pd0 2.742914 1_565
I3 Pd3 2.742914 1_565
