# generated using pymatgen
data_Na18Ca16Nb8Si9(S3O16)9
_symmetry_space_group_name_H-M   'P 1'
_cell_length_a   18.32814891
_cell_length_b   9.18938500
_cell_length_c   23.54657220
_cell_angle_alpha   90.06297155
_cell_angle_beta   90.18155054
_cell_angle_gamma   120.03556288
_symmetry_Int_Tables_number   1
_chemical_formula_structural   Na18Ca16Nb8Si9(S3O16)9
_chemical_formula_sum   'Na18 Ca16 Nb8 Si9 S27 O144'
_cell_volume   3433.23368249
_cell_formula_units_Z   1
loop_
 _symmetry_equiv_pos_site_id
 _symmetry_equiv_pos_as_xyz
  1  'x, y, z'
loop_
 _atom_site_type_symbol
 _atom_site_label
 _atom_site_symmetry_multiplicity
 _atom_site_fract_x
 _atom_site_fract_y
 _atom_site_fract_z
 _atom_site_occupancy
  Na  Na0  1  0.35577847  0.03951699  0.90508949  1
  Na  Na1  1  0.84809545  0.03573519  0.90570971  1
  Na  Na2  1  0.66390842  0.28161119  0.90422912  1
  Na  Na3  1  0.16407278  0.04772440  0.40861335  1
  Na  Na4  1  0.34496041  0.65387017  0.42033231  1
  Na  Na5  1  0.85492333  0.67278365  0.40816406  1
  Na  Na6  1  0.01240724  0.04112689  0.50030506  1
  Na  Na7  1  0.50977838  0.01052771  0.50722717  1
  Na  Na8  1  0.00821558  0.00783742  0.99912820  1
  Na  Na9  1  0.50947969  0.98235010  0.99124867  1
  Na  Na10  1  0.32338032  0.32493150  0.81814826  1
  Na  Na11  1  0.82270269  0.30877755  0.82170173  1
  Na  Na12  1  0.32098177  0.31636554  0.32963340  1
  Na  Na13  1  0.82332910  0.32339266  0.31931992  1
  Na  Na14  1  0.16630554  0.67003398  0.16389630  1
  Na  Na15  1  0.67063653  0.67151162  0.16088161  1
  Na  Na16  1  0.16838035  0.67183237  0.66176986  1
  Na  Na17  1  0.66806979  0.66356729  0.66682626  1
  Ca  Ca0  1  0.00332835  0.01185025  0.34867615  1
  Ca  Ca1  1  0.50512686  0.00930616  0.35178746  1
  Ca  Ca2  1  0.00358219  0.00211220  0.85020550  1
  Ca  Ca3  1  0.50304690  0.99470020  0.84859008  1
  Ca  Ca4  1  0.33030577  0.32912706  0.68388543  1
  Ca  Ca5  1  0.82851862  0.33065274  0.68571944  1
  Ca  Ca6  1  0.32861022  0.32498174  0.18460386  1
  Ca  Ca7  1  0.83176180  0.33093834  0.18432262  1
  Ca  Ca8  1  0.33104010  0.33995181  0.98236645  1
  Ca  Ca9  1  0.83351889  0.32659290  0.98023603  1
  Ca  Ca10  1  0.33243605  0.33466730  0.48580358  1
  Ca  Ca11  1  0.83009168  0.32125719  0.48710274  1
  Ca  Ca12  1  0.16474193  0.66238027  0.02031096  1
  Ca  Ca13  1  0.66458246  0.67214166  0.01834299  1
  Ca  Ca14  1  0.16509081  0.65736459  0.52161415  1
  Ca  Ca15  1  0.66407808  0.66650505  0.52180856  1
  Nb  Nb0  1  0.99936068  0.00991936  0.65614958  1
  Nb  Nb1  1  0.49963592  0.01134164  0.65868856  1
  Nb  Nb2  1  0.99982013  0.98528603  0.15663770  1
  Nb  Nb3  1  0.50522092  0.99968418  0.15136824  1
  Nb  Nb4  1  0.16337828  0.65827738  0.31300488  1
  Nb  Nb5  1  0.66953284  0.67499236  0.30792708  1
  Nb  Nb6  1  0.16803546  0.66283628  0.80732490  1
  Nb  Nb7  1  0.67144930  0.68243269  0.80892019  1
  Si  Si0  1  0.15126725  0.99412440  0.25635506  1
  Si  Si1  1  0.64892892  0.99860799  0.25345713  1
  Si  Si2  1  0.85261305  0.70119514  0.25693252  1
  Si  Si3  1  0.15004132  0.29764508  0.75381293  1
  Si  Si4  1  0.65023623  0.31006357  0.75732475  1
  Si  Si5  1  0.35158019  0.00284645  0.75722357  1
  Si  Si6  1  0.85316983  0.00469186  0.75653378  1
  Si  Si7  1  0.66625485  0.96281892  0.91696296  1
  Si  Si8  1  0.16721642  0.36815594  0.41702572  1
  S  S0  1  0.35130206  0.71361058  0.25116562  1
  S  S1  1  0.00576878  0.30132092  0.24881858  1
  S  S2  1  0.50461583  0.29762966  0.24980636  1
  S  S3  1  0.00520367  0.71261201  0.74983963  1
  S  S4  1  0.50497432  0.71028245  0.74824340  1
  S  S5  1  0.48382293  0.32039433  0.58649406  1
  S  S6  1  0.98261198  0.32144846  0.58767573  1
  S  S7  1  0.17448968  0.02847504  0.58455390  1
  S  S8  1  0.67479208  0.03008342  0.58618984  1
  S  S9  1  0.34196594  0.65244375  0.58486968  1
  S  S10  1  0.84074966  0.64851882  0.58336657  1
  S  S11  1  0.48276819  0.64223220  0.08853765  1
  S  S12  1  0.98392827  0.64441557  0.08653790  1
  S  S13  1  0.33964583  0.03141096  0.08511259  1
  S  S14  1  0.84110527  0.03011096  0.08571231  1
  S  S15  1  0.17569919  0.32135944  0.08692896  1
  S  S16  1  0.67643058  0.32431234  0.08583052  1
  S  S17  1  0.30693452  0.66254041  0.91350122  1
  S  S18  1  0.80894772  0.66421319  0.91451945  1
  S  S19  1  0.02260869  0.37882412  0.91447923  1
  S  S20  1  0.51974557  0.37679477  0.91492871  1
  S  S21  1  0.16833841  0.95172216  0.91526481  1
  S  S22  1  0.30777266  0.95031721  0.41353199  1
  S  S23  1  0.80678020  0.95218740  0.41365444  1
  S  S24  1  0.66870370  0.38644081  0.41458727  1
  S  S25  1  0.02087387  0.66089686  0.41402311  1
  S  S26  1  0.52113625  0.66353884  0.41368286  1
  O  O0  1  0.11199544  0.01250283  0.31362227  1
  O  O1  1  0.60243413  0.01620136  0.30588167  1
  O  O2  1  0.39578138  0.78664006  0.30408244  1
  O  O3  1  0.89511671  0.78047409  0.31569332  1
  O  O4  1  0.49056904  0.20063759  0.30100289  1
  O  O5  1  0.99405163  0.21011549  0.30128272  1
  O  O6  1  0.10807525  0.19139949  0.80768724  1
  O  O7  1  0.61170739  0.20688016  0.81306456  1
  O  O8  1  0.49273290  0.77787703  0.80038113  1
  O  O9  1  0.99322777  0.78162881  0.80175286  1
  O  O10  1  0.39456907  0.00828694  0.81548327  1
  O  O11  1  0.89533837  0.00668339  0.81495451  1
  O  O12  1  0.40559114  0.97287814  0.70144257  1
  O  O13  1  0.90810457  0.97617932  0.70045688  1
  O  O14  1  0.08317466  0.19019147  0.69678157  1
  O  O15  1  0.58072218  0.18779611  0.70081285  1
  O  O16  1  0.01900619  0.82705894  0.69946878  1
  O  O17  1  0.51601128  0.82566721  0.69823501  1
  O  O18  1  0.39811129  0.82837489  0.20133649  1
  O  O19  1  0.90707294  0.83894183  0.20144846  1
  O  O20  1  0.01905105  0.21444069  0.19905574  1
  O  O21  1  0.51576849  0.20627046  0.19927774  1
  O  O22  1  0.08264490  0.97628365  0.20034066  1
  O  O23  1  0.58184523  0.97653452  0.19627753  1
  O  O24  1  0.44264714  0.34139942  0.63541483  1
  O  O25  1  0.93920526  0.33730938  0.63613328  1
  O  O26  1  0.22989958  0.11961374  0.63171678  1
  O  O27  1  0.72826128  0.11474086  0.63463226  1
  O  O28  1  0.33301955  0.54173637  0.63144250  1
  O  O29  1  0.83098822  0.53939292  0.63079722  1
  O  O30  1  0.43929955  0.54265613  0.13818746  1
  O  O31  1  0.94305578  0.54336373  0.13622422  1
  O  O32  1  0.32960438  0.12116028  0.13287219  1
  O  O33  1  0.83133570  0.12099061  0.13339526  1
  O  O34  1  0.22921967  0.34521856  0.13622351  1
  O  O35  1  0.72923091  0.34058322  0.13416471  1
  O  O36  1  0.21082619  0.29377814  0.03432806  1
  O  O37  1  0.70601519  0.29218327  0.03203971  1
  O  O38  1  0.43533850  0.57708057  0.03555204  1
  O  O39  1  0.93573887  0.57705506  0.03392654  1
  O  O40  1  0.35464054  0.12383393  0.03129432  1
  O  O41  1  0.85320063  0.12025992  0.03147824  1
  O  O42  1  0.20777184  0.11837665  0.52967523  1
  O  O43  1  0.70945668  0.12579259  0.53261108  1
  O  O44  1  0.35266786  0.58559097  0.52938926  1
  O  O45  1  0.85182363  0.57936898  0.52866843  1
  O  O46  1  0.43599521  0.29297642  0.53316679  1
  O  O47  1  0.93597328  0.29510276  0.53367754  1
  O  O48  1  0.26594136  0.67634357  0.96476790  1
  O  O49  1  0.76850937  0.67916618  0.96577862  1
  O  O50  1  0.06912672  0.45980128  0.96666041  1
  O  O51  1  0.56778677  0.45295208  0.96741042  1
  O  O52  1  0.16408820  0.86170330  0.96742347  1
  O  O53  1  0.66413854  0.86104925  0.97136967  1
  O  O54  1  0.26855899  0.85717570  0.46472333  1
  O  O55  1  0.76498652  0.85437755  0.46390344  1
  O  O56  1  0.16792599  0.47829427  0.46865753  1
  O  O57  1  0.66356734  0.46733088  0.46631229  1
  O  O58  1  0.07105571  0.68191497  0.46430150  1
  O  O59  1  0.56896398  0.68247630  0.46544997  1
  O  O60  1  0.06956746  0.65300651  0.36153164  1
  O  O61  1  0.57013006  0.65895502  0.36265077  1
  O  O62  1  0.25319806  0.85622599  0.36125090  1
  O  O63  1  0.75284426  0.85325587  0.36116503  1
  O  O64  1  0.16842013  0.49495330  0.35823650  1
  O  O65  1  0.67171676  0.49056117  0.36319670  1
  O  O66  1  0.07124700  0.48103958  0.86365355  1
  O  O67  1  0.56557297  0.47825026  0.86444432  1
  O  O68  1  0.17165728  0.85422702  0.86418268  1
  O  O69  1  0.66894354  0.84198867  0.85898129  1
  O  O70  1  0.25344039  0.65357863  0.86186036  1
  O  O71  1  0.75588211  0.65155886  0.86239144  1
  O  O72  1  0.01046818  0.80933554  0.40908278  1
  O  O73  1  0.50497941  0.80685890  0.41029179  1
  O  O74  1  0.39037121  0.96142025  0.40711903  1
  O  O75  1  0.88941599  0.96394949  0.40939121  1
  O  O76  1  0.08775088  0.17939581  0.41790243  1
  O  O77  1  0.59542958  0.21662174  0.41112559  1
  O  O78  1  0.00926841  0.20602696  0.91311871  1
  O  O79  1  0.50820061  0.20448321  0.91203208  1
  O  O80  1  0.09509829  0.97532147  0.91273196  1
  O  O81  1  0.58840066  0.99639778  0.91662072  1
  O  O82  1  0.38991115  0.81541003  0.91010016  1
  O  O83  1  0.89324590  0.81444106  0.91108407  1
  O  O84  1  0.49065580  0.16013219  0.59460788  1
  O  O85  1  0.98998970  0.16102257  0.59454048  1
  O  O86  1  0.08891570  0.01392496  0.59330583  1
  O  O87  1  0.58862542  0.01405766  0.59398863  1
  O  O88  1  0.42095484  0.82236249  0.59320416  1
  O  O89  1  0.91947197  0.81901086  0.59261524  1
  O  O90  1  0.48903497  0.81859611  0.09706723  1
  O  O91  1  0.99100302  0.81999129  0.09536456  1
  O  O92  1  0.41764508  0.01540238  0.09745697  1
  O  O93  1  0.92086492  0.01925293  0.09578847  1
  O  O94  1  0.08977035  0.16487738  0.09561831  1
  O  O95  1  0.58780904  0.16265989  0.09671866  1
  O  O96  1  0.33480614  0.15048508  0.74343534  1
  O  O97  1  0.83883550  0.15569780  0.74359513  1
  O  O98  1  0.24446533  0.35392578  0.74178506  1
  O  O99  1  0.74201725  0.35014399  0.74321622  1
  O  O100  1  0.43585907  0.54228971  0.73762014  1
  O  O101  1  0.93730270  0.54440749  0.73888584  1
  O  O102  1  0.34029611  0.54699687  0.24175920  1
  O  O103  1  0.83501869  0.51901483  0.24323957  1
  O  O104  1  0.43656191  0.33146239  0.23911566  1
  O  O105  1  0.93737177  0.33410609  0.23938059  1
  O  O106  1  0.24350699  0.14580726  0.24493142  1
  O  O107  1  0.74310485  0.13672805  0.24254389  1
  O  O108  1  0.31322823  0.50896739  0.91274839  1
  O  O109  1  0.81230998  0.50669043  0.91502595  1
  O  O110  1  0.43391633  0.35824064  0.91715593  1
  O  O111  1  0.93905191  0.36775153  0.91355306  1
  O  O112  1  0.24945671  0.11644409  0.91467255  1
  O  O113  1  0.75607260  0.14220602  0.91046963  1
  O  O114  1  0.31341899  0.11633944  0.41317248  1
  O  O115  1  0.81271550  0.11745922  0.41242348  1
  O  O116  1  0.25597547  0.36665784  0.40993424  1
  O  O117  1  0.74963478  0.38334234  0.41354392  1
  O  O118  1  0.43810832  0.50636706  0.41343510  1
  O  O119  1  0.93744136  0.50673879  0.41362725  1
  O  O120  1  0.16288008  0.46729773  0.08248160  1
  O  O121  1  0.65962133  0.46408282  0.08360964  1
  O  O122  1  0.07121538  0.67783109  0.08267707  1
  O  O123  1  0.56920464  0.67369917  0.08623473  1
  O  O124  1  0.26714431  0.85919437  0.08186771  1
  O  O125  1  0.76882270  0.85650809  0.08389134  1
  O  O126  1  0.16185870  0.85660674  0.58205164  1
  O  O127  1  0.66240217  0.85854929  0.58144318  1
  O  O128  1  0.26890640  0.67965298  0.58323918  1
  O  O129  1  0.76759174  0.67514081  0.58014620  1
  O  O130  1  0.06923886  0.46512342  0.58484617  1
  O  O131  1  0.57094383  0.46276147  0.58211034  1
  O  O132  1  0.15142033  0.81010573  0.25866068  1
  O  O133  1  0.64645465  0.80987777  0.25930621  1
  O  O134  1  0.26552548  0.70178714  0.25324162  1
  O  O135  1  0.75628727  0.69393454  0.26046797  1
  O  O136  1  0.08736931  0.47365330  0.25342008  1
  O  O137  1  0.58669278  0.46422528  0.25457133  1
  O  O138  1  0.14626757  0.48191933  0.76001344  1
  O  O139  1  0.64515424  0.48772882  0.75956236  1
  O  O140  1  0.08731295  0.70648384  0.75502243  1
  O  O141  1  0.58670009  0.70649912  0.75071993  1
  O  O142  1  0.25582636  0.81740016  0.76049028  1
  O  O143  1  0.75809128  0.82053916  0.75753502  1
loop_
_geom_bond_atom_site_label_1
_geom_bond_atom_site_label_2
_geom_bond_distance
_geom_bond_site_symmetry_2
Na0 O10 2.291727 1_555
Na0 O112 2.393630 1_555
Na0 O79 2.426137 1_555
Na0 O82 2.436437 1_545
Na0 O110 2.550800 1_555
Na1 O113 2.338245 1_555
Na1 O11 2.372668 1_555
Na1 O83 2.553565 1_545
Na1 O78 2.563965 1_655
Na1 O111 2.650860 1_555
Na2 O81 2.289727 1_545
Na2 O7 2.306713 1_555
Na2 O109 2.470494 1_555
Na2 O79 2.580548 1_555
Na2 O113 2.584798 1_555
Na3 O76 2.272528 1_555
Na3 O0 2.386273 1_555
Na3 O114 2.484310 1_555
Na3 O116 2.546624 1_555
Na3 O72 2.559536 1_545
Na3 O42 2.941052 1_555
Na4 O116 2.317910 1_555
Na4 O74 2.534899 1_555
Na4 O73 2.551758 1_555
Na4 O118 2.663856 1_555
Na4 O44 2.664172 1_555
Na4 O2 2.955462 1_555
Na5 O3 2.355429 1_555
Na5 O117 2.382959 1_555
Na5 O75 2.421965 1_555
Na5 O72 2.474021 1_655
Na5 O119 2.634674 1_555
Na5 O45 2.957851 1_555
Na6 O76 2.356276 1_555
Na6 O85 2.599980 1_455
Na6 O86 2.675237 1_555
Na6 O89 2.888727 1_445
Na6 O75 2.921079 1_445
Na6 O72 3.010932 1_545
Na7 O87 2.489423 1_555
Na7 O84 2.593630 1_555
Na7 O88 2.636134 1_545
Na7 O77 2.868337 1_555
Na7 O73 2.923169 1_545
Na8 O80 2.694263 1_545
Na8 O94 2.700135 1_556
Na8 O78 2.718826 1_555
Na8 O91 2.771670 1_446
Na8 O93 2.818702 1_456
Na8 O83 2.848131 1_445
Na9 O81 2.241986 1_555
Na9 O82 2.721855 1_555
Na9 O79 2.775353 1_565
Na9 O90 2.839525 1_556
Na9 O95 2.925933 1_566
Na10 O98 2.401344 1_555
Na10 O96 2.457792 1_555
Na10 O100 2.783143 1_555
Na10 O112 2.846485 1_555
Na10 O108 2.857596 1_555
Na10 O110 2.996779 1_555
Na11 O97 2.421333 1_555
Na11 O99 2.508727 1_555
Na11 O113 2.520936 1_555
Na11 O111 2.886180 1_555
Na11 O101 2.895717 1_555
Na11 O109 2.917784 1_555
Na12 O116 2.402472 1_555
Na12 O106 2.489549 1_555
Na12 O114 2.649873 1_555
Na12 O118 2.786390 1_555
Na12 O102 2.856843 1_555
Na12 O104 2.963881 1_555
Na13 O107 2.413293 1_555
Na13 O103 2.471967 1_555
Na13 O105 2.782261 1_555
Na13 O117 2.794896 1_555
Na13 O115 2.840488 1_555
Na13 O119 2.928961 1_555
Na14 O122 2.608481 1_555
Na14 O124 2.642336 1_555
Na14 O120 2.650305 1_555
Na14 O132 2.656948 1_555
Na14 O136 2.684653 1_555
Na14 O134 2.694667 1_555
Na15 O125 2.525827 1_555
Na15 O123 2.561780 1_555
Na15 O121 2.567000 1_555
Na15 O135 2.767169 1_555
Na15 O133 2.783598 1_555
Na15 O137 2.821201 1_555
Na16 O126 2.574800 1_555
Na16 O130 2.589793 1_555
Na16 O128 2.590061 1_555
Na16 O142 2.754062 1_555
Na16 O140 2.761024 1_555
Na16 O138 2.805002 1_555
Na17 O141 2.624496 1_555
Na17 O139 2.624830 1_555
Na17 O143 2.636918 1_555
Na17 O131 2.689625 1_555
Na17 O129 2.708155 1_555
Na17 O127 2.730596 1_555
Ca0 O0 2.155580 1_555
Ca0 O3 2.196040 1_445
Ca0 O5 2.215194 1_455
Ca0 O76 2.239494 1_555
Ca0 O75 2.386803 1_445
Ca0 O72 2.398323 1_545
Ca1 O1 2.062132 1_555
Ca1 O4 2.250488 1_555
Ca1 O77 2.268019 1_555
Ca1 O2 2.310961 1_545
Ca1 O73 2.315018 1_545
Ca1 O74 2.325276 1_545
Ca2 O6 2.092104 1_555
Ca2 O11 2.167877 1_455
Ca2 O9 2.247529 1_445
Ca2 O80 2.332416 1_545
Ca2 O78 2.348216 1_555
Ca2 O83 2.377203 1_445
Ca3 O7 2.143495 1_565
Ca3 O10 2.194337 1_565
Ca3 O8 2.216048 1_555
Ca3 O81 2.230067 1_555
Ca3 O82 2.390847 1_555
Ca3 O79 2.401519 1_565
Ca4 O98 2.181217 1_555
Ca4 O96 2.192651 1_555
Ca4 O26 2.244080 1_555
Ca4 O28 2.291916 1_555
Ca4 O24 2.310316 1_555
Ca4 O100 2.316465 1_555
Ca5 O99 2.162374 1_555
Ca5 O97 2.187513 1_555
Ca5 O27 2.256366 1_555
Ca5 O29 2.296272 1_555
Ca5 O25 2.318077 1_555
Ca5 O101 2.336461 1_555
Ca6 O106 2.147085 1_555
Ca6 O34 2.230957 1_555
Ca6 O32 2.240871 1_555
Ca6 O30 2.295189 1_555
Ca6 O104 2.330568 1_555
Ca6 O102 2.360959 1_555
Ca7 O103 2.192285 1_555
Ca7 O107 2.195733 1_555
Ca7 O35 2.255443 1_555
Ca7 O33 2.267155 1_555
Ca7 O31 2.299441 1_555
Ca7 O105 2.314273 1_555
Ca8 O36 2.369367 1_556
Ca8 O110 2.375473 1_555
Ca8 O108 2.390781 1_555
Ca8 O38 2.404110 1_556
Ca8 O112 2.428643 1_555
Ca8 O40 2.514040 1_556
Ca9 O113 2.270659 1_555
Ca9 O111 2.374419 1_555
Ca9 O41 2.422401 1_556
Ca9 O109 2.427670 1_555
Ca9 O39 2.463236 1_556
Ca9 O37 2.515593 1_556
Ca10 O116 2.374750 1_555
Ca10 O44 2.375729 1_555
Ca10 O46 2.389267 1_555
Ca10 O42 2.389866 1_555
Ca10 O118 2.472243 1_555
Ca10 O114 2.521941 1_555
Ca11 O43 2.303634 1_555
Ca11 O47 2.341037 1_555
Ca11 O45 2.406052 1_555
Ca11 O115 2.468396 1_555
Ca11 O117 2.515600 1_555
Ca11 O119 2.537803 1_555
Ca12 O50 2.201685 1_554
Ca12 O52 2.220994 1_554
Ca12 O48 2.223668 1_554
Ca12 O120 2.302773 1_555
Ca12 O122 2.318230 1_555
Ca12 O124 2.339525 1_555
Ca13 O53 2.062824 1_554
Ca13 O51 2.246489 1_554
Ca13 O49 2.248631 1_554
Ca13 O125 2.374433 1_555
Ca13 O123 2.377886 1_555
Ca13 O121 2.420503 1_555
Ca14 O56 2.084922 1_555
Ca14 O58 2.284224 1_555
Ca14 O54 2.301716 1_555
Ca14 O130 2.310722 1_555
Ca14 O128 2.315099 1_555
Ca14 O126 2.341866 1_555
Ca15 O57 2.243913 1_555
Ca15 O59 2.250217 1_555
Ca15 O55 2.254968 1_555
Ca15 O127 2.266317 1_555
Ca15 O131 2.292847 1_555
Ca15 O129 2.307631 1_555
Nb0 O14 1.859868 1_655
Nb0 O13 1.864042 1_545
Nb0 O85 2.074519 1_555
Nb0 O16 2.144966 1_645
Nb0 O86 2.200041 1_655
Nb0 O89 2.206476 1_545
Nb1 O15 1.842961 1_555
Nb1 O12 1.873848 1_545
Nb1 O17 2.093509 1_545
Nb1 O84 2.097986 1_555
Nb1 O88 2.223949 1_545
Nb1 O87 2.226396 1_555
Nb2 O22 1.867137 1_655
Nb2 O19 1.880811 1_555
Nb2 O91 2.040322 1_555
Nb2 O93 2.164358 1_565
Nb2 O94 2.191453 1_665
Nb2 O20 2.192330 1_665
Nb3 O23 1.850925 1_555
Nb3 O95 1.984251 1_565
Nb3 O90 1.997684 1_555
Nb3 O92 2.104339 1_565
Nb3 O21 2.130831 1_565
Nb3 O18 2.154383 1_555
Nb4 O64 1.880729 1_555
Nb4 O132 1.985026 1_555
Nb4 O60 2.047788 1_555
Nb4 O62 2.072521 1_555
Nb4 O136 2.098550 1_555
Nb4 O134 2.216693 1_555
Nb5 O135 1.882013 1_555
Nb5 O133 1.884384 1_555
Nb5 O63 2.016385 1_555
Nb5 O65 2.154084 1_555
Nb5 O137 2.161861 1_555
Nb5 O61 2.178947 1_555
Nb6 O138 1.869035 1_555
Nb6 O142 1.883984 1_555
Nb6 O70 2.056022 1_555
Nb6 O140 2.109520 1_555
Nb6 O66 2.179459 1_555
Nb6 O68 2.183447 1_555
Nb7 O143 1.895882 1_555
Nb7 O69 1.898779 1_555
Nb7 O139 1.978111 1_555
Nb7 O71 2.118593 1_555
Nb7 O141 2.161191 1_555
Nb7 O67 2.317756 1_555
O0 Si0 1.578688 1_545
O1 Si1 1.555717 1_545
O2 S0 1.453115 1_555
O3 Si2 1.573154 1_555
O4 S2 1.445180 1_555
O5 S1 1.448597 1_655
O6 Si3 1.552806 1_555
O7 Si4 1.568009 1_555
O8 S4 1.443230 1_555
O9 S3 1.443600 1_655
O10 Si5 1.568038 1_555
O11 Si6 1.571308 1_555
O12 Si5 1.749654 1_565
O13 Si6 1.760018 1_565
O14 Si3 1.748014 1_555
O15 Si4 1.791433 1_555
O16 S3 1.521548 1_555
O17 S4 1.530128 1_555
O18 S0 1.525857 1_555
O19 Si2 1.747136 1_555
O20 S1 1.504649 1_555
O21 S2 1.527516 1_555
O22 Si0 1.769450 1_555
O23 Si1 1.762060 1_555
O24 S5 1.443798 1_555
O25 S6 1.441366 1_555
O26 S7 1.451000 1_555
O27 S8 1.447218 1_555
O28 S9 1.449500 1_555
O29 S10 1.452256 1_555
O30 S11 1.455075 1_555
O31 S12 1.450451 1_555
O32 S13 1.459438 1_555
O33 S14 1.462540 1_555
O34 S15 1.460988 1_555
O35 S16 1.449807 1_555
O36 S15 1.476655 1_555
O37 S16 1.466024 1_555
O38 S11 1.463277 1_555
O39 S12 1.463554 1_555
O40 S13 1.474332 1_555
O41 S14 1.478677 1_555
O42 S7 1.492399 1_555
O43 S8 1.488942 1_555
O44 S9 1.497659 1_555
O45 S10 1.494249 1_555
O46 S5 1.476430 1_555
O47 S6 1.480272 1_555
O48 S17 1.462402 1_555
O49 S18 1.460223 1_555
O50 S19 1.465109 1_555
O51 S20 1.471906 1_555
O52 S21 1.461869 1_555
O53 Si7 1.576050 1_555
O54 S22 1.447073 1_555
O55 S23 1.453758 1_555
O56 Si8 1.576894 1_555
O57 S24 1.453818 1_555
O58 S25 1.448990 1_555
O59 S26 1.457587 1_555
O60 S25 1.549517 1_555
O61 S26 1.515462 1_555
O62 S22 1.545198 1_555
O63 S23 1.556084 1_555
O64 Si8 1.803442 1_555
O65 S24 1.527373 1_555
O66 S19 1.510039 1_555
O67 S20 1.487490 1_555
O68 S21 1.518478 1_555
O69 Si7 1.775148 1_555
O70 S17 1.535587 1_555
O71 S18 1.531327 1_555
O72 S25 1.473500 1_555
O73 S26 1.489671 1_555
O74 S22 1.473735 1_555
O75 S23 1.467230 1_555
O76 Si8 1.612976 1_555
O77 S24 1.465097 1_555
O78 S19 1.481016 1_555
O79 S20 1.490288 1_555
O80 S21 1.464052 1_555
O81 Si7 1.603777 1_555
O82 S17 1.467991 1_555
O83 S18 1.471487 1_555
O84 S5 1.551180 1_555
O85 S6 1.554885 1_555
O86 S7 1.520671 1_555
O87 S8 1.522692 1_555
O88 S9 1.518909 1_555
O89 S10 1.522536 1_555
O90 S11 1.578895 1_555
O91 S12 1.566153 1_555
O92 S13 1.535521 1_555
O93 S14 1.532030 1_555
O94 S15 1.524979 1_555
O95 S16 1.580728 1_555
O96 Si5 1.567951 1_555
O97 Si6 1.566141 1_555
O98 Si3 1.565294 1_555
O99 Si4 1.568218 1_555
O100 S4 1.445645 1_555
O101 S3 1.440793 1_655
O102 S0 1.457305 1_555
O103 Si2 1.571100 1_555
O104 S2 1.449889 1_555
O105 S1 1.445028 1_655
O106 Si0 1.586828 1_545
O107 Si1 1.570572 1_545
O108 S17 1.472462 1_555
O109 S18 1.479404 1_555
O110 S20 1.496154 1_555
O111 S19 1.483217 1_655
O112 S21 1.499720 1_545
O113 Si7 1.654174 1_545
O114 S22 1.476599 1_545
O115 S23 1.467648 1_545
O116 Si8 1.642757 1_555
O117 S24 1.498050 1_555
O118 S26 1.483736 1_555
O119 S25 1.475312 1_655
O120 S15 1.476568 1_555
O121 S16 1.464076 1_555
O122 S12 1.473484 1_455
O123 S11 1.462292 1_555
O124 S13 1.473091 1_565
O125 S14 1.478409 1_565
O126 S7 1.478224 1_565
O127 S8 1.479823 1_565
O128 S9 1.480507 1_555
O129 S10 1.480287 1_555
O130 S6 1.473362 1_455
O131 S5 1.477151 1_555
O132 Si0 1.693354 1_555
O133 Si1 1.717761 1_555
O134 S0 1.521604 1_555
O135 Si2 1.735310 1_555
O136 S1 1.544019 1_555
O137 S2 1.520642 1_555
O138 Si3 1.735039 1_555
O139 Si4 1.681970 1_555
O140 S3 1.538347 1_555
O141 S4 1.516523 1_555
O142 Si5 1.731236 1_565
O143 Si6 1.717326 1_565
