# generated using pymatgen
data_MgMo2(PO5)2
_symmetry_space_group_name_H-M   'P 1'
_cell_length_a   5.30945691
_cell_length_b   5.51818071
_cell_length_c   7.66852705
_cell_angle_alpha   69.82592449
_cell_angle_beta   67.81189751
_cell_angle_gamma   88.64075480
_symmetry_Int_Tables_number   1
_chemical_formula_structural   MgMo2(PO5)2
_chemical_formula_sum   'Mg1 Mo2 P2 O10'
_cell_volume   193.80365874
_cell_formula_units_Z   1
loop_
 _symmetry_equiv_pos_site_id
 _symmetry_equiv_pos_as_xyz
  1  'x, y, z'
loop_
 _atom_site_type_symbol
 _atom_site_label
 _atom_site_symmetry_multiplicity
 _atom_site_fract_x
 _atom_site_fract_y
 _atom_site_fract_z
 _atom_site_occupancy
  Mg  Mg0  1  0.83735100  0.28662000  0.09296900  1
  Mo  Mo0  1  0.23403400  0.73564900  0.02203800  1
  Mo  Mo1  1  0.71828700  0.22842500  0.53176300  1
  P  P0  1  0.56327800  0.82589400  0.29911200  1
  P  P1  1  0.87806300  0.62608400  0.74615500  1
  O  O0  1  0.42038700  0.04550400  0.78999700  1
  O  O1  1  0.00834700  0.39839700  0.24678400  1
  O  O2  1  0.85335800  0.90754300  0.11356600  1
  O  O3  1  0.91684700  0.90176900  0.59657100  1
  O  O4  1  0.54652400  0.05943800  0.37232200  1
  O  O5  1  0.09719500  0.58246700  0.84463500  1
  O  O6  1  0.33923400  0.84283500  0.21523300  1
  O  O7  1  0.90479600  0.41376200  0.65680400  1
  O  O8  1  0.53238800  0.56171800  0.46025700  1
  O  O9  1  0.60351200  0.54999600  0.94359400  1
loop_
_geom_bond_atom_site_label_1
_geom_bond_atom_site_label_2
_geom_bond_distance
_geom_bond_site_symmetry_2
Mg0 O1 1.983244 1_655
Mg0 O5 2.042843 1_654
Mg0 O2 2.044914 1_545
Mg0 O4 2.070294 1_555
Mg0 O9 2.192288 1_554
Mo0 O0 1.928924 1_564
Mo0 O6 2.025297 1_555
Mo0 O1 2.050186 1_555
Mo0 O5 2.159156 1_554
Mo0 O9 2.167529 1_554
Mo0 O2 2.185021 1_455
Mo1 O0 1.942523 1_555
Mo1 O1 2.034711 1_655
Mo1 O8 2.069904 1_555
Mo1 O3 2.072505 1_545
Mo1 O7 2.094679 1_555
Mo1 O4 2.205704 1_555
O2 P0 1.592232 1_555
O3 P1 1.518329 1_555
O4 P0 1.561994 1_545
O5 P1 1.583320 1_455
O6 P0 1.539053 1_555
O7 P1 1.527982 1_555
O8 P0 1.514857 1_555
O9 P1 1.586563 1_555
