# generated using pymatgen
data_Sm2MgMo2(ClO4)2
_symmetry_space_group_name_H-M   'P 1'
_cell_length_a   6.54859306
_cell_length_b   6.55947733
_cell_length_c   7.04680446
_cell_angle_alpha   73.99537945
_cell_angle_beta   73.92568517
_cell_angle_gamma   67.52542176
_symmetry_Int_Tables_number   1
_chemical_formula_structural   Sm2MgMo2(ClO4)2
_chemical_formula_sum   'Sm2 Mg1 Mo2 Cl2 O8'
_cell_volume   263.80778717
_cell_formula_units_Z   1
loop_
 _symmetry_equiv_pos_site_id
 _symmetry_equiv_pos_as_xyz
  1  'x, y, z'
loop_
 _atom_site_type_symbol
 _atom_site_label
 _atom_site_symmetry_multiplicity
 _atom_site_fract_x
 _atom_site_fract_y
 _atom_site_fract_z
 _atom_site_occupancy
  Sm  Sm0  1  0.23121900  0.24090800  0.88929800  1
  Sm  Sm1  1  0.75847400  0.76790100  0.11125700  1
  Mg  Mg0  1  0.68355600  0.31598900  0.50031800  1
  Mo  Mo0  1  0.64640700  0.63622500  0.73309600  1
  Mo  Mo1  1  0.36400700  0.35230700  0.26681900  1
  Cl  Cl0  1  0.94330000  0.05220900  0.25082000  1
  Cl  Cl1  1  0.94705100  0.05656700  0.74784000  1
  O  O0  1  0.12605900  0.51094700  0.13460500  1
  O  O1  1  0.76170900  0.61226600  0.46268600  1
  O  O2  1  0.47653800  0.45018200  0.76833200  1
  O  O3  1  0.38744100  0.23763000  0.53711900  1
  O  O4  1  0.54915300  0.52313600  0.23169800  1
  O  O5  1  0.48694500  0.87306000  0.86630300  1
  O  O6  1  0.89960300  0.54192300  0.85040200  1
  O  O7  1  0.45728500  0.09958400  0.14940500  1
loop_
_geom_bond_atom_site_label_1
_geom_bond_atom_site_label_2
_geom_bond_distance
_geom_bond_site_symmetry_2
Mg0 O3 2.121731 1_555
Mg0 O1 2.123732 1_555
Mg0 O2 2.183154 1_555
Mg0 O4 2.189524 1_555
Mo0 O5 1.845538 1_555
Mo0 O1 1.871765 1_555
Mo0 O2 1.872478 1_555
Mo0 O6 1.872983 1_555
Mo1 O0 1.846233 1_555
Mo1 O3 1.871093 1_555
Mo1 O4 1.872573 1_555
Mo1 O7 1.872979 1_555
Cl0 Mg0 2.597975 1_555
Cl0 Sm0 2.993774 1_654
Cl0 Sm1 3.050630 1_545
Cl1 Mg0 2.588540 1_555
Cl1 Sm1 3.005195 1_546
Cl1 Sm0 3.054667 1_655
O0 Sm1 2.372092 1_455
O0 Sm0 2.587776 1_554
O1 Sm1 2.407047 1_555
O2 Sm0 2.339718 1_555
O3 Sm0 2.410959 1_555
O4 Sm1 2.337518 1_555
O5 Sm0 2.372495 1_565
O5 Sm1 2.592779 1_556
O6 Sm0 2.332942 1_655
O6 Sm1 2.438168 1_556
O7 Sm1 2.333255 1_545
O7 Sm0 2.434550 1_554
