# generated using pymatgen
data_Y6RuI10
_symmetry_space_group_name_H-M   'P 1'
_cell_length_a   7.72054851
_cell_length_b   9.64646037
_cell_length_c   9.67688884
_cell_angle_alpha   107.21655702
_cell_angle_beta   96.76084186
_cell_angle_gamma   104.98703907
_symmetry_Int_Tables_number   1
_chemical_formula_structural   Y6RuI10
_chemical_formula_sum   'Y6 Ru1 I10'
_cell_volume   650.08110906
_cell_formula_units_Z   1
loop_
 _symmetry_equiv_pos_site_id
 _symmetry_equiv_pos_as_xyz
  1  'x, y, z'
loop_
 _atom_site_type_symbol
 _atom_site_label
 _atom_site_symmetry_multiplicity
 _atom_site_fract_x
 _atom_site_fract_y
 _atom_site_fract_z
 _atom_site_occupancy
  Y  Y0  1  0.11290250  0.04087217  0.76321031  1
  Y  Y1  1  0.88709750  0.95912783  0.23678969  1
  Y  Y2  1  0.96777108  0.28093196  0.08204172  1
  Y  Y3  1  0.64454196  0.87340922  0.83027559  1
  Y  Y4  1  0.35545804  0.12659078  0.16972441  1
  Y  Y5  1  0.03222892  0.71906804  0.91795828  1
  Ru  Ru0  1  -0.00000000  -0.00000000  0.00000000  1
  I  I0  1  0.35299925  0.45346290  0.27310823  1
  I  I1  1  0.64700075  0.54653710  0.72689177  1
  I  I2  1  0.73966132  0.91286570  0.53723867  1
  I  I3  1  0.08570832  0.37125945  0.81695350  1
  I  I4  1  0.91429168  0.62874055  0.18304650  1
  I  I5  1  0.45508042  0.81376493  0.09335963  1
  I  I6  1  0.54491958  0.18623507  0.90664037  1
  I  I7  1  0.78453080  0.26077831  0.34977052  1
  I  I8  1  0.21546920  0.73922169  0.65022948  1
  I  I9  1  0.26033868  0.08713430  0.46276133  1
loop_
_geom_bond_atom_site_label_1
_geom_bond_atom_site_label_2
_geom_bond_distance
_geom_bond_site_symmetry_2
Ru0 Y1 2.644436 1_445
Ru0 Y0 2.644436 1_554
Ru0 Y5 2.675435 1_544
Ru0 Y2 2.675435 1_455
Ru0 Y4 2.781776 1_555
Ru0 Y3 2.781776 1_444
I0 Y4 3.018558 1_555
I0 Y2 3.059037 1_455
I1 Y3 3.018558 1_555
I1 Y5 3.059037 1_655
I2 Y0 3.112525 1_665
I2 Y3 3.116079 1_555
I2 Y1 3.351485 1_555
I3 Y2 3.103464 1_456
I3 Y0 3.140471 1_555
I3 Y5 3.354533 1_555
I4 Y5 3.103464 1_654
I4 Y1 3.140471 1_555
I4 Y2 3.354533 1_555
I5 Y4 3.202830 1_565
I5 Y3 3.203210 1_554
I5 Y1 3.218162 1_555
I5 Y5 3.257054 1_554
I6 Y3 3.202830 1_545
I6 Y4 3.203210 1_556
I6 Y0 3.218162 1_555
I6 Y2 3.257054 1_556
I7 Y2 3.125741 1_555
I7 Y1 3.130812 1_545
I7 Y4 3.282253 1_555
I8 Y5 3.125741 1_555
I8 Y0 3.130812 1_565
I8 Y3 3.282253 1_555
I9 Y1 3.112525 1_445
I9 Y4 3.116079 1_555
I9 Y0 3.351485 1_555
