# generated using pymatgen
data_Na10TaGa7(PO4)12
_symmetry_space_group_name_H-M   'P 1'
_cell_length_a   17.40285135
_cell_length_b   8.70755157
_cell_length_c   22.05504145
_cell_angle_alpha   89.98356739
_cell_angle_beta   89.97189414
_cell_angle_gamma   120.02182186
_symmetry_Int_Tables_number   1
_chemical_formula_structural   Na10TaGa7(PO4)12
_chemical_formula_sum   'Na30 Ta3 Ga21 P36 O144'
_cell_volume   2893.73862758
_cell_formula_units_Z   3
loop_
 _symmetry_equiv_pos_site_id
 _symmetry_equiv_pos_as_xyz
  1  'x, y, z'
loop_
 _atom_site_type_symbol
 _atom_site_label
 _atom_site_symmetry_multiplicity
 _atom_site_fract_x
 _atom_site_fract_y
 _atom_site_fract_z
 _atom_site_occupancy
  Na  Na0  1  0.31738198  0.99934477  0.25100946  1
  Na  Na1  1  0.68290207  0.36449242  0.25099255  1
  Na  Na2  1  0.31619300  0.63291307  0.75098271  1
  Na  Na3  1  0.81619579  0.63296717  0.75089053  1
  Na  Na4  1  0.15037174  0.33360590  0.58297328  1
  Na  Na5  1  0.65036442  0.33355750  0.58273260  1
  Na  Na6  1  0.01614846  0.69873502  0.58311492  1
  Na  Na7  1  0.51635511  0.69889241  0.58322537  1
  Na  Na8  1  0.33320057  0.96793287  0.58277094  1
  Na  Na9  1  0.83313047  0.96781735  0.58290199  1
  Na  Na10  1  0.15048266  0.96763322  0.08294693  1
  Na  Na11  1  0.65078071  0.96790600  0.08350934  1
  Na  Na12  1  0.33313148  0.69831231  0.08337435  1
  Na  Na13  1  0.83335412  0.69892550  0.08305912  1
  Na  Na14  1  0.01602136  0.33359387  0.08323657  1
  Na  Na15  1  0.51599043  0.33360918  0.08331987  1
  Na  Na16  1  0.66604632  0.03339988  0.41522474  1
  Na  Na17  1  0.35010909  0.66786055  0.41501321  1
  Na  Na18  1  0.00015602  0.99941747  0.49959799  1
  Na  Na19  1  0.49974374  0.00696923  0.49713497  1
  Na  Na20  1  0.00008243  0.00003918  0.00052640  1
  Na  Na21  1  0.50009235  0.99988368  0.00055409  1
  Na  Na22  1  0.33366994  0.32734971  0.83528686  1
  Na  Na23  1  0.83366006  0.32736485  0.83528121  1
  Na  Na24  1  0.33429167  0.33437741  0.33285877  1
  Na  Na25  1  0.83873792  0.33785881  0.33289532  1
  Na  Na26  1  0.16403990  0.65938235  0.16967716  1
  Na  Na27  1  0.66604231  0.67319980  0.16959064  1
  Na  Na28  1  0.16352776  0.66715711  0.66982763  1
  Na  Na29  1  0.66363979  0.66706093  0.66984456  1
  Ta  Ta0  1  0.00005895  0.99910477  0.35336432  1
  Ta  Ta1  1  0.00053456  0.00158628  0.85575498  1
  Ta  Ta2  1  0.50056564  0.00168656  0.85573854  1
  Ga  Ga0  1  0.49946927  0.00521034  0.35035167  1
  Ga  Ga1  1  0.00080396  0.00111532  0.65207974  1
  Ga  Ga2  1  0.50086256  0.00120390  0.65201371  1
  Ga  Ga3  1  0.00013165  0.00161638  0.15183279  1
  Ga  Ga4  1  0.50022618  0.99803335  0.15283955  1
  Ga  Ga5  1  0.33374466  0.32761655  0.68644133  1
  Ga  Ga6  1  0.83391978  0.32826182  0.68637285  1
  Ga  Ga7  1  0.33410505  0.34213196  0.18597655  1
  Ga  Ga8  1  0.83579268  0.32963227  0.18642276  1
  Ga  Ga9  1  0.33326771  0.33351426  0.97970744  1
  Ga  Ga10  1  0.83358128  0.33334330  0.97976666  1
  Ga  Ga11  1  0.33310619  0.32484133  0.48005374  1
  Ga  Ga12  1  0.83624389  0.34043480  0.47980712  1
  Ga  Ga13  1  0.16624310  0.66646239  0.01458004  1
  Ga  Ga14  1  0.66638443  0.66692639  0.01455068  1
  Ga  Ga15  1  0.16592546  0.66803886  0.51381020  1
  Ga  Ga16  1  0.66616871  0.66343728  0.51367972  1
  Ga  Ga17  1  0.16415082  0.66105162  0.31475532  1
  Ga  Ga18  1  0.66524039  0.66981224  0.31508801  1
  Ga  Ga19  1  0.16380584  0.66749477  0.81651993  1
  Ga  Ga20  1  0.66380639  0.66746649  0.81652204  1
  P  P0  1  0.14641903  0.99943569  0.24801860  1
  P  P1  1  0.64595984  0.99678621  0.25030914  1
  P  P2  1  0.35409796  0.70567683  0.25078211  1
  P  P3  1  0.85329925  0.70706210  0.24807184  1
  P  P4  1  0.00049842  0.29512650  0.24841071  1
  P  P5  1  0.49985405  0.29392899  0.24975482  1
  P  P6  1  0.14622310  0.29307648  0.74855287  1
  P  P7  1  0.64629829  0.29319495  0.74858470  1
  P  P8  1  0.00212226  0.70712964  0.74869070  1
  P  P9  1  0.50210364  0.70709807  0.74866943  1
  P  P10  1  0.35311905  0.00225353  0.74895044  1
  P  P11  1  0.85313249  0.00234191  0.74892462  1
  P  P12  1  0.47781212  0.33334588  0.58345303  1
  P  P13  1  0.97766726  0.33347484  0.58313411  1
  P  P14  1  0.18880756  0.04469175  0.58321133  1
  P  P15  1  0.68873451  0.04401973  0.58289772  1
  P  P16  1  0.33328965  0.62283146  0.58320033  1
  P  P17  1  0.83340596  0.62288767  0.58369809  1
  P  P18  1  0.47767394  0.62180514  0.08287050  1
  P  P19  1  0.97753627  0.62190375  0.08315950  1
  P  P20  1  0.33326856  0.04453200  0.08348633  1
  P  P21  1  0.83338973  0.04451851  0.08289614  1
  P  P22  1  0.18885377  0.33308862  0.08286680  1
  P  P23  1  0.68900242  0.33341316  0.08339495  1
  P  P24  1  0.30856505  0.65917638  0.91699755  1
  P  P25  1  0.80857422  0.65895036  0.91699781  1
  P  P26  1  0.02089625  0.38304572  0.91754206  1
  P  P27  1  0.52088572  0.38312049  0.91757764  1
  P  P28  1  0.17057922  0.95798567  0.91744805  1
  P  P29  1  0.67059832  0.95812669  0.91740379  1
  P  P30  1  0.31188718  0.96007828  0.41575152  1
  P  P31  1  0.81035010  0.95656423  0.41733809  1
  P  P32  1  0.16784238  0.37929694  0.41741043  1
  P  P33  1  0.66688812  0.37686405  0.41585399  1
  P  P34  1  0.02146610  0.66087054  0.41674539  1
  P  P35  1  0.52054036  0.66249148  0.41634046  1
  O  O0  1  0.09986686  0.02813697  0.30426276  1
  O  O1  1  0.60536866  0.03728389  0.30686486  1
  O  O2  1  0.41157940  0.79028260  0.30791002  1
  O  O3  1  0.91416025  0.80033909  0.30434787  1
  O  O4  1  0.48038936  0.17040983  0.30479232  1
  O  O5  1  0.98641045  0.17103165  0.30445860  1
  O  O6  1  0.09973195  0.17088203  0.80409751  1
  O  O7  1  0.59971120  0.17088475  0.80410324  1
  O  O8  1  0.48434077  0.79961842  0.80375583  1
  O  O9  1  0.98436998  0.79963068  0.80378524  1
  O  O10  1  0.41440971  0.02852459  0.80438961  1
  O  O11  1  0.91441691  0.02860925  0.80438242  1
  O  O12  1  0.39331439  0.96199533  0.69194368  1
  O  O13  1  0.89335841  0.96212499  0.69195956  1
  O  O14  1  0.08951360  0.21229911  0.69111761  1
  O  O15  1  0.58952978  0.21235710  0.69111365  1
  O  O16  1  0.01647682  0.82033633  0.69096034  1
  O  O17  1  0.51645093  0.82043284  0.69091490  1
  O  O18  1  0.39339175  0.82524799  0.19294964  1
  O  O19  1  0.89439480  0.82151762  0.19140164  1
  O  O20  1  0.01667062  0.21279295  0.19129609  1
  O  O21  1  0.51915556  0.21443057  0.19175573  1
  O  O22  1  0.08917081  0.96718179  0.19139197  1
  O  O23  1  0.58965087  0.96659035  0.19192052  1
  O  O24  1  0.43815620  0.37363146  0.63967890  1
  O  O25  1  0.93811951  0.37351991  0.63952716  1
  O  O26  1  0.24832112  0.12370659  0.63957360  1
  O  O27  1  0.74870909  0.12546457  0.63877130  1
  O  O28  1  0.31469144  0.50635708  0.64059462  1
  O  O29  1  0.81433207  0.50735388  0.64148888  1
  O  O30  1  0.43842581  0.50325459  0.13927732  1
  O  O31  1  0.93785539  0.50307365  0.13965487  1
  O  O32  1  0.31422956  0.12136718  0.14139014  1
  O  O33  1  0.81333375  0.12295602  0.13937479  1
  O  O34  1  0.24799914  0.37234864  0.13941276  1
  O  O35  1  0.74652443  0.37198890  0.14130201  1
  O  O36  1  0.22865575  0.29375302  0.02713701  1
  O  O37  1  0.72962743  0.29488616  0.02814503  1
  O  O38  1  0.41823000  0.54291116  0.02714926  1
  O  O39  1  0.91819276  0.54276538  0.02724582  1
  O  O40  1  0.35254339  0.16421040  0.02816164  1
  O  O41  1  0.85311682  0.16333610  0.02710901  1
  O  O42  1  0.22833522  0.16388862  0.52752683  1
  O  O43  1  0.72750349  0.15951984  0.52573600  1
  O  O44  1  0.35177404  0.54321290  0.52657312  1
  O  O45  1  0.85269826  0.54192351  0.52848921  1
  O  O46  1  0.41859732  0.29373524  0.52769425  1
  O  O47  1  0.91802761  0.29326308  0.52736822  1
  O  O48  1  0.27264409  0.70162230  0.97448782  1
  O  O49  1  0.77262230  0.70148086  0.97449103  1
  O  O50  1  0.07741507  0.45264143  0.97546536  1
  O  O51  1  0.57753189  0.45288646  0.97550780  1
  O  O52  1  0.14873748  0.84479842  0.97542923  1
  O  O53  1  0.64864461  0.84487238  0.97540122  1
  O  O54  1  0.27302317  0.84100608  0.47413557  1
  O  O55  1  0.77386140  0.84583724  0.47631125  1
  O  O56  1  0.14865284  0.45245363  0.47617118  1
  O  O57  1  0.65021000  0.45436167  0.47497967  1
  O  O58  1  0.07667718  0.70231420  0.47601644  1
  O  O59  1  0.57895014  0.70479170  0.47506120  1
  O  O60  1  0.06417156  0.63410648  0.36099791  1
  O  O61  1  0.56350416  0.63292835  0.36140190  1
  O  O62  1  0.25473602  0.87481923  0.35913288  1
  O  O63  1  0.75159092  0.87353089  0.36201088  1
  O  O64  1  0.18544799  0.49713022  0.36203715  1
  O  O65  1  0.68289811  0.49119243  0.35923613  1
  O  O66  1  0.06383699  0.49336064  0.86041445  1
  O  O67  1  0.56378947  0.49334516  0.86048042  1
  O  O68  1  0.18344736  0.87268074  0.86043539  1
  O  O69  1  0.68346674  0.87277973  0.86042808  1
  O  O70  1  0.25485255  0.63514960  0.85849892  1
  O  O71  1  0.75487378  0.63509040  0.85850348  1
  O  O72  1  0.01203848  0.83132509  0.40878062  1
  O  O73  1  0.51164219  0.83293561  0.41104777  1
  O  O74  1  0.40411278  0.97148160  0.41060969  1
  O  O75  1  0.90418626  0.97606294  0.40949495  1
  O  O76  1  0.08391941  0.19140999  0.40959580  1
  O  O77  1  0.58410303  0.18689761  0.41047450  1
  O  O78  1  0.01235256  0.19379048  0.90888361  1
  O  O79  1  0.51236435  0.19385688  0.90891712  1
  O  O80  1  0.08450601  0.97523432  0.90859194  1
  O  O81  1  0.58449260  0.97528289  0.90856471  1
  O  O82  1  0.40328806  0.83123568  0.90869303  1
  O  O83  1  0.90327307  0.83114347  0.90868896  1
  O  O84  1  0.48857345  0.16624885  0.59017383  1
  O  O85  1  0.98855791  0.16632394  0.58988603  1
  O  O86  1  0.09433439  0.02260054  0.58972066  1
  O  O87  1  0.59445978  0.02296724  0.58963509  1
  O  O88  1  0.41702174  0.81155808  0.58964127  1
  O  O89  1  0.91703341  0.81182896  0.58981772  1
  O  O90  1  0.48864710  0.81113763  0.08977835  1
  O  O91  1  0.98880412  0.81107543  0.08978886  1
  O  O92  1  0.41699763  0.02240600  0.08987169  1
  O  O93  1  0.91686812  0.02244400  0.08960167  1
  O  O94  1  0.09435099  0.16626094  0.08959316  1
  O  O95  1  0.59421650  0.16600594  0.08967886  1
  O  O96  1  0.34681053  0.16989535  0.74407867  1
  O  O97  1  0.84673132  0.16991326  0.74396466  1
  O  O98  1  0.23925612  0.31241541  0.74388336  1
  O  O99  1  0.73922632  0.31218755  0.74396069  1
  O  O100  1  0.41448616  0.52700696  0.74392627  1
  O  O101  1  0.91455244  0.52698709  0.74402435  1
  O  O102  1  0.34539898  0.52242146  0.24368855  1
  O  O103  1  0.84414521  0.52174132  0.24431382  1
  O  O104  1  0.41445314  0.30484540  0.24289135  1
  O  O105  1  0.91541754  0.30610157  0.24463978  1
  O  O106  1  0.23927863  0.16606901  0.24422388  1
  O  O107  1  0.73725504  0.17036030  0.24355298  1
  O  O108  1  0.32197550  0.49991673  0.92299479  1
  O  O109  1  0.82195572  0.49976476  0.92308339  1
  O  O110  1  0.42775055  0.35568311  0.92347754  1
  O  O111  1  0.92777823  0.35584570  0.92330447  1
  O  O112  1  0.25027444  0.14437194  0.92341041  1
  O  O113  1  0.75017540  0.14451579  0.92342795  1
  O  O114  1  0.32085305  0.14340232  0.42311065  1
  O  O115  1  0.81986638  0.14171093  0.42368699  1
  O  O116  1  0.25123558  0.36125167  0.42387595  1
  O  O117  1  0.74913591  0.35223339  0.42293734  1
  O  O118  1  0.42617057  0.50122616  0.42367877  1
  O  O119  1  0.92802714  0.49981100  0.42320454  1
  O  O120  1  0.17797281  0.50033157  0.07674113  1
  O  O121  1  0.67810360  0.50059218  0.07696938  1
  O  O122  1  0.07213320  0.64377643  0.07697385  1
  O  O123  1  0.57230486  0.64421754  0.07678804  1
  O  O124  1  0.24968777  0.85545563  0.07705983  1
  O  O125  1  0.74976059  0.85523740  0.07673748  1
  O  O126  1  0.17804360  0.85580185  0.57688524  1
  O  O127  1  0.67776869  0.85508608  0.57698066  1
  O  O128  1  0.24957991  0.64415320  0.57718160  1
  O  O129  1  0.74961899  0.64397931  0.57737030  1
  O  O130  1  0.07222559  0.50060274  0.57691341  1
  O  O131  1  0.57231443  0.50048548  0.57702142  1
  O  O132  1  0.15674428  0.83510598  0.25646019  1
  O  O133  1  0.65515722  0.83150642  0.25676430  1
  O  O134  1  0.26240499  0.69508198  0.25652937  1
  O  O135  1  0.76073962  0.68615319  0.25672267  1
  O  O136  1  0.08414273  0.47620063  0.25720337  1
  O  O137  1  0.58537441  0.47556244  0.25624127  1
  O  O138  1  0.15727465  0.47903205  0.75649544  1
  O  O139  1  0.65727807  0.47900976  0.75652273  1
  O  O140  1  0.08444037  0.69081721  0.75665348  1
  O  O141  1  0.58438017  0.69080836  0.75662561  1
  O  O142  1  0.26289820  0.83036556  0.75678173  1
  O  O143  1  0.76293319  0.83044892  0.75676436  1
loop_
_geom_bond_atom_site_label_1
_geom_bond_atom_site_label_2
_geom_bond_distance
_geom_bond_site_symmetry_2
Na0 O134 2.326511 1_555
Na0 O104 2.337717 1_565
Na0 O132 2.423587 1_555
Na0 O106 2.439698 1_565
Na0 O62 2.619922 1_555
Na0 O32 2.652171 1_565
Na0 O4 2.729317 1_565
Na0 O18 2.773745 1_555
Na1 O107 2.319303 1_555
Na1 O137 2.339214 1_555
Na1 O135 2.428915 1_555
Na1 O103 2.434213 1_555
Na1 O65 2.630213 1_555
Na1 O35 2.647226 1_555
Na1 O1 2.757963 1_555
Na1 O21 2.795247 1_555
Na2 O100 2.319280 1_555
Na2 O142 2.329887 1_555
Na2 O138 2.397978 1_555
Na2 O98 2.422170 1_555
Na2 O70 2.604078 1_555
Na2 O28 2.667434 1_555
Na2 O8 2.789004 1_555
Na2 O12 2.802789 1_555
Na3 O101 2.320532 1_555
Na3 O143 2.329787 1_555
Na3 O139 2.398089 1_555
Na3 O99 2.424066 1_555
Na3 O71 2.605678 1_555
Na3 O29 2.642989 1_555
Na3 O9 2.790490 1_555
Na3 O13 2.802176 1_555
Na4 O128 2.374275 1_555
Na4 O86 2.379891 1_555
Na4 O130 2.441479 1_555
Na4 O85 2.443325 1_455
Na4 O56 2.578760 1_555
Na4 O14 2.608237 1_555
Na4 O42 2.743368 1_555
Na4 O28 2.784873 1_555
Na5 O129 2.373071 1_555
Na5 O87 2.377103 1_555
Na5 O131 2.439113 1_555
Na5 O84 2.443736 1_555
Na5 O57 2.599163 1_555
Na5 O15 2.612741 1_555
Na5 O43 2.777424 1_555
Na5 O29 2.792052 1_555
Na6 O130 2.373259 1_555
Na6 O89 2.380425 1_455
Na6 O126 2.443562 1_555
Na6 O86 2.446668 1_565
Na6 O58 2.579644 1_555
Na6 O16 2.602696 1_555
Na6 O45 2.743142 1_455
Na6 O25 2.749464 1_455
Na7 O131 2.373905 1_555
Na7 O88 2.380690 1_555
Na7 O127 2.436399 1_555
Na7 O87 2.448035 1_565
Na7 O17 2.600156 1_555
Na7 O59 2.611817 1_555
Na7 O24 2.750125 1_555
Na7 O44 2.778775 1_555
Na8 O126 2.371367 1_555
Na8 O84 2.376582 1_565
Na8 O128 2.444668 1_555
Na8 O88 2.447976 1_555
Na8 O54 2.627669 1_555
Na8 O12 2.636508 1_555
Na8 O46 2.740396 1_565
Na8 O26 2.755968 1_565
Na9 O127 2.373913 1_555
Na9 O85 2.376955 1_565
Na9 O129 2.445004 1_555
Na9 O89 2.446409 1_555
Na9 O55 2.574129 1_555
Na9 O13 2.634533 1_555
Na9 O47 2.742305 1_565
Na9 O27 2.752896 1_565
Na10 O124 2.374651 1_555
Na10 O94 2.378602 1_565
Na10 O91 2.441137 1_455
Na10 O122 2.445745 1_555
Na10 O52 2.595585 1_554
Na10 O22 2.617693 1_555
Na10 O36 2.749612 1_565
Na10 O32 2.785925 1_565
Na11 O125 2.375454 1_555
Na11 O95 2.379530 1_565
Na11 O123 2.445378 1_555
Na11 O90 2.447282 1_555
Na11 O53 2.606883 1_554
Na11 O23 2.614213 1_555
Na11 O33 2.743365 1_565
Na11 O37 2.750876 1_565
Na12 O120 2.372116 1_555
Na12 O90 2.376896 1_555
Na12 O124 2.447230 1_555
Na12 O92 2.448190 1_565
Na12 O48 2.628478 1_554
Na12 O18 2.646878 1_555
Na12 O38 2.750720 1_555
Na12 O34 2.750815 1_555
Na13 O121 2.373120 1_555
Na13 O91 2.377200 1_555
Na13 O125 2.443323 1_555
Na13 O93 2.443853 1_565
Na13 O19 2.616658 1_555
Na13 O49 2.622410 1_554
Na13 O39 2.748132 1_555
Na13 O35 2.780142 1_555
Na14 O122 2.372363 1_555
Na14 O93 2.378899 1_455
Na14 O120 2.444736 1_555
Na14 O94 2.447134 1_555
Na14 O50 2.598763 1_554
Na14 O20 2.607101 1_555
Na14 O41 2.750686 1_455
Na14 O31 2.754051 1_455
Na15 O123 2.375614 1_555
Na15 O92 2.379071 1_555
Na15 O121 2.446998 1_555
Na15 O95 2.447655 1_555
Na15 O51 2.600516 1_554
Na15 O21 2.618286 1_555
Na15 O30 2.742629 1_555
Na15 O40 2.748183 1_555
Na16 O115 2.358902 1_555
Na16 O73 2.362755 1_545
Na16 O77 2.395500 1_555
Na16 O117 2.410572 1_555
Na16 O1 2.620287 1_555
Na16 O43 2.668197 1_555
Na16 O63 2.757634 1_545
Na16 O59 2.807566 1_545
Na17 O74 2.322883 1_555
Na17 O116 2.351445 1_555
Na17 O118 2.411639 1_555
Na17 O73 2.435683 1_555
Na17 O2 2.591432 1_555
Na17 O44 2.694948 1_555
Na17 O64 2.743745 1_555
Na17 O54 2.792191 1_555
Na18 O86 2.519945 1_565
Na18 O89 2.520091 1_455
Na18 O85 2.532402 1_465
Na18 O76 2.533121 1_565
Na18 O75 2.538393 1_455
Na18 O72 2.549741 1_555
Na19 O77 2.440681 1_555
Na19 O74 2.448621 1_545
Na19 O73 2.501898 1_545
Na19 O84 2.538310 1_555
Na19 O87 2.583035 1_555
Na19 O88 2.583452 1_545
Na20 O94 2.504752 1_555
Na20 O93 2.504970 1_455
Na20 O91 2.509229 1_445
Na20 O78 2.571813 1_554
Na20 O83 2.574790 1_444
Na20 O80 2.575139 1_544
Na21 O95 2.504620 1_565
Na21 O90 2.506675 1_555
Na21 O92 2.508257 1_565
Na21 O79 2.572891 1_564
Na21 O82 2.574642 1_554
Na21 O81 2.575188 1_554
Na22 O112 2.470610 1_555
Na22 O110 2.474658 1_555
Na22 O96 2.508677 1_555
Na22 O108 2.519631 1_555
Na22 O98 2.563214 1_555
Na22 O100 2.570812 1_555
Na23 O113 2.471031 1_555
Na23 O111 2.471860 1_555
Na23 O97 2.510141 1_555
Na23 O109 2.520367 1_555
Na23 O99 2.561418 1_555
Na23 O101 2.569174 1_555
Na24 O102 2.503446 1_555
Na24 O106 2.506642 1_555
Na24 O104 2.511174 1_555
Na24 O118 2.521869 1_555
Na24 O114 2.527968 1_555
Na24 O116 2.551366 1_555
Na25 O105 2.452143 1_555
Na25 O119 2.486425 1_555
Na25 O103 2.497331 1_555
Na25 O115 2.543771 1_555
Na25 O107 2.560565 1_555
Na25 O117 2.565796 1_555
Na26 O136 2.445459 1_555
Na26 O134 2.483411 1_555
Na26 O132 2.493320 1_555
Na26 O120 2.552515 1_555
Na26 O122 2.557897 1_555
Na26 O124 2.599550 1_555
Na27 O133 2.427955 1_555
Na27 O137 2.482461 1_555
Na27 O135 2.497758 1_555
Na27 O123 2.550625 1_555
Na27 O125 2.552121 1_555
Na27 O121 2.606330 1_555
Na28 O140 2.425940 1_555
Na28 O138 2.483657 1_555
Na28 O142 2.496731 1_555
Na28 O130 2.554664 1_555
Na28 O126 2.558568 1_555
Na28 O128 2.599099 1_555
Na29 O141 2.427269 1_555
Na29 O139 2.482882 1_555
Na29 O143 2.495952 1_555
Na29 O131 2.553236 1_555
Na29 O127 2.555492 1_555
Na29 O129 2.595589 1_555
Ga0 O4 1.914835 1_555
Ga0 O2 1.963713 1_545
Ga0 O1 1.969116 1_555
Ga0 O77 2.025331 1_555
Ga0 O74 2.028854 1_545
Ga0 O73 2.098635 1_545
Ga1 O14 1.915097 1_555
Ga1 O16 1.927884 1_545
Ga1 O13 1.936029 1_445
Ga1 O86 2.066125 1_555
Ga1 O85 2.074208 1_455
Ga1 O89 2.080007 1_445
Ga2 O15 1.915325 1_555
Ga2 O17 1.927216 1_545
Ga2 O12 1.937514 1_545
Ga2 O87 2.066540 1_555
Ga2 O84 2.068331 1_555
Ga2 O88 2.083372 1_545
Ga3 O20 1.921778 1_555
Ga3 O19 1.927946 1_445
Ga3 O22 1.928285 1_545
Ga3 O94 2.067026 1_555
Ga3 O93 2.069085 1_455
Ga3 O91 2.082876 1_445
Ga4 O23 1.915029 1_555
Ga4 O18 1.923908 1_555
Ga4 O21 1.943144 1_565
Ga4 O90 2.072883 1_555
Ga4 O95 2.087553 1_565
Ga4 O92 2.093082 1_565
Ga5 O26 1.947395 1_555
Ga5 O24 1.948156 1_555
Ga5 O96 1.966097 1_555
Ga5 O28 2.017564 1_555
Ga5 O98 2.026459 1_555
Ga5 O100 2.039118 1_555
Ga6 O25 1.947799 1_555
Ga6 O27 1.949806 1_555
Ga6 O97 1.967525 1_555
Ga6 O29 2.014800 1_555
Ga6 O99 2.028664 1_555
Ga6 O101 2.037979 1_555
Ga7 O34 1.940423 1_555
Ga7 O30 1.942601 1_555
Ga7 O102 1.953436 1_555
Ga7 O104 2.022886 1_555
Ga7 O32 2.029288 1_555
Ga7 O106 2.046737 1_555
Ga8 O33 1.940568 1_555
Ga8 O31 1.952604 1_555
Ga8 O105 1.973943 1_555
Ga8 O107 2.017114 1_555
Ga8 O35 2.028404 1_555
Ga8 O103 2.051261 1_555
Ga9 O36 1.973752 1_556
Ga9 O38 1.977486 1_556
Ga9 O40 1.980454 1_556
Ga9 O110 1.989753 1_555
Ga9 O112 1.990685 1_555
Ga9 O108 1.996680 1_555
Ga10 O41 1.974919 1_556
Ga10 O39 1.976302 1_556
Ga10 O37 1.978664 1_556
Ga10 O111 1.988174 1_555
Ga10 O113 1.992245 1_555
Ga10 O109 1.999089 1_555
Ga11 O114 1.945005 1_555
Ga11 O46 1.948203 1_555
Ga11 O42 1.955801 1_555
Ga11 O118 2.008907 1_555
Ga11 O116 2.029575 1_555
Ga11 O44 2.038902 1_555
Ga12 O45 1.952339 1_555
Ga12 O119 1.953100 1_555
Ga12 O47 1.970012 1_555
Ga12 O117 2.009828 1_555
Ga12 O43 2.025586 1_555
Ga12 O115 2.028682 1_555
Ga13 O50 1.929395 1_554
Ga13 O52 1.929425 1_554
Ga13 O48 1.932689 1_554
Ga13 O122 2.070963 1_555
Ga13 O120 2.075686 1_555
Ga13 O124 2.080335 1_555
Ga14 O53 1.928700 1_554
Ga14 O51 1.929899 1_554
Ga14 O49 1.931564 1_554
Ga14 O123 2.068221 1_555
Ga14 O125 2.073069 1_555
Ga14 O121 2.080679 1_555
Ga15 O58 1.913427 1_555
Ga15 O54 1.922633 1_555
Ga15 O56 1.933885 1_555
Ga15 O126 2.075897 1_555
Ga15 O130 2.083081 1_555
Ga15 O128 2.102607 1_555
Ga16 O57 1.901363 1_555
Ga16 O59 1.925362 1_555
Ga16 O55 1.932202 1_555
Ga16 O131 2.076113 1_555
Ga16 O129 2.087838 1_555
Ga16 O127 2.106949 1_555
Ga17 O60 1.926698 1_555
Ga17 O64 1.947060 1_555
Ga17 O136 1.975075 1_555
Ga17 O62 1.993526 1_555
Ga17 O134 2.037472 1_555
Ga17 O132 2.039895 1_555
Ga18 O61 1.926194 1_555
Ga18 O63 1.952187 1_555
Ga18 O133 1.978434 1_555
Ga18 O65 1.984760 1_555
Ga18 O137 2.031697 1_555
Ga18 O135 2.049519 1_555
Ga19 O66 1.902853 1_555
Ga19 O68 1.907177 1_555
Ga19 O70 1.973555 1_555
Ga19 O140 1.993633 1_555
Ga19 O142 2.066509 1_555
Ga19 O138 2.067188 1_555
Ga20 O67 1.903962 1_555
Ga20 O69 1.907915 1_555
Ga20 O71 1.974042 1_555
Ga20 O141 1.994933 1_555
Ga20 O139 2.066809 1_555
Ga20 O143 2.067338 1_555
O0 P0 1.568228 1_545
O0 Ta0 1.952495 1_545
O1 P1 1.558161 1_545
O2 P2 1.547656 1_555
O3 P3 1.569409 1_555
O3 Ta0 1.952580 1_655
O4 P5 1.542488 1_555
O5 P4 1.577847 1_655
O5 Ta0 1.953503 1_645
O6 P6 1.557015 1_555
O6 Ta1 1.975321 1_555
O7 P7 1.557286 1_555
O7 Ta2 1.974325 1_555
O8 P9 1.571639 1_555
O8 Ta2 1.998595 1_565
O9 P8 1.571591 1_655
O9 Ta1 1.997951 1_665
O10 P10 1.562799 1_555
O10 Ta2 1.984285 1_555
O11 P11 1.563061 1_555
O11 Ta1 1.984839 1_655
O12 P10 1.561326 1_565
O13 P11 1.560723 1_565
O14 P6 1.542873 1_555
O15 P7 1.544016 1_555
O16 P8 1.551716 1_555
O17 P9 1.552792 1_555
O18 P2 1.569867 1_555
O19 P3 1.533649 1_555
O20 P4 1.543380 1_555
O21 P5 1.568778 1_555
O22 P0 1.533833 1_555
O23 P1 1.559278 1_555
O24 P12 1.542318 1_555
O25 P13 1.543288 1_555
O26 P14 1.542720 1_555
O27 P15 1.540110 1_555
O28 P16 1.551158 1_555
O29 P17 1.552899 1_555
O30 P18 1.540356 1_555
O31 P19 1.543846 1_555
O32 P20 1.552486 1_555
O33 P21 1.542249 1_555
O34 P22 1.543061 1_555
O35 P23 1.552754 1_555
O36 P22 1.531229 1_555
O37 P23 1.527725 1_555
O38 P18 1.530680 1_555
O39 P19 1.533543 1_555
O40 P20 1.528542 1_555
O41 P21 1.531523 1_555
O42 P14 1.530603 1_555
O43 P15 1.541266 1_555
O44 P16 1.538563 1_555
O45 P17 1.526212 1_555
O46 P12 1.529392 1_555
O47 P13 1.533096 1_555
O48 P24 1.538108 1_555
O49 P25 1.538772 1_555
O50 P26 1.540104 1_555
O51 P27 1.541321 1_555
O52 P28 1.541121 1_555
O53 P29 1.541577 1_555
O54 P30 1.577084 1_555
O55 P31 1.552534 1_555
O56 P32 1.552345 1_555
O57 P33 1.560836 1_555
O58 P34 1.554606 1_555
O59 P35 1.572609 1_555
O60 P34 1.513585 1_555
O61 P35 1.511737 1_555
O62 P30 1.537064 1_555
O63 P31 1.522930 1_555
O64 P32 1.523958 1_555
O65 P33 1.532761 1_555
O66 P26 1.532548 1_555
O67 P27 1.531585 1_555
O68 P28 1.532875 1_555
O69 P29 1.532413 1_555
O70 P24 1.545239 1_555
O71 P25 1.545291 1_555
O72 P34 1.582499 1_555
O72 Ta0 1.993900 1_555
O73 P35 1.571689 1_555
O74 P30 1.561746 1_555
O75 P31 1.564530 1_555
O75 Ta0 2.004848 1_655
O76 P32 1.564857 1_555
O76 Ta0 2.007357 1_545
O77 P33 1.562518 1_555
O78 P26 1.590388 1_555
O78 Ta1 1.968060 1_555
O79 P27 1.590631 1_555
O79 Ta2 1.968589 1_555
O80 P28 1.590556 1_555
O80 Ta1 1.970586 1_565
O81 P29 1.590614 1_555
O81 Ta2 1.970045 1_565
O82 P24 1.588637 1_555
O82 Ta2 1.978791 1_565
O83 P25 1.588905 1_555
O83 Ta1 1.978368 1_665
O84 P12 1.564180 1_555
O85 P13 1.566028 1_555
O86 P14 1.563320 1_555
O87 P15 1.564035 1_555
O88 P16 1.564686 1_555
O89 P17 1.564410 1_555
O90 P18 1.569322 1_555
O91 P19 1.565285 1_555
O92 P20 1.568843 1_555
O93 P21 1.564914 1_555
O94 P22 1.563966 1_555
O95 P23 1.568004 1_555
O96 P10 1.521432 1_555
O97 P11 1.521850 1_555
O98 P6 1.545077 1_555
O99 P7 1.544450 1_555
O100 P9 1.550034 1_555
O101 P8 1.549757 1_655
O102 P2 1.533659 1_555
O103 P3 1.542431 1_555
O104 P5 1.543495 1_555
O105 P4 1.532998 1_655
O106 P0 1.541848 1_545
O107 P1 1.558064 1_545
O108 P24 1.522777 1_555
O109 P25 1.522004 1_555
O110 P27 1.520969 1_555
O111 P26 1.521198 1_655
O112 P28 1.524060 1_545
O113 P29 1.523420 1_545
O114 P30 1.532909 1_545
O115 P31 1.542441 1_545
O116 P32 1.542600 1_555
O117 P33 1.557737 1_555
O118 P35 1.545033 1_555
O119 P34 1.532638 1_655
O120 P22 1.565473 1_555
O121 P23 1.565687 1_555
O122 P19 1.565587 1_455
O123 P18 1.564082 1_555
O124 P20 1.565376 1_565
O125 P21 1.566234 1_565
O126 P14 1.565781 1_565
O127 P15 1.563954 1_565
O128 P16 1.563696 1_555
O129 P17 1.564453 1_555
O130 P13 1.564578 1_455
O131 P12 1.564459 1_555
O132 P0 1.540007 1_555
O133 P1 1.532171 1_555
O134 P2 1.556722 1_555
O135 P3 1.539625 1_555
O136 P4 1.531777 1_555
O137 P5 1.543315 1_555
O138 P6 1.542112 1_555
O139 P7 1.541391 1_555
O140 P8 1.518922 1_555
O141 P9 1.518077 1_555
O142 P10 1.543780 1_565
O143 P11 1.543622 1_565
