# generated using pymatgen
data_Ba2EuCl7
_symmetry_space_group_name_H-M   'P 1'
_cell_length_a   15.76922300
_cell_length_b   7.04579600
_cell_length_c   10.75191422
_cell_angle_alpha   88.73023448
_cell_angle_beta   90.00000000
_cell_angle_gamma   90.00000000
_symmetry_Int_Tables_number   1
_chemical_formula_structural   Ba2EuCl7
_chemical_formula_sum   'Ba8 Eu4 Cl28'
_cell_volume   1194.31666613
_cell_formula_units_Z   4
loop_
 _symmetry_equiv_pos_site_id
 _symmetry_equiv_pos_as_xyz
  1  'x, y, z'
loop_
 _atom_site_type_symbol
 _atom_site_label
 _atom_site_symmetry_multiplicity
 _atom_site_fract_x
 _atom_site_fract_y
 _atom_site_fract_z
 _atom_site_occupancy
  Ba  Ba0  1  0.22229800  0.72910000  0.55184300  1
  Ba  Ba1  1  0.72229800  0.27090000  0.94815700  1
  Ba  Ba2  1  0.77770200  0.27090000  0.44815700  1
  Ba  Ba3  1  0.27770200  0.72910000  0.05184300  1
  Ba  Ba4  1  0.06164000  0.27241900  0.82757900  1
  Ba  Ba5  1  0.56164000  0.72758100  0.67242100  1
  Ba  Ba6  1  0.93836000  0.72758100  0.17242100  1
  Ba  Ba7  1  0.43836000  0.27241900  0.32757900  1
  Eu  Eu0  1  0.37383000  0.21447400  0.78462900  1
  Eu  Eu1  1  0.87383000  0.78552600  0.71537100  1
  Eu  Eu2  1  0.62617000  0.78552600  0.21537100  1
  Eu  Eu3  1  0.12617000  0.21447400  0.28462900  1
  Cl  Cl0  1  0.14127600  0.29109700  0.53582300  1
  Cl  Cl1  1  0.64127600  0.70890300  0.96417700  1
  Cl  Cl2  1  0.85872400  0.70890300  0.46417700  1
  Cl  Cl3  1  0.35872400  0.29109700  0.03582300  1
  Cl  Cl4  1  0.06983300  0.85825700  0.37654300  1
  Cl  Cl5  1  0.56983300  0.14174300  0.12345700  1
  Cl  Cl6  1  0.93016700  0.14174300  0.62345700  1
  Cl  Cl7  1  0.43016700  0.85825700  0.87654300  1
  Cl  Cl8  1  0.95579800  0.30410100  0.29059700  1
  Cl  Cl9  1  0.45579800  0.69589900  0.20940300  1
  Cl  Cl10  1  0.04420200  0.69589900  0.70940300  1
  Cl  Cl11  1  0.54420200  0.30410100  0.79059700  1
  Cl  Cl12  1  0.39620100  0.99750100  0.56992300  1
  Cl  Cl13  1  0.89620100  0.00249900  0.93007700  1
  Cl  Cl14  1  0.60379900  0.00249900  0.43007700  1
  Cl  Cl15  1  0.10379900  0.99750100  0.06992300  1
  Cl  Cl16  1  0.24110600  0.49241200  0.80636500  1
  Cl  Cl17  1  0.74110600  0.50758800  0.69363500  1
  Cl  Cl18  1  0.75889400  0.50758800  0.19363500  1
  Cl  Cl19  1  0.25889400  0.49241200  0.30636500  1
  Cl  Cl20  1  0.22467100  0.99642900  0.79591700  1
  Cl  Cl21  1  0.72467100  0.00357100  0.70408300  1
  Cl  Cl22  1  0.77532900  0.00357100  0.20408300  1
  Cl  Cl23  1  0.27532900  0.99642900  0.29591700  1
  Cl  Cl24  1  0.39623000  0.49154800  0.58249300  1
  Cl  Cl25  1  0.89623000  0.50845200  0.91750700  1
  Cl  Cl26  1  0.60377000  0.50845200  0.41750700  1
  Cl  Cl27  1  0.10377000  0.49154800  0.08249300  1
loop_
_geom_bond_atom_site_label_1
_geom_bond_atom_site_label_2
_geom_bond_distance
_geom_bond_site_symmetry_2
Ba0 Cl4 3.175698 1_555
Ba0 Cl16 3.186809 1_555
Ba0 Cl19 3.205526 1_555
Ba0 Cl24 3.226201 1_555
Ba0 Cl20 3.264195 1_555
Ba0 Cl10 3.285475 1_555
Ba0 Cl12 3.339256 1_555
Ba0 Cl0 3.348061 1_555
Ba0 Cl23 3.404290 1_555
Ba1 Cl5 3.175698 1_556
Ba1 Cl17 3.186809 1_555
Ba1 Cl18 3.205526 1_556
Ba1 Cl25 3.226201 1_555
Ba1 Cl21 3.264195 1_555
Ba1 Cl11 3.285475 1_555
Ba1 Cl13 3.339256 1_555
Ba1 Cl1 3.348061 1_555
Ba1 Cl22 3.404290 1_556
Ba2 Cl6 3.175698 1_555
Ba2 Cl18 3.186809 1_555
Ba2 Cl17 3.205526 1_555
Ba2 Cl26 3.226201 1_555
Ba2 Cl22 3.264195 1_555
Ba2 Cl8 3.285475 1_555
Ba2 Cl14 3.339256 1_555
Ba2 Cl2 3.348061 1_555
Ba2 Cl21 3.404290 1_555
Ba3 Cl7 3.175698 1_554
Ba3 Cl19 3.186809 1_555
Ba3 Cl16 3.205526 1_554
Ba3 Cl27 3.226201 1_555
Ba3 Cl23 3.264195 1_555
Ba3 Cl9 3.285475 1_555
Ba3 Cl15 3.339256 1_555
Ba3 Cl3 3.348061 1_555
Ba3 Cl20 3.404290 1_554
Ba4 Cl6 3.170530 1_455
Ba4 Cl10 3.228753 1_555
Ba4 Cl16 3.232346 1_555
Ba4 Cl27 3.244182 1_556
Ba4 Cl20 3.245915 1_545
Ba4 Cl25 3.252006 1_455
Ba4 Cl15 3.280212 1_546
Ba4 Cl0 3.378819 1_555
Ba4 Cl13 3.397726 1_455
Ba5 Cl7 3.170530 1_555
Ba5 Cl11 3.228753 1_555
Ba5 Cl17 3.232346 1_555
Ba5 Cl26 3.244182 1_555
Ba5 Cl21 3.245915 1_565
Ba5 Cl24 3.252006 1_555
Ba5 Cl14 3.280212 1_565
Ba5 Cl1 3.378819 1_555
Ba5 Cl12 3.397726 1_555
Ba6 Cl4 3.170530 1_655
Ba6 Cl8 3.228753 1_555
Ba6 Cl18 3.232346 1_555
Ba6 Cl25 3.244182 1_554
Ba6 Cl22 3.245915 1_565
Ba6 Cl27 3.252006 1_655
Ba6 Cl13 3.280212 1_564
Ba6 Cl2 3.378819 1_555
Ba6 Cl15 3.397726 1_655
Ba7 Cl5 3.170530 1_555
Ba7 Cl9 3.228753 1_555
Ba7 Cl19 3.232346 1_555
Ba7 Cl24 3.244182 1_555
Ba7 Cl23 3.245915 1_545
Ba7 Cl26 3.252006 1_555
Ba7 Cl12 3.280212 1_545
Ba7 Cl3 3.378819 1_555
Ba7 Cl14 3.397726 1_555
Cl0 Eu3 2.776191 1_555
Cl1 Eu2 2.776191 1_556
Cl2 Eu1 2.776191 1_555
Cl3 Eu0 2.776191 1_554
Cl4 Eu3 2.820498 1_565
Cl5 Eu2 2.820498 1_545
Cl6 Eu1 2.820498 1_545
Cl7 Eu0 2.820498 1_565
Cl8 Eu3 2.760924 1_655
Cl9 Eu2 2.760924 1_555
Cl10 Eu1 2.760924 1_455
Cl11 Eu0 2.760924 1_555
Cl12 Eu0 2.819060 1_565
Cl13 Eu1 2.819060 1_545
Cl14 Eu2 2.819060 1_545
Cl15 Eu3 2.819060 1_565
Cl16 Eu0 2.879284 1_555
Cl17 Eu1 2.879284 1_555
Cl18 Eu2 2.879284 1_555
Cl19 Eu3 2.879284 1_555
Cl20 Eu0 2.810545 1_565
Cl21 Eu1 2.810545 1_545
Cl22 Eu2 2.810545 1_545
Cl23 Eu3 2.810545 1_565
Cl24 Eu0 2.910548 1_555
Cl25 Eu1 2.910548 1_555
Cl26 Eu2 2.910548 1_555
Cl27 Eu3 2.910548 1_555
