# generated using pymatgen
data_RbPaF6
_symmetry_space_group_name_H-M   'P 1'
_cell_length_a   7.01395573
_cell_length_b   6.99012364
_cell_length_c   6.99012428
_cell_angle_alpha   110.61542702
_cell_angle_beta   90.00000000
_cell_angle_gamma   90.00000000
_symmetry_Int_Tables_number   1
_chemical_formula_structural   RbPaF6
_chemical_formula_sum   'Rb2 Pa2 F12'
_cell_volume   320.76891555
_cell_formula_units_Z   2
loop_
 _symmetry_equiv_pos_site_id
 _symmetry_equiv_pos_as_xyz
  1  'x, y, z'
loop_
 _atom_site_type_symbol
 _atom_site_label
 _atom_site_symmetry_multiplicity
 _atom_site_fract_x
 _atom_site_fract_y
 _atom_site_fract_z
 _atom_site_occupancy
  Rb  Rb0  1  0.50755367  0.25000000  0.75000000  1
  Rb  Rb1  1  0.49244633  0.75000000  0.25000000  1
  Pa  Pa0  1  0.00000000  0.50000000  0.00000000  1
  Pa  Pa1  1  0.00000000  -0.00000000  0.50000000  1
  F  F0  1  0.75673844  0.40333809  0.12144398  1
  F  F1  1  0.75673844  0.09666191  0.37855602  1
  F  F2  1  0.24326156  0.12144398  0.40333809  1
  F  F3  1  0.24326156  0.37855602  0.09666191  1
  F  F4  1  0.98206833  0.35273303  0.64726697  1
  F  F5  1  0.98206833  0.14726697  0.85273303  1
  F  F6  1  0.01793167  0.64726697  0.35273303  1
  F  F7  1  0.01793167  0.85273303  0.14726697  1
  F  F8  1  0.75673844  0.62144398  0.90333809  1
  F  F9  1  0.75673844  0.87855602  0.59666191  1
  F  F10  1  0.24326156  0.90333809  0.62144398  1
  F  F11  1  0.24326156  0.59666191  0.87855602  1
loop_
_geom_bond_atom_site_label_1
_geom_bond_atom_site_label_2
_geom_bond_distance
_geom_bond_site_symmetry_2
F0 Pa0 2.119507 1_655
F0 Rb1 2.929572 1_555
F0 Rb0 2.997552 1_554
F1 Pa1 2.119507 1_655
F1 Rb1 2.929572 1_545
F1 Rb0 2.997552 1_555
F2 Pa1 2.119507 1_555
F2 Rb0 2.929572 1_555
F2 Rb1 2.997551 1_545
F3 Pa0 2.119507 1_555
F3 Rb0 2.929572 1_554
F3 Rb1 2.997551 1_555
F4 Pa1 2.316804 1_655
F4 Pa0 2.316804 1_656
F5 Pa0 2.316804 1_656
F5 Pa1 2.316804 1_655
F6 Pa1 2.316804 1_565
F6 Pa0 2.316804 1_555
F7 Pa0 2.316804 1_555
F7 Pa1 2.316804 1_565
F8 Pa0 2.119507 1_656
F8 Rb1 2.929572 1_556
F8 Rb0 2.997551 1_555
F9 Pa1 2.119507 1_665
F9 Rb1 2.929572 1_555
F9 Rb0 2.997551 1_565
F10 Pa1 2.119507 1_565
F10 Rb0 2.929572 1_565
F10 Rb1 2.997552 1_555
F11 Pa0 2.119507 1_556
F11 Rb0 2.929572 1_555
F11 Rb1 2.997552 1_556
