# generated using pymatgen
data_MgFe6(O5F)2
_symmetry_space_group_name_H-M   'P 1'
_cell_length_a   5.09915820
_cell_length_b   7.71450398
_cell_length_c   5.69133999
_cell_angle_alpha   97.92850069
_cell_angle_beta   96.72023676
_cell_angle_gamma   85.00287730
_symmetry_Int_Tables_number   1
_chemical_formula_structural   MgFe6(O5F)2
_chemical_formula_sum   'Mg1 Fe6 O10 F2'
_cell_volume   219.64548470
_cell_formula_units_Z   1
loop_
 _symmetry_equiv_pos_site_id
 _symmetry_equiv_pos_as_xyz
  1  'x, y, z'
loop_
 _atom_site_type_symbol
 _atom_site_label
 _atom_site_symmetry_multiplicity
 _atom_site_fract_x
 _atom_site_fract_y
 _atom_site_fract_z
 _atom_site_occupancy
  Mg  Mg0  1  0.01982500  0.83868100  0.34675500  1
  Fe  Fe0  1  0.50083200  0.65221000  0.16992700  1
  Fe  Fe1  1  0.54548900  0.03036400  0.44309800  1
  Fe  Fe2  1  0.45440000  0.31249300  0.85461600  1
  Fe  Fe3  1  0.97585400  0.64517000  0.70372600  1
  Fe  Fe4  1  0.99193000  0.31842600  0.32734600  1
  Fe  Fe5  1  0.01734500  0.02710700  0.95236000  1
  O  O0  1  0.84625300  0.43298900  0.60809500  1
  O  O1  1  0.84367700  0.07764900  0.27468200  1
  O  O2  1  0.68374000  0.10315500  0.77880500  1
  O  O3  1  0.69471600  0.76156200  0.46096000  1
  O  O4  1  0.68138700  0.42317400  0.12751100  1
  O  O5  1  0.30227600  0.55668100  0.87447300  1
  O  O6  1  0.30725900  0.23450700  0.52987400  1
  O  O7  1  0.31875000  0.89104500  0.18809900  1
  O  O8  1  0.19082800  0.23684200  0.04379000  1
  O  O9  1  0.12820800  0.86532000  0.69834500  1
  F  F0  1  0.81525900  0.74938600  0.00530300  1
  F  F1  1  0.18197300  0.58490700  0.35032900  1
loop_
_geom_bond_atom_site_label_1
_geom_bond_atom_site_label_2
_geom_bond_distance
_geom_bond_site_symmetry_2
Mg0 O7 1.957535 1_555
Mg0 O9 1.999814 1_555
Mg0 O3 2.013790 1_455
Mg0 O1 2.051222 1_465
Fe0 O4 1.918021 1_555
Fe0 O5 1.945611 1_554
Fe0 O3 1.951713 1_555
Fe0 O7 1.984794 1_555
Fe1 O6 1.947391 1_555
Fe1 O1 1.974320 1_555
Fe1 O2 1.980032 1_555
Fe1 O7 1.997895 1_545
Fe1 O3 2.157460 1_545
Fe2 O2 1.938720 1_555
Fe2 O6 1.946313 1_555
Fe2 O4 1.966357 1_556
Fe2 O5 1.967325 1_555
Fe2 O8 1.988658 1_556
Fe3 O0 1.808535 1_555
Fe3 O9 1.933555 1_655
Fe3 O5 1.946110 1_655
Fe3 O3 2.103516 1_555
Fe4 O0 1.913065 1_555
Fe4 O6 1.980875 1_655
Fe4 O8 2.005193 1_655
Fe4 O4 2.015719 1_555
Fe4 O1 2.037042 1_555
Fe5 O9 1.880938 1_545
Fe5 O8 1.892246 1_556
Fe5 O2 1.950989 1_455
Fe5 O1 2.103369 1_456
Fe5 O7 2.211065 1_546
F0 Fe3 2.023980 1_554
F0 Mg0 2.149548 1_655
F0 Fe0 2.182932 1_555
F0 Fe5 2.525521 1_664
F1 Mg0 2.059574 1_555
F1 Fe0 2.156891 1_555
F1 Fe4 2.329287 1_455
F1 Fe3 2.349003 1_455
