# generated using pymatgen
data_Na2HfNbSi2PO12
_symmetry_space_group_name_H-M   'P 1'
_cell_length_a   8.98767492
_cell_length_b   8.98767461
_cell_length_c   22.87677607
_cell_angle_alpha   90.12349952
_cell_angle_beta   89.87650049
_cell_angle_gamma   119.80089654
_symmetry_Int_Tables_number   1
_chemical_formula_structural   Na2HfNbSi2PO12
_chemical_formula_sum   'Na12 Hf6 Nb6 Si12 P6 O72'
_cell_volume   1603.56524411
_cell_formula_units_Z   6
loop_
 _symmetry_equiv_pos_site_id
 _symmetry_equiv_pos_as_xyz
  1  'x, y, z'
loop_
 _atom_site_type_symbol
 _atom_site_label
 _atom_site_symmetry_multiplicity
 _atom_site_fract_x
 _atom_site_fract_y
 _atom_site_fract_z
 _atom_site_occupancy
  Na  Na0  1  0.99391815  0.62975977  0.25064946  1
  Na  Na1  1  0.37024023  0.00608185  0.75064946  1
  Na  Na2  1  0.66058515  0.96309277  0.58398246  1
  Na  Na3  1  0.03690723  0.33941485  0.08398246  1
  Na  Na4  1  0.32725115  0.29642677  0.91731646  1
  Na  Na5  1  0.70357323  0.67274885  0.41731646  1
  Na  Na6  1  0.01648709  0.00359438  0.49850984  1
  Na  Na7  1  0.99640562  0.98351291  0.99850984  1
  Na  Na8  1  0.68315409  0.33692738  0.83184284  1
  Na  Na9  1  0.66307262  0.31684591  0.33184284  1
  Na  Na10  1  0.34982009  0.67026138  0.16517684  1
  Na  Na11  1  0.32973862  0.65017991  0.66517684  1
  Hf  Hf0  1  0.99826788  0.00308747  0.35368473  1
  Hf  Hf1  1  0.99691253  0.00173212  0.85368473  1
  Hf  Hf2  1  0.66493488  0.33642047  0.68701773  1
  Hf  Hf3  1  0.66357953  0.33506512  0.18701773  1
  Hf  Hf4  1  0.33160088  0.66975447  0.02035173  1
  Hf  Hf5  1  0.33024553  0.66839912  0.52035173  1
  Nb  Nb0  1  0.00086288  0.99943089  0.64633390  1
  Nb  Nb1  1  0.00056911  0.99913712  0.14633390  1
  Nb  Nb2  1  0.66752988  0.33276389  0.97966690  1
  Nb  Nb3  1  0.66723611  0.33247012  0.47966690  1
  Nb  Nb4  1  0.33419588  0.66609789  0.31300090  1
  Nb  Nb5  1  0.33390211  0.66580412  0.81300090  1
  Si  Si0  1  0.70802447  0.71210909  0.25105050  1
  Si  Si1  1  0.00027008  0.29084270  0.24981589  1
  Si  Si2  1  0.28789091  0.29197553  0.75105050  1
  Si  Si3  1  0.70915730  0.99972992  0.74981589  1
  Si  Si4  1  0.37469147  0.04544209  0.58438350  1
  Si  Si5  1  0.66693708  0.62417570  0.58314889  1
  Si  Si6  1  0.95455791  0.62530853  0.08438350  1
  Si  Si7  1  0.37582430  0.33306292  0.08314889  1
  Si  Si8  1  0.04135747  0.37877609  0.91771750  1
  Si  Si9  1  0.33360308  0.95750970  0.91648289  1
  Si  Si10  1  0.62122391  0.95864253  0.41771750  1
  Si  Si11  1  0.04249030  0.66639692  0.41648289  1
  P  P0  1  0.28858943  -0.00002414  0.25059357  1
  P  P1  1  0.00002414  0.71141057  0.75059357  1
  P  P2  1  0.95525643  0.33330886  0.58392657  1
  P  P3  1  0.66669114  0.04474357  0.08392657  1
  P  P4  1  0.62192243  0.66664286  0.91726057  1
  P  P5  1  0.33335714  0.37807757  0.41726057  1
  O  O0  1  0.20424105  0.02329965  0.30480311  1
  O  O1  1  0.82740566  0.79416174  0.30830603  1
  O  O2  1  0.97890425  0.17405197  0.30552220  1
  O  O3  1  0.20583826  0.17259434  0.80830603  1
  O  O4  1  0.97670035  0.79575895  0.80480311  1
  O  O5  1  0.82594803  0.02109575  0.80552220  1
  O  O6  1  0.80037257  0.97220795  0.69053552  1
  O  O7  1  0.16311988  0.18861260  0.69437697  1
  O  O8  1  0.02946517  0.82897722  0.69599574  1
  O  O9  1  0.81138740  0.83688012  0.19437697  1
  O  O10  1  0.02779205  0.19962743  0.19053552  1
  O  O11  1  0.17102278  0.97053483  0.19599574  1
  O  O12  1  0.87090805  0.35663265  0.63813611  1
  O  O13  1  0.49407266  0.12749474  0.64163903  1
  O  O14  1  0.64557125  0.50738497  0.63885520  1
  O  O15  1  0.87250526  0.50592734  0.14163903  1
  O  O16  1  0.64336735  0.12909195  0.13813611  1
  O  O17  1  0.49261503  0.35442875  0.13885520  1
  O  O18  1  0.46703957  0.30554095  0.02386852  1
  O  O19  1  0.82978688  0.52194560  0.02770997  1
  O  O20  1  0.69613217  0.16231022  0.02932874  1
  O  O21  1  0.47805440  0.17021312  0.52770997  1
  O  O22  1  0.69445905  0.53296043  0.52386852  1
  O  O23  1  0.83768978  0.30386783  0.52932874  1
  O  O24  1  0.53757405  0.68996665  0.97147011  1
  O  O25  1  0.16073866  0.46082874  0.97497303  1
  O  O26  1  0.31223725  0.84071897  0.97218920  1
  O  O27  1  0.53917126  0.83926134  0.47497303  1
  O  O28  1  0.31003335  0.46242595  0.47147011  1
  O  O29  1  0.15928103  0.68776275  0.47218920  1
  O  O30  1  0.13370557  0.63887495  0.35720252  1
  O  O31  1  0.49645288  0.85527960  0.36104397  1
  O  O32  1  0.36279817  0.49564422  0.36266274  1
  O  O33  1  0.14472040  0.50354712  0.86104397  1
  O  O34  1  0.36112505  0.86629443  0.85720252  1
  O  O35  1  0.50435578  0.63720183  0.86266274  1
  O  O36  1  0.01314776  0.82994741  0.41102751  1
  O  O37  1  0.80794782  0.97329748  0.41001863  1
  O  O38  1  0.18022892  0.19846445  0.40969427  1
  O  O39  1  0.02670252  0.19205218  0.91001863  1
  O  O40  1  0.17005259  0.98685224  0.91102751  1
  O  O41  1  0.80153555  0.81977108  0.90969427  1
  O  O42  1  0.96223189  0.16303742  0.58852728  1
  O  O43  1  0.18514197  0.02808274  0.59048552  1
  O  O44  1  0.83796009  0.81834623  0.59006933  1
  O  O45  1  0.97191726  0.81485803  0.09048552  1
  O  O46  1  0.83696258  0.03776811  0.08852728  1
  O  O47  1  0.18165377  0.16203991  0.09006933  1
  O  O48  1  0.67981476  0.16328041  0.74436051  1
  O  O49  1  0.47461482  0.30663048  0.74335163  1
  O  O50  1  0.84689592  0.53179745  0.74302727  1
  O  O51  1  0.69336952  0.52538518  0.24335163  1
  O  O52  1  0.83671959  0.32018524  0.24436051  1
  O  O53  1  0.46820255  0.15310408  0.24302727  1
  O  O54  1  0.62889889  0.49637042  0.92186028  1
  O  O55  1  0.85180897  0.36141574  0.92381852  1
  O  O56  1  0.50462709  0.15167923  0.92340233  1
  O  O57  1  0.63858426  0.14819103  0.42381852  1
  O  O58  1  0.50362958  0.37110111  0.42186028  1
  O  O59  1  0.84832077  0.49537291  0.42340233  1
  O  O60  1  0.34648076  0.49661441  0.07769451  1
  O  O61  1  0.14128082  0.63996448  0.07668563  1
  O  O62  1  0.51356192  0.86513145  0.07636127  1
  O  O63  1  0.36003552  0.85871918  0.57668563  1
  O  O64  1  0.50338559  0.65351924  0.57769451  1
  O  O65  1  0.13486855  0.48643808  0.57636127  1
  O  O66  1  0.29556489  0.82970442  0.25519428  1
  O  O67  1  0.51847497  0.69474974  0.25715252  1
  O  O68  1  0.17129309  0.48501323  0.25673633  1
  O  O69  1  0.30525026  0.48152503  0.75715252  1
  O  O70  1  0.17029558  0.70443511  0.75519428  1
  O  O71  1  0.51498677  0.82870691  0.75673633  1
loop_
_geom_bond_atom_site_label_1
_geom_bond_atom_site_label_2
_geom_bond_distance
_geom_bond_site_symmetry_2
Na0 O51 2.384762 1_555
Na0 O66 2.397507 1_655
Na0 O52 2.418704 1_555
Na0 O68 2.513252 1_655
Na0 O30 2.727094 1_655
Na0 O15 2.727842 1_555
Na0 O1 2.888562 1_555
Na0 O11 2.939327 1_655
Na1 O49 2.384761 1_555
Na1 O70 2.397507 1_545
Na1 O48 2.418704 1_555
Na1 O71 2.513252 1_545
Na1 O34 2.727094 1_545
Na1 O13 2.727842 1_555
Na1 O3 2.888562 1_555
Na1 O8 2.939327 1_545
Na2 O63 2.384770 1_555
Na2 O42 2.397507 1_565
Na2 O64 2.418695 1_555
Na2 O44 2.513252 1_555
Na2 O6 2.727094 1_555
Na2 O27 2.727821 1_555
Na2 O13 2.888562 1_565
Na2 O23 2.939327 1_565
Na3 O61 2.384770 1_555
Na3 O46 2.397507 1_455
Na3 O60 2.418695 1_555
Na3 O47 2.513252 1_555
Na3 O10 2.727094 1_555
Na3 O25 2.727821 1_554
Na3 O15 2.888562 1_455
Na3 O20 2.939327 1_455
Na4 O39 2.384762 1_555
Na4 O54 2.397512 1_555
Na4 O40 2.418704 1_545
Na4 O56 2.513266 1_555
Na4 O18 2.727080 1_556
Na4 O3 2.727842 1_555
Na4 O25 2.888562 1_555
Na4 O35 2.939327 1_555
Na5 O37 2.384761 1_555
Na5 O58 2.397511 1_555
Na5 O36 2.418704 1_655
Na5 O59 2.513266 1_555
Na5 O22 2.727080 1_555
Na5 O1 2.727842 1_555
Na5 O27 2.888562 1_555
Na5 O32 2.939327 1_555
Na6 O36 2.526286 1_545
Na6 O43 2.540383 1_555
Na6 O38 2.608069 1_555
Na6 O44 2.660651 1_445
Na6 O37 2.681780 1_445
Na6 O42 2.685071 1_455
Na7 O40 2.526286 1_655
Na7 O45 2.540383 1_556
Na7 O41 2.608069 1_555
Na7 O47 2.660651 1_666
Na7 O39 2.681780 1_665
Na7 O46 2.685071 1_566
Na8 O48 2.526286 1_555
Na8 O55 2.540383 1_555
Na8 O50 2.608069 1_555
Na8 O56 2.660651 1_555
Na8 O49 2.681780 1_555
Na8 O54 2.685071 1_555
Na9 O52 2.526286 1_555
Na9 O57 2.540383 1_555
Na9 O53 2.608069 1_555
Na9 O59 2.660651 1_555
Na9 O51 2.681780 1_555
Na9 O58 2.685071 1_555
Na10 O60 2.526286 1_555
Na10 O67 2.540383 1_555
Na10 O62 2.608069 1_555
Na10 O68 2.660651 1_555
Na10 O61 2.681780 1_555
Na10 O66 2.685071 1_555
Na11 O64 2.526286 1_555
Na11 O69 2.540383 1_555
Na11 O65 2.608069 1_555
Na11 O71 2.660651 1_555
Na11 O63 2.681780 1_555
Na11 O70 2.685071 1_555
Hf0 O2 1.969580 1_555
Hf0 O1 2.023401 1_545
Hf0 O37 2.048224 1_545
Hf0 O0 2.090022 1_655
Hf0 O36 2.092055 1_645
Hf0 O38 2.131830 1_655
Hf1 O5 1.969580 1_555
Hf1 O3 2.023401 1_655
Hf1 O39 2.048224 1_655
Hf1 O4 2.090022 1_545
Hf1 O40 2.092055 1_645
Hf1 O41 2.131830 1_545
Hf2 O14 1.969580 1_555
Hf2 O13 2.023401 1_555
Hf2 O49 2.048224 1_555
Hf2 O12 2.090022 1_555
Hf2 O48 2.092055 1_555
Hf2 O50 2.131830 1_555
Hf3 O17 1.969580 1_555
Hf3 O15 2.023401 1_555
Hf3 O51 2.048224 1_555
Hf3 O16 2.090022 1_555
Hf3 O52 2.092055 1_555
Hf3 O53 2.131830 1_555
Hf4 O26 1.969580 1_554
Hf4 O25 2.023401 1_554
Hf4 O61 2.048224 1_555
Hf4 O24 2.090022 1_554
Hf4 O60 2.092055 1_555
Hf4 O62 2.131830 1_555
Hf5 O29 1.969580 1_555
Hf5 O27 2.023401 1_555
Hf5 O63 2.048224 1_555
Hf5 O28 2.090022 1_555
Hf5 O64 2.092055 1_555
Hf5 O65 2.131830 1_555
Nb0 O7 1.939042 1_565
Nb0 O6 1.970875 1_455
Nb0 O43 2.002535 1_565
Nb0 O44 2.019854 1_455
Nb0 O8 2.025832 1_555
Nb0 O42 2.132932 1_465
Nb1 O9 1.939042 1_455
Nb1 O10 1.970875 1_565
Nb1 O45 2.002535 1_455
Nb1 O47 2.019854 1_565
Nb1 O11 2.025832 1_555
Nb1 O46 2.132932 1_465
Nb2 O19 1.939042 1_556
Nb2 O18 1.970875 1_556
Nb2 O55 2.002535 1_555
Nb2 O56 2.019854 1_555
Nb2 O20 2.025832 1_556
Nb2 O54 2.132932 1_555
Nb3 O21 1.939042 1_555
Nb3 O22 1.970875 1_555
Nb3 O57 2.002535 1_555
Nb3 O59 2.019854 1_555
Nb3 O23 2.025832 1_555
Nb3 O58 2.132932 1_555
Nb4 O31 1.939042 1_555
Nb4 O30 1.970875 1_555
Nb4 O67 2.002535 1_555
Nb4 O68 2.019854 1_555
Nb4 O32 2.025832 1_555
Nb4 O66 2.132932 1_555
Nb5 O33 1.939042 1_555
Nb5 O34 1.970875 1_555
Nb5 O69 2.002535 1_555
Nb5 O71 2.019854 1_555
Nb5 O35 2.025832 1_555
Nb5 O70 2.132932 1_555
O0 P0 1.519666 1_555
O1 Si0 1.620531 1_555
O2 Si1 1.602218 1_655
O3 Si2 1.620531 1_555
O4 P1 1.519666 1_655
O5 Si3 1.602218 1_545
O6 Si3 1.663650 1_555
O7 Si2 1.663454 1_555
O8 P1 1.572557 1_555
O9 Si0 1.663454 1_555
O10 Si1 1.663650 1_555
O11 P0 1.572557 1_565
O12 P2 1.519666 1_555
O13 Si4 1.620531 1_555
O14 Si5 1.602218 1_555
O15 Si6 1.620531 1_555
O16 P3 1.519666 1_555
O17 Si7 1.602218 1_555
O18 Si7 1.663650 1_555
O19 Si6 1.663454 1_555
O20 P3 1.572557 1_555
O21 Si4 1.663454 1_555
O22 Si5 1.663650 1_555
O23 P2 1.572557 1_555
O24 P4 1.519666 1_555
O25 Si8 1.620531 1_555
O26 Si9 1.602218 1_555
O27 Si10 1.620531 1_555
O28 P5 1.519666 1_555
O29 Si11 1.602218 1_555
O30 Si11 1.663650 1_555
O31 Si10 1.663454 1_555
O32 P5 1.572557 1_555
O33 Si8 1.663454 1_555
O34 Si9 1.663650 1_555
O35 P4 1.572557 1_555
O36 Si11 1.622373 1_555
O37 Si10 1.626002 1_555
O38 P5 1.523661 1_555
O39 Si8 1.626002 1_555
O40 Si9 1.622373 1_555
O41 P4 1.523661 1_555
O42 P2 1.566221 1_555
O43 Si4 1.637372 1_555
O44 Si5 1.663376 1_555
O45 Si6 1.637372 1_555
O46 P3 1.566221 1_555
O47 Si7 1.663376 1_555
O48 Si3 1.622373 1_545
O49 Si2 1.626002 1_555
O50 P1 1.523661 1_655
O51 Si0 1.626002 1_555
O52 Si1 1.622373 1_655
O53 P0 1.523661 1_555
O54 P4 1.566233 1_555
O55 Si8 1.637357 1_655
O56 Si9 1.663373 1_545
O57 Si10 1.637357 1_545
O58 P5 1.566233 1_555
O59 Si11 1.663373 1_655
O60 Si7 1.622386 1_555
O61 Si6 1.625987 1_455
O62 P3 1.523657 1_565
O63 Si4 1.625987 1_565
O64 Si5 1.622386 1_555
O65 P2 1.523657 1_455
O66 P0 1.566221 1_565
O67 Si0 1.637372 1_555
O68 Si1 1.663376 1_555
O69 Si2 1.637372 1_555
O70 P1 1.566221 1_555
O71 Si3 1.663376 1_555
