# generated using pymatgen
data_Na2Ti3ZnSi2(SO6)4
_symmetry_space_group_name_H-M   'P 1'
_cell_length_a   8.69638803
_cell_length_b   8.68485229
_cell_length_c   22.55037198
_cell_angle_alpha   89.70396192
_cell_angle_beta   89.96065390
_cell_angle_gamma   120.06288609
_symmetry_Int_Tables_number   1
_chemical_formula_structural   Na2Ti3ZnSi2(SO6)4
_chemical_formula_sum   'Na6 Ti9 Zn3 Si6 S12 O72'
_cell_volume   1474.01270735
_cell_formula_units_Z   3
loop_
 _symmetry_equiv_pos_site_id
 _symmetry_equiv_pos_as_xyz
  1  'x, y, z'
loop_
 _atom_site_type_symbol
 _atom_site_label
 _atom_site_symmetry_multiplicity
 _atom_site_fract_x
 _atom_site_fract_y
 _atom_site_fract_z
 _atom_site_occupancy
  Na  Na0  1  0.99425107  0.99391946  0.50491145  1
  Na  Na1  1  0.00952063  0.00649413  0.00125603  1
  Na  Na2  1  0.66929685  0.32914275  0.83408392  1
  Na  Na3  1  0.66527096  0.32669586  0.33418615  1
  Na  Na4  1  0.33383321  0.66501299  0.16613886  1
  Na  Na5  1  0.34098220  0.67038504  0.66930494  1
  Ti  Ti0  1  0.98779509  0.99953560  0.35416120  1
  Ti  Ti1  1  0.99903741  0.01807884  0.85596422  1
  Ti  Ti2  1  0.66394764  0.33615493  0.69019461  1
  Ti  Ti3  1  0.65539699  0.33484556  0.18235394  1
  Ti  Ti4  1  0.65021354  0.31756442  0.97595604  1
  Ti  Ti5  1  0.67308881  0.33843357  0.48212994  1
  Ti  Ti6  1  0.31806360  0.65066776  0.01763438  1
  Ti  Ti7  1  0.35902373  0.67775652  0.52182571  1
  Ti  Ti8  1  0.33338765  0.68353202  0.81532681  1
  Zn  Zn0  1  0.98041074  0.98536465  0.64840653  1
  Zn  Zn1  1  0.00946574  0.00792666  0.14604423  1
  Zn  Zn2  1  0.33799306  0.67521034  0.31730367  1
  Si  Si0  1  0.70802829  0.99733491  0.74898744  1
  Si  Si1  1  0.67501463  0.62582749  0.58399585  1
  Si  Si2  1  0.37054522  0.33448737  0.08055015  1
  Si  Si3  1  0.04130019  0.38166711  0.91515660  1
  Si  Si4  1  0.32359661  0.95019763  0.91808814  1
  Si  Si5  1  0.62076261  0.96230653  0.41472573  1
  S  S0  1  0.28926723  0.99836235  0.24973743  1
  S  S1  1  0.71045995  0.71028064  0.24866322  1
  S  S2  1  0.00147802  0.29384967  0.24985901  1
  S  S3  1  0.28774410  0.29097778  0.74906762  1
  S  S4  1  0.00105726  0.71180332  0.75017824  1
  S  S5  1  0.95733659  0.33683321  0.58312594  1
  S  S6  1  0.37854837  0.04647772  0.58328769  1
  S  S7  1  0.95209647  0.61977806  0.08252352  1
  S  S8  1  0.66515614  0.04438268  0.08310692  1
  S  S9  1  0.62129508  0.66702390  0.91654397  1
  S  S10  1  0.33385289  0.37586214  0.41650043  1
  S  S11  1  0.04438913  0.66716516  0.41657626  1
  O  O0  1  0.20803803  0.02989586  0.30360809  1
  O  O1  1  0.82403959  0.79528320  0.30323280  1
  O  O2  1  0.97264276  0.17573722  0.30446149  1
  O  O3  1  0.21077596  0.17824384  0.80330177  1
  O  O4  1  0.97019167  0.78805383  0.80331922  1
  O  O5  1  0.83459628  0.02999672  0.80831766  1
  O  O6  1  0.78451242  0.96169777  0.69092672  1
  O  O7  1  0.18643221  0.21397733  0.69500011  1
  O  O8  1  0.03760213  0.81546471  0.69540477  1
  O  O9  1  0.79313631  0.81851986  0.19567837  1
  O  O10  1  0.02776805  0.21291933  0.19715104  1
  O  O11  1  0.18412141  0.97392871  0.19645208  1
  O  O12  1  0.87268761  0.36295718  0.63617813  1
  O  O13  1  0.49013296  0.12149989  0.63679268  1
  O  O14  1  0.63486731  0.49079157  0.64081976  1
  O  O15  1  0.87041396  0.50632869  0.13811595  1
  O  O16  1  0.64076026  0.13332443  0.13748347  1
  O  O17  1  0.50433164  0.36359245  0.14006904  1
  O  O18  1  0.48313478  0.31263432  0.02629836  1
  O  O19  1  0.84660158  0.53547650  0.03003698  1
  O  O20  1  0.69545428  0.15650040  0.02974935  1
  O  O21  1  0.46555876  0.15352658  0.52914284  1
  O  O22  1  0.68437897  0.51586024  0.52582795  1
  O  O23  1  0.84397418  0.30836147  0.52906182  1
  O  O24  1  0.54275765  0.69754011  0.97058963  1
  O  O25  1  0.16780992  0.46540163  0.97455070  1
  O  O26  1  0.30571618  0.82974474  0.97610145  1
  O  O27  1  0.53284752  0.83240209  0.47452256  1
  O  O28  1  0.29959081  0.45460608  0.46991077  1
  O  O29  1  0.15214042  0.69528203  0.46996236  1
  O  O30  1  0.11227286  0.63066880  0.36239241  1
  O  O31  1  0.50848337  0.88119118  0.35719472  1
  O  O32  1  0.36463859  0.47992168  0.36231787  1
  O  O33  1  0.14109201  0.50242202  0.85787728  1
  O  O34  1  0.36861058  0.86783573  0.85962624  1
  O  O35  1  0.51208937  0.63485572  0.86310976  1
  O  O36  1  0.02539469  0.82969049  0.40904901  1
  O  O37  1  0.82211026  0.97910488  0.40622573  1
  O  O38  1  0.17241563  0.19356467  0.41009654  1
  O  O39  1  0.02409746  0.18503522  0.90964875  1
  O  O40  1  0.15210754  0.97081735  0.90657598  1
  O  O41  1  0.80077450  0.82515200  0.91028383  1
  O  O42  1  0.97900122  0.18116370  0.58642276  1
  O  O43  1  0.20415366  0.03090393  0.58847461  1
  O  O44  1  0.84585002  0.81744115  0.58303453  1
  O  O45  1  0.96837331  0.79464700  0.08994728  1
  O  O46  1  0.82249027  0.02608042  0.08981425  1
  O  O47  1  0.18342208  0.15886587  0.08711684  1
  O  O48  1  0.68554851  0.17646232  0.74072341  1
  O  O49  1  0.46938993  0.30637750  0.74441989  1
  O  O50  1  0.83858885  0.52853804  0.74372542  1
  O  O51  1  0.70106263  0.53122466  0.24484704  1
  O  O52  1  0.83622337  0.30558785  0.24569675  1
  O  O53  1  0.47289578  0.16494676  0.24378611  1
  O  O54  1  0.64218437  0.50826753  0.92341133  1
  O  O55  1  0.84938574  0.36178448  0.92711915  1
  O  O56  1  0.50347013  0.14682393  0.92428695  1
  O  O57  1  0.65386207  0.15965296  0.42878952  1
  O  O58  1  0.49112797  0.35304858  0.42498410  1
  O  O59  1  0.86133305  0.50938380  0.42455185  1
  O  O60  1  0.36846890  0.52141266  0.07653033  1
  O  O61  1  0.13172712  0.63605923  0.07939788  1
  O  O62  1  0.50191877  0.87025301  0.07889284  1
  O  O63  1  0.35813241  0.86438907  0.57569648  1
  O  O64  1  0.48553880  0.63161128  0.57487801  1
  O  O65  1  0.13144387  0.50207236  0.57470431  1
  O  O66  1  0.31073904  0.84218309  0.25539596  1
  O  O67  1  0.53206611  0.68371028  0.25561572  1
  O  O68  1  0.15827835  0.46922352  0.25874469  1
  O  O69  1  0.31281080  0.46991647  0.75742730  1
  O  O70  1  0.15685090  0.68363172  0.75685483  1
  O  O71  1  0.50965177  0.82318955  0.76038705  1
loop_
_geom_bond_atom_site_label_1
_geom_bond_atom_site_label_2
_geom_bond_distance
_geom_bond_site_symmetry_2
Na0 O44 2.259527 1_555
Na0 O42 2.507459 1_565
Na0 O43 2.531732 1_665
Na0 O37 2.650384 1_555
Na0 O36 2.683072 1_655
Na0 O38 2.691480 1_665
Na1 O47 2.410921 1_555
Na1 O39 2.541158 1_554
Na1 O40 2.565199 1_544
Na1 O45 2.610478 1_445
Na1 O46 2.634149 1_455
Na1 O41 2.675513 1_444
Na2 O56 2.529695 1_555
Na2 O48 2.535117 1_555
Na2 O55 2.549600 1_555
Na2 O50 2.592929 1_555
Na2 O49 2.610414 1_555
Na2 O54 2.632984 1_555
Na3 O57 2.547383 1_555
Na3 O52 2.549205 1_555
Na3 O53 2.570521 1_555
Na3 O51 2.592120 1_555
Na3 O58 2.624128 1_555
Na3 O59 2.627707 1_555
Na4 O60 2.476070 1_555
Na4 O62 2.556175 1_555
Na4 O61 2.558411 1_555
Na4 O67 2.607143 1_555
Na4 O66 2.607732 1_555
Na4 O68 2.634605 1_555
Na5 O71 2.492663 1_555
Na5 O69 2.564450 1_555
Na5 O64 2.579883 1_555
Na5 O70 2.580250 1_555
Na5 O63 2.651054 1_555
Na5 O65 2.716061 1_555
O0 S0 1.498611 1_545
O0 Ti0 2.127314 1_445
O1 S1 1.521640 1_555
O1 Ti0 1.996497 1_555
O2 S2 1.536244 1_655
O2 Ti0 1.949287 1_545
O3 S3 1.494075 1_555
O3 Ti1 2.037037 1_455
O4 S4 1.460301 1_655
O4 Ti1 2.232947 1_565
O5 Si0 1.665870 1_545
O5 Ti1 1.832876 1_555
O6 Si0 1.568976 1_555
O6 Zn0 1.873180 1_555
O7 S3 1.459314 1_555
O7 Zn0 2.171675 1_445
O8 S4 1.462343 1_555
O8 Zn0 2.065842 1_455
O9 S1 1.462288 1_555
O9 Zn1 2.091761 1_665
O10 S2 1.458865 1_555
O10 Zn1 2.064138 1_555
O11 S0 1.461071 1_555
O11 Zn1 2.033350 1_565
O12 S5 1.481065 1_555
O12 Ti2 2.098539 1_555
O13 S6 1.482640 1_555
O13 Ti2 2.100674 1_555
O14 Si1 1.647085 1_555
O14 Ti2 1.852705 1_555
O15 S7 1.527011 1_555
O15 Ti3 1.975248 1_555
O16 S8 1.522793 1_555
O16 Ti3 1.974449 1_555
O17 Si2 1.711712 1_555
O17 Ti3 1.739342 1_555
O18 Si2 1.636563 1_555
O18 Ti4 1.826652 1_554
O19 S7 1.454673 1_555
O19 Ti4 2.184985 1_554
O20 S8 1.481804 1_555
O20 Ti4 2.029161 1_554
O21 S6 1.486572 1_555
O21 Ti5 2.008981 1_555
O22 Si1 1.652286 1_555
O22 Ti5 1.794257 1_555
O23 S5 1.509943 1_555
O23 Ti5 1.945480 1_555
O24 S9 1.485133 1_555
O24 Ti6 2.074880 1_556
O25 Si3 1.656388 1_555
O25 Ti6 1.775293 1_556
O26 Si4 1.628676 1_555
O26 Ti6 1.860093 1_556
O27 Si5 1.671623 1_555
O27 Ti7 1.782032 1_555
O28 S10 1.489724 1_555
O28 Ti7 2.101031 1_555
O29 S11 1.470489 1_555
O29 Ti7 2.214338 1_555
O30 S11 1.460279 1_555
O30 Zn2 2.066166 1_555
O31 Si5 1.566782 1_555
O31 Zn2 1.889115 1_555
O32 S10 1.458437 1_555
O32 Zn2 2.082542 1_555
O33 Si3 1.610589 1_555
O33 Ti8 1.880989 1_555
O34 Si4 1.640880 1_555
O34 Ti8 1.783132 1_555
O35 S9 1.473475 1_555
O35 Ti8 2.100163 1_555
O36 S11 1.509840 1_555
O36 Ti0 2.068745 1_455
O37 Si5 1.693318 1_555
O37 Ti0 1.795936 1_555
O38 S10 1.508027 1_555
O38 Ti0 2.079057 1_445
O39 Si3 1.643279 1_555
O39 Ti1 1.821384 1_455
O40 Si4 1.609711 1_555
O40 Ti1 1.946207 1_465
O41 S9 1.480613 1_555
O41 Ti1 2.088572 1_565
O42 S5 1.457058 1_555
O42 Zn0 2.200426 1_545
O43 S6 1.458128 1_555
O43 Zn0 2.233552 1_445
O44 Si1 1.580992 1_555
O44 Zn0 1.996035 1_555
O45 S7 1.463497 1_555
O45 Zn1 2.126174 1_665
O46 S8 1.462243 1_555
O46 Zn1 2.129372 1_655
O47 Si2 1.583347 1_555
O47 Zn1 1.940395 1_555
O48 Si0 1.671793 1_545
O48 Ti2 1.871394 1_555
O49 S3 1.520579 1_555
O49 Ti2 1.995072 1_555
O50 S4 1.516682 1_655
O50 Ti2 2.009080 1_555
O51 S1 1.518686 1_555
O51 Ti3 2.097497 1_555
O52 S2 1.493781 1_655
O52 Ti3 2.231020 1_555
O53 S0 1.531079 1_545
O53 Ti3 2.060291 1_555
O54 S9 1.485525 1_555
O54 Ti4 2.060986 1_555
O55 Si3 1.611888 1_655
O55 Ti4 1.920150 1_555
O56 Si4 1.645911 1_545
O56 Ti4 1.819052 1_555
O57 Si5 1.622477 1_545
O57 Ti5 1.909212 1_555
O58 S10 1.489296 1_555
O58 Ti5 2.093585 1_555
O59 S11 1.501934 1_655
O59 Ti5 2.027832 1_555
O60 Si2 1.634589 1_555
O60 Ti6 1.922135 1_555
O61 S7 1.497891 1_455
O61 Ti6 2.090676 1_555
O62 S8 1.470383 1_565
O62 Ti6 2.253192 1_555
O63 S6 1.511035 1_565
O63 Ti7 2.033710 1_555
O64 Si1 1.686174 1_555
O64 Ti7 1.800272 1_555
O65 S5 1.485876 1_455
O65 Ti7 2.149267 1_555
O66 S0 1.463883 1_555
O66 Zn2 2.105203 1_555
O67 S1 1.457818 1_555
O67 Zn2 2.158682 1_555
O68 S2 1.463578 1_555
O68 Zn2 2.147734 1_555
O69 S3 1.470313 1_555
O69 Ti8 2.207110 1_555
O70 S4 1.500047 1_555
O70 Ti8 2.024760 1_555
O71 Si0 1.646490 1_555
O71 Ti8 1.864087 1_555
