# generated using pymatgen
data_Na8MgMo2(NO)4
_symmetry_space_group_name_H-M   'P 1'
_cell_length_a   6.01759558
_cell_length_b   6.10313057
_cell_length_c   9.31289910
_cell_angle_alpha   86.53929797
_cell_angle_beta   71.06844758
_cell_angle_gamma   67.52566289
_symmetry_Int_Tables_number   1
_chemical_formula_structural   Na8MgMo2(NO)4
_chemical_formula_sum   'Na8 Mg1 Mo2 N4 O4'
_cell_volume   298.16035714
_cell_formula_units_Z   1
loop_
 _symmetry_equiv_pos_site_id
 _symmetry_equiv_pos_as_xyz
  1  'x, y, z'
loop_
 _atom_site_type_symbol
 _atom_site_label
 _atom_site_symmetry_multiplicity
 _atom_site_fract_x
 _atom_site_fract_y
 _atom_site_fract_z
 _atom_site_occupancy
  Na  Na0  1  0.21537164  0.74487680  0.98590669  1
  Na  Na1  1  0.73177835  0.23539340  0.96344982  1
  Na  Na2  1  0.09507536  0.75799406  0.41306504  1
  Na  Na3  1  0.07298961  0.24935225  0.60152235  1
  Na  Na4  1  0.49734048  0.82237870  0.54664360  1
  Na  Na5  1  0.63305300  0.20673551  0.29856188  1
  Na  Na6  1  0.61296565  0.69999547  0.17439990  1
  Na  Na7  1  0.28430563  0.21585746  0.87759007  1
  Mg  Mg0  1  0.58403008  0.37643783  0.62737051  1
  Mo  Mo0  1  0.86337467  0.74945214  0.75355583  1
  Mo  Mo1  1  0.12431954  0.27714810  0.26174946  1
  N  N0  1  0.31219656  0.03885263  0.35075460  1
  N  N1  1  0.20622962  0.56382618  0.65029931  1
  N  N2  1  0.81932501  0.44185235  0.40863390  1
  N  N3  1  0.70050236  0.01780421  0.65905723  1
  O  O0  1  0.66677344  0.52975369  0.78176959  1
  O  O1  1  0.04016359  0.15767402  0.11037685  1
  O  O2  1  0.32214565  0.46949073  0.18390805  1
  O  O3  1  0.81180977  0.83054147  0.96567133  1
loop_
_geom_bond_atom_site_label_1
_geom_bond_atom_site_label_2
_geom_bond_distance
_geom_bond_site_symmetry_2
Na0 O3 2.349615 1_455
Na0 O2 2.491357 1_556
Na0 O1 2.516189 1_566
Na0 O0 2.634467 1_555
Na1 O3 2.329819 1_545
Na1 O0 2.401764 1_555
Na1 O1 2.537196 1_656
Na1 O2 2.590445 1_556
Na2 O2 2.498780 1_555
Na3 O0 2.491535 1_455
Na5 O1 2.424737 1_655
Na5 O2 2.451077 1_555
Na6 O3 2.208577 1_554
Na6 O2 2.610791 1_555
Na7 O1 2.285523 1_556
Mg0 O0 2.043094 1_555
Mg0 N1 2.061254 1_555
Mg0 N3 2.062152 1_555
Mg0 N2 2.185471 1_555
Mo0 N1 1.876693 1_655
Mo0 N3 1.891000 1_565
Mo0 O3 1.961208 1_555
Mo0 O0 2.057940 1_555
Mo1 N0 1.812687 1_555
Mo1 N2 1.837539 1_455
Mo1 O1 1.909213 1_555
Mo1 O2 1.930384 1_555
N0 Na5 2.420210 1_555
N0 Na6 2.422744 1_545
N0 Na3 2.437938 1_555
N0 Na2 2.466210 1_545
N0 Na4 2.493451 1_545
N1 Na3 2.459861 1_555
N1 Na2 2.601863 1_555
N1 Na4 2.706079 1_555
N1 Na7 2.924238 1_555
N2 Na4 2.470593 1_555
N2 Na5 2.553275 1_555
N2 Na3 2.662813 1_655
N2 Na6 2.937636 1_555
N2 Na2 2.996629 1_655
N3 Na4 2.471679 1_545
N3 Na7 2.559423 1_555
N3 Na2 2.725944 1_645
N3 Na3 2.976471 1_655
