# generated using pymatgen
data_MgFe2(SbO4)2
_symmetry_space_group_name_H-M   'P 1'
_cell_length_a   5.81971797
_cell_length_b   5.77572617
_cell_length_c   5.84447584
_cell_angle_alpha   72.44783537
_cell_angle_beta   114.17659184
_cell_angle_gamma   73.18767030
_symmetry_Int_Tables_number   1
_chemical_formula_structural   MgFe2(SbO4)2
_chemical_formula_sum   'Mg1 Fe2 Sb2 O8'
_cell_volume   150.41212613
_cell_formula_units_Z   1
loop_
 _symmetry_equiv_pos_site_id
 _symmetry_equiv_pos_as_xyz
  1  'x, y, z'
loop_
 _atom_site_type_symbol
 _atom_site_label
 _atom_site_symmetry_multiplicity
 _atom_site_fract_x
 _atom_site_fract_y
 _atom_site_fract_z
 _atom_site_occupancy
  Mg  Mg0  1  0.73472140  0.54324324  0.71299563  1
  Fe  Fe0  1  0.74277622  0.92578364  0.33701587  1
  Fe  Fe1  1  0.45881845  0.51676703  0.02284720  1
  Sb  Sb0  1  0.26596552  0.21061073  0.52293486  1
  Sb  Sb1  1  0.04319158  0.93601829  0.02045955  1
  O  O0  1  0.99211607  0.74067027  0.79347776  1
  O  O1  1  0.59325087  0.21398829  0.82670108  1
  O  O2  1  0.45551925  0.80696281  0.73640675  1
  O  O3  1  0.03612301  0.24155748  0.72212701  1
  O  O4  1  0.45795876  0.23079837  0.31100254  1
  O  O5  1  0.03304373  0.64748624  0.31793684  1
  O  O6  1  0.46515577  0.74274080  0.26390919  1
  O  O7  1  0.95945337  0.20765982  0.19789971  1
loop_
_geom_bond_atom_site_label_1
_geom_bond_atom_site_label_2
_geom_bond_distance
_geom_bond_site_symmetry_2
Mg0 O2 1.963441 1_555
Mg0 O3 2.053035 1_655
Mg0 O6 2.106001 1_555
Mg0 O0 2.121287 1_555
Mg0 O1 2.308144 1_555
Mg0 O7 2.383986 1_556
Fe0 O4 1.953707 1_565
Fe0 O5 2.035040 1_655
Fe0 O0 2.139415 1_555
Fe0 O6 2.146098 1_555
Fe0 O7 2.476026 1_565
Fe0 O1 2.542695 1_564
Fe1 O2 1.968478 1_554
Fe1 O4 1.974403 1_555
Fe1 O6 2.187263 1_555
Fe1 O0 2.187845 1_454
Fe1 O1 2.477251 1_554
Fe1 O7 2.484067 1_555
O0 Sb1 1.973572 1_656
O1 Sb0 2.013143 1_555
O1 Sb1 2.181581 1_646
O2 Sb0 1.959414 1_565
O3 Sb1 2.049251 1_546
O3 Sb0 2.106939 1_555
O4 Sb0 1.979431 1_555
O5 Sb1 2.048630 1_555
O5 Sb0 2.123098 1_555
O6 Sb1 1.973662 1_555
O7 Sb0 2.013075 1_655
O7 Sb1 2.174282 1_645
