# generated using pymatgen
data_Rb4MgTi2(CuS2)4
_symmetry_space_group_name_H-M   'P 1'
_cell_length_a   5.65941800
_cell_length_b   5.65941800
_cell_length_c   13.65593300
_cell_angle_alpha   90.00000000
_cell_angle_beta   90.00000000
_cell_angle_gamma   90.00000000
_symmetry_Int_Tables_number   1
_chemical_formula_structural   Rb4MgTi2(CuS2)4
_chemical_formula_sum   'Rb4 Mg1 Ti2 Cu4 S8'
_cell_volume   437.38604328
_cell_formula_units_Z   1
loop_
 _symmetry_equiv_pos_site_id
 _symmetry_equiv_pos_as_xyz
  1  'x, y, z'
loop_
 _atom_site_type_symbol
 _atom_site_label
 _atom_site_symmetry_multiplicity
 _atom_site_fract_x
 _atom_site_fract_y
 _atom_site_fract_z
 _atom_site_occupancy
  Rb  Rb0  1  0.75482200  0.75482200  0.99078300  1
  Rb  Rb1  1  0.24517800  0.75482200  0.50921700  1
  Rb  Rb2  1  0.75482200  0.24517800  0.50921700  1
  Rb  Rb3  1  0.24517800  0.24517800  0.99078300  1
  Mg  Mg0  1  0.00000000  0.00000000  0.25000000  1
  Ti  Ti0  1  0.50000000  0.50000000  0.75000000  1
  Ti  Ti1  1  0.50000000  0.50000000  0.25000000  1
  Cu  Cu0  1  0.00000000  0.50000000  0.75000000  1
  Cu  Cu1  1  0.50000000  0.00000000  0.75000000  1
  Cu  Cu2  1  0.00000000  0.50000000  0.25000000  1
  Cu  Cu3  1  0.50000000  0.00000000  0.25000000  1
  S  S0  1  0.73792400  0.73792400  0.65651700  1
  S  S1  1  0.26207600  0.26207600  0.65651700  1
  S  S2  1  0.74858300  0.74858300  0.35253200  1
  S  S3  1  0.74858300  0.25141700  0.14746800  1
  S  S4  1  0.26207600  0.73792400  0.84348300  1
  S  S5  1  0.25141700  0.25141700  0.35253200  1
  S  S6  1  0.25141700  0.74858300  0.14746800  1
  S  S7  1  0.73792400  0.26207600  0.84348300  1
loop_
_geom_bond_atom_site_label_1
_geom_bond_atom_site_label_2
_geom_bond_distance
_geom_bond_site_symmetry_2
Rb0 S7 3.439761 1_555
Rb0 S4 3.439761 1_555
Rb0 S7 3.506655 1_565
Rb0 S4 3.506655 1_655
Rb0 S6 3.532427 1_656
Rb0 S3 3.532427 1_566
Rb0 S6 3.563167 1_556
Rb0 S3 3.563167 1_556
Rb1 S0 3.439761 1_555
Rb1 S1 3.439761 1_555
Rb1 S1 3.506655 1_565
Rb1 S0 3.506655 1_455
Rb1 S2 3.532427 1_455
Rb1 S5 3.532427 1_565
Rb1 S5 3.563167 1_555
Rb1 S2 3.563167 1_555
Rb2 S0 3.439761 1_555
Rb2 S1 3.439761 1_555
Rb2 S0 3.506655 1_545
Rb2 S1 3.506655 1_655
Rb2 S2 3.532427 1_545
Rb2 S5 3.532427 1_655
Rb2 S5 3.563167 1_555
Rb2 S2 3.563167 1_555
Rb3 S7 3.439761 1_555
Rb3 S4 3.439761 1_555
Rb3 S4 3.506655 1_545
Rb3 S7 3.506655 1_455
Rb3 S3 3.532427 1_456
Rb3 S6 3.532427 1_546
Rb3 S3 3.563167 1_556
Rb3 S6 3.563167 1_556
Mg0 S5 2.451452 1_555
Mg0 S2 2.451452 1_445
Mg0 S3 2.451452 1_455
Mg0 S6 2.451452 1_545
Cu0 S4 2.375430 1_555
Cu0 S1 2.375430 1_555
Cu0 S0 2.375430 1_455
Cu0 S7 2.375430 1_455
Cu1 S7 2.375430 1_555
Cu1 S0 2.375430 1_545
Cu1 S1 2.375430 1_555
Cu1 S4 2.375430 1_545
Cu2 S2 2.442178 1_455
Cu2 S5 2.442178 1_555
Cu2 S3 2.442178 1_455
Cu2 S6 2.442178 1_555
Cu3 S2 2.442178 1_545
Cu3 S5 2.442178 1_555
Cu3 S6 2.442178 1_545
Cu3 S3 2.442178 1_555
S0 Ti0 2.292572 1_555
S1 Ti0 2.292572 1_555
S2 Ti1 2.432868 1_555
S3 Ti1 2.432868 1_555
S4 Ti0 2.292572 1_555
S5 Ti1 2.432868 1_555
S6 Ti1 2.432868 1_555
S7 Ti0 2.292572 1_555
