# generated using pymatgen
data_Na8Ca3HfSi3(SO8)3
_symmetry_space_group_name_H-M   'P 1'
_cell_length_a   9.47513220
_cell_length_b   9.47652597
_cell_length_c   23.14068405
_cell_angle_alpha   90.06901247
_cell_angle_beta   89.86464295
_cell_angle_gamma   119.85478343
_symmetry_Int_Tables_number   1
_chemical_formula_structural   Na8Ca3HfSi3(SO8)3
_chemical_formula_sum   'Na24 Ca9 Hf3 Si9 S9 O72'
_cell_volume   1802.07844436
_cell_formula_units_Z   3
loop_
 _symmetry_equiv_pos_site_id
 _symmetry_equiv_pos_as_xyz
  1  'x, y, z'
loop_
 _atom_site_type_symbol
 _atom_site_label
 _atom_site_symmetry_multiplicity
 _atom_site_fract_x
 _atom_site_fract_y
 _atom_site_fract_z
 _atom_site_occupancy
  Na  Na0  1  0.62919979  0.99564266  0.26315620  1
  Na  Na1  1  0.37078402  0.36774736  0.24050109  1
  Na  Na2  1  0.00065761  0.62612698  0.25283060  1
  Na  Na3  1  0.64249424  0.65613310  0.73040342  1
  Na  Na4  1  0.97343067  0.33357627  0.75331490  1
  Na  Na5  1  0.38606213  0.01245489  0.73692090  1
  Na  Na6  1  0.32380687  0.33583586  0.58277799  1
  Na  Na7  1  0.04606225  0.72241671  0.56891521  1
  Na  Na8  1  0.64746818  0.94089705  0.58129744  1
  Na  Na9  1  0.27863846  0.95337226  0.07119167  1
  Na  Na10  1  0.66215811  0.67506759  0.08431158  1
  Na  Na11  1  0.06080456  0.35678155  0.07520277  1
  Na  Na12  1  0.99875346  0.67896998  0.92350533  1
  Na  Na13  1  0.71196876  0.04765386  0.90458779  1
  Na  Na14  1  0.30280490  0.28252356  0.92391433  1
  Na  Na15  1  0.96152544  0.30695710  0.41599204  1
  Na  Na16  1  0.32544010  0.99596672  0.42669951  1
  Na  Na17  1  0.71269194  0.69461134  0.43010191  1
  Na  Na18  1  0.98904660  0.97492489  0.50140443  1
  Na  Na19  1  0.02702033  0.01399477  0.00011790  1
  Na  Na20  1  0.66757020  0.30579110  0.83312447  1
  Na  Na21  1  0.68237838  0.33239146  0.34492307  1
  Na  Na22  1  0.31347046  0.64776748  0.15493123  1
  Na  Na23  1  0.36375689  0.69421741  0.65352425  1
  Ca  Ca0  1  0.99739609  0.99491383  0.35189587  1
  Ca  Ca1  1  0.99859004  0.00463419  0.84880747  1
  Ca  Ca2  1  0.98584480  0.98788906  0.64714364  1
  Ca  Ca3  1  0.00663612  0.99908638  0.14373927  1
  Ca  Ca4  1  0.66177094  0.32810307  0.67971087  1
  Ca  Ca5  1  0.66857641  0.33886561  0.17893575  1
  Ca  Ca6  1  0.32570970  0.66426365  0.01509231  1
  Ca  Ca7  1  0.34050268  0.67801587  0.51333336  1
  Ca  Ca8  1  0.33023358  0.67702189  0.32855860  1
  Hf  Hf0  1  0.66779958  0.33544642  0.98317491  1
  Hf  Hf1  1  0.66210572  0.33194462  0.48631562  1
  Hf  Hf2  1  0.33163510  0.67853684  0.82159303  1
  Si  Si0  1  0.68702213  0.99252657  0.75385735  1
  Si  Si1  1  0.36264684  0.03324829  0.58512293  1
  Si  Si2  1  0.66389115  0.62968927  0.58541034  1
  Si  Si3  1  0.96427115  0.63153109  0.08422079  1
  Si  Si4  1  0.37088073  0.33623706  0.08431550  1
  Si  Si5  1  0.03020651  0.36857233  0.91805472  1
  Si  Si6  1  0.33982852  0.97528725  0.92042875  1
  Si  Si7  1  0.64424155  0.98344694  0.41569687  1
  Si  Si8  1  0.01664625  0.65639810  0.41655087  1
  S  S0  1  0.30300577  0.99845497  0.24941844  1
  S  S1  1  0.69455619  0.69783551  0.24953886  1
  S  S2  1  0.00242642  0.30069070  0.24907680  1
  S  S3  1  0.30294553  0.31237576  0.75285222  1
  S  S4  1  0.00917366  0.69785269  0.75377348  1
  S  S5  1  0.96164479  0.33356425  0.58247584  1
  S  S6  1  0.66872532  0.04232148  0.08209157  1
  S  S7  1  0.62445987  0.65755701  0.91672147  1
  S  S8  1  0.34107199  0.36446318  0.41657644  1
  O  O0  1  0.22372970  0.01758408  0.30154566  1
  O  O1  1  0.79270374  0.78371104  0.30078988  1
  O  O2  1  0.99334030  0.20707522  0.30139716  1
  O  O3  1  0.22482032  0.20946789  0.80401048  1
  O  O4  1  0.98678528  0.77336452  0.80576315  1
  O  O5  1  0.79149111  0.01301560  0.81180809  1
  O  O6  1  0.76424303  0.95666930  0.69615688  1
  O  O7  1  0.20413238  0.23870665  0.70034719  1
  O  O8  1  0.03704998  0.79912828  0.70194840  1
  O  O9  1  0.77243722  0.79305269  0.19642595  1
  O  O10  1  0.01153976  0.21640614  0.19641622  1
  O  O11  1  0.20695726  0.98615512  0.19732077  1
  O  O12  1  0.89288237  0.35635175  0.63649529  1
  O  O13  1  0.46169553  0.11009854  0.64470639  1
  O  O14  1  0.65645473  0.54075516  0.64621116  1
  O  O15  1  0.88853620  0.53161161  0.14368509  1
  O  O16  1  0.64569869  0.11171352  0.13567013  1
  O  O17  1  0.46063386  0.34630833  0.14516243  1
  O  O18  1  0.48173657  0.32220467  0.02827170  1
  O  O19  1  0.84396612  0.51798544  0.02775730  1
  O  O20  1  0.68201336  0.14873259  0.03081633  1
  O  O21  1  0.47646021  0.15198852  0.52944042  1
  O  O22  1  0.67324047  0.51737427  0.53048857  1
  O  O23  1  0.85399075  0.32007765  0.53186501  1
  O  O24  1  0.55919882  0.68759312  0.96963542  1
  O  O25  1  0.13956427  0.44372022  0.97478262  1
  O  O26  1  0.31651481  0.87330487  0.97805792  1
  O  O27  1  0.56006535  0.85652164  0.46861911  1
  O  O28  1  0.31339191  0.44004564  0.46744619  1
  O  O29  1  0.13321152  0.68072557  0.47120535  1
  O  O30  1  0.08231583  0.61499633  0.35617266  1
  O  O31  1  0.53723425  0.91514192  0.35565659  1
  O  O32  1  0.36774636  0.46317840  0.36353273  1
  O  O33  1  0.13208331  0.49292899  0.86129657  1
  O  O34  1  0.36055553  0.86837271  0.86466355  1
  O  O35  1  0.51562976  0.63879308  0.86612964  1
  O  O36  1  0.00007286  0.82120043  0.41396512  1
  O  O37  1  0.83382989  0.02395382  0.41183417  1
  O  O38  1  0.20139788  0.19738455  0.41002707  1
  O  O39  1  0.99883187  0.18364233  0.91169948  1
  O  O40  1  0.17944742  0.99431372  0.91150435  1
  O  O41  1  0.79275522  0.79291321  0.90750662  1
  O  O42  1  0.96748715  0.17984699  0.58315568  1
  O  O43  1  0.19010300  0.03565373  0.58108876  1
  O  O44  1  0.82893145  0.80896960  0.57835944  1
  O  O45  1  0.96031270  0.80357182  0.07895371  1
  O  O46  1  0.82307185  0.03729239  0.08273575  1
  O  O47  1  0.18980513  0.17248042  0.07847553  1
  O  O48  1  0.66838239  0.15721853  0.75167903  1
  O  O49  1  0.47071411  0.33755993  0.74870627  1
  O  O50  1  0.86836585  0.53009245  0.74806474  1
  O  O51  1  0.68059296  0.53282953  0.24865535  1
  O  O52  1  0.85175068  0.31602581  0.24892229  1
  O  O53  1  0.47183327  0.14279954  0.24684702  1
  O  O54  1  0.62848691  0.50040862  0.91981529  1
  O  O55  1  0.84964940  0.36407030  0.92089866  1
  O  O56  1  0.51193118  0.15619819  0.92097078  1
  O  O57  1  0.65148008  0.16315354  0.42625682  1
  O  O58  1  0.49335751  0.35149509  0.42368888  1
  O  O59  1  0.82993130  0.49392310  0.42607420  1
  O  O60  1  0.36511556  0.50611525  0.08063649  1
  O  O61  1  0.15013773  0.66258525  0.08123736  1
  O  O62  1  0.52865760  0.87687914  0.07530979  1
  O  O63  1  0.33578131  0.84876079  0.58098495  1
  O  O64  1  0.49445532  0.63627133  0.58099881  1
  O  O65  1  0.12627668  0.47432711  0.57469404  1
  O  O66  1  0.31495484  0.84601410  0.25182865  1
  O  O67  1  0.52625107  0.67601113  0.25354019  1
  O  O68  1  0.15246358  0.46652267  0.25020990  1
  O  O69  1  0.31588301  0.47795209  0.76048624  1
  O  O70  1  0.16237044  0.68300786  0.75983696  1
  O  O71  1  0.49864063  0.82109879  0.76051959  1
loop_
_geom_bond_atom_site_label_1
_geom_bond_atom_site_label_2
_geom_bond_distance
_geom_bond_site_symmetry_2
Na0 O31 2.292685 1_555
Na0 O53 2.526775 1_565
Na0 O66 2.596969 1_555
Na0 O67 2.689532 1_555
Na0 O52 2.719948 1_565
Na1 O17 2.407412 1_555
Na1 O67 2.551557 1_555
Na1 O51 2.555350 1_555
Na1 O68 2.670382 1_555
Na1 O53 2.741535 1_555
Na1 O32 2.990590 1_555
Na2 O30 2.533614 1_555
Na2 O52 2.550815 1_455
Na2 O68 2.554528 1_555
Na2 O66 2.651929 1_555
Na2 O51 2.705495 1_455
Na2 O15 2.714756 1_455
Na3 O14 2.268561 1_555
Na3 O6 2.607723 1_555
Na3 O71 2.627129 1_555
Na3 O49 2.655255 1_555
Na3 O69 2.775420 1_555
Na3 O50 2.953699 1_555
Na4 O50 2.514120 1_555
Na4 O48 2.517900 1_555
Na4 O69 2.830215 1_655
Na4 O12 2.848153 1_555
Na4 O70 2.879411 1_655
Na4 O33 2.921063 1_655
Na4 O5 2.969385 1_555
Na4 O7 3.005027 1_655
Na5 O13 2.293616 1_555
Na5 O48 2.346045 1_555
Na5 O71 2.579810 1_545
Na5 O49 2.783559 1_555
Na5 O70 2.816222 1_545
Na5 O8 3.005064 1_545
Na6 O43 2.471977 1_555
Na6 O64 2.477640 1_555
Na6 O65 2.776367 1_555
Na6 O28 2.865729 1_555
Na7 O63 2.403699 1_555
Na7 O29 2.502848 1_555
Na7 O44 2.575013 1_455
Na7 O43 2.592249 1_565
Na7 O65 2.811253 1_555
Na8 O64 2.503729 1_555
Na8 O44 2.581348 1_555
Na8 O63 2.630030 1_555
Na8 O27 2.733112 1_555
Na8 O42 2.736445 1_565
Na8 O6 2.856474 1_555
Na9 O26 2.369141 1_554
Na9 O61 2.406216 1_555
Na9 O47 2.605143 1_565
Na9 O45 2.622968 1_455
Na9 O62 2.803117 1_555
Na10 O60 2.450822 1_555
Na10 O45 2.460248 1_555
Na10 O62 2.777001 1_555
Na10 O9 2.813457 1_555
Na10 O24 2.852387 1_554
Na11 O25 2.453563 1_554
Na11 O60 2.504229 1_555
Na11 O47 2.583852 1_555
Na11 O61 2.586798 1_555
Na11 O46 2.735044 1_455
Na12 O55 2.589846 1_555
Na12 O40 2.616214 1_655
Na12 O41 2.686163 1_555
Na12 O19 2.839521 1_556
Na12 O4 2.888773 1_555
Na12 O26 2.922703 1_655
Na12 O33 2.996548 1_655
Na12 O54 3.044592 1_555
Na13 O5 2.349881 1_555
Na13 O39 2.364304 1_555
Na13 O56 2.594418 1_555
Na13 O55 2.634492 1_555
Na13 O41 2.873770 1_545
Na14 O40 2.393662 1_545
Na14 O39 2.563125 1_455
Na14 O54 2.729542 1_555
Na14 O56 2.779377 1_555
Na14 O3 2.867013 1_555
Na14 O18 2.868790 1_556
Na14 O25 2.907051 1_555
Na15 O37 2.331308 1_555
Na15 O57 2.560352 1_555
Na15 O59 2.635426 1_555
Na15 O2 2.879777 1_555
Na15 O23 2.890648 1_555
Na15 O30 2.902312 1_655
Na15 O38 2.934419 1_655
Na16 O57 2.679697 1_565
Na16 O36 2.693277 1_555
Na16 O38 2.722306 1_565
Na16 O21 2.790583 1_565
Na16 O29 2.807828 1_555
Na16 O58 2.924157 1_565
Na16 O31 2.971227 1_555
Na17 O36 2.395245 1_655
Na17 O59 2.638580 1_555
Na17 O27 2.727601 1_555
Na17 O37 2.769700 1_565
Na17 O22 2.781614 1_555
Na17 O58 2.861144 1_555
Na18 O44 2.358962 1_555
Na18 O43 2.506596 1_665
Na18 O36 2.524025 1_655
Na18 O37 2.715148 1_565
Na18 O42 2.788550 1_565
Na18 O38 2.954906 1_665
Na19 O47 2.371260 1_555
Na19 O45 2.540166 1_445
Na19 O40 2.564923 1_544
Na19 O39 2.698207 1_454
Na19 O46 2.800798 1_455
Na20 O48 2.353470 1_555
Na20 O56 2.495628 1_555
Na20 O55 2.544058 1_555
Na20 O49 2.821985 1_555
Na20 O50 2.824597 1_555
Na20 O54 2.868885 1_555
Na21 O59 2.387277 1_555
Na21 O57 2.395290 1_555
Na21 O58 2.620926 1_555
Na21 O52 2.786540 1_555
Na21 O51 2.934832 1_555
Na21 O53 2.966771 1_555
Na22 O61 2.356338 1_555
Na22 O60 2.375212 1_555
Na22 O68 2.742822 1_555
Na22 O62 2.801873 1_555
Na22 O66 2.919101 1_555
Na22 O67 2.970923 1_555
Na23 O64 2.305817 1_555
Na23 O63 2.329674 1_555
Na23 O71 2.772592 1_555
Na23 O65 2.841660 1_555
Ca0 O37 2.194313 1_565
Ca0 O36 2.195696 1_655
Ca0 O1 2.303576 1_555
Ca0 O2 2.343536 1_565
Ca0 O0 2.352202 1_665
Ca0 O38 2.353910 1_665
Ca1 O5 2.180190 1_555
Ca1 O39 2.232930 1_555
Ca1 O40 2.286934 1_645
Ca1 O3 2.299808 1_655
Ca1 O4 2.357782 1_545
Ca1 O41 2.402609 1_545
Ca2 O44 2.261364 1_555
Ca2 O6 2.270194 1_555
Ca2 O43 2.324337 1_665
Ca2 O42 2.419636 1_565
Ca2 O8 2.432285 1_655
Ca2 O7 2.560015 1_665
Ca3 O45 2.249405 1_455
Ca3 O47 2.268769 1_565
Ca3 O11 2.323387 1_555
Ca3 O10 2.372405 1_565
Ca3 O46 2.405998 1_465
Ca3 O9 2.429445 1_455
Ca4 O13 2.149883 1_555
Ca4 O14 2.183927 1_555
Ca4 O12 2.296448 1_555
Ca4 O48 2.346886 1_555
Ca4 O49 2.445778 1_555
Ca4 O50 2.504919 1_555
Ca5 O15 2.133275 1_555
Ca5 O17 2.154891 1_555
Ca5 O16 2.283503 1_555
Ca5 O51 2.404138 1_555
Ca5 O53 2.437575 1_555
Ca5 O52 2.463775 1_555
Ca6 O25 2.163798 1_554
Ca6 O26 2.200594 1_554
Ca6 O61 2.252167 1_555
Ca6 O60 2.291564 1_555
Ca6 O24 2.356360 1_554
Ca6 O62 2.418185 1_555
Ca7 O27 2.179564 1_555
Ca7 O29 2.206374 1_555
Ca7 O63 2.266403 1_555
Ca7 O64 2.307158 1_555
Ca7 O28 2.387032 1_555
Ca7 O65 2.440162 1_555
Ca8 O30 2.211563 1_555
Ca8 O31 2.219933 1_555
Ca8 O32 2.368641 1_555
Ca8 O66 2.444834 1_555
Ca8 O67 2.542770 1_555
Ca8 O68 2.600766 1_555
Hf0 O19 1.992983 1_556
Hf0 O18 1.996052 1_556
Hf0 O20 2.146385 1_556
Hf0 O55 2.154802 1_555
Hf0 O56 2.155240 1_555
Hf0 O54 2.306536 1_555
Hf1 O22 1.988835 1_555
Hf1 O21 2.001873 1_555
Hf1 O57 2.082121 1_555
Hf1 O59 2.095868 1_555
Hf1 O23 2.154572 1_555
Hf1 O58 2.235536 1_555
Hf2 O34 1.952173 1_555
Hf2 O71 2.047473 1_555
Hf2 O33 2.048790 1_555
Hf2 O70 2.166767 1_555
Hf2 O35 2.215064 1_555
Hf2 O69 2.312380 1_555
O0 S0 1.477468 1_545
O1 S1 1.477520 1_555
O2 S2 1.478636 1_655
O3 S3 1.476613 1_555
O4 S4 1.467077 1_655
O5 Si0 1.621772 1_545
O6 Si0 1.635689 1_555
O7 S3 1.480803 1_555
O8 S4 1.475806 1_555
O9 S1 1.484859 1_555
O10 S2 1.481969 1_555
O11 S0 1.481372 1_555
O12 S5 1.472863 1_555
O13 Si1 1.623414 1_555
O14 Si2 1.624220 1_555
O15 Si3 1.620808 1_555
O16 S6 1.468622 1_555
O17 Si4 1.624632 1_555
O18 Si4 1.713216 1_555
O19 Si3 1.716652 1_555
O20 S6 1.521971 1_555
O21 Si1 1.696534 1_555
O22 Si2 1.687021 1_555
O23 S5 1.517872 1_555
O24 S7 1.460656 1_555
O25 Si5 1.604233 1_555
O26 Si6 1.596996 1_555
O27 Si7 1.620643 1_555
O28 S8 1.466650 1_555
O29 Si8 1.620176 1_555
O30 Si8 1.652537 1_555
O31 Si7 1.651797 1_555
O32 S8 1.487137 1_555
O33 Si5 1.706115 1_555
O34 Si6 1.710002 1_555
O35 S7 1.512681 1_555
O36 Si8 1.646741 1_555
O37 Si7 1.641674 1_545
O38 S8 1.481725 1_555
O39 Si5 1.631604 1_655
O40 Si6 1.630585 1_555
O41 S7 1.481968 1_555
O42 S5 1.485142 1_555
O43 Si1 1.649207 1_555
O44 Si2 1.647063 1_555
O45 Si3 1.653989 1_555
O46 S6 1.486863 1_555
O47 Si4 1.649220 1_555
O48 Si0 1.656564 1_545
O49 S3 1.488189 1_555
O50 S4 1.487777 1_655
O51 S1 1.502329 1_555
O52 S2 1.505314 1_655
O53 S0 1.501591 1_545
O54 S7 1.510366 1_555
O55 Si5 1.691095 1_655
O56 Si6 1.677846 1_545
O57 Si7 1.687423 1_545
O58 S8 1.517215 1_555
O59 Si8 1.684076 1_655
O60 Si4 1.640052 1_555
O61 Si3 1.635959 1_455
O62 S6 1.474050 1_565
O63 Si1 1.639253 1_565
O64 Si2 1.640791 1_555
O65 S5 1.474012 1_455
O66 S0 1.505287 1_555
O67 S1 1.505137 1_555
O68 S2 1.505703 1_555
O69 S3 1.521909 1_555
O70 S4 1.533238 1_555
O71 Si0 1.720826 1_555
