# generated using pymatgen
data_NaNbSiGe(PO6)2
_symmetry_space_group_name_H-M   'P 1'
_cell_length_a   8.64501782
_cell_length_b   8.63776796
_cell_length_c   22.32600740
_cell_angle_alpha   90.32277089
_cell_angle_beta   90.00000000
_cell_angle_gamma   120.02776840
_symmetry_Int_Tables_number   1
_chemical_formula_structural   NaNbSiGe(PO6)2
_chemical_formula_sum   'Na6 Nb6 Si6 Ge6 P12 O72'
_cell_volume   1443.37221030
_cell_formula_units_Z   6
loop_
 _symmetry_equiv_pos_site_id
 _symmetry_equiv_pos_as_xyz
  1  'x, y, z'
loop_
 _atom_site_type_symbol
 _atom_site_label
 _atom_site_symmetry_multiplicity
 _atom_site_fract_x
 _atom_site_fract_y
 _atom_site_fract_z
 _atom_site_occupancy
  Na  Na0  1  0.00066058  0.00321561  0.49646572  1
  Na  Na1  1  0.00255503  0.00321561  0.99646572  1
  Na  Na2  1  0.66928839  0.33462930  0.82991741  1
  Na  Na3  1  0.66534191  0.33462930  0.32991741  1
  Na  Na4  1  0.33526243  0.66717350  0.16304869  1
  Na  Na5  1  0.33191007  0.66717350  0.66304869  1
  Nb  Nb0  1  0.00179975  0.00000402  0.64288507  1
  Nb  Nb1  1  0.99820427  0.00000402  0.14288507  1
  Nb  Nb2  1  0.66447360  0.33226825  0.97625707  1
  Nb  Nb3  1  0.66779566  0.33226825  0.47625707  1
  Nb  Nb4  1  0.33717887  0.66275497  0.30952052  1
  Nb  Nb5  1  0.32557510  0.66275497  0.80952052  1
  Si  Si0  1  0.72345306  0.70930869  0.25145548  1
  Si  Si1  1  0.98585563  0.70930869  0.75145548  1
  Si  Si2  1  0.96066371  0.34652861  0.58451106  1
  Si  Si3  1  0.38586590  0.34652861  0.08451106  1
  Si  Si4  1  0.05100186  0.37033255  0.91754887  1
  Si  Si5  1  0.31932969  0.37033255  0.41754887  1
  Ge  Ge0  1  0.00100290  0.99914044  0.35335114  1
  Ge  Ge1  1  0.99813754  0.99914044  0.85335114  1
  Ge  Ge2  1  0.67548814  0.33923364  0.68704092  1
  Ge  Ge3  1  0.66374650  0.33923364  0.18704092  1
  Ge  Ge4  1  0.33151915  0.65735266  0.02003938  1
  Ge  Ge5  1  0.32583251  0.65735266  0.52003938  1
  P  P0  1  0.29126815  0.00939711  0.25074882  1
  P  P1  1  0.98675882  0.28010212  0.25049226  1
  P  P2  1  0.29334329  0.28010212  0.75049226  1
  P  P3  1  0.71812896  0.00939711  0.75074882  1
  P  P4  1  0.38888313  0.04389379  0.58411160  1
  P  P5  1  0.65511542  0.61368645  0.58437678  1
  P  P6  1  0.95857203  0.61368645  0.08437678  1
  P  P7  1  0.65501167  0.04389379  0.08411160  1
  P  P8  1  0.62379129  0.67772767  0.91748574  1
  P  P9  1  0.32241860  0.94412281  0.91824254  1
  P  P10  1  0.62170321  0.94412281  0.41824254  1
  P  P11  1  0.05393537  0.67772767  0.41748574  1
  O  O0  1  0.20893655  0.04218804  0.30723847  1
  O  O1  1  0.84235993  0.80411849  0.31086761  1
  O  O2  1  0.96079809  0.16862113  0.30700740  1
  O  O3  1  0.20782304  0.16862113  0.80700740  1
  O  O4  1  0.96175856  0.80411849  0.81086761  1
  O  O5  1  0.83325149  0.04218804  0.80723847  1
  O  O6  1  0.80247256  0.97728041  0.69452731  1
  O  O7  1  0.17478028  0.20261238  0.69411719  1
  O  O8  1  0.02605192  0.83233770  0.69234118  1
  O  O9  1  0.80628578  0.83233770  0.19234118  1
  O  O10  1  0.02783210  0.20261238  0.19411719  1
  O  O11  1  0.17480785  0.97728041  0.19452731  1
  O  O12  1  0.86696319  0.37307705  0.64325698  1
  O  O13  1  0.50033242  0.13061176  0.64111662  1
  O  O14  1  0.62379791  0.49984012  0.64082821  1
  O  O15  1  0.87604321  0.49984012  0.14082821  1
  O  O16  1  0.63028034  0.13061176  0.14111662  1
  O  O17  1  0.50611486  0.37307705  0.14325698  1
  O  O18  1  0.47056206  0.30660729  0.02522245  1
  O  O19  1  0.84169063  0.53130265  0.02805777  1
  O  O20  1  0.69362607  0.16071683  0.02778227  1
  O  O21  1  0.46709177  0.16071683  0.52778227  1
  O  O22  1  0.68961302  0.53130265  0.52805777  1
  O  O23  1  0.83604623  0.30660729  0.52522245  1
  O  O24  1  0.54126451  0.70836457  0.97436676  1
  O  O25  1  0.17235844  0.46401202  0.97613940  1
  O  O26  1  0.29807591  0.83237415  0.97473225  1
  O  O27  1  0.53429724  0.83237415  0.47473225  1
  O  O28  1  0.29165258  0.46401202  0.47613940  1
  O  O29  1  0.16709906  0.70836457  0.47436676  1
  O  O30  1  0.13425079  0.64258465  0.36118585  1
  O  O31  1  0.50546641  0.86545194  0.36151113  1
  O  O32  1  0.35882718  0.49605403  0.35844379  1
  O  O33  1  0.13722585  0.49605403  0.85844379  1
  O  O34  1  0.35998453  0.86545194  0.86151113  1
  O  O35  1  0.50833286  0.64258465  0.86118585  1
  O  O36  1  0.03013753  0.84195386  0.41080163  1
  O  O37  1  0.80790365  0.96588904  0.41070882  1
  O  O38  1  0.14455640  0.17489794  0.40731742  1
  O  O39  1  0.03034155  0.17489794  0.90731742  1
  O  O40  1  0.15798540  0.96588904  0.91070882  1
  O  O41  1  0.81181632  0.84195386  0.91080163  1
  O  O42  1  0.97989979  0.16733165  0.58985167  1
  O  O43  1  0.20007073  0.02387134  0.58970532  1
  O  O44  1  0.82679389  0.80071318  0.58972660  1
  O  O45  1  0.97391929  0.80071318  0.08972660  1
  O  O46  1  0.82380061  0.02387134  0.08970532  1
  O  O47  1  0.18743187  0.16733165  0.08985167  1
  O  O48  1  0.69168164  0.17138461  0.74307558  1
  O  O49  1  0.47773485  0.29677921  0.74154851  1
  O  O50  1  0.81181811  0.51236447  0.74395325  1
  O  O51  1  0.70054736  0.51236447  0.24395325  1
  O  O52  1  0.81904536  0.29677921  0.24154851  1
  O  O53  1  0.47970398  0.17138461  0.24307558  1
  O  O54  1  0.64207666  0.50790877  0.92330455  1
  O  O55  1  0.85373570  0.35268979  0.92296824  1
  O  O56  1  0.49261141  0.13260497  0.92315410  1
  O  O57  1  0.63999456  0.13260497  0.42315410  1
  O  O58  1  0.49895510  0.35268979  0.42296824  1
  O  O59  1  0.86583311  0.50790877  0.42330455  1
  O  O60  1  0.36710999  0.52261278  0.07678946  1
  O  O61  1  0.14760871  0.64189162  0.07647092  1
  O  O62  1  0.48796143  0.85830368  0.07542061  1
  O  O63  1  0.37034125  0.85830368  0.57542061  1
  O  O64  1  0.49428192  0.64189162  0.57647092  1
  O  O65  1  0.15550180  0.52261278  0.57678946  1
  O  O66  1  0.30470951  0.83770745  0.25649776  1
  O  O67  1  0.52479098  0.69207221  0.25610370  1
  O  O68  1  0.15337681  0.46999600  0.25636016  1
  O  O69  1  0.31661819  0.46999600  0.75636016  1
  O  O70  1  0.16728023  0.69207221  0.75610370  1
  O  O71  1  0.53299694  0.83770745  0.75649776  1
loop_
_geom_bond_atom_site_label_1
_geom_bond_atom_site_label_2
_geom_bond_distance
_geom_bond_site_symmetry_2
Na0 O38 2.427957 1_555
Na0 O36 2.447093 1_545
Na0 O37 2.449867 1_445
Na0 O42 2.571009 1_455
Na0 O43 2.650472 1_555
Na0 O44 2.657790 1_445
Na1 O39 2.427957 1_555
Na1 O41 2.447093 1_445
Na1 O40 2.449867 1_545
Na1 O47 2.571009 1_556
Na1 O46 2.650472 1_456
Na1 O45 2.657790 1_446
Na2 O50 2.387174 1_555
Na2 O48 2.455044 1_555
Na2 O49 2.488468 1_555
Na2 O55 2.574903 1_555
Na2 O54 2.638162 1_555
Na2 O56 2.661666 1_555
Na3 O51 2.387174 1_555
Na3 O53 2.455044 1_555
Na3 O52 2.488468 1_555
Na3 O58 2.574903 1_555
Na3 O59 2.638162 1_555
Na3 O57 2.661666 1_555
Na4 O60 2.379242 1_555
Na4 O61 2.460969 1_555
Na4 O62 2.480090 1_555
Na4 O67 2.586378 1_555
Na4 O66 2.635754 1_555
Na4 O68 2.659498 1_555
Na5 O65 2.379242 1_555
Na5 O64 2.460969 1_555
Na5 O63 2.480090 1_555
Na5 O70 2.586378 1_555
Na5 O71 2.635754 1_555
Na5 O69 2.659498 1_555
Nb0 O8 1.918984 1_545
Nb0 O42 1.954458 1_455
Nb0 O7 1.991359 1_555
Nb0 O6 2.000316 1_445
Nb0 O44 2.007785 1_445
Nb0 O43 2.009787 1_555
Nb1 O9 1.918984 1_545
Nb1 O47 1.954458 1_655
Nb1 O10 1.991359 1_655
Nb1 O11 2.000316 1_645
Nb1 O45 2.007785 1_545
Nb1 O46 2.009787 1_555
Nb2 O18 1.919708 1_556
Nb2 O55 1.958862 1_555
Nb2 O20 1.993889 1_556
Nb2 O19 1.995452 1_556
Nb2 O56 1.999968 1_555
Nb2 O54 2.012724 1_555
Nb3 O23 1.919707 1_555
Nb3 O58 1.958862 1_555
Nb3 O21 1.993889 1_555
Nb3 O22 1.995452 1_555
Nb3 O57 1.999967 1_555
Nb3 O59 2.012724 1_555
Nb4 O32 1.894431 1_555
Nb4 O67 1.925957 1_555
Nb4 O31 1.989253 1_555
Nb4 O68 2.008875 1_555
Nb4 O30 2.033435 1_555
Nb4 O66 2.051479 1_555
Nb5 O33 1.894431 1_555
Nb5 O70 1.925957 1_555
Nb5 O34 1.989253 1_555
Nb5 O69 2.008875 1_555
Nb5 O35 2.033435 1_555
Nb5 O71 2.051479 1_555
Ge0 O1 1.813292 1_455
Ge0 O38 1.841288 1_565
Ge0 O0 1.940317 1_565
Ge0 O2 1.964884 1_465
Ge0 O36 1.978370 1_555
Ge0 O37 2.008318 1_455
Ge1 O4 1.813292 1_555
Ge1 O39 1.841288 1_665
Ge1 O5 1.940317 1_565
Ge1 O3 1.964884 1_665
Ge1 O41 1.978370 1_555
Ge1 O40 2.008318 1_655
Ge2 O12 1.816578 1_555
Ge2 O50 1.858638 1_555
Ge2 O14 1.955839 1_555
Ge2 O13 1.959503 1_555
Ge2 O48 1.977445 1_555
Ge2 O49 1.978802 1_555
Ge3 O17 1.816578 1_555
Ge3 O51 1.858638 1_555
Ge3 O15 1.955839 1_555
Ge3 O16 1.959503 1_555
Ge3 O53 1.977445 1_555
Ge3 O52 1.978802 1_555
Ge4 O25 1.823351 1_554
Ge4 O60 1.851899 1_555
Ge4 O24 1.930601 1_554
Ge4 O26 1.961373 1_554
Ge4 O61 1.980494 1_555
Ge4 O62 1.999277 1_555
Ge5 O28 1.823351 1_555
Ge5 O65 1.851899 1_555
Ge5 O29 1.930601 1_555
Ge5 O27 1.961373 1_555
Ge5 O64 1.980495 1_555
Ge5 O63 1.999277 1_555
O0 P0 1.541157 1_555
O1 Si0 1.622346 1_555
O2 P1 1.538525 1_555
O3 P2 1.538525 1_555
O4 Si1 1.622346 1_555
O5 P3 1.541157 1_555
O6 P3 1.543593 1_565
O7 P2 1.544869 1_555
O8 Si1 1.624229 1_455
O9 Si0 1.624229 1_555
O10 P1 1.544869 1_455
O11 P0 1.543593 1_565
O12 Si2 1.616006 1_555
O13 P4 1.541454 1_555
O14 P5 1.541518 1_555
O15 P6 1.541518 1_555
O16 P7 1.541454 1_555
O17 Si3 1.616006 1_555
O18 Si3 1.629326 1_555
O19 P6 1.542290 1_555
O20 P7 1.545458 1_555
O21 P4 1.545458 1_555
O22 P5 1.542290 1_555
O23 Si2 1.629326 1_555
O24 P8 1.541727 1_555
O25 Si4 1.613995 1_555
O26 P9 1.541760 1_555
O27 P10 1.541760 1_555
O28 Si5 1.613995 1_555
O29 P11 1.541727 1_555
O30 P11 1.536494 1_555
O31 P10 1.543586 1_555
O32 Si5 1.637745 1_555
O33 Si4 1.637745 1_555
O34 P9 1.543586 1_555
O35 P8 1.536494 1_555
O36 P11 1.539917 1_555
O37 P10 1.533705 1_555
O38 Si5 1.621019 1_555
O39 Si4 1.621023 1_555
O40 P9 1.533697 1_555
O41 P8 1.539922 1_555
O42 Si2 1.642390 1_555
O43 P4 1.558066 1_555
O44 P5 1.557236 1_555
O45 P6 1.557240 1_555
O46 P7 1.558058 1_555
O47 Si3 1.642395 1_555
O48 P3 1.536976 1_555
O49 P2 1.540188 1_555
O50 Si1 1.618900 1_555
O51 Si0 1.618904 1_555
O52 P1 1.540179 1_555
O53 P0 1.536981 1_555
O54 P8 1.558124 1_555
O55 Si4 1.638978 1_655
O56 P9 1.558196 1_545
O57 P10 1.558189 1_545
O58 Si5 1.638996 1_555
O59 P11 1.558114 1_655
O60 Si3 1.618380 1_555
O61 P6 1.537273 1_455
O62 P7 1.540311 1_565
O63 P4 1.540304 1_565
O64 P5 1.537290 1_555
O65 Si2 1.618370 1_455
O66 P0 1.550461 1_565
O67 Si0 1.651298 1_555
O68 P1 1.554140 1_455
O69 P2 1.554143 1_555
O70 Si1 1.651290 1_455
O71 P3 1.550465 1_565
