# generated using pymatgen
data_InBrO
_symmetry_space_group_name_H-M   'P 1'
_cell_length_a   3.64760392
_cell_length_b   4.07717859
_cell_length_c   8.90792645
_cell_angle_alpha   90.00000000
_cell_angle_beta   90.00000000
_cell_angle_gamma   90.00000000
_symmetry_Int_Tables_number   1
_chemical_formula_structural   InBrO
_chemical_formula_sum   'In2 Br2 O2'
_cell_volume   132.47808184
_cell_formula_units_Z   2
loop_
 _symmetry_equiv_pos_site_id
 _symmetry_equiv_pos_as_xyz
  1  'x, y, z'
loop_
 _atom_site_type_symbol
 _atom_site_label
 _atom_site_symmetry_multiplicity
 _atom_site_fract_x
 _atom_site_fract_y
 _atom_site_fract_z
 _atom_site_occupancy
  In  In0  1  0.75000000  0.75000000  0.88846919  1
  In  In1  1  0.25000000  0.25000000  0.11153081  1
  Br  Br0  1  0.25000000  0.75000000  0.66877069  1
  Br  Br1  1  0.75000000  0.25000000  0.33122931  1
  O  O0  1  0.25000000  0.75000000  0.03681074  1
  O  O1  1  0.75000000  0.25000000  0.96318926  1
loop_
_geom_bond_atom_site_label_1
_geom_bond_atom_site_label_2
_geom_bond_distance
_geom_bond_site_symmetry_2
In0 O1 2.144498 1_565
In0 O1 2.144498 1_555
In0 O0 2.252197 1_556
In0 O0 2.252197 1_656
In1 O0 2.144498 1_545
In1 O0 2.144498 1_555
In1 O1 2.252197 1_454
In1 O1 2.252197 1_554
Br0 In0 2.675132 1_555
Br0 In0 2.675132 1_455
Br1 In1 2.675132 1_555
Br1 In1 2.675132 1_655
