# generated using pymatgen
data_HoMnO3
_symmetry_space_group_name_H-M   'P 1'
_cell_length_a   5.31208200
_cell_length_b   5.85681000
_cell_length_c   7.47783700
_cell_angle_alpha   90.00000000
_cell_angle_beta   90.00000000
_cell_angle_gamma   90.00000000
_symmetry_Int_Tables_number   1
_chemical_formula_structural   HoMnO3
_chemical_formula_sum   'Ho4 Mn4 O12'
_cell_volume   232.64938030
_cell_formula_units_Z   4
loop_
 _symmetry_equiv_pos_site_id
 _symmetry_equiv_pos_as_xyz
  1  'x, y, z'
loop_
 _atom_site_type_symbol
 _atom_site_label
 _atom_site_symmetry_multiplicity
 _atom_site_fract_x
 _atom_site_fract_y
 _atom_site_fract_z
 _atom_site_occupancy
  Ho  Ho0  1  0.01930400  0.91712400  0.75000000  1
  Ho  Ho1  1  0.51930400  0.58287600  0.25000000  1
  Ho  Ho2  1  0.48069600  0.41712400  0.75000000  1
  Ho  Ho3  1  0.98069600  0.08287600  0.25000000  1
  Mn  Mn0  1  0.50000000  0.00000000  0.50000000  1
  Mn  Mn1  1  0.00000000  0.50000000  0.50000000  1
  Mn  Mn2  1  0.00000000  0.50000000  0.00000000  1
  Mn  Mn3  1  0.50000000  0.00000000  0.00000000  1
  O  O0  1  0.69993000  0.32620200  0.44227800  1
  O  O1  1  0.19993000  0.17379800  0.55772200  1
  O  O2  1  0.80007000  0.82620200  0.05772200  1
  O  O3  1  0.30007000  0.67379800  0.94227800  1
  O  O4  1  0.30007000  0.67379800  0.55772200  1
  O  O5  1  0.80007000  0.82620200  0.44227800  1
  O  O6  1  0.19993000  0.17379800  0.94227800  1
  O  O7  1  0.69993000  0.32620200  0.05772200  1
  O  O8  1  0.12160900  0.45612000  0.25000000  1
  O  O9  1  0.62160900  0.04388000  0.75000000  1
  O  O10  1  0.37839100  0.95612000  0.25000000  1
  O  O11  1  0.87839100  0.54388000  0.75000000  1
loop_
_geom_bond_atom_site_label_1
_geom_bond_atom_site_label_2
_geom_bond_distance
_geom_bond_site_symmetry_2
Ho0 O9 2.239233 1_465
Ho0 O6 2.290821 1_565
Ho0 O1 2.290821 1_565
Ho0 O11 2.310626 1_455
Ho0 O3 2.514501 1_555
Ho0 O4 2.514501 1_555
Ho0 O2 2.633415 1_456
Ho0 O5 2.633415 1_455
Ho1 O8 2.239233 1_555
Ho1 O0 2.290821 1_555
Ho1 O7 2.290821 1_555
Ho1 O10 2.310626 1_555
Ho1 O5 2.514501 1_555
Ho1 O2 2.514501 1_555
Ho1 O4 2.633415 1_555
Ho1 O3 2.633415 1_554
Ho2 O11 2.239233 1_555
Ho2 O3 2.290821 1_555
Ho2 O4 2.290821 1_555
Ho2 O9 2.310626 1_555
Ho2 O6 2.514501 1_555
Ho2 O1 2.514501 1_555
Ho2 O7 2.633415 1_556
Ho2 O0 2.633415 1_555
Ho3 O10 2.239233 1_645
Ho3 O5 2.290821 1_545
Ho3 O2 2.290821 1_545
Ho3 O8 2.310626 1_655
Ho3 O0 2.514501 1_555
Ho3 O7 2.514501 1_555
Ho3 O1 2.633415 1_655
Ho3 O6 2.633415 1_654
Mn0 O1 1.939912 1_555
Mn0 O5 1.939912 1_545
Mn0 O10 1.994552 1_545
Mn0 O9 1.994552 1_555
Mn0 O4 2.228064 1_545
Mn0 O0 2.228064 1_555
Mn1 O4 1.939912 1_555
Mn1 O0 1.939912 1_455
Mn1 O8 1.994552 1_555
Mn1 O11 1.994552 1_455
Mn1 O5 2.228064 1_455
Mn1 O1 2.228064 1_555
Mn2 O7 1.939912 1_455
Mn2 O3 1.939912 1_554
Mn2 O8 1.994552 1_555
Mn2 O11 1.994552 1_454
Mn2 O2 2.228064 1_455
Mn2 O6 2.228064 1_554
Mn3 O6 1.939912 1_554
Mn3 O2 1.939912 1_545
Mn3 O10 1.994552 1_545
Mn3 O9 1.994552 1_554
Mn3 O7 2.228064 1_555
Mn3 O3 2.228064 1_544
