# generated using pymatgen
data_Na8Mg2Nb2Si5SO24
_symmetry_space_group_name_H-M   'P 1'
_cell_length_a   9.17981383
_cell_length_b   9.16227173
_cell_length_c   22.34290558
_cell_angle_alpha   90.03198977
_cell_angle_beta   90.23356054
_cell_angle_gamma   120.07573358
_symmetry_Int_Tables_number   1
_chemical_formula_structural   Na8Mg2Nb2Si5SO24
_chemical_formula_sum   'Na24 Mg6 Nb6 Si15 S3 O72'
_cell_volume   1626.18450412
_cell_formula_units_Z   3
loop_
 _symmetry_equiv_pos_site_id
 _symmetry_equiv_pos_as_xyz
  1  'x, y, z'
loop_
 _atom_site_type_symbol
 _atom_site_label
 _atom_site_symmetry_multiplicity
 _atom_site_fract_x
 _atom_site_fract_y
 _atom_site_fract_z
 _atom_site_occupancy
  Na  Na0  1  0.64291427  0.02637335  0.24434164  1
  Na  Na1  1  0.36988055  0.34966847  0.25047665  1
  Na  Na2  1  0.98335270  0.62054265  0.24398091  1
  Na  Na3  1  0.62380230  0.64085518  0.76235762  1
  Na  Na4  1  0.01320548  0.37434949  0.76170843  1
  Na  Na5  1  0.36054740  0.98588267  0.75564368  1
  Na  Na6  1  0.29408426  0.35010805  0.57918297  1
  Na  Na7  1  0.04844609  0.70078644  0.58498055  1
  Na  Na8  1  0.64841462  0.94644411  0.57862749  1
  Na  Na9  1  0.31101826  0.95634852  0.08435897  1
  Na  Na10  1  0.65941647  0.70507276  0.07057591  1
  Na  Na11  1  0.03289096  0.34913855  0.07551360  1
  Na  Na12  1  0.97702622  0.68065043  0.90252090  1
  Na  Na13  1  0.71775139  0.01950574  0.91007317  1
  Na  Na14  1  0.32384373  0.31140689  0.90560576  1
  Na  Na15  1  0.97324586  0.28068409  0.41130021  1
  Na  Na16  1  0.32313881  0.03462266  0.40572927  1
  Na  Na17  1  0.70134224  0.68252508  0.41211212  1
  Na  Na18  1  0.99952014  0.01174934  0.49636792  1
  Na  Na19  1  0.98586055  0.99797251  0.99112158  1
  Na  Na20  1  0.66990089  0.34141037  0.83133341  1
  Na  Na21  1  0.66404442  0.32923287  0.32292591  1
  Na  Na22  1  0.33115966  0.67819855  0.15914759  1
  Na  Na23  1  0.33315114  0.66505882  0.67029653  1
  Mg  Mg0  1  -0.00033951  0.00604619  0.34988829  1
  Mg  Mg1  1  0.99328377  0.00182118  0.84822579  1
  Mg  Mg2  1  0.67425717  0.33155542  0.18639580  1
  Mg  Mg3  1  0.33669705  0.66887663  0.01446101  1
  Mg  Mg4  1  0.34029844  0.66418379  0.52262558  1
  Mg  Mg5  1  0.32957986  0.65014786  0.81210734  1
  Nb  Nb0  1  0.99671811  0.99920164  0.64816450  1
  Nb  Nb1  1  0.98980235  0.99447602  0.15099472  1
  Nb  Nb2  1  0.66815135  0.33494108  0.68755808  1
  Nb  Nb3  1  0.69168795  0.34654336  0.98053011  1
  Nb  Nb4  1  0.65460057  0.32373828  0.48082802  1
  Nb  Nb5  1  0.34967191  0.67170234  0.31029261  1
  Si  Si0  1  0.29083454  -0.00055418  0.25371149  1
  Si  Si1  1  0.70993630  0.70269425  0.25472614  1
  Si  Si2  1  0.00029489  0.29539082  0.25383136  1
  Si  Si3  1  0.29279387  0.28939510  0.75244519  1
  Si  Si4  1  0.00146423  0.70877041  0.75212759  1
  Si  Si5  1  0.70469903  0.00045955  0.75207629  1
  Si  Si6  1  0.95782177  0.33285584  0.58261526  1
  Si  Si7  1  0.36746862  0.03717787  0.58448909  1
  Si  Si8  1  0.66920465  0.62704217  0.58268829  1
  Si  Si9  1  0.96889988  0.63494948  0.08828009  1
  Si  Si10  1  0.66292961  0.03668893  0.08717669  1
  Si  Si11  1  0.62604200  0.66618078  0.91807376  1
  Si  Si12  1  0.05010600  0.37470916  0.91774347  1
  Si  Si13  1  0.62890827  0.95987107  0.42079057  1
  Si  Si14  1  0.33086459  0.37220174  0.42038436  1
  S  S0  1  0.37388903  0.32864185  0.08514985  1
  S  S1  1  0.33769915  0.96372434  0.91848700  1
  S  S2  1  0.04268537  0.66271935  0.41777107  1
  O  O0  1  0.20434019  0.02195100  0.31195457  1
  O  O1  1  0.82109126  0.78620457  0.31305106  1
  O  O2  1  0.97344332  0.18337047  0.31164624  1
  O  O3  1  0.21938690  0.17015751  0.81003284  1
  O  O4  1  0.95956269  0.78637055  0.80932995  1
  O  O5  1  0.82432912  0.04738547  0.80990867  1
  O  O6  1  0.80693873  0.98059000  0.69182223  1
  O  O7  1  0.17087811  0.18527603  0.69217320  1
  O  O8  1  0.01574038  0.82664832  0.69121940  1
  O  O9  1  0.80157108  0.83351284  0.19502330  1
  O  O10  1  0.03319825  0.19972011  0.19366925  1
  O  O11  1  0.16364718  0.96933562  0.19322433  1
  O  O12  1  0.85525010  0.35038181  0.63979281  1
  O  O13  1  0.49358264  0.14041688  0.64025950  1
  O  O14  1  0.65220213  0.50498180  0.63934084  1
  O  O15  1  0.87352735  0.52033916  0.14435361  1
  O  O16  1  0.63502623  0.12164063  0.14487990  1
  O  O17  1  0.47235170  0.34719596  0.13907101  1
  O  O18  1  0.45593514  0.30795611  0.03058100  1
  O  O19  1  0.84237051  0.53525114  0.02738028  1
  O  O20  1  0.68898316  0.16426926  0.02811087  1
  O  O21  1  0.46601137  0.16431414  0.52465540  1
  O  O22  1  0.69641127  0.52915412  0.52358357  1
  O  O23  1  0.83088952  0.30390126  0.52351233  1
  O  O24  1  0.54263340  0.69079934  0.97780289  1
  O  O25  1  0.14705615  0.46138633  0.97941399  1
  O  O26  1  0.32100759  0.86590513  0.97294871  1
  O  O27  1  0.53441110  0.85048259  0.47841980  1
  O  O28  1  0.30316383  0.45910038  0.47792100  1
  O  O29  1  0.14045366  0.68116573  0.47208838  1
  O  O30  1  0.12471996  0.64217715  0.36316651  1
  O  O31  1  0.50206391  0.86416717  0.35993281  1
  O  O32  1  0.36000547  0.50136996  0.36026948  1
  O  O33  1  0.11327555  0.49256570  0.85867825  1
  O  O34  1  0.36645854  0.89018063  0.86437877  1
  O  O35  1  0.50963761  0.62241894  0.85823753  1
  O  O36  1  0.01850969  0.81092085  0.41349725  1
  O  O37  1  0.81409463  0.98162711  0.41457061  1
  O  O38  1  0.17647795  0.18109532  0.41364937  1
  O  O39  1  0.02100551  0.18446136  0.91414420  1
  O  O40  1  0.18745962  0.98323892  0.91449403  1
  O  O41  1  0.82057281  0.82116778  0.91461454  1
  O  O42  1  0.96593119  0.15731577  0.58620506  1
  O  O43  1  0.18735828  0.03384107  0.58613679  1
  O  O44  1  0.84472629  0.81067176  0.58553409  1
  O  O45  1  0.97663386  0.82236705  0.08825434  1
  O  O46  1  0.84607622  0.03323502  0.08891439  1
  O  O47  1  0.20225058  0.17112056  0.08691632  1
  O  O48  1  0.68664357  0.17128569  0.74173773  1
  O  O49  1  0.48367317  0.31249263  0.74187563  1
  O  O50  1  0.83078389  0.51753758  0.74253007  1
  O  O51  1  0.66834099  0.51358500  0.24298281  1
  O  O52  1  0.84205908  0.32447428  0.24619174  1
  O  O53  1  0.47693816  0.15982799  0.24477618  1
  O  O54  1  0.63616374  0.48181658  0.92726271  1
  O  O55  1  0.84594746  0.34668755  0.92435905  1
  O  O56  1  0.49255272  0.14075417  0.92425081  1
  O  O57  1  0.64088740  0.15104529  0.42004318  1
  O  O58  1  0.51494412  0.36988499  0.42029051  1
  O  O59  1  0.87068154  0.50385026  0.41897692  1
  O  O60  1  0.35071213  0.47822523  0.08074949  1
  O  O61  1  0.15481708  0.66040115  0.07917098  1
  O  O62  1  0.50549965  0.84646185  0.07903166  1
  O  O63  1  0.34732955  0.85442358  0.57919629  1
  O  O64  1  0.50419480  0.64376040  0.58229510  1
  O  O65  1  0.13837888  0.49977055  0.57979885  1
  O  O66  1  0.29812653  0.81954942  0.25619416  1
  O  O67  1  0.52557076  0.70261174  0.25478957  1
  O  O68  1  0.17855888  0.48314099  0.25674729  1
  O  O69  1  0.30683248  0.47184302  0.74968351  1
  O  O70  1  0.16870281  0.69335864  0.75101046  1
  O  O71  1  0.52009969  0.83536511  0.75236786  1
loop_
_geom_bond_atom_site_label_1
_geom_bond_atom_site_label_2
_geom_bond_distance
_geom_bond_site_symmetry_2
Na0 O53 2.384122 1_555
Na0 O16 2.402040 1_555
Na0 O52 2.407975 1_555
Na0 O67 2.610451 1_545
Na0 O66 2.770333 1_545
Na0 O31 2.942121 1_545
Na0 O9 3.008032 1_545
Na0 O2 3.020380 1_555
Na1 O51 2.381170 1_555
Na1 O53 2.391976 1_555
Na1 O68 2.598894 1_555
Na1 O17 2.668613 1_555
Na1 O67 2.806309 1_555
Na1 O32 2.842898 1_555
Na1 O0 2.942813 1_555
Na1 O10 2.959892 1_555
Na2 O52 2.348928 1_555
Na2 O15 2.421968 1_555
Na2 O66 2.541836 1_655
Na2 O51 2.546013 1_555
Na2 O68 2.671074 1_655
Na2 O30 2.920293 1_655
Na3 O35 2.357394 1_555
Na3 O71 2.414806 1_555
Na3 O69 2.534031 1_555
Na3 O49 2.651458 1_555
Na3 O50 2.690926 1_555
Na3 O4 2.869209 1_555
Na4 O33 2.386426 1_555
Na4 O69 2.393414 1_555
Na4 O70 2.541571 1_555
Na4 O50 2.627888 1_455
Na4 O48 2.654296 1_455
Na4 O5 2.820146 1_455
Na5 O70 2.358581 1_555
Na5 O71 2.465305 1_555
Na5 O34 2.592888 1_555
Na5 O48 2.618138 1_565
Na5 O49 2.634565 1_565
Na5 O3 2.865296 1_565
Na5 O13 2.904993 1_565
Na6 O64 2.400277 1_555
Na6 O65 2.426552 1_555
Na6 O28 2.458387 1_555
Na6 O43 2.556771 1_555
Na6 O42 2.624911 1_455
Na6 O7 2.872069 1_555
Na7 O65 2.368875 1_555
Na7 O63 2.378683 1_555
Na7 O44 2.529509 1_455
Na7 O43 2.652943 1_565
Na7 O29 2.697578 1_555
Na7 O8 2.721050 1_555
Na8 O64 2.402427 1_555
Na8 O27 2.436705 1_555
Na8 O63 2.452519 1_555
Na8 O42 2.570703 1_565
Na8 O44 2.657772 1_555
Na8 O6 2.850384 1_555
Na9 O61 2.350173 1_555
Na9 O62 2.453226 1_555
Na9 O47 2.615733 1_565
Na9 O26 2.639522 1_554
Na9 O45 2.676267 1_455
Na9 O11 2.819326 1_555
Na9 O16 2.901522 1_565
Na10 O24 2.303047 1_554
Na10 O62 2.355143 1_555
Na10 O60 2.550410 1_555
Na10 O45 2.577634 1_555
Na10 O46 2.640718 1_565
Na11 O25 2.388887 1_554
Na11 O61 2.488433 1_555
Na11 O46 2.537372 1_455
Na11 O60 2.542258 1_555
Na11 O47 2.771480 1_555
Na12 O4 2.335488 1_555
Na12 O41 2.376834 1_555
Na12 O40 2.473161 1_655
Na12 O55 2.713826 1_555
Na12 O33 2.768041 1_655
Na12 O54 2.777982 1_555
Na13 O5 2.408099 1_555
Na13 O39 2.413073 1_655
Na13 O41 2.433540 1_545
Na13 O55 2.633092 1_555
Na13 O56 2.813341 1_555
Na14 O39 2.425147 1_555
Na14 O3 2.427053 1_555
Na14 O54 2.528441 1_555
Na14 O40 2.622440 1_545
Na14 O35 2.701101 1_555
Na14 O56 2.727515 1_555
Na15 O37 2.374114 1_545
Na15 O2 2.398329 1_555
Na15 O38 2.453852 1_655
Na15 O59 2.650884 1_555
Na15 O57 2.670287 1_555
Na15 O23 2.888512 1_555
Na16 O0 2.333845 1_555
Na16 O38 2.336133 1_555
Na16 O36 2.512117 1_545
Na16 O57 2.573275 1_555
Na16 O58 2.686084 1_555
Na16 O21 2.932342 1_555
Na16 O31 2.960889 1_545
Na17 O37 2.395998 1_555
Na17 O1 2.446444 1_555
Na17 O58 2.501411 1_555
Na17 O36 2.535386 1_655
Na17 O59 2.769293 1_555
Na17 O22 2.849711 1_555
Na17 O32 2.944555 1_555
Na18 O37 2.411817 1_545
Na18 O38 2.442014 1_655
Na18 O42 2.513376 1_555
Na18 O43 2.580426 1_655
Na18 O44 2.604921 1_545
Na18 O36 2.676713 1_645
Na19 O41 2.315302 1_555
Na19 O39 2.331727 1_665
Na19 O40 2.578816 1_655
Na19 O46 2.638691 1_566
Na19 O45 2.678540 1_556
Na19 O47 2.801190 1_666
Na20 O50 2.522055 1_555
Na20 O49 2.550543 1_555
Na20 O48 2.588380 1_555
Na20 O54 2.597384 1_555
Na20 O55 2.613088 1_555
Na20 O56 2.715195 1_555
Na21 O52 2.388698 1_555
Na21 O53 2.389264 1_555
Na21 O51 2.445834 1_555
Na21 O57 2.660609 1_555
Na21 O58 2.697933 1_555
Na21 O59 2.772116 1_555
Na22 O61 2.356193 1_555
Na22 O62 2.386573 1_555
Na22 O60 2.605004 1_555
Na22 O66 2.620421 1_555
Na22 O67 2.714725 1_555
Na22 O68 2.726097 1_555
Na23 O69 2.432442 1_555
Na23 O70 2.452005 1_555
Na23 O71 2.455535 1_555
Na23 O64 2.588680 1_555
Na23 O65 2.613788 1_555
Na23 O63 2.636286 1_555
Mg0 O2 1.954328 1_455
Mg0 O0 2.002152 1_555
Mg0 O1 2.024713 1_445
Mg0 O38 2.146114 1_555
Mg0 O37 2.163064 1_445
Mg0 O36 2.357299 1_545
Mg1 O5 1.987782 1_555
Mg1 O4 2.032545 1_545
Mg1 O3 2.054844 1_655
Mg1 O39 2.145125 1_655
Mg1 O41 2.201191 1_545
Mg1 O40 2.383585 1_645
Mg2 O16 1.997558 1_555
Mg2 O15 2.016165 1_555
Mg2 O52 2.060445 1_555
Mg2 O51 2.114713 1_555
Mg2 O53 2.150134 1_555
Mg2 O17 2.196423 1_555
Mg3 O24 1.979200 1_554
Mg3 O25 1.981924 1_554
Mg3 O26 2.097912 1_554
Mg3 O62 2.140573 1_555
Mg3 O61 2.184924 1_555
Mg3 O60 2.342656 1_555
Mg4 O28 1.999436 1_555
Mg4 O27 2.007987 1_555
Mg4 O64 2.083783 1_555
Mg4 O63 2.126972 1_555
Mg4 O65 2.135329 1_555
Mg4 O29 2.221287 1_555
Mg5 O33 2.062792 1_555
Mg5 O35 2.065483 1_555
Mg5 O69 2.076280 1_555
Mg5 O71 2.183345 1_555
Mg5 O70 2.184350 1_555
Mg5 O34 2.358589 1_555
Nb0 O7 1.919072 1_665
Nb0 O6 1.931811 1_555
Nb0 O8 1.931946 1_655
Nb0 O44 2.110555 1_555
Nb0 O42 2.122359 1_565
Nb0 O43 2.132512 1_665
Nb1 O9 1.894669 1_555
Nb1 O11 1.961248 1_655
Nb1 O10 1.961671 1_665
Nb1 O46 2.060591 1_565
Nb1 O45 2.066736 1_555
Nb1 O47 2.309620 1_665
Nb2 O14 1.959206 1_555
Nb2 O12 1.969886 1_555
Nb2 O13 1.995695 1_555
Nb2 O48 1.999510 1_555
Nb2 O50 2.003922 1_555
Nb2 O49 2.012695 1_555
Nb3 O19 1.894091 1_556
Nb3 O55 1.895513 1_555
Nb3 O54 1.960169 1_555
Nb3 O20 1.969890 1_556
Nb3 O56 2.236498 1_555
Nb3 O18 2.304877 1_556
Nb4 O21 1.889569 1_555
Nb4 O23 1.960579 1_555
Nb4 O22 1.968012 1_555
Nb4 O57 2.039712 1_555
Nb4 O58 2.044900 1_555
Nb4 O59 2.304700 1_555
Nb5 O67 1.945186 1_555
Nb5 O31 1.951764 1_555
Nb5 O32 1.959819 1_555
Nb5 O68 2.036126 1_555
Nb5 O66 2.039480 1_555
Nb5 O30 2.278908 1_555
O0 Si0 1.593302 1_555
O1 Si1 1.590704 1_555
O2 Si2 1.591636 1_655
O3 Si3 1.604344 1_555
O4 Si4 1.601257 1_655
O5 Si5 1.604700 1_555
O6 Si5 1.705190 1_565
O7 Si3 1.700659 1_555
O8 Si4 1.702006 1_555
O9 Si1 1.709969 1_555
O10 Si2 1.712839 1_555
O11 Si0 1.711612 1_565
O12 Si6 1.644851 1_555
O13 Si7 1.636169 1_555
O14 Si8 1.644845 1_555
O15 Si9 1.589895 1_555
O16 Si10 1.592177 1_555
O17 S0 1.460890 1_555
O18 S0 1.496662 1_555
O19 Si9 1.719674 1_555
O20 Si10 1.699791 1_555
O21 Si7 1.708170 1_555
O22 Si8 1.684205 1_555
O23 Si6 1.687941 1_555
O24 Si11 1.612198 1_555
O25 Si12 1.612991 1_555
O26 S1 1.473945 1_555
O27 Si13 1.598144 1_555
O28 Si14 1.598633 1_555
O29 S2 1.464841 1_555
O30 S2 1.496757 1_555
O31 Si13 1.713483 1_555
O32 Si14 1.721508 1_555
O33 Si12 1.619908 1_555
O34 S1 1.471482 1_555
O35 Si11 1.627352 1_555
O36 S2 1.484645 1_555
O37 Si13 1.615947 1_555
O38 Si14 1.614884 1_555
O39 Si12 1.627633 1_555
O40 S1 1.479261 1_555
O41 Si11 1.634321 1_555
O42 Si6 1.648894 1_555
O43 Si7 1.638837 1_555
O44 Si8 1.647069 1_555
O45 Si9 1.682714 1_555
O46 Si10 1.697619 1_555
O47 S0 1.512761 1_555
O48 Si5 1.670522 1_555
O49 Si3 1.674112 1_555
O50 Si4 1.678136 1_655
O51 Si1 1.597609 1_555
O52 Si2 1.611242 1_655
O53 Si0 1.613920 1_555
O54 Si11 1.749774 1_555
O55 Si12 1.766405 1_655
O56 S1 1.534757 1_545
O57 Si13 1.699244 1_545
O58 Si14 1.700562 1_555
O59 S2 1.519676 1_655
O60 S0 1.491813 1_555
O61 Si9 1.616342 1_455
O62 Si10 1.622442 1_565
O63 Si7 1.594133 1_565
O64 Si8 1.597025 1_555
O65 Si6 1.596984 1_455
O66 Si0 1.683738 1_565
O67 Si1 1.692069 1_555
O68 Si2 1.678942 1_555
O69 Si3 1.612156 1_555
O70 Si4 1.610915 1_555
O71 Si5 1.609560 1_565
