# generated using pymatgen
data_Na4MgZnSi(SO6)2
_symmetry_space_group_name_H-M   'P 1'
_cell_length_a   9.12382000
_cell_length_b   9.14317881
_cell_length_c   22.02433057
_cell_angle_alpha   90.36865276
_cell_angle_beta   90.26988260
_cell_angle_gamma   119.98825353
_symmetry_Int_Tables_number   1
_chemical_formula_structural   Na4MgZnSi(SO6)2
_chemical_formula_sum   'Na24 Mg6 Zn6 Si6 S12 O72'
_cell_volume   1591.22461031
_cell_formula_units_Z   6
loop_
 _symmetry_equiv_pos_site_id
 _symmetry_equiv_pos_as_xyz
  1  'x, y, z'
loop_
 _atom_site_type_symbol
 _atom_site_label
 _atom_site_symmetry_multiplicity
 _atom_site_fract_x
 _atom_site_fract_y
 _atom_site_fract_z
 _atom_site_occupancy
  Na  Na0  1  0.61681405  0.99781805  0.25740056  1
  Na  Na1  1  0.35983500  0.34314383  0.25247582  1
  Na  Na2  1  0.01182253  0.65027434  0.23816742  1
  Na  Na3  1  0.63662903  0.64701104  0.73876538  1
  Na  Na4  1  0.98868494  0.34917560  0.75347217  1
  Na  Na5  1  0.37965828  0.99761232  0.75619381  1
  Na  Na6  1  0.31733388  0.34518748  0.58619428  1
  Na  Na7  1  0.01848372  0.69291047  0.57882552  1
  Na  Na8  1  0.66683279  0.94899109  0.58426110  1
  Na  Na9  1  0.28164196  0.94968542  0.08510169  1
  Na  Na10  1  0.67399142  0.69255818  0.07883425  1
  Na  Na11  1  0.02831007  0.34549236  0.08584509  1
  Na  Na12  1  0.97747105  0.67732016  0.92624745  1
  Na  Na13  1  0.68862115  0.03302953  0.90742257  1
  Na  Na14  1  0.33310030  0.29266450  0.91669671  1
  Na  Na15  1  0.95601372  0.29168512  0.41799768  1
  Na  Na16  1  0.34706430  0.03063500  0.40608981  1
  Na  Na17  1  0.69801521  0.67783039  0.42695820  1
  Na  Na18  1  0.97413031  0.98510370  0.49969938  1
  Na  Na19  1  0.00882601  0.98545953  0.99891124  1
  Na  Na20  1  0.65857671  0.31172382  0.83444184  1
  Na  Na21  1  0.65183388  0.31036382  0.33437202  1
  Na  Na22  1  0.32043921  0.67844695  0.16621782  1
  Na  Na23  1  0.35531290  0.67540523  0.66646167  1
  Mg  Mg0  1  0.00527168  0.00196394  0.34869542  1
  Mg  Mg1  1  0.98189400  0.98534383  0.65015707  1
  Mg  Mg2  1  0.00339948  0.98516753  0.15018452  1
  Mg  Mg3  1  0.66507215  0.33069949  0.68292307  1
  Mg  Mg4  1  0.66628598  0.33055991  0.18309417  1
  Mg  Mg5  1  0.34219208  0.69068974  0.31767229  1
  Zn  Zn0  1  0.99910856  0.00186594  0.84603285  1
  Zn  Zn1  1  0.66235826  0.32988074  0.98722616  1
  Zn  Zn2  1  0.66667543  0.32942243  0.48687979  1
  Zn  Zn3  1  0.30607570  0.67909184  0.01335032  1
  Zn  Zn4  1  0.37171171  0.67819872  0.51274365  1
  Zn  Zn5  1  0.36029010  0.70397305  0.82045494  1
  Si  Si0  1  0.30142158  0.00181135  0.24988778  1
  Si  Si1  1  0.70339595  0.00279355  0.75009551  1
  Si  Si2  1  0.66791386  0.62472869  0.58275739  1
  Si  Si3  1  0.95673451  0.62510539  0.08330700  1
  Si  Si4  1  0.33241224  0.97810834  0.91714937  1
  Si  Si5  1  0.64271644  0.97626343  0.41729171  1
  S  S0  1  0.70155671  0.70238890  0.25017359  1
  S  S1  1  0.00098755  0.29414893  0.25001794  1
  S  S2  1  0.29647381  0.29472800  0.74902700  1
  S  S3  1  0.99883418  0.69928205  0.74923426  1
  S  S4  1  0.96832080  0.33384763  0.58432634  1
  S  S5  1  0.36306115  0.03507003  0.58458432  1
  S  S6  1  0.67198250  0.03520109  0.08469362  1
  S  S7  1  0.36558405  0.33411097  0.08433109  1
  S  S8  1  0.62376624  0.66296873  0.91771628  1
  S  S9  1  0.04287099  0.37262502  0.91527176  1
  S  S10  1  0.32686265  0.37137259  0.41461898  1
  S  S11  1  0.04104512  0.66666270  0.41624267  1
  O  O0  1  0.21564924  0.03389401  0.31031904  1
  O  O1  1  0.80703408  0.78726413  0.30505228  1
  O  O2  1  0.97725974  0.18940704  0.30457822  1
  O  O3  1  0.22227510  0.19454632  0.80504997  1
  O  O4  1  0.97740137  0.77746997  0.80545857  1
  O  O5  1  0.81990465  0.03454848  0.81196449  1
  O  O6  1  0.79195236  0.97603874  0.69056707  1
  O  O7  1  0.19186598  0.20490731  0.69468883  1
  O  O8  1  0.02657582  0.80880236  0.69577232  1
  O  O9  1  0.77733106  0.80880179  0.19568954  1
  O  O10  1  0.01786671  0.21023373  0.19467422  1
  O  O11  1  0.18557681  0.97587363  0.18976837  1
  O  O12  1  0.88064667  0.35115345  0.63848617  1
  O  O13  1  0.47584089  0.11832947  0.63809650  1
  O  O14  1  0.64133855  0.50885162  0.64218306  1
  O  O15  1  0.86840791  0.50972485  0.14292964  1
  O  O16  1  0.64313358  0.11844636  0.13779772  1
  O  O17  1  0.47121379  0.35177078  0.13853583  1
  O  O18  1  0.43639707  0.30025949  0.02868257  1
  O  O19  1  0.84297861  0.53618453  0.02135801  1
  O  O20  1  0.69428782  0.13156508  0.02808791  1
  O  O21  1  0.43709977  0.13181727  0.52828644  1
  O  O22  1  0.69341818  0.53650892  0.52082251  1
  O  O23  1  0.86331716  0.30038507  0.52854134  1
  O  O24  1  0.53798039  0.67793117  0.97289786  1
  O  O25  1  0.14557667  0.45208868  0.97162308  1
  O  O26  1  0.29516739  0.86192055  0.97736676  1
  O  O27  1  0.56569454  0.86290961  0.47855507  1
  O  O28  1  0.30124178  0.44660820  0.47133270  1
  O  O29  1  0.13888518  0.68388312  0.47283444  1
  O  O30  1  0.12649126  0.64572299  0.36221067  1
  O  O31  1  0.52120228  0.88909090  0.35821994  1
  O  O32  1  0.34168878  0.47615850  0.36101327  1
  O  O33  1  0.12956015  0.47279126  0.86049159  1
  O  O34  1  0.37106804  0.89878105  0.85680728  1
  O  O35  1  0.52040401  0.63871772  0.86171453  1
  O  O36  1  0.02550183  0.82237946  0.41214916  1
  O  O37  1  0.83191404  0.99471152  0.41055551  1
  O  O38  1  0.17548071  0.19878510  0.41098159  1
  O  O39  1  0.02171766  0.19990339  0.91415631  1
  O  O40  1  0.15904871  0.99341659  0.90953699  1
  O  O41  1  0.79364534  0.81992932  0.91537560  1
  O  O42  1  -0.00025164  0.18882134  0.58981823  1
  O  O43  1  0.19532275  0.02601708  0.59200460  1
  O  O44  1  0.83934933  0.81517230  0.58449974  1
  O  O45  1  0.97466907  0.81497024  0.08463546  1
  O  O46  1  0.83079357  0.02620900  0.09238468  1
  O  O47  1  0.18870986  0.18905708  0.08953573  1
  O  O48  1  0.68007878  0.17164487  0.74599545  1
  O  O49  1  0.47057190  0.31802562  0.74521555  1
  O  O50  1  0.84196141  0.53024292  0.74319896  1
  O  O51  1  0.69052427  0.53411952  0.24488382  1
  O  O52  1  0.84973445  0.31646528  0.24676267  1
  O  O53  1  0.49424903  0.17228817  0.24524708  1
  O  O54  1  0.64606319  0.51250006  0.91884477  1
  O  O55  1  0.87302007  0.35900855  0.91739439  1
  O  O56  1  0.50704754  0.16651101  0.92410661  1
  O  O57  1  0.65646929  0.16587851  0.42367997  1
  O  O58  1  0.48315809  0.35854105  0.41691396  1
  O  O59  1  0.86854355  0.51521306  0.41679632  1
  O  O60  1  0.36037031  0.49443342  0.07966734  1
  O  O61  1  0.14878991  0.64299958  0.08212077  1
  O  O62  1  0.52437480  0.85975454  0.08090388  1
  O  O63  1  0.33512400  0.85979384  0.58115070  1
  O  O64  1  0.49318936  0.64162477  0.58164868  1
  O  O65  1  0.13394279  0.49423606  0.57979732  1
  O  O66  1  0.31516614  0.82698185  0.25215954  1
  O  O67  1  0.52623571  0.67400911  0.25570472  1
  O  O68  1  0.15803093  0.46332922  0.25538500  1
  O  O69  1  0.30646434  0.46251686  0.75256071  1
  O  O70  1  0.14749797  0.67295213  0.75283398  1
  O  O71  1  0.51403969  0.82656694  0.75174199  1
loop_
_geom_bond_atom_site_label_1
_geom_bond_atom_site_label_2
_geom_bond_distance
_geom_bond_site_symmetry_2
Na0 O53 2.377554 1_565
Na0 O66 2.392691 1_555
Na0 O31 2.420646 1_555
Na0 O52 2.623635 1_565
Na0 O67 2.646166 1_555
Na0 O16 2.826935 1_565
Na1 O53 2.425579 1_555
Na1 O68 2.573811 1_555
Na1 O67 2.620426 1_555
Na1 O51 2.631000 1_555
Na1 O17 2.698644 1_555
Na1 O32 2.718164 1_555
Na1 O0 2.773493 1_555
Na2 O66 2.425034 1_555
Na2 O15 2.453938 1_455
Na2 O51 2.576277 1_455
Na2 O52 2.652567 1_455
Na2 O68 2.669796 1_555
Na2 O11 2.801967 1_555
Na2 O30 2.928825 1_555
Na3 O71 2.420837 1_555
Na3 O14 2.478491 1_555
Na3 O50 2.580327 1_555
Na3 O49 2.610627 1_555
Na3 O69 2.635855 1_555
Na3 O6 2.824692 1_555
Na3 O35 2.900366 1_555
Na4 O48 2.452203 1_555
Na4 O69 2.545171 1_655
Na4 O70 2.564403 1_655
Na4 O50 2.607958 1_555
Na4 O33 2.640087 1_655
Na4 O12 2.716684 1_555
Na4 O5 2.818579 1_555
Na5 O34 2.385311 1_555
Na5 O48 2.397051 1_565
Na5 O71 2.423752 1_555
Na5 O49 2.628851 1_565
Na5 O70 2.648395 1_555
Na5 O13 2.800681 1_565
Na6 O64 2.363965 1_555
Na6 O42 2.511750 1_555
Na6 O43 2.555462 1_555
Na6 O65 2.637495 1_555
Na6 O7 2.694958 1_555
Na6 O28 2.728347 1_555
Na6 O14 2.831706 1_555
Na6 O21 2.956130 1_555
Na7 O44 2.400617 1_455
Na7 O63 2.503600 1_555
Na7 O65 2.514572 1_555
Na7 O29 2.602925 1_555
Na7 O43 2.652437 1_565
Na7 O8 2.765363 1_555
Na7 O22 2.859057 1_455
Na8 O44 2.428935 1_555
Na8 O64 2.440779 1_555
Na8 O27 2.474106 1_555
Na8 O6 2.555634 1_555
Na8 O63 2.712786 1_555
Na8 O42 2.717426 1_665
Na9 O45 2.431575 1_455
Na9 O61 2.436315 1_555
Na9 O11 2.522159 1_555
Na9 O26 2.523199 1_554
Na9 O47 2.715070 1_565
Na9 O62 2.722249 1_555
Na10 O45 2.391732 1_555
Na10 O62 2.507628 1_555
Na10 O60 2.507767 1_555
Na10 O24 2.608514 1_554
Na10 O46 2.657743 1_565
Na10 O9 2.753636 1_555
Na10 O19 2.867495 1_555
Na11 O61 2.372554 1_555
Na11 O47 2.507382 1_555
Na11 O46 2.557213 1_455
Na11 O60 2.633208 1_555
Na11 O10 2.684412 1_555
Na11 O25 2.727214 1_554
Na11 O15 2.854273 1_455
Na11 O20 2.950293 1_455
Na12 O19 2.456624 1_556
Na12 O40 2.542831 1_655
Na12 O55 2.575827 1_555
Na12 O41 2.599388 1_555
Na12 O54 2.622502 1_555
Na12 O26 2.751808 1_655
Na12 O4 2.819142 1_555
Na13 O5 2.421258 1_555
Na13 O56 2.527859 1_555
Na13 O41 2.571837 1_545
Na13 O55 2.595671 1_555
Na13 O39 2.635086 1_655
Na13 O34 2.746017 1_545
Na13 O20 2.792557 1_556
Na14 O40 2.383585 1_545
Na14 O56 2.388673 1_555
Na14 O39 2.526448 1_555
Na14 O54 2.540845 1_555
Na14 O18 2.624257 1_556
Na14 O3 2.629646 1_555
Na15 O37 2.366611 1_545
Na15 O57 2.381287 1_555
Na15 O59 2.538800 1_555
Na15 O38 2.540929 1_655
Na15 O23 2.594859 1_555
Na15 O2 2.703281 1_555
Na16 O0 2.429053 1_555
Na16 O57 2.478359 1_555
Na16 O36 2.583333 1_545
Na16 O58 2.617990 1_555
Na16 O38 2.689147 1_555
Na16 O31 2.713737 1_545
Na16 O21 2.821560 1_555
Na17 O22 2.434356 1_555
Na17 O37 2.548858 1_555
Na17 O58 2.584773 1_555
Na17 O36 2.616868 1_655
Na17 O59 2.644431 1_555
Na17 O27 2.764574 1_555
Na17 O1 2.874721 1_555
Na18 O44 2.358697 1_555
Na18 O37 2.374492 1_555
Na18 O36 2.611526 1_655
Na18 O42 2.641273 1_665
Na18 O38 2.739508 1_665
Na18 O43 2.746374 1_665
Na19 O45 2.376853 1_456
Na19 O40 2.384546 1_555
Na19 O41 2.547507 1_455
Na19 O47 2.647627 1_566
Na19 O39 2.676053 1_565
Na19 O46 2.764435 1_466
Na20 O48 2.386654 1_555
Na20 O56 2.408021 1_555
Na20 O55 2.542320 1_555
Na20 O49 2.622206 1_555
Na20 O54 2.646909 1_555
Na20 O50 2.751597 1_555
Na21 O53 2.375094 1_555
Na21 O57 2.388381 1_555
Na21 O58 2.561453 1_555
Na21 O52 2.630582 1_555
Na21 O59 2.633126 1_555
Na21 O51 2.744283 1_555
Na22 O61 2.333631 1_555
Na22 O66 2.337203 1_555
Na22 O62 2.594294 1_555
Na22 O68 2.661693 1_555
Na22 O60 2.678640 1_555
Na22 O67 2.730192 1_555
Na23 O71 2.339955 1_555
Na23 O64 2.360128 1_555
Na23 O63 2.598931 1_555
Na23 O69 2.602213 1_555
Na23 O65 2.654244 1_555
Na23 O70 2.684456 1_555
Mg0 O0 1.985493 1_555
Mg0 O37 2.068562 1_445
Mg0 O2 2.098469 1_455
Mg0 O1 2.111604 1_445
Mg0 O38 2.164832 1_555
Mg0 O36 2.239036 1_545
Mg1 O6 1.915914 1_555
Mg1 O44 2.033195 1_555
Mg1 O8 2.110877 1_655
Mg1 O7 2.185076 1_665
Mg1 O43 2.208236 1_665
Mg1 O42 2.232638 1_665
Mg2 O11 1.912725 1_555
Mg2 O45 2.033285 1_455
Mg2 O9 2.138807 1_455
Mg2 O46 2.195319 1_465
Mg2 O10 2.216635 1_565
Mg2 O47 2.240675 1_565
Mg3 O14 1.968450 1_555
Mg3 O48 2.070400 1_555
Mg3 O13 2.081809 1_555
Mg3 O12 2.124654 1_555
Mg3 O50 2.168153 1_555
Mg3 O49 2.205503 1_555
Mg4 O15 1.970015 1_555
Mg4 O53 2.051049 1_555
Mg4 O16 2.089188 1_555
Mg4 O17 2.121186 1_555
Mg4 O51 2.217659 1_555
Mg4 O52 2.231637 1_555
Mg5 O31 1.938919 1_555
Mg5 O66 2.005620 1_555
Mg5 O30 2.053990 1_555
Mg5 O32 2.184903 1_555
Mg5 O67 2.231701 1_555
Mg5 O68 2.340194 1_555
O0 Si0 1.644439 1_555
O1 S0 1.489848 1_555
O2 S1 1.489290 1_655
O3 S2 1.490732 1_555
O3 Zn0 2.125125 1_455
O4 S3 1.487727 1_555
O4 Zn0 2.148434 1_565
O5 Si1 1.656429 1_555
O5 Zn0 1.950727 1_555
O6 Si1 1.623271 1_565
O7 S2 1.486829 1_555
O8 S3 1.489238 1_455
O9 S0 1.488277 1_555
O10 S1 1.485254 1_555
O11 Si0 1.630582 1_565
O12 S4 1.490253 1_555
O13 S5 1.490413 1_555
O14 Si2 1.630435 1_555
O15 Si3 1.632375 1_555
O16 S6 1.486011 1_555
O17 S7 1.487016 1_555
O18 S7 1.489244 1_555
O18 Zn1 2.149438 1_554
O19 Si3 1.651854 1_555
O19 Zn1 1.923945 1_554
O20 S6 1.486357 1_555
O20 Zn1 2.174667 1_554
O21 S5 1.483536 1_555
O21 Zn2 2.177034 1_555
O22 Si2 1.655876 1_555
O22 Zn2 1.929172 1_555
O23 S4 1.487288 1_555
O23 Zn2 2.143615 1_555
O24 S8 1.490715 1_555
O24 Zn3 2.304521 1_556
O25 S9 1.497717 1_555
O25 Zn3 2.054580 1_556
O26 Si4 1.632315 1_555
O26 Zn3 1.901306 1_556
O27 Si5 1.639336 1_555
O27 Zn4 1.895402 1_555
O28 S10 1.496825 1_555
O28 Zn4 2.082687 1_555
O29 S11 1.490521 1_555
O29 Zn4 2.319735 1_555
O30 S11 1.488483 1_555
O31 Si5 1.626897 1_555
O32 S10 1.488826 1_555
O33 S9 1.489654 1_555
O33 Zn5 2.295729 1_555
O34 Si4 1.632301 1_555
O34 Zn5 1.905007 1_555
O35 S8 1.495424 1_555
O35 Zn5 2.044894 1_555
O36 S11 1.502884 1_555
O37 Si5 1.655873 1_555
O38 S10 1.490893 1_555
O39 S9 1.492172 1_555
O39 Zn0 2.271789 1_455
O40 Si4 1.663944 1_555
O40 Zn0 2.046085 1_465
O41 S8 1.497563 1_555
O41 Zn0 2.357147 1_565
O42 S4 1.495643 1_455
O43 S5 1.500543 1_555
O44 Si2 1.660111 1_555
O45 Si3 1.660289 1_555
O46 S6 1.500634 1_555
O47 S7 1.496840 1_555
O48 Si1 1.663365 1_555
O49 S2 1.496265 1_555
O50 S3 1.496395 1_555
O51 S0 1.494494 1_555
O52 S1 1.493963 1_655
O53 Si0 1.672624 1_555
O54 S8 1.488252 1_555
O54 Zn1 2.314450 1_555
O55 S9 1.492352 1_655
O55 Zn1 2.377399 1_555
O56 Si4 1.667379 1_545
O56 Zn1 2.002637 1_555
O57 Si5 1.679415 1_545
O57 Zn2 2.003724 1_555
O58 S10 1.488780 1_555
O58 Zn2 2.382342 1_555
O59 S11 1.488787 1_655
O59 Zn2 2.365025 1_555
O60 S7 1.494371 1_555
O60 Zn3 2.467850 1_555
O61 Si3 1.676851 1_455
O61 Zn3 2.003960 1_555
O62 S6 1.493844 1_565
O62 Zn3 2.358125 1_555
O63 S5 1.492941 1_565
O63 Zn4 2.380070 1_555
O64 Si2 1.676800 1_555
O64 Zn4 2.001124 1_555
O65 S4 1.493991 1_455
O65 Zn4 2.476046 1_555
O66 Si0 1.665767 1_565
O67 S0 1.492718 1_555
O68 S1 1.496725 1_555
O69 S2 1.492149 1_555
O69 Zn5 2.493555 1_555
O70 S3 1.493206 1_455
O70 Zn5 2.341938 1_555
O71 Si1 1.673591 1_565
O71 Zn5 1.996114 1_555
