# generated using pymatgen
data_KBi(WO4)2
_symmetry_space_group_name_H-M   'P 1'
_cell_length_a   7.78853177
_cell_length_b   7.78853177
_cell_length_c   7.53203175
_cell_angle_alpha   62.27824372
_cell_angle_beta   62.27824372
_cell_angle_gamma   88.89375133
_symmetry_Int_Tables_number   1
_chemical_formula_structural   KBi(WO4)2
_chemical_formula_sum   'K2 Bi2 W4 O16'
_cell_volume   346.52392806
_cell_formula_units_Z   2
loop_
 _symmetry_equiv_pos_site_id
 _symmetry_equiv_pos_as_xyz
  1  'x, y, z'
loop_
 _atom_site_type_symbol
 _atom_site_label
 _atom_site_symmetry_multiplicity
 _atom_site_fract_x
 _atom_site_fract_y
 _atom_site_fract_z
 _atom_site_occupancy
  K  K0  1  0.71332400  0.28667600  0.25000000  1
  K  K1  1  0.28667600  0.71332400  0.75000000  1
  Bi  Bi0  1  0.71973700  0.28026300  0.75000000  1
  Bi  Bi1  1  0.28026300  0.71973700  0.25000000  1
  W  W0  1  0.18976500  0.19896600  0.78596100  1
  W  W1  1  0.19896600  0.18976500  0.28596100  1
  W  W2  1  0.80103400  0.81023500  0.71403900  1
  W  W3  1  0.81023500  0.80103400  0.21403900  1
  O  O0  1  0.45664800  0.27300200  0.68386300  1
  O  O1  1  0.72699800  0.54335200  0.81613700  1
  O  O2  1  0.54335200  0.72699800  0.31613700  1
  O  O3  1  0.27300200  0.45664800  0.18386300  1
  O  O4  1  0.13425800  0.44016600  0.63366700  1
  O  O5  1  0.55983400  0.86574200  0.86633300  1
  O  O6  1  0.86574200  0.55983400  0.36633300  1
  O  O7  1  0.44016600  0.13425800  0.13366700  1
  O  O8  1  0.13002300  0.24598600  0.05712300  1
  O  O9  1  0.75401400  0.86997700  0.44287700  1
  O  O10  1  0.86997700  0.75401400  0.94287700  1
  O  O11  1  0.24598600  0.13002300  0.55712300  1
  O  O12  1  0.09231700  0.87559400  0.47189400  1
  O  O13  1  0.12440600  0.90768300  0.02810600  1
  O  O14  1  0.90768300  0.12440600  0.52810600  1
  O  O15  1  0.87559400  0.09231700  0.97189400  1
loop_
_geom_bond_atom_site_label_1
_geom_bond_atom_site_label_2
_geom_bond_distance
_geom_bond_site_symmetry_2
K0 O1 2.879817 1_554
K0 O0 2.879817 1_555
K0 O15 2.947843 1_554
K0 O14 2.947843 1_555
K0 O9 2.957386 1_545
K0 O8 2.957386 1_655
K0 O7 3.082670 1_555
K0 O6 3.082670 1_555
K0 O11 3.130586 1_555
K0 O10 3.130586 1_554
K1 O2 2.879817 1_555
K1 O3 2.879817 1_556
K1 O12 2.947843 1_555
K1 O13 2.947843 1_556
K1 O10 2.957386 1_455
K1 O11 2.957386 1_565
K1 O4 3.082670 1_555
K1 O5 3.082670 1_555
K1 O8 3.130586 1_556
K1 O9 3.130586 1_555
Bi0 O0 2.330322 1_555
Bi0 O1 2.330322 1_555
Bi0 O7 2.359973 1_556
Bi0 O6 2.359973 1_555
Bi0 O14 2.439751 1_555
Bi0 O15 2.439751 1_555
Bi1 O3 2.330322 1_555
Bi1 O2 2.330322 1_555
Bi1 O4 2.359973 1_555
Bi1 O5 2.359973 1_554
Bi1 O12 2.439751 1_555
Bi1 O13 2.439751 1_555
O0 W0 1.841505 1_555
O1 W2 1.841505 1_555
O2 W3 1.841505 1_555
O3 W1 1.841505 1_555
O4 W0 1.859299 1_555
O5 W2 1.859299 1_555
O6 W3 1.859299 1_555
O7 W1 1.859299 1_555
O8 W1 1.897559 1_555
O8 W0 2.080184 1_554
O9 W3 1.897559 1_555
O9 W2 2.080184 1_555
O10 W2 1.897559 1_555
O10 W3 2.080184 1_556
O11 W0 1.897559 1_555
O11 W1 2.080184 1_555
O12 W2 2.015857 1_455
O12 W1 2.108736 1_565
O13 W0 2.015857 1_564
O13 W3 2.108736 1_455
O14 W1 2.015857 1_655
O14 W2 2.108736 1_545
O15 W3 2.015857 1_546
O15 W0 2.108736 1_655
