# generated using pymatgen
data_NaHfGaSi(SO6)2
_symmetry_space_group_name_H-M   'P 1'
_cell_length_a   8.73109890
_cell_length_b   8.78750803
_cell_length_c   22.93636215
_cell_angle_alpha   89.03446757
_cell_angle_beta   90.00000000
_cell_angle_gamma   119.78787943
_symmetry_Int_Tables_number   1
_chemical_formula_structural   NaHfGaSi(SO6)2
_chemical_formula_sum   'Na6 Hf6 Ga6 Si6 S12 O72'
_cell_volume   1526.97617175
_cell_formula_units_Z   6
loop_
 _symmetry_equiv_pos_site_id
 _symmetry_equiv_pos_as_xyz
  1  'x, y, z'
loop_
 _atom_site_type_symbol
 _atom_site_label
 _atom_site_symmetry_multiplicity
 _atom_site_fract_x
 _atom_site_fract_y
 _atom_site_fract_z
 _atom_site_occupancy
  Na  Na0  1  0.01474477  0.01041829  0.50396023  1
  Na  Na1  1  0.99567351  0.01041829  0.00396023  1
  Na  Na2  1  0.67791352  0.32987505  0.83651342  1
  Na  Na3  1  0.65196253  0.32987505  0.33651342  1
  Na  Na4  1  0.34024302  0.68200552  0.17004761  1
  Na  Na5  1  0.34176150  0.68200552  0.67004761  1
  Hf  Hf0  1  0.01674312  0.01140448  0.35484031  1
  Hf  Hf1  1  0.99466136  0.01140448  0.85484031  1
  Hf  Hf2  1  0.65952012  0.31440628  0.68706371  1
  Hf  Hf3  1  0.65488717  0.31440628  0.18706371  1
  Hf  Hf4  1  0.33394293  0.66555798  0.02054762  1
  Hf  Hf5  1  0.33161405  0.66555798  0.52054762  1
  Ga  Ga0  1  0.99670036  0.99501802  0.64956529  1
  Ga  Ga1  1  0.99831765  0.99501802  0.14956529  1
  Ga  Ga2  1  0.69562997  0.32450049  0.98141787  1
  Ga  Ga3  1  0.62887151  0.32450049  0.48141787  1
  Ga  Ga4  1  0.33885575  0.67131277  0.31461882  1
  Ga  Ga5  1  0.33245602  0.67131277  0.81461882  1
  Si  Si0  1  0.28210501  0.98416520  0.24827093  1
  Si  Si1  1  0.70206019  0.98416520  0.74827093  1
  Si  Si2  1  0.36168951  0.03880378  0.58442891  1
  Si  Si3  1  0.67711528  0.03880378  0.08442891  1
  Si  Si4  1  0.04663568  0.38775735  0.91482629  1
  Si  Si5  1  0.34112067  0.38775735  0.41482629  1
  S  S0  1  0.70898480  0.71183420  0.24984814  1
  S  S1  1  0.00608266  0.29427200  0.24881994  1
  S  S2  1  0.28818934  0.29427200  0.74881994  1
  S  S3  1  0.00284939  0.71183420  0.74984814  1
  S  S4  1  0.95069209  0.32838548  0.58114282  1
  S  S5  1  0.67317326  0.62532075  0.58240028  1
  S  S6  1  0.95214849  0.62532075  0.08240028  1
  S  S7  1  0.37769439  0.32838548  0.08114282  1
  S  S8  1  0.62132286  0.65700387  0.91663178  1
  S  S9  1  0.33900561  0.96174821  0.91569397  1
  S  S10  1  0.62274160  0.96174821  0.41569397  1
  S  S11  1  0.03568001  0.65700387  0.41663178  1
  O  O0  1  0.19703453  0.02182557  0.30588581  1
  O  O1  1  0.81529630  0.79288332  0.30261977  1
  O  O2  1  0.96849187  0.18080878  0.30233029  1
  O  O3  1  0.21231690  0.18080878  0.80233029  1
  O  O4  1  0.97758702  0.79288332  0.80261977  1
  O  O5  1  0.82479103  0.02182557  0.80588581  1
  O  O6  1  0.79967208  0.96381980  0.69065806  1
  O  O7  1  0.18316531  0.21229348  0.69679860  1
  O  O8  1  0.03259875  0.81979821  0.69636563  1
  O  O9  1  0.78719945  0.81979821  0.19636563  1
  O  O10  1  0.02912817  0.21229348  0.19679860  1
  O  O11  1  0.16414772  0.96381980  0.19065806  1
  O  O12  1  0.87396739  0.36089019  0.63484857  1
  O  O13  1  0.48979273  0.13015444  0.64057087  1
  O  O14  1  0.64462271  0.51752160  0.63592359  1
  O  O15  1  0.87289988  0.51752160  0.13592359  1
  O  O16  1  0.64036272  0.13015444  0.14057087  1
  O  O17  1  0.48692380  0.36089019  0.13484857  1
  O  O18  1  0.46449803  0.31054959  0.02884688  1
  O  O19  1  0.84482273  0.54625707  0.02976805  1
  O  O20  1  0.70499909  0.15882706  0.02610781  1
  O  O21  1  0.45382898  0.15882706  0.52610781  1
  O  O22  1  0.70143534  0.54625707  0.52976805  1
  O  O23  1  0.84605256  0.31054959  0.52884688  1
  O  O24  1  0.54490630  0.69524871  0.96902357  1
  O  O25  1  0.16325665  0.47176436  0.97320651  1
  O  O26  1  0.31120316  0.85115452  0.96911252  1
  O  O27  1  0.53995036  0.85115452  0.46911252  1
  O  O28  1  0.30850670  0.47176436  0.47320651  1
  O  O29  1  0.15034141  0.69524871  0.46902357  1
  O  O30  1  0.11833297  0.63701529  0.36387118  1
  O  O31  1  0.51460178  0.88551189  0.36352324  1
  O  O32  1  0.36382729  0.50621075  0.35667199  1
  O  O33  1  0.14238246  0.50621075  0.85667199  1
  O  O34  1  0.37090910  0.88551189  0.86352324  1
  O  O35  1  0.51868131  0.63701529  0.86387118  1
  O  O36  1  0.01214262  0.81524677  0.41080632  1
  O  O37  1  0.79677180  0.97004989  0.40998229  1
  O  O38  1  0.16434346  0.18998422  0.41049968  1
  O  O39  1  0.02564075  0.18998422  0.91049968  1
  O  O40  1  0.17327809  0.97004989  0.90998229  1
  O  O41  1  0.80310415  0.81524677  0.91080632  1
  O  O42  1  0.97101456  0.17306668  0.58877541  1
  O  O43  1  0.16793513  0.02178898  0.59442204  1
  O  O44  1  0.82681421  0.80244422  0.58743215  1
  O  O45  1  0.97563001  0.80244422  0.08743215  1
  O  O46  1  0.85385384  0.02178898  0.09442204  1
  O  O47  1  0.20205213  0.17306668  0.08877541  1
  O  O48  1  0.68886451  0.16500287  0.74421849  1
  O  O49  1  0.46982312  0.31643381  0.74372757  1
  O  O50  1  0.84081536  0.53652108  0.74363369  1
  O  O51  1  0.69570671  0.53652108  0.24363369  1
  O  O52  1  0.84661169  0.31643381  0.24372757  1
  O  O53  1  0.47613936  0.16500287  0.24421849  1
  O  O54  1  0.63586288  0.49889486  0.92625562  1
  O  O55  1  0.84902881  0.36657346  0.91975823  1
  O  O56  1  0.49031843  0.14010270  0.92309449  1
  O  O57  1  0.64978527  0.14010270  0.42309449  1
  O  O58  1  0.51754565  0.36657346  0.41975823  1
  O  O59  1  0.86303298  0.49889486  0.42625562  1
  O  O60  1  0.35891600  0.48894617  0.07691168  1
  O  O61  1  0.13078785  0.64038777  0.07673232  1
  O  O62  1  0.49992068  0.84648356  0.07693807  1
  O  O63  1  0.34656188  0.84648356  0.57693807  1
  O  O64  1  0.50959892  0.64038777  0.57673232  1
  O  O65  1  0.13002917  0.48894617  0.57691168  1
  O  O66  1  0.30856377  0.81397139  0.25921156  1
  O  O67  1  0.52995268  0.69016716  0.25523999  1
  O  O68  1  0.16266741  0.46761006  0.25558950  1
  O  O69  1  0.30494165  0.46761006  0.75558950  1
  O  O70  1  0.16021348  0.69016716  0.75523999  1
  O  O71  1  0.50540662  0.81397139  0.75921156  1
loop_
_geom_bond_atom_site_label_1
_geom_bond_atom_site_label_2
_geom_bond_distance
_geom_bond_site_symmetry_2
Na0 O43 2.445037 1_555
Na0 O44 2.569129 1_445
Na0 O42 2.570781 1_455
Na0 O38 2.574752 1_555
Na0 O36 2.755336 1_545
Na0 O37 2.783705 1_445
Na1 O46 2.445037 1_555
Na1 O45 2.569129 1_545
Na1 O47 2.570781 1_655
Na1 O39 2.574752 1_654
Na1 O41 2.755336 1_544
Na1 O40 2.783705 1_644
Na2 O55 2.350255 1_555
Na2 O56 2.565512 1_555
Na2 O48 2.613526 1_555
Na2 O50 2.676225 1_555
Na2 O54 2.687470 1_555
Na2 O49 2.763925 1_555
Na3 O58 2.350255 1_555
Na3 O57 2.565512 1_555
Na3 O53 2.613526 1_555
Na3 O51 2.676225 1_555
Na3 O59 2.687470 1_555
Na3 O52 2.763925 1_555
Na4 O66 2.449967 1_555
Na4 O67 2.540381 1_555
Na4 O62 2.547027 1_555
Na4 O68 2.603071 1_555
Na4 O61 2.724145 1_555
Na4 O60 2.804466 1_555
Na5 O71 2.449967 1_555
Na5 O70 2.540381 1_555
Na5 O63 2.547027 1_555
Na5 O69 2.603071 1_555
Na5 O64 2.724145 1_555
Na5 O65 2.804466 1_555
Hf0 O0 1.897467 1_555
Hf0 O38 1.952260 1_555
Hf0 O2 2.099234 1_455
Hf0 O36 2.115962 1_545
Hf0 O37 2.170572 1_445
Hf0 O1 2.222003 1_445
Hf1 O5 1.897467 1_555
Hf1 O39 1.952260 1_655
Hf1 O3 2.099234 1_655
Hf1 O41 2.115962 1_545
Hf1 O40 2.170572 1_645
Hf1 O4 2.222003 1_545
Hf2 O13 1.904981 1_555
Hf2 O48 1.945259 1_555
Hf2 O12 2.080985 1_555
Hf2 O49 2.112522 1_555
Hf2 O14 2.176849 1_555
Hf2 O50 2.239285 1_555
Hf3 O16 1.904981 1_555
Hf3 O53 1.945259 1_555
Hf3 O17 2.080985 1_555
Hf3 O52 2.112522 1_555
Hf3 O15 2.176849 1_555
Hf3 O51 2.239285 1_555
Hf4 O25 1.959788 1_554
Hf4 O62 2.020091 1_555
Hf4 O26 2.085189 1_554
Hf4 O24 2.090342 1_554
Hf4 O60 2.096683 1_555
Hf4 O61 2.111027 1_555
Hf5 O28 1.959788 1_555
Hf5 O63 2.020091 1_555
Hf5 O27 2.085189 1_555
Hf5 O29 2.090342 1_555
Hf5 O65 2.096683 1_555
Hf5 O64 2.111027 1_555
Ga0 O6 1.856217 1_555
Ga0 O43 1.879034 1_665
Ga0 O8 2.011247 1_655
Ga0 O7 2.109712 1_665
Ga0 O44 2.163811 1_555
Ga0 O42 2.171972 1_565
Ga1 O11 1.856217 1_655
Ga1 O46 1.879034 1_565
Ga1 O9 2.011247 1_555
Ga1 O10 2.109712 1_665
Ga1 O45 2.163811 1_555
Ga1 O47 2.171972 1_665
Ga2 O20 1.801367 1_556
Ga2 O55 1.849595 1_555
Ga2 O19 2.067549 1_556
Ga2 O56 2.194443 1_555
Ga2 O54 2.225051 1_555
Ga2 O18 2.240671 1_556
Ga3 O21 1.801366 1_555
Ga3 O58 1.849595 1_555
Ga3 O22 2.067549 1_555
Ga3 O57 2.194443 1_555
Ga3 O59 2.225051 1_555
Ga3 O23 2.240671 1_555
Ga4 O32 1.830285 1_555
Ga4 O66 1.879434 1_555
Ga4 O31 2.087375 1_555
Ga4 O67 2.093775 1_555
Ga4 O30 2.118049 1_555
Ga4 O68 2.179326 1_555
Ga5 O33 1.830285 1_555
Ga5 O71 1.879434 1_555
Ga5 O34 2.087375 1_555
Ga5 O70 2.093775 1_555
Ga5 O35 2.118049 1_555
Ga5 O69 2.179326 1_555
O0 Si0 1.632936 1_545
O1 S0 1.485290 1_555
O2 S1 1.497267 1_655
O3 S2 1.497267 1_555
O4 S3 1.485290 1_655
O5 Si1 1.632936 1_545
O6 Si1 1.632128 1_555
O7 S2 1.468371 1_555
O8 S3 1.479282 1_555
O9 S0 1.479282 1_555
O10 S1 1.468371 1_555
O11 Si0 1.632128 1_555
O12 S4 1.499894 1_555
O13 Si2 1.642041 1_555
O14 S5 1.480794 1_555
O15 S6 1.480794 1_555
O16 Si3 1.642041 1_555
O17 S7 1.499894 1_555
O18 S7 1.470399 1_555
O19 S6 1.483077 1_555
O20 Si3 1.630451 1_555
O21 Si2 1.630451 1_555
O22 S5 1.483077 1_555
O23 S4 1.470399 1_555
O24 S8 1.496173 1_555
O25 Si4 1.631324 1_555
O26 S9 1.493338 1_555
O27 S10 1.493338 1_555
O28 Si5 1.631324 1_555
O29 S11 1.496173 1_555
O30 S11 1.466005 1_555
O31 S10 1.473326 1_555
O32 Si5 1.627918 1_555
O33 Si4 1.627918 1_555
O34 S9 1.473326 1_555
O35 S8 1.466005 1_555
O36 S11 1.507123 1_555
O37 S10 1.490245 1_555
O38 Si5 1.659255 1_555
O39 Si4 1.659259 1_555
O40 S9 1.490236 1_555
O41 S8 1.507128 1_555
O42 S4 1.468863 1_555
O43 Si2 1.638363 1_555
O44 S5 1.472056 1_555
O45 S6 1.472060 1_555
O46 Si3 1.638354 1_555
O47 S7 1.468868 1_555
O48 Si1 1.650492 1_545
O49 S2 1.502965 1_555
O50 S3 1.495672 1_655
O51 S0 1.495675 1_555
O52 S1 1.502956 1_655
O53 Si0 1.650497 1_545
O54 S8 1.469743 1_555
O55 Si4 1.644498 1_655
O56 S9 1.477247 1_545
O57 S10 1.477240 1_545
O58 Si5 1.644515 1_555
O59 S11 1.469733 1_655
O60 S7 1.500749 1_555
O61 S6 1.503791 1_455
O62 Si3 1.640470 1_565
O63 Si2 1.640463 1_565
O64 S5 1.503808 1_555
O65 S4 1.500739 1_455
O66 Si0 1.638209 1_555
O67 S0 1.482724 1_555
O68 S1 1.467060 1_555
O69 S2 1.467064 1_555
O70 S3 1.482715 1_555
O71 Si1 1.638214 1_555
