# generated using pymatgen
data_Na5Al2SiSn2P5O24
_symmetry_space_group_name_H-M   'P 1'
_cell_length_a   8.73634353
_cell_length_b   8.72009906
_cell_length_c   22.05820091
_cell_angle_alpha   90.10410561
_cell_angle_beta   89.75956476
_cell_angle_gamma   119.83103706
_symmetry_Int_Tables_number   1
_chemical_formula_structural   Na5Al2SiSn2P5O24
_chemical_formula_sum   'Na15 Al6 Si3 Sn6 P15 O72'
_cell_volume   1457.75622032
_cell_formula_units_Z   3
loop_
 _symmetry_equiv_pos_site_id
 _symmetry_equiv_pos_as_xyz
  1  'x, y, z'
loop_
 _atom_site_type_symbol
 _atom_site_label
 _atom_site_symmetry_multiplicity
 _atom_site_fract_x
 _atom_site_fract_y
 _atom_site_fract_z
 _atom_site_occupancy
  Na  Na0  1  0.00234618  0.63555408  0.25131247  1
  Na  Na1  1  0.63314696  0.64079831  0.75202625  1
  Na  Na2  1  0.36684167  0.99763552  0.75133530  1
  Na  Na3  1  0.66246767  0.96828080  0.58427843  1
  Na  Na4  1  0.29713453  0.96714277  0.08351175  1
  Na  Na5  1  0.67232529  0.69913404  0.08286724  1
  Na  Na6  1  0.02980107  0.33371418  0.08431733  1
  Na  Na7  1  0.96870659  0.29998062  0.41538274  1
  Na  Na8  1  0.33458269  0.03321763  0.41746539  1
  Na  Na9  1  0.00245484  0.99243723  0.49884738  1
  Na  Na10  1  0.99971852  0.99756758  0.99799480  1
  Na  Na11  1  0.67539805  0.33072005  0.83820678  1
  Na  Na12  1  0.66012535  0.33524379  0.33482297  1
  Na  Na13  1  0.33873518  0.66664584  0.17178703  1
  Na  Na14  1  0.32127354  0.65811557  0.66783473  1
  Al  Al0  1  0.99551455  0.99571750  0.34987467  1
  Al  Al1  1  0.99775927  0.99462196  0.15102817  1
  Al  Al2  1  0.67205633  0.34071517  0.97749739  1
  Al  Al3  1  0.66221501  0.33741069  0.48070611  1
  Al  Al4  1  0.34050404  0.66606697  0.31407436  1
  Al  Al5  1  0.33314410  0.66656651  0.81662076  1
  Si  Si0  1  0.70180784  0.99668776  0.75131503  1
  Si  Si1  1  0.37472448  0.04560550  0.57922636  1
  Si  Si2  1  0.95363434  0.62651073  0.08211396  1
  Sn  Sn0  1  0.99853306  0.00177882  0.85456697  1
  Sn  Sn1  1  0.00393745  0.00057961  0.64670689  1
  Sn  Sn2  1  0.66914872  0.32953269  0.68426362  1
  Sn  Sn3  1  0.66541983  0.33070524  0.18776484  1
  Sn  Sn4  1  0.33002269  0.66639365  0.01402287  1
  Sn  Sn5  1  0.33161318  0.66582345  0.51652697  1
  P  P0  1  0.28490426  0.99687502  0.25194151  1
  P  P1  1  0.70885661  0.71957678  0.25131721  1
  P  P2  1  0.00728257  0.28635183  0.25133063  1
  P  P3  1  0.29001098  0.30006312  0.75153401  1
  P  P4  1  0.00545656  0.70430164  0.75190601  1
  P  P5  1  0.95650458  0.33678093  0.57914209  1
  P  P6  1  0.66707253  0.61861133  0.58062706  1
  P  P7  1  0.67090585  0.04687528  0.08137594  1
  P  P8  1  0.37598722  0.32858342  0.08174454  1
  P  P9  1  0.62255837  0.65870792  0.91524227  1
  P  P10  1  0.03843368  0.37855309  0.91503172  1
  P  P11  1  0.34172647  0.96657195  0.91490477  1
  P  P12  1  0.62884654  0.95721382  0.41318107  1
  P  P13  1  0.33620734  0.37621477  0.41280403  1
  P  P14  1  0.03610902  0.66654839  0.41288500  1
  O  O0  1  0.19765733  0.02478097  0.30815248  1
  O  O1  1  0.83459452  0.80514992  0.30486608  1
  O  O2  1  0.97779746  0.17230484  0.30774738  1
  O  O3  1  0.21742982  0.17063929  0.80543357  1
  O  O4  1  0.95988690  0.78439579  0.80664591  1
  O  O5  1  0.83094854  0.03824042  0.80781747  1
  O  O6  1  0.77790969  0.95089406  0.68897217  1
  O  O7  1  0.18058588  0.22173671  0.69362843  1
  O  O8  1  0.04861247  0.82344049  0.69480590  1
  O  O9  1  0.79235487  0.82439923  0.19170887  1
  O  O10  1  0.02737827  0.19953783  0.19236759  1
  O  O11  1  0.17224458  0.96752047  0.19365561  1
  O  O12  1  0.88589716  0.37270936  0.63869790  1
  O  O13  1  0.48873264  0.11396829  0.64250809  1
  O  O14  1  0.63708198  0.52043315  0.64219203  1
  O  O15  1  0.88638614  0.50575969  0.14450132  1
  O  O16  1  0.61851467  0.11208555  0.13929868  1
  O  O17  1  0.49102402  0.37457680  0.13967601  1
  O  O18  1  0.46174510  0.29223291  0.02721234  1
  O  O19  1  0.82098111  0.52876292  0.02660036  1
  O  O20  1  0.70155212  0.16681930  0.02692401  1
  O  O21  1  0.47306060  0.16471071  0.52056549  1
  O  O22  1  0.69445585  0.52718533  0.52687283  1
  O  O23  1  0.83917679  0.30702284  0.52365797  1
  O  O24  1  0.55181366  0.69866789  0.97535377  1
  O  O25  1  0.14402595  0.44427272  0.97616113  1
  O  O26  1  0.30058931  0.85702776  0.97513253  1
  O  O27  1  0.55937988  0.85091469  0.47377360  1
  O  O28  1  0.28690883  0.44488644  0.47125727  1
  O  O29  1  0.15715551  0.71275749  0.47006048  1
  O  O30  1  0.12521228  0.62948185  0.35826016  1
  O  O31  1  0.49659828  0.86410447  0.36186186  1
  O  O32  1  0.36327273  0.49851281  0.35972565  1
  O  O33  1  0.13757383  0.49950216  0.86222078  1
  O  O34  1  0.36264670  0.87116745  0.86000876  1
  O  O35  1  0.50736812  0.63822652  0.86037258  1
  O  O36  1  0.02166218  0.83560141  0.40518135  1
  O  O37  1  0.81714869  0.98389454  0.40510192  1
  O  O38  1  0.16947990  0.18770083  0.40617655  1
  O  O39  1  0.02368665  0.19350758  0.91279348  1
  O  O40  1  0.17193326  0.98188484  0.91125579  1
  O  O41  1  0.80882210  0.82559022  0.91288795  1
  O  O42  1  0.96262034  0.16197769  0.58462979  1
  O  O43  1  0.18025672  0.02604983  0.58408482  1
  O  O44  1  0.82959006  0.80765155  0.58429502  1
  O  O45  1  0.97758197  0.82402312  0.09228249  1
  O  O46  1  0.83740828  0.02914078  0.09090402  1
  O  O47  1  0.18877171  0.16676740  0.09135653  1
  O  O48  1  0.67731159  0.17033395  0.74813511  1
  O  O49  1  0.47900236  0.32270834  0.74521486  1
  O  O50  1  0.83142860  0.52627705  0.74477774  1
  O  O51  1  0.69594356  0.53187842  0.24730061  1
  O  O52  1  0.83883367  0.31013900  0.24839149  1
  O  O53  1  0.47126777  0.16452102  0.24718793  1
  O  O54  1  0.63517431  0.48992192  0.92270470  1
  O  O55  1  0.85506940  0.36108683  0.92300180  1
  O  O56  1  0.50813205  0.14780500  0.92388289  1
  O  O57  1  0.64722463  0.14476751  0.42076330  1
  O  O58  1  0.50108802  0.35540663  0.42147817  1
  O  O59  1  0.85587275  0.49613185  0.42356196  1
  O  O60  1  0.35695852  0.49753665  0.07669294  1
  O  O61  1  0.15360569  0.64977293  0.07808579  1
  O  O62  1  0.50766507  0.85607226  0.07636188  1
  O  O63  1  0.36252787  0.85069727  0.57724233  1
  O  O64  1  0.50210535  0.64176357  0.57678796  1
  O  O65  1  0.14376194  0.49657396  0.57612119  1
  O  O66  1  0.30150346  0.82792490  0.25842574  1
  O  O67  1  0.52408533  0.69692038  0.25902042  1
  O  O68  1  0.16815732  0.47643505  0.25736490  1
  O  O69  1  0.31144627  0.48307225  0.76094936  1
  O  O70  1  0.16901155  0.68695978  0.76075739  1
  O  O71  1  0.50738586  0.82070703  0.75954137  1
loop_
_geom_bond_atom_site_label_1
_geom_bond_atom_site_label_2
_geom_bond_distance
_geom_bond_site_symmetry_2
Na0 O66 2.304322 1_555
Na0 O51 2.363190 1_455
Na0 O68 2.458342 1_555
Na0 O52 2.462575 1_455
Na0 O15 2.593828 1_455
Na0 O30 2.607388 1_555
Na0 O1 2.804602 1_455
Na0 O11 2.814812 1_555
Na1 O71 2.325548 1_555
Na1 O50 2.396184 1_555
Na1 O49 2.411192 1_555
Na1 O69 2.445376 1_555
Na1 O35 2.621707 1_555
Na1 O14 2.645465 1_555
Na1 O6 2.728091 1_555
Na1 O4 2.763160 1_555
Na2 O48 2.358981 1_565
Na2 O70 2.389637 1_555
Na2 O71 2.410031 1_555
Na2 O49 2.500116 1_565
Na2 O13 2.615009 1_565
Na2 O34 2.632962 1_555
Na2 O3 2.709846 1_565
Na2 O8 2.722542 1_555
Na3 O63 2.295992 1_555
Na3 O42 2.307110 1_565
Na3 O44 2.475543 1_555
Na3 O64 2.475604 1_555
Na3 O6 2.558557 1_555
Na3 O27 2.625352 1_555
Na3 O13 2.731952 1_565
Na3 O23 2.890820 1_565
Na4 O47 2.365044 1_565
Na4 O61 2.406918 1_555
Na4 O45 2.432842 1_455
Na4 O62 2.472888 1_555
Na4 O26 2.580313 1_554
Na4 O11 2.659813 1_555
Na4 O16 2.736361 1_565
Na4 O18 2.754713 1_565
Na5 O45 2.335701 1_555
Na5 O60 2.425576 1_555
Na5 O62 2.433891 1_555
Na5 O46 2.502754 1_565
Na5 O24 2.597961 1_554
Na5 O9 2.632277 1_555
Na5 O19 2.708060 1_555
Na5 O17 2.761396 1_555
Na6 O46 2.336276 1_455
Na6 O61 2.412271 1_555
Na6 O47 2.467063 1_555
Na6 O60 2.484513 1_555
Na6 O25 2.578414 1_554
Na6 O10 2.652369 1_555
Na6 O15 2.726144 1_455
Na6 O20 2.795723 1_455
Na7 O59 2.367444 1_555
Na7 O37 2.402324 1_545
Na7 O38 2.404437 1_655
Na7 O57 2.439255 1_555
Na7 O2 2.638116 1_555
Na7 O23 2.652262 1_555
Na7 O28 2.715150 1_655
Na7 O30 2.793396 1_655
Na8 O57 2.402059 1_555
Na8 O36 2.415403 1_545
Na8 O38 2.427874 1_555
Na8 O58 2.439558 1_555
Na8 O21 2.565907 1_555
Na8 O0 2.680763 1_555
Na8 O29 2.691623 1_545
Na8 O31 2.781715 1_545
Na9 O43 2.367152 1_565
Na9 O44 2.448640 1_455
Na9 O36 2.526357 1_555
Na9 O42 2.526544 1_465
Na9 O38 2.592830 1_565
Na9 O37 2.609591 1_455
Na10 O41 2.466250 1_555
Na10 O40 2.474396 1_655
Na10 O39 2.479463 1_665
Na10 O45 2.523902 1_556
Na10 O46 2.578482 1_566
Na10 O47 2.595956 1_666
Na11 O55 2.375246 1_555
Na11 O48 2.432416 1_555
Na11 O56 2.433099 1_555
Na11 O54 2.448512 1_555
Na11 O50 2.586479 1_555
Na11 O49 2.658215 1_555
Na12 O58 2.415483 1_555
Na12 O57 2.487684 1_555
Na12 O51 2.497665 1_555
Na12 O53 2.499579 1_555
Na12 O59 2.521002 1_555
Na12 O52 2.536497 1_555
Na13 O67 2.448135 1_555
Na13 O68 2.462506 1_555
Na13 O66 2.485172 1_555
Na13 O61 2.588374 1_555
Na13 O60 2.611400 1_555
Na13 O62 2.626487 1_555
Na14 O65 2.514870 1_555
Na14 O70 2.518361 1_555
Na14 O63 2.519379 1_555
Na14 O69 2.536821 1_555
Na14 O71 2.543545 1_555
Na14 O64 2.597298 1_555
Al0 O1 1.845271 1_555
Al0 O2 1.871407 1_565
Al0 O0 1.889936 1_665
Al0 O37 1.935861 1_555
Al0 O36 1.953407 1_655
Al0 O38 2.032686 1_665
Al1 O9 1.889445 1_555
Al1 O10 1.904594 1_665
Al1 O11 1.906545 1_655
Al1 O45 1.912412 1_555
Al1 O46 2.061195 1_565
Al1 O47 2.065712 1_665
Al2 O19 1.854089 1_556
Al2 O54 1.919253 1_555
Al2 O55 1.932610 1_555
Al2 O56 1.972196 1_555
Al2 O20 1.987871 1_556
Al2 O18 1.992271 1_556
Al3 O21 1.813418 1_555
Al3 O22 1.840509 1_555
Al3 O23 1.943901 1_555
Al3 O58 1.987191 1_555
Al3 O59 2.006402 1_555
Al3 O57 2.088518 1_555
Al4 O32 1.866693 1_555
Al4 O31 1.901453 1_555
Al4 O67 1.917014 1_555
Al4 O30 1.994530 1_555
Al4 O68 2.024223 1_555
Al4 O66 2.025640 1_555
Al5 O33 1.888868 1_555
Al5 O71 1.914046 1_555
Al5 O35 1.922658 1_555
Al5 O34 1.924557 1_555
Al5 O69 1.948660 1_555
Al5 O70 1.968627 1_555
O0 P0 1.533976 1_545
O1 P1 1.533263 1_555
O2 P2 1.533293 1_655
O3 P3 1.541399 1_555
O3 Sn0 2.046170 1_455
O4 P4 1.540713 1_655
O4 Sn0 2.045394 1_565
O5 Si0 1.600308 1_545
O5 Sn0 1.945504 1_555
O6 Si0 1.657423 1_555
O6 Sn1 2.022623 1_665
O7 P3 1.539268 1_555
O7 Sn1 2.053586 1_555
O8 P4 1.555298 1_555
O8 Sn1 2.067182 1_565
O9 P1 1.558659 1_555
O10 P2 1.556359 1_555
O11 P0 1.563966 1_555
O12 P5 1.545454 1_555
O12 Sn2 2.003436 1_555
O13 Si1 1.647369 1_555
O13 Sn2 1.980993 1_555
O14 P6 1.556878 1_555
O14 Sn2 2.045141 1_555
O15 Si2 1.652486 1_555
O15 Sn3 2.006386 1_555
O16 P7 1.554569 1_555
O16 Sn3 2.040641 1_555
O17 P8 1.552972 1_555
O17 Sn3 2.046407 1_555
O18 P8 1.528411 1_555
O19 Si2 1.610720 1_555
O20 P7 1.526949 1_555
O21 Si1 1.612117 1_555
O22 P6 1.510860 1_555
O23 P5 1.536433 1_555
O24 P9 1.570751 1_555
O24 Sn4 2.001422 1_556
O25 P10 1.574572 1_555
O25 Sn4 1.990926 1_556
O26 P11 1.570239 1_555
O26 Sn4 1.999434 1_556
O27 P12 1.565870 1_555
O27 Sn5 2.061179 1_555
O28 P13 1.567063 1_555
O28 Sn5 2.027097 1_555
O29 P14 1.567381 1_555
O29 Sn5 2.043583 1_555
O30 P14 1.550264 1_555
O31 P12 1.532938 1_555
O32 P13 1.521634 1_555
O33 P10 1.518795 1_555
O34 P11 1.528912 1_555
O35 P9 1.529750 1_555
O36 P14 1.550531 1_555
O37 P12 1.552114 1_555
O38 P13 1.569721 1_555
O39 P10 1.554261 1_555
O39 Sn0 2.030314 1_455
O40 P11 1.556536 1_555
O40 Sn0 2.041260 1_465
O41 P9 1.553064 1_555
O41 Sn0 2.053846 1_565
O42 P5 1.556520 1_555
O42 Sn1 2.121949 1_655
O43 Si1 1.623963 1_555
O43 Sn1 1.993257 1_555
O44 P6 1.552981 1_555
O44 Sn1 2.122592 1_665
O45 Si2 1.643469 1_555
O46 P7 1.552579 1_555
O47 P8 1.553457 1_555
O48 Si0 1.632932 1_545
O48 Sn2 2.005911 1_555
O49 P3 1.567906 1_555
O49 Sn2 2.110422 1_555
O50 P4 1.548916 1_655
O50 Sn2 2.079140 1_555
O51 P1 1.585994 1_555
O51 Sn3 2.098165 1_555
O52 P2 1.586651 1_655
O52 Sn3 2.098570 1_555
O53 P0 1.558871 1_545
O53 Sn3 2.058628 1_555
O54 P9 1.538816 1_555
O55 P10 1.541198 1_655
O56 P11 1.538108 1_545
O57 P12 1.570526 1_545
O58 P13 1.551423 1_555
O59 P14 1.553503 1_655
O60 P8 1.566861 1_555
O60 Sn4 2.118806 1_555
O61 Si2 1.657501 1_455
O61 Sn4 2.038024 1_555
O62 P7 1.566632 1_565
O62 Sn4 2.119196 1_555
O63 Si1 1.649717 1_565
O63 Sn5 2.006871 1_555
O64 P6 1.554214 1_555
O64 Sn5 2.087582 1_555
O65 P5 1.534237 1_455
O65 Sn5 2.044201 1_555
O66 P0 1.557396 1_555
O67 P1 1.534328 1_555
O68 P2 1.556776 1_555
O69 P3 1.525373 1_555
O70 P4 1.523184 1_555
O71 Si0 1.636486 1_555
