# generated using pymatgen
data_Na4La2Zr2Si3(SO8)3
_symmetry_space_group_name_H-M   'P 1'
_cell_length_a   9.39551898
_cell_length_b   9.40107621
_cell_length_c   23.89450534
_cell_angle_alpha   90.18077425
_cell_angle_beta   89.66145959
_cell_angle_gamma   119.85006873
_symmetry_Int_Tables_number   1
_chemical_formula_structural   Na4La2Zr2Si3(SO8)3
_chemical_formula_sum   'Na12 La6 Zr6 Si9 S9 O72'
_cell_volume   1830.51622895
_cell_formula_units_Z   3
loop_
 _symmetry_equiv_pos_site_id
 _symmetry_equiv_pos_as_xyz
  1  'x, y, z'
loop_
 _atom_site_type_symbol
 _atom_site_label
 _atom_site_symmetry_multiplicity
 _atom_site_fract_x
 _atom_site_fract_y
 _atom_site_fract_z
 _atom_site_occupancy
  Na  Na0  1  0.98674463  0.64339135  0.25244529  1
  Na  Na1  1  0.98884505  0.34994106  0.74082056  1
  Na  Na2  1  0.65632695  0.97808258  0.59044667  1
  Na  Na3  1  0.67049366  0.69844739  0.07957329  1
  Na  Na4  1  0.33633452  0.30763829  0.90275675  1
  Na  Na5  1  0.31581793  0.01652911  0.42009898  1
  Na  Na6  1  0.01183641  0.99205112  0.50746669  1
  Na  Na7  1  0.98080175  0.97595277  0.99762716  1
  Na  Na8  1  0.64850932  0.31807639  0.82021171  1
  Na  Na9  1  0.65844413  0.34665662  0.33604966  1
  Na  Na10  1  0.32609747  0.67419785  0.17359674  1
  Na  Na11  1  0.31800682  0.66651198  0.66163165  1
  La  La0  1  0.99263798  0.99020932  0.35093758  1
  La  La1  1  0.98389355  0.98424163  0.84773126  1
  La  La2  1  0.64827296  0.32567078  0.68336674  1
  La  La3  1  0.65769534  0.32592558  0.18685836  1
  La  La4  1  0.32596854  0.67465939  0.01659267  1
  La  La5  1  0.30693376  0.65023038  0.51972419  1
  Zr  Zr0  1  0.01805652  0.02632386  0.64820251  1
  Zr  Zr1  1  0.99625986  0.97735484  0.15414873  1
  Zr  Zr2  1  0.68130563  0.35570810  0.98163453  1
  Zr  Zr3  1  0.68185833  0.33911876  0.48754123  1
  Zr  Zr4  1  0.32978959  0.67057922  0.31387165  1
  Zr  Zr5  1  0.36584579  0.67414332  0.80878001  1
  Si  Si0  1  0.29366720  0.98711642  0.25400388  1
  Si  Si1  1  0.69016486  0.70235625  0.24940907  1
  Si  Si2  1  0.29391337  0.30176994  0.75670106  1
  Si  Si3  1  0.70683704  0.99909526  0.74652015  1
  Si  Si4  1  0.95999850  0.32246085  0.58936958  1
  Si  Si5  1  0.36512259  0.04089144  0.57911180  1
  Si  Si6  1  0.96200488  0.63830454  0.08720822  1
  Si  Si7  1  0.62839650  0.66112272  0.92154865  1
  Si  Si8  1  0.02495703  0.65291649  0.41437665  1
  S  S0  1  0.01632544  0.30423050  0.24844665  1
  S  S1  1  0.01670713  0.70354505  0.74903933  1
  S  S2  1  0.68325488  0.64262116  0.58126625  1
  S  S3  1  0.68316437  0.04272684  0.08087654  1
  S  S4  1  0.36275037  0.32098539  0.07986947  1
  S  S5  1  0.02810469  0.37230113  0.91615108  1
  S  S6  1  0.34843188  0.97921186  0.91548636  1
  S  S7  1  0.61642745  0.96757693  0.41714877  1
  S  S8  1  0.34919921  0.37602304  0.41394106  1
  O  O0  1  0.22171214  0.01359944  0.31148060  1
  O  O1  1  0.81127154  0.79116055  0.30060255  1
  O  O2  1  0.99447524  0.21434382  0.30011130  1
  O  O3  1  0.21694938  0.21072230  0.81561784  1
  O  O4  1  0.99340573  0.77105715  0.80179352  1
  O  O5  1  0.80785134  0.01639754  0.80278200  1
  O  O6  1  0.80076473  0.97534890  0.69121180  1
  O  O7  1  0.16968840  0.19839829  0.70261478  1
  O  O8  1  0.03222720  0.80763224  0.70051405  1
  O  O9  1  0.78791467  0.82041696  0.19151891  1
  O  O10  1  0.02712568  0.21280491  0.19859225  1
  O  O11  1  0.16203455  0.96373352  0.20036783  1
  O  O12  1  0.88602354  0.34504677  0.64702026  1
  O  O13  1  0.47838851  0.12263474  0.63297692  1
  O  O14  1  0.65696901  0.55204079  0.63314058  1
  O  O15  1  0.87879910  0.53959615  0.14339634  1
  O  O16  1  0.65833368  0.11043607  0.13254560  1
  O  O17  1  0.46342830  0.34514398  0.12960863  1
  O  O18  1  0.44976732  0.30305206  0.02902791  1
  O  O19  1  0.83370686  0.53076102  0.03222234  1
  O  O20  1  0.68828838  0.14242248  0.03143409  1
  O  O21  1  0.46251781  0.15941531  0.52223689  1
  O  O22  1  0.69308313  0.54507197  0.53222224  1
  O  O23  1  0.83492765  0.30876819  0.53516828  1
  O  O24  1  0.54459229  0.66897764  0.97996860  1
  O  O25  1  0.12755681  0.45324959  0.96615626  1
  O  O26  1  0.32283384  0.88483732  0.96731606  1
  O  O27  1  0.55027819  0.87561054  0.46889988  1
  O  O28  1  0.33634536  0.45082307  0.46587227  1
  O  O29  1  0.14753504  0.69002737  0.46581876  1
  O  O30  1  0.12575118  0.63555156  0.35731714  1
  O  O31  1  0.50875766  0.87149600  0.36804707  1
  O  O32  1  0.35762510  0.47855909  0.36456555  1
  O  O33  1  0.10254107  0.47132761  0.86560900  1
  O  O34  1  0.35960003  0.88913679  0.86639589  1
  O  O35  1  0.50214929  0.63748536  0.86767619  1
  O  O36  1  0.01224402  0.82030524  0.41283494  1
  O  O37  1  0.78547815  0.00289687  0.40977414  1
  O  O38  1  0.20363222  0.20892229  0.41076860  1
  O  O39  1  0.01398608  0.20878391  0.91414224  1
  O  O40  1  0.20982725  0.01220314  0.91241701  1
  O  O41  1  0.81340277  0.81157434  0.91845853  1
  O  O42  1  0.95373226  0.14108409  0.58858670  1
  O  O43  1  0.18161127  0.02287004  0.58855912  1
  O  O44  1  0.83804291  0.80301820  0.58282455  1
  O  O45  1  0.96122490  0.81748500  0.08859291  1
  O  O46  1  0.83766840  0.03355227  0.08296117  1
  O  O47  1  0.19870095  0.17306305  0.08472543  1
  O  O48  1  0.69189456  0.16339755  0.74681589  1
  O  O49  1  0.48058079  0.34180242  0.75209696  1
  O  O50  1  0.87666640  0.53501294  0.74452042  1
  O  O51  1  0.68257492  0.52604954  0.24503101  1
  O  O52  1  0.87802844  0.33683133  0.24342476  1
  O  O53  1  0.47776540  0.13288306  0.24462960  1
  O  O54  1  0.62904789  0.47916530  0.92551927  1
  O  O55  1  0.85958267  0.35294683  0.92472284  1
  O  O56  1  0.50319123  0.14268074  0.92060312  1
  O  O57  1  0.61341885  0.12639631  0.41878590  1
  O  O58  1  0.49933029  0.35909238  0.41454972  1
  O  O59  1  0.84356622  0.48413391  0.42359384  1
  O  O60  1  0.35049922  0.47194058  0.07541381  1
  O  O61  1  0.14541431  0.66856552  0.08004638  1
  O  O62  1  0.54381853  0.87063621  0.07679739  1
  O  O63  1  0.36274131  0.86610891  0.57559101  1
  O  O64  1  0.54500595  0.67354872  0.57358950  1
  O  O65  1  0.14692893  0.46778115  0.58351051  1
  O  O66  1  0.28685116  0.80523539  0.25575978  1
  O  O67  1  0.50941806  0.68786283  0.25744458  1
  O  O68  1  0.17119911  0.46849432  0.25082903  1
  O  O69  1  0.28915672  0.47982628  0.75887657  1
  O  O70  1  0.17026974  0.69134331  0.75403969  1
  O  O71  1  0.52207452  0.82852145  0.75472371  1
loop_
_geom_bond_atom_site_label_1
_geom_bond_atom_site_label_2
_geom_bond_distance
_geom_bond_site_symmetry_2
Na0 O66 2.450088 1_655
Na0 O51 2.506386 1_555
Na0 O52 2.542427 1_555
Na0 O15 2.792905 1_555
Na0 O30 2.850644 1_655
Na0 O1 2.866956 1_555
Na0 O11 2.896968 1_655
Na0 O68 2.922976 1_655
Na1 O12 2.437121 1_555
Na1 O50 2.443204 1_555
Na1 O48 2.450784 1_555
Na1 O69 2.493958 1_655
Na1 O70 2.803643 1_655
Na1 O7 2.851881 1_655
Na2 O42 2.427888 1_565
Na2 O63 2.441626 1_555
Na2 O64 2.543526 1_555
Na2 O6 2.777263 1_555
Na2 O13 2.811991 1_565
Na2 O44 2.906598 1_555
Na2 O23 3.005294 1_565
Na2 O27 3.068682 1_555
Na3 O45 2.392221 1_555
Na3 O62 2.441474 1_555
Na3 O24 2.615975 1_554
Na3 O60 2.685614 1_555
Na3 O46 2.733573 1_565
Na3 O9 2.905713 1_555
Na3 O19 2.914018 1_555
Na4 O3 2.328497 1_555
Na4 O40 2.427879 1_555
Na4 O54 2.461125 1_555
Na4 O39 2.701905 1_555
Na4 O56 2.734349 1_555
Na4 O35 2.817328 1_555
Na5 O57 2.451593 1_555
Na5 O36 2.516839 1_545
Na5 O38 2.516991 1_555
Na5 O0 2.742436 1_555
Na5 O58 2.798980 1_555
Na5 O21 2.799353 1_555
Na5 O29 2.878296 1_545
Na6 O43 2.440455 1_565
Na6 O44 2.482645 1_455
Na6 O42 2.598053 1_465
Na6 O36 2.775406 1_555
Na6 O38 3.010966 1_565
Na7 O41 2.457133 1_555
Na7 O45 2.592417 1_556
Na7 O46 2.635309 1_566
Na7 O40 2.848608 1_665
Na7 O47 2.864597 1_666
Na7 O39 2.865053 1_665
Na8 O49 2.360311 1_555
Na8 O48 2.433493 1_555
Na8 O50 2.766054 1_555
Na8 O56 2.842966 1_555
Na8 O54 2.984069 1_555
Na9 O58 2.430299 1_555
Na9 O59 2.619069 1_555
Na9 O51 2.694862 1_555
Na9 O57 2.742068 1_555
Na9 O53 2.883122 1_555
Na10 O66 2.436439 1_555
Na10 O68 2.540178 1_555
Na10 O67 2.610757 1_555
Na10 O61 2.799294 1_555
Na11 O65 2.565659 1_555
Na11 O70 2.672036 1_555
Na11 O63 2.674582 1_555
Na11 O71 2.840038 1_555
Na11 O69 2.845627 1_555
Na11 O64 2.964147 1_555
La0 O1 2.165114 1_555
La0 O0 2.252934 1_665
La0 O36 2.254712 1_655
La0 O2 2.427925 1_565
La0 O37 2.444746 1_565
La0 O38 2.481694 1_665
La1 O5 2.121667 1_565
La1 O3 2.294831 1_665
La1 O4 2.322236 1_555
La1 O41 2.335351 1_555
La1 O39 2.538534 1_665
La1 O40 2.538690 1_665
La2 O13 2.148518 1_555
La2 O12 2.313067 1_555
La2 O49 2.325542 1_555
La2 O48 2.331977 1_555
La2 O14 2.412003 1_555
La2 O50 2.535364 1_555
La3 O53 2.234084 1_555
La3 O51 2.252976 1_555
La3 O15 2.294060 1_555
La3 O17 2.365329 1_555
La3 O16 2.404927 1_555
La3 O52 2.437993 1_555
La4 O61 2.247958 1_555
La4 O24 2.252914 1_554
La4 O26 2.316124 1_554
La4 O25 2.325556 1_554
La4 O62 2.432583 1_555
La4 O60 2.473563 1_555
La5 O29 2.150709 1_555
La5 O65 2.224311 1_555
La5 O63 2.260002 1_555
La5 O28 2.396388 1_555
La5 O64 2.500418 1_555
La5 O27 2.520443 1_555
O0 Si0 1.599883 1_545
O1 Si1 1.597622 1_555
O2 S0 1.452967 1_655
O3 Si2 1.617665 1_555
O4 S1 1.472996 1_655
O5 Si3 1.610748 1_545
O6 Si3 1.660015 1_555
O6 Zr0 2.111442 1_665
O7 Si2 1.690463 1_555
O7 Zr0 2.012804 1_555
O8 S1 1.478621 1_555
O8 Zr0 2.469346 1_565
O9 Si1 1.722994 1_555
O9 Zr1 1.979553 1_555
O10 S0 1.499011 1_555
O10 Zr1 2.336914 1_445
O11 Si0 1.722418 1_555
O11 Zr1 1.970216 1_455
O12 Si4 1.599846 1_555
O13 Si5 1.604831 1_555
O14 S2 1.454721 1_555
O15 Si6 1.596281 1_555
O16 S3 1.457165 1_555
O17 S4 1.468532 1_555
O18 S4 1.515535 1_555
O18 Zr2 2.272083 1_554
O19 Si6 1.731646 1_555
O19 Zr2 1.970245 1_554
O20 S3 1.495948 1_555
O20 Zr2 2.363824 1_554
O21 Si5 1.704599 1_555
O21 Zr3 2.076354 1_555
O22 S2 1.516274 1_555
O22 Zr3 2.164434 1_555
O23 Si4 1.714968 1_555
O23 Zr3 1.968428 1_555
O24 Si7 1.618100 1_555
O25 S5 1.476312 1_555
O26 S6 1.473008 1_555
O27 S7 1.457954 1_555
O28 S8 1.458115 1_555
O29 Si8 1.604067 1_555
O30 Si8 1.708685 1_555
O30 Zr4 2.052169 1_555
O31 S7 1.521025 1_555
O31 Zr4 2.217989 1_555
O32 S8 1.502501 1_555
O32 Zr4 2.298239 1_555
O33 S5 1.470805 1_555
O33 Zr5 2.623083 1_555
O34 S6 1.478082 1_555
O34 Zr5 2.466463 1_555
O35 Si7 1.693289 1_555
O35 Zr5 2.050119 1_555
O36 Si8 1.636911 1_555
O37 S7 1.461548 1_545
O38 S8 1.485193 1_555
O39 S5 1.476353 1_555
O40 S6 1.483510 1_545
O41 Si7 1.605980 1_555
O42 Si4 1.676659 1_555
O42 Zr0 2.056045 1_655
O43 Si5 1.660520 1_555
O43 Zr0 2.101664 1_555
O44 S2 1.485752 1_555
O44 Zr0 2.486784 1_665
O45 Si6 1.688368 1_555
O45 Zr1 2.078376 1_555
O46 S3 1.497570 1_555
O46 Zr1 2.492389 1_545
O47 S4 1.479263 1_555
O47 Zr1 2.500589 1_445
O48 Si3 1.619072 1_545
O49 Si2 1.603311 1_555
O50 S1 1.475986 1_655
O51 Si1 1.626216 1_555
O52 S0 1.481621 1_655
O53 Si0 1.599287 1_545
O54 Si7 1.716575 1_555
O54 Zr2 1.992705 1_555
O55 S5 1.513828 1_655
O55 Zr2 2.161417 1_555
O56 S6 1.505787 1_545
O56 Zr2 2.368992 1_555
O57 S7 1.507723 1_545
O57 Zr3 2.413182 1_555
O58 S8 1.496321 1_555
O58 Zr3 2.525102 1_555
O59 Si8 1.666304 1_655
O59 Zr3 2.103689 1_555
O60 S4 1.484000 1_555
O61 Si6 1.608894 1_455
O62 S3 1.494315 1_565
O63 Si5 1.634030 1_565
O64 S2 1.477999 1_555
O65 Si4 1.606364 1_455
O66 Si0 1.679571 1_555
O66 Zr4 2.054136 1_555
O67 Si1 1.644786 1_555
O67 Zr4 2.096224 1_555
O68 S0 1.506280 1_555
O68 Zr4 2.299822 1_555
O69 Si2 1.697235 1_555
O69 Zr5 1.991056 1_555
O70 S1 1.508636 1_555
O70 Zr5 2.332178 1_555
O71 Si3 1.688267 1_555
O71 Zr5 1.948855 1_555
