# generated using pymatgen
data_Ho5Mg(MoO6)2
_symmetry_space_group_name_H-M   'P 1'
_cell_length_a   5.90372095
_cell_length_b   7.16483657
_cell_length_c   7.42513279
_cell_angle_alpha   105.53554942
_cell_angle_beta   89.35023271
_cell_angle_gamma   115.48526404
_symmetry_Int_Tables_number   1
_chemical_formula_structural   Ho5Mg(MoO6)2
_chemical_formula_sum   'Ho5 Mg1 Mo2 O12'
_cell_volume   271.20138760
_cell_formula_units_Z   1
loop_
 _symmetry_equiv_pos_site_id
 _symmetry_equiv_pos_as_xyz
  1  'x, y, z'
loop_
 _atom_site_type_symbol
 _atom_site_label
 _atom_site_symmetry_multiplicity
 _atom_site_fract_x
 _atom_site_fract_y
 _atom_site_fract_z
 _atom_site_occupancy
  Ho  Ho0  1  0.29555400  0.58851800  0.64773100  1
  Ho  Ho1  1  0.68379000  0.36723000  0.33971100  1
  Ho  Ho2  1  0.31121500  0.61307200  0.19207700  1
  Ho  Ho3  1  0.67840100  0.36360300  0.84696500  1
  Ho  Ho4  1  0.00761800  0.04478400  0.49512000  1
  Mg  Mg0  1  0.85890200  0.70852300  0.67692100  1
  Mo  Mo0  1  0.76454200  0.00241300  0.99880900  1
  Mo  Mo1  1  0.24089100  0.00031800  0.00145500  1
  O  O0  1  0.91563300  0.34783600  0.09201900  1
  O  O1  1  0.43554100  0.34945300  0.09787100  1
  O  O2  1  0.06106700  0.65831400  0.87479100  1
  O  O3  1  0.59351100  0.65979700  0.87926600  1
  O  O4  1  0.07824900  0.67316500  0.45068900  1
  O  O5  1  0.61074200  0.68468300  0.45448600  1
  O  O6  1  0.89024900  0.29957400  0.56978900  1
  O  O7  1  0.39957600  0.30116400  0.56742100  1
  O  O8  1  0.98623200  0.99071700  0.19819200  1
  O  O9  1  0.01106800  0.01982000  0.79495300  1
  O  O10  1  0.49219400  0.97541000  0.18757000  1
  O  O11  1  0.50794500  0.99975200  0.81009000  1
loop_
_geom_bond_atom_site_label_1
_geom_bond_atom_site_label_2
_geom_bond_distance
_geom_bond_site_symmetry_2
Ho0 O2 2.258341 1_555
Ho0 O3 2.266242 1_555
Ho0 O4 2.311207 1_555
Ho0 O5 2.315557 1_555
Ho0 O7 2.322429 1_555
Ho0 O6 2.339450 1_455
Ho0 O11 2.580546 1_555
Ho1 O1 2.272715 1_555
Ho1 O0 2.290172 1_555
Ho1 O7 2.362008 1_555
Ho1 O4 2.364343 1_655
Ho1 O6 2.374534 1_555
Ho1 O5 2.425499 1_555
Ho1 O10 2.456462 1_545
Ho2 O1 2.251488 1_555
Ho2 O0 2.254169 1_455
Ho2 O10 2.353958 1_555
Ho2 O4 2.402314 1_555
Ho2 O5 2.438939 1_555
Ho2 O3 2.851837 1_554
Ho2 O2 2.955704 1_554
Ho3 O11 2.291298 1_545
Ho3 O2 2.297145 1_655
Ho3 O3 2.335002 1_555
Ho3 O1 2.335017 1_556
Ho3 O0 2.364141 1_556
Ho3 O6 2.437202 1_555
Ho3 O7 2.482838 1_555
Ho4 O8 2.129216 1_445
Ho4 O6 2.158181 1_455
Ho4 O7 2.204341 1_555
Ho4 O9 2.281729 1_555
Ho4 O5 2.575737 1_445
Ho4 O4 2.802478 1_545
Mg0 O9 1.948398 1_665
Mg0 O2 2.098780 1_655
Mg0 O4 2.137257 1_655
Mg0 O3 2.142641 1_555
Mg0 O5 2.142854 1_555
Mo0 O8 2.028909 1_546
Mo0 O11 2.065850 1_545
Mo0 O9 2.078441 1_655
Mo0 O10 2.100839 1_546
Mo0 O3 2.133895 1_545
Mo0 O0 2.143940 1_556
Mo1 O8 2.077017 1_445
Mo1 O11 2.110999 1_544
Mo1 O9 2.129926 1_554
Mo1 O10 2.132879 1_545
Mo1 O2 2.136710 1_544
Mo1 O1 2.162441 1_555
