# generated using pymatgen
data_MgCo3BiO8
_symmetry_space_group_name_H-M   'P 1'
_cell_length_a   5.92396743
_cell_length_b   5.77313782
_cell_length_c   6.54508698
_cell_angle_alpha   63.37184438
_cell_angle_beta   116.50526843
_cell_angle_gamma   119.76055072
_symmetry_Int_Tables_number   1
_chemical_formula_structural   MgCo3BiO8
_chemical_formula_sum   'Mg1 Co3 Bi1 O8'
_cell_volume   166.32698492
_cell_formula_units_Z   1
loop_
 _symmetry_equiv_pos_site_id
 _symmetry_equiv_pos_as_xyz
  1  'x, y, z'
loop_
 _atom_site_type_symbol
 _atom_site_label
 _atom_site_symmetry_multiplicity
 _atom_site_fract_x
 _atom_site_fract_y
 _atom_site_fract_z
 _atom_site_occupancy
  Mg  Mg0  1  0.00000000  0.00000000  0.00000000  1
  Co  Co0  1  0.50000000  0.50000000  0.00000000  1
  Co  Co1  1  0.50000000  0.00000000  0.00000000  1
  Co  Co2  1  0.00000000  0.50000000  0.00000000  1
  Bi  Bi0  1  0.50000000  0.50000000  0.50000000  1
  O  O0  1  0.75773700  0.70304700  0.82337800  1
  O  O1  1  0.76201200  0.23470400  0.82318800  1
  O  O2  1  0.31112000  0.74999800  0.82012900  1
  O  O3  1  0.29373100  0.24132900  0.81644200  1
  O  O4  1  0.70626900  0.75867100  0.18355800  1
  O  O5  1  0.68888000  0.25000200  0.17987100  1
  O  O6  1  0.23798800  0.76529600  0.17681200  1
  O  O7  1  0.24226300  0.29695300  0.17662200  1
loop_
_geom_bond_atom_site_label_1
_geom_bond_atom_site_label_2
_geom_bond_distance
_geom_bond_site_symmetry_2
Mg0 O7 2.046502 1_555
Mg0 O0 2.046502 1_444
Mg0 O6 2.048766 1_545
Mg0 O1 2.048766 1_454
Mg0 O3 2.090695 1_554
Mg0 O4 2.090695 1_445
Co0 O2 1.904036 1_554
Co0 O5 1.904036 1_555
Co0 O0 1.904082 1_554
Co0 O7 1.904082 1_555
Co0 O3 1.911268 1_554
Co0 O4 1.911268 1_555
Co1 O5 1.861503 1_555
Co1 O2 1.861503 1_544
Co1 O1 1.922010 1_554
Co1 O6 1.922010 1_545
Co1 O4 1.938280 1_545
Co1 O3 1.938280 1_554
Co2 O6 1.913519 1_555
Co2 O1 1.913519 1_454
Co2 O7 1.935135 1_555
Co2 O0 1.935135 1_454
Co2 O5 2.153764 1_455
Co2 O2 2.153764 1_554
Bi0 O4 2.384884 1_555
Bi0 O3 2.384884 1_555
Bi0 O0 2.397465 1_555
Bi0 O7 2.397465 1_555
Bi0 O1 2.398921 1_555
Bi0 O6 2.398921 1_555
