# generated using pymatgen
data_Sr5(B5Rh7)2
_symmetry_space_group_name_H-M   'P 1'
_cell_length_a   15.25590209
_cell_length_b   14.70154792
_cell_length_c   5.68510898
_cell_angle_alpha   84.60609405
_cell_angle_beta   73.61662119
_cell_angle_gamma   21.77728476
_symmetry_Int_Tables_number   1
_chemical_formula_structural   Sr5(B5Rh7)2
_chemical_formula_sum   'Sr5 B10 Rh14'
_cell_volume   400.16076375
_cell_formula_units_Z   1
loop_
 _symmetry_equiv_pos_site_id
 _symmetry_equiv_pos_as_xyz
  1  'x, y, z'
loop_
 _atom_site_type_symbol
 _atom_site_label
 _atom_site_symmetry_multiplicity
 _atom_site_fract_x
 _atom_site_fract_y
 _atom_site_fract_z
 _atom_site_occupancy
  Sr  Sr0  1  0.71112375  0.71112375  0.28887625  1
  Sr  Sr1  1  0.28887625  0.28887625  0.71112375  1
  Sr  Sr2  1  0.60444656  0.60444656  0.39555344  1
  Sr  Sr3  1  0.39555344  0.39555344  0.60444656  1
  Sr  Sr4  1  0.50000000  0.50000000  0.50000000  1
  B  B0  1  0.03653678  0.36707089  0.63292911  1
  B  B1  1  0.96346322  0.63292911  0.36707089  1
  B  B2  1  0.63292911  0.96346322  0.03653678  1
  B  B3  1  0.36707089  0.03653678  0.96346322  1
  B  B4  1  0.93603609  0.26640849  0.73359151  1
  B  B5  1  0.06396391  0.73359151  0.26640849  1
  B  B6  1  0.73359151  0.06396391  0.93603609  1
  B  B7  1  0.26640849  0.93603609  0.06396391  1
  B  B8  1  0.83402217  0.16597783  0.83402217  1
  B  B9  1  0.16597783  0.83402217  0.16597783  1
  Rh  Rh0  1  0.75000000  0.75000000  0.75000000  1
  Rh  Rh1  1  0.25000000  0.25000000  0.25000000  1
  Rh  Rh2  1  0.65157103  0.65157103  0.84842897  1
  Rh  Rh3  1  0.84842897  0.84842897  0.65157103  1
  Rh  Rh4  1  0.34842897  0.34842897  0.15157103  1
  Rh  Rh5  1  0.15157103  0.15157103  0.34842897  1
  Rh  Rh6  1  0.55072527  0.55072527  0.94927473  1
  Rh  Rh7  1  0.94927473  0.94927473  0.55072527  1
  Rh  Rh8  1  0.44927473  0.44927473  0.05072527  1
  Rh  Rh9  1  0.05072527  0.05072527  0.44927473  1
  Rh  Rh10  1  0.84736754  0.84736754  0.15263246  1
  Rh  Rh11  1  0.15263246  0.15263246  0.84736754  1
  Rh  Rh12  1  0.94950254  0.94950254  0.05049746  1
  Rh  Rh13  1  0.05049746  0.05049746  0.94950254  1
loop_
_geom_bond_atom_site_label_1
_geom_bond_atom_site_label_2
_geom_bond_distance
_geom_bond_site_symmetry_2
Sr0 Sr2 3.079102 1_555
Sr1 Sr3 3.079102 1_555
Sr2 Sr4 3.014718 1_555
Sr3 Sr4 3.014718 1_555
B0 Rh0 2.145219 1_455
B0 Rh1 2.145219 1_555
B0 Rh11 2.164962 1_555
B0 Rh2 2.183798 1_455
B0 Rh5 2.183798 1_555
B0 Sr1 2.998180 1_555
B0 Sr0 3.256042 1_456
B0 Sr0 3.256042 1_545
B0 Sr0 3.322144 1_455
B1 Rh1 2.145219 1_655
B1 Rh0 2.145219 1_555
B1 Rh10 2.164962 1_555
B1 Rh3 2.183798 1_555
B1 Rh4 2.183798 1_655
B1 Sr0 2.998180 1_555
B1 Sr1 3.256042 1_654
B1 Sr1 3.256042 1_565
B1 Sr1 3.322144 1_655
B2 Rh0 2.145219 1_554
B2 Rh1 2.145219 1_565
B2 Rh10 2.164962 1_555
B2 Rh3 2.183798 1_554
B2 Rh4 2.183798 1_565
B2 Sr0 2.998180 1_555
B2 Sr1 3.256042 1_654
B2 Sr1 3.256042 1_565
B2 Sr1 3.322144 1_564
B3 Rh0 2.145219 1_545
B3 Rh1 2.145219 1_556
B3 Rh11 2.164962 1_555
B3 Rh2 2.183798 1_545
B3 Rh5 2.183798 1_556
B3 Sr1 2.998180 1_555
B3 Sr0 3.256042 1_545
B3 Sr0 3.256042 1_456
B3 Sr0 3.322144 1_546
B4 Rh5 2.186328 1_655
B4 Rh2 2.186328 1_555
B4 Rh6 2.189175 1_555
B4 Rh9 2.189175 1_655
B4 Rh13 2.194022 1_655
B4 Rh11 2.207271 1_655
B4 Sr2 3.245842 1_556
B4 Sr2 3.245842 1_645
B4 Sr2 3.313342 1_555
B5 Rh4 2.186328 1_555
B5 Rh3 2.186328 1_455
B5 Rh7 2.189175 1_455
B5 Rh8 2.189175 1_555
B5 Rh12 2.194022 1_455
B5 Rh10 2.207271 1_455
B5 Sr3 3.245842 1_465
B5 Sr3 3.245842 1_554
B5 Sr3 3.313342 1_555
B6 Rh4 2.186328 1_556
B6 Rh3 2.186328 1_545
B6 Rh7 2.189175 1_545
B6 Rh8 2.189175 1_556
B6 Rh12 2.194022 1_546
B6 Rh10 2.207271 1_546
B6 Sr3 3.245842 1_645
B6 Sr3 3.245842 1_556
B6 Sr3 3.313342 1_555
B7 Rh5 2.186328 1_565
B7 Rh2 2.186328 1_554
B7 Rh6 2.189175 1_554
B7 Rh9 2.189175 1_565
B7 Rh13 2.194022 1_564
B7 Rh11 2.207271 1_564
B7 Sr2 3.245842 1_554
B7 Sr2 3.245842 1_465
B7 Sr2 3.313342 1_555
B8 Rh8 2.190584 1_556
B8 Rh9 2.190584 1_655
B8 Rh7 2.190584 1_545
B8 Rh6 2.190584 1_555
B8 Rh12 2.195498 1_546
B8 Rh13 2.195498 1_655
B8 Sr4 3.248459 1_556
B8 Sr4 3.248459 1_645
B8 Sr4 3.304204 1_555
B9 Rh8 2.190584 1_555
B9 Rh9 2.190584 1_565
B9 Rh6 2.190584 1_554
B9 Rh7 2.190584 1_455
B9 Rh12 2.195498 1_455
B9 Rh13 2.195498 1_564
B9 Sr4 3.248459 1_554
B9 Sr4 3.248459 1_465
B9 Sr4 3.304204 1_555
Rh0 Sr0 3.056020 1_555
Rh0 Sr1 3.056020 1_565
Rh0 Sr0 3.056020 1_556
Rh0 Sr1 3.056020 1_655
Rh1 Sr0 3.056020 1_455
Rh1 Sr1 3.056020 1_554
Rh1 Sr0 3.056020 1_545
Rh1 Sr1 3.056020 1_555
Rh2 Sr2 3.151226 1_556
Rh2 Sr2 3.151226 1_555
Rh2 Sr0 3.321864 1_555
Rh2 Sr0 3.321864 1_556
Rh3 Sr3 3.151226 1_565
Rh3 Sr3 3.151226 1_655
Rh3 Sr1 3.321864 1_565
Rh3 Sr1 3.321864 1_655
Rh4 Sr3 3.151226 1_555
Rh4 Sr3 3.151226 1_554
Rh4 Sr1 3.321864 1_554
Rh4 Sr1 3.321864 1_555
Rh5 Sr2 3.151226 1_545
Rh5 Sr2 3.151226 1_455
Rh5 Sr0 3.321864 1_455
Rh5 Sr0 3.321864 1_545
Rh6 Sr4 3.197462 1_556
Rh6 Sr4 3.197462 1_555
Rh6 Sr2 3.237973 1_556
Rh6 Sr2 3.237973 1_555
Rh7 Sr4 3.197462 1_655
Rh7 Sr4 3.197462 1_565
Rh7 Sr3 3.237973 1_565
Rh7 Sr3 3.237973 1_655
Rh8 Sr4 3.197462 1_555
Rh8 Sr4 3.197462 1_554
Rh8 Sr3 3.237973 1_555
Rh8 Sr3 3.237973 1_554
Rh9 Sr4 3.197462 1_545
Rh9 Sr4 3.197462 1_455
Rh9 Sr2 3.237973 1_545
Rh9 Sr2 3.237973 1_455
Rh10 Sr3 3.129075 1_654
Rh10 Sr3 3.129075 1_565
Rh10 Sr1 3.272154 1_565
Rh10 Sr1 3.272154 1_654
Rh11 Sr2 3.129075 1_545
Rh11 Sr2 3.129075 1_456
Rh11 Sr0 3.272154 1_545
Rh11 Sr0 3.272154 1_456
Rh12 Sr4 3.159296 1_565
Rh12 Sr4 3.159296 1_654
Rh12 Sr3 3.206478 1_565
Rh12 Sr3 3.206478 1_654
Rh13 Sr4 3.159296 1_545
Rh13 Sr4 3.159296 1_456
Rh13 Sr2 3.206478 1_456
Rh13 Sr2 3.206478 1_545
