# generated using pymatgen
data_Na7Zn4P3(SO8)3
_symmetry_space_group_name_H-M   'P 1'
_cell_length_a   9.04284016
_cell_length_b   9.04224151
_cell_length_c   21.97294337
_cell_angle_alpha   89.20768691
_cell_angle_beta   90.45509973
_cell_angle_gamma   120.01555208
_symmetry_Int_Tables_number   1
_chemical_formula_structural   Na7Zn4P3(SO8)3
_chemical_formula_sum   'Na21 Zn12 P9 S9 O72'
_cell_volume   1555.57127124
_cell_formula_units_Z   3
loop_
 _symmetry_equiv_pos_site_id
 _symmetry_equiv_pos_as_xyz
  1  'x, y, z'
loop_
 _atom_site_type_symbol
 _atom_site_label
 _atom_site_symmetry_multiplicity
 _atom_site_fract_x
 _atom_site_fract_y
 _atom_site_fract_z
 _atom_site_occupancy
  Na  Na0  1  0.63385923  0.00532364  0.25424136  1
  Na  Na1  1  0.35873953  0.35949584  0.24601208  1
  Na  Na2  1  0.00790749  0.63322219  0.25064120  1
  Na  Na3  1  0.63420972  0.63923696  0.74429752  1
  Na  Na4  1  0.99618054  0.35969691  0.75468564  1
  Na  Na5  1  0.02653113  0.69863747  0.57920810  1
  Na  Na6  1  0.66524746  0.95805950  0.58347277  1
  Na  Na7  1  0.29910921  0.97244723  0.08148999  1
  Na  Na8  1  0.04129319  0.33412302  0.08291405  1
  Na  Na9  1  0.97646660  0.66618501  0.91740824  1
  Na  Na10  1  0.69870774  0.03847694  0.91187775  1
  Na  Na11  1  0.32643347  0.29247700  0.92114793  1
  Na  Na12  1  0.96050127  0.29933531  0.41209506  1
  Na  Na13  1  0.33217408  0.02439035  0.41450455  1
  Na  Na14  1  0.70805677  0.67524730  0.42171547  1
  Na  Na15  1  0.99903377  0.99816347  0.50034990  1
  Na  Na16  1  0.00209592  0.00076844  0.00107900  1
  Na  Na17  1  0.65310889  0.30550852  0.83181876  1
  Na  Na18  1  0.67181647  0.32679692  0.33317462  1
  Na  Na19  1  0.34068847  0.66014797  0.16528392  1
  Na  Na20  1  0.34710530  0.67173214  0.66650967  1
  Zn  Zn0  1  0.99908873  0.00036435  0.34500119  1
  Zn  Zn1  1  0.00470877  0.01317914  0.84697582  1
  Zn  Zn2  1  0.98811235  0.99316572  0.65382408  1
  Zn  Zn3  1  0.01757204  0.01660754  0.15515051  1
  Zn  Zn4  1  0.65391508  0.32396750  0.67999685  1
  Zn  Zn5  1  0.65698215  0.32760269  0.17951418  1
  Zn  Zn6  1  0.65794002  0.32498173  0.98666534  1
  Zn  Zn7  1  0.67292731  0.34119621  0.48729487  1
  Zn  Zn8  1  0.33148591  0.65790410  0.01138891  1
  Zn  Zn9  1  0.34404064  0.66808800  0.51224670  1
  Zn  Zn10  1  0.32443932  0.67706321  0.32154942  1
  Zn  Zn11  1  0.33452310  0.68556492  0.82033363  1
  P  P0  1  0.29859023  0.99931016  0.25019136  1
  P  P1  1  0.99965162  0.30095034  0.24944023  1
  P  P2  1  0.69770251  -0.00001803  0.74955687  1
  P  P3  1  0.66523906  0.63006353  0.58456626  1
  P  P4  1  0.36899721  0.33748646  0.08315815  1
  P  P5  1  0.03447662  0.36921010  0.91590862  1
  P  P6  1  0.33239817  0.96404986  0.91927420  1
  P  P7  1  0.63435335  0.96740404  0.41676417  1
  P  P8  1  0.03387977  0.66565683  0.41839434  1
  S  S0  1  0.70557147  0.70477732  0.24974410  1
  S  S1  1  0.29748584  0.29599350  0.74980031  1
  S  S2  1  0.00105130  0.70245601  0.74988216  1
  S  S3  1  0.96790419  0.33396076  0.58419226  1
  S  S4  1  0.36622557  0.03553744  0.58243417  1
  S  S5  1  0.96142577  0.63143894  0.08342545  1
  S  S6  1  0.66779786  0.03102027  0.08377344  1
  S  S7  1  0.63083351  0.66647022  0.91540262  1
  S  S8  1  0.33326727  0.37138472  0.41586472  1
  O  O0  1  0.21543740  0.02564078  0.30734112  1
  O  O1  1  0.80326816  0.77745719  0.30738293  1
  O  O2  1  0.96664029  0.18689181  0.30689740  1
  O  O3  1  0.22552707  0.20098171  0.80809547  1
  O  O4  1  0.98309421  0.78744404  0.80482968  1
  O  O5  1  0.81197797  0.02969931  0.80700649  1
  O  O6  1  0.78004205  0.97132565  0.69213843  1
  O  O7  1  0.18780015  0.20521180  0.69742502  1
  O  O8  1  0.02186184  0.80363361  0.69373259  1
  O  O9  1  0.79184711  0.81653692  0.19710041  1
  O  O10  1  0.02479442  0.21953662  0.19192849  1
  O  O11  1  0.18756648  0.96690496  0.19270393  1
  O  O12  1  0.88487750  0.35717372  0.63879537  1
  O  O13  1  0.47776602  0.11905542  0.63520763  1
  O  O14  1  0.64973787  0.52652227  0.64312190  1
  O  O15  1  0.87671530  0.52442807  0.13864788  1
  O  O16  1  0.64428140  0.11328211  0.13867485  1
  O  O17  1  0.47008480  0.35451448  0.14226458  1
  O  O18  1  0.45374880  0.31172363  0.02622961  1
  O  O19  1  0.86422860  0.54789270  0.02711614  1
  O  O20  1  0.69668640  0.14045081  0.02823085  1
  O  O21  1  0.44400496  0.13258787  0.52476575  1
  O  O22  1  0.69092609  0.54725397  0.52695215  1
  O  O23  1  0.85944862  0.30470194  0.52864680  1
  O  O24  1  0.54955917  0.69499683  0.96846699  1
  O  O25  1  0.14392675  0.44779807  0.97349344  1
  O  O26  1  0.30415132  0.85621290  0.97831114  1
  O  O27  1  0.55462532  0.85644809  0.47448539  1
  O  O28  1  0.30776445  0.45319832  0.46901717  1
  O  O29  1  0.14569703  0.69040335  0.47525404  1
  O  O30  1  0.10912035  0.63229589  0.36052501  1
  O  O31  1  0.52522309  0.88427968  0.35918074  1
  O  O32  1  0.35872590  0.47393836  0.35905077  1
  O  O33  1  0.11950854  0.47925869  0.85811590  1
  O  O34  1  0.37090703  0.88470196  0.86482337  1
  O  O35  1  0.52752774  0.63861565  0.85898385  1
  O  O36  1  0.01861430  0.83037124  0.41323516  1
  O  O37  1  0.81669095  0.98907207  0.41246536  1
  O  O38  1  0.17843533  0.19726281  0.41254119  1
  O  O39  1  0.01224732  0.18606005  0.91253538  1
  O  O40  1  0.16710116  0.97796236  0.91202862  1
  O  O41  1  0.80541756  0.82062942  0.91080140  1
  O  O42  1  0.98437630  0.17824975  0.58931059  1
  O  O43  1  0.19267153  0.01553448  0.58811260  1
  O  O44  1  0.83214356  0.81191512  0.58664563  1
  O  O45  1  0.98133342  0.80466711  0.08655285  1
  O  O46  1  0.82295934  0.01501152  0.08903312  1
  O  O47  1  0.18749805  0.17074534  0.08537996  1
  O  O48  1  0.68832508  0.16721944  0.74343331  1
  O  O49  1  0.47472196  0.32287746  0.74570353  1
  O  O50  1  0.84237830  0.53073857  0.74751344  1
  O  O51  1  0.68926988  0.53175447  0.24530588  1
  O  O52  1  0.83923480  0.32387316  0.24420276  1
  O  O53  1  0.47935166  0.16355142  0.24583633  1
  O  O54  1  0.65007909  0.51203622  0.92190745  1
  O  O55  1  0.85392375  0.35298461  0.92075268  1
  O  O56  1  0.49177135  0.14837072  0.92287533  1
  O  O57  1  0.64818330  0.14680215  0.42145235  1
  O  O58  1  0.48815493  0.35196349  0.42130323  1
  O  O59  1  0.85063651  0.50497344  0.42266417  1
  O  O60  1  0.34297077  0.49518120  0.07872761  1
  O  O61  1  0.13528986  0.64862429  0.08223348  1
  O  O62  1  0.50850940  0.86332822  0.07854140  1
  O  O63  1  0.34714433  0.86097584  0.58058381  1
  O  O64  1  0.50770444  0.65645498  0.58057547  1
  O  O65  1  0.13640497  0.49246456  0.57841257  1
  O  O66  1  0.32190196  0.83943268  0.25426725  1
  O  O67  1  0.53049290  0.68299331  0.25331971  1
  O  O68  1  0.16564887  0.47908374  0.25451108  1
  O  O69  1  0.31069508  0.46780895  0.75157595  1
  O  O70  1  0.15119705  0.67522631  0.75314034  1
  O  O71  1  0.52223376  0.83252462  0.75526724  1
loop_
_geom_bond_atom_site_label_1
_geom_bond_atom_site_label_2
_geom_bond_distance
_geom_bond_site_symmetry_2
Na0 O66 2.444274 1_545
Na0 O53 2.453931 1_555
Na0 O31 2.523949 1_545
Na0 O52 2.536037 1_555
Na0 O67 2.577724 1_545
Na0 O16 2.693186 1_555
Na0 O2 2.853809 1_555
Na1 O68 2.480478 1_555
Na1 O53 2.502475 1_555
Na1 O17 2.509434 1_555
Na1 O67 2.541303 1_555
Na1 O51 2.588899 1_555
Na1 O32 2.703939 1_555
Na1 O10 2.879963 1_555
Na1 O0 2.934250 1_555
Na2 O52 2.431019 1_455
Na2 O68 2.443014 1_555
Na2 O66 2.499793 1_555
Na2 O51 2.551597 1_455
Na2 O30 2.576709 1_555
Na2 O15 2.698849 1_455
Na2 O11 2.895901 1_555
Na3 O71 2.433960 1_555
Na3 O49 2.476831 1_555
Na3 O14 2.492301 1_555
Na3 O50 2.520850 1_555
Na3 O69 2.539788 1_555
Na3 O35 2.704419 1_555
Na3 O6 2.834887 1_555
Na4 O48 2.448221 1_555
Na4 O70 2.470439 1_655
Na4 O69 2.503769 1_655
Na4 O33 2.529622 1_655
Na4 O50 2.548131 1_555
Na4 O12 2.726881 1_555
Na4 O5 2.821862 1_555
Na5 O44 2.444652 1_455
Na5 O43 2.492005 1_565
Na5 O63 2.510645 1_555
Na5 O65 2.513425 1_555
Na5 O29 2.551137 1_555
Na5 O8 2.709886 1_555
Na5 O22 2.869537 1_455
Na5 O12 2.974273 1_455
Na6 O64 2.363779 1_555
Na6 O44 2.453566 1_555
Na6 O63 2.553720 1_555
Na6 O42 2.561516 1_565
Na6 O6 2.576252 1_555
Na6 O27 2.585161 1_555
Na7 O47 2.461134 1_565
Na7 O45 2.492058 1_455
Na7 O26 2.522329 1_554
Na7 O61 2.535321 1_555
Na7 O62 2.536986 1_555
Na7 O11 2.641357 1_555
Na7 O18 2.910894 1_565
Na7 O16 2.991399 1_565
Na8 O60 2.365793 1_555
Na8 O47 2.425703 1_555
Na8 O61 2.527957 1_555
Na8 O46 2.556563 1_455
Na8 O10 2.572153 1_555
Na8 O25 2.590599 1_554
Na9 O40 2.462776 1_655
Na9 O55 2.471753 1_555
Na9 O41 2.552604 1_555
Na9 O54 2.559053 1_555
Na9 O19 2.620434 1_556
Na9 O4 2.680766 1_555
Na9 O26 2.903526 1_655
Na9 O33 2.915892 1_655
Na10 O39 2.456496 1_655
Na10 O55 2.472470 1_555
Na10 O56 2.534111 1_555
Na10 O5 2.547407 1_555
Na10 O41 2.591387 1_545
Na10 O20 2.733068 1_556
Na10 O34 2.767059 1_545
Na10 O24 2.956403 1_545
Na11 O56 2.425205 1_555
Na11 O40 2.472985 1_545
Na11 O39 2.509007 1_555
Na11 O18 2.540759 1_556
Na11 O54 2.587318 1_555
Na11 O3 2.636925 1_555
Na11 O25 2.900509 1_555
Na12 O37 2.431330 1_545
Na12 O57 2.454620 1_555
Na12 O59 2.522347 1_555
Na12 O2 2.550175 1_555
Na12 O38 2.560275 1_655
Na12 O23 2.735144 1_555
Na12 O30 2.834836 1_655
Na12 O28 2.995979 1_655
Na13 O36 2.478261 1_545
Na13 O57 2.499540 1_555
Na13 O38 2.559184 1_555
Na13 O58 2.571823 1_555
Na13 O0 2.575033 1_555
Na13 O21 2.624196 1_555
Na13 O31 2.901610 1_545
Na13 O29 2.928314 1_545
Na14 O36 2.439049 1_655
Na14 O59 2.453177 1_555
Na14 O37 2.501410 1_555
Na14 O22 2.542197 1_555
Na14 O58 2.585406 1_555
Na14 O1 2.660969 1_555
Na14 O27 2.882102 1_555
Na15 O44 2.474591 1_555
Na15 O37 2.504574 1_555
Na15 O36 2.520280 1_655
Na15 O43 2.547373 1_665
Na15 O38 2.574345 1_665
Na15 O42 2.607345 1_565
Na16 O47 2.460827 1_555
Na16 O45 2.507429 1_445
Na16 O39 2.521824 1_554
Na16 O40 2.542242 1_544
Na16 O46 2.577014 1_455
Na16 O41 2.624168 1_444
Na17 O48 2.431484 1_555
Na17 O56 2.458523 1_555
Na17 O49 2.530620 1_555
Na17 O55 2.547053 1_555
Na17 O50 2.639555 1_555
Na17 O54 2.749721 1_555
Na18 O57 2.455283 1_555
Na18 O52 2.490606 1_555
Na18 O53 2.519100 1_555
Na18 O59 2.551016 1_555
Na18 O51 2.607781 1_555
Na18 O58 2.646002 1_555
Na19 O60 2.439795 1_555
Na19 O67 2.516766 1_555
Na19 O68 2.529356 1_555
Na19 O62 2.543787 1_555
Na19 O61 2.559033 1_555
Na19 O66 2.616929 1_555
Na20 O64 2.438251 1_555
Na20 O71 2.480153 1_555
Na20 O69 2.511824 1_555
Na20 O63 2.530401 1_555
Na20 O70 2.621852 1_555
Na20 O65 2.635001 1_555
O0 P0 1.549639 1_545
O0 Zn0 2.034122 1_455
O1 S0 1.496922 1_555
O1 Zn0 2.081695 1_565
O2 P1 1.551985 1_555
O2 Zn0 2.020885 1_555
O3 S1 1.491899 1_555
O3 Zn1 2.048258 1_555
O4 S2 1.492739 1_655
O4 Zn1 2.170800 1_665
O5 P2 1.563462 1_555
O5 Zn1 2.015842 1_655
O6 P2 1.558943 1_565
O6 Zn2 1.984136 1_555
O7 S1 1.474950 1_555
O7 Zn2 2.101019 1_445
O8 S2 1.481493 1_555
O8 Zn2 2.068011 1_455
O9 S0 1.470090 1_555
O9 Zn3 2.139685 1_665
O10 P1 1.545419 1_455
O10 Zn3 1.986097 1_555
O11 P0 1.544403 1_555
O11 Zn3 1.976547 1_565
O12 S3 1.492042 1_555
O12 Zn4 2.160310 1_555
O13 S4 1.475086 1_555
O13 Zn4 2.002919 1_555
O14 P3 1.545929 1_555
O14 Zn4 2.010024 1_555
O15 S5 1.495374 1_555
O15 Zn5 2.090008 1_555
O16 S6 1.496971 1_555
O16 Zn5 2.097101 1_555
O17 P4 1.546580 1_555
O17 Zn5 1.992358 1_555
O18 P4 1.551855 1_555
O18 Zn6 1.995177 1_554
O19 S5 1.489419 1_555
O19 Zn6 2.143361 1_554
O20 S6 1.499954 1_555
O20 Zn6 2.068507 1_554
O21 S4 1.495441 1_555
O21 Zn7 2.144480 1_555
O22 P3 1.556331 1_555
O22 Zn7 1.999164 1_555
O23 S3 1.500598 1_555
O23 Zn7 2.074512 1_555
O24 S7 1.475735 1_555
O24 Zn8 2.061513 1_556
O25 P5 1.544953 1_555
O25 Zn8 1.994218 1_556
O26 P6 1.555605 1_555
O26 Zn8 2.051662 1_556
O27 P7 1.546169 1_555
O27 Zn9 1.989157 1_555
O28 S8 1.470831 1_555
O28 Zn9 2.047888 1_555
O29 P8 1.547489 1_555
O29 Zn9 2.062225 1_555
O30 P8 1.549349 1_555
O30 Zn10 1.979098 1_555
O31 P7 1.550521 1_555
O31 Zn10 2.026445 1_555
O32 S8 1.493421 1_555
O32 Zn10 2.161581 1_555
O33 P5 1.552124 1_555
O33 Zn11 2.074525 1_555
O34 P6 1.532270 1_555
O34 Zn11 1.938317 1_555
O35 S7 1.492577 1_555
O35 Zn11 2.157622 1_555
O36 P8 1.565554 1_555
O36 Zn0 2.201228 1_465
O37 P7 1.563576 1_555
O37 Zn0 2.189648 1_565
O38 S8 1.496886 1_555
O38 Zn0 2.269033 1_455
O39 P5 1.568001 1_555
O39 Zn1 2.116031 1_555
O40 P6 1.568202 1_555
O40 Zn1 2.173237 1_565
O41 S7 1.497546 1_555
O41 Zn1 2.253754 1_665
O42 S3 1.490776 1_555
O42 Zn2 2.191265 1_545
O43 S4 1.493270 1_555
O43 Zn2 2.281986 1_445
O44 P3 1.581752 1_555
O44 Zn2 2.139014 1_555
O45 S5 1.487049 1_555
O45 Zn3 2.344292 1_665
O46 S6 1.484306 1_555
O46 Zn3 2.267697 1_655
O47 P4 1.578878 1_555
O47 Zn3 2.118886 1_555
O48 P2 1.560299 1_555
O48 Zn4 2.104362 1_555
O49 S1 1.499266 1_555
O49 Zn4 2.175110 1_555
O50 S2 1.498170 1_655
O50 Zn4 2.334455 1_555
O51 S0 1.500733 1_555
O51 Zn5 2.260677 1_555
O52 P1 1.567808 1_555
O52 Zn5 2.180539 1_555
O53 P0 1.567313 1_545
O53 Zn5 2.120810 1_555
O54 S7 1.495981 1_555
O54 Zn6 2.223216 1_555
O55 P5 1.568844 1_655
O55 Zn6 2.210026 1_555
O56 P6 1.568375 1_545
O56 Zn6 2.097737 1_555
O57 P7 1.568155 1_545
O57 Zn7 2.214627 1_555
O58 S8 1.499903 1_555
O58 Zn7 2.241478 1_555
O59 P8 1.567036 1_655
O59 Zn7 2.095101 1_555
O60 P4 1.558732 1_555
O60 Zn8 2.110753 1_555
O61 S5 1.500946 1_455
O61 Zn8 2.338641 1_555
O62 S6 1.484677 1_565
O62 Zn8 2.292041 1_555
O63 S4 1.500680 1_565
O63 Zn9 2.306577 1_555
O64 P3 1.559346 1_555
O64 Zn9 2.138144 1_555
O65 S3 1.484985 1_455
O65 Zn9 2.270988 1_555
O66 P0 1.563131 1_555
O66 Zn10 2.077223 1_555
O67 S0 1.497019 1_555
O67 Zn10 2.380045 1_555
O68 P1 1.563152 1_455
O68 Zn10 2.214494 1_555
O69 S1 1.498463 1_555
O69 Zn11 2.420449 1_555
O70 S2 1.497212 1_555
O70 Zn11 2.178702 1_555
O71 P2 1.555765 1_565
O71 Zn11 2.102495 1_555
