# generated using pymatgen
data_Na2MgNb2O6
_symmetry_space_group_name_H-M   'P 1'
_cell_length_a   5.31486148
_cell_length_b   5.52105564
_cell_length_c   6.31966230
_cell_angle_alpha   60.16897440
_cell_angle_beta   66.15722380
_cell_angle_gamma   59.73619772
_symmetry_Int_Tables_number   1
_chemical_formula_structural   Na2MgNb2O6
_chemical_formula_sum   'Na2 Mg1 Nb2 O6'
_cell_volume   135.99780141
_cell_formula_units_Z   1
loop_
 _symmetry_equiv_pos_site_id
 _symmetry_equiv_pos_as_xyz
  1  'x, y, z'
loop_
 _atom_site_type_symbol
 _atom_site_label
 _atom_site_symmetry_multiplicity
 _atom_site_fract_x
 _atom_site_fract_y
 _atom_site_fract_z
 _atom_site_occupancy
  Na  Na0  1  0.37149900  0.40285600  0.87846700  1
  Na  Na1  1  0.64003000  0.66346500  0.11046100  1
  Mg  Mg0  1  0.00722700  0.03310000  0.99107500  1
  Nb  Nb0  1  0.22137700  0.18919700  0.46027900  1
  Nb  Nb1  1  0.79179000  0.87634000  0.52278100  1
  O  O0  1  0.98738200  0.18168100  0.25504600  1
  O  O1  1  0.18533200  0.60517400  0.26669900  1
  O  O2  1  0.60229000  0.01420900  0.22486400  1
  O  O3  1  0.02762300  0.88250900  0.72716400  1
  O  O4  1  0.82854700  0.46010700  0.71205300  1
  O  O5  1  0.41190200  0.05386400  0.75736000  1
loop_
_geom_bond_atom_site_label_1
_geom_bond_atom_site_label_2
_geom_bond_distance
_geom_bond_site_symmetry_2
Na0 O5 2.293837 1_555
Na0 O3 2.298396 1_555
Na0 O4 2.341913 1_555
Na0 O2 2.397012 1_556
Na0 O0 2.648836 1_456
Na0 O1 2.810032 1_556
Na1 O2 2.279698 1_565
Na1 O0 2.305304 1_555
Na1 O1 2.336112 1_555
Na1 O5 2.421444 1_564
Na1 O3 2.671370 1_654
Na1 O4 2.871033 1_554
Mg0 O2 2.080364 1_456
Mg0 O5 2.081444 1_555
Mg0 O1 2.120493 1_546
Mg0 O4 2.128474 1_455
Mg0 O0 2.144525 1_456
Mg0 O3 2.151100 1_545
Nb0 O1 1.938706 1_555
Nb0 O2 2.066119 1_555
Nb0 O3 2.069861 1_545
Nb0 O5 2.118306 1_555
Nb0 O0 2.154119 1_455
Nb0 O4 2.379542 1_455
Nb1 O4 1.936904 1_555
Nb1 O5 2.065415 1_565
Nb1 O0 2.071732 1_565
Nb1 O2 2.114940 1_565
Nb1 O3 2.153181 1_655
Nb1 O1 2.398508 1_655
