# generated using pymatgen
data_DyNi
_symmetry_space_group_name_H-M   'P 1'
_cell_length_a   4.23734872
_cell_length_b   5.30042344
_cell_length_c   6.92566712
_cell_angle_alpha   90.00000000
_cell_angle_beta   90.00000000
_cell_angle_gamma   90.00000000
_symmetry_Int_Tables_number   1
_chemical_formula_structural   DyNi
_chemical_formula_sum   'Dy4 Ni4'
_cell_volume   155.54870001
_cell_formula_units_Z   4
loop_
 _symmetry_equiv_pos_site_id
 _symmetry_equiv_pos_as_xyz
  1  'x, y, z'
loop_
 _atom_site_type_symbol
 _atom_site_label
 _atom_site_symmetry_multiplicity
 _atom_site_fract_x
 _atom_site_fract_y
 _atom_site_fract_z
 _atom_site_occupancy
  Dy  Dy0  1  0.25000000  0.36675192  0.68123337  1
  Dy  Dy1  1  0.75000000  0.63324808  0.31876663  1
  Dy  Dy2  1  0.75000000  0.86675192  0.81876663  1
  Dy  Dy3  1  0.25000000  0.13324808  0.18123337  1
  Ni  Ni0  1  0.25000000  0.87455310  0.53580926  1
  Ni  Ni1  1  0.75000000  0.12544690  0.46419074  1
  Ni  Ni2  1  0.75000000  0.37455310  0.96419074  1
  Ni  Ni3  1  0.25000000  0.62544690  0.03580926  1
loop_
_geom_bond_atom_site_label_1
_geom_bond_atom_site_label_2
_geom_bond_distance
_geom_bond_site_symmetry_2
Dy0 Ni0 2.796521 1_545
Dy0 Ni3 2.812562 1_556
Dy0 Ni0 2.873825 1_555
Dy0 Ni2 2.886311 1_455
Dy0 Ni2 2.886311 1_555
Dy0 Ni1 2.895544 1_455
Dy0 Ni1 2.895544 1_555
Dy1 Ni1 2.796521 1_565
Dy1 Ni2 2.812562 1_554
Dy1 Ni1 2.873825 1_555
Dy1 Ni3 2.886311 1_555
Dy1 Ni3 2.886311 1_655
Dy1 Ni0 2.895544 1_655
Dy1 Ni0 2.895544 1_555
Dy2 Ni2 2.796521 1_555
Dy2 Ni1 2.812562 1_565
Dy2 Ni2 2.873825 1_565
Dy2 Ni0 2.886311 1_655
Dy2 Ni0 2.886311 1_555
Dy2 Ni3 2.895544 1_656
Dy2 Ni3 2.895544 1_556
Dy3 Ni3 2.796521 1_555
Dy3 Ni0 2.812562 1_545
Dy3 Ni3 2.873825 1_545
Dy3 Ni1 2.886311 1_555
Dy3 Ni1 2.886311 1_455
Dy3 Ni2 2.895544 1_454
Dy3 Ni2 2.895544 1_554
Ni0 Ni1 2.550154 1_565
Ni0 Ni1 2.550154 1_465
Ni2 Ni3 2.550154 1_556
Ni2 Ni3 2.550154 1_656
