# generated using pymatgen
data_Ba2YMgMn3O8
_symmetry_space_group_name_H-M   'P 1'
_cell_length_a   4.00622904
_cell_length_b   4.00524411
_cell_length_c   14.61360905
_cell_angle_alpha   89.99417669
_cell_angle_beta   90.00844213
_cell_angle_gamma   90.01744587
_symmetry_Int_Tables_number   1
_chemical_formula_structural   Ba2YMgMn3O8
_chemical_formula_sum   'Ba2 Y1 Mg1 Mn3 O8'
_cell_volume   234.48886414
_cell_formula_units_Z   1
loop_
 _symmetry_equiv_pos_site_id
 _symmetry_equiv_pos_as_xyz
  1  'x, y, z'
loop_
 _atom_site_type_symbol
 _atom_site_label
 _atom_site_symmetry_multiplicity
 _atom_site_fract_x
 _atom_site_fract_y
 _atom_site_fract_z
 _atom_site_occupancy
  Ba  Ba0  1  0.50017396  0.50022578  0.24562949  1
  Ba  Ba1  1  0.50019883  0.50016981  0.75457619  1
  Y  Y0  1  0.50016827  0.50014366  0.50007142  1
  Mg  Mg0  1  0.49973157  0.49971088  0.00029075  1
  Mn  Mn0  1  0.00035510  0.00004879  0.37274142  1
  Mn  Mn1  1  -0.00077260  -0.00061425  0.99863170  1
  Mn  Mn2  1  -0.00003278  0.00027412  0.62750544  1
  O  O0  1  0.00027976  0.50004610  0.40266787  1
  O  O1  1  0.50036315  0.00011014  0.40261830  1
  O  O2  1  0.49950406  -0.00033139  0.99976427  1
  O  O3  1  0.00045815  -0.00008978  0.22945408  1
  O  O4  1  0.00006882  0.50024690  0.59759084  1
  O  O5  1  0.49999278  0.00019980  0.59764214  1
  O  O6  1  -0.00020630  0.00030688  0.77105393  1
  O  O7  1  -0.00028478  0.49955255  0.99976416  1
loop_
_geom_bond_atom_site_label_1
_geom_bond_atom_site_label_2
_geom_bond_distance
_geom_bond_site_symmetry_2
Ba0 O3 2.841025 1_565
Ba0 O3 2.841820 1_665
Ba0 O3 2.841981 1_555
Ba0 O3 2.844494 1_655
Ba0 O1 3.045128 1_565
Ba0 O1 3.045431 1_555
Ba0 O0 3.046092 1_555
Ba0 O0 3.046205 1_655
Ba1 O6 2.841507 1_665
Ba1 O6 2.841558 1_655
Ba1 O6 2.843036 1_555
Ba1 O6 2.844703 1_565
Ba1 O5 3.044602 1_565
Ba1 O5 3.044751 1_555
Ba1 O4 3.045445 1_655
Ba1 O4 3.045685 1_555
Mg0 O2 2.002467 1_564
Mg0 O2 2.002807 1_554
Mg0 O7 2.003065 1_654
Mg0 O7 2.003194 1_554
Mn0 O0 2.049785 1_545
Mn0 O0 2.049851 1_555
Mn0 O1 2.050114 1_555
Mn0 O1 2.050177 1_455
Mn0 O3 2.093945 1_555
Mn1 O7 2.002022 1_545
Mn1 O2 2.002078 1_455
Mn1 O7 2.003361 1_555
Mn1 O2 2.004289 1_555
Mn2 O4 2.049632 1_555
Mn2 O4 2.049932 1_545
Mn2 O5 2.049940 1_455
Mn2 O5 2.050266 1_555
Mn2 O6 2.097762 1_555
O0 Y0 2.456818 1_555
O0 Y0 2.457888 1_455
O1 Y0 2.457144 1_545
O1 Y0 2.457599 1_555
O4 Y0 2.457839 1_455
O4 Y0 2.458830 1_555
O5 Y0 2.458067 1_555
O5 Y0 2.458669 1_545
