# generated using pymatgen
data_Mg14Ge5O24
_symmetry_space_group_name_H-M   'P 1'
_cell_length_a   5.93744648
_cell_length_b   10.21802955
_cell_length_c   14.51186418
_cell_angle_alpha   90.00000000
_cell_angle_beta   90.00000000
_cell_angle_gamma   90.00000000
_symmetry_Int_Tables_number   1
_chemical_formula_structural   Mg14Ge5O24
_chemical_formula_sum   'Mg28 Ge10 O48'
_cell_volume   880.42033995
_cell_formula_units_Z   2
loop_
 _symmetry_equiv_pos_site_id
 _symmetry_equiv_pos_as_xyz
  1  'x, y, z'
loop_
 _atom_site_type_symbol
 _atom_site_label
 _atom_site_symmetry_multiplicity
 _atom_site_fract_x
 _atom_site_fract_y
 _atom_site_fract_z
 _atom_site_occupancy
  Mg  Mg0  1  0.50000000  0.50000000  0.00000000  1
  Mg  Mg1  1  0.50000000  0.00000000  0.50000000  1
  Mg  Mg2  1  0.50000000  0.00000000  0.00000000  1
  Mg  Mg3  1  0.50000000  0.50000000  0.50000000  1
  Mg  Mg4  1  0.00000000  0.82216075  0.82482082  1
  Mg  Mg5  1  0.00000000  0.17783925  0.17517918  1
  Mg  Mg6  1  0.00000000  0.32216075  0.67517918  1
  Mg  Mg7  1  0.00000000  0.67783925  0.32482082  1
  Mg  Mg8  1  0.50000000  0.85332267  0.67408706  1
  Mg  Mg9  1  0.50000000  0.14667733  0.32591294  1
  Mg  Mg10  1  0.50000000  0.35332267  0.82591294  1
  Mg  Mg11  1  0.50000000  0.64667733  0.17408706  1
  Mg  Mg12  1  0.75732937  0.74876435  0.00444302  1
  Mg  Mg13  1  0.75732937  0.25123565  0.99555698  1
  Mg  Mg14  1  0.24267063  0.24876435  0.49555698  1
  Mg  Mg15  1  0.24267063  0.75123565  0.50444302  1
  Mg  Mg16  1  0.24267063  0.25123565  0.99555698  1
  Mg  Mg17  1  0.24267063  0.74876435  0.00444302  1
  Mg  Mg18  1  0.75732937  0.75123565  0.50444302  1
  Mg  Mg19  1  0.75732937  0.24876435  0.49555698  1
  Mg  Mg20  1  0.75425524  0.58092040  0.66827776  1
  Mg  Mg21  1  0.75425524  0.41907960  0.33172224  1
  Mg  Mg22  1  0.24574476  0.08092040  0.83172224  1
  Mg  Mg23  1  0.24574476  0.91907960  0.16827776  1
  Mg  Mg24  1  0.24574476  0.41907960  0.33172224  1
  Mg  Mg25  1  0.24574476  0.58092040  0.66827776  1
  Mg  Mg26  1  0.75425524  0.91907960  0.16827776  1
  Mg  Mg27  1  0.75425524  0.08092040  0.83172224  1
  Ge  Ge0  1  0.00000000  0.00000000  0.00000000  1
  Ge  Ge1  1  0.00000000  0.50000000  0.50000000  1
  Ge  Ge2  1  0.00000000  0.49861187  0.87437891  1
  Ge  Ge3  1  0.00000000  0.50138813  0.12562109  1
  Ge  Ge4  1  0.00000000  0.99861187  0.62562109  1
  Ge  Ge5  1  0.00000000  0.00138813  0.37437891  1
  Ge  Ge6  1  0.50000000  0.67453796  0.81353081  1
  Ge  Ge7  1  0.50000000  0.32546204  0.18646919  1
  Ge  Ge8  1  0.50000000  0.17453796  0.68646919  1
  Ge  Ge9  1  0.50000000  0.82546204  0.31353081  1
  O  O0  1  0.00000000  0.66306492  0.91640016  1
  O  O1  1  0.00000000  0.33693508  0.08359984  1
  O  O2  1  0.00000000  0.16306492  0.58359984  1
  O  O3  1  0.00000000  0.83693508  0.41640016  1
  O  O4  1  0.00000000  0.65163936  0.57837429  1
  O  O5  1  0.00000000  0.34836064  0.42162571  1
  O  O6  1  0.00000000  0.15163936  0.92162571  1
  O  O7  1  0.00000000  0.84836064  0.07837429  1
  O  O8  1  0.00000000  0.99678445  0.74837663  1
  O  O9  1  0.00000000  0.00321555  0.25162337  1
  O  O10  1  0.00000000  0.49678445  0.75162337  1
  O  O11  1  0.00000000  0.50321555  0.24837663  1
  O  O12  1  0.50000000  0.67019044  0.93238474  1
  O  O13  1  0.50000000  0.32980956  0.06761526  1
  O  O14  1  0.50000000  0.17019044  0.56761526  1
  O  O15  1  0.50000000  0.82980956  0.43238474  1
  O  O16  1  0.50000000  0.66822735  0.58602794  1
  O  O17  1  0.50000000  0.33177265  0.41397206  1
  O  O18  1  0.50000000  0.16822735  0.91397206  1
  O  O19  1  0.50000000  0.83177265  0.08602794  1
  O  O20  1  0.50000000  0.02151382  0.74422764  1
  O  O21  1  0.50000000  0.97848618  0.25577236  1
  O  O22  1  0.50000000  0.52151382  0.75577236  1
  O  O23  1  0.50000000  0.47848618  0.24422764  1
  O  O24  1  0.77527615  0.92215088  0.92424623  1
  O  O25  1  0.77527615  0.07784912  0.07575377  1
  O  O26  1  0.22472385  0.42215088  0.57575377  1
  O  O27  1  0.22472385  0.57784912  0.42424623  1
  O  O28  1  0.22472385  0.07784912  0.07575377  1
  O  O29  1  0.22472385  0.92215088  0.92424623  1
  O  O30  1  0.77527615  0.57784912  0.42424623  1
  O  O31  1  0.77527615  0.42215088  0.57575377  1
  O  O32  1  0.75129857  0.91879736  0.58566930  1
  O  O33  1  0.75129857  0.08120264  0.41433070  1
  O  O34  1  0.24870143  0.41879736  0.91433070  1
  O  O35  1  0.24870143  0.58120264  0.08566930  1
  O  O36  1  0.24870143  0.08120264  0.41433070  1
  O  O37  1  0.24870143  0.91879736  0.58566930  1
  O  O38  1  0.75129857  0.58120264  0.08566930  1
  O  O39  1  0.75129857  0.41879736  0.91433070  1
  O  O40  1  0.72864913  0.74873400  0.75646193  1
  O  O41  1  0.72864913  0.25126600  0.24353807  1
  O  O42  1  0.27135087  0.24873400  0.74353807  1
  O  O43  1  0.27135087  0.75126600  0.25646193  1
  O  O44  1  0.27135087  0.25126600  0.24353807  1
  O  O45  1  0.27135087  0.74873400  0.75646193  1
  O  O46  1  0.72864913  0.75126600  0.25646193  1
  O  O47  1  0.72864913  0.24873400  0.74353807  1
loop_
_geom_bond_atom_site_label_1
_geom_bond_atom_site_label_2
_geom_bond_distance
_geom_bond_site_symmetry_2
Mg0 O13 1.996737 1_555
Mg0 O12 1.996737 1_554
Mg0 O39 2.111950 1_554
Mg0 O34 2.111950 1_554
Mg0 O38 2.111950 1_555
Mg0 O35 2.111950 1_555
Mg1 O14 1.996737 1_555
Mg1 O15 1.996737 1_545
Mg1 O32 2.111950 1_545
Mg1 O37 2.111950 1_545
Mg1 O33 2.111950 1_555
Mg1 O36 2.111950 1_555
Mg2 O28 2.124305 1_555
Mg2 O25 2.124305 1_555
Mg2 O29 2.124305 1_544
Mg2 O24 2.124305 1_544
Mg2 O19 2.124468 1_545
Mg2 O18 2.124468 1_554
Mg3 O26 2.124305 1_555
Mg3 O27 2.124305 1_555
Mg3 O30 2.124305 1_555
Mg3 O31 2.124305 1_555
Mg3 O16 2.124468 1_555
Mg3 O17 2.124468 1_555
Mg4 O40 2.035375 1_455
Mg4 O45 2.035375 1_555
Mg4 O0 2.099745 1_555
Mg4 O8 2.101051 1_555
Mg4 O24 2.214950 1_455
Mg4 O29 2.214950 1_555
Mg5 O44 2.035375 1_555
Mg5 O41 2.035375 1_455
Mg5 O1 2.099745 1_555
Mg5 O9 2.101051 1_555
Mg5 O25 2.214950 1_455
Mg5 O28 2.214950 1_555
Mg6 O42 2.035375 1_555
Mg6 O47 2.035375 1_455
Mg6 O2 2.099745 1_555
Mg6 O10 2.101051 1_555
Mg6 O31 2.214950 1_455
Mg6 O26 2.214950 1_555
Mg7 O46 2.035375 1_455
Mg7 O43 2.035375 1_555
Mg7 O3 2.099745 1_555
Mg7 O11 2.101051 1_555
Mg7 O30 2.214950 1_455
Mg7 O27 2.214950 1_555
Mg8 O20 1.997395 1_565
Mg8 O32 2.078517 1_555
Mg8 O37 2.078517 1_555
Mg8 O45 2.100992 1_555
Mg8 O40 2.100992 1_555
Mg8 O16 2.282561 1_555
Mg9 O21 1.997395 1_545
Mg9 O36 2.078517 1_555
Mg9 O33 2.078517 1_555
Mg9 O44 2.100992 1_555
Mg9 O41 2.100992 1_555
Mg9 O17 2.282561 1_555
Mg10 O22 1.997395 1_555
Mg10 O39 2.078517 1_555
Mg10 O34 2.078517 1_555
Mg10 O42 2.100992 1_555
Mg10 O47 2.100992 1_555
Mg10 O18 2.282561 1_555
Mg11 O23 1.997395 1_555
Mg11 O38 2.078517 1_555
Mg11 O35 2.078517 1_555
Mg11 O46 2.100992 1_555
Mg11 O43 2.100992 1_555
Mg11 O19 2.282561 1_555
Mg12 O12 2.018045 1_554
Mg12 O7 2.064648 1_655
Mg12 O38 2.078985 1_555
Mg12 O19 2.110820 1_555
Mg12 O0 2.115485 1_654
Mg12 O24 2.122406 1_554
Mg13 O13 2.018045 1_556
Mg13 O6 2.064648 1_655
Mg13 O39 2.078985 1_555
Mg13 O18 2.110820 1_555
Mg13 O1 2.115485 1_656
Mg13 O25 2.122406 1_556
Mg14 O14 2.018045 1_555
Mg14 O5 2.064648 1_555
Mg14 O36 2.078985 1_555
Mg14 O17 2.110820 1_555
Mg14 O2 2.115485 1_555
Mg14 O26 2.122406 1_555
Mg15 O15 2.018045 1_555
Mg15 O4 2.064648 1_555
Mg15 O37 2.078985 1_555
Mg15 O16 2.110820 1_555
Mg15 O3 2.115485 1_555
Mg15 O27 2.122406 1_555
Mg16 O13 2.018045 1_556
Mg16 O6 2.064648 1_555
Mg16 O34 2.078985 1_555
Mg16 O18 2.110820 1_555
Mg16 O1 2.115485 1_556
Mg16 O28 2.122406 1_556
Mg17 O12 2.018045 1_554
Mg17 O7 2.064648 1_555
Mg17 O35 2.078985 1_555
Mg17 O19 2.110820 1_555
Mg17 O0 2.115485 1_554
Mg17 O29 2.122406 1_554
Mg18 O15 2.018045 1_555
Mg18 O4 2.064648 1_655
Mg18 O32 2.078985 1_555
Mg18 O16 2.110820 1_555
Mg18 O3 2.115485 1_655
Mg18 O30 2.122406 1_555
Mg19 O14 2.018045 1_555
Mg19 O5 2.064648 1_655
Mg19 O33 2.078985 1_555
Mg19 O17 2.110820 1_555
Mg19 O2 2.115485 1_655
Mg19 O31 2.122406 1_555
Mg20 O22 2.063882 1_555
Mg20 O10 2.081092 1_655
Mg20 O4 2.086452 1_655
Mg20 O31 2.109574 1_555
Mg20 O16 2.121203 1_555
Mg20 O40 2.145010 1_555
Mg21 O23 2.063882 1_555
Mg21 O11 2.081092 1_655
Mg21 O5 2.086452 1_655
Mg21 O30 2.109574 1_555
Mg21 O17 2.121203 1_555
Mg21 O41 2.145010 1_555
Mg22 O20 2.063882 1_555
Mg22 O8 2.081092 1_545
Mg22 O6 2.086452 1_555
Mg22 O29 2.109574 1_545
Mg22 O18 2.121203 1_555
Mg22 O42 2.145010 1_555
Mg23 O21 2.063882 1_555
Mg23 O9 2.081092 1_565
Mg23 O7 2.086452 1_555
Mg23 O28 2.109574 1_565
Mg23 O19 2.121203 1_555
Mg23 O43 2.145010 1_555
Mg24 O23 2.063882 1_555
Mg24 O11 2.081092 1_555
Mg24 O5 2.086452 1_555
Mg24 O27 2.109574 1_555
Mg24 O17 2.121203 1_555
Mg24 O44 2.145010 1_555
Mg25 O22 2.063882 1_555
Mg25 O10 2.081092 1_555
Mg25 O4 2.086452 1_555
Mg25 O26 2.109574 1_555
Mg25 O16 2.121203 1_555
Mg25 O45 2.145010 1_555
Mg26 O21 2.063882 1_555
Mg26 O9 2.081092 1_665
Mg26 O7 2.086452 1_655
Mg26 O25 2.109574 1_565
Mg26 O19 2.121203 1_555
Mg26 O46 2.145010 1_555
Mg27 O20 2.063882 1_555
Mg27 O8 2.081092 1_645
Mg27 O6 2.086452 1_655
Mg27 O24 2.109574 1_545
Mg27 O18 2.121203 1_555
Mg27 O47 2.145010 1_555
Ge0 O25 1.903052 1_455
Ge0 O28 1.903052 1_555
Ge0 O24 1.903052 1_444
Ge0 O29 1.903052 1_544
Ge0 O6 1.922080 1_554
Ge0 O7 1.922080 1_545
Ge1 O30 1.903052 1_455
Ge1 O27 1.903052 1_555
Ge1 O31 1.903052 1_455
Ge1 O26 1.903052 1_555
Ge1 O4 1.922080 1_555
Ge1 O5 1.922080 1_555
Ge2 O10 1.781510 1_555
Ge2 O39 1.783748 1_455
Ge2 O34 1.783748 1_555
Ge2 O0 1.787613 1_555
Ge3 O11 1.781510 1_555
Ge3 O35 1.783748 1_555
Ge3 O38 1.783748 1_455
Ge3 O1 1.787613 1_555
Ge4 O8 1.781510 1_555
Ge4 O37 1.783748 1_555
Ge4 O32 1.783748 1_455
Ge4 O2 1.787613 1_565
Ge5 O9 1.781510 1_555
Ge5 O36 1.783748 1_555
Ge5 O33 1.783748 1_455
Ge5 O3 1.787613 1_545
Ge6 O12 1.725364 1_555
Ge6 O45 1.761733 1_555
Ge6 O40 1.761733 1_555
Ge6 O22 1.774095 1_555
Ge7 O13 1.725364 1_555
Ge7 O44 1.761733 1_555
Ge7 O41 1.761733 1_555
Ge7 O23 1.774095 1_555
Ge8 O14 1.725364 1_555
Ge8 O42 1.761733 1_555
Ge8 O47 1.761733 1_555
Ge8 O20 1.774095 1_555
Ge9 O15 1.725364 1_555
Ge9 O43 1.761733 1_555
Ge9 O46 1.761733 1_555
Ge9 O21 1.774095 1_555
