# generated using pymatgen
data_Ba2YbMgSbO6
_symmetry_space_group_name_H-M   'P 1'
_cell_length_a   6.53149994
_cell_length_b   6.53148050
_cell_length_c   6.07077200
_cell_angle_alpha   62.30674631
_cell_angle_beta   62.30671177
_cell_angle_gamma   55.53643490
_symmetry_Int_Tables_number   1
_chemical_formula_structural   Ba2YbMgSbO6
_chemical_formula_sum   'Ba2 Yb1 Mg1 Sb1 O6'
_cell_volume   181.70354279
_cell_formula_units_Z   1
loop_
 _symmetry_equiv_pos_site_id
 _symmetry_equiv_pos_as_xyz
  1  'x, y, z'
loop_
 _atom_site_type_symbol
 _atom_site_label
 _atom_site_symmetry_multiplicity
 _atom_site_fract_x
 _atom_site_fract_y
 _atom_site_fract_z
 _atom_site_occupancy
  Ba  Ba0  1  0.69153600  0.69154600  0.80846200  1
  Ba  Ba1  1  0.30845900  0.30846000  0.19154100  1
  Yb  Yb0  1  0.50000500  0.50000300  0.49999500  1
  Mg  Mg0  1  0.00000100  0.99999900  0.49999800  1
  Sb  Sb0  1  0.99999800  0.00000100  0.00000100  1
  O  O0  1  0.23239200  0.76760600  0.74198800  1
  O  O1  1  0.23239300  0.76761100  0.25801100  1
  O  O2  1  0.76760700  0.23238900  0.74198800  1
  O  O3  1  0.22666600  0.22666300  0.77333200  1
  O  O4  1  0.76761100  0.23238900  0.25801500  1
  O  O5  1  0.77333200  0.77333200  0.22666700  1
loop_
_geom_bond_atom_site_label_1
_geom_bond_atom_site_label_2
_geom_bond_distance
_geom_bond_site_symmetry_2
Ba0 O1 2.941960 1_556
Ba0 O0 2.942014 1_555
Ba0 O4 2.942017 1_556
Ba0 O2 2.942054 1_555
Ba0 Mg0 3.034001 1_655
Ba0 O3 3.062502 1_565
Ba0 O3 3.062583 1_655
Ba0 O5 3.140172 1_556
Ba0 O5 3.140204 1_555
Ba1 O0 2.941981 1_554
Ba1 O2 2.941990 1_554
Ba1 O1 2.942018 1_555
Ba1 O4 2.942032 1_555
Ba1 Mg0 3.034006 1_545
Ba1 O5 3.062545 1_455
Ba1 O5 3.062549 1_545
Ba1 O3 3.140168 1_555
Ba1 O3 3.140229 1_554
Mg0 O4 2.039203 1_465
Mg0 O1 2.039207 1_555
Mg0 O2 2.039229 1_465
Mg0 O0 2.039238 1_555
O0 Sb0 2.110403 1_466
O0 Yb0 2.193317 1_555
O1 Sb0 2.110395 1_465
O1 Yb0 2.193323 1_555
O2 Sb0 2.110392 1_556
O2 Yb0 2.193318 1_555
O3 Sb0 2.229476 1_456
O3 Yb0 2.688566 1_555
O4 Sb0 2.110379 1_555
O4 Yb0 2.193310 1_555
O5 Sb0 2.229501 1_565
O5 Yb0 2.688453 1_555
