# generated using pymatgen
data_Ba2MnMoO6
_symmetry_space_group_name_H-M   'P 1'
_cell_length_a   5.88137151
_cell_length_b   5.88137067
_cell_length_c   10.18683375
_cell_angle_alpha   106.77865099
_cell_angle_beta   73.22134409
_cell_angle_gamma   119.99999968
_symmetry_Int_Tables_number   1
_chemical_formula_structural   Ba2MnMoO6
_chemical_formula_sum   'Ba4 Mn2 Mo2 O12'
_cell_volume   287.70721949
_cell_formula_units_Z   2
loop_
 _symmetry_equiv_pos_site_id
 _symmetry_equiv_pos_as_xyz
  1  'x, y, z'
loop_
 _atom_site_type_symbol
 _atom_site_label
 _atom_site_symmetry_multiplicity
 _atom_site_fract_x
 _atom_site_fract_y
 _atom_site_fract_z
 _atom_site_occupancy
  Ba  Ba0  1  0.87500000  0.12500000  0.37500000  1
  Ba  Ba1  1  0.37500000  0.62500000  0.87500000  1
  Ba  Ba2  1  0.62500000  0.37500000  0.12500000  1
  Ba  Ba3  1  0.12500000  0.87500000  0.62500000  1
  Mn  Mn0  1  0.50000000  0.50000000  0.50000000  1
  Mn  Mn1  1  0.00000000  0.00000000  0.00000000  1
  Mo  Mo0  1  0.75000000  0.25000000  0.75000000  1
  Mo  Mo1  1  0.25000000  0.75000000  0.25000000  1
  O  O0  1  0.36770000  0.10310100  0.36770000  1
  O  O1  1  0.86770000  0.60310100  0.86770000  1
  O  O2  1  0.13230000  0.86770000  0.13230000  1
  O  O3  1  0.63230000  0.36770000  0.63230000  1
  O  O4  1  0.36770000  0.63230000  0.36770000  1
  O  O5  1  0.86770000  0.13230000  0.86770000  1
  O  O6  1  0.89689900  0.63230000  0.36770000  1
  O  O7  1  0.39689900  0.13230000  0.86770000  1
  O  O8  1  0.13230000  0.39689900  0.13230000  1
  O  O9  1  0.63230000  0.89689900  0.63230000  1
  O  O10  1  0.60310100  0.86770000  0.13230000  1
  O  O11  1  0.10310100  0.36770000  0.63230000  1
loop_
_geom_bond_atom_site_label_1
_geom_bond_atom_site_label_2
_geom_bond_distance
_geom_bond_site_symmetry_2
Ba0 O6 2.943189 1_545
Ba0 O8 2.943189 1_655
Ba0 O0 2.943189 1_655
Ba0 O10 2.943189 1_545
Ba0 O4 2.943192 1_655
Ba0 O4 2.943192 1_545
Ba0 O2 2.943192 1_645
Ba0 O3 2.943192 1_555
Ba0 O6 2.943194 1_555
Ba0 O9 2.943194 1_545
Ba0 O11 2.943195 1_655
Ba0 O0 2.943195 1_555
Ba1 O7 2.943189 1_555
Ba1 O9 2.943189 1_555
Ba1 O1 2.943189 1_555
Ba1 O11 2.943189 1_555
Ba1 O5 2.943192 1_565
Ba1 O5 2.943192 1_455
Ba1 O3 2.943192 1_555
Ba1 O2 2.943192 1_556
Ba1 O7 2.943194 1_565
Ba1 O8 2.943194 1_556
Ba1 O10 2.943195 1_556
Ba1 O1 2.943195 1_455
Ba2 O10 2.943189 1_555
Ba2 O0 2.943189 1_555
Ba2 O8 2.943189 1_555
Ba2 O6 2.943189 1_555
Ba2 O2 2.943192 1_545
Ba2 O2 2.943192 1_655
Ba2 O4 2.943192 1_555
Ba2 O5 2.943192 1_554
Ba2 O10 2.943194 1_545
Ba2 O1 2.943194 1_554
Ba2 O7 2.943195 1_554
Ba2 O8 2.943195 1_655
Ba3 O11 2.943189 1_565
Ba3 O1 2.943189 1_455
Ba3 O9 2.943189 1_455
Ba3 O7 2.943189 1_565
Ba3 O3 2.943192 1_455
Ba3 O3 2.943192 1_565
Ba3 O5 2.943192 1_465
Ba3 O4 2.943192 1_555
Ba3 O11 2.943194 1_555
Ba3 O0 2.943194 1_565
Ba3 O6 2.943195 1_455
Ba3 O9 2.943195 1_555
Mn0 O9 2.200810 1_555
Mn0 O0 2.200810 1_555
Mn0 O11 2.200810 1_555
Mn0 O6 2.200810 1_555
Mn0 O3 2.200814 1_555
Mn0 O4 2.200814 1_555
Mn1 O1 2.200810 1_444
Mn1 O8 2.200810 1_555
Mn1 O7 2.200810 1_554
Mn1 O10 2.200810 1_445
Mn1 O5 2.200814 1_454
Mn1 O2 2.200814 1_545
Mo0 O5 1.957943 1_555
Mo0 O3 1.957943 1_555
Mo0 O1 1.957947 1_555
Mo0 O9 1.957947 1_545
Mo0 O7 1.957947 1_555
Mo0 O11 1.957947 1_655
Mo1 O2 1.957943 1_555
Mo1 O4 1.957943 1_555
Mo1 O8 1.957947 1_555
Mo1 O0 1.957947 1_565
Mo1 O10 1.957947 1_555
Mo1 O6 1.957947 1_455
