# generated using pymatgen
data_Na6NbZn5P3(SO6)6
_symmetry_space_group_name_H-M   'P 1'
_cell_length_a   8.90225434
_cell_length_b   8.86996808
_cell_length_c   22.34170568
_cell_angle_alpha   90.16283883
_cell_angle_beta   90.00000000
_cell_angle_gamma   120.12048189
_symmetry_Int_Tables_number   1
_chemical_formula_structural   Na6NbZn5P3(SO6)6
_chemical_formula_sum   'Na12 Nb2 Zn10 P6 S12 O72'
_cell_volume   1525.94236152
_cell_formula_units_Z   2
loop_
 _symmetry_equiv_pos_site_id
 _symmetry_equiv_pos_as_xyz
  1  'x, y, z'
loop_
 _atom_site_type_symbol
 _atom_site_label
 _atom_site_symmetry_multiplicity
 _atom_site_fract_x
 _atom_site_fract_y
 _atom_site_fract_z
 _atom_site_occupancy
  Na  Na0  1  0.30234523  0.33379292  0.58136820  1
  Na  Na1  1  0.67028792  0.97144837  0.58955366  1
  Na  Na2  1  0.30116145  0.97144837  0.08955366  1
  Na  Na3  1  0.03144869  0.33379292  0.08136820  1
  Na  Na4  1  0.96226194  0.66592965  0.91108373  1
  Na  Na5  1  0.70366670  0.66592965  0.41108373  1
  Na  Na6  1  0.02409450  0.00962701  0.49525332  1
  Na  Na7  1  0.98553250  0.00962701  0.99525332  1
  Na  Na8  1  0.67057934  0.31893559  0.82770946  1
  Na  Na9  1  0.64835725  0.31893559  0.32770946  1
  Na  Na10  1  0.35805071  0.67625250  0.16315552  1
  Na  Na11  1  0.31820079  0.67625250  0.66315552  1
  Nb  Nb0  1  0.33480338  0.66436040  0.31245590  1
  Nb  Nb1  1  0.32955602  0.66436040  0.81245590  1
  Zn  Zn0  1  0.01893505  0.00961832  0.34504542  1
  Zn  Zn1  1  0.99068327  0.00961832  0.84504542  1
  Zn  Zn2  1  0.98430874  0.97892642  0.66206242  1
  Zn  Zn3  1  0.99461768  0.97892642  0.16206242  1
  Zn  Zn4  1  0.68338315  0.33802127  0.68758515  1
  Zn  Zn5  1  0.65463911  0.33802127  0.18758515  1
  Zn  Zn6  1  0.67183148  0.32856145  0.98129538  1
  Zn  Zn7  1  0.65673096  0.32856145  0.48129538  1
  Zn  Zn8  1  0.33623274  0.65574236  0.01136935  1
  Zn  Zn9  1  0.31950862  0.65574236  0.51136935  1
  P  P0  1  0.30320803  0.00420679  0.24882532  1
  P  P1  1  0.71152575  0.70461791  0.25459062  1
  P  P2  1  0.99309217  0.70461791  0.75459062  1
  P  P3  1  0.70099876  0.00420679  0.74882532  1
  P  P4  1  0.03639573  0.36413964  0.91975334  1
  P  P5  1  0.32774292  0.36413964  0.41975334  1
  S  S0  1  0.99657069  0.29521430  0.24934153  1
  S  S1  1  0.29864360  0.29521430  0.74934153  1
  S  S2  1  0.96242492  0.33473458  0.58224743  1
  S  S3  1  0.36999923  0.03764092  0.58308874  1
  S  S4  1  0.66983382  0.63087720  0.58182769  1
  S  S5  1  0.96104438  0.63087720  0.08182769  1
  S  S6  1  0.66764269  0.03764092  0.08308874  1
  S  S7  1  0.37231066  0.33473458  0.08224743  1
  S  S8  1  0.62864531  0.66614437  0.91773839  1
  S  S9  1  0.33460217  0.96302702  0.91858284  1
  S  S10  1  0.62842385  0.96302702  0.41858284  1
  S  S11  1  0.03749806  0.66614437  0.41773839  1
  O  O0  1  0.21460317  0.02914097  0.30216670  1
  O  O1  1  0.80860698  0.78913357  0.31254564  1
  O  O2  1  0.97598117  0.19054829  0.30181088  1
  O  O3  1  0.21456712  0.19054829  0.80181088  1
  O  O4  1  0.98052659  0.78913357  0.81254564  1
  O  O5  1  0.81453779  0.02914097  0.80216670  1
  O  O6  1  0.76221616  0.96381318  0.68920832  1
  O  O7  1  0.19606121  0.22966074  0.69320662  1
  O  O8  1  0.04113772  0.81761388  0.69865316  1
  O  O9  1  0.77647616  0.81761388  0.19865316  1
  O  O10  1  0.03359953  0.22966074  0.19320662  1
  O  O11  1  0.20159703  0.96381318  0.18920832  1
  O  O12  1  0.88162594  0.35281823  0.63693860  1
  O  O13  1  0.48023375  0.12069254  0.63610950  1
  O  O14  1  0.64595036  0.51774277  0.63317427  1
  O  O15  1  0.87179341  0.51774277  0.13317427  1
  O  O16  1  0.64045979  0.12069254  0.13610950  1
  O  O17  1  0.47119328  0.35281823  0.13693860  1
  O  O18  1  0.45466481  0.31155329  0.02811162  1
  O  O19  1  0.86911895  0.55473655  0.02422089  1
  O  O20  1  0.69480509  0.14390654  0.02806546  1
  O  O21  1  0.44910245  0.14390654  0.52806546  1
  O  O22  1  0.68561861  0.55473655  0.52422089  1
  O  O23  1  0.85688948  0.31155329  0.52811162  1
  O  O24  1  0.55226389  0.69069404  0.97260856  1
  O  O25  1  0.13097009  0.44387507  0.97945422  1
  O  O26  1  0.31332842  0.86099878  0.97385004  1
  O  O27  1  0.54766936  0.86099878  0.47385004  1
  O  O28  1  0.31290398  0.44387507  0.47945422  1
  O  O29  1  0.13842915  0.69069404  0.47260856  1
  O  O30  1  0.13556548  0.65683239  0.36425495  1
  O  O31  1  0.51274718  0.86273504  0.36573416  1
  O  O32  1  0.34216203  0.49496230  0.36747583  1
  O  O33  1  0.15279926  0.49496230  0.86747583  1
  O  O34  1  0.34998686  0.86273504  0.86573416  1
  O  O35  1  0.52126591  0.65683239  0.86425495  1
  O  O36  1  0.01073721  0.81690497  0.41243178  1
  O  O37  1  0.79667218  0.97226108  0.41143556  1
  O  O38  1  0.16700256  0.18738329  0.41057836  1
  O  O39  1  0.02038073  0.18738329  0.91057836  1
  O  O40  1  0.17558890  0.97226108  0.91143556  1
  O  O41  1  0.80616777  0.81690497  0.91243178  1
  O  O42  1  0.98303356  0.17627923  0.58593503  1
  O  O43  1  0.19629244  0.02277601  0.58871384  1
  O  O44  1  0.82402476  0.80972129  0.58684481  1
  O  O45  1  0.98569653  0.80972129  0.08684481  1
  O  O46  1  0.82648357  0.02277601  0.08871384  1
  O  O47  1  0.19324566  0.17627923  0.08593503  1
  O  O48  1  0.65998525  0.15110052  0.74476042  1
  O  O49  1  0.47597186  0.32877489  0.74380106  1
  O  O50  1  0.83850904  0.52091327  0.74867610  1
  O  O51  1  0.68240523  0.52091327  0.24867610  1
  O  O52  1  0.85280403  0.32877489  0.24380106  1
  O  O53  1  0.49111627  0.15110052  0.24476042  1
  O  O54  1  0.63585089  0.50264839  0.91743966  1
  O  O55  1  0.86445998  0.36893674  0.91592858  1
  O  O56  1  0.49386711  0.13450794  0.91822614  1
  O  O57  1  0.64064184  0.13450794  0.41822614  1
  O  O58  1  0.50447776  0.36893674  0.41592858  1
  O  O59  1  0.86679850  0.50264839  0.41743966  1
  O  O60  1  0.34851629  0.49066246  0.07881488  1
  O  O61  1  0.14064747  0.65092314  0.08012519  1
  O  O62  1  0.50707573  0.86203247  0.07693128  1
  O  O63  1  0.35495574  0.86203247  0.57693128  1
  O  O64  1  0.51027467  0.65092314  0.58012519  1
  O  O65  1  0.14214516  0.49066246  0.57881488  1
  O  O66  1  0.31504170  0.83039036  0.26087498  1
  O  O67  1  0.51776416  0.68127221  0.26252945  1
  O  O68  1  0.16206476  0.47726760  0.25776306  1
  O  O69  1  0.31520185  0.47726760  0.75776306  1
  O  O70  1  0.16350705  0.68127221  0.76252945  1
  O  O71  1  0.51534766  0.83039036  0.76087498  1
loop_
_geom_bond_atom_site_label_1
_geom_bond_atom_site_label_2
_geom_bond_distance
_geom_bond_site_symmetry_2
Na0 O43 2.432556 1_555
Na0 O65 2.442387 1_555
Na0 O42 2.461220 1_455
Na0 O28 2.463165 1_555
Na0 O64 2.472723 1_555
Na0 O7 2.669771 1_555
Na0 O21 2.856386 1_555
Na0 O14 2.887676 1_555
Na1 O6 2.384931 1_555
Na1 O44 2.429919 1_555
Na1 O42 2.446012 1_565
Na1 O64 2.467474 1_555
Na1 O63 2.483092 1_555
Na1 O27 2.783154 1_555
Na1 O13 2.817256 1_565
Na1 O23 2.956088 1_565
Na2 O11 2.384935 1_555
Na2 O45 2.429927 1_455
Na2 O47 2.446018 1_565
Na2 O61 2.467474 1_555
Na2 O62 2.483075 1_555
Na2 O26 2.783150 1_554
Na2 O16 2.817256 1_565
Na2 O18 2.956088 1_565
Na3 O46 2.432557 1_455
Na3 O60 2.442371 1_555
Na3 O47 2.461212 1_555
Na3 O25 2.463163 1_554
Na3 O61 2.472726 1_555
Na3 O10 2.669770 1_555
Na3 O20 2.856386 1_455
Na3 O15 2.887676 1_455
Na4 O55 2.325742 1_555
Na4 O41 2.364865 1_555
Na4 O40 2.410496 1_655
Na4 O4 2.429540 1_555
Na4 O54 2.517691 1_555
Na4 O19 2.691251 1_556
Na5 O58 2.325738 1_555
Na5 O36 2.364873 1_655
Na5 O37 2.410494 1_555
Na5 O1 2.429541 1_555
Na5 O59 2.517706 1_555
Na5 O22 2.691253 1_555
Na6 O38 2.384761 1_555
Na6 O36 2.477542 1_545
Na6 O43 2.557878 1_555
Na6 O42 2.636016 1_455
Na6 O37 2.653018 1_445
Na6 O44 2.711954 1_445
Na7 O39 2.384761 1_655
Na7 O41 2.477542 1_545
Na7 O46 2.557878 1_556
Na7 O47 2.636016 1_656
Na7 O40 2.653018 1_645
Na7 O45 2.711955 1_546
Na8 O48 2.345835 1_555
Na8 O50 2.427405 1_555
Na8 O55 2.507420 1_555
Na8 O49 2.583796 1_555
Na8 O56 2.583893 1_555
Na8 O54 2.693866 1_555
Na9 O53 2.345835 1_555
Na9 O51 2.427405 1_555
Na9 O58 2.507420 1_555
Na9 O52 2.583796 1_555
Na9 O57 2.583893 1_555
Na9 O59 2.693866 1_555
Na10 O62 2.451614 1_555
Na10 O60 2.471817 1_555
Na10 O61 2.607406 1_555
Na10 O67 2.624622 1_555
Na10 O66 2.700126 1_555
Na10 O68 2.749094 1_555
Na11 O63 2.451614 1_555
Na11 O65 2.471817 1_555
Na11 O64 2.607406 1_555
Na11 O70 2.624622 1_555
Na11 O71 2.700126 1_555
Na11 O69 2.749094 1_555
Nb0 O67 1.917112 1_555
Nb0 O66 1.948703 1_555
Nb0 O32 1.970350 1_555
Nb0 O68 2.009739 1_555
Nb0 O31 2.052551 1_555
Nb0 O30 2.090747 1_555
Nb1 O70 1.917112 1_555
Nb1 O71 1.948703 1_555
Nb1 O33 1.970351 1_555
Nb1 O69 2.009739 1_555
Nb1 O34 2.052551 1_555
Nb1 O35 2.090747 1_555
O0 P0 1.504965 1_555
O0 Zn0 1.918359 1_555
O1 P1 1.526328 1_555
O1 Zn0 2.043181 1_665
O2 S0 1.450888 1_555
O2 Zn0 2.068691 1_655
O3 S1 1.450888 1_555
O3 Zn1 2.068691 1_455
O4 P2 1.526328 1_555
O4 Zn1 2.043181 1_565
O5 P3 1.504965 1_555
O5 Zn1 1.918359 1_555
O6 P3 1.546836 1_565
O6 Zn2 2.007305 1_555
O7 S1 1.485891 1_555
O7 Zn2 2.183436 1_445
O8 P2 1.525190 1_455
O8 Zn2 1.924758 1_455
O9 P1 1.525190 1_555
O9 Zn3 1.924758 1_555
O10 S0 1.485891 1_455
O10 Zn3 2.183436 1_445
O11 P0 1.546836 1_565
O11 Zn3 2.007305 1_455
O12 S2 1.466567 1_555
O12 Zn4 2.044629 1_555
O13 S3 1.475942 1_555
O13 Zn4 2.190380 1_555
O14 S4 1.469905 1_555
O14 Zn4 2.161991 1_555
O15 S5 1.469905 1_555
O15 Zn5 2.161991 1_555
O16 S6 1.475942 1_555
O16 Zn5 2.190380 1_555
O17 S7 1.466567 1_555
O17 Zn5 2.044629 1_555
O18 S7 1.480712 1_555
O18 Zn6 2.136002 1_554
O19 S5 1.490848 1_555
O19 Zn6 2.117036 1_554
O20 S6 1.495314 1_555
O20 Zn6 2.040166 1_554
O21 S3 1.495314 1_555
O21 Zn7 2.040166 1_555
O22 S4 1.490848 1_555
O22 Zn7 2.117036 1_555
O23 S2 1.480712 1_555
O23 Zn7 2.136002 1_555
O24 S8 1.469583 1_555
O24 Zn8 1.986891 1_556
O25 P4 1.544388 1_555
O25 Zn8 1.981154 1_556
O26 S9 1.487900 1_555
O26 Zn8 2.107162 1_556
O27 S10 1.487900 1_555
O27 Zn9 2.107162 1_555
O28 P5 1.544388 1_555
O28 Zn9 1.981154 1_555
O29 S11 1.469583 1_555
O29 Zn9 1.986891 1_555
O30 S11 1.506191 1_555
O31 S10 1.523336 1_555
O32 P5 1.607902 1_555
O33 P4 1.607902 1_555
O34 S9 1.523336 1_555
O35 S8 1.506191 1_555
O36 S11 1.476367 1_555
O36 Zn0 2.254612 1_565
O37 S10 1.467150 1_555
O37 Zn0 2.360015 1_665
O38 P5 1.514674 1_555
O38 Zn0 2.065972 1_555
O39 P4 1.514678 1_555
O39 Zn1 2.065972 1_455
O40 S9 1.467142 1_555
O40 Zn1 2.360015 1_465
O41 S8 1.476373 1_555
O41 Zn1 2.254612 1_565
O42 S2 1.508414 1_555
O42 Zn2 2.448278 1_545
O43 S3 1.489945 1_555
O43 Zn2 2.380116 1_445
O44 S4 1.492240 1_555
O44 Zn2 2.224617 1_555
O45 S5 1.492243 1_555
O45 Zn3 2.224617 1_555
O46 S6 1.489936 1_555
O46 Zn3 2.380116 1_545
O47 S7 1.508419 1_555
O47 Zn3 2.448278 1_445
O48 P3 1.522281 1_555
O48 Zn4 2.022240 1_555
O49 S1 1.457585 1_555
O49 Zn4 2.200467 1_555
O50 P2 1.521381 1_555
O50 Zn4 2.034855 1_555
O51 P1 1.521384 1_555
O51 Zn5 2.034855 1_555
O52 S0 1.457576 1_555
O52 Zn5 2.200467 1_555
O53 P0 1.522287 1_555
O53 Zn5 2.022240 1_555
O54 S8 1.483428 1_555
O54 Zn6 2.243039 1_555
O55 P4 1.554761 1_655
O55 Zn6 2.142028 1_555
O56 S9 1.469516 1_545
O56 Zn6 2.169674 1_555
O57 S10 1.469508 1_545
O57 Zn7 2.169674 1_555
O58 P5 1.554779 1_555
O58 Zn7 2.142028 1_555
O59 S11 1.483419 1_655
O59 Zn7 2.243039 1_555
O60 S7 1.502759 1_555
O60 Zn8 2.144721 1_555
O61 S5 1.517949 1_455
O61 Zn8 2.306248 1_555
O62 S6 1.500850 1_565
O62 Zn8 2.235731 1_555
O63 S3 1.500843 1_565
O63 Zn9 2.235731 1_555
O64 S4 1.517966 1_555
O64 Zn9 2.306248 1_555
O65 S2 1.502748 1_455
O65 Zn9 2.144721 1_555
O66 P0 1.620469 1_565
O67 P1 1.640546 1_555
O68 S0 1.556950 1_455
O69 S1 1.556954 1_555
O70 P2 1.640537 1_455
O71 P3 1.620474 1_565
