# generated using pymatgen
data_Cs2CN2
_symmetry_space_group_name_H-M   'P 1'
_cell_length_a   7.11061260
_cell_length_b   5.94674103
_cell_length_c   12.74116458
_cell_angle_alpha   83.11488510
_cell_angle_beta   90.25949055
_cell_angle_gamma   127.00633561
_symmetry_Int_Tables_number   1
_chemical_formula_structural   Cs2CN2
_chemical_formula_sum   'Cs6 C3 N6'
_cell_volume   425.57743006
_cell_formula_units_Z   3
loop_
 _symmetry_equiv_pos_site_id
 _symmetry_equiv_pos_as_xyz
  1  'x, y, z'
loop_
 _atom_site_type_symbol
 _atom_site_label
 _atom_site_symmetry_multiplicity
 _atom_site_fract_x
 _atom_site_fract_y
 _atom_site_fract_z
 _atom_site_occupancy
  Cs  Cs0  1  0.83874159  0.17102101  0.41726834  1
  Cs  Cs1  1  0.16125841  0.82897899  0.58273166  1
  Cs  Cs2  1  0.50171761  0.49777642  0.24922011  1
  Cs  Cs3  1  0.49828239  0.50222358  0.75077989  1
  Cs  Cs4  1  0.83039171  0.16315305  0.91590971  1
  Cs  Cs5  1  0.16960829  0.83684695  0.08409029  1
  C  C0  1  0.50000000  0.50000000  -0.00000000  1
  C  C1  1  0.82945005  0.16562141  0.66667792  1
  C  C2  1  0.17054995  0.83437759  0.33332208  1
  N  N0  1  0.67364933  0.49930027  0.99982237  1
  N  N1  1  0.32635067  0.50069973  0.00017763  1
  N  N2  1  0.00240588  0.16352790  0.66615493  1
  N  N3  1  -0.00240588  0.83647210  0.33384507  1
  N  N4  1  0.34360179  0.83250651  0.33263220  1
  N  N5  1  0.65639821  0.16749349  0.66736780  1
loop_
_geom_bond_atom_site_label_1
_geom_bond_atom_site_label_2
_geom_bond_distance
_geom_bond_site_symmetry_2
Cs0 N4 3.092744 1_545
Cs0 N3 3.096241 1_645
Cs0 N2 3.377474 1_655
Cs0 N4 3.397420 1_655
Cs0 N3 3.418641 1_655
Cs0 N5 3.438655 1_555
Cs1 N5 3.092744 1_565
Cs1 N2 3.096241 1_565
Cs1 N3 3.377474 1_555
Cs1 N5 3.397420 1_455
Cs1 N2 3.418641 1_555
Cs1 N4 3.438655 1_555
Cs2 N4 3.093211 1_555
Cs2 N3 3.096596 1_655
Cs2 N3 3.394983 1_545
Cs2 N1 3.405990 1_555
Cs2 N0 3.406888 1_554
Cs2 N4 3.419538 1_545
Cs3 N5 3.093211 1_555
Cs3 N2 3.096596 1_555
Cs3 N2 3.394983 1_665
Cs3 N0 3.405990 1_555
Cs3 N1 3.406888 1_556
Cs3 N5 3.419538 1_565
Cs4 N1 3.095084 1_656
Cs4 N0 3.096189 1_555
Cs4 N1 3.397260 1_546
Cs4 N5 3.397464 1_555
Cs4 N2 3.413576 1_655
Cs4 N0 3.416470 1_545
Cs5 N0 3.095084 1_454
Cs5 N1 3.096189 1_555
Cs5 N0 3.397260 1_564
Cs5 N4 3.397464 1_555
Cs5 N3 3.413576 1_555
Cs5 N1 3.416470 1_565
C0 N1 1.237275 1_555
C0 N0 1.237275 1_554
C0 Cs2 3.173795 1_555
C0 Cs3 3.173795 1_554
C0 Cs4 3.174267 1_564
C0 Cs5 3.174267 1_545
C1 N5 1.237318 1_555
C1 N2 1.237411 1_655
C1 Cs4 3.173772 1_555
C1 Cs0 3.174664 1_555
C1 Cs1 3.174787 1_655
C1 Cs3 3.175366 1_545
C2 N4 1.237314 1_555
C2 N3 1.237415 1_555
C2 Cs5 3.173772 1_555
C2 Cs1 3.174665 1_555
C2 Cs0 3.174783 1_455
C2 Cs2 3.175371 1_565
