# generated using pymatgen
data_Ba2YbMgSbO6
_symmetry_space_group_name_H-M   'P 1'
_cell_length_a   6.81759820
_cell_length_b   6.11154045
_cell_length_c   6.11153404
_cell_angle_alpha   60.03919443
_cell_angle_beta   63.32427023
_cell_angle_gamma   63.32306482
_symmetry_Int_Tables_number   1
_chemical_formula_structural   Ba2YbMgSbO6
_chemical_formula_sum   'Ba2 Yb1 Mg1 Sb1 O6'
_cell_volume   188.64196266
_cell_formula_units_Z   1
loop_
 _symmetry_equiv_pos_site_id
 _symmetry_equiv_pos_as_xyz
  1  'x, y, z'
loop_
 _atom_site_type_symbol
 _atom_site_label
 _atom_site_symmetry_multiplicity
 _atom_site_fract_x
 _atom_site_fract_y
 _atom_site_fract_z
 _atom_site_occupancy
  Ba  Ba0  1  0.57594887  0.81013501  0.81010274  1
  Ba  Ba1  1  0.19009437  0.27134437  0.27132535  1
  Yb  Yb0  1  0.58598980  0.47191189  0.47190386  1
  Mg  Mg0  1  0.12773554  0.62651442  0.62645768  1
  Sb  Sb0  1  0.97510203  0.00847831  0.00848225  1
  O  O0  1  0.26588920  0.74361522  0.74356909  1
  O  O1  1  0.26024661  0.74586823  0.25260788  1
  O  O2  1  0.80115031  0.22634106  0.73734163  1
  O  O3  1  0.26019432  0.25264855  0.74586764  1
  O  O4  1  0.79184166  0.23088045  0.23097877  1
  O  O5  1  0.80122529  0.73726149  0.22636311  1
loop_
_geom_bond_atom_site_label_1
_geom_bond_atom_site_label_2
_geom_bond_distance
_geom_bond_site_symmetry_2
Ba0 O0 2.550990 1_555
Ba0 O1 2.563650 1_556
Ba0 O3 2.563788 1_565
Ba1 O5 2.882072 1_455
Ba1 O2 2.882713 1_455
Ba1 O4 2.959528 1_455
Ba1 O3 3.081182 1_554
Ba1 O1 3.081235 1_545
Ba1 O3 3.084962 1_555
Ba1 O1 3.084995 1_555
Ba1 O0 3.089355 1_545
Ba1 O0 3.089538 1_554
Mg0 O0 1.906238 1_555
Mg0 O1 1.908472 1_555
Mg0 O3 1.908486 1_555
O0 Sb0 2.454782 1_466
O0 Yb0 2.554009 1_555
O1 Sb0 2.447855 1_465
O1 Yb0 2.573682 1_555
O2 Sb0 2.016953 1_556
O2 Yb0 2.182627 1_555
O3 Sb0 2.447801 1_456
O3 Yb0 2.573902 1_555
O4 Sb0 2.013281 1_555
O4 Yb0 2.182261 1_555
O5 Sb0 2.017000 1_565
O5 Yb0 2.182643 1_555
