# generated using pymatgen
data_K3Ce(PS4)2
_symmetry_space_group_name_H-M   'P 1'
_cell_length_a   9.20157214
_cell_length_b   9.67046169
_cell_length_c   17.32757688
_cell_angle_alpha   90.00000000
_cell_angle_beta   90.00000000
_cell_angle_gamma   89.86499249
_symmetry_Int_Tables_number   1
_chemical_formula_structural   K3Ce(PS4)2
_chemical_formula_sum   'K12 Ce4 P8 S32'
_cell_volume   1541.86330510
_cell_formula_units_Z   4
loop_
 _symmetry_equiv_pos_site_id
 _symmetry_equiv_pos_as_xyz
  1  'x, y, z'
loop_
 _atom_site_type_symbol
 _atom_site_label
 _atom_site_symmetry_multiplicity
 _atom_site_fract_x
 _atom_site_fract_y
 _atom_site_fract_z
 _atom_site_occupancy
  P  P0  1  0.47554215  0.21928845  0.90175825  1
  P  P1  1  0.99500203  0.25738936  0.60179899  1
  P  P2  1  0.00499797  0.24261064  0.10179899  1
  P  P3  1  0.00499797  0.74261064  0.39820101  1
  P  P4  1  0.99500203  0.75738936  0.89820101  1
  P  P5  1  0.52445785  0.28071155  0.40175825  1
  P  P6  1  0.52445785  0.78071155  0.09824175  1
  P  P7  1  0.47554215  0.71928845  0.59824175  1
  S  S0  1  0.21335552  0.72538306  0.88466910  1
  S  S1  1  0.31390296  0.33002370  0.37179743  1
  S  S2  1  0.31390296  0.83002370  0.12820257  1
  S  S3  1  0.68609704  0.66997630  0.62820257  1
  S  S4  1  0.04893166  0.24928659  0.98472093  1
  S  S5  1  0.95106834  0.25071341  0.48472093  1
  S  S6  1  0.95106834  0.75071341  0.01527907  1
  S  S7  1  0.04893166  0.74928659  0.51527907  1
  S  S8  1  0.87656578  0.63585885  0.82760987  1
  S  S9  1  0.12343422  0.86414115  0.32760987  1
  S  S10  1  0.12343422  0.36414115  0.17239013  1
  S  S11  1  0.87656578  0.13585885  0.67239013  1
  S  S12  1  0.54037418  0.82083151  0.98072766  1
  S  S13  1  0.45962582  0.67916849  0.48072766  1
  S  S14  1  0.45962582  0.17916849  0.01927234  1
  S  S15  1  0.54037418  0.32083151  0.51927234  1
  S  S16  1  0.33428242  0.08996731  0.84503676  1
  S  S17  1  0.43505359  0.91904675  0.62581871  1
  S  S18  1  0.66571758  0.91003269  0.15496324  1
  S  S19  1  0.33428242  0.58996731  0.65496324  1
  S  S20  1  0.66571758  0.41003269  0.34503676  1
  S  S21  1  0.78664448  0.77461694  0.38466910  1
  S  S22  1  0.78664448  0.27461694  0.11533090  1
  S  S23  1  0.21335552  0.22538306  0.61533090  1
  S  S24  1  0.96256424  0.96555495  0.87544033  1
  S  S25  1  0.03743576  0.53444505  0.37544033  1
  S  S26  1  0.03743576  0.03444505  0.12455967  1
  S  S27  1  0.96256424  0.46555495  0.62455967  1
  S  S28  1  0.43505359  0.41904675  0.87418129  1
  S  S29  1  0.56494641  0.08095325  0.37418129  1
  S  S30  1  0.56494641  0.58095325  0.12581871  1
  S  S31  1  0.68609704  0.16997630  0.87179743  1
  K  K0  1  0.12160363  0.87494336  0.70601297  1
  K  K1  1  0.61602923  0.86910899  0.78829287  1
  K  K2  1  0.38397077  0.63089101  0.28829287  1
  K  K3  1  0.38397077  0.13089101  0.21170713  1
  K  K4  1  0.73085408  0.48644886  0.97191228  1
  K  K5  1  0.26914592  0.01355114  0.47191228  1
  K  K6  1  0.26914592  0.51355114  0.02808772  1
  K  K7  1  0.73085408  0.98644886  0.52808772  1
  K  K8  1  0.61602923  0.36910899  0.71170713  1
  K  K9  1  0.87839637  0.12505664  0.29398703  1
  K  K10  1  0.87839637  0.62505664  0.20601297  1
  K  K11  1  0.12160363  0.37494336  0.79398703  1
  Ce  Ce0  1  0.22427742  0.47178139  0.51327125  1
  Ce  Ce1  1  0.77572258  0.02821861  0.01327125  1
  Ce  Ce2  1  0.77572258  0.52821861  0.48672875  1
  Ce  Ce3  1  0.22427742  0.97178139  0.98672875  1
loop_
_geom_bond_atom_site_label_1
_geom_bond_atom_site_label_2
_geom_bond_distance
_geom_bond_site_symmetry_2
P0 S28 2.023714 1_555
P0 S16 2.056002 1_555
P0 S31 2.060637 1_555
P0 S14 2.078099 1_556
P1 S11 2.017692 1_555
P1 S23 2.045657 1_655
P1 S5 2.069603 1_555
P1 S27 2.072245 1_555
P2 S10 2.017692 1_555
P2 S22 2.045657 1_455
P2 S4 2.069603 1_554
P2 S26 2.072245 1_555
P3 S9 2.017692 1_555
P3 S21 2.045657 1_455
P3 S7 2.069603 1_555
P3 S25 2.072245 1_555
P4 S8 2.017692 1_555
P4 S0 2.045657 1_655
P4 S6 2.069603 1_556
P4 S24 2.072245 1_555
P5 S29 2.023714 1_555
P5 S20 2.056002 1_555
P5 S1 2.060637 1_555
P5 S15 2.078099 1_555
P6 S30 2.023714 1_555
P6 S18 2.056002 1_555
P6 S2 2.060637 1_555
P6 S12 2.078099 1_554
P7 S17 2.023714 1_555
P7 S19 2.056002 1_555
P7 S3 2.060637 1_555
P7 S13 2.078099 1_555
K0 S17 3.230698 1_555
K0 S24 3.394418 1_455
K0 S11 3.429700 1_465
K0 S19 3.490204 1_555
K0 S0 3.518818 1_555
K0 S7 3.584736 1_555
K0 S16 3.738420 1_565
K1 S17 3.305803 1_555
K1 S31 3.314132 1_565
K1 S8 3.357649 1_555
K1 S3 3.437022 1_555
K1 S12 3.438390 1_555
K1 S16 3.496202 1_565
K1 S24 3.651269 1_555
K2 S30 3.305803 1_555
K2 S1 3.314132 1_555
K2 S9 3.357649 1_555
K2 S2 3.437022 1_555
K2 S13 3.438390 1_555
K2 S20 3.496202 1_555
K2 S25 3.651269 1_555
K3 S29 3.305803 1_555
K3 S2 3.314132 1_545
K3 S10 3.357649 1_555
K3 S1 3.437022 1_555
K3 S14 3.438390 1_555
K3 S18 3.496202 1_545
K3 S26 3.651269 1_555
K4 S8 3.185357 1_555
K4 S30 3.204862 1_556
K4 S22 3.260474 1_556
K4 S28 3.272509 1_555
K4 S6 3.350510 1_556
K4 S31 3.542762 1_555
K4 S12 3.677638 1_555
K4 S4 3.720734 1_655
K5 S9 3.185357 1_545
K5 S17 3.204862 1_545
K5 S23 3.260474 1_555
K5 S29 3.272509 1_555
K5 S7 3.350510 1_545
K5 S1 3.542762 1_555
K5 S13 3.677638 1_545
K5 S5 3.720734 1_455
K6 S10 3.185357 1_555
K6 S28 3.204862 1_554
K6 S0 3.260474 1_554
K6 S30 3.272509 1_555
K6 S4 3.350510 1_554
K6 S2 3.542762 1_555
K6 S14 3.677638 1_555
K6 S6 3.720734 1_455
K7 S11 3.185357 1_565
K7 S29 3.204862 1_565
K7 S21 3.260474 1_555
K7 S17 3.272509 1_555
K7 S5 3.350510 1_565
K7 S3 3.542762 1_555
K7 S15 3.677638 1_565
K7 S7 3.720734 1_655
K8 S28 3.305803 1_555
K8 S3 3.314132 1_555
K8 S11 3.357649 1_555
K8 S31 3.437022 1_555
K8 S15 3.438390 1_555
K8 S19 3.496202 1_555
K8 S27 3.651269 1_555
K9 S29 3.230698 1_555
K9 S26 3.394418 1_655
K9 S9 3.429700 1_645
K9 S20 3.490204 1_555
K9 S22 3.518818 1_555
K9 S5 3.584736 1_555
K9 S18 3.738420 1_545
K10 S30 3.230698 1_555
K10 S25 3.394418 1_655
K10 S10 3.429700 1_655
K10 S18 3.490204 1_555
K10 S21 3.518818 1_555
K10 S6 3.584736 1_555
K10 S20 3.738420 1_555
K11 S28 3.230698 1_555
K11 S27 3.394418 1_455
K11 S8 3.429700 1_455
K11 S16 3.490204 1_555
K11 S23 3.518818 1_555
K11 S4 3.584736 1_555
K11 S19 3.738420 1_555
Ce0 S19 2.892091 1_555
Ce0 S1 2.926331 1_555
Ce0 S23 2.969225 1_555
Ce0 S25 3.003656 1_555
Ce0 S13 3.008374 1_555
Ce0 S27 3.085802 1_455
Ce0 S7 3.128222 1_555
Ce0 S15 3.252932 1_555
Ce0 S5 3.340709 1_455
Ce1 S18 2.892091 1_545
Ce1 S31 2.926331 1_554
Ce1 S22 2.969225 1_555
Ce1 S24 3.003656 1_544
Ce1 S12 3.008374 1_544
Ce1 S26 3.085802 1_655
Ce1 S6 3.128222 1_545
Ce1 S14 3.252932 1_555
Ce1 S4 3.340709 1_654
Ce2 S20 2.892091 1_555
Ce2 S3 2.926331 1_555
Ce2 S21 2.969225 1_555
Ce2 S27 3.003656 1_555
Ce2 S15 3.008374 1_555
Ce2 S25 3.085802 1_655
Ce2 S5 3.128222 1_555
Ce2 S13 3.252932 1_555
Ce2 S7 3.340709 1_655
Ce3 S16 2.892091 1_565
Ce3 S2 2.926331 1_556
Ce3 S0 2.969225 1_555
Ce3 S26 3.003656 1_566
Ce3 S14 3.008374 1_566
Ce3 S24 3.085802 1_455
Ce3 S4 3.128222 1_565
Ce3 S12 3.252932 1_555
Ce3 S6 3.340709 1_456
