# generated using pymatgen
data_MgV2(CoO4)2
_symmetry_space_group_name_H-M   'P 1'
_cell_length_a   5.28677081
_cell_length_b   5.28677255
_cell_length_c   6.31880074
_cell_angle_alpha   93.82341394
_cell_angle_beta   93.82341297
_cell_angle_gamma   65.21005911
_symmetry_Int_Tables_number   1
_chemical_formula_structural   MgV2(CoO4)2
_chemical_formula_sum   'Mg1 V2 Co2 O8'
_cell_volume   159.83266267
_cell_formula_units_Z   1
loop_
 _symmetry_equiv_pos_site_id
 _symmetry_equiv_pos_as_xyz
  1  'x, y, z'
loop_
 _atom_site_type_symbol
 _atom_site_label
 _atom_site_symmetry_multiplicity
 _atom_site_fract_x
 _atom_site_fract_y
 _atom_site_fract_z
 _atom_site_occupancy
  Mg  Mg0  1  0.50000000  0.50000000  0.00000000  1
  V  V0  1  0.33388900  0.33388900  0.30108500  1
  V  V1  1  0.66611000  0.66611000  0.69891500  1
  Co  Co0  1  0.00000000  0.00000000  0.00000000  1
  Co  Co1  1  0.00000000  0.00000000  0.50000000  1
  O  O0  1  0.22382800  0.22382800  0.06835100  1
  O  O1  1  0.22909700  0.22909700  0.51247200  1
  O  O2  1  0.22805400  0.70150700  0.24583600  1
  O  O3  1  0.29849300  0.77194600  0.75416400  1
  O  O4  1  0.70150700  0.22805400  0.24583600  1
  O  O5  1  0.77194600  0.29849300  0.75416400  1
  O  O6  1  0.77617200  0.77617200  0.93164900  1
  O  O7  1  0.77090300  0.77090300  0.48752800  1
loop_
_geom_bond_atom_site_label_1
_geom_bond_atom_site_label_2
_geom_bond_distance
_geom_bond_site_symmetry_2
Mg0 O5 2.099452 1_554
Mg0 O2 2.099452 1_555
Mg0 O3 2.099452 1_554
Mg0 O4 2.099452 1_555
Mg0 O6 2.530996 1_554
Mg0 O0 2.530996 1_555
Co0 O0 2.006237 1_555
Co0 O6 2.006237 1_444
Co0 O4 2.199676 1_455
Co0 O3 2.199676 1_544
Co0 O2 2.199677 1_545
Co0 O5 2.199677 1_454
Co1 O7 2.035893 1_445
Co1 O1 2.035893 1_555
Co1 O4 2.201801 1_455
Co1 O3 2.201801 1_545
Co1 O2 2.201801 1_545
Co1 O5 2.201801 1_455
O0 V0 1.701613 1_555
O1 V0 1.689008 1_555
O2 V0 1.834314 1_555
O3 V1 1.834307 1_555
O4 V0 1.834313 1_555
O5 V1 1.834308 1_555
O6 V1 1.701617 1_555
O7 V1 1.689014 1_555
