# generated using pymatgen
data_NaYSiSn(SO6)2
_symmetry_space_group_name_H-M   'P 1'
_cell_length_a   9.05564456
_cell_length_b   9.05553901
_cell_length_c   23.53191634
_cell_angle_alpha   90.96894932
_cell_angle_beta   90.00000000
_cell_angle_gamma   120.00038558
_symmetry_Int_Tables_number   1
_chemical_formula_structural   NaYSiSn(SO6)2
_chemical_formula_sum   'Na6 Y6 Si6 Sn6 S12 O72'
_cell_volume   1670.84860879
_cell_formula_units_Z   6
loop_
 _symmetry_equiv_pos_site_id
 _symmetry_equiv_pos_as_xyz
  1  'x, y, z'
loop_
 _atom_site_type_symbol
 _atom_site_label
 _atom_site_symmetry_multiplicity
 _atom_site_fract_x
 _atom_site_fract_y
 _atom_site_fract_z
 _atom_site_occupancy
  Na  Na0  1  0.04538825  0.02028114  0.49971951  1
  Na  Na1  1  0.97489289  0.02028114  -0.00028049  1
  Na  Na2  1  0.70421494  0.32863926  0.83211097  1
  Na  Na3  1  0.62442533  0.32863926  0.33211097  1
  Na  Na4  1  0.34235349  0.71219701  0.16531420  1
  Na  Na5  1  0.36984252  0.71219701  0.66531420  1
  Y  Y0  1  0.99882177  -0.00035164  0.64524671  1
  Y  Y1  1  0.00082659  -0.00035164  0.14524671  1
  Y  Y2  1  0.67384762  0.32219704  0.97765638  1
  Y  Y3  1  0.64835042  0.32219704  0.47765638  1
  Y  Y4  1  0.33561217  0.66947250  0.31158480  1
  Y  Y5  1  0.33385934  0.66947250  0.81158480  1
  Si  Si0  1  0.30169569  0.00872461  0.24783506  1
  Si  Si1  1  0.70702892  0.00872461  0.74783506  1
  Si  Si2  1  0.36899712  0.02427480  0.57965417  1
  Si  Si3  1  0.65527868  0.02427480  0.07965417  1
  Si  Si4  1  0.04994516  0.37262087  0.91538708  1
  Si  Si5  1  0.32267470  0.37262087  0.41538708  1
  Sn  Sn0  1  0.02228081  0.01463404  0.35081530  1
  Sn  Sn1  1  0.99235323  0.01463404  0.85081530  1
  Sn  Sn2  1  0.65713486  0.30735399  0.68341415  1
  Sn  Sn3  1  0.65022013  0.30735399  0.18341415  1
  Sn  Sn4  1  0.33119875  0.66448047  0.01704748  1
  Sn  Sn5  1  0.33328072  0.66448047  0.51704748  1
  S  S0  1  0.71828316  0.70080552  0.25017033  1
  S  S1  1  0.98316142  0.28778956  0.25051813  1
  S  S2  1  0.30462814  0.28778956  0.75051813  1
  S  S3  1  0.98252236  0.70080552  0.75017033  1
  S  S4  1  0.96639164  0.34770780  0.58320558  1
  S  S5  1  0.65232239  0.61248344  0.58588107  1
  S  S6  1  0.96016205  0.61248344  0.08588107  1
  S  S7  1  0.38131717  0.34770780  0.08320558  1
  S  S8  1  0.63597388  0.67938441  0.91656256  1
  S  S9  1  0.31191474  0.95579507  0.91556572  1
  S  S10  1  0.64387933  0.95579507  0.41556572  1
  S  S11  1  0.04340952  0.67938441  0.41656256  1
  O  O0  1  0.21544957  0.03151851  0.30783429  1
  O  O1  1  0.81883160  0.78431448  0.30407509  1
  O  O2  1  0.95480528  0.18256337  0.30280026  1
  O  O3  1  0.22775809  0.18256337  0.80280026  1
  O  O4  1  0.96548289  0.78431448  0.80407509  1
  O  O5  1  0.81606895  0.03151851  0.80783429  1
  O  O6  1  0.80109803  0.99403651  0.69274850  1
  O  O7  1  0.20610656  0.20297664  0.69916135  1
  O  O8  1  0.00942932  0.80483081  0.70021433  1
  O  O9  1  0.79540149  0.80483081  0.20021433  1
  O  O10  1  0.99687008  0.20297664  0.19916135  1
  O  O11  1  0.19293848  0.99403651  0.19274850  1
  O  O12  1  0.88871828  0.37405108  0.63681734  1
  O  O13  1  0.48068572  0.10895196  0.63983184  1
  O  O14  1  0.63720094  0.51239232  0.63845071  1
  O  O15  1  0.87519238  0.51239232  0.13845071  1
  O  O16  1  0.62826724  0.10895196  0.13983184  1
  O  O17  1  0.48533380  0.37405108  0.13681734  1
  O  O18  1  0.46601974  0.33275757  0.03260331  1
  O  O19  1  0.86006050  0.53370394  0.03422943  1
  O  O20  1  0.67262884  0.13546141  0.02569156  1
  O  O21  1  0.46283358  0.13546141  0.52569156  1
  O  O22  1  0.67364444  0.53370394  0.53422943  1
  O  O23  1  0.86673883  0.33275757  0.53260331  1
  O  O24  1  0.55890605  0.71030739  0.96928670  1
  O  O25  1  0.15955409  0.46146794  0.97584222  1
  O  O26  1  0.29335559  0.85724185  0.96842183  1
  O  O27  1  0.56388526  0.85724185  0.46842183  1
  O  O28  1  0.30191286  0.46146794  0.47584222  1
  O  O29  1  0.15140035  0.71030739  0.46928670  1
  O  O30  1  0.12679552  0.66565936  0.36524096  1
  O  O31  1  0.53480350  0.88096116  0.36526527  1
  O  O32  1  0.33228404  0.47869909  0.36105592  1
  O  O33  1  0.14641404  0.47869909  0.86105592  1
  O  O34  1  0.34615666  0.88096116  0.86526527  1
  O  O35  1  0.53886284  0.66565936  0.86524096  1
  O  O36  1  0.02004281  0.83265718  0.41343009  1
  O  O37  1  0.80748160  0.95307586  0.40886040  1
  O  O38  1  0.14419070  0.18150740  0.41517101  1
  O  O39  1  0.03731670  0.18150740  0.91517101  1
  O  O40  1  0.14559427  0.95307586  0.90886040  1
  O  O41  1  0.81261437  0.83265718  0.91343009  1
  O  O42  1  0.98452806  0.19534716  0.58752103  1
  O  O43  1  0.17830677  0.99480180  0.58433314  1
  O  O44  1  0.79885553  0.78581921  0.59079206  1
  O  O45  1  0.98696368  0.78581921  0.09079206  1
  O  O46  1  0.81649504  0.99480180  0.08433314  1
  O  O47  1  0.21081910  0.19534716  0.08752103  1
  O  O48  1  0.70188308  0.19118274  0.74733073  1
  O  O49  1  0.48038232  0.31029834  0.74694896  1
  O  O50  1  0.81943925  0.53271797  0.74444850  1
  O  O51  1  0.71327972  0.53271797  0.24444850  1
  O  O52  1  0.82991702  0.31029834  0.24694896  1
  O  O53  1  0.48930066  0.19118274  0.24733073  1
  O  O54  1  0.64934132  0.52565859  0.92252992  1
  O  O55  1  0.85958949  0.34686501  0.91753929  1
  O  O56  1  0.45097313  0.13376559  0.92180195  1
  O  O57  1  0.68279347  0.13376559  0.42180195  1
  O  O58  1  0.48727652  0.34686501  0.41753929  1
  O  O59  1  0.87631826  0.52565859  0.42252992  1
  O  O60  1  0.36265544  0.50306542  0.08085913  1
  O  O61  1  0.13014633  0.62109907  0.08301341  1
  O  O62  1  0.47243735  0.83585589  0.07577346  1
  O  O63  1  0.36341754  0.83585589  0.57577346  1
  O  O64  1  0.49095174  0.62109907  0.58301341  1
  O  O65  1  0.14040898  0.50306542  0.58085913  1
  O  O66  1  0.33202021  0.84769026  0.25125320  1
  O  O67  1  0.54371357  0.67154979  0.25545846  1
  O  O68  1  0.13609840  0.45665741  0.25567516  1
  O  O69  1  0.32055802  0.45665741  0.75567516  1
  O  O70  1  0.12783522  0.67154979  0.75545846  1
  O  O71  1  0.51566905  0.84769026  0.75125320  1
loop_
_geom_bond_atom_site_label_1
_geom_bond_atom_site_label_2
_geom_bond_distance
_geom_bond_site_symmetry_2
Na0 O38 2.383800 1_555
Na0 O43 2.399972 1_545
Na0 O36 2.560451 1_545
Na0 O42 2.801578 1_455
Na0 O37 2.868463 1_445
Na1 O39 2.383800 1_654
Na1 O46 2.399972 1_545
Na1 O41 2.560451 1_544
Na1 O47 2.801578 1_655
Na1 O40 2.868463 1_644
Na2 O48 2.328035 1_555
Na2 O55 2.409308 1_555
Na2 O50 2.638187 1_555
Na2 O49 2.793620 1_555
Na2 O54 2.952188 1_555
Na2 O56 2.984435 1_555
Na3 O53 2.328035 1_555
Na3 O58 2.409308 1_555
Na3 O51 2.638187 1_555
Na3 O52 2.793620 1_555
Na3 O59 2.952188 1_555
Na3 O57 2.984435 1_555
Na4 O66 2.373779 1_555
Na4 O62 2.417025 1_555
Na4 O61 2.546531 1_555
Na4 O60 2.791214 1_555
Na4 O67 2.942415 1_555
Na4 O68 3.034647 1_555
Na5 O71 2.373779 1_555
Na5 O63 2.417025 1_555
Na5 O64 2.546531 1_555
Na5 O65 2.791214 1_555
Na5 O70 2.942415 1_555
Na5 O69 3.034647 1_555
O0 Si0 1.672542 1_555
O0 Sn0 1.960629 1_555
O1 S0 1.512934 1_555
O1 Sn0 2.243630 1_665
O2 S1 1.510800 1_555
O2 Sn0 2.224820 1_655
O3 S2 1.510800 1_555
O3 Sn1 2.224820 1_455
O4 S3 1.512934 1_555
O4 Sn1 2.243630 1_565
O5 Si1 1.672542 1_555
O5 Sn1 1.960628 1_555
O6 Si1 1.590974 1_565
O6 Y0 2.090204 1_565
O7 S2 1.459369 1_555
O7 Y0 2.233400 1_455
O8 S3 1.461714 1_455
O8 Y0 2.245288 1_465
O9 S0 1.461714 1_555
O9 Y1 2.245288 1_665
O10 S1 1.459369 1_555
O10 Y1 2.233400 1_655
O11 Si0 1.590974 1_565
O11 Y1 2.090204 1_565
O12 S4 1.516863 1_555
O12 Sn2 2.172757 1_555
O13 Si2 1.674508 1_555
O13 Sn2 1.974776 1_555
O14 S5 1.511426 1_555
O14 Sn2 2.236332 1_555
O15 S6 1.511426 1_555
O15 Sn3 2.236332 1_555
O16 Si3 1.674508 1_555
O16 Sn3 1.974776 1_555
O17 S7 1.516863 1_555
O17 Sn3 2.172757 1_555
O18 S7 1.457050 1_555
O18 Y2 2.323530 1_554
O19 S6 1.460129 1_555
O19 Y2 2.228948 1_554
O20 Si3 1.592480 1_555
O20 Y2 2.045305 1_554
O21 Si2 1.592480 1_555
O21 Y3 2.045305 1_555
O22 S5 1.460129 1_555
O22 Y3 2.228948 1_555
O23 S4 1.457050 1_555
O23 Y3 2.323530 1_555
O24 S8 1.512777 1_555
O24 Sn4 2.201684 1_556
O25 Si4 1.679012 1_555
O25 Sn4 1.953985 1_556
O26 S9 1.503104 1_555
O26 Sn4 2.267043 1_556
O27 S10 1.503104 1_555
O27 Sn5 2.267043 1_555
O28 Si5 1.679012 1_555
O28 Sn5 1.953985 1_555
O29 S11 1.512777 1_555
O29 Sn5 2.201684 1_555
O30 S11 1.460462 1_555
O30 Y4 2.259950 1_555
O31 S10 1.462685 1_555
O31 Y4 2.231763 1_555
O32 Si5 1.588353 1_555
O32 Y4 2.087237 1_555
O33 Si4 1.588353 1_555
O33 Y5 2.087237 1_555
O34 S9 1.462685 1_555
O34 Y5 2.231763 1_555
O35 S8 1.460462 1_555
O35 Y5 2.259950 1_555
O36 S11 1.507919 1_555
O36 Sn0 2.221654 1_565
O37 S10 1.502254 1_555
O37 Sn0 2.213929 1_665
O38 Si5 1.676298 1_555
O38 Sn0 2.012473 1_555
O39 Si4 1.676302 1_555
O39 Sn1 2.012473 1_455
O40 S9 1.502245 1_555
O40 Sn1 2.213929 1_465
O41 S8 1.507925 1_555
O41 Sn1 2.221654 1_565
O42 S4 1.473845 1_555
O42 Y0 2.305069 1_555
O43 Si2 1.614121 1_565
O43 Y0 2.183478 1_465
O44 S5 1.465929 1_555
O44 Y0 2.253931 1_565
O45 S6 1.465932 1_555
O45 Y1 2.253931 1_665
O46 Si3 1.614112 1_565
O46 Y1 2.183478 1_665
O47 S7 1.473851 1_555
O47 Y1 2.305069 1_555
O48 Si1 1.676282 1_555
O48 Sn2 2.003238 1_555
O49 S2 1.502616 1_555
O49 Sn2 2.199840 1_555
O50 S3 1.503705 1_555
O50 Sn2 2.299831 1_555
O51 S0 1.503710 1_555
O51 Sn3 2.299831 1_555
O52 S1 1.502607 1_555
O52 Sn3 2.199840 1_555
O53 Si0 1.676287 1_555
O53 Sn3 2.003238 1_555
O54 S8 1.465386 1_555
O54 Y2 2.369897 1_555
O55 Si4 1.620733 1_655
O55 Y2 2.124926 1_555
O56 S9 1.472114 1_545
O56 Y2 2.278777 1_555
O57 S10 1.472109 1_545
O57 Y3 2.278777 1_555
O58 Si5 1.620751 1_555
O58 Y3 2.124926 1_555
O59 S11 1.465376 1_655
O59 Y3 2.369897 1_555
O60 S7 1.500402 1_555
O60 Sn4 2.227817 1_555
O61 S6 1.503402 1_455
O61 Sn4 2.276875 1_555
O62 Si3 1.682462 1_565
O62 Sn4 1.973966 1_555
O63 Si2 1.682453 1_565
O63 Sn5 1.973966 1_555
O64 S5 1.503420 1_555
O64 Sn5 2.276875 1_555
O65 S4 1.500391 1_455
O65 Sn5 2.227817 1_555
O66 Si0 1.616416 1_565
O66 Y4 2.179721 1_555
O67 S0 1.472084 1_555
O67 Y4 2.293788 1_555
O68 S1 1.465289 1_455
O68 Y4 2.267491 1_555
O69 S2 1.465293 1_555
O69 Y5 2.267491 1_555
O70 S3 1.472075 1_455
O70 Y5 2.293788 1_555
O71 Si1 1.616422 1_565
O71 Y5 2.179721 1_555
