# generated using pymatgen
data_MgV4Cr2O12
_symmetry_space_group_name_H-M   'P 1'
_cell_length_a   6.82159615
_cell_length_b   7.09772746
_cell_length_c   5.64076439
_cell_angle_alpha   74.19208217
_cell_angle_beta   109.03915562
_cell_angle_gamma   99.78317885
_symmetry_Int_Tables_number   1
_chemical_formula_structural   MgV4Cr2O12
_chemical_formula_sum   'Mg1 V4 Cr2 O12'
_cell_volume   247.42075628
_cell_formula_units_Z   1
loop_
 _symmetry_equiv_pos_site_id
 _symmetry_equiv_pos_as_xyz
  1  'x, y, z'
loop_
 _atom_site_type_symbol
 _atom_site_label
 _atom_site_symmetry_multiplicity
 _atom_site_fract_x
 _atom_site_fract_y
 _atom_site_fract_z
 _atom_site_occupancy
  Mg  Mg0  1  0.74501300  0.71033800  0.79600600  1
  V  V0  1  0.19230500  0.59693800  0.75107300  1
  V  V1  1  0.38867100  0.80581700  0.26851300  1
  V  V2  1  0.61616300  0.20648800  0.74004500  1
  V  V3  1  0.84019600  0.38424200  0.30364700  1
  Cr  Cr0  1  0.08090300  0.07936200  0.74368700  1
  Cr  Cr1  1  0.92050200  0.91494500  0.25416400  1
  O  O0  1  0.00264000  0.80089300  0.64723300  1
  O  O1  1  0.04338200  0.36446100  0.69270900  1
  O  O2  1  0.19139200  0.97075500  0.14656600  1
  O  O3  1  0.42599400  0.69617600  0.60522800  1
  O  O4  1  0.37497000  0.09785100  0.75305800  1
  O  O5  1  0.32598100  0.62477800  0.09958800  1
  O  O6  1  0.69725200  0.39246100  0.91018600  1
  O  O7  1  0.63398200  0.91158400  0.27503000  1
  O  O8  1  0.59445000  0.31250900  0.42087000  1
  O  O9  1  0.80038800  0.01428400  0.84739500  1
  O  O10  1  0.88401000  0.65787300  0.17538600  1
  O  O11  1  0.98180800  0.16195300  0.36723400  1
loop_
_geom_bond_atom_site_label_1
_geom_bond_atom_site_label_2
_geom_bond_distance
_geom_bond_site_symmetry_2
Mg0 O10 1.994810 1_556
Mg0 O3 2.088245 1_555
Mg0 O0 2.119052 1_655
Mg0 O6 2.169518 1_555
Mg0 O9 2.207510 1_565
Cr0 O11 1.956966 1_455
Cr0 O4 1.972109 1_555
Cr0 O1 2.013441 1_555
Cr0 O2 2.110042 1_546
Cr0 O9 2.121327 1_455
Cr0 O0 2.127288 1_545
Cr1 O10 1.950362 1_555
Cr1 O11 1.959951 1_565
Cr1 O7 1.991808 1_555
Cr1 O0 2.061796 1_655
Cr1 O2 2.071717 1_655
Cr1 O9 2.126383 1_564
O0 V0 1.947498 1_555
O1 V0 1.836085 1_555
O1 V3 2.161211 1_455
O2 V1 1.774103 1_555
O3 V1 1.795668 1_555
O3 V0 1.967871 1_555
O4 V2 1.709924 1_555
O5 V1 1.719434 1_555
O5 V0 1.927726 1_554
O6 V2 1.750748 1_555
O6 V3 2.101639 1_556
O7 V1 1.706810 1_555
O8 V2 1.719120 1_555
O8 V3 1.938147 1_555
O9 V2 1.855569 1_555
O10 V3 1.887592 1_555
O11 V3 1.880083 1_555
