# generated using pymatgen
data_Li3Ni2(PO4)3
_symmetry_space_group_name_H-M   'P 1'
_cell_length_a   4.89819374
_cell_length_b   4.89819374
_cell_length_c   18.80911127
_cell_angle_alpha   89.89801273
_cell_angle_beta   89.89801273
_cell_angle_gamma   65.81006760
_symmetry_Int_Tables_number   1
_chemical_formula_structural   Li3Ni2(PO4)3
_chemical_formula_sum   'Li6 Ni4 P6 O24'
_cell_volume   411.64755368
_cell_formula_units_Z   2
loop_
 _symmetry_equiv_pos_site_id
 _symmetry_equiv_pos_as_xyz
  1  'x, y, z'
loop_
 _atom_site_type_symbol
 _atom_site_label
 _atom_site_symmetry_multiplicity
 _atom_site_fract_x
 _atom_site_fract_y
 _atom_site_fract_z
 _atom_site_occupancy
  Li  Li0  1  0.32769800  0.32769800  0.41631500  1
  Li  Li1  1  0.32886400  0.32886400  0.74816300  1
  Li  Li2  1  0.67230200  0.67230200  0.58368500  1
  Li  Li3  1  0.99965100  0.99965100  0.33359300  1
  Li  Li4  1  0.00034900  0.00034900  0.66640700  1
  Li  Li5  1  0.67113600  0.67113600  0.25183700  1
  Ni  Ni0  1  0.00060800  0.00060800  0.16576300  1
  Ni  Ni1  1  0.00000000  0.00000000  0.00000000  1
  Ni  Ni2  1  0.99939200  0.99939200  0.83423700  1
  Ni  Ni3  1  0.00000000  0.00000000  0.50000000  1
  P  P0  1  0.64382000  0.64382000  0.41888700  1
  P  P1  1  0.64530900  0.64530900  0.08359200  1
  P  P2  1  0.35469100  0.35469100  0.91640800  1
  P  P3  1  0.35618000  0.35618000  0.58111300  1
  P  P4  1  0.35478300  0.35478300  0.24790800  1
  P  P5  1  0.64521700  0.64521700  0.75209200  1
  O  O0  1  0.74885400  0.74885400  0.15279100  1
  O  O1  1  0.25638000  0.25638000  0.31813100  1
  O  O2  1  0.75389000  0.75389000  0.01631100  1
  O  O3  1  0.29666400  0.76747700  0.75355300  1
  O  O4  1  0.74538000  0.74538000  0.34970800  1
  O  O5  1  0.23524300  0.70477400  0.58011400  1
  O  O6  1  0.24528100  0.24528100  0.51498600  1
  O  O7  1  0.70477400  0.23524300  0.58011400  1
  O  O8  1  0.75471900  0.75471900  0.48501400  1
  O  O9  1  0.76747700  0.29666400  0.75355300  1
  O  O10  1  0.74362000  0.74362000  0.68186900  1
  O  O11  1  0.22406600  0.70335000  0.91704100  1
  O  O12  1  0.24611000  0.24611000  0.98368900  1
  O  O13  1  0.76475700  0.29522600  0.41988600  1
  O  O14  1  0.25462000  0.25462000  0.65029200  1
  O  O15  1  0.77593400  0.29665000  0.08295900  1
  O  O16  1  0.75772400  0.75772400  0.81730700  1
  O  O17  1  0.24227600  0.24227600  0.18269300  1
  O  O18  1  0.29665000  0.77593400  0.08295900  1
  O  O19  1  0.70335000  0.22406600  0.91704100  1
  O  O20  1  0.25114600  0.25114600  0.84720900  1
  O  O21  1  0.70333600  0.23252300  0.24644700  1
  O  O22  1  0.29522600  0.76475700  0.41988600  1
  O  O23  1  0.23252300  0.70333600  0.24644700  1
loop_
_geom_bond_atom_site_label_1
_geom_bond_atom_site_label_2
_geom_bond_distance
_geom_bond_site_symmetry_2
Li0 O1 1.938856 1_555
Li0 O6 1.974482 1_555
Li0 O13 2.081888 1_555
Li0 O22 2.081888 1_555
Li1 O14 1.940731 1_555
Li1 O20 1.968296 1_555
Li1 O3 2.091374 1_555
Li1 O9 2.091374 1_555
Li2 O10 1.938856 1_555
Li2 O8 1.974482 1_555
Li2 O5 2.081888 1_555
Li2 O7 2.081888 1_555
Li3 O4 2.112537 1_555
Li3 O1 2.130861 1_665
Li3 O22 2.165844 1_655
Li3 O13 2.165844 1_565
Li3 O23 2.177038 1_655
Li3 O21 2.177038 1_565
Li4 O14 2.112537 1_555
Li4 O10 2.130861 1_445
Li4 O5 2.165844 1_545
Li4 O7 2.165844 1_455
Li4 O9 2.177038 1_455
Li4 O3 2.177038 1_545
Li5 O4 1.940731 1_555
Li5 O0 1.968296 1_555
Li5 O23 2.091374 1_555
Li5 O21 2.091374 1_555
Ni0 O17 2.013678 1_555
Ni0 O0 2.085459 1_445
Ni0 O23 2.087208 1_545
Ni0 O21 2.087208 1_455
Ni0 O18 2.104703 1_545
Ni0 O15 2.104703 1_455
Ni1 O12 2.046673 1_554
Ni1 O2 2.046673 1_445
Ni1 O18 2.108492 1_545
Ni1 O15 2.108492 1_455
Ni1 O11 2.108492 1_544
Ni1 O19 2.108492 1_454
Ni2 O16 2.013678 1_555
Ni2 O20 2.085459 1_665
Ni2 O3 2.087208 1_655
Ni2 O9 2.087208 1_565
Ni2 O11 2.104703 1_655
Ni2 O19 2.104703 1_565
Ni3 O8 2.037569 1_445
Ni3 O6 2.037569 1_555
Ni3 O13 2.079037 1_455
Ni3 O5 2.079037 1_545
Ni3 O7 2.079037 1_455
Ni3 O22 2.079037 1_545
O0 P1 1.556942 1_555
O1 P4 1.547611 1_555
O2 P1 1.547331 1_555
O3 P5 1.560829 1_555
O4 P0 1.544746 1_555
O5 P3 1.561331 1_555
O6 P3 1.543951 1_555
O7 P3 1.561331 1_555
O8 P0 1.543951 1_555
O9 P5 1.560829 1_555
O10 P5 1.547611 1_555
O11 P2 1.559055 1_555
O12 P2 1.547331 1_555
O13 P0 1.561331 1_555
O14 P3 1.544746 1_555
O15 P1 1.559055 1_555
O16 P5 1.538087 1_555
O17 P4 1.538087 1_555
O18 P1 1.559055 1_555
O19 P2 1.559055 1_555
O20 P2 1.556942 1_555
O21 P4 1.560829 1_555
O22 P0 1.561331 1_555
O23 P4 1.560829 1_555
