# generated using pymatgen
data_BaMg(SbO3)2
_symmetry_space_group_name_H-M   'P 1'
_cell_length_a   5.82104944
_cell_length_b   5.82104900
_cell_length_c   5.47449430
_cell_angle_alpha   89.95869857
_cell_angle_beta   89.95869998
_cell_angle_gamma   119.98825186
_symmetry_Int_Tables_number   1
_chemical_formula_structural   BaMg(SbO3)2
_chemical_formula_sum   'Ba1 Mg1 Sb2 O6'
_cell_volume   160.66753555
_cell_formula_units_Z   1
loop_
 _symmetry_equiv_pos_site_id
 _symmetry_equiv_pos_as_xyz
  1  'x, y, z'
loop_
 _atom_site_type_symbol
 _atom_site_label
 _atom_site_symmetry_multiplicity
 _atom_site_fract_x
 _atom_site_fract_y
 _atom_site_fract_z
 _atom_site_occupancy
  Ba  Ba0  1  0.99927400  0.00072600  0.00000000  1
  Mg  Mg0  1  0.66568300  0.33431700  0.00000000  1
  Sb  Sb0  1  0.66635800  0.33364200  0.50000000  1
  Sb  Sb1  1  0.33269800  0.66730200  0.50000000  1
  O  O0  1  0.41561300  0.37122100  0.73065500  1
  O  O1  1  0.62830100  0.04489100  0.73063200  1
  O  O2  1  0.95514200  0.58445800  0.73046400  1
  O  O3  1  0.41554200  0.04485800  0.26953600  1
  O  O4  1  0.95510900  0.37169900  0.26936800  1
  O  O5  1  0.62877900  0.58438700  0.26934500  1
loop_
_geom_bond_atom_site_label_1
_geom_bond_atom_site_label_2
_geom_bond_distance
_geom_bond_site_symmetry_2
Ba0 O4 2.731839 1_555
Ba0 O1 2.731839 1_554
Ba0 O5 2.732091 1_545
Ba0 O0 2.732091 1_654
Ba0 O2 2.738292 1_544
Ba0 O3 2.738292 1_655
Mg0 O5 2.157449 1_555
Mg0 O0 2.157449 1_554
Mg0 O3 2.162712 1_555
Mg0 O2 2.162712 1_554
Mg0 O1 2.167475 1_554
Mg0 O4 2.167475 1_555
O0 Sb0 2.022290 1_555
O0 Sb1 2.372166 1_555
O1 Sb0 2.023050 1_555
O1 Sb1 2.369063 1_545
O2 Sb0 2.025234 1_555
O2 Sb1 2.364366 1_655
O3 Sb0 2.025234 1_555
O3 Sb1 2.364366 1_545
O4 Sb0 2.023050 1_555
O4 Sb1 2.369063 1_655
O5 Sb0 2.022289 1_555
O5 Sb1 2.372166 1_555
