# generated using pymatgen
data_NaAlSiSn(SO6)2
_symmetry_space_group_name_H-M   'P 1'
_cell_length_a   8.62597471
_cell_length_b   8.60523210
_cell_length_c   22.52175811
_cell_angle_alpha   89.94416812
_cell_angle_beta   90.00000000
_cell_angle_gamma   120.07976967
_symmetry_Int_Tables_number   1
_chemical_formula_structural   NaAlSiSn(SO6)2
_chemical_formula_sum   'Na6 Al6 Si6 Sn6 S12 O72'
_cell_volume   1446.61765960
_cell_formula_units_Z   6
loop_
 _symmetry_equiv_pos_site_id
 _symmetry_equiv_pos_as_xyz
  1  'x, y, z'
loop_
 _atom_site_type_symbol
 _atom_site_label
 _atom_site_symmetry_multiplicity
 _atom_site_fract_x
 _atom_site_fract_y
 _atom_site_fract_z
 _atom_site_occupancy
  Na  Na0  1  0.02099529  0.01493920  0.50288865  1
  Na  Na1  1  0.99394392  0.01493920  0.00288865  1
  Na  Na2  1  0.68059095  0.32571551  0.83549113  1
  Na  Na3  1  0.64512556  0.32571551  0.33549113  1
  Na  Na4  1  0.34176546  0.68693472  0.16915074  1
  Na  Na5  1  0.34516826  0.68693472  0.66915074  1
  Al  Al0  1  0.99469331  0.99566892  0.64706884  1
  Al  Al1  1  0.00097562  0.99566892  0.14706884  1
  Al  Al2  1  0.69281082  0.32391296  0.97912241  1
  Al  Al3  1  0.63110314  0.32391296  0.47912241  1
  Al  Al4  1  0.33487180  0.66867114  0.31265036  1
  Al  Al5  1  0.33379835  0.66867114  0.81265036  1
  Si  Si0  1  0.28374812  0.98576576  0.24738445  1
  Si  Si1  1  0.70201765  0.98576576  0.74738445  1
  Si  Si2  1  0.36100440  0.04024802  0.58184555  1
  Si  Si3  1  0.67924462  0.04024802  0.08184555  1
  Si  Si4  1  0.04800192  0.38892597  0.91391331  1
  Si  Si5  1  0.34092305  0.38892597  0.41391331  1
  Sn  Sn0  1  0.01686127  0.01274525  0.35245758  1
  Sn  Sn1  1  0.99588397  0.01274525  0.85245758  1
  Sn  Sn2  1  0.66013362  0.31308888  0.68508541  1
  Sn  Sn3  1  0.65295627  0.31308888  0.18508541  1
  Sn  Sn4  1  0.33537695  0.66800893  0.01827974  1
  Sn  Sn5  1  0.33263099  0.66800893  0.51827974  1
  S  S0  1  0.70993696  0.71351180  0.24887707  1
  S  S1  1  0.00605636  0.29499260  0.24843567  1
  S  S2  1  0.28893624  0.29499260  0.74843567  1
  S  S3  1  0.00357484  0.71351180  0.74887707  1
  S  S4  1  0.95138217  0.32799668  0.58105643  1
  S  S5  1  0.67386099  0.62249846  0.58289626  1
  S  S6  1  0.94863847  0.62249846  0.08289626  1
  S  S7  1  0.37661552  0.32799668  0.08105643  1
  S  S8  1  0.62315126  0.65612826  0.91578714  1
  S  S9  1  0.33772548  0.96281779  0.91434724  1
  S  S10  1  0.62509130  0.96281779  0.41434724  1
  S  S11  1  0.03297600  0.65612826  0.41578714  1
  O  O0  1  0.21493350  0.03321339  0.30842793  1
  O  O1  1  0.81438752  0.78773799  0.30478649  1
  O  O2  1  0.95701313  0.18170793  0.30334362  1
  O  O3  1  0.22469481  0.18170793  0.80334362  1
  O  O4  1  0.97335048  0.78773799  0.80478649  1
  O  O5  1  0.81827988  0.03321339  0.80842793  1
  O  O6  1  0.80632750  0.96585458  0.69031771  1
  O  O7  1  0.17878895  0.20509846  0.69611013  1
  O  O8  1  0.03158247  0.82654435  0.69624620  1
  O  O9  1  0.79496188  0.82654435  0.19624620  1
  O  O10  1  0.02630951  0.20509846  0.19611013  1
  O  O11  1  0.15952708  0.96585458  0.19031771  1
  O  O12  1  0.88570061  0.37216485  0.63691291  1
  O  O13  1  0.48147832  0.10794217  0.64214916  1
  O  O14  1  0.64356071  0.51668948  0.63863719  1
  O  O15  1  0.87312977  0.51668948  0.13863719  1
  O  O16  1  0.62646485  0.10794217  0.14214916  1
  O  O17  1  0.48646524  0.37216485  0.13691291  1
  O  O18  1  0.46661487  0.30986233  0.02887274  1
  O  O19  1  0.83795929  0.53689920  0.03001136  1
  O  O20  1  0.70166677  0.16373602  0.02472705  1
  O  O21  1  0.46207026  0.16373602  0.52472705  1
  O  O22  1  0.69894091  0.53689920  0.53001136  1
  O  O23  1  0.84324846  0.30986233  0.52887274  1
  O  O24  1  0.55796607  0.70530473  0.97022842  1
  O  O25  1  0.16084831  0.46020750  0.97623002  1
  O  O26  1  0.30056349  0.85680119  0.97022247  1
  O  O27  1  0.55623670  0.85680119  0.47022247  1
  O  O28  1  0.29935819  0.46020750  0.47623002  1
  O  O29  1  0.14733766  0.70530473  0.47022842  1
  O  O30  1  0.12244502  0.63779270  0.36286567  1
  O  O31  1  0.50951636  0.87908788  0.36237673  1
  O  O32  1  0.36039068  0.51263625  0.35718278  1
  O  O33  1  0.15224457  0.51263625  0.85718278  1
  O  O34  1  0.36957053  0.87908788  0.86237673  1
  O  O35  1  0.51534668  0.63779270  0.86286567  1
  O  O36  1  0.00081278  0.81175812  0.41088063  1
  O  O37  1  0.80219239  0.97312109  0.40743520  1
  O  O38  1  0.15874821  0.18697977  0.41438046  1
  O  O39  1  0.02823156  0.18697977  0.91438046  1
  O  O40  1  0.17092871  0.97312109  0.90743520  1
  O  O41  1  0.81094533  0.81175812  0.91088063  1
  O  O42  1  0.96275787  0.16335898  0.58915597  1
  O  O43  1  0.16684998  0.02250097  0.59443945  1
  O  O44  1  0.83430551  0.80198172  0.58895474  1
  O  O45  1  0.96767621  0.80198172  0.08895474  1
  O  O46  1  0.85565099  0.02250097  0.09443945  1
  O  O47  1  0.20060111  0.16335898  0.08915597  1
  O  O48  1  0.68831944  0.17150149  0.74728715  1
  O  O49  1  0.47609122  0.32839170  0.74357150  1
  O  O50  1  0.83781602  0.53395999  0.74265201  1
  O  O51  1  0.69614498  0.53395999  0.24265201  1
  O  O52  1  0.85230148  0.32839170  0.24357150  1
  O  O53  1  0.48318305  0.17150149  0.24728715  1
  O  O54  1  0.62859158  0.49015617  0.92534989  1
  O  O55  1  0.85149138  0.37114321  0.92143055  1
  O  O56  1  0.49379139  0.14415297  0.92279666  1
  O  O57  1  0.65036258  0.14415297  0.42279666  1
  O  O58  1  0.51965283  0.37114321  0.42143055  1
  O  O59  1  0.86156559  0.49015617  0.42534989  1
  O  O60  1  0.35040010  0.48679139  0.07838964  1
  O  O61  1  0.12970404  0.64072642  0.07897537  1
  O  O62  1  0.49561685  0.83964932  0.07656010  1
  O  O63  1  0.34403147  0.83964932  0.57656010  1
  O  O64  1  0.51102138  0.64072642  0.57897537  1
  O  O65  1  0.13639029  0.48679139  0.57838964  1
  O  O66  1  0.30599059  0.81050989  0.25950076  1
  O  O67  1  0.53035170  0.69305092  0.25543980  1
  O  O68  1  0.17145502  0.46841402  0.25641355  1
  O  O69  1  0.29695799  0.46841402  0.75641355  1
  O  O70  1  0.16269822  0.69305092  0.75543980  1
  O  O71  1  0.50451830  0.81050989  0.75950076  1
loop_
_geom_bond_atom_site_label_1
_geom_bond_atom_site_label_2
_geom_bond_distance
_geom_bond_site_symmetry_2
Na0 O43 2.399315 1_555
Na0 O38 2.409983 1_555
Na0 O42 2.511250 1_455
Na0 O44 2.596856 1_445
Na0 O36 2.661421 1_545
Na0 O37 2.762963 1_445
Na1 O46 2.399315 1_555
Na1 O39 2.409983 1_654
Na1 O47 2.511250 1_655
Na1 O45 2.596856 1_545
Na1 O41 2.661421 1_544
Na1 O40 2.762963 1_644
Na2 O55 2.344359 1_555
Na2 O48 2.409468 1_555
Na2 O56 2.524697 1_555
Na2 O54 2.634589 1_555
Na2 O50 2.641767 1_555
Na2 O49 2.727376 1_555
Na3 O58 2.344359 1_555
Na3 O53 2.409468 1_555
Na3 O57 2.524697 1_555
Na3 O59 2.634589 1_555
Na3 O51 2.641767 1_555
Na3 O52 2.727376 1_555
Na4 O66 2.387421 1_555
Na4 O62 2.466403 1_555
Na4 O67 2.517967 1_555
Na4 O68 2.603900 1_555
Na4 O61 2.627025 1_555
Na4 O60 2.699183 1_555
Na5 O71 2.387421 1_555
Na5 O63 2.466403 1_555
Na5 O70 2.517967 1_555
Na5 O69 2.603900 1_555
Na5 O64 2.627025 1_555
Na5 O65 2.699183 1_555
Al0 O6 1.798977 1_555
Al0 O43 1.821895 1_665
Al0 O8 1.976634 1_655
Al0 O44 2.024318 1_555
Al0 O7 2.030924 1_665
Al0 O42 2.062564 1_565
Al1 O11 1.798977 1_555
Al1 O46 1.821895 1_465
Al1 O9 1.976634 1_455
Al1 O45 2.024318 1_455
Al1 O10 2.030924 1_565
Al1 O47 2.062564 1_565
Al2 O20 1.750265 1_556
Al2 O55 1.779968 1_555
Al2 O19 1.985987 1_556
Al2 O56 2.071494 1_555
Al2 O54 2.147327 1_555
Al2 O18 2.200078 1_556
Al3 O21 1.750265 1_555
Al3 O58 1.779968 1_555
Al3 O22 1.985987 1_555
Al3 O57 2.071494 1_555
Al3 O59 2.147327 1_555
Al3 O23 2.200078 1_555
Al4 O32 1.775078 1_555
Al4 O66 1.812910 1_555
Al4 O31 2.017897 1_555
Al4 O68 2.032258 1_555
Al4 O67 2.047523 1_555
Al4 O30 2.053927 1_555
Al5 O33 1.775078 1_555
Al5 O71 1.812910 1_555
Al5 O34 2.017897 1_555
Al5 O69 2.032258 1_555
Al5 O70 2.047523 1_555
Al5 O35 2.053927 1_555
O0 Si0 1.628863 1_545
O0 Sn0 1.905660 1_555
O1 S0 1.493311 1_555
O1 Sn0 2.136888 1_665
O2 S1 1.497590 1_655
O2 Sn0 2.086464 1_655
O3 S2 1.497590 1_555
O3 Sn1 2.086464 1_455
O4 S3 1.493311 1_655
O4 Sn1 2.136888 1_565
O5 Si1 1.628863 1_545
O5 Sn1 1.905660 1_555
O6 Si1 1.626582 1_555
O7 S2 1.467970 1_555
O8 S3 1.473663 1_555
O9 S0 1.473663 1_555
O10 S1 1.467970 1_555
O11 Si0 1.626582 1_555
O12 S4 1.504918 1_555
O12 Sn2 2.056403 1_555
O13 Si2 1.630508 1_555
O13 Sn2 1.924231 1_555
O14 S5 1.494172 1_555
O14 Sn2 2.105199 1_555
O15 S6 1.494172 1_555
O15 Sn3 2.105199 1_555
O16 Si3 1.630508 1_555
O16 Sn3 1.924231 1_555
O17 S7 1.504918 1_555
O17 Sn3 2.056403 1_555
O18 S7 1.459485 1_555
O19 S6 1.472909 1_555
O20 Si3 1.616409 1_555
O21 Si2 1.616409 1_555
O22 S5 1.472909 1_555
O23 S4 1.459485 1_555
O24 S8 1.496037 1_555
O24 Sn4 2.083834 1_556
O25 Si4 1.642162 1_555
O25 Sn4 1.914594 1_556
O26 S9 1.491056 1_555
O26 Sn4 2.094415 1_556
O27 S10 1.491056 1_555
O27 Sn5 2.094415 1_555
O28 Si5 1.642162 1_555
O28 Sn5 1.914594 1_555
O29 S11 1.496037 1_555
O29 Sn5 2.083834 1_555
O30 S11 1.470892 1_555
O31 S10 1.471270 1_555
O32 Si5 1.616191 1_555
O33 Si4 1.616191 1_555
O34 S9 1.471270 1_555
O35 S8 1.470892 1_555
O36 S11 1.501628 1_555
O36 Sn0 2.120693 1_565
O37 S10 1.493341 1_555
O37 Sn0 2.108209 1_665
O38 Si5 1.658915 1_555
O38 Sn0 1.963542 1_555
O39 Si4 1.658919 1_555
O39 Sn1 1.963542 1_455
O40 S9 1.493333 1_555
O40 Sn1 2.108209 1_465
O41 S8 1.501633 1_555
O41 Sn1 2.120693 1_565
O42 S4 1.479501 1_555
O43 Si2 1.628546 1_555
O44 S5 1.475535 1_555
O45 S6 1.475539 1_555
O46 Si3 1.628538 1_555
O47 S7 1.479506 1_555
O48 Si1 1.660672 1_545
O48 Sn2 1.949284 1_555
O49 S2 1.495227 1_555
O49 Sn2 2.117210 1_555
O50 S3 1.495743 1_655
O50 Sn2 2.174209 1_555
O51 S0 1.495747 1_555
O51 Sn3 2.174209 1_555
O52 S1 1.495219 1_655
O52 Sn3 2.117210 1_555
O53 Si0 1.660676 1_545
O53 Sn3 1.949284 1_555
O54 S8 1.467995 1_555
O55 Si4 1.632593 1_655
O56 S9 1.475906 1_545
O57 S10 1.475899 1_545
O58 Si5 1.632610 1_555
O59 S11 1.467986 1_655
O60 S7 1.493841 1_555
O60 Sn4 2.116544 1_555
O61 S6 1.492054 1_455
O61 Sn4 2.157109 1_555
O62 Si3 1.662063 1_565
O62 Sn4 1.942228 1_555
O63 Si2 1.662055 1_565
O63 Sn5 1.942228 1_555
O64 S5 1.492071 1_555
O64 Sn5 2.157109 1_555
O65 S4 1.493830 1_455
O65 Sn5 2.116544 1_555
O66 Si0 1.635525 1_555
O67 S0 1.476175 1_555
O68 S1 1.470076 1_555
O69 S2 1.470080 1_555
O70 S3 1.476166 1_555
O71 Si1 1.635530 1_555
