# generated using pymatgen
data_MgMn6(O5F)2
_symmetry_space_group_name_H-M   'P 1'
_cell_length_a   8.14386950
_cell_length_b   5.69274532
_cell_length_c   5.89934844
_cell_angle_alpha   67.83375147
_cell_angle_beta   63.97165505
_cell_angle_gamma   65.90884239
_symmetry_Int_Tables_number   1
_chemical_formula_structural   MgMn6(O5F)2
_chemical_formula_sum   'Mg1 Mn6 O10 F2'
_cell_volume   217.70848046
_cell_formula_units_Z   1
loop_
 _symmetry_equiv_pos_site_id
 _symmetry_equiv_pos_as_xyz
  1  'x, y, z'
loop_
 _atom_site_type_symbol
 _atom_site_label
 _atom_site_symmetry_multiplicity
 _atom_site_fract_x
 _atom_site_fract_y
 _atom_site_fract_z
 _atom_site_occupancy
  Mg  Mg0  1  0.83706059  0.66134028  0.15159152  1
  Mn  Mn0  1  0.80074535  0.65050348  0.65846804  1
  Mn  Mn1  1  0.64922752  0.30590914  0.34612567  1
  Mn  Mn2  1  0.34652698  0.66153071  0.65759750  1
  Mn  Mn3  1  0.19890746  0.35403402  0.35338605  1
  Mn  Mn4  1  0.48206862  0.00738441  0.00157647  1
  Mn  Mn5  1  0.99346104  0.04556919  0.00961246  1
  O  O0  1  0.65394444  0.01938825  0.64364966  1
  O  O1  1  0.33827697  0.37437542  0.98120048  1
  O  O2  1  0.63687594  0.55308433  0.51776335  1
  O  O3  1  0.92515833  0.25671352  0.22394833  1
  O  O4  1  0.73036158  0.07786681  0.11670711  1
  O  O5  1  0.37751690  0.43405401  0.45938247  1
  O  O6  1  0.33291759  0.97982582  0.36578640  1
  O  O7  1  0.65480129  0.63475185  0.02799888  1
  O  O8  1  0.99981373  0.32161190  0.70161062  1
  O  O9  1  0.99641951  0.70230308  0.30689825  1
  F  F0  1  0.27997042  0.91528903  0.88895805  1
  F  F1  1  0.03446372  0.78255774  0.81392770  1
loop_
_geom_bond_atom_site_label_1
_geom_bond_atom_site_label_2
_geom_bond_distance
_geom_bond_site_symmetry_2
Mg0 O7 1.993524 1_555
Mg0 O9 2.007469 1_555
Mg0 O3 2.044614 1_555
Mg0 O2 2.104488 1_555
Mg0 O4 2.127567 1_565
Mn0 O8 1.929525 1_555
Mn0 O0 1.936598 1_565
Mn0 O7 1.959231 1_556
Mn0 O9 1.987321 1_555
Mn0 O2 2.168252 1_555
Mn1 O0 1.894826 1_555
Mn1 O5 1.904575 1_555
Mn1 O4 1.947903 1_555
Mn1 O3 1.965877 1_555
Mn1 O2 1.971167 1_555
Mn1 O7 2.090975 1_555
Mn2 O5 1.929979 1_555
Mn2 O6 1.977063 1_555
Mn2 O1 1.985813 1_555
Mn2 O2 2.033090 1_555
Mn3 O6 1.946524 1_545
Mn3 O1 1.962359 1_554
Mn3 O8 1.979415 1_455
Mn3 O9 2.010675 1_455
Mn3 O5 2.066021 1_555
Mn4 O1 1.920213 1_554
Mn4 O6 1.930610 1_545
Mn4 O0 1.948793 1_554
Mn4 O7 2.002464 1_545
Mn4 O4 2.604681 1_555
Mn5 O3 1.826680 1_555
Mn5 O4 1.897865 1_555
Mn5 O8 1.898130 1_554
Mn5 O9 2.075463 1_545
F0 Mn5 2.007233 1_466
F0 Mn2 2.107796 1_555
F0 Mn4 2.313452 1_566
F1 Mg0 2.021529 1_456
F1 Mn5 2.060037 1_466
F1 Mn2 2.185630 1_555
