# generated using pymatgen
data_Na3Si2Ge2PO12
_symmetry_space_group_name_H-M   'P 1'
_cell_length_a   8.67857315
_cell_length_b   8.67857288
_cell_length_c   21.60849741
_cell_angle_alpha   90.24268547
_cell_angle_beta   89.75731454
_cell_angle_gamma   120.06502665
_symmetry_Int_Tables_number   1
_chemical_formula_structural   Na3Si2Ge2PO12
_chemical_formula_sum   'Na18 Si12 Ge12 P6 O72'
_cell_volume   1408.51574910
_cell_formula_units_Z   6
loop_
 _symmetry_equiv_pos_site_id
 _symmetry_equiv_pos_as_xyz
  1  'x, y, z'
loop_
 _atom_site_type_symbol
 _atom_site_label
 _atom_site_symmetry_multiplicity
 _atom_site_fract_x
 _atom_site_fract_y
 _atom_site_fract_z
 _atom_site_occupancy
  Na  Na0  1  0.99887008  0.99651330  0.50018029  1
  Na  Na1  1  0.00348670  0.00112992  0.00018029  1
  Na  Na2  1  0.66553708  0.32984630  0.83351329  1
  Na  Na3  1  0.67015370  0.33446292  0.33351329  1
  Na  Na4  1  0.33220308  0.66318030  0.16684729  1
  Na  Na5  1  0.33681970  0.66779692  0.66684729  1
  Na  Na6  1  0.63564167  0.00146581  0.25040443  1
  Na  Na7  1  0.00052105  0.63223059  0.25130572  1
  Na  Na8  1  0.99853419  0.36435833  0.75040443  1
  Na  Na9  1  0.36776941  0.99947895  0.75130572  1
  Na  Na10  1  0.30230867  0.33479881  0.58373743  1
  Na  Na11  1  0.66718805  0.96556359  0.58463872  1
  Na  Na12  1  0.66520119  0.69769133  0.08373743  1
  Na  Na13  1  0.03443641  0.33281195  0.08463872  1
  Na  Na14  1  0.96897467  0.66813281  0.91707143  1
  Na  Na15  1  0.33385405  0.29889759  0.91797272  1
  Na  Na16  1  0.33186719  0.03102533  0.41707143  1
  Na  Na17  1  0.70110241  0.66614595  0.41797272  1
  Si  Si0  1  0.70813281  0.70914266  0.24980397  1
  Si  Si1  1  0.00451256  0.28743687  0.24974790  1
  Si  Si2  1  0.29085734  0.29186719  0.74980397  1
  Si  Si3  1  0.71256313  0.99548744  0.74974790  1
  Si  Si4  1  0.37479981  0.04247566  0.58313697  1
  Si  Si5  1  0.67117956  0.62076987  0.58308090  1
  Si  Si6  1  0.95752434  0.62520019  0.08313697  1
  Si  Si7  1  0.37923013  0.32882044  0.08308090  1
  Si  Si8  1  0.04146581  0.37580966  0.91647097  1
  Si  Si9  1  0.33784556  0.95410387  0.91641490  1
  Si  Si10  1  0.62419034  0.95853419  0.41647097  1
  Si  Si11  1  0.04589613  0.66215444  0.41641490  1
  Ge  Ge0  1  0.99068490  0.99626409  0.35327519  1
  Ge  Ge1  1  0.00373591  0.00931510  0.85327519  1
  Ge  Ge2  1  0.99812607  0.99382285  0.64710997  1
  Ge  Ge3  1  0.00617715  0.00187393  0.14710997  1
  Ge  Ge4  1  0.65735190  0.32959709  0.68660819  1
  Ge  Ge5  1  0.67040291  0.34264810  0.18660819  1
  Ge  Ge6  1  0.66479307  0.32715585  0.98044297  1
  Ge  Ge7  1  0.67284415  0.33520693  0.48044297  1
  Ge  Ge8  1  0.32401790  0.66293109  0.01994219  1
  Ge  Ge9  1  0.33706891  0.67598210  0.51994219  1
  Ge  Ge10  1  0.33145907  0.66048985  0.31377697  1
  Ge  Ge11  1  0.33951015  0.66854093  0.81377697  1
  P  P0  1  0.28868764  0.00549281  0.25027449  1
  P  P1  1  0.99450719  0.71131236  0.75027449  1
  P  P2  1  0.95535464  0.33882581  0.58360749  1
  P  P3  1  0.66117419  0.04464536  0.08360749  1
  P  P4  1  0.62202064  0.67215981  0.91694149  1
  P  P5  1  0.32784019  0.37797936  0.41694149  1
  O  O0  1  0.20933264  0.03749332  0.30982385  1
  O  O1  1  0.83765216  0.79115665  0.31046711  1
  O  O2  1  0.95822385  0.15527479  0.30865259  1
  O  O3  1  0.20884335  0.16234784  0.81046711  1
  O  O4  1  0.96250668  0.79066736  0.80982385  1
  O  O5  1  0.84472521  0.04177615  0.80865259  1
  O  O6  1  0.79723874  0.96352646  0.68685446  1
  O  O7  1  0.16126119  0.20466715  0.68924810  1
  O  O8  1  0.03896748  0.83548390  0.69389518  1
  O  O9  1  0.79533285  0.83873881  0.18924810  1
  O  O10  1  0.03647354  0.20276126  0.18685446  1
  O  O11  1  0.16451610  0.96103252  0.19389518  1
  O  O12  1  0.87599964  0.37082632  0.64315685  1
  O  O13  1  0.50431916  0.12448965  0.64380011  1
  O  O14  1  0.62489085  0.48860779  0.64198559  1
  O  O15  1  0.87551035  0.49568084  0.14380011  1
  O  O16  1  0.62917368  0.12400036  0.14315685  1
  O  O17  1  0.51139221  0.37510915  0.14198559  1
  O  O18  1  0.46390574  0.29685946  0.02018746  1
  O  O19  1  0.82792819  0.53800015  0.02258110  1
  O  O20  1  0.70563448  0.16881690  0.02722818  1
  O  O21  1  0.46199985  0.17207181  0.52258110  1
  O  O22  1  0.70314054  0.53609426  0.52018746  1
  O  O23  1  0.83118310  0.29436552  0.52722818  1
  O  O24  1  0.54266564  0.70416032  0.97649085  1
  O  O25  1  0.17098516  0.45782365  0.97713411  1
  O  O26  1  0.29155685  0.82194179  0.97531959  1
  O  O27  1  0.54217635  0.82901484  0.47713411  1
  O  O28  1  0.29583968  0.45733436  0.47649085  1
  O  O29  1  0.17805821  0.70844315  0.47531959  1
  O  O30  1  0.13057174  0.63019346  0.35352146  1
  O  O31  1  0.49459419  0.87133415  0.35591510  1
  O  O32  1  0.37230048  0.50215090  0.36056218  1
  O  O33  1  0.12866585  0.50540581  0.85591510  1
  O  O34  1  0.36980654  0.86942826  0.85352146  1
  O  O35  1  0.49784910  0.62769952  0.86056218  1
  O  O36  1  0.02964277  0.84483944  0.41011142  1
  O  O37  1  0.81796888  0.97165635  0.41085770  1
  O  O38  1  0.16543852  0.18914720  0.41013322  1
  O  O39  1  0.02834365  0.18203112  0.91085770  1
  O  O40  1  0.15516056  0.97035723  0.91011142  1
  O  O41  1  0.81085280  0.83456148  0.91013322  1
  O  O42  1  0.97423356  0.16968722  0.58787320  1
  O  O43  1  0.18203562  0.03177242  0.59085806  1
  O  O44  1  0.84222231  0.82232061  0.58912316  1
  O  O45  1  0.96822758  0.81796438  0.09085806  1
  O  O46  1  0.83031278  0.02576644  0.08787320  1
  O  O47  1  0.17767939  0.15777769  0.08912316  1
  O  O48  1  0.69630977  0.17817244  0.74344442  1
  O  O49  1  0.48463588  0.30498935  0.74419070  1
  O  O50  1  0.83210552  0.52248020  0.74346622  1
  O  O51  1  0.69501065  0.51536412  0.24419070  1
  O  O52  1  0.82182756  0.30369023  0.24344442  1
  O  O53  1  0.47751980  0.16789448  0.24346622  1
  O  O54  1  0.64090056  0.50302022  0.92120620  1
  O  O55  1  0.84870262  0.36510542  0.92419106  1
  O  O56  1  0.50888931  0.15565361  0.92245616  1
  O  O57  1  0.63489458  0.15129738  0.42419106  1
  O  O58  1  0.49697978  0.35909944  0.42120620  1
  O  O59  1  0.84434639  0.49111069  0.42245616  1
  O  O60  1  0.36297577  0.51150644  0.07677842  1
  O  O61  1  0.15130188  0.63832335  0.07752470  1
  O  O62  1  0.49877152  0.85581420  0.07680022  1
  O  O63  1  0.36167665  0.84869812  0.57752470  1
  O  O64  1  0.48849356  0.63702423  0.57677842  1
  O  O65  1  0.14418580  0.50122848  0.57680022  1
  O  O66  1  0.30756656  0.83635422  0.25454020  1
  O  O67  1  0.51536862  0.69843942  0.25752506  1
  O  O68  1  0.17555531  0.48898761  0.25579016  1
  O  O69  1  0.30156058  0.48463138  0.75752506  1
  O  O70  1  0.16364578  0.69243344  0.75454020  1
  O  O71  1  0.51101239  0.82444469  0.75579016  1
loop_
_geom_bond_atom_site_label_1
_geom_bond_atom_site_label_2
_geom_bond_distance
_geom_bond_site_symmetry_2
Na0 O44 2.402206 1_555
Na0 O36 2.432699 1_655
Na0 O37 2.433005 1_555
Na0 O43 2.448210 1_665
Na0 O42 2.487877 1_565
Na0 O38 2.500583 1_665
Na1 O47 2.402206 1_555
Na1 O40 2.432699 1_544
Na1 O39 2.433005 1_554
Na1 O45 2.448210 1_445
Na1 O46 2.487877 1_455
Na1 O41 2.500583 1_444
Na2 O56 2.402206 1_555
Na2 O48 2.432699 1_555
Na2 O49 2.433005 1_555
Na2 O55 2.448210 1_555
Na2 O54 2.487877 1_555
Na2 O50 2.500583 1_555
Na3 O59 2.402206 1_555
Na3 O52 2.432699 1_555
Na3 O51 2.433005 1_555
Na3 O57 2.448210 1_555
Na3 O58 2.487877 1_555
Na3 O53 2.500583 1_555
Na4 O68 2.402206 1_555
Na4 O60 2.432699 1_555
Na4 O61 2.433005 1_555
Na4 O67 2.448210 1_555
Na4 O66 2.487877 1_555
Na4 O62 2.500583 1_555
Na5 O71 2.402206 1_555
Na5 O64 2.432699 1_555
Na5 O63 2.433005 1_555
Na5 O69 2.448210 1_555
Na5 O70 2.487877 1_555
Na5 O65 2.500583 1_555
Na6 O52 2.295177 1_555
Na6 O67 2.298017 1_545
Na6 O53 2.445675 1_555
Na6 O66 2.465562 1_545
Na6 O31 2.566112 1_545
Na6 O16 2.566404 1_555
Na6 O2 2.734013 1_555
Na6 O9 2.755212 1_545
Na7 O51 2.321619 1_455
Na7 O66 2.348302 1_555
Na7 O68 2.399308 1_555
Na7 O52 2.476133 1_455
Na7 O30 2.488794 1_555
Na7 O15 2.586060 1_455
Na7 O1 2.730865 1_455
Na7 O11 2.766410 1_555
Na8 O48 2.295177 1_555
Na8 O69 2.298018 1_655
Na8 O50 2.445675 1_555
Na8 O70 2.465562 1_655
Na8 O33 2.566112 1_655
Na8 O12 2.566404 1_555
Na8 O5 2.734013 1_555
Na8 O7 2.755212 1_655
Na9 O49 2.321619 1_565
Na9 O70 2.348302 1_555
Na9 O71 2.399308 1_555
Na9 O48 2.476133 1_565
Na9 O34 2.488794 1_555
Na9 O13 2.586060 1_565
Na9 O3 2.730865 1_565
Na9 O8 2.766410 1_555
Na10 O64 2.295181 1_555
Na10 O43 2.298017 1_555
Na10 O65 2.445688 1_555
Na10 O42 2.465562 1_455
Na10 O7 2.566112 1_555
Na10 O28 2.566390 1_555
Na10 O14 2.734013 1_555
Na10 O21 2.755212 1_555
Na11 O63 2.321626 1_555
Na11 O42 2.348302 1_565
Na11 O44 2.399308 1_555
Na11 O64 2.476124 1_555
Na11 O6 2.488794 1_555
Na11 O27 2.586040 1_555
Na11 O13 2.730865 1_565
Na11 O23 2.766410 1_565
Na12 O60 2.295181 1_555
Na12 O45 2.298018 1_555
Na12 O62 2.445688 1_555
Na12 O46 2.465562 1_565
Na12 O9 2.566112 1_555
Na12 O24 2.566390 1_554
Na12 O17 2.734013 1_555
Na12 O19 2.755212 1_555
Na13 O61 2.321626 1_555
Na13 O46 2.348302 1_455
Na13 O47 2.399308 1_555
Na13 O60 2.476124 1_555
Na13 O10 2.488794 1_555
Na13 O25 2.586040 1_554
Na13 O15 2.730865 1_455
Na13 O20 2.766410 1_455
Na14 O40 2.295177 1_655
Na14 O55 2.298025 1_555
Na14 O41 2.445675 1_555
Na14 O54 2.465554 1_555
Na14 O19 2.566092 1_556
Na14 O4 2.566404 1_555
Na14 O26 2.734013 1_655
Na14 O33 2.755212 1_655
Na15 O39 2.321619 1_555
Na15 O54 2.348306 1_555
Na15 O56 2.399322 1_555
Na15 O40 2.476133 1_545
Na15 O18 2.488781 1_556
Na15 O3 2.586060 1_555
Na15 O25 2.730865 1_555
Na15 O35 2.766410 1_555
Na16 O36 2.295177 1_545
Na16 O57 2.298025 1_555
Na16 O38 2.445675 1_555
Na16 O58 2.465554 1_555
Na16 O21 2.566092 1_555
Na16 O0 2.566404 1_555
Na16 O29 2.734013 1_545
Na16 O31 2.755212 1_545
Na17 O37 2.321619 1_555
Na17 O58 2.348306 1_555
Na17 O59 2.399322 1_555
Na17 O36 2.476133 1_655
Na17 O22 2.488781 1_555
Na17 O1 2.586060 1_555
Na17 O27 2.730865 1_555
Na17 O32 2.766410 1_555
Ge0 O2 1.821142 1_565
Ge0 O1 1.848188 1_555
Ge0 O37 1.872516 1_555
Ge0 O36 1.952439 1_655
Ge0 O0 1.979330 1_665
Ge0 O38 2.016522 1_665
Ge1 O5 1.821143 1_455
Ge1 O3 1.848188 1_555
Ge1 O39 1.872516 1_555
Ge1 O40 1.952439 1_545
Ge1 O4 1.979330 1_445
Ge1 O41 2.016522 1_445
Ge2 O6 1.837425 1_555
Ge2 O8 1.881169 1_655
Ge2 O7 1.892847 1_665
Ge2 O43 1.895696 1_665
Ge2 O44 1.896521 1_555
Ge2 O42 2.084893 1_565
Ge3 O10 1.837425 1_555
Ge3 O11 1.881169 1_545
Ge3 O9 1.892847 1_445
Ge3 O45 1.895696 1_445
Ge3 O47 1.896521 1_555
Ge3 O46 2.084893 1_455
Ge4 O14 1.821142 1_555
Ge4 O13 1.848188 1_555
Ge4 O49 1.872516 1_555
Ge4 O48 1.952439 1_555
Ge4 O12 1.979330 1_555
Ge4 O50 2.016522 1_555
Ge5 O17 1.821143 1_555
Ge5 O15 1.848188 1_555
Ge5 O51 1.872516 1_555
Ge5 O52 1.952439 1_555
Ge5 O16 1.979330 1_555
Ge5 O53 2.016522 1_555
Ge6 O18 1.837425 1_556
Ge6 O20 1.881169 1_556
Ge6 O19 1.892847 1_556
Ge6 O55 1.895696 1_555
Ge6 O56 1.896521 1_555
Ge6 O54 2.084893 1_555
Ge7 O22 1.837425 1_555
Ge7 O23 1.881169 1_555
Ge7 O21 1.892847 1_555
Ge7 O57 1.895696 1_555
Ge7 O59 1.896521 1_555
Ge7 O58 2.084893 1_555
Ge8 O26 1.821142 1_554
Ge8 O25 1.848188 1_554
Ge8 O61 1.872516 1_555
Ge8 O60 1.952439 1_555
Ge8 O24 1.979330 1_554
Ge8 O62 2.016522 1_555
Ge9 O29 1.821143 1_555
Ge9 O27 1.848188 1_555
Ge9 O63 1.872516 1_555
Ge9 O64 1.952439 1_555
Ge9 O28 1.979330 1_555
Ge9 O65 2.016522 1_555
Ge10 O30 1.837425 1_555
Ge10 O32 1.881169 1_555
Ge10 O31 1.892847 1_555
Ge10 O67 1.895696 1_555
Ge10 O68 1.896521 1_555
Ge10 O66 2.084893 1_555
Ge11 O34 1.837425 1_555
Ge11 O35 1.881169 1_555
Ge11 O33 1.892847 1_555
Ge11 O69 1.895696 1_555
Ge11 O71 1.896521 1_555
Ge11 O70 2.084893 1_555
O0 P0 1.545414 1_555
O1 Si0 1.640528 1_555
O2 Si1 1.625863 1_655
O3 Si2 1.640528 1_555
O4 P1 1.545414 1_555
O5 Si3 1.625863 1_545
O6 Si3 1.629881 1_555
O7 Si2 1.643521 1_555
O8 P1 1.544304 1_455
O9 Si0 1.643521 1_555
O10 Si1 1.629881 1_555
O11 P0 1.544304 1_565
O12 P2 1.545414 1_555
O13 Si4 1.640528 1_555
O14 Si5 1.625863 1_555
O15 Si6 1.640528 1_555
O16 P3 1.545414 1_555
O17 Si7 1.625863 1_555
O18 Si7 1.629881 1_555
O19 Si6 1.643521 1_555
O20 P3 1.544304 1_555
O21 Si4 1.643521 1_555
O22 Si5 1.629881 1_555
O23 P2 1.544304 1_555
O24 P4 1.545414 1_555
O25 Si8 1.640528 1_555
O26 Si9 1.625863 1_555
O27 Si10 1.640528 1_555
O28 P5 1.545414 1_555
O29 Si11 1.625863 1_555
O30 Si11 1.629881 1_555
O31 Si10 1.643521 1_555
O32 P5 1.544304 1_555
O33 Si8 1.643521 1_555
O34 Si9 1.629881 1_555
O35 P4 1.544304 1_555
O36 Si11 1.666779 1_555
O37 Si10 1.631675 1_555
O38 P5 1.542457 1_555
O39 Si8 1.631675 1_555
O40 Si9 1.666780 1_555
O41 P4 1.542457 1_555
O42 P2 1.559572 1_555
O43 Si4 1.636211 1_555
O44 Si5 1.636532 1_555
O45 Si6 1.636211 1_555
O46 P3 1.559572 1_555
O47 Si7 1.636532 1_555
O48 Si3 1.666779 1_545
O49 Si2 1.631675 1_555
O50 P1 1.542457 1_555
O51 Si0 1.631675 1_555
O52 Si1 1.666780 1_655
O53 P0 1.542457 1_555
O54 P4 1.559584 1_555
O55 Si8 1.636196 1_655
O56 Si9 1.636528 1_545
O57 Si10 1.636196 1_545
O58 P5 1.559584 1_555
O59 Si11 1.636528 1_655
O60 Si7 1.666791 1_555
O61 Si6 1.631661 1_455
O62 P3 1.542453 1_565
O63 Si4 1.631661 1_565
O64 Si5 1.666791 1_555
O65 P2 1.542453 1_455
O66 P0 1.559572 1_565
O67 Si0 1.636211 1_555
O68 Si1 1.636532 1_555
O69 Si2 1.636211 1_555
O70 P1 1.559572 1_455
O71 Si3 1.636532 1_555
