# generated using pymatgen
data_Na3MgTa5Si3(PO6)6
_symmetry_space_group_name_H-M   'P 1'
_cell_length_a   8.77967354
_cell_length_b   8.77967326
_cell_length_c   22.81647324
_cell_angle_alpha   90.00000000
_cell_angle_beta   90.00000000
_cell_angle_gamma   120.00000105
_symmetry_Int_Tables_number   1
_chemical_formula_structural   Na3MgTa5Si3(PO6)6
_chemical_formula_sum   'Na6 Mg2 Ta10 Si6 P12 O72'
_cell_volume   1523.12611496
_cell_formula_units_Z   2
loop_
 _symmetry_equiv_pos_site_id
 _symmetry_equiv_pos_as_xyz
  1  'x, y, z'
loop_
 _atom_site_type_symbol
 _atom_site_label
 _atom_site_symmetry_multiplicity
 _atom_site_fract_x
 _atom_site_fract_y
 _atom_site_fract_z
 _atom_site_occupancy
  Na  Na0  1  -0.00000000  -0.00000000  0.49891568  1
  Na  Na1  1  -0.00000000  -0.00000000  0.99891568  1
  Na  Na2  1  0.66666700  0.33333300  0.82711626  1
  Na  Na3  1  0.66666700  0.33333300  0.32711626  1
  Na  Na4  1  0.33333300  0.66666700  0.16658796  1
  Na  Na5  1  0.33333300  0.66666700  0.66658796  1
  Mg  Mg0  1  0.66666700  0.33333300  0.68719341  1
  Mg  Mg1  1  0.66666700  0.33333300  0.18719341  1
  Ta  Ta0  1  -0.00000000  0.00000000  0.35574859  1
  Ta  Ta1  1  0.00000000  -0.00000000  0.85574859  1
  Ta  Ta2  1  -0.00000000  0.00000000  0.64556603  1
  Ta  Ta3  1  -0.00000000  0.00000000  0.14556603  1
  Ta  Ta4  1  0.66666700  0.33333300  0.97793032  1
  Ta  Ta5  1  0.66666700  0.33333300  0.47793032  1
  Ta  Ta6  1  0.33333300  0.66666700  0.02023083  1
  Ta  Ta7  1  0.33333300  0.66666700  0.52023083  1
  Ta  Ta8  1  0.33333300  0.66666700  0.31191717  1
  Ta  Ta9  1  0.33333300  0.66666700  0.81191717  1
  Si  Si0  1  0.61878499  0.66592850  0.91637601  1
  Si  Si1  1  0.04714250  0.38121501  0.91637601  1
  Si  Si2  1  0.33407150  0.95285750  0.91637601  1
  Si  Si3  1  0.61878499  0.95285750  0.41637601  1
  Si  Si4  1  0.33407150  0.38121501  0.41637601  1
  Si  Si5  1  0.04714250  0.66592850  0.41637601  1
  P  P0  1  0.29136168  0.00321924  0.24986192  1
  P  P1  1  0.71185756  0.70863832  0.24986192  1
  P  P2  1  0.99678076  0.28814244  0.24986192  1
  P  P3  1  0.29136168  0.28814244  0.74986192  1
  P  P4  1  0.99678076  0.70863832  0.74986192  1
  P  P5  1  0.71185756  0.00321924  0.74986192  1
  P  P6  1  0.95332883  0.33484511  0.58551066  1
  P  P7  1  0.38151729  0.04667117  0.58551066  1
  P  P8  1  0.66515489  0.61848271  0.58551066  1
  P  P9  1  0.95332883  0.61848271  0.08551066  1
  P  P10  1  0.66515489  0.04667117  0.08551066  1
  P  P11  1  0.38151729  0.33484511  0.08551066  1
  O  O0  1  0.19282111  0.01861794  0.30418734  1
  O  O1  1  0.82579683  0.80717889  0.30418734  1
  O  O2  1  0.98138206  0.17420317  0.30418734  1
  O  O3  1  0.19282111  0.17420317  0.80418734  1
  O  O4  1  0.98138206  0.80717889  0.80418734  1
  O  O5  1  0.82579683  0.01861794  0.80418734  1
  O  O6  1  0.80389716  0.97355034  0.69503171  1
  O  O7  1  0.16965317  0.19610284  0.69503171  1
  O  O8  1  0.02644966  0.83034683  0.69503171  1
  O  O9  1  0.80389716  0.83034683  0.19503171  1
  O  O10  1  0.02644966  0.19610284  0.19503171  1
  O  O11  1  0.16965317  0.97355034  0.19503171  1
  O  O12  1  0.87684936  0.36552060  0.63959389  1
  O  O13  1  0.48867224  0.12315064  0.63959389  1
  O  O14  1  0.63447940  0.51132776  0.63959389  1
  O  O15  1  0.87684936  0.51132776  0.13959389  1
  O  O16  1  0.63447940  0.12315064  0.13959389  1
  O  O17  1  0.48867224  0.36552060  0.13959389  1
  O  O18  1  0.46349509  0.30427714  0.02915019  1
  O  O19  1  0.84078305  0.53650491  0.02915019  1
  O  O20  1  0.69572286  0.15921695  0.02915019  1
  O  O21  1  0.46349509  0.15921695  0.52915019  1
  O  O22  1  0.69572286  0.53650491  0.52915019  1
  O  O23  1  0.84078305  0.30427714  0.52915019  1
  O  O24  1  0.53102071  0.69892570  0.97417034  1
  O  O25  1  0.16790399  0.46897929  0.97417034  1
  O  O26  1  0.30107430  0.83209601  0.97417034  1
  O  O27  1  0.53102071  0.83209601  0.47417034  1
  O  O28  1  0.30107430  0.46897929  0.47417034  1
  O  O29  1  0.16790399  0.69892570  0.47417034  1
  O  O30  1  0.13588536  0.63326166  0.35830073  1
  O  O31  1  0.49737530  0.86411464  0.35830073  1
  O  O32  1  0.36673834  0.50262470  0.35830073  1
  O  O33  1  0.13588536  0.50262470  0.85830073  1
  O  O34  1  0.36673834  0.86411464  0.85830073  1
  O  O35  1  0.49737530  0.63326166  0.85830073  1
  O  O36  1  0.02483409  0.83760580  0.40748951  1
  O  O37  1  0.81277171  0.97516591  0.40748951  1
  O  O38  1  0.16239420  0.18722829  0.40748951  1
  O  O39  1  0.02483409  0.18722829  0.90748951  1
  O  O40  1  0.16239420  0.97516591  0.90748951  1
  O  O41  1  0.81277171  0.83760580  0.90748951  1
  O  O42  1  0.97608574  0.16711983  0.59107795  1
  O  O43  1  0.19103409  0.02391426  0.59107795  1
  O  O44  1  0.83288017  0.80896591  0.59107795  1
  O  O45  1  0.97608574  0.80896591  0.09107795  1
  O  O46  1  0.83288017  0.02391426  0.09107795  1
  O  O47  1  0.19103409  0.16711983  0.09107795  1
  O  O48  1  0.69425591  0.16334327  0.74526028  1
  O  O49  1  0.46908836  0.30574409  0.74526028  1
  O  O50  1  0.83665673  0.53091164  0.74526028  1
  O  O51  1  0.69425591  0.53091164  0.24526028  1
  O  O52  1  0.83665673  0.30574409  0.24526028  1
  O  O53  1  0.46908836  0.16334327  0.24526028  1
  O  O54  1  0.64060486  0.49453905  0.92638717  1
  O  O55  1  0.85393520  0.35939514  0.92638717  1
  O  O56  1  0.50546095  0.14606480  0.92638717  1
  O  O57  1  0.64060486  0.14606480  0.42638717  1
  O  O58  1  0.50546095  0.35939514  0.42638717  1
  O  O59  1  0.85393520  0.49453905  0.42638717  1
  O  O60  1  0.35171010  0.49419285  0.07536995  1
  O  O61  1  0.14248175  0.64828990  0.07536995  1
  O  O62  1  0.50580715  0.85751825  0.07536995  1
  O  O63  1  0.35171010  0.85751825  0.57536995  1
  O  O64  1  0.50580715  0.64828990  0.57536995  1
  O  O65  1  0.14248175  0.49419285  0.57536995  1
  O  O66  1  0.29841660  0.82911040  0.25516362  1
  O  O67  1  0.53069279  0.70158340  0.25516362  1
  O  O68  1  0.17088960  0.46930721  0.25516362  1
  O  O69  1  0.29841660  0.46930721  0.75516362  1
  O  O70  1  0.17088960  0.70158340  0.75516362  1
  O  O71  1  0.53069279  0.82911040  0.75516362  1
loop_
_geom_bond_atom_site_label_1
_geom_bond_atom_site_label_2
_geom_bond_distance
_geom_bond_site_symmetry_2
Na0 O38 2.596673 1_555
Na0 O36 2.596673 1_545
Na0 O37 2.596673 1_445
Na0 O44 2.631888 1_445
Na0 O42 2.631888 1_455
Na0 O43 2.631888 1_555
Na1 O39 2.596673 1_555
Na1 O41 2.596673 1_445
Na1 O40 2.596673 1_545
Na1 O45 2.631888 1_446
Na1 O47 2.631888 1_556
Na1 O46 2.631888 1_456
Na2 O50 2.477048 1_555
Na2 O48 2.477048 1_555
Na2 O49 2.477048 1_555
Na2 O54 2.740377 1_555
Na2 O56 2.740377 1_555
Na2 O55 2.740377 1_555
Na3 O51 2.477048 1_555
Na3 O53 2.477048 1_555
Na3 O52 2.477048 1_555
Na3 O58 2.740377 1_555
Na3 O59 2.740377 1_555
Na3 O57 2.740377 1_555
Na4 O68 2.578683 1_555
Na4 O67 2.578683 1_555
Na4 O66 2.578683 1_555
Na4 O62 2.625843 1_555
Na4 O60 2.625843 1_555
Na4 O61 2.625843 1_555
Na5 O69 2.578683 1_555
Na5 O71 2.578683 1_555
Na5 O70 2.578683 1_555
Na5 O63 2.625843 1_555
Na5 O65 2.625843 1_555
Na5 O64 2.625843 1_555
Mg0 O13 2.035470 1_555
Mg0 O14 2.035470 1_555
Mg0 O12 2.035470 1_555
Mg0 O50 2.098310 1_555
Mg0 O48 2.098310 1_555
Mg0 O49 2.098310 1_555
Mg1 O16 2.035470 1_555
Mg1 O15 2.035470 1_555
Mg1 O17 2.035470 1_555
Mg1 O51 2.098310 1_555
Mg1 O53 2.098310 1_555
Mg1 O52 2.098310 1_555
O0 P0 1.555677 1_555
O0 Ta0 1.999989 1_555
O1 P1 1.555677 1_555
O1 Ta0 1.999989 1_665
O2 P2 1.555677 1_555
O2 Ta0 1.999989 1_655
O3 P3 1.555677 1_555
O3 Ta1 1.999989 1_555
O4 P4 1.555677 1_555
O4 Ta1 1.999989 1_665
O5 P5 1.555677 1_555
O5 Ta1 1.999989 1_655
O6 P5 1.580004 1_565
O6 Ta2 1.972875 1_665
O7 P3 1.580004 1_555
O7 Ta2 1.972875 1_555
O8 P4 1.580004 1_455
O8 Ta2 1.972875 1_565
O9 P1 1.580004 1_555
O9 Ta3 1.972875 1_665
O10 P2 1.580004 1_455
O10 Ta3 1.972875 1_555
O11 P0 1.580004 1_565
O11 Ta3 1.972875 1_565
O12 P6 1.492302 1_555
O13 P7 1.492302 1_555
O14 P8 1.492302 1_555
O15 P9 1.492302 1_555
O16 P10 1.492302 1_555
O17 P11 1.492302 1_555
O18 P11 1.561048 1_555
O18 Ta4 2.039037 1_554
O19 P9 1.561048 1_555
O19 Ta4 2.039037 1_554
O20 P10 1.561048 1_555
O20 Ta4 2.039037 1_554
O21 P7 1.561048 1_555
O21 Ta5 2.039037 1_555
O22 P8 1.561048 1_555
O22 Ta5 2.039037 1_555
O23 P6 1.561048 1_555
O23 Ta5 2.039037 1_555
O24 Si0 1.624735 1_555
O24 Ta6 1.924978 1_556
O25 Si1 1.624735 1_555
O25 Ta6 1.924978 1_556
O26 Si2 1.624735 1_555
O26 Ta6 1.924978 1_556
O27 Si3 1.624735 1_555
O27 Ta7 1.924978 1_555
O28 Si4 1.624735 1_555
O28 Ta7 1.924978 1_555
O29 Si5 1.624735 1_555
O29 Ta7 1.924978 1_555
O30 Si5 1.633580 1_555
O30 Ta8 1.924247 1_555
O31 Si3 1.633580 1_555
O31 Ta8 1.924247 1_555
O32 Si4 1.633580 1_555
O32 Ta8 1.924247 1_555
O33 Si1 1.633580 1_555
O33 Ta9 1.924247 1_555
O34 Si2 1.633580 1_555
O34 Ta9 1.924247 1_555
O35 Si0 1.633580 1_555
O35 Ta9 1.924247 1_555
O36 Si5 1.626823 1_555
O36 Ta0 1.945484 1_565
O37 Si3 1.626831 1_555
O37 Ta0 1.945484 1_665
O38 Si4 1.626828 1_555
O38 Ta0 1.945484 1_555
O39 Si1 1.626831 1_555
O39 Ta1 1.945484 1_555
O40 Si2 1.626823 1_555
O40 Ta1 1.945484 1_565
O41 Si0 1.626828 1_555
O41 Ta1 1.945484 1_665
O42 P6 1.587055 1_555
O42 Ta2 2.012611 1_655
O43 P7 1.587064 1_555
O43 Ta2 2.012611 1_555
O44 P8 1.587060 1_555
O44 Ta2 2.012611 1_665
O45 P9 1.587064 1_555
O45 Ta3 2.012611 1_665
O46 P10 1.587055 1_555
O46 Ta3 2.012611 1_655
O47 P11 1.587060 1_555
O47 Ta3 2.012611 1_555
O48 P5 1.492828 1_555
O49 P3 1.492837 1_555
O50 P4 1.492833 1_555
O51 P1 1.492837 1_555
O52 P2 1.492828 1_555
O53 P0 1.492833 1_555
O54 Si0 1.625236 1_555
O54 Ta4 1.939701 1_555
O55 Si1 1.625219 1_655
O55 Ta4 1.939701 1_555
O56 Si2 1.625226 1_545
O56 Ta4 1.939701 1_555
O57 Si3 1.625219 1_545
O57 Ta5 1.939701 1_555
O58 Si4 1.625236 1_555
O58 Ta5 1.939701 1_555
O59 Si5 1.625226 1_655
O59 Ta5 1.939701 1_555
O60 P11 1.563778 1_555
O60 Ta6 2.036203 1_555
O61 P9 1.563760 1_455
O61 Ta6 2.036203 1_555
O62 P10 1.563767 1_565
O62 Ta6 2.036203 1_555
O63 P7 1.563760 1_565
O63 Ta7 2.036203 1_555
O64 P8 1.563778 1_555
O64 Ta7 2.036203 1_555
O65 P6 1.563767 1_455
O65 Ta7 2.036203 1_555
O66 P0 1.565192 1_565
O66 Ta8 2.059621 1_555
O67 P1 1.565201 1_555
O67 Ta8 2.059621 1_555
O68 P2 1.565197 1_455
O68 Ta8 2.059621 1_555
O69 P3 1.565201 1_555
O69 Ta9 2.059621 1_555
O70 P4 1.565192 1_455
O70 Ta9 2.059621 1_555
O71 P5 1.565197 1_565
O71 Ta9 2.059621 1_555
