# generated using pymatgen
data_Na3Hf3Al(PO4)6
_symmetry_space_group_name_H-M   'P 1'
_cell_length_a   8.78961272
_cell_length_b   8.78048256
_cell_length_c   22.74377444
_cell_angle_alpha   90.02121642
_cell_angle_beta   89.98596280
_cell_angle_gamma   120.15729582
_symmetry_Int_Tables_number   1
_chemical_formula_structural   Na3Hf3Al(PO4)6
_chemical_formula_sum   'Na9 Hf9 Al3 P18 O72'
_cell_volume   1517.71671321
_cell_formula_units_Z   3
loop_
 _symmetry_equiv_pos_site_id
 _symmetry_equiv_pos_as_xyz
  1  'x, y, z'
loop_
 _atom_site_type_symbol
 _atom_site_label
 _atom_site_symmetry_multiplicity
 _atom_site_fract_x
 _atom_site_fract_y
 _atom_site_fract_z
 _atom_site_occupancy
  Na  Na0  1  0.36594031  0.36266157  0.24747436  1
  Na  Na1  1  0.63856896  0.63460402  0.74793523  1
  Na  Na2  1  0.97169589  0.30104599  0.41412518  1
  Na  Na3  1  0.00069437  0.99185840  0.49764633  1
  Na  Na4  1  0.99983823  0.99984451  0.00132017  1
  Na  Na5  1  0.66722034  0.32526240  0.83212997  1
  Na  Na6  1  0.66743756  0.33350145  0.32850851  1
  Na  Na7  1  0.33265590  0.67474287  0.16515701  1
  Na  Na8  1  0.32562245  0.66728708  0.66536884  1
  Hf  Hf0  1  0.00086527  0.00184857  0.85238725  1
  Hf  Hf1  1  0.00166521  0.00230665  0.64534914  1
  Hf  Hf2  1  0.99775038  0.99773213  0.14638271  1
  Hf  Hf3  1  0.66665024  0.33371826  0.98113134  1
  Hf  Hf4  1  0.66119286  0.33381205  0.48075465  1
  Hf  Hf5  1  0.33352493  0.66676143  0.02338070  1
  Hf  Hf6  1  0.33414490  0.66869334  0.52102394  1
  Hf  Hf7  1  0.33457311  0.67346217  0.31217273  1
  Hf  Hf8  1  0.32816628  0.66732693  0.81378650  1
  Al  Al0  1  0.99884825  0.99266168  0.34885945  1
  Al  Al1  1  0.66738675  0.32775432  0.68431271  1
  Al  Al2  1  0.67344655  0.33280180  0.18512847  1
  P  P0  1  0.29140540  0.00728648  0.25075608  1
  P  P1  1  0.71760489  0.70726719  0.25147401  1
  P  P2  1  0.98780043  0.28288862  0.25177322  1
  P  P3  1  0.30090904  0.29120888  0.74824876  1
  P  P4  1  0.99340071  0.69977068  0.74765180  1
  P  P5  1  0.70895433  0.01112836  0.74821633  1
  P  P6  1  0.95005911  0.33486617  0.58545628  1
  P  P7  1  0.38369808  0.04894527  0.58667916  1
  P  P8  1  0.66488359  0.61668587  0.58701936  1
  P  P9  1  0.94989694  0.61585335  0.08668595  1
  P  P10  1  0.66652755  0.05097133  0.08676141  1
  P  P11  1  0.38370442  0.33362378  0.08730018  1
  P  P12  1  0.62388698  0.66652582  0.91635068  1
  P  P13  1  0.04176928  0.37521229  0.91751310  1
  P  P14  1  0.33288597  0.95779955  0.91735720  1
  P  P15  1  0.63400383  0.95722786  0.41547808  1
  P  P16  1  0.32656214  0.36701776  0.41408339  1
  P  P17  1  0.04277756  0.67821660  0.41534214  1
  O  O0  1  0.20231559  0.03713415  0.30478200  1
  O  O1  1  0.83016736  0.79875869  0.30561315  1
  O  O2  1  0.96790332  0.17410139  0.30790761  1
  O  O3  1  0.21329652  0.17896081  0.80342928  1
  O  O4  1  0.96054561  0.78519688  0.80257768  1
  O  O5  1  0.82145056  0.03493892  0.80352351  1
  O  O6  1  0.79257013  0.96853055  0.69549041  1
  O  O7  1  0.18016426  0.20720427  0.69494106  1
  O  O8  1  0.02610131  0.82068892  0.69449666  1
  O  O9  1  0.79436485  0.82141139  0.19627392  1
  O  O10  1  0.03099413  0.20390679  0.19792379  1
  O  O11  1  0.17739398  0.97358378  0.19573981  1
  O  O12  1  0.85909300  0.35915664  0.63876818  1
  O  O13  1  0.49806269  0.13916198  0.64021077  1
  O  O14  1  0.64089982  0.50587579  0.64217876  1
  O  O15  1  0.86003594  0.50118428  0.14042723  1
  O  O16  1  0.64079108  0.14012615  0.14051624  1
  O  O17  1  0.49492362  0.35845257  0.14259126  1
  O  O18  1  0.46436497  0.30670545  0.03070354  1
  O  O19  1  0.84387861  0.53756451  0.02951094  1
  O  O20  1  0.69414731  0.15687433  0.02957523  1
  O  O21  1  0.46234499  0.15587610  0.52968975  1
  O  O22  1  0.69305913  0.53566087  0.53074416  1
  O  O23  1  0.84675767  0.30690512  0.52731681  1
  O  O24  1  0.53585338  0.69332553  0.97031384  1
  O  O25  1  0.15566659  0.46164321  0.97178688  1
  O  O26  1  0.30546105  0.84386946  0.97165747  1
  O  O27  1  0.54546328  0.84467315  0.47077038  1
  O  O28  1  0.29527890  0.45542185  0.46868939  1
  O  O29  1  0.15575741  0.70183265  0.47076159  1
  O  O30  1  0.12605740  0.63531138  0.36256298  1
  O  O31  1  0.51354445  0.87356969  0.36214811  1
  O  O32  1  0.35891940  0.48362359  0.35945145  1
  O  O33  1  0.12726708  0.48749936  0.86191890  1
  O  O34  1  0.36046324  0.87279765  0.86180867  1
  O  O35  1  0.51561949  0.64023352  0.85944898  1
  O  O36  1  0.02342287  0.83962587  0.40570118  1
  O  O37  1  0.81922168  0.98213269  0.40687794  1
  O  O38  1  0.15821669  0.18585457  0.40640428  1
  O  O39  1  0.02368101  0.19212996  0.91045328  1
  O  O40  1  0.16804118  0.97550994  0.91000030  1
  O  O41  1  0.80772117  0.83160697  0.90998022  1
  O  O42  1  0.97211769  0.17091315  0.59065286  1
  O  O43  1  0.19770837  0.02656970  0.59081903  1
  O  O44  1  0.82903263  0.80308082  0.59087858  1
  O  O45  1  0.97289943  0.80215644  0.09086096  1
  O  O46  1  0.82952464  0.02805931  0.09122174  1
  O  O47  1  0.19697505  0.17053413  0.09110723  1
  O  O48  1  0.68929821  0.17245434  0.73939917  1
  O  O49  1  0.48630353  0.31639411  0.74019517  1
  O  O50  1  0.82521908  0.51873287  0.73972820  1
  O  O51  1  0.68853101  0.51880418  0.24300268  1
  O  O52  1  0.82778694  0.30580481  0.24204727  1
  O  O53  1  0.47500552  0.17442548  0.24269792  1
  O  O54  1  0.64242036  0.50187149  0.92186796  1
  O  O55  1  0.85853617  0.35627504  0.92216381  1
  O  O56  1  0.49761243  0.14149065  0.92215257  1
  O  O57  1  0.65671586  0.14445451  0.42269289  1
  O  O58  1  0.49174224  0.35101618  0.42189525  1
  O  O59  1  0.86171427  0.50561796  0.42292608  1
  O  O60  1  0.36377154  0.49847039  0.07999639  1
  O  O61  1  0.13496876  0.63670389  0.07984532  1
  O  O62  1  0.50197433  0.86521769  0.07989054  1
  O  O63  1  0.36288395  0.86372142  0.57936924  1
  O  O64  1  0.50033114  0.63640872  0.57907629  1
  O  O65  1  0.13618999  0.49926047  0.57876554  1
  O  O66  1  0.31149596  0.84262409  0.25719721  1
  O  O67  1  0.52730291  0.68141596  0.25787121  1
  O  O68  1  0.16047017  0.46782480  0.25803925  1
  O  O69  1  0.32330731  0.47821672  0.75550787  1
  O  O70  1  0.15831439  0.68362963  0.75492400  1
  O  O71  1  0.52797741  0.83841317  0.75572484  1
loop_
_geom_bond_atom_site_label_1
_geom_bond_atom_site_label_2
_geom_bond_distance
_geom_bond_site_symmetry_2
Na0 O53 2.292235 1_555
Na0 O68 2.418099 1_555
Na0 O67 2.431485 1_555
Na0 O51 2.454351 1_555
Na0 O17 2.649093 1_555
Na0 O32 2.771596 1_555
Na0 O10 2.785260 1_555
Na0 O0 2.794383 1_555
Na1 O50 2.332003 1_555
Na1 O69 2.402212 1_555
Na1 O49 2.423096 1_555
Na1 O71 2.434385 1_555
Na1 O14 2.661709 1_555
Na1 O4 2.746399 1_555
Na1 O35 2.766781 1_555
Na1 O6 2.804632 1_555
Na2 O38 2.325386 1_655
Na2 O57 2.401784 1_555
Na2 O37 2.427671 1_545
Na2 O59 2.438310 1_555
Na2 O2 2.653350 1_555
Na2 O28 2.755657 1_655
Na2 O30 2.798410 1_655
Na2 O23 2.809171 1_555
Na3 O36 2.542768 1_555
Na3 O37 2.584181 1_455
Na3 O38 2.599325 1_565
Na3 O44 2.647373 1_455
Na3 O43 2.655787 1_565
Na3 O42 2.720936 1_465
Na4 O45 2.608792 1_555
Na4 O47 2.609406 1_665
Na4 O39 2.610059 1_664
Na4 O41 2.615801 1_554
Na4 O46 2.617997 1_565
Na4 O40 2.619305 1_654
Na5 O48 2.558376 1_555
Na5 O56 2.569477 1_555
Na5 O55 2.576084 1_555
Na5 O49 2.604594 1_555
Na5 O50 2.619512 1_555
Na5 O54 2.637215 1_555
Na6 O51 2.482476 1_555
Na6 O53 2.499328 1_555
Na6 O52 2.501038 1_555
Na6 O58 2.675164 1_555
Na6 O57 2.682949 1_555
Na6 O59 2.686583 1_555
Na7 O62 2.504584 1_555
Na7 O61 2.512697 1_555
Na7 O60 2.577725 1_555
Na7 O66 2.619649 1_555
Na7 O67 2.697770 1_555
Na7 O68 2.700477 1_555
Na8 O63 2.518438 1_555
Na8 O65 2.521894 1_555
Na8 O70 2.557765 1_555
Na8 O64 2.588430 1_555
Na8 O69 2.632094 1_555
Na8 O71 2.637933 1_555
Hf0 O3 2.056071 1_555
Hf0 O39 2.058544 1_555
Hf0 O5 2.065880 1_455
Hf0 O40 2.066942 1_545
Hf0 O41 2.069521 1_445
Hf0 O4 2.085417 1_445
Hf1 O7 2.033170 1_555
Hf1 O43 2.045253 1_555
Hf1 O8 2.045539 1_545
Hf1 O42 2.048059 1_455
Hf1 O6 2.053727 1_445
Hf1 O44 2.056605 1_445
Hf2 O9 2.024783 1_555
Hf2 O11 2.033663 1_655
Hf2 O10 2.050333 1_665
Hf2 O45 2.052536 1_555
Hf2 O46 2.056209 1_565
Hf2 O47 2.068767 1_665
Hf3 O19 2.009712 1_556
Hf3 O20 2.015428 1_556
Hf3 O18 2.015994 1_556
Hf3 O56 2.082149 1_555
Hf3 O55 2.084701 1_555
Hf3 O54 2.087972 1_555
Hf4 O21 1.997783 1_555
Hf4 O22 2.003035 1_555
Hf4 O23 2.055676 1_555
Hf4 O58 2.064076 1_555
Hf4 O59 2.107336 1_555
Hf4 O57 2.107713 1_555
Hf5 O25 2.057912 1_554
Hf5 O26 2.061541 1_554
Hf5 O24 2.063046 1_554
Hf5 O62 2.070628 1_555
Hf5 O61 2.073902 1_555
Hf5 O60 2.075706 1_555
Hf6 O27 2.064098 1_555
Hf6 O29 2.075933 1_555
Hf6 O63 2.078708 1_555
Hf6 O65 2.089219 1_555
Hf6 O64 2.091548 1_555
Hf6 O28 2.096664 1_555
Hf7 O31 2.018913 1_555
Hf7 O66 2.028526 1_555
Hf7 O30 2.041353 1_555
Hf7 O67 2.068823 1_555
Hf7 O32 2.083354 1_555
Hf7 O68 2.083480 1_555
Hf8 O33 2.002145 1_555
Hf8 O34 2.003122 1_555
Hf8 O35 2.060272 1_555
Hf8 O70 2.063358 1_555
Hf8 O71 2.105815 1_555
Hf8 O69 2.107853 1_555
Al0 O1 1.878183 1_555
Al0 O0 1.911433 1_665
Al0 O36 1.953620 1_655
Al0 O2 1.978926 1_565
Al0 O37 2.023600 1_555
Al0 O38 2.040692 1_665
Al1 O13 1.867218 1_555
Al1 O12 1.876397 1_555
Al1 O48 1.931701 1_555
Al1 O14 1.945673 1_555
Al1 O50 1.996728 1_555
Al1 O49 1.999568 1_555
Al2 O15 1.863675 1_555
Al2 O16 1.866818 1_555
Al2 O17 1.950620 1_555
Al2 O52 1.973976 1_555
Al2 O51 2.049001 1_555
Al2 O53 2.062444 1_555
O0 P0 1.548289 1_555
O1 P1 1.530254 1_555
O2 P2 1.551106 1_555
O3 P3 1.541858 1_555
O4 P4 1.556710 1_555
O5 P5 1.548042 1_555
O6 P5 1.547105 1_565
O7 P3 1.534211 1_555
O8 P4 1.538046 1_455
O9 P1 1.535243 1_555
O10 P2 1.545558 1_455
O11 P0 1.536191 1_565
O12 P6 1.525007 1_555
O13 P7 1.523193 1_555
O14 P8 1.536114 1_555
O15 P9 1.527407 1_555
O16 P10 1.528328 1_555
O17 P11 1.539747 1_555
O18 P11 1.543743 1_555
O19 P9 1.545378 1_555
O20 P10 1.545695 1_555
O21 P7 1.545237 1_555
O22 P8 1.543322 1_555
O23 P6 1.552282 1_555
O24 P12 1.530590 1_555
O25 P13 1.529195 1_555
O26 P14 1.530529 1_555
O27 P15 1.546439 1_555
O28 P16 1.560174 1_555
O29 P17 1.552867 1_555
O30 P17 1.547581 1_555
O31 P15 1.533079 1_555
O32 P16 1.543132 1_555
O33 P13 1.546475 1_555
O34 P14 1.546889 1_555
O35 P12 1.553509 1_555
O36 P17 1.525818 1_555
O37 P15 1.542278 1_555
O38 P16 1.544445 1_555
O39 P13 1.542175 1_555
O40 P14 1.542102 1_555
O41 P12 1.542631 1_555
O42 P6 1.550661 1_555
O43 P7 1.548287 1_555
O44 P8 1.547696 1_555
O45 P9 1.547069 1_555
O46 P10 1.546939 1_555
O47 P11 1.546114 1_555
O48 P5 1.524045 1_555
O49 P3 1.541327 1_555
O50 P4 1.543845 1_555
O51 P1 1.554244 1_555
O52 P2 1.533646 1_555
O53 P0 1.553088 1_555
O54 P12 1.539233 1_555
O55 P13 1.537387 1_655
O56 P14 1.537290 1_545
O57 P15 1.561856 1_545
O58 P16 1.537640 1_555
O59 P17 1.560771 1_655
O60 P11 1.551884 1_555
O61 P9 1.550669 1_455
O62 P10 1.551209 1_565
O63 P7 1.551452 1_565
O64 P8 1.551250 1_555
O65 P6 1.552606 1_455
O66 P0 1.549104 1_565
O67 P1 1.577650 1_555
O68 P2 1.576161 1_455
O69 P3 1.561171 1_555
O70 P4 1.534640 1_455
O71 P5 1.560648 1_565
