# generated using pymatgen
data_Na2ZnSi2Sn3(SO6)4
_symmetry_space_group_name_H-M   'P 1'
_cell_length_a   8.78888246
_cell_length_b   8.78260474
_cell_length_c   23.11987069
_cell_angle_alpha   89.31884983
_cell_angle_beta   90.09622470
_cell_angle_gamma   119.72276040
_symmetry_Int_Tables_number   1
_chemical_formula_structural   Na2ZnSi2Sn3(SO6)4
_chemical_formula_sum   'Na6 Zn3 Si6 Sn9 S12 O72'
_cell_volume   1549.68604180
_cell_formula_units_Z   3
loop_
 _symmetry_equiv_pos_site_id
 _symmetry_equiv_pos_as_xyz
  1  'x, y, z'
loop_
 _atom_site_type_symbol
 _atom_site_label
 _atom_site_symmetry_multiplicity
 _atom_site_fract_x
 _atom_site_fract_y
 _atom_site_fract_z
 _atom_site_occupancy
  Na  Na0  1  0.97954592  0.98527270  0.50721878  1
  Na  Na1  1  0.02403664  0.02146185  0.99986677  1
  Na  Na2  1  0.66873922  0.31550511  0.83562316  1
  Na  Na3  1  0.66394156  0.32134434  0.33498527  1
  Na  Na4  1  0.33586727  0.65791653  0.16508290  1
  Na  Na5  1  0.35431478  0.67377517  0.67000889  1
  Zn  Zn0  1  0.96257333  0.97016805  0.64843932  1
  Zn  Zn1  1  0.01745175  0.01484127  0.14335172  1
  Zn  Zn2  1  0.34899122  0.68576196  0.31876361  1
  Si  Si0  1  0.70563709  0.99563015  0.74905165  1
  Si  Si1  1  0.67278312  0.62429068  0.58314077  1
  Si  Si2  1  0.37255222  0.33702432  0.08206048  1
  Si  Si3  1  0.04022592  0.37632868  0.91613960  1
  Si  Si4  1  0.32693090  0.95474531  0.91684365  1
  Si  Si5  1  0.62633755  0.96500854  0.41461938  1
  Sn  Sn0  1  0.99103896  0.99783784  0.35082692  1
  Sn  Sn1  1  0.00262652  0.01454905  0.85337543  1
  Sn  Sn2  1  0.66608546  0.33167059  0.68755837  1
  Sn  Sn3  1  0.65973090  0.33486316  0.18168855  1
  Sn  Sn4  1  0.65583395  0.31991978  0.97746324  1
  Sn  Sn5  1  0.66687306  0.33121284  0.48316591  1
  Sn  Sn6  1  0.32244073  0.65499279  0.01610120  1
  Sn  Sn7  1  0.35320368  0.67215778  0.51997359  1
  Sn  Sn8  1  0.33257149  0.67690402  0.81578828  1
  S  S0  1  0.28937738  0.99744867  0.24972775  1
  S  S1  1  0.70921815  0.70700551  0.24758691  1
  S  S2  1  0.00032740  0.29847317  0.24808167  1
  S  S3  1  0.29089489  0.29284447  0.74789581  1
  S  S4  1  0.00060228  0.71050926  0.74919013  1
  S  S5  1  0.96611063  0.33625114  0.58209269  1
  S  S6  1  0.36799970  0.03823680  0.58383051  1
  S  S7  1  0.95731442  0.62573582  0.08373818  1
  S  S8  1  0.66655783  0.03709168  0.08459843  1
  S  S9  1  0.62656955  0.66787715  0.91651859  1
  S  S10  1  0.33092566  0.37291619  0.41435961  1
  S  S11  1  0.04513065  0.66616315  0.41546797  1
  O  O0  1  0.21343757  0.03144774  0.30462371  1
  O  O1  1  0.81566279  0.78019786  0.30285208  1
  O  O2  1  0.96422803  0.18876108  0.30332541  1
  O  O3  1  0.22011535  0.18658825  0.80243668  1
  O  O4  1  0.97549135  0.78736102  0.80279632  1
  O  O5  1  0.82040356  0.03077776  0.80840495  1
  O  O6  1  0.78276903  0.96951057  0.69077843  1
  O  O7  1  0.19079568  0.21270666  0.69643432  1
  O  O8  1  0.03126188  0.81509413  0.69699500  1
  O  O9  1  0.79720755  0.81601118  0.19727903  1
  O  O10  1  0.02192284  0.21314235  0.19799711  1
  O  O11  1  0.18439531  0.98015304  0.19914681  1
  O  O12  1  0.88650931  0.36805077  0.63384491  1
  O  O13  1  0.48546806  0.11313853  0.63443590  1
  O  O14  1  0.63131288  0.49577676  0.64013322  1
  O  O15  1  0.88508965  0.51214293  0.13819807  1
  O  O16  1  0.63530234  0.11630970  0.13837151  1
  O  O17  1  0.49011165  0.37859471  0.14275892  1
  O  O18  1  0.47203700  0.30983599  0.02726065  1
  O  O19  1  0.85165442  0.53986463  0.03224053  1
  O  O20  1  0.70125228  0.15083038  0.03270138  1
  O  O21  1  0.44940148  0.14065243  0.52913733  1
  O  O22  1  0.69520136  0.53492821  0.52339768  1
  O  O23  1  0.85589387  0.30343778  0.52900273  1
  O  O24  1  0.55176070  0.69936789  0.96949205  1
  O  O25  1  0.15595227  0.44715267  0.97471583  1
  O  O26  1  0.30226029  0.84508824  0.97748654  1
  O  O27  1  0.54852144  0.84850030  0.47429259  1
  O  O28  1  0.29433047  0.44264234  0.46825819  1
  O  O29  1  0.14685702  0.69038323  0.46980319  1
  O  O30  1  0.12052222  0.63764934  0.36387560  1
  O  O31  1  0.51524568  0.88946459  0.35748125  1
  O  O32  1  0.35398430  0.47672733  0.36257797  1
  O  O33  1  0.12564403  0.48970099  0.85679400  1
  O  O34  1  0.37375049  0.88157868  0.85968295  1
  O  O35  1  0.51806768  0.63491380  0.86416450  1
  O  O36  1  0.03022540  0.83051932  0.41030435  1
  O  O37  1  0.82576633  0.98522696  0.41062763  1
  O  O38  1  0.17573541  0.19041673  0.40943386  1
  O  O39  1  0.01373239  0.17934704  0.91335371  1
  O  O40  1  0.14596647  0.96313956  0.90945937  1
  O  O41  1  0.80178478  0.82358497  0.91040462  1
  O  O42  1  0.99494851  0.18814342  0.58781204  1
  O  O43  1  0.19951656  0.02880091  0.59046035  1
  O  O44  1  0.84464120  0.81352080  0.58351255  1
  O  O45  1  0.96536052  0.79422040  0.09099433  1
  O  O46  1  0.81909051  0.01514286  0.09215103  1
  O  O47  1  0.18355301  0.16364037  0.08664567  1
  O  O48  1  0.68270342  0.17497937  0.74481234  1
  O  O49  1  0.47295879  0.31535413  0.74586016  1
  O  O50  1  0.83851392  0.53203951  0.74587136  1
  O  O51  1  0.69806160  0.52799877  0.24558154  1
  O  O52  1  0.83369907  0.31330085  0.24331607  1
  O  O53  1  0.47102691  0.15952434  0.24656717  1
  O  O54  1  0.64538268  0.51061645  0.92258852  1
  O  O55  1  0.85158092  0.37049380  0.92370575  1
  O  O56  1  0.49868577  0.15080396  0.91997349  1
  O  O57  1  0.65047276  0.16374827  0.42375951  1
  O  O58  1  0.49140615  0.35677381  0.42148609  1
  O  O59  1  0.86447065  0.51212771  0.42165038  1
  O  O60  1  0.36424715  0.52176313  0.07872513  1
  O  O61  1  0.13599858  0.64580894  0.08073167  1
  O  O62  1  0.50284307  0.86675232  0.07904630  1
  O  O63  1  0.34744421  0.85815681  0.57772767  1
  O  O64  1  0.48510021  0.62939796  0.58078799  1
  O  O65  1  0.13585108  0.50617631  0.57379696  1
  O  O66  1  0.30594740  0.83980756  0.25607433  1
  O  O67  1  0.53201170  0.68263673  0.25445966  1
  O  O68  1  0.15346114  0.47269464  0.25673945  1
  O  O69  1  0.30850229  0.46975596  0.75512063  1
  O  O70  1  0.15506465  0.68251198  0.75365394  1
  O  O71  1  0.50906119  0.81885400  0.75540136  1
loop_
_geom_bond_atom_site_label_1
_geom_bond_atom_site_label_2
_geom_bond_distance
_geom_bond_site_symmetry_2
Na0 O44 2.227732 1_555
Na0 O42 2.550240 1_565
Na0 O37 2.608276 1_555
Na0 O43 2.619108 1_665
Na0 O36 2.782484 1_655
Na0 O38 2.857632 1_665
Na1 O47 2.421621 1_556
Na1 O39 2.447373 1_555
Na1 O40 2.521310 1_545
Na1 O45 2.751544 1_446
Na1 O46 2.776831 1_456
Na1 O41 2.796349 1_445
Na2 O56 2.434800 1_555
Na2 O48 2.481731 1_555
Na2 O55 2.491102 1_555
Na2 O50 2.692886 1_555
Na2 O49 2.693231 1_555
Na2 O54 2.730065 1_555
Na3 O57 2.431688 1_555
Na3 O53 2.596414 1_555
Na3 O52 2.615618 1_555
Na3 O58 2.624631 1_555
Na3 O51 2.651360 1_555
Na3 O59 2.658595 1_555
Na4 O60 2.415085 1_555
Na4 O61 2.590071 1_555
Na4 O62 2.593918 1_555
Na4 O67 2.629910 1_555
Na4 O68 2.655242 1_555
Na4 O66 2.746814 1_555
Na5 O71 2.388170 1_555
Na5 O64 2.489883 1_555
Na5 O69 2.539349 1_555
Na5 O70 2.638278 1_555
Na5 O63 2.681843 1_555
Na5 O65 2.839407 1_555
O0 S0 1.534579 1_545
O0 Sn0 2.115702 1_445
O1 S1 1.529769 1_555
O1 Sn0 2.093525 1_555
O2 S2 1.526228 1_655
O2 Sn0 2.102487 1_545
O3 S3 1.498973 1_555
O3 Sn1 2.103580 1_555
O4 S4 1.486213 1_655
O4 Sn1 2.233437 1_665
O5 Si0 1.640859 1_545
O5 Sn1 1.970652 1_655
O6 Si0 1.578585 1_555
O6 Zn0 1.857828 1_555
O7 S3 1.444757 1_555
O7 Zn0 2.367270 1_445
O8 S4 1.449773 1_555
O8 Zn0 2.063074 1_455
O9 S1 1.452516 1_555
O9 Zn1 2.226051 1_665
O10 S2 1.449458 1_555
O10 Zn1 2.148294 1_555
O11 S0 1.450372 1_555
O11 Zn1 2.082598 1_565
O12 S5 1.484445 1_555
O12 Sn2 2.186820 1_555
O13 S6 1.486031 1_555
O13 Sn2 2.177234 1_555
O14 Si1 1.643571 1_555
O14 Sn2 1.941905 1_555
O15 S7 1.525920 1_555
O15 Sn3 2.066325 1_555
O16 S8 1.521958 1_555
O16 Sn3 2.090397 1_555
O17 Si2 1.674350 1_555
O17 Sn3 1.932619 1_555
O18 Si2 1.626244 1_555
O18 Sn4 1.950574 1_554
O19 S7 1.473728 1_555
O19 Sn4 2.247558 1_554
O20 S8 1.483632 1_555
O20 Sn4 2.129952 1_554
O21 S6 1.502578 1_555
O21 Sn5 2.091980 1_555
O22 Si1 1.656102 1_555
O22 Sn5 1.930107 1_555
O23 S5 1.501861 1_555
O23 Sn5 2.081394 1_555
O24 S9 1.483186 1_555
O24 Sn6 2.143275 1_556
O25 Si3 1.625892 1_555
O25 Sn6 1.943417 1_556
O26 Si4 1.643817 1_555
O26 Sn6 1.968118 1_556
O27 Si5 1.641291 1_555
O27 Sn7 1.947239 1_555
O28 S10 1.498694 1_555
O28 Sn7 2.186668 1_555
O29 S11 1.495556 1_555
O29 Sn7 2.221807 1_555
O30 S11 1.448742 1_555
O30 Zn2 2.110349 1_555
O31 Si5 1.585168 1_555
O31 Zn2 1.891699 1_555
O32 S10 1.448178 1_555
O32 Zn2 2.105705 1_555
O33 Si3 1.633194 1_555
O33 Sn8 1.978180 1_555
O34 Si4 1.616466 1_555
O34 Sn8 1.946584 1_555
O35 S9 1.479526 1_555
O35 Sn8 2.150600 1_555
O36 S11 1.516045 1_555
O36 Sn0 2.149691 1_455
O37 Si5 1.674434 1_555
O37 Sn0 1.969091 1_555
O38 S10 1.509424 1_555
O38 Sn0 2.157841 1_445
O39 Si3 1.629251 1_555
O39 Sn1 1.983545 1_555
O40 Si4 1.636842 1_555
O40 Sn1 2.004218 1_565
O41 S9 1.472898 1_555
O41 Sn1 2.164897 1_665
O42 S5 1.447911 1_555
O42 Zn0 2.260087 1_545
O43 S6 1.449774 1_555
O43 Zn0 2.308308 1_445
O44 Si1 1.598324 1_555
O44 Zn0 1.962199 1_555
O45 S7 1.457688 1_555
O45 Zn1 2.145590 1_665
O46 S8 1.455852 1_555
O46 Zn1 2.106704 1_655
O47 Si2 1.605554 1_555
O47 Zn1 1.905707 1_555
O48 Si0 1.685951 1_545
O48 Sn2 1.955167 1_555
O49 S3 1.512643 1_555
O49 Sn2 2.116697 1_555
O50 S4 1.510115 1_655
O50 Sn2 2.148502 1_555
O51 S1 1.527175 1_555
O51 Sn3 2.159648 1_555
O52 S2 1.536886 1_655
O52 Sn3 2.162674 1_555
O53 S0 1.524731 1_545
O53 Sn3 2.189259 1_555
O54 S9 1.475262 1_555
O54 Sn4 2.127126 1_555
O55 Si3 1.642751 1_655
O55 Sn4 1.984462 1_555
O56 Si4 1.635244 1_545
O56 Sn4 1.971518 1_555
O57 Si5 1.666654 1_545
O57 Sn5 1.976744 1_555
O58 S10 1.494505 1_555
O58 Sn5 2.188723 1_555
O59 S11 1.495948 1_655
O59 Sn5 2.186707 1_555
O60 Si2 1.660778 1_555
O60 Sn6 1.996170 1_555
O61 S7 1.492553 1_455
O61 Sn6 2.190583 1_555
O62 S8 1.481330 1_565
O62 Sn6 2.285431 1_555
O63 S6 1.508577 1_565
O63 Sn7 2.141982 1_555
O64 Si1 1.672993 1_555
O64 Sn7 1.968599 1_555
O65 S5 1.508645 1_455
O65 Sn7 2.127496 1_555
O66 S0 1.467859 1_555
O66 Zn2 2.129141 1_555
O67 S1 1.471797 1_555
O67 Zn2 2.202551 1_555
O68 S2 1.468680 1_555
O68 Zn2 2.319046 1_555
O69 S3 1.494533 1_555
O69 Sn8 2.236071 1_555
O70 S4 1.497995 1_555
O70 Sn8 2.137036 1_555
O71 Si0 1.659062 1_555
O71 Sn8 1.989426 1_555
