# generated using pymatgen
data_NaIn2P(SO6)2
_symmetry_space_group_name_H-M   'P 1'
_cell_length_a   8.85767981
_cell_length_b   8.85962160
_cell_length_c   23.42307489
_cell_angle_alpha   89.97339174
_cell_angle_beta   90.00000000
_cell_angle_gamma   119.99275012
_symmetry_Int_Tables_number   1
_chemical_formula_structural   NaIn2P(SO6)2
_chemical_formula_sum   'Na6 In12 P6 S12 O72'
_cell_volume   1591.99371630
_cell_formula_units_Z   6
loop_
 _symmetry_equiv_pos_site_id
 _symmetry_equiv_pos_as_xyz
  1  'x, y, z'
loop_
 _atom_site_type_symbol
 _atom_site_label
 _atom_site_symmetry_multiplicity
 _atom_site_fract_x
 _atom_site_fract_y
 _atom_site_fract_z
 _atom_site_occupancy
  Na  Na0  1  0.97825775  0.98603054  0.49978650  1
  Na  Na1  1  0.00777279  0.98603054  0.99978650  1
  Na  Na2  1  0.65821815  0.31192701  0.83337366  1
  Na  Na3  1  0.65370987  0.31192701  0.33337366  1
  Na  Na4  1  0.31842517  0.67362973  0.16687473  1
  Na  Na5  1  0.35520356  0.67362973  0.66687473  1
  In  In0  1  0.00202455  0.99990833  0.35005558  1
  In  In1  1  0.99788379  0.99990833  0.85005558  1
  In  In2  1  0.98638148  0.99062717  0.64925577  1
  In  In3  1  0.00424569  0.99062717  0.14925577  1
  In  In4  1  0.66705299  0.33066032  0.68368244  1
  In  In5  1  0.66360834  0.33066032  0.18368244  1
  In  In6  1  0.66602088  0.33098523  0.98317327  1
  In  In7  1  0.66496535  0.33098523  0.48317327  1
  In  In8  1  0.32224009  0.67362089  0.01704971  1
  In  In9  1  0.35137981  0.67362089  0.51704971  1
  In  In10  1  0.33942912  0.68239588  0.31668309  1
  In  In11  1  0.34296576  0.68239588  0.81668309  1
  P  P0  1  0.29921947  0.00302145  0.25022513  1
  P  P1  1  0.70380198  0.00302145  0.75022513  1
  P  P2  1  0.66692093  0.62445025  0.58341309  1
  P  P3  1  0.95753032  0.62445025  0.08341309  1
  P  P4  1  0.33268421  0.97076934  0.91667219  1
  P  P5  1  0.63808413  0.97076934  0.41667219  1
  S  S0  1  0.70052283  0.70133414  0.25009842  1
  S  S1  1  0.00235384  0.29762058  0.24959555  1
  S  S2  1  0.29526675  0.29762058  0.74959555  1
  S  S3  1  0.00081131  0.70133414  0.75009842  1
  S  S4  1  0.96945586  0.33635969  0.58262986  1
  S  S5  1  0.36424901  0.03340962  0.58399911  1
  S  S6  1  0.66916161  0.03340962  0.08399911  1
  S  S7  1  0.36690483  0.33635969  0.08262986  1
  S  S8  1  0.62691525  0.66527995  0.91776424  1
  S  S9  1  0.03958636  0.37177735  0.91560622  1
  S  S10  1  0.33218999  0.37177735  0.41560622  1
  S  S11  1  0.03836370  0.66527995  0.41776424  1
  O  O0  1  0.21595099  0.02708546  0.30477056  1
  O  O1  1  0.80311219  0.78273411  0.30217813  1
  O  O2  1  0.97572710  0.19250056  0.30160052  1
  O  O3  1  0.21677346  0.19250056  0.80160052  1
  O  O4  1  0.97962192  0.78273411  0.80217813  1
  O  O5  1  0.81113447  0.02708546  0.80477056  1
  O  O6  1  0.78589911  0.97974019  0.69562174  1
  O  O7  1  0.19275872  0.21386333  0.69761244  1
  O  O8  1  0.02996802  0.80836102  0.69844450  1
  O  O9  1  0.77839301  0.80836102  0.19844450  1
  O  O10  1  0.02110461  0.21386333  0.19761244  1
  O  O11  1  0.19384108  0.97974019  0.19562174  1
  O  O12  1  0.88958097  0.35812895  0.63503105  1
  O  O13  1  0.47231973  0.11146636  0.63539698  1
  O  O14  1  0.64677914  0.51869384  0.63787588  1
  O  O15  1  0.87191570  0.51869384  0.13787588  1
  O  O16  1  0.63914763  0.11146636  0.13539698  1
  O  O17  1  0.46854898  0.35812895  0.13503105  1
  O  O18  1  0.44569704  0.30644064  0.03137397  1
  O  O19  1  0.85283174  0.53935679  0.02869415  1
  O  O20  1  0.69189329  0.13522002  0.03161793  1
  O  O21  1  0.44332773  0.13522002  0.53161793  1
  O  O22  1  0.68652605  0.53935679  0.52869415  1
  O  O23  1  0.86074460  0.30644064  0.53137397  1
  O  O24  1  0.54159283  0.68356519  0.96937006  1
  O  O25  1  0.14340955  0.44956736  0.96782768  1
  O  O26  1  0.30523577  0.86311342  0.97130114  1
  O  O27  1  0.55787665  0.86311342  0.47130114  1
  O  O28  1  0.30615681  0.44956736  0.46782768  1
  O  O29  1  0.14197135  0.68356519  0.46937006  1
  O  O30  1  0.11568165  0.63917006  0.36535547  1
  O  O31  1  0.52916852  0.89043903  0.36241036  1
  O  O32  1  0.35000364  0.47483278  0.36383535  1
  O  O33  1  0.12482814  0.47483278  0.86383535  1
  O  O34  1  0.36126951  0.89043903  0.86241036  1
  O  O35  1  0.52348741  0.63917006  0.86535547  1
  O  O36  1  0.02473735  0.82594579  0.41381088  1
  O  O37  1  0.82168337  0.98921974  0.41128824  1
  O  O38  1  0.17724900  0.19413520  0.41206330  1
  O  O39  1  0.01688620  0.19413520  0.91206330  1
  O  O40  1  0.16753637  0.98921974  0.91128824  1
  O  O41  1  0.80120844  0.82594579  0.91381088  1
  O  O42  1  0.99463031  0.18260786  0.58704897  1
  O  O43  1  0.19171438  0.02202420  0.58980358  1
  O  O44  1  0.83275727  0.80862397  0.58589164  1
  O  O45  1  0.97586670  0.80862397  0.08589164  1
  O  O46  1  0.83030983  0.02202420  0.08980358  1
  O  O47  1  0.18797755  0.18260786  0.08704897  1
  O  O48  1  0.68434492  0.16810745  0.74601099  1
  O  O49  1  0.47344820  0.32049101  0.74573647  1
  O  O50  1  0.84050344  0.52820077  0.74556568  1
  O  O51  1  0.68769833  0.52820077  0.24556568  1
  O  O52  1  0.84704381  0.32049101  0.24573647  1
  O  O53  1  0.48376354  0.16810745  0.24601099  1
  O  O54  1  0.65028871  0.51082611  0.92147354  1
  O  O55  1  0.86525634  0.35773015  0.91927771  1
  O  O56  1  0.49873241  0.15408505  0.92199297  1
  O  O57  1  0.65535365  0.15408505  0.42199297  1
  O  O58  1  0.49247481  0.35773015  0.41927771  1
  O  O59  1  0.86053841  0.51082611  0.42147354  1
  O  O60  1  0.35524449  0.49733168  0.07683556  1
  O  O61  1  0.14188645  0.64283757  0.08093591  1
  O  O62  1  0.51570563  0.85466078  0.07936448  1
  O  O63  1  0.33895415  0.85466078  0.57936448  1
  O  O64  1  0.50095012  0.64283757  0.58093591  1
  O  O65  1  0.14208619  0.49733168  0.57683556  1
  O  O66  1  0.31603828  0.83667221  0.25360038  1
  O  O67  1  0.52206524  0.67666851  0.25450482  1
  O  O68  1  0.16281573  0.47174534  0.25453844  1
  O  O69  1  0.30892862  0.47174534  0.75453844  1
  O  O70  1  0.15460227  0.67666851  0.75450482  1
  O  O71  1  0.52063292  0.83667221  0.75360038  1
loop_
_geom_bond_atom_site_label_1
_geom_bond_atom_site_label_2
_geom_bond_distance
_geom_bond_site_symmetry_2
Na0 O44 2.484132 1_555
Na0 O37 2.502058 1_555
Na0 O36 2.612073 1_655
Na0 O42 2.642489 1_565
Na0 O38 2.734139 1_665
Na0 O43 2.742271 1_665
Na1 O45 2.484132 1_456
Na1 O40 2.502058 1_555
Na1 O41 2.612073 1_455
Na1 O47 2.642489 1_566
Na1 O39 2.734139 1_565
Na1 O46 2.742271 1_466
Na2 O48 2.482276 1_555
Na2 O56 2.506419 1_555
Na2 O55 2.614041 1_555
Na2 O49 2.649913 1_555
Na2 O50 2.722471 1_555
Na2 O54 2.737813 1_555
Na3 O53 2.482276 1_555
Na3 O57 2.506419 1_555
Na3 O58 2.614042 1_555
Na3 O52 2.649913 1_555
Na3 O51 2.722471 1_555
Na3 O59 2.737813 1_555
Na4 O61 2.479040 1_555
Na4 O66 2.499356 1_555
Na4 O68 2.616686 1_555
Na4 O62 2.649974 1_555
Na4 O67 2.723760 1_555
Na4 O60 2.739745 1_555
Na5 O64 2.479040 1_555
Na5 O71 2.499356 1_555
Na5 O69 2.616686 1_555
Na5 O63 2.649974 1_555
Na5 O70 2.723760 1_555
Na5 O65 2.739745 1_555
In0 O0 2.077816 1_565
In0 O37 2.113386 1_455
In0 O2 2.156251 1_465
In0 O1 2.162571 1_455
In0 O38 2.193547 1_565
In0 O36 2.225724 1_555
In1 O5 2.077816 1_565
In1 O40 2.113386 1_655
In1 O3 2.156250 1_665
In1 O4 2.162571 1_555
In1 O39 2.193547 1_665
In1 O41 2.225724 1_555
In2 O6 2.042284 1_555
In2 O44 2.112595 1_555
In2 O8 2.169260 1_655
In2 O43 2.195073 1_665
In2 O42 2.212427 1_565
In2 O7 2.218934 1_665
In3 O11 2.042284 1_555
In3 O45 2.112595 1_455
In3 O9 2.169260 1_455
In3 O46 2.195073 1_465
In3 O47 2.212427 1_565
In3 O10 2.218934 1_565
In4 O14 2.063034 1_555
In4 O48 2.108905 1_555
In4 O13 2.163038 1_555
In4 O12 2.182466 1_555
In4 O50 2.199666 1_555
In4 O49 2.215180 1_555
In5 O15 2.063033 1_555
In5 O53 2.108905 1_555
In5 O16 2.163038 1_555
In5 O17 2.182466 1_555
In5 O51 2.199666 1_555
In5 O52 2.215180 1_555
In6 O19 2.056876 1_556
In6 O56 2.094239 1_555
In6 O18 2.169335 1_556
In6 O20 2.178035 1_556
In6 O54 2.206022 1_555
In6 O55 2.234288 1_555
In7 O22 2.056876 1_555
In7 O57 2.094239 1_555
In7 O23 2.169335 1_555
In7 O21 2.178035 1_555
In7 O59 2.206022 1_555
In7 O58 2.234288 1_555
In8 O26 2.059264 1_554
In8 O61 2.104688 1_555
In8 O25 2.153417 1_554
In8 O24 2.204282 1_554
In8 O62 2.212208 1_555
In8 O60 2.222691 1_555
In9 O27 2.059264 1_555
In9 O64 2.104687 1_555
In9 O28 2.153417 1_555
In9 O29 2.204282 1_555
In9 O63 2.212208 1_555
In9 O65 2.222691 1_555
In10 O31 2.067335 1_555
In10 O66 2.091813 1_555
In10 O30 2.148261 1_555
In10 O32 2.186452 1_555
In10 O67 2.196108 1_555
In10 O68 2.265550 1_555
In11 O34 2.067335 1_555
In11 O71 2.091813 1_555
In11 O35 2.148261 1_555
In11 O33 2.186452 1_555
In11 O70 2.196108 1_555
In11 O69 2.265550 1_555
O0 P0 1.542478 1_555
O1 S0 1.476325 1_555
O2 S1 1.478559 1_655
O3 S2 1.478559 1_555
O4 S3 1.476325 1_655
O5 P1 1.542478 1_555
O6 P1 1.535364 1_565
O7 S2 1.478125 1_555
O8 S3 1.477755 1_555
O9 S0 1.477755 1_555
O10 S1 1.478125 1_555
O11 P0 1.535364 1_565
O12 S4 1.476791 1_555
O13 S5 1.477456 1_555
O14 P2 1.539112 1_555
O15 P3 1.539112 1_555
O16 S6 1.477456 1_555
O17 S7 1.476791 1_555
O18 S7 1.477827 1_555
O19 P3 1.540461 1_555
O20 S6 1.475431 1_555
O21 S5 1.475431 1_555
O22 P2 1.540461 1_555
O23 S4 1.477827 1_555
O24 S8 1.476862 1_555
O25 S9 1.477841 1_555
O26 P4 1.540510 1_555
O27 P5 1.540510 1_555
O28 S10 1.477841 1_555
O29 S11 1.476862 1_555
O30 S11 1.479234 1_555
O31 P5 1.538509 1_555
O32 S10 1.477816 1_555
O33 S9 1.477816 1_555
O34 P4 1.538509 1_555
O35 S8 1.479234 1_555
O36 S11 1.490291 1_555
O37 P5 1.556136 1_555
O38 S10 1.485942 1_555
O39 S9 1.485945 1_555
O40 P4 1.556128 1_555
O41 S8 1.490295 1_555
O42 S4 1.489809 1_555
O43 S5 1.486638 1_555
O44 P2 1.557993 1_555
O45 P3 1.557997 1_555
O46 S6 1.486629 1_555
O47 S7 1.489815 1_555
O48 P1 1.559014 1_555
O49 S2 1.490112 1_555
O50 S3 1.484233 1_655
O51 S0 1.484237 1_555
O52 S1 1.490103 1_655
O53 P0 1.559019 1_555
O54 S8 1.485285 1_555
O55 S9 1.488345 1_655
O56 P4 1.558360 1_545
O57 P5 1.558353 1_545
O58 S10 1.488362 1_555
O59 S11 1.485274 1_655
O60 S7 1.486634 1_555
O61 P3 1.559012 1_455
O62 S6 1.488408 1_565
O63 S5 1.488401 1_565
O64 P2 1.559030 1_555
O65 S4 1.486624 1_455
O66 P0 1.555605 1_565
O67 S0 1.487181 1_555
O68 S1 1.490443 1_555
O69 S2 1.490447 1_555
O70 S3 1.487172 1_555
O71 P1 1.555610 1_565
