# generated using pymatgen
data_BaGe2
_symmetry_space_group_name_H-M   'P 1'
_cell_length_a   6.86588645
_cell_length_b   9.20070564
_cell_length_c   11.73438009
_cell_angle_alpha   90.00000000
_cell_angle_beta   90.00000000
_cell_angle_gamma   90.00000000
_symmetry_Int_Tables_number   1
_chemical_formula_structural   BaGe2
_chemical_formula_sum   'Ba8 Ge16'
_cell_volume   741.27252683
_cell_formula_units_Z   8
loop_
 _symmetry_equiv_pos_site_id
 _symmetry_equiv_pos_as_xyz
  1  'x, y, z'
loop_
 _atom_site_type_symbol
 _atom_site_label
 _atom_site_symmetry_multiplicity
 _atom_site_fract_x
 _atom_site_fract_y
 _atom_site_fract_z
 _atom_site_occupancy
  Ba  Ba0  1  0.25000000  0.34472396  0.40586686  1
  Ba  Ba1  1  0.75000000  0.65527604  0.59413314  1
  Ba  Ba2  1  0.25000000  0.84472396  0.09413314  1
  Ba  Ba3  1  0.75000000  0.15527604  0.90586686  1
  Ba  Ba4  1  0.25000000  0.51436251  0.80884328  1
  Ba  Ba5  1  0.75000000  0.48563749  0.19115672  1
  Ba  Ba6  1  0.25000000  0.01436251  0.69115672  1
  Ba  Ba7  1  0.75000000  0.98563749  0.30884328  1
  Ge  Ge0  1  0.93508503  0.30765759  0.64788883  1
  Ge  Ge1  1  0.43508503  0.69234241  0.35211117  1
  Ge  Ge2  1  0.56491497  0.80765759  0.85211117  1
  Ge  Ge3  1  0.06491497  0.19234241  0.14788883  1
  Ge  Ge4  1  0.06491497  0.69234241  0.35211117  1
  Ge  Ge5  1  0.56491497  0.30765759  0.64788883  1
  Ge  Ge6  1  0.43508503  0.19234241  0.14788883  1
  Ge  Ge7  1  0.93508503  0.80765759  0.85211117  1
  Ge  Ge8  1  0.75000000  0.57899283  0.90851434  1
  Ge  Ge9  1  0.25000000  0.42100717  0.09148566  1
  Ge  Ge10  1  0.75000000  0.07899283  0.59148566  1
  Ge  Ge11  1  0.25000000  0.92100717  0.40851434  1
  Ge  Ge12  1  0.75000000  0.80411662  0.03904821  1
  Ge  Ge13  1  0.25000000  0.19588338  0.96095179  1
  Ge  Ge14  1  0.75000000  0.30411662  0.46095179  1
  Ge  Ge15  1  0.25000000  0.69588338  0.53904821  1
loop_
_geom_bond_atom_site_label_1
_geom_bond_atom_site_label_2
_geom_bond_distance
_geom_bond_site_symmetry_2
Ba0 Ge1 3.498872 1_555
Ba0 Ge4 3.498872 1_555
Ba0 Ge14 3.513190 1_455
Ba0 Ge14 3.513190 1_555
Ba0 Ge3 3.569948 1_555
Ba0 Ge6 3.569948 1_555
Ba0 Ge0 3.585633 1_455
Ba0 Ge5 3.585633 1_555
Ba0 Ge15 3.589032 1_555
Ba0 Ge9 3.755241 1_555
Ba0 Ge11 3.898617 1_545
Ba1 Ge0 3.498872 1_555
Ba1 Ge5 3.498872 1_555
Ba1 Ge15 3.513190 1_555
Ba1 Ge15 3.513190 1_655
Ba1 Ge2 3.569948 1_555
Ba1 Ge7 3.569948 1_555
Ba1 Ge4 3.585633 1_655
Ba1 Ge1 3.585633 1_555
Ba1 Ge14 3.589032 1_555
Ba1 Ge8 3.755241 1_555
Ba1 Ge10 3.898617 1_565
Ba2 Ge3 3.498872 1_565
Ba2 Ge6 3.498872 1_565
Ba2 Ge12 3.513190 1_455
Ba2 Ge12 3.513190 1_555
Ba2 Ge4 3.569948 1_555
Ba2 Ge1 3.569948 1_555
Ba2 Ge2 3.585633 1_554
Ba2 Ge7 3.585633 1_454
Ba2 Ge13 3.589032 1_564
Ba2 Ge11 3.755241 1_555
Ba2 Ge9 3.898617 1_555
Ba3 Ge7 3.498872 1_545
Ba3 Ge2 3.498872 1_545
Ba3 Ge13 3.513190 1_555
Ba3 Ge13 3.513190 1_655
Ba3 Ge0 3.569948 1_555
Ba3 Ge5 3.569948 1_555
Ba3 Ge6 3.585633 1_556
Ba3 Ge3 3.585633 1_656
Ba3 Ge12 3.589032 1_546
Ba3 Ge10 3.755241 1_555
Ba3 Ge8 3.898617 1_555
Ba4 Ge9 3.426051 1_556
Ba4 Ge13 3.431054 1_555
Ba4 Ge5 3.443709 1_555
Ba4 Ge0 3.443709 1_455
Ba4 Ge2 3.494965 1_555
Ba4 Ge7 3.494965 1_455
Ba4 Ge15 3.579397 1_555
Ba4 Ge8 3.675135 1_555
Ba4 Ge8 3.675135 1_455
Ba5 Ge8 3.426051 1_554
Ba5 Ge12 3.431054 1_555
Ba5 Ge4 3.443709 1_655
Ba5 Ge1 3.443709 1_555
Ba5 Ge3 3.494965 1_655
Ba5 Ge6 3.494965 1_555
Ba5 Ge14 3.579397 1_555
Ba5 Ge9 3.675135 1_655
Ba5 Ge9 3.675135 1_555
Ba6 Ge11 3.426051 1_545
Ba6 Ge15 3.431054 1_545
Ba6 Ge2 3.443709 1_545
Ba6 Ge7 3.443709 1_445
Ba6 Ge0 3.494965 1_455
Ba6 Ge5 3.494965 1_555
Ba6 Ge13 3.579397 1_555
Ba6 Ge10 3.675135 1_555
Ba6 Ge10 3.675135 1_455
Ba7 Ge10 3.426051 1_565
Ba7 Ge14 3.431054 1_565
Ba7 Ge3 3.443709 1_665
Ba7 Ge6 3.443709 1_565
Ba7 Ge4 3.494965 1_655
Ba7 Ge1 3.494965 1_555
Ba7 Ge12 3.579397 1_555
Ba7 Ge11 3.675135 1_555
Ba7 Ge11 3.675135 1_655
Ge0 Ge14 2.535303 1_555
Ge0 Ge5 2.541546 1_555
Ge0 Ge10 2.545430 1_555
Ge1 Ge15 2.535303 1_555
Ge1 Ge4 2.541546 1_555
Ge1 Ge11 2.545430 1_555
Ge2 Ge7 2.541546 1_555
Ge2 Ge8 2.545430 1_555
Ge3 Ge6 2.541546 1_555
Ge3 Ge9 2.545430 1_555
Ge6 Ge9 2.545430 1_555
Ge7 Ge8 2.545430 1_555
Ge10 Ge5 2.545430 1_555
Ge10 Ge14 2.576137 1_555
Ge11 Ge4 2.545430 1_555
Ge11 Ge15 2.576137 1_555
Ge12 Ge7 2.535303 1_554
Ge12 Ge2 2.535303 1_554
Ge12 Ge8 2.576137 1_554
Ge13 Ge3 2.535303 1_556
Ge13 Ge6 2.535303 1_556
Ge13 Ge9 2.576137 1_556
Ge14 Ge5 2.535303 1_555
Ge15 Ge4 2.535303 1_555
