# generated using pymatgen
data_Bi2MoO6
_symmetry_space_group_name_H-M   'P 1'
_cell_length_a   22.85529700
_cell_length_b   5.65596200
_cell_length_c   17.48922452
_cell_angle_alpha   89.46742918
_cell_angle_beta   90.00000000
_cell_angle_gamma   90.00000000
_symmetry_Int_Tables_number   1
_chemical_formula_structural   Bi2MoO6
_chemical_formula_sum   'Bi32 Mo16 O96'
_cell_volume   2260.71150101
_cell_formula_units_Z   16
loop_
 _symmetry_equiv_pos_site_id
 _symmetry_equiv_pos_as_xyz
  1  'x, y, z'
loop_
 _atom_site_type_symbol
 _atom_site_label
 _atom_site_symmetry_multiplicity
 _atom_site_fract_x
 _atom_site_fract_y
 _atom_site_fract_z
 _atom_site_occupancy
  Bi  Bi0  1  0.80497300  0.98069700  0.09337900  1
  Bi  Bi1  1  0.30497300  0.51930300  0.90662100  1
  Bi  Bi2  1  0.19502700  0.01930300  0.90662100  1
  Bi  Bi3  1  0.69502700  0.48069700  0.09337900  1
  Bi  Bi4  1  0.92994100  0.99820200  0.25985700  1
  Bi  Bi5  1  0.42994100  0.50179800  0.74014300  1
  Bi  Bi6  1  0.07005900  0.00179800  0.74014300  1
  Bi  Bi7  1  0.57005900  0.49820200  0.25985700  1
  Bi  Bi8  1  0.81145800  0.55845900  0.25703800  1
  Bi  Bi9  1  0.31145800  0.94154100  0.74296200  1
  Bi  Bi10  1  0.18854200  0.44154100  0.74296200  1
  Bi  Bi11  1  0.68854200  0.05845900  0.25703800  1
  Bi  Bi12  1  0.92990900  0.49522100  0.41025900  1
  Bi  Bi13  1  0.42990900  0.00477900  0.58974100  1
  Bi  Bi14  1  0.07009100  0.50477900  0.58974100  1
  Bi  Bi15  1  0.57009100  0.99522100  0.41025900  1
  Bi  Bi16  1  0.80845300  0.06464500  0.40958600  1
  Bi  Bi17  1  0.30845300  0.43535500  0.59041400  1
  Bi  Bi18  1  0.19154700  0.93535500  0.59041400  1
  Bi  Bi19  1  0.69154700  0.56464500  0.40958600  1
  Bi  Bi20  1  0.80613200  0.47428300  0.57320900  1
  Bi  Bi21  1  0.30613200  0.02571700  0.42679100  1
  Bi  Bi22  1  0.19386800  0.52571700  0.42679100  1
  Bi  Bi23  1  0.69386800  0.97428300  0.57320900  1
  Bi  Bi24  1  0.80470800  0.00036300  0.74193000  1
  Bi  Bi25  1  0.30470800  0.49963700  0.25807000  1
  Bi  Bi26  1  0.19529200  0.99963700  0.25807000  1
  Bi  Bi27  1  0.69529200  0.50036300  0.74193000  1
  Bi  Bi28  1  0.93566400  0.99958400  0.91111900  1
  Bi  Bi29  1  0.43566400  0.50041600  0.08888100  1
  Bi  Bi30  1  0.06433600  0.00041600  0.08888100  1
  Bi  Bi31  1  0.56433600  0.49958400  0.91111900  1
  Mo  Mo0  1  0.94410200  0.50629900  0.08247900  1
  Mo  Mo1  1  0.44410200  0.99370100  0.91752100  1
  Mo  Mo2  1  0.05589800  0.49370100  0.91752100  1
  Mo  Mo3  1  0.55589800  0.00629900  0.08247900  1
  Mo  Mo4  1  0.93250500  0.00249200  0.58322500  1
  Mo  Mo5  1  0.43250500  0.49750800  0.41677500  1
  Mo  Mo6  1  0.06749500  0.99750800  0.41677500  1
  Mo  Mo7  1  0.56749500  0.50249200  0.58322500  1
  Mo  Mo8  1  0.93903800  0.49267400  0.76691900  1
  Mo  Mo9  1  0.43903800  0.00732600  0.23308100  1
  Mo  Mo10  1  0.06096200  0.50732600  0.23308100  1
  Mo  Mo11  1  0.56096200  0.99267400  0.76691900  1
  Mo  Mo12  1  0.81678700  0.48493400  0.91570000  1
  Mo  Mo13  1  0.31678700  0.01506600  0.08430000  1
  Mo  Mo14  1  0.18321300  0.51506600  0.08430000  1
  Mo  Mo15  1  0.68321300  0.98493400  0.91570000  1
  O  O0  1  0.89943800  0.69262100  0.02350500  1
  O  O1  1  0.39943800  0.80737900  0.97649500  1
  O  O2  1  0.10056200  0.30737900  0.97649500  1
  O  O3  1  0.60056200  0.19262100  0.02350500  1
  O  O4  1  0.97814500  0.26741400  0.02783600  1
  O  O5  1  0.47814500  0.23258600  0.97216400  1
  O  O6  1  0.02185500  0.73258600  0.97216400  1
  O  O7  1  0.52185500  0.76741400  0.02783600  1
  O  O8  1  0.75600600  0.24887000  0.15291100  1
  O  O9  1  0.25600600  0.25113000  0.84708900  1
  O  O10  1  0.24399400  0.75113000  0.84708900  1
  O  O11  1  0.74399400  0.74887000  0.15291100  1
  O  O12  1  0.88217000  0.25483000  0.32611500  1
  O  O13  1  0.38217000  0.24517000  0.67388500  1
  O  O14  1  0.11783000  0.74517000  0.67388500  1
  O  O15  1  0.61783000  0.75483000  0.32611500  1
  O  O16  1  0.75016600  0.26562300  0.33157300  1
  O  O17  1  0.25016600  0.23437700  0.66842700  1
  O  O18  1  0.24983400  0.73437700  0.66842700  1
  O  O19  1  0.74983400  0.76562300  0.33157300  1
  O  O20  1  0.99214000  0.87518900  0.63598900  1
  O  O21  1  0.49214000  0.62481100  0.36401100  1
  O  O22  1  0.00786000  0.12481100  0.36401100  1
  O  O23  1  0.50786000  0.37518900  0.63598900  1
  O  O24  1  0.90693700  0.80202700  0.51142800  1
  O  O25  1  0.40693700  0.69797300  0.48857200  1
  O  O26  1  0.09306300  0.19797300  0.48857200  1
  O  O27  1  0.59306300  0.30202700  0.51142800  1
  O  O28  1  0.74879200  0.22788300  0.51235100  1
  O  O29  1  0.24879200  0.27211700  0.48764900  1
  O  O30  1  0.25120800  0.77211700  0.48764900  1
  O  O31  1  0.75120800  0.72788300  0.51235100  1
  O  O32  1  0.96030900  0.25753100  0.53561500  1
  O  O33  1  0.46030900  0.24246900  0.46438500  1
  O  O34  1  0.03969100  0.74246900  0.46438500  1
  O  O35  1  0.53969100  0.75753100  0.53561500  1
  O  O36  1  0.86693000  0.08930800  0.63835600  1
  O  O37  1  0.36693000  0.41069200  0.36164400  1
  O  O38  1  0.13307000  0.91069200  0.36164400  1
  O  O39  1  0.63307000  0.58930800  0.63835600  1
  O  O40  1  0.75172500  0.74624900  0.67920600  1
  O  O41  1  0.25172500  0.75375100  0.32079400  1
  O  O42  1  0.24827500  0.25375100  0.32079400  1
  O  O43  1  0.74827500  0.24624900  0.67920600  1
  O  O44  1  0.99285700  0.37499700  0.70479500  1
  O  O45  1  0.49285700  0.12500300  0.29520500  1
  O  O46  1  0.00714300  0.62500300  0.29520500  1
  O  O47  1  0.50714300  0.87499700  0.70479500  1
  O  O48  1  0.97366500  0.74080800  0.81936800  1
  O  O49  1  0.47366500  0.75919200  0.18063200  1
  O  O50  1  0.02633500  0.25919200  0.18063200  1
  O  O51  1  0.52633500  0.24080800  0.81936800  1
  O  O52  1  0.89993600  0.23647900  0.81264200  1
  O  O53  1  0.39993600  0.26352100  0.18735800  1
  O  O54  1  0.10006400  0.76352100  0.18735800  1
  O  O55  1  0.60006400  0.73647900  0.81264200  1
  O  O56  1  0.77143200  0.37285000  0.83927200  1
  O  O57  1  0.27143200  0.12715000  0.16072800  1
  O  O58  1  0.22856800  0.62715000  0.16072800  1
  O  O59  1  0.72856800  0.87285000  0.83927200  1
  O  O60  1  0.86086900  0.72047500  0.87246800  1
  O  O61  1  0.36086900  0.77952500  0.12753200  1
  O  O62  1  0.13913100  0.27952500  0.12753200  1
  O  O63  1  0.63913100  0.22047500  0.87246800  1
  O  O64  1  0.99243300  0.71390200  0.13320200  1
  O  O65  1  0.49243300  0.78609800  0.86679800  1
  O  O66  1  0.00756700  0.28609800  0.86679800  1
  O  O67  1  0.50756700  0.21390200  0.13320200  1
  O  O68  1  0.85168700  0.89199000  0.19746700  1
  O  O69  1  0.35168700  0.60801000  0.80253300  1
  O  O70  1  0.14831300  0.10801000  0.80253300  1
  O  O71  1  0.64831300  0.39199000  0.19746700  1
  O  O72  1  0.89641000  0.37026300  0.15024800  1
  O  O73  1  0.39641000  0.12973700  0.84975200  1
  O  O74  1  0.10359000  0.62973700  0.84975200  1
  O  O75  1  0.60359000  0.87026400  0.15024800  1
  O  O76  1  0.88315900  0.75281200  0.33693900  1
  O  O77  1  0.38315900  0.74718800  0.66306100  1
  O  O78  1  0.11684100  0.24718800  0.66306100  1
  O  O79  1  0.61684100  0.25281200  0.33693900  1
  O  O80  1  0.84697400  0.39758400  0.46025500  1
  O  O81  1  0.34697400  0.10241600  0.53974500  1
  O  O82  1  0.15302600  0.60241600  0.53974500  1
  O  O83  1  0.65302600  0.89758400  0.46025500  1
  O  O84  1  0.88478800  0.62105600  0.70789900  1
  O  O85  1  0.38478800  0.87894400  0.29210100  1
  O  O86  1  0.11521200  0.37894400  0.29210100  1
  O  O87  1  0.61521200  0.12105600  0.70789900  1
  O  O88  1  0.77275100  0.61079900  0.98872700  1
  O  O89  1  0.27275100  0.88920100  0.01127300  1
  O  O90  1  0.22724900  0.38920100  0.01127300  1
  O  O91  1  0.72724900  0.11079900  0.98872700  1
  O  O92  1  0.85672500  0.24044800  0.95918300  1
  O  O93  1  0.35672500  0.25955200  0.04081700  1
  O  O94  1  0.14327500  0.75955200  0.04081700  1
  O  O95  1  0.64327500  0.74044800  0.95918300  1
loop_
_geom_bond_atom_site_label_1
_geom_bond_atom_site_label_2
_geom_bond_distance
_geom_bond_site_symmetry_2
Bi0 O8 2.160210 1_565
Bi0 O68 2.165311 1_555
Bi0 O11 2.172623 1_555
Bi0 O91 2.649904 1_564
Bi1 O9 2.160210 1_555
Bi1 O69 2.165311 1_555
Bi1 O10 2.172623 1_555
Bi1 O90 2.649904 1_556
Bi2 O10 2.160210 1_545
Bi2 O70 2.165311 1_555
Bi2 O9 2.172623 1_555
Bi2 O89 2.649904 1_546
Bi3 O11 2.160210 1_555
Bi3 O71 2.165311 1_555
Bi3 O8 2.172623 1_555
Bi3 O88 2.649904 1_554
Bi4 O12 2.161700 1_565
Bi4 O68 2.182310 1_555
Bi4 O76 2.202757 1_555
Bi4 O22 2.650781 1_665
Bi5 O13 2.161700 1_555
Bi5 O69 2.182310 1_555
Bi5 O77 2.202757 1_555
Bi5 O23 2.650781 1_555
Bi6 O14 2.161700 1_545
Bi6 O70 2.182310 1_555
Bi6 O78 2.202757 1_555
Bi6 O20 2.650781 1_445
Bi7 O15 2.161700 1_555
Bi7 O71 2.182310 1_555
Bi7 O79 2.202757 1_555
Bi7 O21 2.650781 1_555
Bi8 O19 2.254830 1_555
Bi8 O68 2.335155 1_555
Bi8 O76 2.423871 1_555
Bi8 O16 2.522842 1_555
Bi8 O11 2.610990 1_555
Bi8 O12 2.642354 1_555
Bi8 O8 2.836900 1_555
Bi9 O18 2.254830 1_555
Bi9 O69 2.335155 1_555
Bi9 O77 2.423871 1_555
Bi9 O17 2.522842 1_565
Bi9 O10 2.610990 1_555
Bi9 O13 2.642354 1_565
Bi9 O9 2.836900 1_565
Bi10 O17 2.254830 1_555
Bi10 O70 2.335155 1_555
Bi10 O78 2.423871 1_555
Bi10 O18 2.522842 1_555
Bi10 O9 2.610990 1_555
Bi10 O14 2.642354 1_555
Bi10 O10 2.836900 1_555
Bi11 O16 2.254830 1_555
Bi11 O71 2.335155 1_555
Bi11 O79 2.423871 1_555
Bi11 O19 2.522842 1_545
Bi11 O8 2.610990 1_555
Bi11 O15 2.642354 1_545
Bi11 O11 2.836900 1_545
Bi12 O80 2.157192 1_555
Bi12 O76 2.207686 1_555
Bi12 O12 2.289529 1_555
Bi12 O24 2.544524 1_555
Bi12 O32 2.653640 1_555
Bi12 O46 2.770610 1_655
Bi12 O22 2.872095 1_655
Bi13 O81 2.157192 1_555
Bi13 O77 2.207686 1_545
Bi13 O13 2.289529 1_555
Bi13 O25 2.544524 1_545
Bi13 O33 2.653640 1_555
Bi13 O47 2.770610 1_545
Bi13 O23 2.872095 1_555
Bi14 O82 2.157192 1_555
Bi14 O78 2.207686 1_555
Bi14 O14 2.289529 1_555
Bi14 O26 2.544524 1_555
Bi14 O34 2.653640 1_555
Bi14 O44 2.770610 1_455
Bi14 O20 2.872095 1_455
Bi15 O83 2.157192 1_555
Bi15 O79 2.207686 1_565
Bi15 O15 2.289529 1_555
Bi15 O27 2.544524 1_565
Bi15 O35 2.653640 1_555
Bi15 O45 2.770610 1_565
Bi15 O21 2.872095 1_555
Bi16 O16 2.213488 1_555
Bi16 O80 2.266595 1_555
Bi16 O28 2.443933 1_555
Bi16 O12 2.469345 1_555
Bi16 O19 2.561199 1_545
Bi16 O76 2.771630 1_545
Bi17 O17 2.213488 1_555
Bi17 O81 2.266595 1_555
Bi17 O29 2.443933 1_555
Bi17 O13 2.469345 1_555
Bi17 O18 2.561199 1_555
Bi17 O77 2.771630 1_555
Bi18 O18 2.213488 1_555
Bi18 O82 2.266595 1_555
Bi18 O30 2.443933 1_555
Bi18 O14 2.469345 1_555
Bi18 O17 2.561199 1_565
Bi18 O78 2.771630 1_565
Bi19 O19 2.213488 1_555
Bi19 O83 2.266595 1_555
Bi19 O31 2.443933 1_555
Bi19 O15 2.469345 1_555
Bi19 O16 2.561199 1_555
Bi19 O79 2.771630 1_555
Bi20 O31 2.176611 1_555
Bi20 O28 2.195474 1_555
Bi20 O80 2.231137 1_555
Bi20 O43 2.608483 1_555
Bi20 O40 2.720665 1_555
Bi20 O36 2.814960 1_555
Bi21 O30 2.176611 1_545
Bi21 O29 2.195474 1_555
Bi21 O81 2.231137 1_555
Bi21 O42 2.608483 1_555
Bi21 O41 2.720665 1_545
Bi21 O37 2.814960 1_555
Bi22 O29 2.176611 1_555
Bi22 O30 2.195474 1_555
Bi22 O82 2.231137 1_555
Bi22 O41 2.608483 1_555
Bi22 O42 2.720665 1_555
Bi22 O38 2.814960 1_555
Bi23 O28 2.176611 1_565
Bi23 O31 2.195474 1_555
Bi23 O83 2.231137 1_555
Bi23 O40 2.608483 1_555
Bi23 O43 2.720665 1_565
Bi23 O39 2.814960 1_555
Bi24 O40 2.182842 1_545
Bi24 O43 2.184653 1_555
Bi24 O36 2.353675 1_555
Bi24 O59 2.534543 1_545
Bi25 O41 2.182842 1_555
Bi25 O42 2.184653 1_555
Bi25 O37 2.353675 1_555
Bi25 O58 2.534543 1_555
Bi26 O42 2.182842 1_565
Bi26 O41 2.184653 1_555
Bi26 O38 2.353675 1_555
Bi26 O57 2.534543 1_565
Bi27 O43 2.182842 1_555
Bi27 O40 2.184653 1_555
Bi27 O39 2.353675 1_555
Bi27 O56 2.534543 1_555
Bi28 O52 2.320649 1_565
Bi28 O48 2.348428 1_555
Bi28 O92 2.416372 1_565
Bi28 O60 2.427162 1_555
Bi28 O66 2.429855 1_665
Bi28 O6 2.696469 1_655
Bi28 O4 2.731621 1_566
Bi28 O0 2.738563 1_556
Bi29 O53 2.320649 1_555
Bi29 O49 2.348428 1_555
Bi29 O93 2.416372 1_555
Bi29 O61 2.427162 1_555
Bi29 O67 2.429855 1_555
Bi29 O7 2.696469 1_555
Bi29 O5 2.731621 1_554
Bi29 O1 2.738563 1_554
Bi30 O54 2.320649 1_545
Bi30 O50 2.348428 1_555
Bi30 O94 2.416372 1_545
Bi30 O62 2.427162 1_555
Bi30 O64 2.429855 1_445
Bi30 O4 2.696469 1_455
Bi30 O6 2.731621 1_544
Bi30 O2 2.738563 1_554
Bi31 O55 2.320649 1_555
Bi31 O51 2.348428 1_555
Bi31 O95 2.416372 1_555
Bi31 O63 2.427162 1_555
Bi31 O65 2.429855 1_555
Bi31 O5 2.696469 1_555
Bi31 O7 2.731621 1_556
Bi31 O3 2.738563 1_556
Mo0 O72 1.779871 1_555
Mo0 O0 1.787794 1_555
Mo0 O4 1.835270 1_555
Mo0 O64 1.845329 1_555
Mo1 O73 1.779871 1_565
Mo1 O1 1.787794 1_555
Mo1 O5 1.835270 1_565
Mo1 O65 1.845329 1_555
Mo2 O74 1.779871 1_555
Mo2 O2 1.787794 1_555
Mo2 O6 1.835270 1_555
Mo2 O66 1.845329 1_555
Mo3 O75 1.779869 1_545
Mo3 O3 1.787794 1_555
Mo3 O7 1.835270 1_545
Mo3 O67 1.845329 1_555
Mo4 O32 1.776400 1_555
Mo4 O20 1.793138 1_545
Mo4 O24 1.797281 1_545
Mo4 O36 1.850891 1_555
Mo5 O33 1.776400 1_555
Mo5 O21 1.793138 1_555
Mo5 O25 1.797281 1_555
Mo5 O37 1.850891 1_555
Mo6 O34 1.776400 1_555
Mo6 O22 1.793138 1_565
Mo6 O26 1.797281 1_565
Mo6 O38 1.850891 1_555
Mo7 O35 1.776400 1_555
Mo7 O23 1.793138 1_555
Mo7 O27 1.797281 1_555
Mo7 O39 1.850891 1_555
Mo8 O84 1.765259 1_555
Mo8 O44 1.774807 1_555
Mo8 O48 1.860463 1_555
Mo8 O52 1.875174 1_555
Mo8 O66 2.613744 1_655
Mo9 O85 1.765259 1_545
Mo9 O45 1.774807 1_555
Mo9 O49 1.860463 1_545
Mo9 O53 1.875174 1_555
Mo9 O67 2.613744 1_555
Mo10 O86 1.765259 1_555
Mo10 O46 1.774807 1_555
Mo10 O50 1.860463 1_555
Mo10 O54 1.875174 1_555
Mo10 O64 2.613744 1_455
Mo11 O87 1.765259 1_565
Mo11 O47 1.774807 1_555
Mo11 O51 1.860463 1_565
Mo11 O55 1.875174 1_555
Mo11 O65 2.613744 1_555
Mo12 O88 1.779843 1_555
Mo12 O56 1.810761 1_555
Mo12 O92 1.817726 1_555
Mo12 O60 1.828335 1_555
Mo13 O89 1.779843 1_545
Mo13 O57 1.810761 1_555
Mo13 O93 1.817726 1_555
Mo13 O61 1.828335 1_545
Mo14 O90 1.779843 1_555
Mo14 O58 1.810761 1_555
Mo14 O94 1.817726 1_555
Mo14 O62 1.828335 1_555
Mo15 O91 1.779843 1_565
Mo15 O59 1.810761 1_555
Mo15 O95 1.817726 1_555
Mo15 O63 1.828335 1_565
