# generated using pymatgen
data_Na6HfZn3Si2(SO6)4
_symmetry_space_group_name_H-M   'P 1'
_cell_length_a   9.09246569
_cell_length_b   9.07318472
_cell_length_c   22.51243023
_cell_angle_alpha   88.95843887
_cell_angle_beta   90.70555916
_cell_angle_gamma   119.79053029
_symmetry_Int_Tables_number   1
_chemical_formula_structural   Na6HfZn3Si2(SO6)4
_chemical_formula_sum   'Na18 Hf3 Zn9 Si6 S12 O72'
_cell_volume   1611.50771437
_cell_formula_units_Z   3
loop_
 _symmetry_equiv_pos_site_id
 _symmetry_equiv_pos_as_xyz
  1  'x, y, z'
loop_
 _atom_site_type_symbol
 _atom_site_label
 _atom_site_symmetry_multiplicity
 _atom_site_fract_x
 _atom_site_fract_y
 _atom_site_fract_z
 _atom_site_occupancy
  Na  Na0  1  0.62992228  0.99501848  0.25679701  1
  Na  Na1  1  0.37006109  0.36681538  0.24400405  1
  Na  Na2  1  0.64288777  0.64588465  0.73954902  1
  Na  Na3  1  0.31025567  0.34305392  0.58926645  1
  Na  Na4  1  0.02599811  0.70222172  0.58397232  1
  Na  Na5  1  0.66793400  0.94838947  0.58562060  1
  Na  Na6  1  0.29581335  0.97035337  0.07757877  1
  Na  Na7  1  0.05094336  0.33822990  0.07753394  1
  Na  Na8  1  0.98659196  0.67627205  0.91365264  1
  Na  Na9  1  0.70957649  0.03590827  0.90429828  1
  Na  Na10  1  0.30606954  0.28316750  0.91757675  1
  Na  Na11  1  0.69812870  0.68472573  0.41917477  1
  Na  Na12  1  0.98576801  0.99739201  0.49654600  1
  Na  Na13  1  0.01209540  0.01119435  0.99734245  1
  Na  Na14  1  0.67174173  0.30681611  0.82356387  1
  Na  Na15  1  0.67631520  0.32257031  0.33171433  1
  Na  Na16  1  0.33721045  0.65650932  0.16250249  1
  Na  Na17  1  0.34871570  0.67561167  0.66660476  1
  Hf  Hf0  1  0.65595208  0.32434729  0.98193001  1
  Hf  Hf1  1  0.66751182  0.32944811  0.47979152  1
  Hf  Hf2  1  0.32975716  0.67826761  0.81510493  1
  Zn  Zn0  1  0.98898842  0.00414289  0.35100459  1
  Zn  Zn1  1  0.00407960  0.02649008  0.84797179  1
  Zn  Zn2  1  0.96784356  0.97574066  0.65560996  1
  Zn  Zn3  1  0.01297504  0.00841269  0.14976137  1
  Zn  Zn4  1  0.66245366  0.32397150  0.68551262  1
  Zn  Zn5  1  0.66421226  0.34962927  0.17768035  1
  Zn  Zn6  1  0.32285491  0.65004591  0.01314342  1
  Zn  Zn7  1  0.36434609  0.67350513  0.51190669  1
  Zn  Zn8  1  0.33329455  0.68674114  0.32616076  1
  Si  Si0  1  0.70221641  0.00530839  0.74963595  1
  Si  Si1  1  0.66664305  0.62391434  0.58547615  1
  Si  Si2  1  0.36697474  0.33925799  0.08699830  1
  Si  Si3  1  0.03625817  0.36981792  0.91936080  1
  Si  Si4  1  0.32719085  0.95668673  0.92094162  1
  Si  Si5  1  0.63648119  0.96733913  0.41426369  1
  S  S0  1  0.29007443  0.99530350  0.25097165  1
  S  S1  1  0.71025934  0.70604507  0.24969158  1
  S  S2  1  0.00009792  0.29898068  0.24883660  1
  S  S3  1  0.29671557  0.29731607  0.74961835  1
  S  S4  1  0.00116077  0.70742521  0.75046593  1
  S  S5  1  0.96493901  0.33831867  0.58338160  1
  S  S6  1  0.37127673  0.03925094  0.58389188  1
  S  S7  1  0.95706155  0.62780932  0.08514710  1
  S  S8  1  0.66762151  0.03786534  0.08724724  1
  S  S9  1  0.62519550  0.66556896  0.91785762  1
  S  S10  1  0.32903117  0.36761464  0.41586845  1
  S  S11  1  0.04105692  0.66643408  0.41808095  1
  O  O0  1  0.20359211  0.01980547  0.30187802  1
  O  O1  1  0.80487249  0.78190321  0.30552312  1
  O  O2  1  0.97133228  0.18654348  0.30141118  1
  O  O3  1  0.21913143  0.19598528  0.80411893  1
  O  O4  1  0.98500513  0.79062296  0.80348679  1
  O  O5  1  0.80500155  0.01685709  0.81081790  1
  O  O6  1  0.77093376  0.95852508  0.68944796  1
  O  O7  1  0.19778566  0.21920173  0.69487630  1
  O  O8  1  0.03218073  0.80968292  0.69453773  1
  O  O9  1  0.79589476  0.81758531  0.19742476  1
  O  O10  1  0.02765648  0.22388567  0.19408855  1
  O  O11  1  0.19710860  0.97899134  0.19420480  1
  O  O12  1  0.88677490  0.36252834  0.63568513  1
  O  O13  1  0.47942148  0.11229751  0.63590020  1
  O  O14  1  0.63854305  0.50364909  0.64363968  1
  O  O15  1  0.87737185  0.51511492  0.13707268  1
  O  O16  1  0.64708192  0.12123960  0.14006556  1
  O  O17  1  0.47111597  0.35431526  0.14784511  1
  O  O18  1  0.46667004  0.31024214  0.02920090  1
  O  O19  1  0.85620194  0.54251786  0.02962243  1
  O  O20  1  0.69369480  0.15207235  0.03237177  1
  O  O21  1  0.46123955  0.14837584  0.52961751  1
  O  O22  1  0.68804371  0.52767864  0.52589673  1
  O  O23  1  0.84886359  0.30775567  0.52996863  1
  O  O24  1  0.54851269  0.69487902  0.96939031  1
  O  O25  1  0.14680231  0.44090349  0.97921131  1
  O  O26  1  0.30420798  0.84806331  0.98147245  1
  O  O27  1  0.55697938  0.85317029  0.47466845  1
  O  O28  1  0.30422923  0.44237678  0.47033171  1
  O  O29  1  0.13587575  0.67976392  0.47329335  1
  O  O30  1  0.11281179  0.63265914  0.36511371  1
  O  O31  1  0.52655667  0.89018738  0.35341238  1
  O  O32  1  0.36069510  0.47711543  0.36202099  1
  O  O33  1  0.13495252  0.49883807  0.86282646  1
  O  O34  1  0.37140896  0.86970881  0.86458713  1
  O  O35  1  0.51755737  0.63246921  0.86305974  1
  O  O36  1  0.01810411  0.81617195  0.41143842  1
  O  O37  1  0.82238210  0.97681528  0.41100820  1
  O  O38  1  0.18820077  0.19450950  0.40978607  1
  O  O39  1  0.00640001  0.17773420  0.91398485  1
  O  O40  1  0.16020433  0.97644087  0.90992588  1
  O  O41  1  0.79875783  0.80789687  0.91046451  1
  O  O42  1  0.98739847  0.18660190  0.58573953  1
  O  O43  1  0.20635005  0.03650378  0.58645507  1
  O  O44  1  0.84190405  0.81299889  0.58467036  1
  O  O45  1  0.96804082  0.79583441  0.08822687  1
  O  O46  1  0.82470332  0.02707505  0.08918114  1
  O  O47  1  0.17917493  0.15880257  0.08648064  1
  O  O48  1  0.67994505  0.17170427  0.74310664  1
  O  O49  1  0.47258968  0.32714847  0.74754405  1
  O  O50  1  0.84636120  0.53950918  0.74610514  1
  O  O51  1  0.68920909  0.53140515  0.24649096  1
  O  O52  1  0.84178665  0.31125288  0.24302253  1
  O  O53  1  0.46637311  0.14977478  0.24863832  1
  O  O54  1  0.63784837  0.50540985  0.92409952  1
  O  O55  1  0.84912727  0.36314350  0.92377940  1
  O  O56  1  0.50140050  0.15010459  0.92351507  1
  O  O57  1  0.65439689  0.15823181  0.42256854  1
  O  O58  1  0.49522469  0.36248234  0.42275353  1
  O  O59  1  0.86020208  0.51204594  0.42260968  1
  O  O60  1  0.34289070  0.50546494  0.08117499  1
  O  O61  1  0.12986101  0.65021128  0.08194659  1
  O  O62  1  0.51294648  0.87406331  0.07970775  1
  O  O63  1  0.34097607  0.86348848  0.57675433  1
  O  O64  1  0.49245485  0.64052843  0.58138907  1
  O  O65  1  0.13172370  0.49461993  0.57372244  1
  O  O66  1  0.31028632  0.84111774  0.25510613  1
  O  O67  1  0.53443445  0.68528151  0.25164222  1
  O  O68  1  0.15668081  0.46750624  0.25630680  1
  O  O69  1  0.31287077  0.47233155  0.75463368  1
  O  O70  1  0.15534522  0.68479587  0.75464628  1
  O  O71  1  0.51345093  0.82038060  0.75600542  1
loop_
_geom_bond_atom_site_label_1
_geom_bond_atom_site_label_2
_geom_bond_distance
_geom_bond_site_symmetry_2
Na0 O31 2.367635 1_555
Na0 O67 2.499989 1_555
Na0 O53 2.505072 1_565
Na0 O66 2.522786 1_555
Na0 O52 2.555354 1_565
Na0 O16 2.822220 1_565
Na0 O2 2.879478 1_565
Na1 O17 2.388478 1_555
Na1 O67 2.516560 1_555
Na1 O51 2.519317 1_555
Na1 O53 2.521815 1_555
Na1 O68 2.541503 1_555
Na1 O32 2.873076 1_555
Na1 O10 2.931237 1_555
Na1 O0 3.010904 1_555
Na2 O71 2.431570 1_555
Na2 O50 2.477601 1_555
Na2 O49 2.516299 1_555
Na2 O14 2.525373 1_555
Na2 O69 2.628586 1_555
Na2 O6 2.703437 1_555
Na3 O64 2.368030 1_555
Na3 O43 2.454899 1_555
Na3 O42 2.548838 1_455
Na3 O7 2.604244 1_555
Na3 O65 2.614456 1_555
Na3 O28 2.818139 1_555
Na3 O14 2.860847 1_555
Na4 O44 2.342067 1_455
Na4 O63 2.491649 1_555
Na4 O65 2.519097 1_555
Na4 O43 2.636873 1_565
Na4 O8 2.679503 1_555
Na4 O29 2.744088 1_555
Na4 O12 2.913095 1_455
Na4 O22 2.966567 1_455
Na5 O64 2.436109 1_555
Na5 O44 2.438081 1_555
Na5 O6 2.493456 1_555
Na5 O42 2.621170 1_565
Na5 O27 2.674607 1_555
Na5 O63 2.680771 1_555
Na6 O47 2.430627 1_565
Na6 O26 2.468513 1_554
Na6 O61 2.522285 1_555
Na6 O62 2.524558 1_555
Na6 O45 2.600258 1_455
Na6 O11 2.800078 1_555
Na6 O18 2.875573 1_565
Na7 O60 2.313528 1_555
Na7 O25 2.385948 1_554
Na7 O47 2.432835 1_555
Na7 O46 2.546822 1_455
Na7 O61 2.554917 1_555
Na7 O10 2.775356 1_555
Na8 O40 2.374720 1_655
Na8 O55 2.478073 1_555
Na8 O41 2.523651 1_555
Na8 O4 2.673577 1_555
Na8 O54 2.762963 1_555
Na8 O33 2.825525 1_655
Na8 O19 2.868066 1_556
Na8 O26 2.933554 1_655
Na9 O5 2.327812 1_555
Na9 O39 2.352036 1_655
Na9 O41 2.571065 1_545
Na9 O56 2.613191 1_555
Na9 O55 2.628285 1_555
Na9 O34 2.810958 1_545
Na10 O39 2.398586 1_555
Na10 O40 2.424434 1_545
Na10 O56 2.597824 1_555
Na10 O54 2.672723 1_555
Na10 O3 2.678988 1_555
Na10 O18 2.843086 1_556
Na10 O25 2.872572 1_555
Na11 O37 2.312127 1_555
Na11 O36 2.544451 1_655
Na11 O58 2.567843 1_555
Na11 O59 2.630463 1_555
Na11 O1 2.719287 1_555
Na11 O22 2.749959 1_555
Na11 O27 2.757092 1_555
Na11 O32 2.977455 1_555
Na12 O37 2.370023 1_555
Na12 O44 2.492910 1_555
Na12 O36 2.658896 1_655
Na12 O42 2.660567 1_565
Na12 O38 2.663068 1_665
Na12 O43 2.732083 1_665
Na13 O39 2.404116 1_555
Na13 O47 2.475759 1_556
Na13 O40 2.509105 1_545
Na13 O45 2.694791 1_446
Na13 O41 2.733634 1_445
Na13 O46 2.745912 1_456
Na14 O48 2.228016 1_555
Na14 O49 2.546755 1_555
Na14 O50 2.573437 1_555
Na14 O55 2.661907 1_555
Na14 O56 2.695360 1_555
Na15 O57 2.459748 1_555
Na15 O52 2.548692 1_555
Na15 O53 2.577705 1_555
Na15 O51 2.633935 1_555
Na15 O59 2.669402 1_555
Na15 O58 2.783053 1_555
Na16 O60 2.323104 1_555
Na16 O61 2.580507 1_555
Na16 O62 2.594071 1_555
Na16 O67 2.603115 1_555
Na16 O68 2.692835 1_555
Na16 O66 2.785424 1_555
Na17 O64 2.446848 1_555
Na17 O71 2.467069 1_555
Na17 O69 2.592499 1_555
Na17 O63 2.644355 1_555
Na17 O70 2.695202 1_555
Na17 O65 2.786667 1_555
Hf0 O18 1.982962 1_556
Hf0 O56 2.006496 1_555
Hf0 O20 2.075907 1_556
Hf0 O55 2.085252 1_555
Hf0 O54 2.146290 1_555
Hf0 O19 2.198669 1_556
Hf1 O57 1.992973 1_555
Hf1 O22 2.019041 1_555
Hf1 O23 2.074191 1_555
Hf1 O21 2.097136 1_555
Hf1 O59 2.136656 1_555
Hf1 O58 2.143745 1_555
Hf2 O34 1.951345 1_555
Hf2 O33 2.014909 1_555
Hf2 O71 2.018616 1_555
Hf2 O70 2.099558 1_555
Hf2 O35 2.212984 1_555
Hf2 O69 2.273851 1_555
O0 S0 1.478609 1_545
O0 Zn0 2.196069 1_455
O1 S1 1.486628 1_555
O1 Zn0 2.143699 1_565
O2 S2 1.486136 1_655
O2 Zn0 2.050258 1_555
O3 S3 1.477886 1_555
O3 Zn1 2.041420 1_555
O4 S4 1.470854 1_655
O4 Zn1 2.306020 1_665
O5 Si0 1.630259 1_555
O5 Zn1 1.947283 1_655
O6 Si0 1.646762 1_565
O6 Zn2 1.887218 1_555
O7 S3 1.483634 1_555
O7 Zn2 2.338488 1_445
O8 S4 1.493955 1_555
O8 Zn2 2.048276 1_455
O9 S1 1.487027 1_555
O9 Zn3 2.152638 1_665
O10 S2 1.501298 1_555
O10 Zn3 2.155017 1_555
O11 S0 1.491831 1_555
O11 Zn3 2.066032 1_565
O12 S5 1.457719 1_555
O12 Zn4 2.207681 1_555
O13 S6 1.459206 1_555
O13 Zn4 2.135850 1_555
O14 Si1 1.627812 1_555
O14 Zn4 1.971002 1_555
O15 S7 1.475882 1_555
O15 Zn5 1.987126 1_555
O16 S8 1.483091 1_555
O16 Zn5 2.185238 1_555
O17 Si2 1.624186 1_555
O17 Zn5 1.891981 1_555
O18 Si2 1.691939 1_555
O19 S7 1.517930 1_555
O20 S8 1.540355 1_555
O21 S6 1.522564 1_555
O22 Si1 1.678433 1_555
O23 S5 1.525367 1_555
O24 S9 1.455381 1_555
O24 Zn6 2.133394 1_556
O25 Si3 1.611137 1_555
O25 Zn6 1.936763 1_556
O26 Si4 1.620333 1_555
O26 Zn6 2.004541 1_556
O27 Si5 1.635155 1_555
O27 Zn7 1.891374 1_555
O28 S10 1.484371 1_555
O28 Zn7 2.119490 1_555
O29 S11 1.475918 1_555
O29 Zn7 2.268313 1_555
O30 S11 1.473958 1_555
O30 Zn8 2.019630 1_555
O31 Si5 1.634493 1_555
O31 Zn8 1.913924 1_555
O32 S10 1.489992 1_555
O32 Zn8 2.177471 1_555
O33 Si3 1.650941 1_555
O34 Si4 1.660785 1_555
O35 S9 1.503850 1_555
O36 S11 1.478274 1_555
O36 Zn0 2.277104 1_465
O37 Si5 1.651751 1_555
O37 Zn0 1.961125 1_565
O38 S10 1.459566 1_555
O38 Zn0 2.220522 1_455
O39 Si3 1.631703 1_555
O39 Zn1 2.033887 1_555
O40 Si4 1.630471 1_555
O40 Zn1 2.176099 1_565
O41 S9 1.469495 1_555
O41 Zn1 2.383735 1_665
O42 S5 1.488565 1_555
O42 Zn2 2.392809 1_545
O43 S6 1.489181 1_555
O43 Zn2 2.508890 1_445
O44 Si1 1.663140 1_555
O44 Zn2 2.098241 1_555
O45 S7 1.480334 1_555
O45 Zn3 2.259702 1_665
O46 S8 1.479414 1_555
O46 Zn3 2.245267 1_655
O47 Si2 1.678928 1_555
O47 Zn3 2.026926 1_555
O48 Si0 1.623858 1_555
O48 Zn4 1.939902 1_555
O49 S3 1.484567 1_555
O49 Zn4 2.245325 1_555
O50 S4 1.477537 1_655
O50 Zn4 2.296241 1_555
O51 S1 1.501682 1_555
O51 Zn5 2.209803 1_555
O52 S2 1.501869 1_655
O52 Zn5 2.318087 1_555
O53 S0 1.517775 1_545
O53 Zn5 2.408324 1_555
O54 S9 1.517542 1_555
O55 Si3 1.676355 1_655
O56 Si4 1.682678 1_545
O57 Si5 1.670928 1_545
O58 S10 1.540628 1_555
O59 S11 1.544918 1_655
O60 Si2 1.630806 1_555
O60 Zn6 2.063310 1_555
O61 S7 1.483246 1_455
O61 Zn6 2.355442 1_555
O62 S8 1.463520 1_565
O62 Zn6 2.433179 1_555
O63 S6 1.488800 1_565
O63 Zn7 2.368715 1_555
O64 Si1 1.665158 1_555
O64 Zn7 2.043902 1_555
O65 S5 1.489329 1_455
O65 Zn7 2.371459 1_555
O66 S0 1.499941 1_555
O66 Zn8 2.183099 1_555
O67 S1 1.515045 1_555
O67 Zn8 2.501929 1_555
O68 S2 1.494522 1_555
O68 Zn8 2.426111 1_555
O69 S3 1.526511 1_555
O70 S4 1.516064 1_555
O71 Si0 1.708050 1_565
