# generated using pymatgen
data_Na3YGe3(PO4)6
_symmetry_space_group_name_H-M   'P 1'
_cell_length_a   8.63043778
_cell_length_b   8.64861791
_cell_length_c   22.16061462
_cell_angle_alpha   89.89147972
_cell_angle_beta   90.08714147
_cell_angle_gamma   120.33159137
_symmetry_Int_Tables_number   1
_chemical_formula_structural   Na3YGe3(PO4)6
_chemical_formula_sum   'Na9 Y3 Ge9 P18 O72'
_cell_volume   1427.67796170
_cell_formula_units_Z   3
loop_
 _symmetry_equiv_pos_site_id
 _symmetry_equiv_pos_as_xyz
  1  'x, y, z'
loop_
 _atom_site_type_symbol
 _atom_site_label
 _atom_site_symmetry_multiplicity
 _atom_site_fract_x
 _atom_site_fract_y
 _atom_site_fract_z
 _atom_site_occupancy
  Na  Na0  1  0.36118170  0.35520536  0.24880245  1
  Na  Na1  1  0.63250008  0.62865005  0.75025185  1
  Na  Na2  1  0.96756371  0.29616747  0.41624154  1
  Na  Na3  1  0.00045471  0.99204317  0.50251735  1
  Na  Na4  1  0.00007422  0.00028959  0.00017218  1
  Na  Na5  1  0.66747035  0.32470260  0.83645249  1
  Na  Na6  1  0.66688166  0.33391376  0.33130121  1
  Na  Na7  1  0.33220176  0.67553072  0.16312525  1
  Na  Na8  1  0.32401982  0.66784001  0.66501388  1
  Y  Y0  1  0.99810840  0.98857066  0.35745914  1
  Y  Y1  1  0.66738433  0.32545294  0.68576108  1
  Y  Y2  1  0.67469579  0.33309969  0.17735005  1
  Ge  Ge0  1  0.00186355  0.00154887  0.85674973  1
  Ge  Ge1  1  0.00224907  0.00133792  0.64632174  1
  Ge  Ge2  1  0.99827372  0.99689612  0.14520869  1
  Ge  Ge3  1  0.66676182  0.33303129  0.98162932  1
  Ge  Ge4  1  0.66107350  0.33369743  0.48290362  1
  Ge  Ge5  1  0.33335939  0.66597819  0.01518081  1
  Ge  Ge6  1  0.33589494  0.66794328  0.52003726  1
  Ge  Ge7  1  0.33498263  0.67335426  0.31303996  1
  Ge  Ge8  1  0.32806155  0.66757288  0.81621726  1
  P  P0  1  0.28695283  0.98781026  0.24854453  1
  P  P1  1  0.70069800  0.71197312  0.24834151  1
  P  P2  1  0.00623346  0.29750673  0.25186572  1
  P  P3  1  0.27201142  0.28577477  0.75381385  1
  P  P4  1  0.01550884  0.72931712  0.75361687  1
  P  P5  1  0.71627441  0.99249723  0.75471285  1
  P  P6  1  0.96798184  0.33273931  0.58009093  1
  P  P7  1  0.36512494  0.03173259  0.58040228  1
  P  P8  1  0.66687501  0.63295062  0.58217320  1
  P  P9  1  0.97159763  0.63683349  0.07791379  1
  P  P10  1  0.66551274  0.02943461  0.07830960  1
  P  P11  1  0.36493821  0.33489465  0.07970708  1
  P  P12  1  0.62154823  0.66435665  0.91605721  1
  P  P13  1  0.04306344  0.37816439  0.91650933  1
  P  P14  1  0.33510690  0.95626023  0.91643144  1
  P  P15  1  0.60550493  0.95565502  0.42026359  1
  P  P16  1  0.35126492  0.39515833  0.41948761  1
  P  P17  1  0.04690839  0.65614195  0.42122637  1
  O  O0  1  0.21677596  0.02875321  0.30510052  1
  O  O1  1  0.80464269  0.78150145  0.30618805  1
  O  O2  1  0.98336620  0.19977072  0.31097167  1
  O  O3  1  0.18993168  0.16937608  0.81019880  1
  O  O4  1  0.97643939  0.81153018  0.80930035  1
  O  O5  1  0.83126916  0.01897482  0.81087703  1
  O  O6  1  0.79385532  0.95539805  0.69585585  1
  O  O7  1  0.16422172  0.20467839  0.69429526  1
  O  O8  1  0.04210338  0.83709181  0.69408988  1
  O  O9  1  0.79161935  0.82988045  0.19126129  1
  O  O10  1  0.04218503  0.20752497  0.19586237  1
  O  O11  1  0.16823438  0.96005356  0.19129977  1
  O  O12  1  0.90011828  0.37583231  0.63668332  1
  O  O13  1  0.47325353  0.09708917  0.63792517  1
  O  O14  1  0.62628024  0.52954363  0.64117132  1
  O  O15  1  0.91415289  0.53421906  0.13677469  1
  O  O16  1  0.61912403  0.08739763  0.13668156  1
  O  O17  1  0.46495458  0.37653273  0.13944602  1
  O  O18  1  0.46050893  0.29692446  0.02646549  1
  O  O19  1  0.83817830  0.54211121  0.02424156  1
  O  O20  1  0.70496602  0.16228567  0.02449264  1
  O  O21  1  0.45553113  0.16044475  0.52534013  1
  O  O22  1  0.70365079  0.54027652  0.52779505  1
  O  O23  1  0.84369869  0.29624107  0.52344512  1
  O  O24  1  0.53550994  0.70095357  0.97047225  1
  O  O25  1  0.16446108  0.46221148  0.97174944  1
  O  O26  1  0.29770349  0.83501632  0.97149273  1
  O  O27  1  0.52178593  0.83836827  0.47578673  1
  O  O28  1  0.31514309  0.48237730  0.47366745  1
  O  O29  1  0.16270565  0.68027992  0.47630791  1
  O  O30  1  0.12551251  0.62119213  0.36230006  1
  O  O31  1  0.49813428  0.87338737  0.36085500  1
  O  O32  1  0.37513223  0.49890623  0.35887719  1
  O  O33  1  0.12482198  0.49727494  0.85909293  1
  O  O34  1  0.37272037  0.87520395  0.85918304  1
  O  O35  1  0.50638242  0.62952856  0.85728631  1
  O  O36  1  0.02405984  0.81709668  0.42229673  1
  O  O37  1  0.79579393  0.98691705  0.41969330  1
  O  O38  1  0.18315133  0.21026940  0.41917547  1
  O  O39  1  0.02431668  0.18969319  0.90990734  1
  O  O40  1  0.16542489  0.97559203  0.90959656  1
  O  O41  1  0.81155014  0.83451363  0.90992964  1
  O  O42  1  0.98075478  0.16020694  0.58810377  1
  O  O43  1  0.17911325  0.01824420  0.58788927  1
  O  O44  1  0.83941313  0.82072817  0.58880650  1
  O  O45  1  0.98349816  0.82164117  0.08546370  1
  O  O46  1  0.83887629  0.01755129  0.08651482  1
  O  O47  1  0.17749444  0.16179427  0.08694016  1
  O  O48  1  0.69385990  0.15467800  0.75275088  1
  O  O49  1  0.46278151  0.31644983  0.75093504  1
  O  O50  1  0.84653245  0.54397544  0.75046181  1
  O  O51  1  0.66371517  0.52055073  0.24322960  1
  O  O52  1  0.84812416  0.32630718  0.24713414  1
  O  O53  1  0.47390227  0.15135470  0.24299461  1
  O  O54  1  0.63950978  0.49515760  0.92398735  1
  O  O55  1  0.85474743  0.35885390  0.92420500  1
  O  O56  1  0.50427617  0.14557813  0.92447785  1
  O  O57  1  0.62540617  0.14580754  0.42507083  1
  O  O58  1  0.52148347  0.37893561  0.42561295  1
  O  O59  1  0.85765292  0.48107185  0.42578381  1
  O  O60  1  0.34575808  0.50088903  0.06817002  1
  O  O61  1  0.15788176  0.65653461  0.06721805  1
  O  O62  1  0.49983701  0.84220046  0.06713070  1
  O  O63  1  0.34191834  0.84368622  0.57149704  1
  O  O64  1  0.50185122  0.65557040  0.57207913  1
  O  O65  1  0.15793050  0.49738885  0.57155058  1
  O  O66  1  0.29509285  0.81316662  0.25575152  1
  O  O67  1  0.51358535  0.70024587  0.25442233  1
  O  O68  1  0.18690915  0.48337477  0.25604602  1
  O  O69  1  0.29292883  0.47724645  0.75885573  1
  O  O70  1  0.18520691  0.71111745  0.75946243  1
  O  O71  1  0.52645725  0.81681848  0.75948376  1
loop_
_geom_bond_atom_site_label_1
_geom_bond_atom_site_label_2
_geom_bond_distance
_geom_bond_site_symmetry_2
Na0 O51 2.259796 1_555
Na0 O68 2.280787 1_555
Na0 O53 2.409304 1_555
Na0 O17 2.558727 1_555
Na0 O67 2.585948 1_555
Na0 O10 2.651694 1_555
Na0 O32 2.714561 1_555
Na0 O0 2.741999 1_555
Na1 O71 2.243654 1_555
Na1 O50 2.305356 1_555
Na1 O49 2.332729 1_555
Na1 O69 2.542545 1_555
Na1 O14 2.557702 1_555
Na1 O35 2.612891 1_555
Na1 O6 2.719505 1_555
Na1 O4 2.877354 1_555
Na2 O59 2.244072 1_555
Na2 O37 2.313413 1_545
Na2 O38 2.326704 1_655
Na2 O2 2.505792 1_555
Na2 O57 2.563528 1_555
Na2 O23 2.606748 1_555
Na2 O30 2.703877 1_655
Na2 O28 2.885907 1_655
Na3 O43 2.376537 1_565
Na3 O44 2.387682 1_455
Na3 O36 2.411178 1_555
Na3 O42 2.450018 1_465
Na3 O37 2.530215 1_455
Na3 O38 2.539548 1_565
Na4 O45 2.397232 1_445
Na4 O47 2.415358 1_555
Na4 O46 2.416159 1_455
Na4 O41 2.519337 1_444
Na4 O39 2.524100 1_554
Na4 O40 2.535586 1_544
Na5 O56 2.445817 1_555
Na5 O55 2.447799 1_555
Na5 O48 2.450434 1_555
Na5 O54 2.523090 1_555
Na5 O49 2.565203 1_555
Na5 O50 2.578986 1_555
Na6 O52 2.458308 1_555
Na6 O53 2.538143 1_555
Na6 O51 2.539273 1_555
Na6 O57 2.548361 1_555
Na6 O59 2.568603 1_555
Na6 O58 2.568842 1_555
Na7 O66 2.475727 1_555
Na7 O67 2.498722 1_555
Na7 O68 2.542555 1_555
Na7 O61 2.559200 1_555
Na7 O62 2.566663 1_555
Na7 O60 2.629493 1_555
Na8 O63 2.526527 1_555
Na8 O65 2.527062 1_555
Na8 O70 2.533699 1_555
Na8 O69 2.579887 1_555
Na8 O64 2.604457 1_555
Na8 O71 2.611670 1_555
Ge0 O3 1.850783 1_555
Ge0 O5 1.855473 1_455
Ge0 O4 1.869816 1_445
Ge0 O40 1.930954 1_545
Ge0 O39 1.939351 1_555
Ge0 O41 1.943317 1_445
Ge1 O7 1.922672 1_555
Ge1 O8 1.934784 1_545
Ge1 O43 1.951400 1_555
Ge1 O44 1.955606 1_445
Ge1 O42 1.958762 1_455
Ge1 O6 1.969808 1_445
Ge2 O9 1.925325 1_555
Ge2 O11 1.939763 1_655
Ge2 O46 1.964195 1_565
Ge2 O47 1.965917 1_665
Ge2 O45 1.969380 1_555
Ge2 O10 2.007798 1_665
Ge3 O19 1.910614 1_556
Ge3 O20 1.917595 1_556
Ge3 O18 1.922528 1_556
Ge3 O56 1.976120 1_555
Ge3 O55 1.985121 1_555
Ge3 O54 1.994614 1_555
Ge4 O21 1.895119 1_555
Ge4 O22 1.912919 1_555
Ge4 O58 1.919853 1_555
Ge4 O57 1.969604 1_555
Ge4 O23 1.976510 1_555
Ge4 O59 1.980289 1_555
Ge5 O62 1.871480 1_555
Ge5 O61 1.873518 1_555
Ge5 O25 1.887972 1_554
Ge5 O60 1.891174 1_555
Ge5 O24 1.894208 1_554
Ge5 O26 1.901951 1_554
Ge6 O27 1.821794 1_555
Ge6 O29 1.827808 1_555
Ge6 O28 1.838220 1_555
Ge6 O63 1.881475 1_555
Ge6 O64 1.882080 1_555
Ge6 O65 1.883805 1_555
Ge7 O66 1.898867 1_555
Ge7 O31 1.907989 1_555
Ge7 O67 1.939159 1_555
Ge7 O68 1.951974 1_555
Ge7 O30 1.960563 1_555
Ge7 O32 1.987286 1_555
Ge8 O33 1.881279 1_555
Ge8 O34 1.893693 1_555
Ge8 O70 1.925143 1_555
Ge8 O35 1.952204 1_555
Ge8 O69 1.979892 1_555
Ge8 O71 1.986632 1_555
O0 P0 1.511161 1_545
O0 Y0 2.090766 1_445
O1 P1 1.504741 1_555
O1 Y0 2.065874 1_555
O2 P2 1.515649 1_655
O2 Y0 2.154323 1_545
O3 P3 1.534344 1_555
O4 P4 1.545543 1_655
O5 P5 1.534372 1_545
O6 P5 1.572799 1_555
O7 P3 1.561340 1_555
O8 P4 1.562641 1_555
O9 P1 1.563843 1_555
O10 P2 1.578245 1_555
O11 P0 1.570187 1_555
O12 P6 1.509713 1_555
O12 Y1 2.127930 1_555
O13 P7 1.510521 1_555
O13 Y1 2.119425 1_555
O14 P8 1.520675 1_555
O14 Y1 2.200591 1_555
O15 P9 1.512626 1_555
O15 Y2 2.115190 1_555
O16 P10 1.513809 1_555
O16 Y2 2.129411 1_555
O17 P11 1.520437 1_555
O17 Y2 2.191867 1_555
O18 P11 1.567880 1_555
O19 P9 1.567952 1_555
O20 P10 1.568225 1_555
O21 P7 1.567602 1_555
O22 P8 1.567500 1_555
O23 P6 1.575239 1_555
O24 P12 1.532067 1_555
O25 P13 1.534570 1_555
O26 P14 1.532021 1_555
O27 P15 1.524032 1_555
O28 P16 1.532923 1_555
O29 P17 1.522775 1_555
O30 P17 1.571019 1_555
O31 P15 1.559520 1_555
O32 P16 1.568829 1_555
O33 P13 1.562578 1_555
O34 P14 1.562299 1_555
O35 P12 1.571636 1_555
O36 P17 1.501532 1_555
O36 Y0 2.154166 1_455
O37 P15 1.523783 1_555
O37 Y0 2.221039 1_555
O38 P16 1.522766 1_555
O38 Y0 2.237832 1_445
O39 P13 1.561730 1_555
O40 P14 1.562681 1_555
O41 P12 1.560660 1_555
O42 P6 1.560550 1_555
O43 P7 1.558818 1_555
O44 P8 1.560174 1_555
O45 P9 1.558320 1_555
O46 P10 1.560981 1_555
O47 P11 1.561329 1_555
O48 P5 1.510134 1_545
O48 Y1 2.183806 1_555
O49 P3 1.531102 1_555
O49 Y1 2.253576 1_555
O50 P4 1.529760 1_655
O50 Y1 2.251739 1_555
O51 P1 1.523948 1_555
O51 Y2 2.221082 1_555
O52 P2 1.509237 1_655
O52 Y2 2.171798 1_555
O53 P0 1.521173 1_545
O53 Y2 2.199505 1_555
O54 P12 1.557024 1_555
O55 P13 1.557241 1_655
O56 P14 1.558896 1_545
O57 P15 1.568673 1_545
O58 P16 1.550403 1_555
O59 P17 1.572477 1_655
O60 P11 1.546700 1_555
O61 P9 1.547348 1_455
O62 P10 1.545938 1_565
O63 P7 1.547951 1_565
O64 P8 1.548227 1_555
O65 P6 1.546985 1_455
O66 P0 1.555009 1_555
O67 P1 1.572074 1_555
O68 P2 1.578778 1_555
O69 P3 1.576705 1_555
O70 P4 1.555216 1_555
O71 P5 1.577771 1_555
