# generated using pymatgen
data_Tl5Se2Cl
_symmetry_space_group_name_H-M   'P 1'
_cell_length_a   8.68401037
_cell_length_b   8.68401037
_cell_length_c   12.98979858
_cell_angle_alpha   90.00000000
_cell_angle_beta   90.00000000
_cell_angle_gamma   90.00000000
_symmetry_Int_Tables_number   1
_chemical_formula_structural   Tl5Se2Cl
_chemical_formula_sum   'Tl20 Se8 Cl4'
_cell_volume   979.58715953
_cell_formula_units_Z   4
loop_
 _symmetry_equiv_pos_site_id
 _symmetry_equiv_pos_as_xyz
  1  'x, y, z'
loop_
 _atom_site_type_symbol
 _atom_site_label
 _atom_site_symmetry_multiplicity
 _atom_site_fract_x
 _atom_site_fract_y
 _atom_site_fract_z
 _atom_site_occupancy
  Tl  Tl0  1  0.37047343  0.66504432  0.60461780  1
  Tl  Tl1  1  0.83495568  0.87047343  0.60461780  1
  Tl  Tl2  1  0.16504432  0.12952657  0.60461780  1
  Tl  Tl3  1  0.87047343  0.83495568  0.89538220  1
  Tl  Tl4  1  0.12952657  0.16504432  0.89538220  1
  Tl  Tl5  1  0.62952657  0.33495568  0.60461780  1
  Tl  Tl6  1  0.66504432  0.37047343  0.89538220  1
  Tl  Tl7  1  0.33495568  0.62952657  0.89538220  1
  Tl  Tl8  1  0.16504432  0.87047343  0.10461780  1
  Tl  Tl9  1  0.83495568  0.12952657  0.10461780  1
  Tl  Tl10  1  0.87047343  0.16504432  0.39538220  1
  Tl  Tl11  1  0.37047343  0.33495568  0.10461780  1
  Tl  Tl12  1  0.62952657  0.66504432  0.10461780  1
  Tl  Tl13  1  0.33495568  0.37047343  0.39538220  1
  Tl  Tl14  1  0.66504432  0.62952657  0.39538220  1
  Tl  Tl15  1  0.12952657  0.83495568  0.39538220  1
  Tl  Tl16  1  0.50000000  -0.00000000  0.79511587  1
  Tl  Tl17  1  -0.00000000  0.50000000  0.70488413  1
  Tl  Tl18  1  -0.00000000  0.50000000  0.20488413  1
  Tl  Tl19  1  0.50000000  -0.00000000  0.29511587  1
  Se  Se0  1  0.66020460  0.33979540  0.25000000  1
  Se  Se1  1  0.16020460  0.16020460  0.25000000  1
  Se  Se2  1  0.83979540  0.83979540  0.25000000  1
  Se  Se3  1  0.33979540  0.66020460  0.25000000  1
  Se  Se4  1  0.16020460  0.83979540  0.75000000  1
  Se  Se5  1  0.66020460  0.66020460  0.75000000  1
  Se  Se6  1  0.33979540  0.33979540  0.75000000  1
  Se  Se7  1  0.83979540  0.16020460  0.75000000  1
  Cl  Cl0  1  0.50000000  -0.00000000  0.54561920  1
  Cl  Cl1  1  -0.00000000  0.50000000  0.95438080  1
  Cl  Cl2  1  -0.00000000  0.50000000  0.45438080  1
  Cl  Cl3  1  0.50000000  -0.00000000  0.04561920  1
loop_
_geom_bond_atom_site_label_1
_geom_bond_atom_site_label_2
_geom_bond_distance
_geom_bond_site_symmetry_2
Se0 Tl10 3.033727 1_555
Se0 Tl9 3.033727 1_555
Se0 Tl11 3.146195 1_555
Se0 Tl14 3.146195 1_555
Se0 Tl19 3.314526 1_555
Se0 Tl18 3.314526 1_655
Se0 Tl13 3.408072 1_555
Se0 Tl12 3.408072 1_555
Se1 Tl13 3.033727 1_555
Se1 Tl11 3.033727 1_555
Se1 Tl10 3.146195 1_455
Se1 Tl8 3.146195 1_545
Se1 Tl18 3.314526 1_555
Se1 Tl19 3.314526 1_555
Se1 Tl15 3.408072 1_545
Se1 Tl9 3.408072 1_455
Se2 Tl14 3.033727 1_555
Se2 Tl12 3.033727 1_555
Se2 Tl15 3.146195 1_655
Se2 Tl9 3.146195 1_565
Se2 Tl18 3.314526 1_655
Se2 Tl19 3.314526 1_565
Se2 Tl10 3.408072 1_565
Se2 Tl8 3.408072 1_655
Se3 Tl15 3.033727 1_555
Se3 Tl8 3.033727 1_555
Se3 Tl13 3.146195 1_555
Se3 Tl12 3.146195 1_555
Se3 Tl18 3.314526 1_555
Se3 Tl19 3.314526 1_565
Se3 Tl11 3.408072 1_555
Se3 Tl14 3.408072 1_555
Se4 Tl7 3.033727 1_555
Se4 Tl0 3.033727 1_555
Se4 Tl3 3.146195 1_455
Se4 Tl2 3.146195 1_565
Se4 Tl17 3.314526 1_555
Se4 Tl16 3.314526 1_565
Se4 Tl4 3.408072 1_565
Se4 Tl1 3.408072 1_455
Se5 Tl3 3.033727 1_555
Se5 Tl1 3.033727 1_555
Se5 Tl6 3.146195 1_555
Se5 Tl0 3.146195 1_555
Se5 Tl17 3.314526 1_655
Se5 Tl16 3.314526 1_565
Se5 Tl7 3.408072 1_555
Se5 Tl5 3.408072 1_555
Se6 Tl4 3.033727 1_555
Se6 Tl2 3.033727 1_555
Se6 Tl7 3.146195 1_555
Se6 Tl5 3.146195 1_555
Se6 Tl17 3.314526 1_555
Se6 Tl16 3.314526 1_555
Se6 Tl6 3.408072 1_555
Se6 Tl0 3.408072 1_555
Se7 Tl6 3.033727 1_555
Se7 Tl5 3.033727 1_555
Se7 Tl4 3.146195 1_655
Se7 Tl1 3.146195 1_545
Se7 Tl17 3.314526 1_655
Se7 Tl16 3.314526 1_555
Se7 Tl3 3.408072 1_545
Se7 Tl2 3.408072 1_655
Cl0 Tl2 3.211450 1_555
Cl0 Tl1 3.211450 1_545
Cl0 Tl0 3.211450 1_545
Cl0 Tl5 3.211450 1_555
Cl0 Tl16 3.240911 1_555
Cl0 Tl19 3.253988 1_555
Cl1 Tl6 3.211450 1_455
Cl1 Tl3 3.211450 1_455
Cl1 Tl4 3.211450 1_555
Cl1 Tl7 3.211450 1_555
Cl1 Tl17 3.240911 1_555
Cl1 Tl18 3.253988 1_556
Cl2 Tl10 3.211450 1_455
Cl2 Tl15 3.211450 1_555
Cl2 Tl14 3.211450 1_455
Cl2 Tl13 3.211450 1_555
Cl2 Tl18 3.240911 1_555
Cl2 Tl17 3.253988 1_555
Cl3 Tl9 3.211450 1_555
Cl3 Tl12 3.211450 1_545
Cl3 Tl8 3.211450 1_545
Cl3 Tl11 3.211450 1_555
Cl3 Tl19 3.240911 1_555
Cl3 Tl16 3.253988 1_554
