# generated using pymatgen
data_Cd2P6O17
_symmetry_space_group_name_H-M   'P 1'
_cell_length_a   18.14337869
_cell_length_b   5.50104233
_cell_length_c   7.61768762
_cell_angle_alpha   68.48695643
_cell_angle_beta   90.00000000
_cell_angle_gamma   90.00000000
_symmetry_Int_Tables_number   1
_chemical_formula_structural   Cd2P6O17
_chemical_formula_sum   'Cd4 P12 O34'
_cell_volume   707.33517441
_cell_formula_units_Z   2
loop_
 _symmetry_equiv_pos_site_id
 _symmetry_equiv_pos_as_xyz
  1  'x, y, z'
loop_
 _atom_site_type_symbol
 _atom_site_label
 _atom_site_symmetry_multiplicity
 _atom_site_fract_x
 _atom_site_fract_y
 _atom_site_fract_z
 _atom_site_occupancy
  Cd  Cd0  1  0.07224801  0.09542310  0.14241022  1
  Cd  Cd1  1  0.57224801  0.90457690  0.35758978  1
  Cd  Cd2  1  0.92775199  0.90457690  0.85758978  1
  Cd  Cd3  1  0.42775199  0.09542310  0.64241022  1
  P  P0  1  0.03011556  0.49335046  0.69442287  1
  P  P1  1  0.53011556  0.50664954  0.80557713  1
  P  P2  1  0.96988444  0.50664954  0.30557713  1
  P  P3  1  0.46988444  0.49335046  0.19442287  1
  P  P4  1  0.16891091  0.73368259  0.57836631  1
  P  P5  1  0.66891091  0.26631741  0.92163369  1
  P  P6  1  0.83108909  0.26631741  0.42163369  1
  P  P7  1  0.33108909  0.73368259  0.07836631  1
  P  P8  1  0.17774531  0.71165034  0.97325783  1
  P  P9  1  0.67774531  0.28834966  0.52674217  1
  P  P10  1  0.82225469  0.28834966  0.02674217  1
  P  P11  1  0.32225469  0.71165034  0.47325783  1
  O  O0  1  0.01140483  0.23487568  0.84175548  1
  O  O1  1  0.51140483  0.76512432  0.65824452  1
  O  O2  1  0.98859517  0.76512432  0.15824452  1
  O  O3  1  0.48859517  0.23487568  0.34175548  1
  O  O4  1  0.01241996  0.73927096  0.72090153  1
  O  O5  1  0.51241996  0.26072904  0.77909847  1
  O  O6  1  0.98758004  0.26072904  0.27909847  1
  O  O7  1  0.48758004  0.73927096  0.22090153  1
  O  O8  1  -0.00000000  0.50000000  0.50000000  1
  O  O9  1  0.50000000  0.50000000  -0.00000000  1
  O  O10  1  0.11771764  0.48731305  0.65708819  1
  O  O11  1  0.61771764  0.51268695  0.84291181  1
  O  O12  1  0.88228236  0.51268695  0.34291181  1
  O  O13  1  0.38228236  0.48731305  0.15708819  1
  O  O14  1  0.13951597  0.94876166  0.41671343  1
  O  O15  1  0.63951597  0.05123834  0.08328657  1
  O  O16  1  0.23991588  0.60124810  0.53839500  1
  O  O17  1  0.73991588  0.39875190  0.96160500  1
  O  O18  1  0.76008412  0.39875190  0.46160500  1
  O  O19  1  0.26008412  0.60124810  0.03839500  1
  O  O20  1  0.33386859  0.94194830  0.52513334  1
  O  O21  1  0.83386859  0.05805170  0.97486666  1
  O  O22  1  0.66613141  0.05805170  0.47486666  1
  O  O23  1  0.16613141  0.94194830  0.02513334  1
  O  O24  1  0.37229505  0.48686031  0.53515140  1
  O  O25  1  0.87229505  0.51313969  0.96484860  1
  O  O26  1  0.62770495  0.51313969  0.46484860  1
  O  O27  1  0.12770495  0.48686031  0.03515140  1
  O  O28  1  0.31246629  0.81983738  0.24673394  1
  O  O29  1  0.81246629  0.18016262  0.25326606  1
  O  O30  1  0.68753371  0.18016262  0.75326606  1
  O  O31  1  0.18753371  0.81983738  0.74673394  1
  O  O32  1  0.36048403  0.94876166  0.91671343  1
  O  O33  1  0.86048403  0.05123834  0.58328657  1
loop_
_geom_bond_atom_site_label_1
_geom_bond_atom_site_label_2
_geom_bond_distance
_geom_bond_site_symmetry_2
Cd0 O6 2.228312 1_455
Cd0 O23 2.228352 1_545
Cd0 O27 2.241953 1_555
Cd0 O14 2.295705 1_545
Cd0 O2 2.336408 1_445
Cd0 O0 2.400820 1_554
Cd1 O7 2.228312 1_555
Cd1 O22 2.228352 1_565
Cd1 O26 2.241953 1_555
Cd1 O15 2.295705 1_565
Cd1 O3 2.336408 1_565
Cd1 O1 2.400820 1_555
Cd2 O4 2.228312 1_655
Cd2 O21 2.228352 1_565
Cd2 O25 2.241953 1_555
Cd2 O33 2.295705 1_565
Cd2 O0 2.336408 1_665
Cd2 O2 2.400820 1_556
Cd3 O5 2.228312 1_555
Cd3 O20 2.228352 1_545
Cd3 O24 2.241953 1_555
Cd3 O32 2.295705 1_545
Cd3 O1 2.336408 1_545
Cd3 O3 2.400820 1_555
O0 P0 1.492046 1_555
O1 P1 1.492046 1_555
O2 P2 1.492046 1_555
O3 P3 1.492046 1_555
O4 P0 1.474454 1_555
O5 P1 1.474454 1_555
O6 P2 1.474454 1_555
O7 P3 1.474454 1_555
O8 P0 1.566420 1_555
O8 P2 1.566420 1_455
O9 P3 1.566420 1_555
O9 P1 1.566420 1_554
O10 P4 1.569409 1_555
O10 P0 1.617128 1_555
O11 P5 1.569409 1_555
O11 P1 1.617128 1_555
O12 P6 1.569409 1_555
O12 P2 1.617128 1_555
O13 P7 1.569409 1_555
O13 P3 1.617128 1_555
O14 P4 1.460178 1_555
O15 P5 1.460178 1_554
O16 P4 1.563906 1_555
O16 P11 1.620428 1_555
O17 P5 1.563906 1_555
O17 P10 1.620428 1_556
O18 P6 1.563906 1_555
O18 P9 1.620428 1_555
O19 P7 1.563906 1_555
O19 P8 1.620428 1_554
O20 P11 1.474015 1_555
O21 P10 1.474015 1_556
O22 P9 1.474015 1_555
O23 P8 1.474015 1_554
O24 P11 1.465641 1_555
O25 P10 1.465641 1_556
O26 P9 1.465641 1_555
O27 P8 1.465641 1_554
O28 P7 1.558717 1_555
O28 P11 1.615606 1_555
O29 P6 1.558717 1_555
O29 P10 1.615606 1_555
O30 P5 1.558717 1_555
O30 P9 1.615606 1_555
O31 P4 1.558717 1_555
O31 P8 1.615606 1_555
O32 P7 1.460178 1_556
O33 P6 1.460178 1_555
