# generated using pymatgen
data_Ti3In4
_symmetry_space_group_name_H-M   'P 1'
_cell_length_a   19.98805000
_cell_length_b   19.98805000
_cell_length_c   5.97729800
_cell_angle_alpha   90.00000000
_cell_angle_beta   90.00000000
_cell_angle_gamma   90.00000000
_symmetry_Int_Tables_number   1
_chemical_formula_structural   Ti3In4
_chemical_formula_sum   'Ti48 In64'
_cell_volume   2388.06290513
_cell_formula_units_Z   16
loop_
 _symmetry_equiv_pos_site_id
 _symmetry_equiv_pos_as_xyz
  1  'x, y, z'
loop_
 _atom_site_type_symbol
 _atom_site_label
 _atom_site_symmetry_multiplicity
 _atom_site_fract_x
 _atom_site_fract_y
 _atom_site_fract_z
 _atom_site_occupancy
  Ti  Ti0_0  1  0.08816350  0.16183650  0.25000000  1
  Ti  Ti0_1  1  0.08816350  0.16183650  0.75000000  1
  Ti  Ti0_2  1  0.08816350  0.66183650  0.25000000  1
  Ti  Ti0_3  1  0.08816350  0.66183650  0.75000000  1
  Ti  Ti0_4  1  0.58816350  0.16183650  0.25000000  1
  Ti  Ti0_5  1  0.58816350  0.16183650  0.75000000  1
  Ti  Ti0_6  1  0.58816350  0.66183650  0.25000000  1
  Ti  Ti0_7  1  0.58816350  0.66183650  0.75000000  1
  Ti  Ti1_0  1  0.16183650  0.41183650  0.25000000  1
  Ti  Ti1_1  1  0.16183650  0.41183650  0.75000000  1
  Ti  Ti1_2  1  0.16183650  0.91183650  0.25000000  1
  Ti  Ti1_3  1  0.16183650  0.91183650  0.75000000  1
  Ti  Ti1_4  1  0.66183650  0.41183650  0.25000000  1
  Ti  Ti1_5  1  0.66183650  0.41183650  0.75000000  1
  Ti  Ti1_6  1  0.66183650  0.91183650  0.25000000  1
  Ti  Ti1_7  1  0.66183650  0.91183650  0.75000000  1
  Ti  Ti2_0  1  0.33816350  0.08816350  0.25000000  1
  Ti  Ti2_1  1  0.33816350  0.08816350  0.75000000  1
  Ti  Ti2_2  1  0.33816350  0.58816350  0.25000000  1
  Ti  Ti2_3  1  0.33816350  0.58816350  0.75000000  1
  Ti  Ti2_4  1  0.83816350  0.08816350  0.25000000  1
  Ti  Ti2_5  1  0.83816350  0.08816350  0.75000000  1
  Ti  Ti2_6  1  0.83816350  0.58816350  0.25000000  1
  Ti  Ti2_7  1  0.83816350  0.58816350  0.75000000  1
  Ti  Ti3_0  1  0.25000000  0.00000000  0.00000000  1
  Ti  Ti3_1  1  0.25000000  0.00000000  0.50000000  1
  Ti  Ti3_2  1  0.25000000  0.50000000  0.00000000  1
  Ti  Ti3_3  1  0.25000000  0.50000000  0.50000000  1
  Ti  Ti3_4  1  0.75000000  0.00000000  0.00000000  1
  Ti  Ti3_5  1  0.75000000  0.00000000  0.50000000  1
  Ti  Ti3_6  1  0.75000000  0.50000000  0.00000000  1
  Ti  Ti3_7  1  0.75000000  0.50000000  0.50000000  1
  Ti  Ti4_0  1  0.41183650  0.33816350  0.25000000  1
  Ti  Ti4_1  1  0.41183650  0.33816350  0.75000000  1
  Ti  Ti4_2  1  0.41183650  0.83816350  0.25000000  1
  Ti  Ti4_3  1  0.41183650  0.83816350  0.75000000  1
  Ti  Ti4_4  1  0.91183650  0.33816350  0.25000000  1
  Ti  Ti4_5  1  0.91183650  0.33816350  0.75000000  1
  Ti  Ti4_6  1  0.91183650  0.83816350  0.25000000  1
  Ti  Ti4_7  1  0.91183650  0.83816350  0.75000000  1
  Ti  Ti5_0  1  0.00000000  0.25000000  0.00000000  1
  Ti  Ti5_1  1  0.00000000  0.25000000  0.50000000  1
  Ti  Ti5_2  1  0.00000000  0.75000000  0.00000000  1
  Ti  Ti5_3  1  0.00000000  0.75000000  0.50000000  1
  Ti  Ti5_4  1  0.50000000  0.25000000  0.00000000  1
  Ti  Ti5_5  1  0.50000000  0.25000000  0.50000000  1
  Ti  Ti5_6  1  0.50000000  0.75000000  0.00000000  1
  Ti  Ti5_7  1  0.50000000  0.75000000  0.50000000  1
  In  In0_0  1  0.22062150  0.14397800  0.00000000  1
  In  In0_1  1  0.22062150  0.14397800  0.50000000  1
  In  In0_2  1  0.22062150  0.64397800  0.00000000  1
  In  In0_3  1  0.22062150  0.64397800  0.50000000  1
  In  In0_4  1  0.72062150  0.14397800  0.00000000  1
  In  In0_5  1  0.72062150  0.14397800  0.50000000  1
  In  In0_6  1  0.72062150  0.64397800  0.00000000  1
  In  In0_7  1  0.72062150  0.64397800  0.50000000  1
  In  In1_0  1  0.39397800  0.47062150  0.00000000  1
  In  In1_1  1  0.39397800  0.47062150  0.50000000  1
  In  In1_2  1  0.39397800  0.97062150  0.00000000  1
  In  In1_3  1  0.39397800  0.97062150  0.50000000  1
  In  In1_4  1  0.89397800  0.47062150  0.00000000  1
  In  In1_5  1  0.89397800  0.47062150  0.50000000  1
  In  In1_6  1  0.89397800  0.97062150  0.00000000  1
  In  In1_7  1  0.89397800  0.97062150  0.50000000  1
  In  In2_0  1  0.02937850  0.39397800  0.00000000  1
  In  In2_1  1  0.02937850  0.39397800  0.50000000  1
  In  In2_2  1  0.02937850  0.89397800  0.00000000  1
  In  In2_3  1  0.02937850  0.89397800  0.50000000  1
  In  In2_4  1  0.52937850  0.39397800  0.00000000  1
  In  In2_5  1  0.52937850  0.39397800  0.50000000  1
  In  In2_6  1  0.52937850  0.89397800  0.00000000  1
  In  In2_7  1  0.52937850  0.89397800  0.50000000  1
  In  In3_0  1  0.14397800  0.27937850  0.00000000  1
  In  In3_1  1  0.14397800  0.27937850  0.50000000  1
  In  In3_2  1  0.14397800  0.77937850  0.00000000  1
  In  In3_3  1  0.14397800  0.77937850  0.50000000  1
  In  In3_4  1  0.64397800  0.27937850  0.00000000  1
  In  In3_5  1  0.64397800  0.27937850  0.50000000  1
  In  In3_6  1  0.64397800  0.77937850  0.00000000  1
  In  In3_7  1  0.64397800  0.77937850  0.50000000  1
  In  In4_0  1  0.27937850  0.35602200  0.00000000  1
  In  In4_1  1  0.27937850  0.35602200  0.50000000  1
  In  In4_2  1  0.27937850  0.85602200  0.00000000  1
  In  In4_3  1  0.27937850  0.85602200  0.50000000  1
  In  In4_4  1  0.77937850  0.35602200  0.00000000  1
  In  In4_5  1  0.77937850  0.35602200  0.50000000  1
  In  In4_6  1  0.77937850  0.85602200  0.00000000  1
  In  In4_7  1  0.77937850  0.85602200  0.50000000  1
  In  In5_0  1  0.35602200  0.22062150  0.00000000  1
  In  In5_1  1  0.35602200  0.22062150  0.50000000  1
  In  In5_2  1  0.35602200  0.72062150  0.00000000  1
  In  In5_3  1  0.35602200  0.72062150  0.50000000  1
  In  In5_4  1  0.85602200  0.22062150  0.00000000  1
  In  In5_5  1  0.85602200  0.22062150  0.50000000  1
  In  In5_6  1  0.85602200  0.72062150  0.00000000  1
  In  In5_7  1  0.85602200  0.72062150  0.50000000  1
  In  In6_0  1  0.10602200  0.02937850  0.00000000  1
  In  In6_1  1  0.10602200  0.02937850  0.50000000  1
  In  In6_2  1  0.10602200  0.52937850  0.00000000  1
  In  In6_3  1  0.10602200  0.52937850  0.50000000  1
  In  In6_4  1  0.60602200  0.02937850  0.00000000  1
  In  In6_5  1  0.60602200  0.02937850  0.50000000  1
  In  In6_6  1  0.60602200  0.52937850  0.00000000  1
  In  In6_7  1  0.60602200  0.52937850  0.50000000  1
  In  In7_0  1  0.47062150  0.10602200  0.00000000  1
  In  In7_1  1  0.47062150  0.10602200  0.50000000  1
  In  In7_2  1  0.47062150  0.60602200  0.00000000  1
  In  In7_3  1  0.47062150  0.60602200  0.50000000  1
  In  In7_4  1  0.97062150  0.10602200  0.00000000  1
  In  In7_5  1  0.97062150  0.10602200  0.50000000  1
  In  In7_6  1  0.97062150  0.60602200  0.00000000  1
  In  In7_7  1  0.97062150  0.60602200  0.50000000  1
loop_
_geom_bond_atom_site_label_1
_geom_bond_atom_site_label_2
_geom_bond_distance
_geom_bond_site_symmetry_2
Ti0_0 Ti5_0 2.905825 1_555
Ti0_0 Ti5_1 2.905825 1_555
Ti0_0 Ti0_1 2.988649 1_555
Ti0_0 Ti0_1 2.988649 1_554
Ti0_1 Ti5_1 2.905825 1_555
Ti0_1 Ti5_0 2.905825 1_556
Ti0_2 Ti5_2 2.905825 1_555
Ti0_2 Ti5_3 2.905825 1_555
Ti0_2 Ti0_3 2.988649 1_555
Ti0_2 Ti0_3 2.988649 1_554
Ti0_3 Ti5_3 2.905825 1_555
Ti0_3 Ti5_2 2.905825 1_556
Ti0_4 Ti5_5 2.905825 1_555
Ti0_4 Ti5_4 2.905825 1_555
Ti0_4 Ti0_5 2.988649 1_555
Ti0_4 Ti0_5 2.988649 1_554
Ti0_5 Ti5_4 2.905825 1_556
Ti0_5 Ti5_5 2.905825 1_555
Ti0_6 Ti5_6 2.905825 1_555
Ti0_6 Ti5_7 2.905825 1_555
Ti0_6 Ti0_7 2.988649 1_555
Ti0_6 Ti0_7 2.988649 1_554
Ti0_7 Ti5_7 2.905825 1_555
Ti0_7 Ti5_6 2.905825 1_556
Ti1_0 Ti3_3 2.905825 1_555
Ti1_0 Ti3_2 2.905825 1_555
Ti1_0 Ti1_1 2.988649 1_555
Ti1_0 Ti1_1 2.988649 1_554
Ti1_1 Ti3_3 2.905825 1_555
Ti1_1 Ti3_2 2.905825 1_556
Ti1_2 Ti3_1 2.905825 1_565
Ti1_2 Ti3_0 2.905825 1_565
Ti1_2 Ti1_3 2.988649 1_555
Ti1_2 Ti1_3 2.988649 1_554
Ti1_3 Ti3_1 2.905825 1_565
Ti1_3 Ti3_0 2.905825 1_566
Ti1_4 Ti3_6 2.905825 1_555
Ti1_4 Ti3_7 2.905825 1_555
Ti1_4 Ti1_5 2.988649 1_555
Ti1_4 Ti1_5 2.988649 1_554
Ti1_5 Ti3_7 2.905825 1_555
Ti1_5 Ti3_6 2.905825 1_556
Ti1_6 Ti3_5 2.905825 1_565
Ti1_6 Ti3_4 2.905825 1_565
Ti1_6 Ti1_7 2.988649 1_555
Ti1_6 Ti1_7 2.988649 1_554
Ti1_7 Ti3_5 2.905825 1_565
Ti1_7 Ti3_4 2.905825 1_566
Ti2_0 Ti3_0 2.905825 1_555
Ti2_0 Ti3_1 2.905825 1_555
Ti2_0 Ti2_1 2.988649 1_555
Ti2_0 Ti2_1 2.988649 1_554
Ti2_1 Ti3_1 2.905825 1_555
Ti2_1 Ti3_0 2.905825 1_556
Ti2_2 Ti3_3 2.905825 1_555
Ti2_2 Ti3_2 2.905825 1_555
Ti2_2 Ti2_3 2.988649 1_555
Ti2_2 Ti2_3 2.988649 1_554
Ti2_3 Ti3_3 2.905825 1_555
Ti2_3 Ti3_2 2.905825 1_556
Ti2_4 Ti3_4 2.905825 1_555
Ti2_4 Ti3_5 2.905825 1_555
Ti2_4 Ti2_5 2.988649 1_555
Ti2_4 Ti2_5 2.988649 1_554
Ti2_5 Ti3_5 2.905825 1_555
Ti2_5 Ti3_4 2.905825 1_556
Ti2_6 Ti3_6 2.905825 1_555
Ti2_6 Ti3_7 2.905825 1_555
Ti2_6 Ti2_7 2.988649 1_555
Ti2_6 Ti2_7 2.988649 1_554
Ti2_7 Ti3_7 2.905825 1_555
Ti2_7 Ti3_6 2.905825 1_556
Ti3_0 Ti3_1 2.988649 1_555
Ti3_0 Ti3_1 2.988649 1_554
Ti3_2 Ti3_3 2.988649 1_555
Ti3_2 Ti3_3 2.988649 1_554
Ti3_4 Ti3_5 2.988649 1_555
Ti3_4 Ti3_5 2.988649 1_554
Ti3_6 Ti3_7 2.988649 1_555
Ti3_6 Ti3_7 2.988649 1_554
Ti4_0 Ti5_5 2.905825 1_555
Ti4_0 Ti5_4 2.905825 1_555
Ti4_0 Ti4_1 2.988649 1_555
Ti4_0 Ti4_1 2.988649 1_554
Ti4_1 Ti5_5 2.905825 1_555
Ti4_1 Ti5_4 2.905825 1_556
Ti4_2 Ti5_7 2.905825 1_555
Ti4_2 Ti5_6 2.905825 1_555
Ti4_2 Ti4_3 2.988649 1_555
Ti4_2 Ti4_3 2.988649 1_554
Ti4_3 Ti5_7 2.905825 1_555
Ti4_3 Ti5_6 2.905825 1_556
Ti4_4 Ti5_1 2.905825 1_655
Ti4_4 Ti5_0 2.905825 1_655
Ti4_4 Ti4_5 2.988649 1_555
Ti4_4 Ti4_5 2.988649 1_554
Ti4_5 Ti5_1 2.905825 1_655
Ti4_5 Ti5_0 2.905825 1_656
Ti4_6 Ti5_3 2.905825 1_655
Ti4_6 Ti5_2 2.905825 1_655
Ti4_6 Ti4_7 2.988649 1_555
Ti4_6 Ti4_7 2.988649 1_554
Ti4_7 Ti5_3 2.905825 1_655
Ti4_7 Ti5_2 2.905825 1_656
Ti5_0 Ti5_1 2.988649 1_555
Ti5_0 Ti5_1 2.988649 1_554
Ti5_2 Ti5_3 2.988649 1_555
Ti5_2 Ti5_3 2.988649 1_554
Ti5_4 Ti5_5 2.988649 1_555
Ti5_4 Ti5_5 2.988649 1_554
Ti5_6 Ti5_7 2.988649 1_555
Ti5_6 Ti5_7 2.988649 1_554
In0_0 Ti3_0 2.937139 1_555
In0_0 In0_1 2.988649 1_555
In0_0 In0_1 2.988649 1_554
In0_0 Ti2_0 2.999578 1_555
In0_0 Ti2_1 2.999578 1_554
In0_0 Ti0_0 3.061060 1_555
In0_0 Ti0_1 3.061060 1_554
In0_0 In3_0 3.109894 1_555
In0_0 In5_0 3.109894 1_555
In0_0 In6_0 3.239427 1_555
In0_1 Ti3_1 2.937139 1_555
In0_1 Ti2_0 2.999578 1_555
In0_1 Ti2_1 2.999578 1_555
In0_1 Ti0_0 3.061060 1_555
In0_1 Ti0_1 3.061060 1_555
In0_1 In3_1 3.109894 1_555
In0_1 In5_1 3.109894 1_555
In0_1 In6_1 3.239427 1_555
In0_2 Ti3_2 2.937139 1_555
In0_2 In0_3 2.988649 1_555
In0_2 In0_3 2.988649 1_554
In0_2 Ti2_2 2.999578 1_555
In0_2 Ti2_3 2.999578 1_554
In0_2 Ti0_2 3.061060 1_555
In0_2 Ti0_3 3.061060 1_554
In0_2 In5_2 3.109894 1_555
In0_2 In3_2 3.109894 1_555
In0_2 In6_2 3.239427 1_555
In0_3 Ti3_3 2.937139 1_555
In0_3 Ti2_2 2.999578 1_555
In0_3 Ti2_3 2.999578 1_555
In0_3 Ti0_2 3.061060 1_555
In0_3 Ti0_3 3.061060 1_555
In0_3 In5_3 3.109894 1_555
In0_3 In3_3 3.109894 1_555
In0_3 In6_3 3.239427 1_555
In0_4 Ti3_4 2.937139 1_555
In0_4 In0_5 2.988649 1_555
In0_4 In0_5 2.988649 1_554
In0_4 Ti2_4 2.999578 1_555
In0_4 Ti2_5 2.999578 1_554
In0_4 Ti0_4 3.061060 1_555
In0_4 Ti0_5 3.061060 1_554
In0_4 In5_4 3.109894 1_555
In0_4 In3_4 3.109894 1_555
In0_4 In6_4 3.239427 1_555
In0_5 Ti3_5 2.937139 1_555
In0_5 Ti2_4 2.999578 1_555
In0_5 Ti2_5 2.999578 1_555
In0_5 Ti0_5 3.061060 1_555
In0_5 Ti0_4 3.061060 1_555
In0_5 In5_5 3.109894 1_555
In0_5 In3_5 3.109894 1_555
In0_5 In6_5 3.239427 1_555
In0_6 Ti3_6 2.937139 1_555
In0_6 In0_7 2.988649 1_555
In0_6 In0_7 2.988649 1_554
In0_6 Ti2_6 2.999578 1_555
In0_6 Ti2_7 2.999578 1_554
In0_6 Ti0_6 3.061060 1_555
In0_6 Ti0_7 3.061060 1_554
In0_6 In5_6 3.109894 1_555
In0_6 In3_6 3.109894 1_555
In0_6 In6_6 3.239427 1_555
In0_7 Ti3_7 2.937139 1_555
In0_7 Ti2_6 2.999578 1_555
In0_7 Ti2_7 2.999578 1_555
In0_7 Ti0_6 3.061060 1_555
In0_7 Ti0_7 3.061060 1_555
In0_7 In5_7 3.109894 1_555
In0_7 In3_7 3.109894 1_555
In0_7 In6_7 3.239427 1_555
In1_0 Ti3_2 2.937139 1_555
In1_0 In1_1 2.988649 1_555
In1_0 In1_1 2.988649 1_554
In1_0 Ti2_2 2.999578 1_555
In1_0 Ti2_3 2.999578 1_554
In1_0 Ti4_0 3.061060 1_555
In1_0 Ti4_1 3.061060 1_554
In1_0 In7_2 3.109894 1_555
In1_0 In2_4 3.109894 1_555
In1_0 In4_0 3.239427 1_555
In1_1 Ti3_3 2.937139 1_555
In1_1 Ti2_3 2.999578 1_555
In1_1 Ti2_2 2.999578 1_555
In1_1 Ti4_0 3.061060 1_555
In1_1 Ti4_1 3.061060 1_555
In1_1 In7_3 3.109894 1_555
In1_1 In2_5 3.109894 1_555
In1_1 In4_1 3.239427 1_555
In1_2 Ti3_0 2.937139 1_565
In1_2 In1_3 2.988649 1_555
In1_2 In1_3 2.988649 1_554
In1_2 Ti2_0 2.999578 1_565
In1_2 Ti2_1 2.999578 1_564
In1_2 Ti4_2 3.061060 1_555
In1_2 Ti4_3 3.061060 1_554
In1_2 In7_0 3.109894 1_565
In1_2 In2_6 3.109894 1_555
In1_2 In4_2 3.239427 1_555
In1_3 Ti3_1 2.937139 1_565
In1_3 Ti2_0 2.999578 1_565
In1_3 Ti2_1 2.999578 1_565
In1_3 Ti4_2 3.061060 1_555
In1_3 Ti4_3 3.061060 1_555
In1_3 In7_1 3.109894 1_565
In1_3 In2_7 3.109894 1_555
In1_3 In4_3 3.239427 1_555
In1_4 Ti3_6 2.937139 1_555
In1_4 In1_5 2.988649 1_555
In1_4 In1_5 2.988649 1_554
In1_4 Ti2_6 2.999578 1_555
In1_4 Ti2_7 2.999578 1_554
In1_4 Ti4_4 3.061060 1_555
In1_4 Ti4_5 3.061060 1_554
In1_4 In7_6 3.109894 1_555
In1_4 In2_0 3.109894 1_655
In1_4 In4_4 3.239427 1_555
In1_5 Ti3_7 2.937139 1_555
In1_5 Ti2_6 2.999578 1_555
In1_5 Ti2_7 2.999578 1_555
In1_5 Ti4_5 3.061060 1_555
In1_5 Ti4_4 3.061060 1_555
In1_5 In7_7 3.109894 1_555
In1_5 In2_1 3.109894 1_655
In1_5 In4_5 3.239427 1_555
In1_6 Ti3_4 2.937139 1_565
In1_6 In1_7 2.988649 1_555
In1_6 In1_7 2.988649 1_554
In1_6 Ti2_4 2.999578 1_565
In1_6 Ti2_5 2.999578 1_564
In1_6 Ti4_6 3.061060 1_555
In1_6 Ti4_7 3.061060 1_554
In1_6 In7_4 3.109894 1_565
In1_6 In2_2 3.109894 1_655
In1_6 In4_6 3.239427 1_555
In1_7 Ti3_5 2.937139 1_565
In1_7 Ti2_5 2.999578 1_565
In1_7 Ti2_4 2.999578 1_565
In1_7 Ti4_6 3.061060 1_555
In1_7 Ti4_7 3.061060 1_555
In1_7 In7_5 3.109894 1_565
In1_7 In2_3 3.109894 1_655
In1_7 In4_7 3.239427 1_555
In2_0 Ti5_0 2.937139 1_555
In2_0 In2_1 2.988649 1_555
In2_0 In2_1 2.988649 1_554
In2_0 Ti4_4 2.999578 1_455
In2_0 Ti4_5 2.999578 1_454
In2_0 Ti1_1 3.061060 1_554
In2_0 Ti1_0 3.061060 1_555
In2_0 In6_2 3.109894 1_555
In2_0 In3_0 3.239427 1_555
In2_1 Ti5_1 2.937139 1_555
In2_1 Ti4_4 2.999578 1_455
In2_1 Ti4_5 2.999578 1_455
In2_1 Ti1_1 3.061060 1_555
In2_1 Ti1_0 3.061060 1_555
In2_1 In6_3 3.109894 1_555
In2_1 In3_1 3.239427 1_555
In2_2 Ti5_2 2.937139 1_555
In2_2 In2_3 2.988649 1_555
In2_2 In2_3 2.988649 1_554
In2_2 Ti4_6 2.999578 1_455
In2_2 Ti4_7 2.999578 1_454
In2_2 Ti1_2 3.061060 1_555
In2_2 Ti1_3 3.061060 1_554
In2_2 In6_0 3.109894 1_565
In2_2 In3_2 3.239427 1_555
In2_3 Ti5_3 2.937139 1_555
In2_3 Ti4_7 2.999578 1_455
In2_3 Ti4_6 2.999578 1_455
In2_3 Ti1_2 3.061060 1_555
In2_3 Ti1_3 3.061060 1_555
In2_3 In6_1 3.109894 1_565
In2_3 In3_3 3.239427 1_555
In2_4 Ti5_4 2.937139 1_555
In2_4 In2_5 2.988649 1_555
In2_4 In2_5 2.988649 1_554
In2_4 Ti4_0 2.999578 1_555
In2_4 Ti4_1 2.999578 1_554
In2_4 Ti1_4 3.061060 1_555
In2_4 Ti1_5 3.061060 1_554
In2_4 In6_6 3.109894 1_555
In2_4 In3_4 3.239427 1_555
In2_5 Ti5_5 2.937139 1_555
In2_5 Ti4_1 2.999578 1_555
In2_5 Ti4_0 2.999578 1_555
In2_5 Ti1_5 3.061060 1_555
In2_5 Ti1_4 3.061060 1_555
In2_5 In6_7 3.109894 1_555
In2_5 In3_5 3.239427 1_555
In2_6 Ti5_6 2.937139 1_555
In2_6 In2_7 2.988649 1_555
In2_6 In2_7 2.988649 1_554
In2_6 Ti4_2 2.999578 1_555
In2_6 Ti4_3 2.999578 1_554
In2_6 Ti1_6 3.061060 1_555
In2_6 Ti1_7 3.061060 1_554
In2_6 In6_4 3.109894 1_565
In2_6 In3_6 3.239427 1_555
In2_7 Ti5_7 2.937139 1_555
In2_7 Ti4_2 2.999578 1_555
In2_7 Ti4_3 2.999578 1_555
In2_7 Ti1_6 3.061060 1_555
In2_7 Ti1_7 3.061060 1_555
In2_7 In6_5 3.109894 1_565
In2_7 In3_7 3.239427 1_555
In3_0 Ti5_0 2.937139 1_555
In3_0 In3_1 2.988649 1_555
In3_0 In3_1 2.988649 1_554
In3_0 Ti0_0 2.999578 1_555
In3_0 Ti0_1 2.999578 1_554
In3_0 Ti1_0 3.061060 1_555
In3_0 Ti1_1 3.061060 1_554
In3_0 In4_0 3.109894 1_555
In3_1 Ti5_1 2.937139 1_555
In3_1 Ti0_1 2.999578 1_555
In3_1 Ti0_0 2.999578 1_555
In3_1 Ti1_0 3.061060 1_555
In3_1 Ti1_1 3.061060 1_555
In3_1 In4_1 3.109894 1_555
In3_2 Ti5_2 2.937139 1_555
In3_2 In3_3 2.988649 1_555
In3_2 In3_3 2.988649 1_554
In3_2 Ti0_2 2.999578 1_555
In3_2 Ti0_3 2.999578 1_554
In3_2 Ti1_2 3.061060 1_555
In3_2 Ti1_3 3.061060 1_554
In3_2 In4_2 3.109894 1_555
In3_3 Ti5_3 2.937139 1_555
In3_3 Ti0_2 2.999578 1_555
In3_3 Ti0_3 2.999578 1_555
In3_3 Ti1_2 3.061060 1_555
In3_3 Ti1_3 3.061060 1_555
In3_3 In4_3 3.109894 1_555
In3_4 Ti5_4 2.937139 1_555
In3_4 In3_5 2.988649 1_555
In3_4 In3_5 2.988649 1_554
In3_4 Ti0_4 2.999578 1_555
In3_4 Ti0_5 2.999578 1_554
In3_4 Ti1_4 3.061060 1_555
In3_4 Ti1_5 3.061060 1_554
In3_4 In4_4 3.109894 1_555
In3_5 Ti5_5 2.937139 1_555
In3_5 Ti0_5 2.999578 1_555
In3_5 Ti0_4 2.999578 1_555
In3_5 Ti1_5 3.061060 1_555
In3_5 Ti1_4 3.061060 1_555
In3_5 In4_5 3.109894 1_555
In3_6 Ti5_6 2.937139 1_555
In3_6 In3_7 2.988649 1_555
In3_6 In3_7 2.988649 1_554
In3_6 Ti0_6 2.999578 1_555
In3_6 Ti0_7 2.999578 1_554
In3_6 Ti1_6 3.061060 1_555
In3_6 Ti1_7 3.061060 1_554
In3_6 In4_6 3.109894 1_555
In3_7 Ti5_7 2.937139 1_555
In3_7 Ti0_7 2.999578 1_555
In3_7 Ti0_6 2.999578 1_555
In3_7 Ti1_6 3.061060 1_555
In3_7 Ti1_7 3.061060 1_555
In3_7 In4_7 3.109894 1_555
In4_0 Ti3_2 2.937139 1_555
In4_0 In4_1 2.988649 1_555
In4_0 In4_1 2.988649 1_554
In4_0 Ti1_0 2.999578 1_555
In4_0 Ti1_1 2.999578 1_554
In4_0 Ti4_0 3.061060 1_555
In4_0 Ti4_1 3.061060 1_554
In4_0 In5_0 3.109894 1_555
In4_1 Ti3_3 2.937139 1_555
In4_1 Ti1_0 2.999578 1_555
In4_1 Ti1_1 2.999578 1_555
In4_1 Ti4_0 3.061060 1_555
In4_1 Ti4_1 3.061060 1_555
In4_1 In5_1 3.109894 1_555
In4_2 Ti3_0 2.937139 1_565
In4_2 In4_3 2.988649 1_555
In4_2 In4_3 2.988649 1_554
In4_2 Ti1_2 2.999578 1_555
In4_2 Ti1_3 2.999578 1_554
In4_2 Ti4_3 3.061060 1_554
In4_2 Ti4_2 3.061060 1_555
In4_2 In5_2 3.109894 1_555
In4_3 Ti3_1 2.937139 1_565
In4_3 Ti1_3 2.999578 1_555
In4_3 Ti1_2 2.999578 1_555
In4_3 Ti4_3 3.061060 1_555
In4_3 Ti4_2 3.061060 1_555
In4_3 In5_3 3.109894 1_555
In4_4 Ti3_6 2.937139 1_555
In4_4 In4_5 2.988649 1_555
In4_4 In4_5 2.988649 1_554
In4_4 Ti1_4 2.999578 1_555
In4_4 Ti1_5 2.999578 1_554
In4_4 Ti4_4 3.061060 1_555
In4_4 Ti4_5 3.061060 1_554
In4_4 In5_4 3.109894 1_555
In4_5 Ti3_7 2.937139 1_555
In4_5 Ti1_5 2.999578 1_555
In4_5 Ti1_4 2.999578 1_555
In4_5 Ti4_4 3.061060 1_555
In4_5 Ti4_5 3.061060 1_555
In4_5 In5_5 3.109894 1_555
In4_6 Ti3_4 2.937139 1_565
In4_6 In4_7 2.988649 1_555
In4_6 In4_7 2.988649 1_554
In4_6 Ti1_6 2.999578 1_555
In4_6 Ti1_7 2.999578 1_554
In4_6 Ti4_6 3.061060 1_555
In4_6 Ti4_7 3.061060 1_554
In4_6 In5_6 3.109894 1_555
In4_7 Ti3_5 2.937139 1_565
In4_7 Ti1_6 2.999578 1_555
In4_7 Ti1_7 2.999578 1_555
In4_7 Ti4_7 3.061060 1_555
In4_7 Ti4_6 3.061060 1_555
In4_7 In5_7 3.109894 1_555
In5_0 Ti5_4 2.937139 1_555
In5_0 In5_1 2.988649 1_555
In5_0 In5_1 2.988649 1_554
In5_0 Ti4_0 2.999578 1_555
In5_0 Ti4_1 2.999578 1_554
In5_0 Ti2_0 3.061060 1_555
In5_0 Ti2_1 3.061060 1_554
In5_0 In7_0 3.239427 1_555
In5_1 Ti5_5 2.937139 1_555
In5_1 Ti4_0 2.999578 1_555
In5_1 Ti4_1 2.999578 1_555
In5_1 Ti2_0 3.061060 1_555
In5_1 Ti2_1 3.061060 1_555
In5_1 In7_1 3.239427 1_555
In5_2 Ti5_6 2.937139 1_555
In5_2 In5_3 2.988649 1_555
In5_2 In5_3 2.988649 1_554
In5_2 Ti4_2 2.999578 1_555
In5_2 Ti4_3 2.999578 1_554
In5_2 Ti2_2 3.061060 1_555
In5_2 Ti2_3 3.061060 1_554
In5_2 In7_2 3.239427 1_555
In5_3 Ti5_7 2.937139 1_555
In5_3 Ti4_2 2.999578 1_555
In5_3 Ti4_3 2.999578 1_555
In5_3 Ti2_2 3.061060 1_555
In5_3 Ti2_3 3.061060 1_555
In5_3 In7_3 3.239427 1_555
In5_4 Ti5_0 2.937139 1_655
In5_4 In5_5 2.988649 1_555
In5_4 In5_5 2.988649 1_554
In5_4 Ti4_4 2.999578 1_555
In5_4 Ti4_5 2.999578 1_554
In5_4 Ti2_4 3.061060 1_555
In5_4 Ti2_5 3.061060 1_554
In5_4 In7_4 3.239427 1_555
In5_5 Ti5_1 2.937139 1_655
In5_5 Ti4_4 2.999578 1_555
In5_5 Ti4_5 2.999578 1_555
In5_5 Ti2_4 3.061060 1_555
In5_5 Ti2_5 3.061060 1_555
In5_5 In7_5 3.239427 1_555
In5_6 Ti5_2 2.937139 1_655
In5_6 In5_7 2.988649 1_555
In5_6 In5_7 2.988649 1_554
In5_6 Ti4_6 2.999578 1_555
In5_6 Ti4_7 2.999578 1_554
In5_6 Ti2_6 3.061060 1_555
In5_6 Ti2_7 3.061060 1_554
In5_6 In7_6 3.239427 1_555
In5_7 Ti5_3 2.937139 1_655
In5_7 Ti4_6 2.999578 1_555
In5_7 Ti4_7 2.999578 1_555
In5_7 Ti2_6 3.061060 1_555
In5_7 Ti2_7 3.061060 1_555
In5_7 In7_7 3.239427 1_555
In6_0 Ti3_0 2.937139 1_555
In6_0 In6_1 2.988649 1_555
In6_0 In6_1 2.988649 1_554
In6_0 Ti1_2 2.999578 1_545
In6_0 Ti1_3 2.999578 1_544
In6_0 Ti0_1 3.061060 1_554
In6_0 Ti0_0 3.061060 1_555
In6_0 In7_4 3.109894 1_455
In6_1 Ti3_1 2.937139 1_555
In6_1 Ti1_2 2.999578 1_545
In6_1 Ti1_3 2.999578 1_545
In6_1 Ti0_0 3.061060 1_555
In6_1 Ti0_1 3.061060 1_555
In6_1 In7_5 3.109894 1_455
In6_2 Ti3_2 2.937139 1_555
In6_2 In6_3 2.988649 1_555
In6_2 In6_3 2.988649 1_554
In6_2 Ti1_0 2.999578 1_555
In6_2 Ti1_1 2.999578 1_554
In6_2 Ti0_2 3.061060 1_555
In6_2 Ti0_3 3.061060 1_554
In6_2 In7_6 3.109894 1_455
In6_3 Ti3_3 2.937139 1_555
In6_3 Ti1_0 2.999578 1_555
In6_3 Ti1_1 2.999578 1_555
In6_3 Ti0_2 3.061060 1_555
In6_3 Ti0_3 3.061060 1_555
In6_3 In7_7 3.109894 1_455
In6_4 Ti3_4 2.937139 1_555
In6_4 In6_5 2.988649 1_555
In6_4 In6_5 2.988649 1_554
In6_4 Ti1_6 2.999578 1_545
In6_4 Ti1_7 2.999578 1_544
In6_4 Ti0_4 3.061060 1_555
In6_4 Ti0_5 3.061060 1_554
In6_4 In7_0 3.109894 1_555
In6_5 Ti3_5 2.937139 1_555
In6_5 Ti1_6 2.999578 1_545
In6_5 Ti1_7 2.999578 1_545
In6_5 Ti0_5 3.061060 1_555
In6_5 Ti0_4 3.061060 1_555
In6_5 In7_1 3.109894 1_555
In6_6 Ti3_6 2.937139 1_555
In6_6 In6_7 2.988649 1_555
In6_6 In6_7 2.988649 1_554
In6_6 Ti1_4 2.999578 1_555
In6_6 Ti1_5 2.999578 1_554
In6_6 Ti0_6 3.061060 1_555
In6_6 Ti0_7 3.061060 1_554
In6_6 In7_2 3.109894 1_555
In6_7 Ti3_7 2.937139 1_555
In6_7 Ti1_5 2.999578 1_555
In6_7 Ti1_4 2.999578 1_555
In6_7 Ti0_6 3.061060 1_555
In6_7 Ti0_7 3.061060 1_555
In6_7 In7_3 3.109894 1_555
In7_0 Ti5_4 2.937139 1_555
In7_0 In7_1 2.988649 1_555
In7_0 In7_1 2.988649 1_554
In7_0 Ti0_4 2.999578 1_555
In7_0 Ti0_5 2.999578 1_554
In7_0 Ti2_0 3.061060 1_555
In7_0 Ti2_1 3.061060 1_554
In7_1 Ti5_5 2.937139 1_555
In7_1 Ti0_5 2.999578 1_555
In7_1 Ti0_4 2.999578 1_555
In7_1 Ti2_0 3.061060 1_555
In7_1 Ti2_1 3.061060 1_555
In7_2 Ti5_6 2.937139 1_555
In7_2 In7_3 2.988649 1_555
In7_2 In7_3 2.988649 1_554
In7_2 Ti0_6 2.999578 1_555
In7_2 Ti0_7 2.999578 1_554
In7_2 Ti2_2 3.061060 1_555
In7_2 Ti2_3 3.061060 1_554
In7_3 Ti5_7 2.937139 1_555
In7_3 Ti0_6 2.999578 1_555
In7_3 Ti0_7 2.999578 1_555
In7_3 Ti2_2 3.061060 1_555
In7_3 Ti2_3 3.061060 1_555
In7_4 Ti5_0 2.937139 1_655
In7_4 In7_5 2.988649 1_555
In7_4 In7_5 2.988649 1_554
In7_4 Ti0_0 2.999578 1_655
In7_4 Ti0_1 2.999578 1_654
In7_4 Ti2_4 3.061060 1_555
In7_4 Ti2_5 3.061060 1_554
In7_5 Ti5_1 2.937139 1_655
In7_5 Ti0_0 2.999578 1_655
In7_5 Ti0_1 2.999578 1_655
In7_5 Ti2_4 3.061060 1_555
In7_5 Ti2_5 3.061060 1_555
In7_6 Ti5_2 2.937139 1_655
In7_6 In7_7 2.988649 1_555
In7_6 In7_7 2.988649 1_554
In7_6 Ti0_2 2.999578 1_655
In7_6 Ti0_3 2.999578 1_654
In7_6 Ti2_6 3.061060 1_555
In7_6 Ti2_7 3.061060 1_554
In7_7 Ti5_3 2.937139 1_655
In7_7 Ti0_2 2.999578 1_655
In7_7 Ti0_3 2.999578 1_655
In7_7 Ti2_6 3.061060 1_555
In7_7 Ti2_7 3.061060 1_555
