# generated using pymatgen
data_Na6Al4Si5Ge4S7O48
_symmetry_space_group_name_H-M   'P 1'
_cell_length_a   17.06811122
_cell_length_b   8.55074513
_cell_length_c   21.92771239
_cell_angle_alpha   90.12260203
_cell_angle_beta   90.06344499
_cell_angle_gamma   120.26575838
_symmetry_Int_Tables_number   1
_chemical_formula_structural   Na6Al4Si5Ge4S7O48
_chemical_formula_sum   'Na18 Al12 Si15 Ge12 S21 O144'
_cell_volume   2764.02353303
_cell_formula_units_Z   3
loop_
 _symmetry_equiv_pos_site_id
 _symmetry_equiv_pos_as_xyz
  1  'x, y, z'
loop_
 _atom_site_type_symbol
 _atom_site_label
 _atom_site_symmetry_multiplicity
 _atom_site_fract_x
 _atom_site_fract_y
 _atom_site_fract_z
 _atom_site_occupancy
  Na  Na0  1  0.00033609  0.63317219  0.25258040  1
  Na  Na1  1  0.49850083  0.63367606  0.25033910  1
  Na  Na2  1  0.99865590  0.36565275  0.74967366  1
  Na  Na3  1  0.50142401  0.36326591  0.75154015  1
  Na  Na4  1  0.66439463  0.30075740  0.91660352  1
  Na  Na5  1  0.16586279  0.02705361  0.42285184  1
  Na  Na6  1  0.99877654  0.99713082  0.50294562  1
  Na  Na7  1  0.50243793  0.99697648  0.50161200  1
  Na  Na8  1  0.00181607  0.00621986  0.99853580  1
  Na  Na9  1  0.49998526  0.00269788  0.00019957  1
  Na  Na10  1  0.33038176  0.32678721  0.83581760  1
  Na  Na11  1  0.83197028  0.33181225  0.82701741  1
  Na  Na12  1  0.33812677  0.34095886  0.33041123  1
  Na  Na13  1  0.82785711  0.33090065  0.33755520  1
  Na  Na14  1  0.17639202  0.66574608  0.16592449  1
  Na  Na15  1  0.66939106  0.65978226  0.16439085  1
  Na  Na16  1  0.17040773  0.68031519  0.66583222  1
  Na  Na17  1  0.67521205  0.67917345  0.66959528  1
  Al  Al0  1  0.99630408  0.98868647  0.35617373  1
  Al  Al1  1  0.50212852  0.01488850  0.85299224  1
  Al  Al2  1  0.32418770  0.33380401  0.67962201  1
  Al  Al3  1  0.82528896  0.31068146  0.69507260  1
  Al  Al4  1  0.33421187  0.35149121  0.18913632  1
  Al  Al5  1  0.82108808  0.31286391  0.17774486  1
  Al  Al6  1  0.82780265  0.31490925  0.98573585  1
  Al  Al7  1  0.33166193  0.34392695  0.49031832  1
  Al  Al8  1  0.17048430  0.66536428  0.31656266  1
  Al  Al9  1  0.66385791  0.64612761  0.31488805  1
  Al  Al10  1  0.16685585  0.68625693  0.81290005  1
  Al  Al11  1  0.66683284  0.65722374  0.80996799  1
  Si  Si0  1  0.35455092  0.71998811  0.25088735  1
  Si  Si1  1  0.49897443  0.29365737  0.24902778  1
  Si  Si2  1  0.64328159  0.28301133  0.75022660  1
  Si  Si3  1  0.00046675  0.70486575  0.74873463  1
  Si  Si4  1  0.85583968  0.99025667  0.75105257  1
  Si  Si5  1  0.18671194  0.04990807  0.58416441  1
  Si  Si6  1  0.69480623  0.04743174  0.58276592  1
  Si  Si7  1  0.33365712  0.62647985  0.58359609  1
  Si  Si8  1  0.83012247  0.04230147  0.08198565  1
  Si  Si9  1  0.19503225  0.34242057  0.08299418  1
  Si  Si10  1  0.68650137  0.32688020  0.08334418  1
  Si  Si11  1  0.52107898  0.38357889  0.91616162  1
  Si  Si12  1  0.16287660  0.95039501  0.91641374  1
  Si  Si13  1  0.66417506  0.37646755  0.41654750  1
  Si  Si14  1  0.02187052  0.65806573  0.41583379  1
  Ge  Ge0  1  0.49942357  0.01628807  0.34982871  1
  Ge  Ge1  1  0.99942821  0.98194838  0.84903719  1
  Ge  Ge2  1  0.00069365  0.98227831  0.64987712  1
  Ge  Ge3  1  0.50905172  0.99937675  0.64245569  1
  Ge  Ge4  1  0.00134709  0.01611344  0.13887620  1
  Ge  Ge5  1  0.50019291  0.01792494  0.14881950  1
  Ge  Ge6  1  0.32657012  0.31615344  0.97683207  1
  Ge  Ge7  1  0.82697536  0.33983647  0.47880611  1
  Ge  Ge8  1  0.16654035  0.66430946  0.01625833  1
  Ge  Ge9  1  0.66770908  0.65259257  0.02385349  1
  Ge  Ge10  1  0.16547309  0.68090957  0.52722088  1
  Ge  Ge11  1  0.66471465  0.66289509  0.51962548  1
  S  S0  1  0.14358416  0.00315475  0.25016089  1
  S  S1  1  0.64938970  0.00517444  0.25124284  1
  S  S2  1  0.85569841  0.71352499  0.24960815  1
  S  S3  1  0.99869211  0.28435003  0.25146683  1
  S  S4  1  0.14941997  0.29378936  0.75135044  1
  S  S5  1  0.49755725  0.71136956  0.75143230  1
  S  S6  1  0.35427644  0.99683245  0.74964454  1
  S  S7  1  0.47651307  0.33358860  0.58361091  1
  S  S8  1  0.97505402  0.33018074  0.58297284  1
  S  S9  1  0.83266337  0.62008907  0.58392214  1
  S  S10  1  0.47588018  0.62182406  0.08305048  1
  S  S11  1  0.97701643  0.61909939  0.08465203  1
  S  S12  1  0.33225053  0.04579580  0.08412092  1
  S  S13  1  0.31121256  0.66945500  0.91387447  1
  S  S14  1  0.81287717  0.66728497  0.91722877  1
  S  S15  1  0.01978602  0.37636850  0.91607411  1
  S  S16  1  0.66662370  0.94968736  0.91568537  1
  S  S17  1  0.31297154  0.95766903  0.41739531  1
  S  S18  1  0.81044668  0.95232931  0.41411381  1
  S  S19  1  0.16665274  0.37934540  0.41589306  1
  S  S20  1  0.52000343  0.66418151  0.41633018  1
  O  O0  1  0.10187496  0.03247919  0.30547741  1
  O  O1  1  0.60975271  0.03908051  0.30641881  1
  O  O2  1  0.42568231  0.80582066  0.31046940  1
  O  O3  1  0.91573158  0.79835309  0.30387257  1
  O  O4  1  0.47855062  0.16917873  0.30956804  1
  O  O5  1  0.98470114  0.16988467  0.30509584  1
  O  O6  1  0.10984967  0.18040894  0.80661459  1
  O  O7  1  0.59841150  0.16137594  0.81089547  1
  O  O8  1  0.48004509  0.79148764  0.80544650  1
  O  O9  1  0.97969422  0.78773486  0.80971628  1
  O  O10  1  0.41199085  0.03053502  0.80483185  1
  O  O11  1  0.92746849  0.04692018  0.81087527  1
  O  O12  1  0.39201685  0.96527177  0.69428132  1
  O  O13  1  0.90472025  0.96432167  0.68899123  1
  O  O14  1  0.09046210  0.22019399  0.69631432  1
  O  O15  1  0.57085965  0.19171150  0.69087972  1
  O  O16  1  0.02716764  0.83934131  0.69033198  1
  O  O17  1  0.51312712  0.81875794  0.69494468  1
  O  O18  1  0.40386287  0.84208051  0.18924448  1
  O  O19  1  0.89729532  0.82393460  0.19403045  1
  O  O20  1  0.01598673  0.20689741  0.19515046  1
  O  O21  1  0.52498120  0.21290629  0.19039527  1
  O  O22  1  0.08178602  0.95885598  0.19569745  1
  O  O23  1  0.59031897  0.96056486  0.19634365  1
  O  O24  1  0.43782351  0.36387411  0.63992431  1
  O  O25  1  0.93888690  0.36686680  0.63796042  1
  O  O26  1  0.25038640  0.13294300  0.64285334  1
  O  O27  1  0.75604309  0.13582139  0.64118946  1
  O  O28  1  0.31677811  0.50655329  0.64359021  1
  O  O29  1  0.81985080  0.51201275  0.63723142  1
  O  O30  1  0.43839163  0.51136192  0.13908948  1
  O  O31  1  0.93755562  0.51243089  0.14169078  1
  O  O32  1  0.31897082  0.12822002  0.13848791  1
  O  O33  1  0.81743388  0.12622713  0.14438135  1
  O  O34  1  0.25298700  0.36941242  0.14314642  1
  O  O35  1  0.74897722  0.37046208  0.14319038  1
  O  O36  1  0.23669532  0.30322522  0.02211707  1
  O  O37  1  0.73002588  0.30017614  0.02101992  1
  O  O38  1  0.41974518  0.54011388  0.02816129  1
  O  O39  1  0.92189678  0.54008365  0.02981379  1
  O  O40  1  0.35051281  0.15484740  0.02777025  1
  O  O41  1  0.85493094  0.16955476  0.02338484  1
  O  O42  1  0.22948645  0.15956197  0.52021117  1
  O  O43  1  0.73575924  0.16831002  0.52059828  1
  O  O44  1  0.35572527  0.54707997  0.52318919  1
  O  O45  1  0.85154533  0.54943665  0.52624372  1
  O  O46  1  0.42138018  0.30773246  0.52811904  1
  O  O47  1  0.92033056  0.30107704  0.52659992  1
  O  O48  1  0.27436213  0.70589209  0.97154205  1
  O  O49  1  0.77489488  0.70209833  0.97344543  1
  O  O50  1  0.07804581  0.45631684  0.97276999  1
  O  O51  1  0.59009260  0.47206766  0.97545527  1
  O  O52  1  0.14629841  0.82635596  0.97904345  1
  O  O53  1  0.65233869  0.84453906  0.97247843  1
  O  O54  1  0.27361863  0.84651136  0.47205854  1
  O  O55  1  0.77432994  0.84246709  0.47037793  1
  O  O56  1  0.14999050  0.45293389  0.47050381  1
  O  O57  1  0.64660728  0.46762189  0.47803659  1
  O  O58  1  0.09207874  0.70829826  0.47369193  1
  O  O59  1  0.57792597  0.69897309  0.47165574  1
  O  O60  1  0.06796625  0.63339685  0.35371388  1
  O  O61  1  0.56271629  0.64059576  0.36038392  1
  O  O62  1  0.25363554  0.87660136  0.36263432  1
  O  O63  1  0.75275080  0.86821876  0.35986569  1
  O  O64  1  0.18263965  0.49162565  0.36078350  1
  O  O65  1  0.68465730  0.50334483  0.35847191  1
  O  O66  1  0.06337650  0.48612968  0.86123953  1
  O  O67  1  0.56646888  0.50449443  0.85610392  1
  O  O68  1  0.18419553  0.86367864  0.85947683  1
  O  O69  1  0.68247955  0.87062530  0.86194757  1
  O  O70  1  0.25210417  0.63524357  0.86091006  1
  O  O71  1  0.75454109  0.63059657  0.86375689  1
  O  O72  1  0.01363190  0.84220683  0.40727006  1
  O  O73  1  0.51100439  0.82584301  0.41153198  1
  O  O74  1  0.40233204  0.97083200  0.41126758  1
  O  O75  1  0.90257049  0.97379167  0.40626289  1
  O  O76  1  0.08455073  0.19345258  0.40648225  1
  O  O77  1  0.57466065  0.16916921  0.40892421  1
  O  O78  1  0.01087867  0.19671154  0.91237708  1
  O  O79  1  0.51010818  0.18099073  0.91035968  1
  O  O80  1  0.07459288  0.98075538  0.90914778  1
  O  O81  1  0.58413794  0.96965273  0.91060747  1
  O  O82  1  0.40241286  0.83108537  0.90679661  1
  O  O83  1  0.90304979  0.83375306  0.91222230  1
  O  O84  1  0.48481242  0.17108643  0.58707298  1
  O  O85  1  0.98550881  0.16929272  0.58789727  1
  O  O86  1  0.08523932  0.03251551  0.59030110  1
  O  O87  1  0.59308238  0.02299756  0.58800910  1
  O  O88  1  0.42092640  0.83328436  0.59399548  1
  O  O89  1  0.91360385  0.80645087  0.58682350  1
  O  O90  1  0.48495949  0.80252910  0.08947660  1
  O  O91  1  0.98745133  0.80334249  0.09115499  1
  O  O92  1  0.41310390  0.02211451  0.08787027  1
  O  O93  1  0.91827373  0.01052629  0.09046928  1
  O  O94  1  0.09309744  0.15838717  0.09053295  1
  O  O95  1  0.58525223  0.13880898  0.09055749  1
  O  O96  1  0.34766631  0.16490641  0.74453355  1
  O  O97  1  0.85221305  0.17337781  0.74419130  1
  O  O98  1  0.23922130  0.30909547  0.74438737  1
  O  O99  1  0.74115277  0.30841882  0.74244354  1
  O  O100  1  0.41782354  0.52291997  0.74394879  1
  O  O101  1  0.91365298  0.50934263  0.73782874  1
  O  O102  1  0.34740983  0.52397494  0.24436790  1
  O  O103  1  0.84898903  0.53304513  0.24448926  1
  O  O104  1  0.40969784  0.31157610  0.23884565  1
  O  O105  1  0.91893274  0.30927493  0.24493984  1
  O  O106  1  0.23338350  0.16229719  0.24312148  1
  O  O107  1  0.73964039  0.17063339  0.24427219  1
  O  O108  1  0.31992908  0.50743661  0.92147207  1
  O  O109  1  0.82309862  0.50465728  0.92429308  1
  O  O110  1  0.42207636  0.36725014  0.92807203  1
  O  O111  1  0.93134310  0.36759470  0.92358375  1
  O  O112  1  0.25285335  0.15091650  0.92306850  1
  O  O113  1  0.74778002  0.13957736  0.92148128  1
  O  O114  1  0.32302360  0.14078769  0.42283995  1
  O  O115  1  0.82146884  0.13344080  0.42047122  1
  O  O116  1  0.24726282  0.35391494  0.42016102  1
  O  O117  1  0.75391699  0.35619821  0.42304540  1
  O  O118  1  0.43066240  0.49523330  0.42274456  1
  O  O119  1  0.92260850  0.47898458  0.42700035  1
  O  O120  1  0.17838875  0.51784579  0.07189799  1
  O  O121  1  0.67468303  0.50492167  0.07852126  1
  O  O122  1  0.06851696  0.63846545  0.07991540  1
  O  O123  1  0.56732714  0.64242379  0.07711979  1
  O  O124  1  0.24948195  0.86228613  0.07774257  1
  O  O125  1  0.73927663  0.84290607  0.07262225  1
  O  O126  1  0.17443938  0.84739985  0.57913586  1
  O  O127  1  0.67937586  0.83850644  0.57141402  1
  O  O128  1  0.24059602  0.63793143  0.57210559  1
  O  O129  1  0.74979553  0.63673913  0.57671679  1
  O  O130  1  0.06814157  0.49419657  0.57606313  1
  O  O131  1  0.56841235  0.50015152  0.57867665  1
  O  O132  1  0.15130322  0.83832878  0.25651346  1
  O  O133  1  0.65885959  0.84348131  0.25987802  1
  O  O134  1  0.25525991  0.69820956  0.26094918  1
  O  O135  1  0.76681362  0.69847856  0.25688319  1
  O  O136  1  0.08052832  0.46770048  0.25652287  1
  O  O137  1  0.58615785  0.49852811  0.25770444  1
  O  O138  1  0.15858534  0.47411952  0.76020861  1
  O  O139  1  0.64802131  0.47797530  0.75594085  1
  O  O140  1  0.08792809  0.67684752  0.75754279  1
  O  O141  1  0.57946448  0.69538358  0.75717337  1
  O  O142  1  0.26414821  0.83321517  0.75772071  1
  O  O143  1  0.75693953  0.81901578  0.76155544  1
loop_
_geom_bond_atom_site_label_1
_geom_bond_atom_site_label_2
_geom_bond_distance
_geom_bond_site_symmetry_2
Na0 O132 2.273039 1_555
Na0 O103 2.281755 1_455
Na0 O105 2.397410 1_455
Na0 O136 2.415632 1_555
Na0 O60 2.498479 1_555
Na0 O31 2.644786 1_455
Na0 O22 2.712920 1_555
Na0 O3 2.719913 1_455
Na1 O102 2.260032 1_555
Na1 O137 2.311507 1_555
Na1 O104 2.394704 1_555
Na1 O133 2.408522 1_555
Na1 O61 2.637362 1_555
Na1 O30 2.645611 1_555
Na1 O23 2.696916 1_555
Na1 O2 2.699885 1_555
Na2 O97 2.195703 1_555
Na2 O140 2.311388 1_655
Na2 O101 2.340813 1_555
Na2 O138 2.410489 1_655
Na2 O25 2.654556 1_555
Na2 O66 2.665038 1_655
Na2 O14 2.708096 1_655
Na2 O11 2.717785 1_555
Na3 O139 2.181106 1_555
Na3 O96 2.301895 1_555
Na3 O100 2.427231 1_555
Na3 O141 2.457509 1_555
Na3 O67 2.564968 1_555
Na3 O15 2.659561 1_555
Na3 O24 2.677395 1_555
Na3 O10 2.725914 1_555
Na4 O79 2.298333 1_555
Na4 O109 2.375454 1_555
Na4 O113 2.431878 1_555
Na4 O81 2.449083 1_545
Na4 O37 2.548957 1_556
Na4 O7 2.586695 1_555
Na4 O51 2.699542 1_555
Na4 O71 2.703390 1_555
Na5 O72 2.285184 1_545
Na5 O114 2.347685 1_555
Na5 O42 2.401028 1_555
Na5 O116 2.414935 1_555
Na5 O76 2.463942 1_555
Na5 O58 2.610311 1_545
Na5 O62 2.753686 1_545
Na5 O0 2.804373 1_555
Na6 O86 2.340882 1_665
Na6 O89 2.405008 1_555
Na6 O85 2.452273 1_565
Na6 O72 2.558985 1_655
Na6 O75 2.625044 1_555
Na6 O76 2.642008 1_665
Na7 O87 2.382628 1_565
Na7 O77 2.450922 1_565
Na7 O88 2.460454 1_555
Na7 O84 2.501890 1_565
Na7 O73 2.503643 1_555
Na7 O74 2.549406 1_555
Na8 O80 2.389242 1_545
Na8 O78 2.450760 1_555
Na8 O83 2.464497 1_445
Na8 O94 2.475510 1_556
Na8 O93 2.481404 1_456
Na8 O91 2.604148 1_446
Na9 O95 2.382152 1_555
Na9 O79 2.446014 1_554
Na9 O92 2.485030 1_555
Na9 O90 2.529951 1_545
Na9 O81 2.532847 1_544
Na9 O82 2.576380 1_544
Na10 O112 2.384302 1_555
Na10 O110 2.470931 1_555
Na10 O108 2.492322 1_555
Na10 O98 2.493551 1_555
Na10 O96 2.531944 1_555
Na10 O100 2.568308 1_555
Na11 O99 2.358278 1_555
Na11 O97 2.390793 1_555
Na11 O101 2.440953 1_555
Na11 O113 2.587971 1_555
Na11 O111 2.630640 1_555
Na11 O109 2.640061 1_555
Na12 O102 2.407740 1_555
Na12 O104 2.428867 1_555
Na12 O118 2.493038 1_555
Na12 O106 2.533858 1_555
Na12 O116 2.543533 1_555
Na12 O114 2.583607 1_555
Na13 O117 2.330731 1_555
Na13 O119 2.446161 1_555
Na13 O115 2.448751 1_555
Na13 O107 2.496065 1_555
Na13 O103 2.582750 1_555
Na13 O105 2.621086 1_555
Na14 O134 2.417738 1_555
Na14 O120 2.425680 1_555
Na14 O124 2.454669 1_555
Na14 O122 2.561040 1_555
Na14 O136 2.592316 1_555
Na14 O132 2.633106 1_555
Na15 O121 2.327502 1_555
Na15 O125 2.461703 1_555
Na15 O137 2.479943 1_555
Na15 O135 2.534339 1_555
Na15 O123 2.539599 1_555
Na15 O133 2.674891 1_555
Na16 O126 2.360663 1_555
Na16 O140 2.447709 1_555
Na16 O142 2.490393 1_555
Na16 O128 2.496058 1_555
Na16 O130 2.575463 1_555
Na16 O138 2.662687 1_555
Na17 O143 2.396647 1_555
Na17 O139 2.443565 1_555
Na17 O129 2.523522 1_555
Na17 O127 2.532085 1_555
Na17 O141 2.571372 1_555
Na17 O131 2.608987 1_555
Al0 O72 1.813914 1_655
Al0 O75 1.892407 1_555
Al0 O3 1.894101 1_555
Al0 O76 1.970008 1_665
Al0 O0 1.987181 1_665
Al0 O5 2.002619 1_565
Al1 O7 1.747868 1_555
Al1 O79 1.848021 1_555
Al1 O10 1.924720 1_555
Al1 O82 2.018597 1_545
Al1 O8 2.035404 1_545
Al1 O81 2.061297 1_545
Al2 O26 1.731361 1_555
Al2 O28 1.736449 1_555
Al2 O98 1.965095 1_555
Al2 O24 2.021804 1_555
Al2 O100 2.130467 1_555
Al2 O96 2.205262 1_555
Al3 O99 1.765491 1_555
Al3 O27 1.799026 1_555
Al3 O97 1.815985 1_555
Al3 O101 1.856547 1_555
Al3 O25 2.151159 1_555
Al3 O29 2.179700 1_555
Al4 O34 1.781616 1_555
Al4 O102 1.830188 1_555
Al4 O104 1.845628 1_555
Al4 O30 1.948165 1_555
Al4 O106 2.046070 1_555
Al4 O32 2.106080 1_555
Al5 O35 1.715256 1_555
Al5 O33 1.726418 1_555
Al5 O107 1.961515 1_555
Al5 O31 2.019524 1_555
Al5 O103 2.235233 1_555
Al5 O105 2.237706 1_555
Al6 O41 1.739071 1_556
Al6 O37 1.786320 1_556
Al6 O113 2.005219 1_555
Al6 O39 2.022920 1_556
Al6 O111 2.094968 1_555
Al6 O109 2.143491 1_555
Al7 O44 1.726432 1_555
Al7 O42 1.786577 1_555
Al7 O46 1.898366 1_555
Al7 O118 2.129488 1_555
Al7 O116 2.137461 1_555
Al7 O114 2.226790 1_555
Al8 O134 1.804279 1_555
Al8 O60 1.822662 1_555
Al8 O64 1.872615 1_555
Al8 O62 1.924132 1_555
Al8 O136 2.077850 1_555
Al8 O132 2.126926 1_555
Al9 O65 1.723694 1_555
Al9 O137 1.796183 1_555
Al9 O61 1.974661 1_555
Al9 O63 1.991314 1_555
Al9 O135 2.029917 1_555
Al9 O133 2.112732 1_555
Al10 O68 1.724051 1_555
Al10 O140 1.783658 1_555
Al10 O142 1.925651 1_555
Al10 O70 2.013458 1_555
Al10 O66 2.033865 1_555
Al10 O138 2.092317 1_555
Al11 O143 1.808678 1_555
Al11 O139 1.830601 1_555
Al11 O67 1.848735 1_555
Al11 O71 2.006203 1_555
Al11 O141 2.039276 1_555
Al11 O69 2.049228 1_555
Ge0 O4 1.757595 1_555
Ge0 O2 1.809819 1_545
Ge0 O77 1.825928 1_555
Ge0 O74 2.017467 1_545
Ge0 O1 2.031004 1_555
Ge0 O73 2.203373 1_545
Ge1 O9 1.744731 1_555
Ge1 O11 1.790233 1_565
Ge1 O80 1.841968 1_655
Ge1 O6 2.020847 1_665
Ge1 O83 2.035366 1_555
Ge1 O78 2.228509 1_665
Ge2 O16 1.745098 1_555
Ge2 O13 1.786801 1_455
Ge2 O86 1.831719 1_565
Ge2 O89 2.028639 1_455
Ge2 O14 2.090145 1_565
Ge2 O85 2.213079 1_465
Ge3 O15 1.785013 1_565
Ge3 O87 1.798900 1_565
Ge3 O88 1.801460 1_555
Ge3 O17 1.957173 1_555
Ge3 O84 2.102510 1_565
Ge3 O12 2.187690 1_555
Ge4 O93 1.751453 1_455
Ge4 O94 1.773378 1_555
Ge4 O20 1.956067 1_555
Ge4 O91 2.004398 1_445
Ge4 O22 2.086500 1_545
Ge4 O19 2.094879 1_445
Ge5 O21 1.752541 1_555
Ge5 O18 1.807426 1_545
Ge5 O95 1.818066 1_555
Ge5 O92 2.011580 1_555
Ge5 O23 2.109979 1_545
Ge5 O90 2.158552 1_545
Ge6 O112 1.779552 1_555
Ge6 O36 1.784462 1_556
Ge6 O110 1.810873 1_555
Ge6 O40 1.972508 1_556
Ge6 O108 2.087284 1_555
Ge6 O38 2.092880 1_556
Ge7 O43 1.766914 1_555
Ge7 O117 1.800756 1_555
Ge7 O119 1.850040 1_555
Ge7 O45 1.924427 1_555
Ge7 O47 2.068137 1_555
Ge7 O115 2.140696 1_555
Ge8 O52 1.786615 1_554
Ge8 O120 1.832799 1_555
Ge8 O50 1.906699 1_554
Ge8 O48 1.954611 1_554
Ge8 O124 2.063437 1_555
Ge8 O122 2.104809 1_555
Ge9 O51 1.786780 1_554
Ge9 O121 1.789753 1_555
Ge9 O125 1.808255 1_555
Ge9 O49 1.993417 1_554
Ge9 O123 2.040098 1_555
Ge9 O53 2.114952 1_554
Ge10 O126 1.766088 1_555
Ge10 O128 1.794863 1_555
Ge10 O58 1.815349 1_555
Ge10 O130 1.947685 1_555
Ge10 O54 2.062253 1_555
Ge10 O56 2.210475 1_555
Ge11 O57 1.785454 1_555
Ge11 O127 1.794531 1_555
Ge11 O59 1.963283 1_555
Ge11 O131 2.005400 1_555
Ge11 O129 2.012607 1_555
Ge11 O55 2.034690 1_555
O0 S0 1.490471 1_555
O1 S1 1.484449 1_555
O2 Si0 1.677428 1_555
O3 S2 1.495428 1_555
O4 Si1 1.627812 1_555
O5 S3 1.472357 1_555
O6 S4 1.487065 1_555
O7 Si2 1.625823 1_555
O8 S5 1.471463 1_555
O9 Si3 1.632826 1_655
O10 S6 1.492498 1_545
O11 Si4 1.687248 1_545
O12 S6 1.461882 1_555
O13 Si4 1.668804 1_555
O14 S4 1.490227 1_555
O15 Si2 1.688269 1_555
O16 Si3 1.627659 1_555
O17 S5 1.485820 1_555
O18 Si0 1.657763 1_555
O19 S2 1.487198 1_555
O20 S3 1.498355 1_455
O21 Si1 1.622709 1_555
O22 S0 1.508251 1_565
O23 S1 1.489586 1_565
O24 S7 1.483490 1_555
O25 S8 1.458949 1_555
O26 Si5 1.598925 1_555
O27 Si6 1.581602 1_555
O28 Si7 1.604373 1_555
O29 S9 1.438667 1_555
O30 S10 1.486278 1_555
O31 S11 1.495786 1_555
O32 S12 1.458540 1_555
O33 Si8 1.608405 1_555
O34 Si9 1.592853 1_555
O35 Si10 1.610065 1_555
O36 Si9 1.624924 1_555
O37 Si10 1.625911 1_555
O38 S10 1.474396 1_555
O39 S11 1.463150 1_555
O40 S12 1.485352 1_555
O41 Si8 1.599127 1_555
O42 Si5 1.642132 1_555
O43 Si6 1.641670 1_555
O44 Si7 1.616285 1_555
O45 S9 1.504107 1_555
O46 S7 1.483782 1_555
O47 S8 1.491366 1_555
O48 S13 1.513040 1_555
O49 S14 1.491031 1_555
O50 S15 1.519901 1_555
O51 Si11 1.656641 1_555
O52 Si12 1.672002 1_555
O53 S16 1.484314 1_555
O54 S17 1.467795 1_555
O55 S18 1.485771 1_555
O56 S19 1.445238 1_555
O57 Si13 1.657520 1_555
O58 Si14 1.644846 1_555
O59 S20 1.495654 1_555
O60 Si14 1.639322 1_555
O61 S20 1.492065 1_555
O62 S17 1.494705 1_555
O63 S18 1.477100 1_555
O64 S19 1.482607 1_555
O65 Si13 1.595465 1_555
O66 S15 1.477528 1_555
O67 Si11 1.613735 1_555
O68 Si12 1.584289 1_555
O69 S16 1.449308 1_555
O70 S13 1.466516 1_555
O71 S14 1.464778 1_555
O72 Si14 1.660908 1_555
O73 S20 1.469727 1_555
O74 S17 1.477998 1_555
O75 S18 1.498516 1_555
O76 S19 1.511795 1_555
O77 Si13 1.665068 1_555
O78 S15 1.467519 1_555
O79 Si11 1.650476 1_555
O80 Si12 1.660512 1_555
O81 S16 1.505215 1_555
O82 S13 1.479895 1_555
O83 S14 1.483123 1_555
O84 S7 1.468134 1_555
O85 S8 1.477882 1_555
O86 Si5 1.667580 1_555
O87 Si6 1.645072 1_555
O88 Si7 1.655323 1_555
O89 S9 1.494048 1_555
O90 S10 1.479543 1_555
O91 S11 1.500044 1_555
O92 S12 1.494559 1_555
O93 Si8 1.668486 1_555
O94 Si9 1.665107 1_555
O95 Si10 1.672694 1_555
O96 S6 1.501605 1_545
O97 Si4 1.605290 1_545
O98 S4 1.479230 1_555
O99 Si2 1.581701 1_555
O100 S5 1.504456 1_555
O101 Si3 1.596324 1_655
O102 Si0 1.624031 1_555
O103 S2 1.492776 1_555
O104 Si1 1.621721 1_555
O105 S3 1.487052 1_555
O106 S0 1.457311 1_555
O107 S1 1.484072 1_555
O108 S13 1.475756 1_555
O109 S14 1.494516 1_555
O110 Si11 1.645112 1_555
O111 S15 1.482545 1_655
O112 Si12 1.632108 1_545
O113 S16 1.517515 1_545
O114 S17 1.491234 1_545
O115 S18 1.469165 1_545
O116 S19 1.500140 1_555
O117 Si13 1.632100 1_555
O118 S20 1.487545 1_555
O119 Si14 1.631725 1_655
O120 Si9 1.679551 1_555
O121 Si10 1.636989 1_555
O122 S11 1.488955 1_455
O123 S10 1.485777 1_555
O124 S12 1.497200 1_565
O125 Si8 1.638984 1_565
O126 Si5 1.639502 1_565
O127 Si6 1.687148 1_565
O128 Si7 1.658920 1_555
O129 S9 1.499446 1_555
O130 S8 1.506493 1_455
O131 S7 1.499876 1_555
O132 S0 1.486978 1_565
O133 S1 1.483196 1_565
O134 Si0 1.624278 1_555
O135 S2 1.465418 1_555
O136 S3 1.487527 1_455
O137 Si1 1.639989 1_555
O138 S4 1.481665 1_555
O139 Si2 1.632349 1_555
O140 Si3 1.638054 1_555
O141 S5 1.476907 1_555
O142 S6 1.478965 1_555
O143 Si4 1.599153 1_555
