# generated using pymatgen
data_Sm2MgV2O8
_symmetry_space_group_name_H-M   'P 1'
_cell_length_a   5.19505824
_cell_length_b   5.40036943
_cell_length_c   6.98284849
_cell_angle_alpha   110.68588703
_cell_angle_beta   109.40413500
_cell_angle_gamma   95.81641761
_symmetry_Int_Tables_number   1
_chemical_formula_structural   Sm2MgV2O8
_chemical_formula_sum   'Sm2 Mg1 V2 O8'
_cell_volume   167.47172771
_cell_formula_units_Z   1
loop_
 _symmetry_equiv_pos_site_id
 _symmetry_equiv_pos_as_xyz
  1  'x, y, z'
loop_
 _atom_site_type_symbol
 _atom_site_label
 _atom_site_symmetry_multiplicity
 _atom_site_fract_x
 _atom_site_fract_y
 _atom_site_fract_z
 _atom_site_occupancy
  Sm  Sm0  1  0.62605932  0.87779186  0.25466639  1
  Sm  Sm1  1  0.39379051  0.14218148  0.78568933  1
  Mg  Mg0  1  0.31245619  0.56003035  0.62249618  1
  V  V0  1  0.09133736  0.34131026  0.18456202  1
  V  V1  1  0.91267871  0.66153229  0.82278760  1
  O  O0  1  0.35619193  0.67177369  0.38845724  1
  O  O1  1  0.03255174  0.21417921  0.38769877  1
  O  O2  1  0.22973507  0.52477088  0.90283887  1
  O  O3  1  0.67467749  0.87797960  0.90353439  1
  O  O4  1  0.62702700  0.34408692  0.62710954  1
  O  O5  1  0.00185996  0.78072270  0.62737950  1
  O  O6  1  0.80041068  0.48987820  0.08045561  1
  O  O7  1  0.27872404  0.08876256  0.07899157  1
loop_
_geom_bond_atom_site_label_1
_geom_bond_atom_site_label_2
_geom_bond_distance
_geom_bond_site_symmetry_2
Mg0 O1 1.998238 1_555
Mg0 O0 2.000565 1_555
Mg0 O4 2.099877 1_555
Mg0 O5 2.103049 1_555
Mg0 O3 2.202553 1_555
Mg0 O2 2.204277 1_555
O0 V0 1.873689 1_555
O0 Sm0 2.316172 1_555
O1 V0 1.873514 1_555
O1 Sm0 2.312854 1_445
O2 V1 1.870139 1_455
O2 Sm1 2.300111 1_555
O2 Sm0 2.538467 1_556
O2 V0 2.746078 1_556
O3 V1 1.871770 1_555
O3 Sm1 2.301263 1_565
O3 Sm0 2.547314 1_556
O3 V0 2.721750 1_666
O4 V1 1.868225 1_555
O4 Sm1 2.315172 1_555
O4 Sm0 2.909781 1_545
O5 V1 1.863050 1_455
O5 Sm1 2.313536 1_565
O5 Sm0 2.941930 1_455
O6 V0 1.839634 1_655
O6 Sm1 2.408562 1_554
O6 Sm0 2.450525 1_555
O6 V1 2.490555 1_554
O7 V0 1.840334 1_555
O7 Sm1 2.414782 1_554
O7 Sm0 2.447881 1_545
O7 V1 2.464561 1_444
