# generated using pymatgen
data_TaInSi(SO6)2
_symmetry_space_group_name_H-M   'P 1'
_cell_length_a   8.90404745
_cell_length_b   8.94959201
_cell_length_c   23.02038752
_cell_angle_alpha   89.64832271
_cell_angle_beta   90.00000000
_cell_angle_gamma   119.83179925
_symmetry_Int_Tables_number   1
_chemical_formula_structural   TaInSi(SO6)2
_chemical_formula_sum   'Ta6 In6 Si6 S12 O72'
_cell_volume   1591.31694742
_cell_formula_units_Z   6
loop_
 _symmetry_equiv_pos_site_id
 _symmetry_equiv_pos_as_xyz
  1  'x, y, z'
loop_
 _atom_site_type_symbol
 _atom_site_label
 _atom_site_symmetry_multiplicity
 _atom_site_fract_x
 _atom_site_fract_y
 _atom_site_fract_z
 _atom_site_occupancy
  Ta  Ta0  1  0.00686967  0.01712712  0.64286106  1
  Ta  Ta1  1  0.01025745  0.01712712  0.14286106  1
  Ta  Ta2  1  0.65436949  0.32656115  0.97571863  1
  Ta  Ta3  1  0.67219265  0.32656115  0.47571863  1
  Ta  Ta4  1  0.33600695  0.66939805  0.30979148  1
  Ta  Ta5  1  0.33339009  0.66939805  0.80979148  1
  In  In0  1  0.98879951  0.00707175  0.35578935  1
  In  In1  1  0.01827224  0.00707175  0.85578935  1
  In  In2  1  0.66955861  0.33531150  0.68789856  1
  In  In3  1  0.66575389  0.33531150  0.18789856  1
  In  In4  1  0.32962057  0.66270721  0.02182104  1
  In  In5  1  0.33308564  0.66270721  0.52182104  1
  Si  Si0  1  0.99971207  0.29374687  0.24967964  1
  Si  Si1  1  0.29403480  0.29374687  0.74967964  1
  Si  Si2  1  0.95504560  0.33947861  0.58434747  1
  Si  Si3  1  0.38443401  0.33947861  0.08434747  1
  Si  Si4  1  0.33126587  0.94685081  0.91842401  1
  Si  Si5  1  0.61558394  0.94685081  0.41842401  1
  S  S0  1  0.27922029  0.99111752  0.25110388  1
  S  S1  1  0.71072487  0.71411854  0.25040799  1
  S  S2  1  0.00339367  0.71411854  0.75040799  1
  S  S3  1  0.71189724  0.99111752  0.75110388  1
  S  S4  1  0.37497595  0.04803432  0.58279281  1
  S  S5  1  0.67634021  0.62755839  0.58353716  1
  S  S6  1  0.95121918  0.62755839  0.08353716  1
  S  S7  1  0.67305938  0.04803432  0.08279281  1
  S  S8  1  0.62217236  0.66377648  0.91506509  1
  S  S9  1  0.04034278  0.38100750  0.91617251  1
  S  S10  1  0.34066372  0.38100750  0.41617251  1
  S  S11  1  0.04160313  0.66377648  0.41506509  1
  O  O0  1  0.20205933  0.01339414  0.30351244  1
  O  O1  1  0.81537372  0.78517338  0.30251576  1
  O  O2  1  0.97537386  0.18016600  0.30514640  1
  O  O3  1  0.20479214  0.18016600  0.80514640  1
  O  O4  1  0.96979967  0.78517338  0.80251576  1
  O  O5  1  0.81133481  0.01339414  0.80351244  1
  O  O6  1  0.79525868  0.96087512  0.69865025  1
  O  O7  1  0.16065397  0.19002121  0.69198790  1
  O  O8  1  0.03398206  0.82493678  0.69822593  1
  O  O9  1  0.79095472  0.82493678  0.19822593  1
  O  O10  1  0.02936724  0.19002121  0.19198790  1
  O  O11  1  0.16561644  0.96087512  0.19865025  1
  O  O12  1  0.87036335  0.35965173  0.64193427  1
  O  O13  1  0.47694103  0.12137203  0.63496337  1
  O  O14  1  0.64226436  0.52156148  0.63557945  1
  O  O15  1  0.87929812  0.52156148  0.13557945  1
  O  O16  1  0.64443200  0.12137203  0.13496337  1
  O  O17  1  0.48928937  0.35965173  0.14193427  1
  O  O18  1  0.48351188  0.30810543  0.02668900  1
  O  O19  1  0.84136454  0.54344410  0.03118273  1
  O  O20  1  0.70918470  0.16529631  0.03071483  1
  O  O21  1  0.45611262  0.16529631  0.53071483  1
  O  O22  1  0.70208056  0.54344410  0.53118273  1
  O  O23  1  0.82459455  0.30810543  0.52668900  1
  O  O24  1  0.54947497  0.69000957  0.96803052  1
  O  O25  1  0.14783196  0.44716467  0.96770207  1
  O  O26  1  0.31697207  0.84294612  0.97591444  1
  O  O27  1  0.52597305  0.84294612  0.47591444  1
  O  O28  1  0.29933170  0.44716467  0.46770207  1
  O  O29  1  0.14053360  0.69000957  0.46803052  1
  O  O30  1  0.12358749  0.62689714  0.36384015  1
  O  O31  1  0.48891755  0.85229258  0.36057680  1
  O  O32  1  0.36691374  0.49546468  0.36402589  1
  O  O33  1  0.12854994  0.49546468  0.86402589  1
  O  O34  1  0.36337402  0.85229258  0.86057680  1
  O  O35  1  0.50330864  0.62689714  0.86384015  1
  O  O36  1  0.01821281  0.81027634  0.40348224  1
  O  O37  1  0.80655728  0.97944198  0.41261101  1
  O  O38  1  0.20489612  0.20394957  0.40627293  1
  O  O39  1  0.99905345  0.20394957  0.90627293  1
  O  O40  1  0.17288470  0.97944198  0.91261101  1
  O  O41  1  0.79206353  0.81027634  0.90348224  1
  O  O42  1  0.96061249  0.15380920  0.59414571  1
  O  O43  1  0.19811259  0.03397028  0.59074989  1
  O  O44  1  0.84031618  0.79803440  0.59307450  1
  O  O45  1  0.95771822  0.79803440  0.09307450  1
  O  O46  1  0.83585769  0.03397028  0.09074989  1
  O  O47  1  0.19319670  0.15380920  0.09414571  1
  O  O48  1  0.68097735  0.13429162  0.74206157  1
  O  O49  1  0.48259115  0.32537082  0.73762200  1
  O  O50  1  0.86333810  0.53856348  0.74346208  1
  O  O51  1  0.67522638  0.53856348  0.24346208  1
  O  O52  1  0.84278067  0.32537082  0.23762200  1
  O  O53  1  0.45331527  0.13429162  0.24206157  1
  O  O54  1  0.64057369  0.50425078  0.92350295  1
  O  O55  1  0.87314865  0.38154295  0.92530181  1
  O  O56  1  0.51596455  0.14347607  0.92836738  1
  O  O57  1  0.62751252  0.14347607  0.42836738  1
  O  O58  1  0.50839530  0.38154295  0.42530181  1
  O  O59  1  0.86367809  0.50425078  0.42350295  1
  O  O60  1  0.34414085  0.48989998  0.07244315  1
  O  O61  1  0.12741649  0.65901221  0.07600681  1
  O  O62  1  0.53011067  0.87542893  0.07418815  1
  O  O63  1  0.34531726  0.87542893  0.57418815  1
  O  O64  1  0.53159472  0.65901221  0.57600681  1
  O  O65  1  0.14575813  0.48989998  0.57244315  1
  O  O66  1  0.29068888  0.82734591  0.25811817  1
  O  O67  1  0.53514567  0.70547539  0.25936233  1
  O  O68  1  0.17926903  0.48322180  0.26262442  1
  O  O69  1  0.30395177  0.48322180  0.76262442  1
  O  O70  1  0.17032872  0.70547539  0.75936233  1
  O  O71  1  0.53665603  0.82734591  0.75811817  1
loop_
_geom_bond_atom_site_label_1
_geom_bond_atom_site_label_2
_geom_bond_distance
_geom_bond_site_symmetry_2
In0 O2 1.983755 1_555
In0 O37 2.000528 1_545
In0 O38 2.193071 1_655
In0 O36 2.193430 1_645
In0 O1 2.193450 1_545
In0 O0 2.224736 1_655
In1 O3 1.983755 1_555
In1 O40 2.000528 1_545
In1 O39 2.193071 1_455
In1 O41 2.193430 1_445
In1 O4 2.193450 1_445
In1 O5 2.224736 1_455
In2 O49 1.985193 1_555
In2 O12 1.993385 1_555
In2 O14 2.160202 1_555
In2 O50 2.197261 1_555
In2 O13 2.203169 1_555
In2 O48 2.226206 1_555
In3 O52 1.985193 1_555
In3 O17 1.993385 1_555
In3 O15 2.160202 1_555
In3 O51 2.197261 1_555
In3 O16 2.203169 1_555
In3 O53 2.226206 1_555
In4 O26 1.972633 1_554
In4 O60 1.985793 1_555
In4 O61 2.176894 1_555
In4 O25 2.194595 1_554
In4 O62 2.216158 1_555
In4 O24 2.223871 1_554
In5 O27 1.972633 1_555
In5 O65 1.985793 1_555
In5 O64 2.176894 1_555
In5 O28 2.194595 1_555
In5 O63 2.216158 1_555
In5 O29 2.223871 1_555
O0 S0 1.451401 1_545
O1 S1 1.459921 1_555
O2 Si0 1.573382 1_555
O3 Si1 1.573382 1_555
O4 S2 1.459921 1_655
O5 S3 1.451401 1_545
O6 S3 1.512001 1_555
O6 Ta0 2.121640 1_665
O7 Si1 1.718804 1_555
O7 Ta0 1.860565 1_555
O8 S2 1.489106 1_555
O8 Ta0 2.242181 1_565
O9 S1 1.489106 1_555
O9 Ta1 2.242181 1_665
O10 Si0 1.718804 1_455
O10 Ta1 1.860565 1_555
O11 S0 1.512001 1_555
O11 Ta1 2.121640 1_565
O12 Si2 1.580162 1_555
O13 S4 1.454048 1_555
O14 S5 1.458399 1_555
O15 S6 1.458399 1_555
O16 S7 1.454048 1_555
O17 Si3 1.580162 1_555
O18 Si3 1.694077 1_555
O18 Ta2 1.861746 1_554
O19 S6 1.501522 1_555
O19 Ta2 2.232732 1_554
O20 S7 1.513528 1_555
O20 Ta2 2.145332 1_554
O21 S4 1.513528 1_555
O21 Ta3 2.145332 1_555
O22 S5 1.501522 1_555
O22 Ta3 2.232732 1_555
O23 Si2 1.694077 1_555
O23 Ta3 1.861746 1_555
O24 S8 1.454470 1_555
O25 S9 1.455525 1_555
O26 Si4 1.581009 1_555
O27 Si5 1.581009 1_555
O28 S10 1.455525 1_555
O29 S11 1.454470 1_555
O30 S11 1.508930 1_555
O30 Ta4 2.132736 1_555
O31 Si5 1.681000 1_555
O31 Ta4 1.925098 1_555
O32 S10 1.513823 1_555
O32 Ta4 2.111853 1_555
O33 S9 1.513823 1_555
O33 Ta5 2.111853 1_555
O34 Si4 1.681000 1_555
O34 Ta5 1.925098 1_555
O35 S8 1.508930 1_555
O35 Ta5 2.132736 1_555
O36 S11 1.449440 1_555
O37 Si5 1.581307 1_555
O38 S10 1.457006 1_555
O39 S9 1.457009 1_655
O40 Si4 1.581298 1_555
O41 S8 1.449445 1_555
O42 Si2 1.700533 1_555
O42 Ta0 1.846089 1_655
O43 S4 1.527056 1_555
O43 Ta0 2.025799 1_555
O44 S5 1.515106 1_555
O44 Ta0 2.119453 1_665
O45 S6 1.515110 1_555
O45 Ta1 2.119453 1_665
O46 S7 1.527047 1_555
O46 Ta1 2.025799 1_655
O47 Si3 1.700537 1_555
O47 Ta1 1.846089 1_555
O48 S3 1.452131 1_545
O49 Si1 1.581830 1_555
O50 S2 1.450162 1_655
O51 S1 1.450165 1_555
O52 Si0 1.581821 1_555
O53 S0 1.452137 1_545
O54 S8 1.527155 1_555
O54 Ta2 2.039542 1_555
O55 S9 1.505836 1_655
O55 Ta2 2.103153 1_555
O56 Si4 1.726064 1_545
O56 Ta2 1.845169 1_555
O57 Si5 1.726056 1_545
O57 Ta3 1.845169 1_555
O58 S10 1.505853 1_555
O58 Ta3 2.103153 1_555
O59 S11 1.527145 1_655
O59 Ta3 2.039542 1_555
O60 Si3 1.578637 1_555
O61 S6 1.459677 1_455
O62 S7 1.446766 1_565
O63 S4 1.446760 1_565
O64 S5 1.459694 1_555
O65 Si2 1.578625 1_455
O66 S0 1.526679 1_555
O66 Ta4 2.030482 1_555
O67 S1 1.540154 1_555
O67 Ta4 2.005435 1_555
O68 Si0 1.682050 1_455
O68 Ta4 1.900419 1_555
O69 Si1 1.682054 1_555
O69 Ta5 1.900419 1_555
O70 S2 1.540145 1_555
O70 Ta5 2.005435 1_555
O71 S3 1.526684 1_555
O71 Ta5 2.030482 1_555
