# generated using pymatgen
data_CsSnBr3
_symmetry_space_group_name_H-M   'P 1'
_cell_length_a   5.83900561
_cell_length_b   5.83900561
_cell_length_c   5.83900561
_cell_angle_alpha   90.00000000
_cell_angle_beta   90.00000000
_cell_angle_gamma   90.00000000
_symmetry_Int_Tables_number   1
_chemical_formula_structural   CsSnBr3
_chemical_formula_sum   'Cs1 Sn1 Br3'
_cell_volume   199.07497852
_cell_formula_units_Z   1
loop_
 _symmetry_equiv_pos_site_id
 _symmetry_equiv_pos_as_xyz
  1  'x, y, z'
loop_
 _atom_site_type_symbol
 _atom_site_label
 _atom_site_symmetry_multiplicity
 _atom_site_fract_x
 _atom_site_fract_y
 _atom_site_fract_z
 _atom_site_occupancy
  Cs  Cs0  1  -0.00000000  -0.00000000  0.00000000  1
  Sn  Sn0  1  0.50000000  0.50000000  0.50000000  1
  Br  Br0  1  0.50000000  -0.00000000  0.50000000  1
  Br  Br1  1  0.50000000  0.50000000  -0.00000000  1
  Br  Br2  1  -0.00000000  0.50000000  0.50000000  1
loop_
_geom_bond_atom_site_label_1
_geom_bond_atom_site_label_2
_geom_bond_distance
_geom_bond_site_symmetry_2
Br0 Sn0 2.919503 1_555
Br0 Sn0 2.919503 1_545
Br0 Cs0 4.128800 1_656
Br0 Cs0 4.128800 1_555
Br0 Cs0 4.128800 1_655
Br0 Cs0 4.128800 1_556
Br1 Sn0 2.919503 1_554
Br1 Sn0 2.919503 1_555
Br1 Cs0 4.128800 1_565
Br1 Cs0 4.128800 1_555
Br1 Cs0 4.128800 1_655
Br1 Cs0 4.128800 1_665
Br2 Sn0 2.919503 1_455
Br2 Sn0 2.919503 1_555
Br2 Cs0 4.128800 1_565
Br2 Cs0 4.128800 1_566
Br2 Cs0 4.128800 1_555
Br2 Cs0 4.128800 1_556
