# generated using pymatgen
data_Ca12Be17O29
_symmetry_space_group_name_H-M   'P 1'
_cell_length_a   9.96141911
_cell_length_b   9.96141911
_cell_length_c   9.96141911
_cell_angle_alpha   60.00000000
_cell_angle_beta   60.00000000
_cell_angle_gamma   60.00000000
_symmetry_Int_Tables_number   1
_chemical_formula_structural   Ca12Be17O29
_chemical_formula_sum   'Ca12 Be17 O29'
_cell_volume   698.95407256
_cell_formula_units_Z   1
loop_
 _symmetry_equiv_pos_site_id
 _symmetry_equiv_pos_as_xyz
  1  'x, y, z'
loop_
 _atom_site_type_symbol
 _atom_site_label
 _atom_site_symmetry_multiplicity
 _atom_site_fract_x
 _atom_site_fract_y
 _atom_site_fract_z
 _atom_site_occupancy
  Ca  Ca0  1  0.29336600  0.70663400  0.29336600  1
  Ca  Ca1  1  0.70663400  0.29336600  0.70663400  1
  Ca  Ca2  1  0.70663400  0.70663400  0.29336600  1
  Ca  Ca3  1  0.29336600  0.70663400  0.70663400  1
  Ca  Ca4  1  0.70663400  0.29336600  0.29336600  1
  Ca  Ca5  1  0.29336600  0.29336600  0.70663400  1
  Ca  Ca6  1  0.49589300  0.00410700  0.49589300  1
  Ca  Ca7  1  0.00410700  0.49589300  0.00410700  1
  Ca  Ca8  1  0.00410700  0.00410700  0.49589300  1
  Ca  Ca9  1  0.49589300  0.00410700  0.00410700  1
  Ca  Ca10  1  0.00410700  0.49589300  0.49589300  1
  Ca  Ca11  1  0.49589300  0.49589300  0.00410700  1
  Be  Be0  1  0.84257100  0.84257100  0.47228700  1
  Be  Be1  1  0.15874100  0.15874100  0.15874100  1
  Be  Be2  1  0.52377700  0.15874100  0.15874100  1
  Be  Be3  1  0.15874100  0.15874100  0.52377700  1
  Be  Be4  1  0.15874100  0.52377700  0.15874100  1
  Be  Be5  1  0.84257100  0.84257100  0.84257100  1
  Be  Be6  1  0.47228700  0.84257100  0.84257100  1
  Be  Be7  1  0.84257100  0.47228700  0.84257100  1
  Be  Be8  1  0.67410800  0.67410800  0.67410800  1
  Be  Be9  1  0.97767500  0.67410800  0.67410800  1
  Be  Be10  1  0.67410800  0.67410800  0.97767500  1
  Be  Be11  1  0.67410800  0.97767500  0.67410800  1
  Be  Be12  1  0.50000000  0.50000000  0.50000000  1
  Be  Be13  1  0.36219600  0.91341300  0.36219600  1
  Be  Be14  1  0.36219600  0.36219600  0.91341300  1
  Be  Be15  1  0.91341300  0.36219600  0.36219600  1
  Be  Be16  1  0.36219600  0.36219600  0.36219600  1
  O  O0  1  0.97950900  0.24922400  0.24922400  1
  O  O1  1  0.52204300  0.24922400  0.24922400  1
  O  O2  1  0.97950900  0.52204300  0.24922400  1
  O  O3  1  0.24922400  0.52204300  0.24922400  1
  O  O4  1  0.52204300  0.24922400  0.97950900  1
  O  O5  1  0.43088700  0.43088700  0.43088700  1
  O  O6  1  0.24922400  0.24922400  0.97950900  1
  O  O7  1  0.24922400  0.97950900  0.52204300  1
  O  O8  1  0.75000000  0.75000000  0.75000000  1
  O  O9  1  0.43088700  0.70733800  0.43088700  1
  O  O10  1  0.43088700  0.43088700  0.70733800  1
  O  O11  1  0.70733800  0.43088700  0.43088700  1
  O  O12  1  0.75078200  0.47637600  0.02205900  1
  O  O13  1  0.75078200  0.75078200  0.47637600  1
  O  O14  1  0.47637600  0.02205900  0.75078200  1
  O  O15  1  0.75078200  0.02205900  0.75078200  1
  O  O16  1  0.02205900  0.75078200  0.47637600  1
  O  O17  1  0.02205900  0.75078200  0.75078200  1
  O  O18  1  0.47637600  0.75078200  0.75078200  1
  O  O19  1  0.02205900  0.47637600  0.75078200  1
  O  O20  1  0.75078200  0.47637600  0.75078200  1
  O  O21  1  0.47637600  0.75078200  0.02205900  1
  O  O22  1  0.75078200  0.75078200  0.02205900  1
  O  O23  1  0.75078200  0.02205900  0.47637600  1
  O  O24  1  0.24922400  0.52204300  0.97950900  1
  O  O25  1  0.24922400  0.24922400  0.52204300  1
  O  O26  1  0.52204300  0.97950900  0.24922400  1
  O  O27  1  0.24922400  0.97950900  0.24922400  1
  O  O28  1  0.97950900  0.24922400  0.52204300  1
loop_
_geom_bond_atom_site_label_1
_geom_bond_atom_site_label_2
_geom_bond_distance
_geom_bond_site_symmetry_2
Ca0 O21 2.346737 1_555
Ca0 O16 2.346737 1_555
Ca0 O27 2.361840 1_555
Ca0 O3 2.361840 1_555
Ca0 O9 2.376800 1_555
Ca0 O5 2.376805 1_555
Ca1 O20 2.346730 1_555
Ca1 O15 2.346740 1_555
Ca1 O28 2.361840 1_555
Ca1 O4 2.361840 1_555
Ca1 O11 2.376808 1_555
Ca1 O10 2.376808 1_555
Ca2 O13 2.346730 1_555
Ca2 O22 2.346740 1_555
Ca2 O2 2.361840 1_555
Ca2 O26 2.361840 1_555
Ca2 O11 2.376808 1_555
Ca2 O9 2.376808 1_555
Ca3 O18 2.346730 1_555
Ca3 O17 2.346740 1_555
Ca3 O7 2.361840 1_555
Ca3 O24 2.361840 1_555
Ca3 O9 2.376808 1_555
Ca3 O10 2.376808 1_555
Ca4 O12 2.346737 1_555
Ca4 O23 2.346737 1_555
Ca4 O1 2.361840 1_555
Ca4 O0 2.361840 1_555
Ca4 O11 2.376800 1_555
Ca4 O5 2.376805 1_555
Ca5 O19 2.346737 1_555
Ca5 O14 2.346737 1_555
Ca5 O6 2.361840 1_555
Ca5 O25 2.361840 1_555
Ca5 O10 2.376800 1_555
Ca5 O5 2.376805 1_555
Ca6 O1 2.462474 1_555
Ca6 O7 2.462474 1_545
Ca6 O26 2.462474 1_545
Ca6 O25 2.462474 1_555
Ca6 O14 2.538156 1_555
Ca6 O23 2.538156 1_555
Ca6 O13 2.538161 1_545
Ca6 O18 2.538161 1_545
Ca7 O24 2.462474 1_554
Ca7 O0 2.462474 1_455
Ca7 O6 2.462474 1_554
Ca7 O2 2.462474 1_455
Ca7 O17 2.538160 1_554
Ca7 O22 2.538160 1_455
Ca7 O12 2.538165 1_455
Ca7 O19 2.538165 1_554
Ca8 O27 2.462474 1_545
Ca8 O28 2.462474 1_455
Ca8 O7 2.462474 1_545
Ca8 O0 2.462474 1_455
Ca8 O15 2.538160 1_455
Ca8 O17 2.538160 1_545
Ca8 O16 2.538165 1_545
Ca8 O23 2.538165 1_455
Ca9 O27 2.462474 1_545
Ca9 O6 2.462474 1_554
Ca9 O26 2.462474 1_545
Ca9 O4 2.462474 1_554
Ca9 O22 2.538160 1_545
Ca9 O15 2.538160 1_554
Ca9 O14 2.538165 1_554
Ca9 O21 2.538165 1_545
Ca10 O2 2.462474 1_455
Ca10 O28 2.462474 1_455
Ca10 O3 2.462474 1_555
Ca10 O25 2.462474 1_555
Ca10 O19 2.538156 1_555
Ca10 O16 2.538156 1_555
Ca10 O13 2.538161 1_455
Ca10 O20 2.538161 1_455
Ca11 O24 2.462474 1_554
Ca11 O1 2.462474 1_555
Ca11 O3 2.462474 1_555
Ca11 O4 2.462474 1_554
Ca11 O21 2.538156 1_555
Ca11 O12 2.538156 1_555
Ca11 O18 2.538161 1_554
Ca11 O20 2.538161 1_554
Be0 O23 1.560527 1_565
Be0 O16 1.560527 1_655
Be0 O13 1.560536 1_555
Be1 O0 1.551257 1_455
Be1 O6 1.551257 1_554
Be1 O27 1.551257 1_545
Be2 O1 1.551257 1_555
Be2 O26 1.551257 1_545
Be2 O4 1.551257 1_554
Be3 O25 1.551257 1_555
Be3 O7 1.551257 1_545
Be3 O28 1.551257 1_455
Be4 O3 1.551257 1_555
Be4 O24 1.551257 1_554
Be4 O2 1.551257 1_455
Be5 O17 1.560530 1_655
Be5 O15 1.560530 1_565
Be5 O22 1.560530 1_556
Be6 O14 1.560527 1_565
Be6 O21 1.560527 1_556
Be6 O18 1.560536 1_555
Be7 O12 1.560527 1_556
Be7 O19 1.560527 1_655
Be7 O20 1.560536 1_555
Be8 O18 1.618933 1_555
Be8 O13 1.618933 1_555
Be8 O20 1.618933 1_555
Be8 O8 1.851795 1_555
Be9 O17 1.618933 1_655
Be9 O19 1.618933 1_655
Be9 O16 1.618933 1_655
Be9 O8 1.851787 1_555
Be10 O22 1.618933 1_556
Be10 O21 1.618933 1_556
Be10 O12 1.618933 1_556
Be10 O8 1.851787 1_555
Be11 O15 1.618933 1_565
Be11 O23 1.618933 1_565
Be11 O14 1.618933 1_565
Be11 O8 1.851787 1_555
Be12 O9 1.686376 1_555
Be12 O10 1.686376 1_555
Be12 O11 1.686376 1_555
Be12 O5 1.686384 1_555
Be13 O7 1.658582 1_555
Be13 O26 1.658582 1_555
Be13 O27 1.658590 1_555
Be13 O9 1.676104 1_555
Be14 O24 1.658582 1_555
Be14 O4 1.658582 1_555
Be14 O6 1.658590 1_555
Be14 O10 1.676104 1_555
Be15 O28 1.658582 1_555
Be15 O2 1.658582 1_555
Be15 O0 1.658590 1_555
Be15 O11 1.676104 1_555
Be16 O1 1.658587 1_555
Be16 O3 1.658587 1_555
Be16 O25 1.658587 1_555
Be16 O5 1.676087 1_555
