# generated using pymatgen
data_Al11TlO17
_symmetry_space_group_name_H-M   'P 1'
_cell_length_a   5.59270452
_cell_length_b   5.59270452
_cell_length_c   22.85671966
_cell_angle_alpha   90.00000000
_cell_angle_beta   90.00000000
_cell_angle_gamma   119.99521794
_symmetry_Int_Tables_number   1
_chemical_formula_structural   Al11TlO17
_chemical_formula_sum   'Al22 Tl2 O34'
_cell_volume   619.16900566
_cell_formula_units_Z   2
loop_
 _symmetry_equiv_pos_site_id
 _symmetry_equiv_pos_as_xyz
  1  'x, y, z'
loop_
 _atom_site_type_symbol
 _atom_site_label
 _atom_site_symmetry_multiplicity
 _atom_site_fract_x
 _atom_site_fract_y
 _atom_site_fract_z
 _atom_site_occupancy
  Al  Al0  1  0.33513234  0.16805369  0.60509565  1
  Al  Al1  1  0.33513234  0.16805369  0.89490435  1
  Al  Al2  1  0.66749369  0.33382953  0.32491650  1
  Al  Al3  1  0.66733939  0.33394734  0.47512800  1
  Al  Al4  1  0.66749369  0.33382953  0.17508350  1
  Al  Al5  1  0.00079066  0.00079066  0.50000000  1
  Al  Al6  1  0.00079066  0.00079066  0.00000000  1
  Al  Al7  1  0.66733939  0.33394734  0.02487200  1
  Al  Al8  1  0.83323883  0.16801039  0.89491327  1
  Al  Al9  1  0.83323883  0.16801039  0.60508673  1
  Al  Al10  1  0.83325646  0.66622428  0.89493207  1
  Al  Al11  1  0.83325646  0.66622428  0.60506793  1
  Al  Al12  1  0.16805369  0.33513234  0.10509565  1
  Al  Al13  1  0.16805369  0.33513234  0.39490435  1
  Al  Al14  1  0.16801039  0.83323883  0.10508673  1
  Al  Al15  1  0.33382953  0.66749369  0.82491650  1
  Al  Al16  1  0.33382953  0.66749369  0.67508350  1
  Al  Al17  1  0.33394734  0.66733939  0.52487200  1
  Al  Al18  1  0.33394734  0.66733939  0.97512800  1
  Al  Al19  1  0.16801039  0.83323883  0.39491327  1
  Al  Al20  1  0.66622428  0.83325646  0.39493207  1
  Al  Al21  1  0.66622428  0.83325646  0.10506793  1
  Tl  Tl0  1  0.66834965  0.33655275  0.75000000  1
  Tl  Tl1  1  0.33655275  0.66834965  0.25000000  1
  O  O0  1  0.31428340  0.15737023  0.45095985  1
  O  O1  1  0.31428340  0.15737023  0.04904015  1
  O  O2  1  0.50178108  0.00325782  0.64330004  1
  O  O3  1  0.50178108  0.00325782  0.85669996  1
  O  O4  1  0.66646876  0.33331136  0.25000000  1
  O  O5  1  0.84392278  0.15741721  0.04904740  1
  O  O6  1  0.66720397  0.33402594  0.55460330  1
  O  O7  1  0.00079606  0.00057007  0.36043992  1
  O  O8  1  0.00079606  0.00057007  0.13956008  1
  O  O9  1  0.00057007  0.00079606  0.86043992  1
  O  O10  1  0.00057007  0.00079606  0.63956008  1
  O  O11  1  0.66720397  0.33402594  0.94539670  1
  O  O12  1  0.50175106  0.49972340  0.64324199  1
  O  O13  1  0.84392278  0.15741721  0.45095260  1
  O  O14  1  0.50175106  0.49972340  0.85675801  1
  O  O15  1  0.15737023  0.31428340  0.95095985  1
  O  O16  1  0.15737023  0.31428340  0.54904015  1
  O  O17  1  0.99817009  0.49964847  0.64324909  1
  O  O18  1  0.99817009  0.49964847  0.85675091  1
  O  O19  1  0.00325782  0.50178108  0.35669996  1
  O  O20  1  0.00325782  0.50178108  0.14330004  1
  O  O21  1  0.84394988  0.68705268  0.45097047  1
  O  O22  1  0.84394988  0.68705268  0.04902953  1
  O  O23  1  0.49972340  0.50175106  0.14324199  1
  O  O24  1  0.33331136  0.66646876  0.75000000  1
  O  O25  1  0.33402594  0.66720397  0.05460330  1
  O  O26  1  0.49972340  0.50175106  0.35675801  1
  O  O27  1  0.15741721  0.84392278  0.54904740  1
  O  O28  1  0.15741721  0.84392278  0.95095260  1
  O  O29  1  0.33402594  0.66720397  0.44539670  1
  O  O30  1  0.49964847  0.99817009  0.35675091  1
  O  O31  1  0.49964847  0.99817009  0.14324909  1
  O  O32  1  0.68705268  0.84394988  0.95097047  1
  O  O33  1  0.68705268  0.84394988  0.54902953  1
loop_
_geom_bond_atom_site_label_1
_geom_bond_atom_site_label_2
_geom_bond_distance
_geom_bond_site_symmetry_2
Al0 O10 1.801826 1_555
Al0 O2 1.827431 1_555
Al0 O12 1.827855 1_555
Al0 O6 1.979648 1_555
Al0 O16 2.027740 1_555
Al0 O27 2.028221 1_545
Al1 O9 1.801826 1_555
Al1 O3 1.827431 1_555
Al1 O14 1.827855 1_555
Al1 O11 1.979648 1_555
Al1 O15 2.027740 1_555
Al1 O28 2.028221 1_545
Al2 O4 1.712353 1_555
Al2 O19 1.781205 1_655
Al2 O30 1.781217 1_545
Al2 O26 1.781319 1_555
Al3 O0 1.797090 1_555
Al3 O21 1.797243 1_555
Al3 O13 1.797288 1_555
Al3 O6 1.816545 1_555
Al4 O4 1.712353 1_555
Al4 O20 1.781205 1_655
Al4 O31 1.781217 1_545
Al4 O23 1.781319 1_555
Al5 O0 1.887354 1_555
Al5 O16 1.887354 1_555
Al5 O27 1.887371 1_545
Al5 O13 1.887371 1_455
Al5 O33 1.888166 1_445
Al5 O21 1.888166 1_445
Al6 O15 1.887354 1_554
Al6 O1 1.887354 1_555
Al6 O5 1.887371 1_455
Al6 O28 1.887371 1_544
Al6 O32 1.888166 1_444
Al6 O22 1.888166 1_445
Al7 O1 1.797090 1_555
Al7 O22 1.797243 1_555
Al7 O5 1.797288 1_555
Al7 O11 1.816545 1_554
Al8 O9 1.801737 1_655
Al8 O3 1.827686 1_555
Al8 O18 1.827896 1_555
Al8 O11 1.979351 1_555
Al8 O32 2.028122 1_545
Al8 O15 2.028222 1_655
Al9 O10 1.801737 1_655
Al9 O2 1.827686 1_555
Al9 O17 1.827896 1_555
Al9 O6 1.979351 1_555
Al9 O33 2.028122 1_545
Al9 O16 2.028222 1_655
Al10 O9 1.802145 1_665
Al10 O18 1.827366 1_555
Al10 O14 1.827458 1_555
Al10 O11 1.979777 1_555
Al10 O32 2.027257 1_555
Al10 O28 2.027925 1_655
Al11 O10 1.802145 1_665
Al11 O17 1.827366 1_555
Al11 O12 1.827458 1_555
Al11 O6 1.979777 1_555
Al11 O33 2.027257 1_555
Al11 O27 2.027925 1_655
Al12 O8 1.801826 1_555
Al12 O20 1.827431 1_555
Al12 O23 1.827855 1_555
Al12 O25 1.979648 1_555
Al12 O1 2.027740 1_555
Al12 O5 2.028221 1_455
Al13 O7 1.801826 1_555
Al13 O19 1.827431 1_555
Al13 O26 1.827855 1_555
Al13 O29 1.979648 1_555
Al13 O0 2.027740 1_555
Al13 O13 2.028221 1_455
Al14 O8 1.801737 1_565
Al14 O20 1.827686 1_555
Al14 O31 1.827896 1_555
Al14 O25 1.979351 1_555
Al14 O22 2.028122 1_455
Al14 O1 2.028222 1_565
Al15 O24 1.712353 1_555
Al15 O3 1.781205 1_565
Al15 O18 1.781217 1_455
Al15 O14 1.781319 1_555
Al16 O24 1.712353 1_555
Al16 O2 1.781205 1_565
Al16 O17 1.781217 1_455
Al16 O12 1.781319 1_555
Al17 O16 1.797090 1_555
Al17 O33 1.797243 1_555
Al17 O27 1.797288 1_555
Al17 O29 1.816545 1_555
Al18 O15 1.797090 1_555
Al18 O32 1.797243 1_555
Al18 O28 1.797288 1_555
Al18 O25 1.816545 1_556
Al19 O7 1.801737 1_565
Al19 O19 1.827686 1_555
Al19 O30 1.827896 1_555
Al19 O29 1.979351 1_555
Al19 O21 2.028122 1_455
Al19 O0 2.028222 1_565
Al20 O7 1.802145 1_665
Al20 O30 1.827366 1_555
Al20 O26 1.827458 1_555
Al20 O29 1.979777 1_555
Al20 O21 2.027257 1_555
Al20 O13 2.027925 1_565
Al21 O8 1.802145 1_665
Al21 O31 1.827366 1_555
Al21 O23 1.827458 1_555
Al21 O25 1.979777 1_555
Al21 O22 2.027257 1_555
Al21 O5 2.027925 1_565
