# generated using pymatgen
data_Sr2MgFeO4
_symmetry_space_group_name_H-M   'P 1'
_cell_length_a   3.48966192
_cell_length_b   3.48966196
_cell_length_c   10.04770058
_cell_angle_alpha   100.00039428
_cell_angle_beta   100.00040454
_cell_angle_gamma   89.99999139
_symmetry_Int_Tables_number   1
_chemical_formula_structural   Sr2MgFeO4
_chemical_formula_sum   'Sr2 Mg1 Fe1 O4'
_cell_volume   118.61106529
_cell_formula_units_Z   1
loop_
 _symmetry_equiv_pos_site_id
 _symmetry_equiv_pos_as_xyz
  1  'x, y, z'
loop_
 _atom_site_type_symbol
 _atom_site_label
 _atom_site_symmetry_multiplicity
 _atom_site_fract_x
 _atom_site_fract_y
 _atom_site_fract_z
 _atom_site_occupancy
  Sr  Sr0  1  0.62784778  0.62784678  0.25569455  1
  Sr  Sr1  1  0.37215222  0.37215322  0.74430445  1
  Mg  Mg0  1  0.25000000  0.75000000  0.50000000  1
  Fe  Fe0  1  -0.00000000  -0.00000000  -0.00000000  1
  O  O0  1  0.80673059  0.80672959  0.61346118  1
  O  O1  1  0.19326941  0.19326741  0.38653682  1
  O  O2  1  0.04848010  0.54848010  0.09696021  1
  O  O3  1  0.45151990  0.95151990  0.90304079  1
loop_
_geom_bond_atom_site_label_1
_geom_bond_atom_site_label_2
_geom_bond_distance
_geom_bond_site_symmetry_2
Mg0 O0 2.065358 1_555
Mg0 O0 2.065359 1_455
Mg0 O1 2.065366 1_565
Mg0 O1 2.065371 1_555
Fe0 O3 1.984008 1_544
Fe0 O3 1.984010 1_444
Fe0 O2 1.984014 1_555
Fe0 O2 1.984014 1_545
O0 Sr1 2.777223 1_655
O0 Sr1 2.777224 1_555
O0 Sr1 2.777232 1_665
O0 Sr1 2.777233 1_565
O1 Sr0 2.777222 1_545
O1 Sr0 2.777223 1_445
O1 Sr0 2.777224 1_555
O1 Sr0 2.777226 1_455
O2 Sr0 2.331258 1_455
O2 Sr0 2.331260 1_555
O3 Sr1 2.331268 1_555
O3 Sr1 2.331276 1_565
