# generated using pymatgen
data_NaZn2Ge2PS5O24
_symmetry_space_group_name_H-M   'P 1'
_cell_length_a   8.52725812
_cell_length_b   8.54197081
_cell_length_c   22.01776480
_cell_angle_alpha   89.88232133
_cell_angle_beta   89.70746831
_cell_angle_gamma   120.06725135
_symmetry_Int_Tables_number   1
_chemical_formula_structural   NaZn2Ge2PS5O24
_chemical_formula_sum   'Na3 Zn6 Ge6 P3 S15 O72'
_cell_volume   1387.92122649
_cell_formula_units_Z   3
loop_
 _symmetry_equiv_pos_site_id
 _symmetry_equiv_pos_as_xyz
  1  'x, y, z'
loop_
 _atom_site_type_symbol
 _atom_site_label
 _atom_site_symmetry_multiplicity
 _atom_site_fract_x
 _atom_site_fract_y
 _atom_site_fract_z
 _atom_site_occupancy
  Na  Na0  1  0.67042677  0.33356273  0.82889931  1
  Na  Na1  1  0.66074776  0.33421345  0.33267270  1
  Na  Na2  1  0.33749206  0.67071941  0.16381071  1
  Zn  Zn0  1  0.00034693  0.00636104  0.85510083  1
  Zn  Zn1  1  0.66592832  0.33272928  0.68061704  1
  Zn  Zn2  1  0.65890251  0.33359288  0.19042714  1
  Zn  Zn3  1  0.66826324  0.33504589  0.48981201  1
  Zn  Zn4  1  0.32937723  0.66186392  0.01619950  1
  Zn  Zn5  1  0.33457145  0.66709658  0.52292681  1
  Ge  Ge0  1  0.00187560  0.99513240  0.35258262  1
  Ge  Ge1  1  0.99873645  0.99927526  0.64810836  1
  Ge  Ge2  1  0.99742045  0.98972436  0.14743451  1
  Ge  Ge3  1  0.67282948  0.33335325  0.97982625  1
  Ge  Ge4  1  0.34139374  0.67668595  0.31388574  1
  Ge  Ge5  1  0.32344798  0.66037371  0.81430496  1
  P  P0  1  0.28201360  0.99249968  0.25136155  1
  P  P1  1  0.71216562  0.71800945  0.25184524  1
  P  P2  1  0.03962343  0.37752476  0.91800423  1
  S  S0  1  0.00765113  0.28884790  0.25115511  1
  S  S1  1  0.29114550  0.29732018  0.75097066  1
  S  S2  1  0.00688860  0.71204477  0.75176118  1
  S  S3  1  0.69898238  0.98998555  0.75184444  1
  S  S4  1  0.96233588  0.32495305  0.58559989  1
  S  S5  1  0.36297648  0.03749013  0.58530318  1
  S  S6  1  0.67490077  0.63731584  0.58536881  1
  S  S7  1  0.95401921  0.62742839  0.08532000  1
  S  S8  1  0.67572930  0.04491254  0.08551759  1
  S  S9  1  0.36930387  0.32416194  0.08467584  1
  S  S10  1  0.62100027  0.65887930  0.91741396  1
  S  S11  1  0.34022332  0.96163171  0.91761398  1
  S  S12  1  0.63228723  0.96086825  0.41396257  1
  S  S13  1  0.32610531  0.37167214  0.41253706  1
  S  S14  1  0.04402526  0.66977491  0.41385910  1
  O  O0  1  0.19653650  0.02867396  0.30781999  1
  O  O1  1  0.82908284  0.80820139  0.30829088  1
  O  O2  1  0.97637195  0.17614200  0.30637462  1
  O  O3  1  0.21275940  0.18627620  0.80494685  1
  O  O4  1  0.97752218  0.79266444  0.80568849  1
  O  O5  1  0.80978202  0.02033486  0.80527220  1
  O  O6  1  0.78038891  0.95618285  0.69545128  1
  O  O7  1  0.17503814  0.21575554  0.69526343  1
  O  O8  1  0.03944780  0.82693556  0.69537783  1
  O  O9  1  0.79203964  0.83976926  0.19355751  1
  O  O10  1  0.04326899  0.20988976  0.19539882  1
  O  O11  1  0.16201416  0.95534805  0.19347800  1
  O  O12  1  0.88200799  0.35430449  0.64011403  1
  O  O13  1  0.47289301  0.11722551  0.63944593  1
  O  O14  1  0.64409086  0.52681291  0.63975549  1
  O  O15  1  0.87208799  0.51651405  0.13932869  1
  O  O16  1  0.64567731  0.12591259  0.13939383  1
  O  O17  1  0.47876289  0.35316965  0.13862530  1
  O  O18  1  0.45210229  0.29192297  0.02799529  1
  O  O19  1  0.84145656  0.54648502  0.02869670  1
  O  O20  1  0.70865738  0.15949436  0.02846636  1
  O  O21  1  0.43765068  0.14996678  0.52981231  1
  O  O22  1  0.71417455  0.56409565  0.53005958  1
  O  O23  1  0.85029133  0.28707450  0.53054227  1
  O  O24  1  0.54611916  0.68864161  0.97262269  1
  O  O25  1  0.14597796  0.45940831  0.97481395  1
  O  O26  1  0.31968397  0.86182628  0.97331279  1
  O  O27  1  0.54973112  0.84545614  0.46643742  1
  O  O28  1  0.29504878  0.45204136  0.46571700  1
  O  O29  1  0.15591862  0.69967523  0.46659064  1
  O  O30  1  0.12707361  0.63606787  0.35649417  1
  O  O31  1  0.51547541  0.88113207  0.35660859  1
  O  O32  1  0.36267870  0.49065704  0.35519476  1
  O  O33  1  0.12202384  0.50693812  0.85941175  1
  O  O34  1  0.38521513  0.88416439  0.86208482  1
  O  O35  1  0.50080118  0.61961654  0.86200462  1
  O  O36  1  0.03382413  0.84021518  0.40609885  1
  O  O37  1  0.81284165  0.97247955  0.40473541  1
  O  O38  1  0.15444062  0.19264007  0.40382253  1
  O  O39  1  0.01111335  0.19338664  0.90729919  1
  O  O40  1  0.18418342  0.98165578  0.90808519  1
  O  O41  1  0.80200150  0.80736993  0.90724109  1
  O  O42  1  0.97348240  0.15378324  0.59409552  1
  O  O43  1  0.18053887  0.02660902  0.59396838  1
  O  O44  1  0.84601890  0.81974150  0.59373826  1
  O  O45  1  0.96076936  0.80809493  0.08974002  1
  O  O46  1  0.84874805  0.03730051  0.09091581  1
  O  O47  1  0.18661149  0.15311181  0.09081097  1
  O  O48  1  0.67147165  0.14476760  0.74371641  1
  O  O49  1  0.47431706  0.32581747  0.74282771  1
  O  O50  1  0.85267115  0.52910297  0.74425587  1
  O  O51  1  0.69522779  0.53401144  0.24749463  1
  O  O52  1  0.84868774  0.30887121  0.24625733  1
  O  O53  1  0.47049106  0.15415802  0.24702011  1
  O  O54  1  0.62822293  0.48341278  0.92323984  1
  O  O55  1  0.84611437  0.36658657  0.92350618  1
  O  O56  1  0.51056719  0.14940720  0.92226171  1
  O  O57  1  0.65619158  0.14208772  0.41786738  1
  O  O58  1  0.48284140  0.34602482  0.41581402  1
  O  O59  1  0.86141184  0.51265230  0.41721891  1
  O  O60  1  0.34422762  0.48062800  0.07802942  1
  O  O61  1  0.13838603  0.65931455  0.07876545  1
  O  O62  1  0.52063946  0.86248530  0.07774284  1
  O  O63  1  0.33352585  0.85539114  0.57725354  1
  O  O64  1  0.52155612  0.66594560  0.57726457  1
  O  O65  1  0.14488726  0.47791802  0.57726627  1
  O  O66  1  0.28971432  0.81319697  0.25794782  1
  O  O67  1  0.52127403  0.70318349  0.25774664  1
  O  O68  1  0.17659483  0.46964658  0.25652073  1
  O  O69  1  0.30158683  0.47925751  0.75678199  1
  O  O70  1  0.18142263  0.70588735  0.75632386  1
  O  O71  1  0.51707256  0.81736231  0.75848682  1
loop_
_geom_bond_atom_site_label_1
_geom_bond_atom_site_label_2
_geom_bond_distance
_geom_bond_site_symmetry_2
Na0 O50 2.456588 1_555
Na0 O48 2.478934 1_555
Na0 O55 2.504758 1_555
Na0 O49 2.512832 1_555
Na0 O56 2.523439 1_555
Na0 O54 2.558800 1_555
Na1 O58 2.405919 1_555
Na1 O51 2.448431 1_555
Na1 O53 2.469207 1_555
Na1 O57 2.477127 1_555
Na1 O59 2.479350 1_555
Na1 O52 2.559995 1_555
Na2 O62 2.471233 1_555
Na2 O61 2.503171 1_555
Na2 O60 2.512380 1_555
Na2 O67 2.531909 1_555
Na2 O66 2.538069 1_555
Na2 O68 2.568053 1_555
Ge0 O0 1.820542 1_565
Ge0 O1 1.826270 1_455
Ge0 O36 1.889938 1_555
Ge0 O37 1.903156 1_455
Ge0 O38 1.906599 1_565
Ge0 O2 1.950846 1_465
Ge1 O42 1.866417 1_565
Ge1 O43 1.869791 1_665
Ge1 O44 1.871653 1_555
Ge1 O8 1.969859 1_655
Ge1 O6 1.995147 1_555
Ge1 O7 1.998924 1_665
Ge2 O9 1.862212 1_555
Ge2 O11 1.873539 1_655
Ge2 O45 1.909108 1_555
Ge2 O47 1.954737 1_665
Ge2 O46 1.962461 1_565
Ge2 O10 2.020044 1_665
Ge3 O55 1.833370 1_555
Ge3 O54 1.956226 1_555
Ge3 O56 1.958917 1_555
Ge3 O20 1.974140 1_556
Ge3 O19 1.985093 1_556
Ge3 O18 2.025672 1_556
Ge4 O31 1.887214 1_555
Ge4 O67 1.887717 1_555
Ge4 O66 1.893513 1_555
Ge4 O32 1.915734 1_555
Ge4 O30 1.919963 1_555
Ge4 O68 2.057854 1_555
Ge5 O33 1.837327 1_555
Ge5 O70 1.932141 1_555
Ge5 O69 1.937472 1_555
Ge5 O71 1.946453 1_555
Ge5 O34 2.010825 1_555
Ge5 O35 2.013374 1_555
O0 P0 1.545973 1_545
O1 P1 1.542407 1_555
O2 S0 1.486863 1_655
O3 S1 1.452870 1_555
O3 Zn0 2.011309 1_555
O4 S2 1.455984 1_655
O4 Zn0 2.051312 1_665
O5 S3 1.452885 1_545
O5 Zn0 2.017560 1_655
O6 S3 1.516728 1_555
O7 S1 1.514859 1_555
O8 S2 1.516518 1_555
O9 P1 1.571124 1_555
O10 S0 1.503021 1_555
O11 P0 1.568960 1_555
O12 S4 1.462071 1_555
O12 Zn1 1.966362 1_555
O13 S5 1.462386 1_555
O13 Zn1 1.976289 1_555
O14 S6 1.462050 1_555
O14 Zn1 1.974213 1_555
O15 S7 1.457200 1_555
O15 Zn2 2.034108 1_555
O16 S8 1.459275 1_555
O16 Zn2 2.057029 1_555
O17 S9 1.457521 1_555
O17 Zn2 1.990713 1_555
O18 S9 1.522836 1_555
O19 S7 1.518036 1_555
O20 S8 1.526650 1_555
O21 S5 1.481727 1_555
O21 Zn3 2.000874 1_555
O22 S6 1.481617 1_555
O22 Zn3 2.002427 1_555
O23 S4 1.480119 1_555
O23 Zn3 2.007862 1_555
O24 S10 1.451199 1_555
O24 Zn4 1.986497 1_556
O25 P2 1.501941 1_555
O25 Zn4 1.891501 1_556
O26 S11 1.450983 1_555
O26 Zn4 1.987871 1_556
O27 S12 1.447056 1_555
O27 Zn5 2.098167 1_555
O28 S13 1.447328 1_555
O28 Zn5 2.113832 1_555
O29 S14 1.446359 1_555
O29 Zn5 2.092729 1_555
O30 S14 1.541550 1_555
O31 S12 1.545098 1_555
O32 S13 1.548348 1_555
O33 P2 1.608287 1_555
O34 S11 1.527355 1_555
O35 S10 1.523618 1_555
O36 S14 1.510770 1_555
O37 S12 1.505089 1_555
O38 S13 1.509715 1_555
O39 P2 1.485806 1_555
O39 Zn0 1.934728 1_555
O40 S11 1.440315 1_555
O40 Zn0 2.052333 1_565
O41 S10 1.440434 1_555
O41 Zn0 2.039417 1_665
O42 S4 1.523206 1_555
O43 S5 1.522244 1_555
O44 S6 1.522127 1_555
O45 S7 1.518573 1_555
O46 S8 1.514257 1_555
O47 S9 1.515331 1_555
O48 S3 1.464710 1_545
O48 Zn1 2.139579 1_555
O49 S1 1.465287 1_555
O49 Zn1 2.104641 1_555
O50 S2 1.463811 1_655
O50 Zn1 2.160714 1_555
O51 P1 1.507842 1_555
O51 Zn2 2.021637 1_555
O52 S0 1.453292 1_655
O52 Zn2 2.129884 1_555
O53 P0 1.507674 1_545
O53 Zn2 1.996833 1_555
O54 S10 1.535750 1_555
O55 P2 1.609243 1_655
O56 S11 1.536467 1_545
O57 S12 1.459351 1_545
O57 Zn3 2.253647 1_555
O58 S13 1.460764 1_555
O58 Zn3 2.310321 1_555
O59 S14 1.461456 1_655
O59 Zn3 2.242401 1_555
O60 S9 1.462647 1_555
O60 Zn4 2.110811 1_555
O61 S7 1.461196 1_455
O61 Zn4 2.119439 1_555
O62 S8 1.464563 1_565
O62 Zn4 2.159717 1_555
O63 S5 1.457454 1_565
O63 Zn5 2.009975 1_555
O64 S6 1.457438 1_555
O64 Zn5 2.002229 1_555
O65 S4 1.456751 1_455
O65 Zn5 2.003055 1_555
O66 P0 1.571973 1_555
O67 P1 1.572833 1_555
O68 S0 1.499186 1_555
O69 S1 1.517174 1_555
O70 S2 1.519154 1_555
O71 S3 1.518786 1_555
