# generated using pymatgen
data_Pt
_symmetry_space_group_name_H-M   'P 1'
_cell_length_a   5.52133200
_cell_length_b   5.52133046
_cell_length_c   9.58426800
_cell_angle_alpha   90.00000000
_cell_angle_beta   90.00000000
_cell_angle_gamma   120.00000921
_symmetry_Int_Tables_number   1
_chemical_formula_structural   Pt
_chemical_formula_sum   Pt16
_cell_volume   253.03298809
_cell_formula_units_Z   16
loop_
 _symmetry_equiv_pos_site_id
 _symmetry_equiv_pos_as_xyz
  1  'x, y, z'
loop_
 _atom_site_type_symbol
 _atom_site_label
 _atom_site_symmetry_multiplicity
 _atom_site_fract_x
 _atom_site_fract_y
 _atom_site_fract_z
 _atom_site_occupancy
  Pt  Pt0_0  1  0.00000000  0.00000000  0.00000000  1
  Pt  Pt0_1  1  0.00000000  0.00000000  0.50000000  1
  Pt  Pt0_2  1  0.00000000  0.50000000  0.00000000  1
  Pt  Pt0_3  1  0.00000000  0.50000000  0.50000000  1
  Pt  Pt0_4  1  0.50000000  0.00000000  0.00000000  1
  Pt  Pt0_5  1  0.50000000  0.00000000  0.50000000  1
  Pt  Pt0_6  1  0.50000000  0.50000000  0.00000000  1
  Pt  Pt0_7  1  0.50000000  0.50000000  0.50000000  1
  Pt  Pt1_0  1  0.33333350  0.16666650  0.25000000  1
  Pt  Pt1_1  1  0.33333350  0.16666650  0.75000000  1
  Pt  Pt1_2  1  0.33333350  0.66666650  0.25000000  1
  Pt  Pt1_3  1  0.33333350  0.66666650  0.75000000  1
  Pt  Pt1_4  1  0.83333350  0.16666650  0.25000000  1
  Pt  Pt1_5  1  0.83333350  0.16666650  0.75000000  1
  Pt  Pt1_6  1  0.83333350  0.66666650  0.25000000  1
  Pt  Pt1_7  1  0.83333350  0.66666650  0.75000000  1
loop_
_geom_bond_atom_site_label_1
_geom_bond_atom_site_label_2
_geom_bond_distance
_geom_bond_site_symmetry_2
Pt0_0 Pt0_6 2.760665 1_555
Pt0_0 Pt0_2 2.760665 1_545
Pt0_0 Pt0_6 2.760665 1_445
Pt0_0 Pt0_2 2.760665 1_555
Pt0_0 Pt0_4 2.760666 1_555
Pt0_0 Pt0_4 2.760666 1_455
Pt0_0 Pt1_4 2.877769 1_455
Pt0_0 Pt1_5 2.877769 1_454
Pt0_0 Pt1_6 2.877771 1_445
Pt0_0 Pt1_7 2.877771 1_444
Pt0_0 Pt1_0 2.877771 1_555
Pt0_0 Pt1_1 2.877771 1_554
Pt0_1 Pt0_7 2.760665 1_555
Pt0_1 Pt0_3 2.760665 1_555
Pt0_1 Pt0_3 2.760665 1_545
Pt0_1 Pt0_7 2.760665 1_445
Pt0_1 Pt0_5 2.760666 1_555
Pt0_1 Pt0_5 2.760666 1_455
Pt0_1 Pt1_5 2.877769 1_455
Pt0_1 Pt1_4 2.877769 1_455
Pt0_1 Pt1_7 2.877771 1_445
Pt0_1 Pt1_6 2.877771 1_445
Pt0_1 Pt1_1 2.877771 1_555
Pt0_1 Pt1_0 2.877771 1_555
Pt0_2 Pt0_4 2.760665 1_565
Pt0_2 Pt0_4 2.760665 1_455
Pt0_2 Pt0_6 2.760666 1_555
Pt0_2 Pt0_6 2.760666 1_455
Pt0_2 Pt1_6 2.877769 1_455
Pt0_2 Pt1_7 2.877769 1_454
Pt0_2 Pt1_4 2.877771 1_455
Pt0_2 Pt1_5 2.877771 1_454
Pt0_2 Pt1_2 2.877771 1_555
Pt0_2 Pt1_3 2.877771 1_554
Pt0_3 Pt0_5 2.760665 1_565
Pt0_3 Pt0_5 2.760665 1_455
Pt0_3 Pt0_7 2.760666 1_555
Pt0_3 Pt0_7 2.760666 1_455
Pt0_3 Pt1_7 2.877769 1_455
Pt0_3 Pt1_6 2.877769 1_455
Pt0_3 Pt1_5 2.877771 1_455
Pt0_3 Pt1_4 2.877771 1_455
Pt0_3 Pt1_3 2.877771 1_555
Pt0_3 Pt1_2 2.877771 1_555
Pt0_4 Pt0_6 2.760665 1_555
Pt0_4 Pt0_6 2.760665 1_545
Pt0_4 Pt1_0 2.877769 1_555
Pt0_4 Pt1_1 2.877769 1_554
Pt0_4 Pt1_2 2.877771 1_545
Pt0_4 Pt1_3 2.877771 1_544
Pt0_4 Pt1_4 2.877771 1_555
Pt0_4 Pt1_5 2.877771 1_554
Pt0_5 Pt0_7 2.760665 1_555
Pt0_5 Pt0_7 2.760665 1_545
Pt0_5 Pt1_1 2.877769 1_555
Pt0_5 Pt1_0 2.877769 1_555
Pt0_5 Pt1_3 2.877771 1_545
Pt0_5 Pt1_2 2.877771 1_545
Pt0_5 Pt1_5 2.877771 1_555
Pt0_5 Pt1_4 2.877771 1_555
Pt0_6 Pt1_2 2.877769 1_555
Pt0_6 Pt1_3 2.877769 1_554
Pt0_6 Pt1_0 2.877771 1_555
Pt0_6 Pt1_1 2.877771 1_554
Pt0_6 Pt1_6 2.877771 1_555
Pt0_6 Pt1_7 2.877771 1_554
Pt0_7 Pt1_3 2.877769 1_555
Pt0_7 Pt1_2 2.877769 1_555
Pt0_7 Pt1_1 2.877771 1_555
Pt0_7 Pt1_0 2.877771 1_555
Pt0_7 Pt1_7 2.877771 1_555
Pt0_7 Pt1_6 2.877771 1_555
Pt1_0 Pt1_2 2.760665 1_545
Pt1_0 Pt1_6 2.760665 1_445
Pt1_0 Pt1_2 2.760665 1_555
Pt1_0 Pt1_6 2.760665 1_555
Pt1_0 Pt1_4 2.760666 1_455
Pt1_0 Pt1_4 2.760666 1_555
Pt1_1 Pt1_7 2.760665 1_445
Pt1_1 Pt1_3 2.760665 1_545
Pt1_1 Pt1_3 2.760665 1_555
Pt1_1 Pt1_7 2.760665 1_555
Pt1_1 Pt1_5 2.760666 1_455
Pt1_1 Pt1_5 2.760666 1_555
Pt1_2 Pt1_4 2.760665 1_455
Pt1_2 Pt1_4 2.760665 1_565
Pt1_2 Pt1_6 2.760666 1_455
Pt1_2 Pt1_6 2.760666 1_555
Pt1_3 Pt1_5 2.760665 1_455
Pt1_3 Pt1_5 2.760665 1_565
Pt1_3 Pt1_7 2.760666 1_455
Pt1_3 Pt1_7 2.760666 1_555
Pt1_4 Pt1_6 2.760665 1_545
Pt1_4 Pt1_6 2.760665 1_555
Pt1_5 Pt1_7 2.760665 1_545
Pt1_5 Pt1_7 2.760665 1_555
