# generated using pymatgen
data_MgCo6O7F5
_symmetry_space_group_name_H-M   'P 1'
_cell_length_a   8.23726326
_cell_length_b   5.82692877
_cell_length_c   5.90466642
_cell_angle_alpha   64.36562015
_cell_angle_beta   62.67647470
_cell_angle_gamma   62.74452064
_symmetry_Int_Tables_number   1
_chemical_formula_structural   MgCo6O7F5
_chemical_formula_sum   'Mg1 Co6 O7 F5'
_cell_volume   214.77649370
_cell_formula_units_Z   1
loop_
 _symmetry_equiv_pos_site_id
 _symmetry_equiv_pos_as_xyz
  1  'x, y, z'
loop_
 _atom_site_type_symbol
 _atom_site_label
 _atom_site_symmetry_multiplicity
 _atom_site_fract_x
 _atom_site_fract_y
 _atom_site_fract_z
 _atom_site_occupancy
  Mg  Mg0  1  0.49733881  0.99910323  0.50713622  1
  Co  Co0  1  0.89002385  0.68373454  0.70859845  1
  Co  Co1  1  0.30755716  0.64332354  0.67651351  1
  Co  Co2  1  0.68657089  0.35272459  0.34387760  1
  Co  Co3  1  0.10421062  0.30519331  0.31338589  1
  Co  Co4  1  0.49798047  0.99828841  0.00778738  1
  Co  Co5  1  0.99490252  0.02813915  0.97805654  1
  O  O0  1  0.31337552  0.34852309  0.97513852  1
  O  O1  1  0.67314048  0.02950355  0.63985938  1
  O  O2  1  0.95239178  0.23937669  0.22041092  1
  O  O3  1  0.04189616  0.77689175  0.77567955  1
  O  O4  1  0.32344929  0.96450753  0.37429733  1
  O  O5  1  0.67822017  0.64450712  0.04453745  1
  O  O6  1  0.98897108  0.33141319  0.67235611  1
  F  F0  1  0.58713866  0.59048293  0.58120858  1
  F  F1  1  0.30719268  0.91510814  0.86826271  1
  F  F2  1  0.40750288  0.40506581  0.43757192  1
  F  F3  1  0.68498361  0.08323063  0.14167827  1
  F  F4  1  0.00958139  0.70850081  0.29316868  1
loop_
_geom_bond_atom_site_label_1
_geom_bond_atom_site_label_2
_geom_bond_distance
_geom_bond_site_symmetry_2
Mg0 O1 2.034582 1_565
Mg0 O4 2.034764 1_555
Co0 O3 1.810934 1_655
Co0 O6 1.900566 1_555
Co0 O5 1.956204 1_556
Co0 O1 2.019167 1_565
Co0 F4 2.148008 1_655
Co1 O3 1.842658 1_555
Co1 O0 1.855697 1_555
Co1 O4 1.955597 1_555
Co1 F0 2.006471 1_555
Co1 F2 2.043858 1_555
Co1 F1 2.309524 1_555
Co2 O2 1.840866 1_555
Co2 O5 1.850348 1_555
Co2 O1 1.943982 1_555
Co2 F2 2.004923 1_555
Co2 F0 2.034903 1_555
Co2 F3 2.355180 1_555
Co3 O2 1.806686 1_455
Co3 O6 1.928052 1_455
Co3 O0 1.955584 1_554
Co3 O4 2.006604 1_545
Co3 F4 2.075919 1_555
Co4 O0 1.897544 1_564
Co4 O5 1.899058 1_555
Co4 O4 1.955351 1_555
Co4 O1 1.963528 1_564
Co4 F3 2.323291 1_565
Co4 F1 2.369651 1_554
Co5 O6 1.904034 1_555
Co5 F4 1.986779 1_646
Co5 O3 2.071493 1_645
Co5 O2 2.086798 1_556
Co5 F1 2.181299 1_645
Co5 F3 2.192527 1_556
F0 Mg0 2.047052 1_555
F1 Mg0 1.993160 1_555
F2 Mg0 2.036420 1_545
F3 Mg0 2.000669 1_545
