# generated using pymatgen
data_TmSiRu
_symmetry_space_group_name_H-M   'P 1'
_cell_length_a   4.27546727
_cell_length_b   6.89977145
_cell_length_c   7.02701593
_cell_angle_alpha   90.00000000
_cell_angle_beta   90.00000000
_cell_angle_gamma   90.00000000
_symmetry_Int_Tables_number   1
_chemical_formula_structural   TmSiRu
_chemical_formula_sum   'Tm4 Si4 Ru4'
_cell_volume   207.29519213
_cell_formula_units_Z   4
loop_
 _symmetry_equiv_pos_site_id
 _symmetry_equiv_pos_as_xyz
  1  'x, y, z'
loop_
 _atom_site_type_symbol
 _atom_site_label
 _atom_site_symmetry_multiplicity
 _atom_site_fract_x
 _atom_site_fract_y
 _atom_site_fract_z
 _atom_site_occupancy
  Tm  Tm0  1  0.25000000  0.98652720  0.18825861  1
  Tm  Tm1  1  0.75000000  0.01347280  0.81174139  1
  Tm  Tm2  1  0.25000000  0.48652720  0.31174139  1
  Tm  Tm3  1  0.75000000  0.51347280  0.68825861  1
  Si  Si0  1  0.25000000  0.30262920  0.89303735  1
  Si  Si1  1  0.75000000  0.69737080  0.10696265  1
  Si  Si2  1  0.25000000  0.80262920  0.60696265  1
  Si  Si3  1  0.75000000  0.19737080  0.39303735  1
  Ru  Ru0  1  0.75000000  0.84610372  0.43436998  1
  Ru  Ru1  1  0.25000000  0.15389628  0.56563002  1
  Ru  Ru2  1  0.75000000  0.34610372  0.06563002  1
  Ru  Ru3  1  0.25000000  0.65389628  0.93436998  1
loop_
_geom_bond_atom_site_label_1
_geom_bond_atom_site_label_2
_geom_bond_distance
_geom_bond_site_symmetry_2
Si0 Tm3 2.959213 1_455
Si0 Tm3 2.959213 1_555
Si0 Tm1 2.979384 1_455
Si0 Tm1 2.979384 1_555
Si0 Tm0 3.010075 1_546
Si0 Tm2 3.204180 1_556
Si1 Tm2 2.959213 1_655
Si1 Tm2 2.959213 1_555
Si1 Tm0 2.979384 1_555
Si1 Tm0 2.979384 1_655
Si1 Tm1 3.010075 1_564
Si1 Tm3 3.204180 1_554
Si2 Tm1 2.959213 1_565
Si2 Tm1 2.959213 1_465
Si2 Tm3 2.979384 1_555
Si2 Tm3 2.979384 1_455
Si2 Tm2 3.010075 1_555
Si2 Tm0 3.204180 1_555
Si3 Tm0 2.959213 1_645
Si3 Tm0 2.959213 1_545
Si3 Tm2 2.979384 1_555
Si3 Tm2 2.979384 1_655
Si3 Tm3 3.010075 1_555
Si3 Tm1 3.204180 1_555
Ru0 Si3 2.441004 1_565
Ru0 Si2 2.476044 1_555
Ru0 Si2 2.476044 1_655
Ru0 Si1 2.519194 1_555
Ru0 Tm1 2.892334 1_565
Ru0 Tm3 2.906943 1_555
Ru0 Tm0 2.915403 1_555
Ru0 Tm0 2.915403 1_655
Ru1 Si2 2.441004 1_545
Ru1 Si3 2.476044 1_455
Ru1 Si3 2.476044 1_555
Ru1 Si0 2.519194 1_555
Ru1 Tm0 2.892334 1_545
Ru1 Tm2 2.906943 1_555
Ru1 Tm1 2.915403 1_555
Ru1 Tm1 2.915403 1_455
Ru2 Si1 2.441004 1_555
Ru2 Si0 2.476044 1_654
Ru2 Si0 2.476044 1_554
Ru2 Si3 2.519194 1_555
Ru2 Tm3 2.892334 1_554
Ru2 Tm1 2.906943 1_554
Ru2 Tm2 2.915403 1_655
Ru2 Tm2 2.915403 1_555
Ru3 Si0 2.441004 1_555
Ru3 Si1 2.476044 1_556
Ru3 Si1 2.476044 1_456
Ru3 Si2 2.519194 1_555
Ru3 Tm2 2.892334 1_556
Ru3 Tm0 2.906943 1_556
Ru3 Tm3 2.915403 1_555
Ru3 Tm3 2.915403 1_455
