# generated using pymatgen
data_Hg2P3Br
_symmetry_space_group_name_H-M   'P 1'
_cell_length_a   7.94373100
_cell_length_b   8.17182400
_cell_length_c   9.13922200
_cell_angle_alpha   90.00000000
_cell_angle_beta   90.00000000
_cell_angle_gamma   90.00000000
_symmetry_Int_Tables_number   1
_chemical_formula_structural   Hg2P3Br
_chemical_formula_sum   'Hg8 P12 Br4'
_cell_volume   593.27050905
_cell_formula_units_Z   4
loop_
 _symmetry_equiv_pos_site_id
 _symmetry_equiv_pos_as_xyz
  1  'x, y, z'
loop_
 _atom_site_type_symbol
 _atom_site_label
 _atom_site_symmetry_multiplicity
 _atom_site_fract_x
 _atom_site_fract_y
 _atom_site_fract_z
 _atom_site_occupancy
  Hg  Hg0  1  0.89292700  0.21691600  0.67192700  1
  Hg  Hg1  1  0.60707300  0.78308400  0.67192700  1
  Hg  Hg2  1  0.10707300  0.71691600  0.82807300  1
  Hg  Hg3  1  0.39292700  0.28308400  0.82807300  1
  Hg  Hg4  1  0.89292700  0.28308400  0.17192700  1
  Hg  Hg5  1  0.39292700  0.21691600  0.32807300  1
  Hg  Hg6  1  0.10707300  0.78308400  0.32807300  1
  Hg  Hg7  1  0.60707300  0.71691600  0.17192700  1
  P  P0  1  0.07772200  0.11168300  0.01592900  1
  P  P1  1  0.57772200  0.38831700  0.48407100  1
  P  P2  1  0.92227800  0.61168300  0.48407100  1
  P  P3  1  0.42227800  0.88831700  0.01592900  1
  P  P4  1  0.92227800  0.88831700  0.98407100  1
  P  P5  1  0.42227800  0.61168300  0.51592900  1
  P  P6  1  0.07772200  0.38831700  0.51592900  1
  P  P7  1  0.25000000  0.00000000  0.17858900  1
  P  P8  1  0.25000000  0.50000000  0.67858900  1
  P  P9  1  0.75000000  0.00000000  0.82141100  1
  P  P10  1  0.75000000  0.50000000  0.32141100  1
  P  P11  1  0.57772200  0.11168300  0.98407100  1
  Br  Br0  1  0.25000000  0.50000000  0.11357000  1
  Br  Br1  1  0.75000000  0.50000000  0.88643000  1
  Br  Br2  1  0.75000000  0.00000000  0.38643000  1
  Br  Br3  1  0.25000000  0.00000000  0.61357000  1
loop_
_geom_bond_atom_site_label_1
_geom_bond_atom_site_label_2
_geom_bond_distance
_geom_bond_site_symmetry_2
Hg0 P6 2.479794 1_655
Hg0 P9 2.509501 1_555
Hg1 P5 2.479794 1_555
Hg1 P9 2.509501 1_565
Hg2 P4 2.479794 1_455
Hg2 P8 2.509501 1_555
Hg3 P11 2.479794 1_555
Hg3 P8 2.509501 1_555
Hg4 P0 2.479794 1_655
Hg4 P10 2.509501 1_555
Hg5 P1 2.479794 1_555
Hg5 P7 2.509501 1_555
Hg6 P2 2.479794 1_455
Hg6 P7 2.509501 1_565
Hg7 P3 2.479794 1_555
Hg7 P10 2.509501 1_555
P0 P7 2.217149 1_555
P0 P4 2.222896 1_444
P1 P10 2.217149 1_555
P1 P5 2.222896 1_555
P2 P6 2.222896 1_655
P3 P7 2.217149 1_565
P4 P9 2.217149 1_565
P5 P8 2.217149 1_555
P6 P8 2.217149 1_555
P10 P2 2.217149 1_555
P11 P9 2.217149 1_555
P11 P3 2.222896 1_546
Br0 Hg5 3.237842 1_555
Br0 Hg6 3.237842 1_555
Br1 Hg0 3.237842 1_555
Br1 Hg1 3.237842 1_555
Br2 Hg4 3.237842 1_555
Br2 Hg7 3.237842 1_545
Br3 Hg3 3.237842 1_555
Br3 Hg2 3.237842 1_545
