# generated using pymatgen
data_SrCeO3
_symmetry_space_group_name_H-M   'P 1'
_cell_length_a   6.00426811
_cell_length_b   6.17442523
_cell_length_c   8.60143538
_cell_angle_alpha   90.00000000
_cell_angle_beta   90.00000000
_cell_angle_gamma   90.00000000
_symmetry_Int_Tables_number   1
_chemical_formula_structural   SrCeO3
_chemical_formula_sum   'Sr4 Ce4 O12'
_cell_volume   318.88019246
_cell_formula_units_Z   4
loop_
 _symmetry_equiv_pos_site_id
 _symmetry_equiv_pos_as_xyz
  1  'x, y, z'
loop_
 _atom_site_type_symbol
 _atom_site_label
 _atom_site_symmetry_multiplicity
 _atom_site_fract_x
 _atom_site_fract_y
 _atom_site_fract_z
 _atom_site_occupancy
  Sr  Sr0  1  0.98728402  0.45192256  0.25000000  1
  Sr  Sr1  1  0.48728402  0.04807744  0.75000000  1
  Sr  Sr2  1  0.51271598  0.95192256  0.25000000  1
  Sr  Sr3  1  0.01271598  0.54807744  0.75000000  1
  Ce  Ce0  1  0.50000000  0.50000000  0.50000000  1
  Ce  Ce1  1  0.50000000  0.50000000  0.00000000  1
  Ce  Ce2  1  -0.00000000  0.00000000  0.00000000  1
  Ce  Ce3  1  -0.00000000  0.00000000  0.50000000  1
  O  O0  1  0.39223885  0.54573981  0.25000000  1
  O  O1  1  0.29985276  0.79928487  0.55759332  1
  O  O2  1  0.79985276  0.70071513  0.44240668  1
  O  O3  1  0.70014724  0.20071513  0.44240668  1
  O  O4  1  0.20014724  0.29928487  0.94240668  1
  O  O5  1  0.20014724  0.29928487  0.55759332  1
  O  O6  1  0.79985276  0.70071513  0.05759332  1
  O  O7  1  0.89223885  0.95426019  0.75000000  1
  O  O8  1  0.10776115  0.04573981  0.25000000  1
  O  O9  1  0.70014724  0.20071513  0.05759332  1
  O  O10  1  0.60776115  0.45426019  0.75000000  1
  O  O11  1  0.29985276  0.79928487  0.94240668  1
loop_
_geom_bond_atom_site_label_1
_geom_bond_atom_site_label_2
_geom_bond_distance
_geom_bond_site_symmetry_2
Ce0 O2 2.241138 1_555
Ce0 O5 2.241138 1_555
Ce0 O3 2.259283 1_555
Ce0 O1 2.259283 1_555
Ce0 O10 2.263282 1_555
Ce0 O0 2.263282 1_555
Ce1 O6 2.241138 1_555
Ce1 O4 2.241138 1_554
Ce1 O9 2.259283 1_555
Ce1 O11 2.259283 1_554
Ce1 O10 2.263282 1_554
Ce1 O0 2.263282 1_555
Ce2 O11 2.241138 1_544
Ce2 O9 2.241138 1_455
Ce2 O6 2.259283 1_445
Ce2 O4 2.259283 1_554
Ce2 O8 2.263282 1_555
Ce2 O7 2.263282 1_444
Ce3 O1 2.241138 1_545
Ce3 O3 2.241138 1_455
Ce3 O5 2.259283 1_555
Ce3 O2 2.259283 1_445
Ce3 O8 2.263282 1_555
Ce3 O7 2.263282 1_445
O0 Sr0 2.499507 1_455
O0 Sr2 2.610184 1_555
O1 Sr1 2.522934 1_565
O1 Sr3 2.849046 1_555
O1 Sr2 3.085722 1_555
O2 Sr0 2.522934 1_555
O2 Sr2 2.849046 1_555
O2 Sr3 3.085722 1_655
O3 Sr2 2.522934 1_545
O3 Sr0 2.849046 1_555
O3 Sr1 3.085722 1_555
O4 Sr3 2.522934 1_555
O4 Sr1 2.849046 1_555
O4 Sr0 3.085722 1_456
O5 Sr3 2.522934 1_555
O5 Sr1 2.849046 1_555
O5 Sr0 3.085722 1_455
O6 Sr0 2.522934 1_555
O6 Sr2 2.849046 1_555
O6 Sr3 3.085722 1_654
O7 Sr1 2.499507 1_565
O7 Sr3 2.610184 1_655
O8 Sr2 2.499507 1_545
O8 Sr0 2.610184 1_455
O9 Sr2 2.522934 1_545
O9 Sr0 2.849046 1_555
O9 Sr1 3.085722 1_554
O10 Sr3 2.499507 1_655
O10 Sr1 2.610184 1_555
O11 Sr1 2.522934 1_565
O11 Sr3 2.849046 1_555
O11 Sr2 3.085722 1_556
