# generated using pymatgen
data_Na3CaTaSi2SO12
_symmetry_space_group_name_H-M   'P 1'
_cell_length_a   9.25673890
_cell_length_b   9.25673856
_cell_length_c   22.66713723
_cell_angle_alpha   90.43106848
_cell_angle_beta   89.56893152
_cell_angle_gamma   119.84147222
_symmetry_Int_Tables_number   1
_chemical_formula_structural   Na3CaTaSi2SO12
_chemical_formula_sum   'Na18 Ca6 Ta6 Si12 S6 O72'
_cell_volume   1684.68397059
_cell_formula_units_Z   6
loop_
 _symmetry_equiv_pos_site_id
 _symmetry_equiv_pos_as_xyz
  1  'x, y, z'
loop_
 _atom_site_type_symbol
 _atom_site_label
 _atom_site_symmetry_multiplicity
 _atom_site_fract_x
 _atom_site_fract_y
 _atom_site_fract_z
 _atom_site_occupancy
  Na  Na0  1  0.68040508  0.02139174  0.25712616  1
  Na  Na1  1  0.96690340  0.61515920  0.24211406  1
  Na  Na2  1  0.97860826  0.31959492  0.75712616  1
  Na  Na3  1  0.38484080  0.03309660  0.74211406  1
  Na  Na4  1  0.34707208  0.35472474  0.59045916  1
  Na  Na5  1  0.63357040  0.94849220  0.57544706  1
  Na  Na6  1  0.64527526  0.65292792  0.09045916  1
  Na  Na7  1  0.05150780  0.36642960  0.07544706  1
  Na  Na8  1  0.01373808  0.68805874  0.92379316  1
  Na  Na9  1  0.30023640  0.28182620  0.90878106  1
  Na  Na10  1  0.31194126  0.98626192  0.42379316  1
  Na  Na11  1  0.71817380  0.69976360  0.40878106  1
  Na  Na12  1  0.97738250  0.97154044  0.49404610  1
  Na  Na13  1  0.02845956  0.02261750  0.99404610  1
  Na  Na14  1  0.64404950  0.30487344  0.82737910  1
  Na  Na15  1  0.69512656  0.35595050  0.32737910  1
  Na  Na16  1  0.31071550  0.63820744  0.16071310  1
  Na  Na17  1  0.36179256  0.68928450  0.66071310  1
  Ca  Ca0  1  -0.00248711  0.00679113  0.35170153  1
  Ca  Ca1  1  0.99320887  0.00248711  0.85170153  1
  Ca  Ca2  1  0.66417989  0.34012413  0.68503453  1
  Ca  Ca3  1  0.65987587  0.33582011  0.18503453  1
  Ca  Ca4  1  0.33084589  0.67345813  0.01836853  1
  Ca  Ca5  1  0.32654187  0.66915411  0.51836853  1
  Ta  Ta0  1  0.99478772  0.99954097  0.64714189  1
  Ta  Ta1  1  0.00045903  0.00521228  0.14714189  1
  Ta  Ta2  1  0.66145472  0.33287397  0.98047489  1
  Ta  Ta3  1  0.66712603  0.33854528  0.48047489  1
  Ta  Ta4  1  0.32812072  0.66620797  0.31380889  1
  Ta  Ta5  1  0.33379203  0.67187928  0.81380889  1
  Si  Si0  1  0.69542300  0.70620056  0.25337325  1
  Si  Si1  1  0.01071365  0.30453647  0.25050368  1
  Si  Si2  1  0.29379944  0.30457700  0.75337325  1
  Si  Si3  1  0.69546353  0.98928635  0.75050368  1
  Si  Si4  1  0.36209000  0.03953356  0.58670625  1
  Si  Si5  1  0.67738065  0.63786947  0.58383668  1
  Si  Si6  1  0.96046644  0.63791000  0.08670625  1
  Si  Si7  1  0.36213053  0.32261935  0.08383668  1
  Si  Si8  1  0.02875600  0.37286756  0.92004025  1
  Si  Si9  1  0.34404665  0.97120347  0.91717068  1
  Si  Si10  1  0.62713244  0.97124400  0.42004025  1
  Si  Si11  1  0.02879653  0.65595335  0.41717068  1
  S  S0  1  0.28643946  0.98342717  0.24997739  1
  S  S1  1  0.01657283  0.71356054  0.74997739  1
  S  S2  1  0.95310646  0.31676017  0.58331039  1
  S  S3  1  0.68323983  0.04689354  0.08331039  1
  S  S4  1  0.61977246  0.65009417  0.91664439  1
  S  S5  1  0.34990583  0.38022754  0.41664439  1
  O  O0  1  0.22547655  0.01053309  0.30564442  1
  O  O1  1  0.79977103  0.78727386  0.31127927  1
  O  O2  1  0.98719174  0.19371008  0.30529117  1
  O  O3  1  0.21272614  0.20022897  0.81127927  1
  O  O4  1  0.98946691  0.77452345  0.80564442  1
  O  O5  1  0.80628992  0.01280826  0.80529117  1
  O  O6  1  0.80071078  0.97121768  0.68981264  1
  O  O7  1  0.15632963  0.19196371  0.69538663  1
  O  O8  1  0.02936683  0.82587749  0.69943311  1
  O  O9  1  0.80803629  0.84367037  0.19538663  1
  O  O10  1  0.02878232  0.19928922  0.18981264  1
  O  O11  1  0.17412251  0.97063317  0.19943311  1
  O  O12  1  0.89214355  0.34386609  0.63897742  1
  O  O13  1  0.46643803  0.12060686  0.64461227  1
  O  O14  1  0.65385874  0.52704308  0.63862417  1
  O  O15  1  0.87939314  0.53356197  0.14461227  1
  O  O16  1  0.65613391  0.10785645  0.13897742  1
  O  O17  1  0.47295692  0.34614126  0.13862417  1
  O  O18  1  0.46737778  0.30455068  0.02314564  1
  O  O19  1  0.82299663  0.52529671  0.02871963  1
  O  O20  1  0.69603383  0.15921049  0.03276611  1
  O  O21  1  0.47470329  0.17700337  0.52871963  1
  O  O22  1  0.69544932  0.53262222  0.52314564  1
  O  O23  1  0.84078951  0.30396617  0.53276611  1
  O  O24  1  0.55880955  0.67720009  0.97231142  1
  O  O25  1  0.13310403  0.45394086  0.97794627  1
  O  O26  1  0.32052474  0.86037708  0.97195817  1
  O  O27  1  0.54605914  0.86689597  0.47794627  1
  O  O28  1  0.32279991  0.44119045  0.47231142  1
  O  O29  1  0.13962292  0.67947526  0.47195817  1
  O  O30  1  0.13404378  0.63788468  0.35647964  1
  O  O31  1  0.48966263  0.85863071  0.36205363  1
  O  O32  1  0.36269983  0.49254449  0.36610011  1
  O  O33  1  0.14136929  0.51033737  0.86205363  1
  O  O34  1  0.36211532  0.86595622  0.85647964  1
  O  O35  1  0.50745551  0.63730017  0.86610011  1
  O  O36  1  0.00714221  0.81762790  0.41220580  1
  O  O37  1  0.81013669  0.99781681  0.41441854  1
  O  O38  1  0.22659771  0.20635863  0.40692209  1
  O  O39  1  0.00218319  0.18986331  0.91441854  1
  O  O40  1  0.18237210  0.99285779  0.91220580  1
  O  O41  1  0.79364137  0.77340229  0.90692209  1
  O  O42  1  0.94221349  0.14615903  0.58375242  1
  O  O43  1  0.18249227  0.04624471  0.59074879  1
  O  O44  1  0.85189449  0.82552042  0.58912107  1
  O  O45  1  0.95375529  0.81750773  0.09074879  1
  O  O46  1  0.85384097  0.05778651  0.08375242  1
  O  O47  1  0.17447958  0.14810551  0.08912107  1
  O  O48  1  0.67380921  0.15096090  0.74553880  1
  O  O49  1  0.47680369  0.33114981  0.74775154  1
  O  O50  1  0.89326471  0.53969163  0.74025509  1
  O  O51  1  0.66885019  0.52319631  0.24775154  1
  O  O52  1  0.84903910  0.32619079  0.24553880  1
  O  O53  1  0.46030837  0.10673529  0.24025509  1
  O  O54  1  0.60888049  0.47949203  0.91708542  1
  O  O55  1  0.84915927  0.37957771  0.92408179  1
  O  O56  1  0.51856149  0.15885342  0.92245407  1
  O  O57  1  0.62042229  0.15084073  0.42408179  1
  O  O58  1  0.52050797  0.39111951  0.41708542  1
  O  O59  1  0.84114658  0.48143851  0.42245407  1
  O  O60  1  0.34047521  0.48429490  0.07887280  1
  O  O61  1  0.14346969  0.66448381  0.08108554  1
  O  O62  1  0.55993071  0.87302563  0.07358909  1
  O  O63  1  0.33551619  0.85653031  0.58108554  1
  O  O64  1  0.51570510  0.65952479  0.57887280  1
  O  O65  1  0.12697437  0.44006929  0.57358909  1
  O  O66  1  0.27554649  0.81282603  0.25041942  1
  O  O67  1  0.51582527  0.71291171  0.25741579  1
  O  O68  1  0.18522749  0.49218742  0.25578807  1
  O  O69  1  0.28708829  0.48417473  0.75741579  1
  O  O70  1  0.18717397  0.72445351  0.75041942  1
  O  O71  1  0.50781258  0.81477251  0.75578807  1
loop_
_geom_bond_atom_site_label_1
_geom_bond_atom_site_label_2
_geom_bond_distance
_geom_bond_site_symmetry_2
Na0 O52 2.467405 1_555
Na0 O67 2.479051 1_545
Na0 O53 2.557214 1_555
Na0 O2 2.704320 1_555
Na0 O9 2.817003 1_545
Na0 O16 2.843157 1_555
Na0 O31 2.896133 1_545
Na1 O52 2.334294 1_555
Na1 O15 2.346080 1_555
Na1 O51 2.451940 1_555
Na1 O66 2.519201 1_655
Na1 O68 2.789329 1_655
Na2 O48 2.467405 1_555
Na2 O69 2.479051 1_655
Na2 O50 2.557214 1_555
Na2 O5 2.704320 1_555
Na2 O7 2.817003 1_655
Na2 O12 2.843157 1_555
Na2 O33 2.896133 1_655
Na3 O48 2.334295 1_555
Na3 O13 2.346080 1_555
Na3 O49 2.451940 1_555
Na3 O70 2.519201 1_545
Na3 O71 2.789329 1_545
Na4 O64 2.467410 1_555
Na4 O43 2.479051 1_555
Na4 O65 2.557225 1_555
Na4 O14 2.704320 1_555
Na4 O21 2.817003 1_555
Na4 O28 2.843141 1_555
Na4 O7 2.896133 1_555
Na5 O64 2.334286 1_555
Na5 O27 2.346059 1_555
Na5 O63 2.451952 1_555
Na5 O42 2.519201 1_565
Na5 O44 2.789329 1_555
Na6 O60 2.467410 1_555
Na6 O45 2.479051 1_555
Na6 O62 2.557225 1_555
Na6 O17 2.704320 1_555
Na6 O19 2.817003 1_555
Na6 O24 2.843141 1_554
Na6 O9 2.896133 1_555
Na7 O60 2.334286 1_555
Na7 O25 2.346059 1_554
Na7 O61 2.451952 1_555
Na7 O46 2.519201 1_455
Na7 O47 2.789329 1_555
Na8 O40 2.467405 1_555
Na8 O55 2.479058 1_455
Na8 O41 2.557214 1_455
Na8 O26 2.704320 1_555
Na8 O33 2.817003 1_555
Na8 O4 2.843157 1_455
Na8 O19 2.896114 1_456
Na9 O40 2.334294 1_545
Na9 O3 2.346080 1_555
Na9 O39 2.451940 1_555
Na9 O54 2.519205 1_555
Na9 O56 2.789342 1_555
Na10 O36 2.467405 1_555
Na10 O57 2.479058 1_565
Na10 O38 2.557214 1_565
Na10 O29 2.704320 1_555
Na10 O31 2.817003 1_555
Na10 O0 2.843157 1_565
Na10 O21 2.896113 1_565
Na11 O36 2.334295 1_655
Na11 O1 2.346080 1_555
Na11 O37 2.451940 1_555
Na11 O58 2.519205 1_555
Na11 O59 2.789342 1_555
Na12 O36 2.426978 1_655
Na12 O37 2.477319 1_555
Na12 O44 2.502856 1_555
Na12 O42 2.705118 1_565
Na12 O43 2.760610 1_665
Na12 O38 2.992044 1_665
Na13 O40 2.426978 1_545
Na13 O39 2.477319 1_555
Na13 O47 2.502856 1_556
Na13 O46 2.705118 1_456
Na13 O45 2.760610 1_446
Na13 O41 2.992044 1_445
Na14 O48 2.426978 1_555
Na14 O49 2.477319 1_555
Na14 O56 2.502856 1_555
Na14 O54 2.705118 1_555
Na14 O55 2.760610 1_555
Na14 O50 2.992044 1_555
Na15 O52 2.426978 1_555
Na15 O51 2.477319 1_555
Na15 O59 2.502856 1_555
Na15 O58 2.705118 1_555
Na15 O57 2.760610 1_555
Na15 O53 2.992044 1_555
Na16 O60 2.426978 1_555
Na16 O61 2.477319 1_555
Na16 O68 2.502856 1_555
Na16 O66 2.705118 1_555
Na16 O67 2.760610 1_555
Na16 O62 2.992044 1_555
Na17 O64 2.426978 1_555
Na17 O63 2.477319 1_555
Na17 O71 2.502856 1_555
Na17 O70 2.705118 1_555
Na17 O69 2.760610 1_555
Na17 O65 2.992044 1_555
Ca0 O2 2.074374 1_455
Ca0 O1 2.148187 1_445
Ca0 O37 2.204003 1_445
Ca0 O36 2.268980 1_545
Ca0 O0 2.332101 1_555
Ca0 O38 2.362787 1_555
Ca1 O5 2.074374 1_555
Ca1 O3 2.148187 1_655
Ca1 O39 2.204003 1_655
Ca1 O40 2.268980 1_645
Ca1 O4 2.332101 1_545
Ca1 O41 2.362787 1_545
Ca2 O14 2.074374 1_555
Ca2 O13 2.148187 1_555
Ca2 O49 2.204003 1_555
Ca2 O48 2.268980 1_555
Ca2 O12 2.332101 1_555
Ca2 O50 2.362787 1_555
Ca3 O17 2.074374 1_555
Ca3 O15 2.148187 1_555
Ca3 O51 2.204003 1_555
Ca3 O52 2.268980 1_555
Ca3 O16 2.332101 1_555
Ca3 O53 2.362787 1_555
Ca4 O26 2.074374 1_554
Ca4 O25 2.148187 1_554
Ca4 O61 2.204003 1_555
Ca4 O60 2.268980 1_555
Ca4 O24 2.332101 1_554
Ca4 O62 2.362787 1_555
Ca5 O29 2.074374 1_555
Ca5 O27 2.148187 1_555
Ca5 O63 2.204003 1_555
Ca5 O64 2.268980 1_555
Ca5 O28 2.332101 1_555
Ca5 O65 2.362787 1_555
O0 S0 1.448799 1_545
O1 Si0 1.581731 1_555
O2 Si1 1.560422 1_655
O3 Si2 1.581731 1_555
O4 S1 1.448799 1_655
O5 Si3 1.560422 1_545
O6 Si3 1.734416 1_555
O6 Ta0 1.934078 1_555
O7 Si2 1.765784 1_555
O7 Ta0 1.987262 1_445
O8 S1 1.516883 1_555
O8 Ta0 2.153623 1_455
O9 Si0 1.765784 1_555
O9 Ta1 1.987262 1_665
O10 Si1 1.734416 1_555
O10 Ta1 1.934078 1_555
O11 S0 1.516883 1_555
O11 Ta1 2.153623 1_565
O12 S2 1.448799 1_555
O13 Si4 1.581731 1_555
O14 Si5 1.560422 1_555
O15 Si6 1.581731 1_555
O16 S3 1.448799 1_555
O17 Si7 1.560422 1_555
O18 Si7 1.734416 1_555
O18 Ta2 1.934078 1_554
O19 Si6 1.765784 1_555
O19 Ta2 1.987262 1_554
O20 S3 1.516883 1_555
O20 Ta2 2.153623 1_554
O21 Si4 1.765784 1_555
O21 Ta3 1.987262 1_555
O22 Si5 1.734416 1_555
O22 Ta3 1.934078 1_555
O23 S2 1.516883 1_555
O23 Ta3 2.153623 1_555
O24 S4 1.448799 1_555
O25 Si8 1.581731 1_555
O26 Si9 1.560422 1_555
O27 Si10 1.581731 1_555
O28 S5 1.448799 1_555
O29 Si11 1.560422 1_555
O30 Si11 1.734416 1_555
O30 Ta4 1.934078 1_555
O31 Si10 1.765784 1_555
O31 Ta4 1.987262 1_555
O32 S5 1.516883 1_555
O32 Ta4 2.153623 1_555
O33 Si8 1.765784 1_555
O33 Ta5 1.987262 1_555
O34 Si9 1.734416 1_555
O34 Ta5 1.934078 1_555
O35 S4 1.516883 1_555
O35 Ta5 2.153623 1_555
O36 Si11 1.610595 1_555
O37 Si10 1.590279 1_555
O38 S5 1.453259 1_555
O39 Si8 1.590278 1_555
O40 Si9 1.610595 1_555
O41 S4 1.453259 1_555
O42 S2 1.531640 1_555
O42 Ta0 2.200139 1_545
O43 Si4 1.696034 1_555
O43 Ta0 2.016734 1_445
O44 Si5 1.687730 1_555
O44 Ta0 1.986940 1_555
O45 Si6 1.696034 1_555
O45 Ta1 2.016734 1_665
O46 S3 1.531640 1_555
O46 Ta1 2.200139 1_655
O47 Si7 1.687730 1_555
O47 Ta1 1.986940 1_555
O48 Si3 1.610595 1_545
O49 Si2 1.590279 1_555
O50 S1 1.453259 1_655
O51 Si0 1.590278 1_555
O52 Si1 1.610595 1_655
O53 S0 1.453259 1_545
O54 S4 1.531653 1_555
O54 Ta2 2.200139 1_555
O55 Si8 1.696019 1_655
O55 Ta2 2.016734 1_555
O56 Si9 1.687728 1_545
O56 Ta2 1.986940 1_555
O57 Si10 1.696019 1_545
O57 Ta3 2.016734 1_555
O58 S5 1.531653 1_555
O58 Ta3 2.200139 1_555
O59 Si11 1.687728 1_655
O59 Ta3 1.986940 1_555
O60 Si7 1.610608 1_555
O61 Si6 1.590264 1_455
O62 S3 1.453251 1_565
O63 Si4 1.590264 1_565
O64 Si5 1.610608 1_555
O65 S2 1.453251 1_455
O66 S0 1.531640 1_555
O66 Ta4 2.200139 1_555
O67 Si0 1.696034 1_555
O67 Ta4 2.016734 1_555
O68 Si1 1.687730 1_555
O68 Ta4 1.986940 1_555
O69 Si2 1.696034 1_555
O69 Ta5 2.016734 1_555
O70 S1 1.531640 1_555
O70 Ta5 2.200139 1_555
O71 Si3 1.687730 1_555
O71 Ta5 1.986940 1_555
