# generated using pymatgen
data_Sr8MgMn6O20
_symmetry_space_group_name_H-M   'P 1'
_cell_length_a   5.55907868
_cell_length_b   6.80723852
_cell_length_c   13.74757547
_cell_angle_alpha   90.59029207
_cell_angle_beta   90.81857993
_cell_angle_gamma   114.52876013
_symmetry_Int_Tables_number   1
_chemical_formula_structural   Sr8MgMn6O20
_chemical_formula_sum   'Sr8 Mg1 Mn6 O20'
_cell_volume   473.16205272
_cell_formula_units_Z   1
loop_
 _symmetry_equiv_pos_site_id
 _symmetry_equiv_pos_as_xyz
  1  'x, y, z'
loop_
 _atom_site_type_symbol
 _atom_site_label
 _atom_site_symmetry_multiplicity
 _atom_site_fract_x
 _atom_site_fract_y
 _atom_site_fract_z
 _atom_site_occupancy
  Sr  Sr0  1  0.20930700  0.45551600  0.14843900  1
  Sr  Sr1  1  0.76318300  0.56309200  0.81861000  1
  Sr  Sr2  1  0.73171100  0.47128900  0.39343900  1
  Sr  Sr3  1  0.26326400  0.52847300  0.61366900  1
  Sr  Sr4  1  0.97845000  0.95612400  0.62980600  1
  Sr  Sr5  1  0.03356200  0.05694900  0.36726100  1
  Sr  Sr6  1  0.51857400  0.02478700  0.15792500  1
  Sr  Sr7  1  0.47373100  0.97825400  0.85782200  1
  Mg  Mg0  1  0.71049000  0.44555300  0.02420600  1
  Mn  Mn0  1  0.62472700  0.25450000  0.64486600  1
  Mn  Mn1  1  0.37129800  0.73475200  0.35126100  1
  Mn  Mn2  1  0.85856700  0.73700600  0.16474800  1
  Mn  Mn3  1  0.13871500  0.28886100  0.84226600  1
  Mn  Mn4  1  0.50431500  0.99909600  0.49645200  1
  Mn  Mn5  1  0.97474700  0.99569300  0.00706000  1
  O  O0  1  0.35946900  0.24132400  0.72942300  1
  O  O1  1  0.15018900  0.75830200  0.25003700  1
  O  O2  1  0.66027400  0.77090500  0.26870900  1
  O  O3  1  0.83868700  0.22802100  0.74992200  1
  O  O4  1  0.16114200  0.77544600  0.45595400  1
  O  O5  1  0.38461600  0.21820800  0.52994200  1
  O  O6  1  0.40779100  0.30041400  0.93750800  1
  O  O7  1  0.05910600  0.73945600  0.04469400  1
  O  O8  1  0.84767800  0.21573700  0.53423400  1
  O  O9  1  0.61707700  0.77590600  0.46332200  1
  O  O10  1  0.60493100  0.72697900  0.06866000  1
  O  O11  1  0.84706600  0.21785900  0.99237500  1
  O  O12  1  0.78427600  0.55988600  0.64402500  1
  O  O13  1  0.22536400  0.43908000  0.34242700  1
  O  O14  1  0.03486700  0.05498900  0.14923000  1
  O  O15  1  0.96663800  0.95452500  0.86698000  1
  O  O16  1  0.46270200  0.93059700  0.63165600  1
  O  O17  1  0.70229200  0.42562600  0.16791600  1
  O  O18  1  0.27541500  0.58914500  0.81584400  1
  O  O19  1  0.53911500  0.06912800  0.36014800  1
loop_
_geom_bond_atom_site_label_1
_geom_bond_atom_site_label_2
_geom_bond_distance
_geom_bond_site_symmetry_2
Mg0 O6 1.940705 1_554
Mg0 O17 1.981587 1_555
Mg0 O11 2.035421 1_554
Mg0 O7 2.142729 1_655
Mg0 O10 2.303778 1_555
Mn0 O0 1.864154 1_555
Mn0 O12 1.891622 1_555
Mn0 O3 1.915046 1_555
Mn0 O5 1.999195 1_555
Mn0 O16 2.010947 1_545
Mn0 O8 2.058174 1_555
Mn1 O13 1.833113 1_555
Mn1 O1 1.895357 1_555
Mn1 O2 1.912794 1_555
Mn1 O4 1.954904 1_555
Mn1 O9 1.982870 1_555
Mn1 O19 2.072228 1_565
Mn2 O2 1.886914 1_555
Mn2 O10 1.898079 1_555
Mn2 O17 1.929645 1_555
Mn2 O1 1.941904 1_655
Mn2 O14 1.986337 1_665
Mn2 O7 2.001194 1_655
Mn3 O18 1.902950 1_555
Mn3 O6 1.949943 1_555
Mn3 O3 1.979930 1_455
Mn3 O0 2.095488 1_555
Mn3 O15 2.104236 1_445
Mn3 O11 2.566382 1_455
Mn4 O16 1.914781 1_555
Mn4 O9 1.921807 1_555
Mn4 O5 1.923056 1_565
Mn4 O8 1.925281 1_565
Mn4 O19 1.930853 1_565
Mn4 O4 1.951378 1_555
Mn5 O11 1.930076 1_564
Mn5 O15 1.940369 1_554
Mn5 O14 1.986892 1_665
Mn5 O7 2.054484 1_655
Mn5 O10 2.291044 1_555
Mn5 O6 2.640595 1_664
O0 Sr4 2.564967 1_445
O0 Sr1 2.668753 1_555
O0 Sr3 2.747173 1_555
O0 Sr7 2.775564 1_545
O1 Sr6 2.474875 1_565
O1 Sr0 2.612155 1_555
O1 Sr5 2.864800 1_565
O1 Sr2 3.090667 1_455
O2 Sr5 2.538434 1_665
O2 Sr6 2.660294 1_565
O2 Sr2 2.825408 1_555
O2 Sr0 2.994575 1_555
O3 Sr7 2.545803 1_545
O3 Sr1 2.651841 1_555
O3 Sr4 2.814935 1_545
O3 Sr3 3.075660 1_655
O4 Sr2 2.554440 1_455
O4 Sr5 2.610295 1_565
O4 Sr3 2.946561 1_555
O4 Sr4 3.049978 1_455
O5 Sr4 2.638228 1_445
O5 Sr3 2.719530 1_555
O5 Sr2 2.760916 1_555
O5 Sr5 2.839241 1_555
O6 Sr7 2.602545 1_545
O6 Sr1 2.644170 1_555
O7 Sr0 2.798221 1_555
O7 Sr6 2.902531 1_565
O8 Sr4 2.542678 1_545
O8 Sr3 2.618849 1_655
O8 Sr2 2.855382 1_555
O8 Sr5 2.906788 1_655
O9 Sr2 2.588924 1_555
O9 Sr5 2.688164 1_665
O9 Sr3 2.900844 1_555
O9 Sr4 2.922939 1_555
O10 Sr0 2.488145 1_555
O10 Sr6 2.572897 1_565
O11 Sr7 2.721542 1_545
O11 Sr0 2.894064 1_656
O11 Sr6 2.903350 1_556
O12 Sr1 2.404972 1_555
O12 Sr4 2.465397 1_555
O12 Sr3 2.795121 1_655
O12 Sr3 2.838678 1_555
O13 Sr5 2.397034 1_555
O13 Sr0 2.672132 1_555
O13 Sr2 2.809112 1_555
O13 Sr2 2.936363 1_455
O14 Sr0 2.485929 1_555
O14 Sr6 2.781623 1_555
O14 Sr6 2.795439 1_455
O14 Sr5 2.997416 1_555
O15 Sr1 2.502219 1_555
O15 Sr7 2.760620 1_655
O15 Sr7 2.812152 1_555
O15 Sr4 3.262206 1_555
O16 Sr3 2.498361 1_555
O16 Sr4 2.768432 1_455
O16 Sr4 2.799915 1_555
O16 Sr7 3.119871 1_555
O17 Sr6 2.486295 1_555
O17 Sr0 2.757493 1_655
O17 Sr0 2.840213 1_555
O17 Sr2 3.107935 1_555
O18 Sr7 2.467813 1_555
O18 Sr1 2.779442 1_455
O18 Sr1 2.789593 1_555
O18 Sr3 2.801448 1_555
O19 Sr2 2.525232 1_555
O19 Sr5 2.780179 1_555
O19 Sr5 2.784478 1_655
O19 Sr6 2.788905 1_555
