# generated using pymatgen
data_TbCd2F8
_symmetry_space_group_name_H-M   'P 1'
_cell_length_a   6.86745765
_cell_length_b   6.86745765
_cell_length_c   6.86745765
_cell_angle_alpha   134.18020541
_cell_angle_beta   134.18020541
_cell_angle_gamma   66.80667888
_symmetry_Int_Tables_number   1
_chemical_formula_structural   TbCd2F8
_chemical_formula_sum   'Tb1 Cd2 F8'
_cell_volume   163.89648655
_cell_formula_units_Z   1
loop_
 _symmetry_equiv_pos_site_id
 _symmetry_equiv_pos_as_xyz
  1  'x, y, z'
loop_
 _atom_site_type_symbol
 _atom_site_label
 _atom_site_symmetry_multiplicity
 _atom_site_fract_x
 _atom_site_fract_y
 _atom_site_fract_z
 _atom_site_occupancy
  Tb  Tb0  1  0.50000000  0.50000000  0.00000000  1
  Cd  Cd0  1  0.17683200  0.17683200  0.00000000  1
  Cd  Cd1  1  0.82316800  0.82316800  0.00000000  1
  F  F0  1  0.26152700  0.81543800  0.95838700  1
  F  F1  1  0.69686000  0.73847300  0.55391100  1
  F  F2  1  0.18456200  0.14294900  0.44608900  1
  F  F3  1  0.84611900  0.86396500  0.36823900  1
  F  F4  1  0.52212000  0.15388100  0.01784600  1
  F  F5  1  0.13603500  0.50427300  0.98215400  1
  F  F6  1  0.49572700  0.47788000  0.63176100  1
  F  F7  1  0.85705100  0.30314000  0.04161300  1
loop_
_geom_bond_atom_site_label_1
_geom_bond_atom_site_label_2
_geom_bond_distance
_geom_bond_site_symmetry_2
Cd0 F7 2.164637 1_455
Cd0 F0 2.164637 1_544
Cd0 F5 2.233861 1_554
Cd0 F4 2.233867 1_555
Cd0 F6 2.390436 1_555
Cd0 F3 2.390436 1_444
Cd1 F2 2.164637 1_665
Cd1 F1 2.164637 1_554
Cd1 F6 2.233863 1_554
Cd1 F3 2.233867 1_555
Cd1 F4 2.390436 1_565
Cd1 F5 2.390439 1_654
F0 Tb0 2.207383 1_556
F1 Tb0 2.207383 1_555
F2 Tb0 2.207383 1_556
F3 Tb0 2.404933 1_555
F4 Tb0 2.404933 1_555
F5 Tb0 2.404936 1_556
F6 Tb0 2.404938 1_556
F7 Tb0 2.207383 1_555
