# generated using pymatgen
data_OsBr4
_symmetry_space_group_name_H-M   'P 1'
_cell_length_a   6.38207203
_cell_length_b   12.59781404
_cell_length_c   14.89946369
_cell_angle_alpha   90.00000000
_cell_angle_beta   90.00000000
_cell_angle_gamma   90.00000000
_symmetry_Int_Tables_number   1
_chemical_formula_structural   OsBr4
_chemical_formula_sum   'Os8 Br32'
_cell_volume   1197.91921429
_cell_formula_units_Z   8
loop_
 _symmetry_equiv_pos_site_id
 _symmetry_equiv_pos_as_xyz
  1  'x, y, z'
loop_
 _atom_site_type_symbol
 _atom_site_label
 _atom_site_symmetry_multiplicity
 _atom_site_fract_x
 _atom_site_fract_y
 _atom_site_fract_z
 _atom_site_occupancy
  Os  Os0  1  0.90266620  0.12970241  0.31719400  1
  Os  Os1  1  0.40266620  0.37029759  0.68280600  1
  Os  Os2  1  0.09734704  0.62964225  0.18286761  1
  Os  Os3  1  0.59734704  0.87035775  0.81713239  1
  Os  Os4  1  0.09734704  0.87035775  0.68286761  1
  Os  Os5  1  0.59734704  0.62964225  0.31713239  1
  Os  Os6  1  0.90266620  0.37029759  0.81719400  1
  Os  Os7  1  0.40266620  0.12970241  0.18280600  1
  Br  Br0  1  0.55028518  0.24879757  0.07396797  1
  Br  Br1  1  0.05028518  0.25120243  0.92603203  1
  Br  Br2  1  0.44960694  0.74873652  0.42603498  1
  Br  Br3  1  0.94960694  0.75126348  0.57396502  1
  Br  Br4  1  0.44960694  0.75126348  0.92603498  1
  Br  Br5  1  0.94960694  0.74873652  0.07396502  1
  Br  Br6  1  0.55028518  0.25120243  0.57396797  1
  Br  Br7  1  0.05028518  0.24879757  0.42603203  1
  Br  Br8  1  0.07097464  0.23786120  0.18997580  1
  Br  Br9  1  0.57097464  0.26213880  0.81002420  1
  Br  Br10  1  0.92909427  0.73781521  0.31000665  1
  Br  Br11  1  0.42909427  0.76218479  0.68999335  1
  Br  Br12  1  0.92909427  0.76218479  0.81000665  1
  Br  Br13  1  0.42909427  0.73781521  0.18999335  1
  Br  Br14  1  0.07097464  0.26213880  0.68997580  1
  Br  Br15  1  0.57097464  0.23786120  0.31002420  1
  Br  Br16  1  0.23271273  0.02069428  0.30984349  1
  Br  Br17  1  0.73271273  0.47930572  0.69015651  1
  Br  Br18  1  0.76730159  0.52065061  0.19018176  1
  Br  Br19  1  0.26730159  0.97934939  0.80981824  1
  Br  Br20  1  0.76730159  0.97934939  0.69018176  1
  Br  Br21  1  0.26730159  0.52065061  0.30981824  1
  Br  Br22  1  0.23271273  0.47930572  0.80984349  1
  Br  Br23  1  0.73271273  0.02069428  0.19015651  1
  Br  Br24  1  0.25463539  0.00955463  0.07412720  1
  Br  Br25  1  0.75463539  0.49044537  0.92587280  1
  Br  Br26  1  0.74537504  0.50955360  0.42587064  1
  Br  Br27  1  0.24537504  0.99044640  0.57412936  1
  Br  Br28  1  0.74537504  0.99044640  0.92587064  1
  Br  Br29  1  0.24537504  0.50955360  0.07412936  1
  Br  Br30  1  0.25463539  0.49044537  0.57412720  1
  Br  Br31  1  0.75463539  0.00955463  0.42587280  1
loop_
_geom_bond_atom_site_label_1
_geom_bond_atom_site_label_2
_geom_bond_distance
_geom_bond_site_symmetry_2
Br0 Os7 2.401723 1_555
Br1 Os6 2.401723 1_455
Br2 Os5 2.402669 1_555
Br3 Os4 2.402669 1_655
Br4 Os3 2.402669 1_555
Br5 Os2 2.402669 1_655
Br6 Os1 2.401723 1_555
Br7 Os0 2.401723 1_455
Br8 Os7 2.519756 1_555
Br8 Os0 2.569679 1_455
Br9 Os6 2.519756 1_555
Br9 Os1 2.569679 1_555
Br10 Os5 2.520124 1_555
Br10 Os2 2.568755 1_655
Br11 Os4 2.520124 1_555
Br11 Os3 2.568755 1_555
Br12 Os3 2.520124 1_555
Br12 Os4 2.568755 1_655
Br13 Os2 2.520124 1_555
Br13 Os5 2.568755 1_555
Br14 Os1 2.519756 1_555
Br14 Os6 2.569679 1_455
Br15 Os0 2.519756 1_555
Br15 Os7 2.569679 1_555
Br16 Os0 2.516881 1_455
Br16 Os7 2.577787 1_555
Br17 Os1 2.516881 1_555
Br17 Os6 2.577787 1_555
Br18 Os2 2.516738 1_655
Br18 Os5 2.576729 1_555
Br19 Os3 2.516738 1_555
Br19 Os4 2.576729 1_555
Br20 Os4 2.516738 1_655
Br20 Os3 2.576729 1_555
Br21 Os5 2.516738 1_555
Br21 Os2 2.576729 1_555
Br22 Os6 2.516881 1_455
Br22 Os1 2.577787 1_555
Br23 Os7 2.516881 1_555
Br23 Os0 2.577787 1_555
Br24 Os7 2.409463 1_555
Br25 Os6 2.409463 1_555
Br26 Os5 2.409584 1_555
Br27 Os4 2.409584 1_555
Br28 Os3 2.409584 1_555
Br29 Os2 2.409584 1_555
Br30 Os1 2.409463 1_555
Br31 Os0 2.409463 1_555
