# generated using pymatgen
data_MgMnCo5O12
_symmetry_space_group_name_H-M   'P 1'
_cell_length_a   4.90643857
_cell_length_b   4.91255741
_cell_length_c   10.00232937
_cell_angle_alpha   85.80233147
_cell_angle_beta   81.87608019
_cell_angle_gamma   60.02418326
_symmetry_Int_Tables_number   1
_chemical_formula_structural   MgMnCo5O12
_chemical_formula_sum   'Mg1 Mn1 Co5 O12'
_cell_volume   206.74228581
_cell_formula_units_Z   1
loop_
 _symmetry_equiv_pos_site_id
 _symmetry_equiv_pos_as_xyz
  1  'x, y, z'
loop_
 _atom_site_type_symbol
 _atom_site_label
 _atom_site_symmetry_multiplicity
 _atom_site_fract_x
 _atom_site_fract_y
 _atom_site_fract_z
 _atom_site_occupancy
  Mg  Mg0  1  0.92153854  0.33598661  0.24925387  1
  Mn  Mn0  1  0.98812522  0.99720223  0.99554758  1
  Co  Co0  1  0.18258717  0.66778052  0.49707729  1
  Co  Co1  1  0.65223267  0.66895244  0.99648189  1
  Co  Co2  1  0.32155630  0.33335489  0.99883044  1
  Co  Co3  1  0.84562421  0.33435417  0.50971066  1
  Co  Co4  1  0.51599068  0.00097792  0.49708922  1
  O  O0  1  0.95292076  0.65740286  0.10267629  1
  O  O1  1  0.35541158  0.66337060  0.90152356  1
  O  O2  1  0.19945128  0.33504153  0.39841961  1
  O  O3  1  0.55559238  0.65705503  0.39849483  1
  O  O4  1  0.47560666  0.33375852  0.59437028  1
  O  O5  1  0.16729503  0.98780785  0.59453288  1
  O  O6  1  0.82140143  0.67968665  0.59439616  1
  O  O7  1  0.63543430  0.33688626  0.10312462  1
  O  O8  1  0.28077668  0.00866331  0.10298067  1
  O  O9  1  0.01214169  0.34046984  0.90156692  1
  O  O10  1  0.67619691  -0.00191417  0.90164585  1
  O  O11  1  0.87761653  0.01316292  0.39838837  1
loop_
_geom_bond_atom_site_label_1
_geom_bond_atom_site_label_2
_geom_bond_distance
_geom_bond_site_symmetry_2
Mg0 O0 2.122879 1_555
Mg0 O8 2.148567 1_655
Mg0 O2 2.157094 1_655
Mg0 O7 2.163252 1_555
Mg0 O11 2.165864 1_555
Mg0 O3 2.167293 1_555
Mn0 O1 1.901323 1_655
Mn0 O10 1.903553 1_565
Mn0 O9 1.917396 1_665
Mn0 O8 1.935295 1_666
Mn0 O7 1.946277 1_566
Mn0 O0 1.984563 1_556
Co0 O6 1.873137 1_455
Co0 O4 1.873714 1_555
Co0 O5 1.874381 1_555
Co0 O3 1.930197 1_555
Co0 O11 1.930675 1_465
Co0 O2 1.931440 1_555
Co1 O1 1.859691 1_555
Co1 O10 1.860610 1_565
Co1 O9 1.877917 1_655
Co1 O0 1.912703 1_556
Co1 O7 1.913238 1_556
Co1 O8 1.978291 1_566
Co2 O10 1.891526 1_555
Co2 O1 1.896223 1_555
Co2 O9 1.900474 1_555
Co2 O8 1.919960 1_556
Co2 O0 1.928303 1_456
Co2 O7 1.985851 1_556
Co3 O4 1.892999 1_555
Co3 O6 1.894746 1_555
Co3 O5 1.895012 1_645
Co3 O3 1.926287 1_555
Co3 O2 1.926678 1_655
Co3 O11 1.927296 1_555
Co4 O6 1.872930 1_545
Co4 O5 1.873838 1_545
Co4 O4 1.874391 1_555
Co4 O3 1.930430 1_545
Co4 O2 1.930934 1_555
Co4 O11 1.930999 1_555
