# generated using pymatgen
data_MgV4O5F7
_symmetry_space_group_name_H-M   'P 1'
_cell_length_a   5.08244685
_cell_length_b   5.40708966
_cell_length_c   9.38705392
_cell_angle_alpha   73.21268888
_cell_angle_beta   90.48108352
_cell_angle_gamma   61.99887407
_symmetry_Int_Tables_number   1
_chemical_formula_structural   MgV4O5F7
_chemical_formula_sum   'Mg1 V4 O5 F7'
_cell_volume   214.87594580
_cell_formula_units_Z   1
loop_
 _symmetry_equiv_pos_site_id
 _symmetry_equiv_pos_as_xyz
  1  'x, y, z'
loop_
 _atom_site_type_symbol
 _atom_site_label
 _atom_site_symmetry_multiplicity
 _atom_site_fract_x
 _atom_site_fract_y
 _atom_site_fract_z
 _atom_site_occupancy
  Mg  Mg0  1  0.05233800  0.74436600  0.38222200  1
  V  V0  1  0.73827300  0.46198400  0.24994100  1
  V  V1  1  0.45450700  0.03280200  0.50180700  1
  V  V2  1  0.29907900  0.49891600  0.76253700  1
  V  V3  1  0.02856800  0.99021600  0.99851300  1
  O  O0  1  0.42388800  0.68645800  0.10647300  1
  O  O1  1  0.35685700  0.81682100  0.64316600  1
  O  O2  1  0.68347500  0.14066600  0.35833200  1
  O  O3  1  0.61559600  0.29412000  0.89348100  1
  O  O4  1  0.07587600  0.35625800  0.39390100  1
  F  F0  1  0.92396300  0.69418300  0.59238600  1
  F  F1  1  0.86525800  0.80598900  0.16415000  1
  F  F2  1  0.00820900  0.23192200  0.13372300  1
  F  F3  1  0.44490700  0.75060100  0.37598200  1
  F  F4  1  0.47682800  0.28569700  0.61169900  1
  F  F5  1  0.02966400  0.74157800  0.87195700  1
  F  F6  1  0.16021300  0.20491700  0.83830300  1
loop_
_geom_bond_atom_site_label_1
_geom_bond_atom_site_label_2
_geom_bond_distance
_geom_bond_site_symmetry_2
Mg0 O4 2.015275 1_555
Mg0 O2 2.024818 1_465
O0 V0 1.743164 1_555
O0 V3 1.915001 1_554
O1 V1 1.740997 1_565
O1 V2 1.914023 1_555
O2 V0 1.889271 1_555
O2 V1 1.928256 1_555
O3 V2 1.683104 1_555
O3 V3 1.966871 1_645
O4 V1 1.889906 1_555
O4 V0 1.921170 1_455
F0 Mg0 2.066395 1_655
F0 V2 2.094105 1_655
F0 V1 2.175518 1_565
F1 V3 2.000524 1_654
F1 Mg0 2.116921 1_655
F1 V0 2.189885 1_555
F2 V0 1.956110 1_455
F2 V3 2.040366 1_544
F3 Mg0 2.012316 1_555
F3 V1 2.199038 1_565
F3 V0 2.229284 1_555
F4 V1 1.976196 1_555
F4 V2 2.033862 1_555
F5 V2 1.940783 1_555
F5 V3 2.033330 1_555
F6 V3 1.948033 1_545
F6 V2 1.984913 1_555
