# generated using pymatgen
data_MgTi4Bi2O11
_symmetry_space_group_name_H-M   'P 1'
_cell_length_a   3.96565121
_cell_length_b   7.78914125
_cell_length_c   7.69408210
_cell_angle_alpha   83.91865018
_cell_angle_beta   75.06589350
_cell_angle_gamma   75.25232056
_symmetry_Int_Tables_number   1
_chemical_formula_structural   MgTi4Bi2O11
_chemical_formula_sum   'Mg1 Ti4 Bi2 O11'
_cell_volume   221.86300262
_cell_formula_units_Z   1
loop_
 _symmetry_equiv_pos_site_id
 _symmetry_equiv_pos_as_xyz
  1  'x, y, z'
loop_
 _atom_site_type_symbol
 _atom_site_label
 _atom_site_symmetry_multiplicity
 _atom_site_fract_x
 _atom_site_fract_y
 _atom_site_fract_z
 _atom_site_occupancy
  Mg  Mg0  1  0.99966500  0.00486800  0.99580300  1
  Ti  Ti0  1  0.62691300  0.28582200  0.46035100  1
  Ti  Ti1  1  0.37359700  0.71797300  0.53483400  1
  Ti  Ti2  1  0.68564400  0.87570400  0.75300900  1
  Ti  Ti3  1  0.31463000  0.12802800  0.24271100  1
  Bi  Bi0  1  0.11006400  0.60980700  0.17006600  1
  Bi  Bi1  1  0.88899600  0.39597300  0.82603600  1
  O  O0  1  0.70548500  0.64648000  0.94255000  1
  O  O1  1  0.29323700  0.35877400  0.05475400  1
  O  O2  1  0.63800800  0.09609100  0.62789500  1
  O  O3  1  0.36351000  0.90695400  0.36602500  1
  O  O4  1  0.43177700  0.46494600  0.67149800  1
  O  O5  1  0.56774900  0.53932000  0.32518300  1
  O  O6  1  0.81481300  0.14480600  0.22556800  1
  O  O7  1  0.18554600  0.85950400  0.76940500  1
  O  O8  1  0.12849400  0.30182700  0.44118500  1
  O  O9  1  0.87188300  0.70153400  0.55470000  1
  O  O10  1  0.49999000  0.00325700  0.99676200  1
loop_
_geom_bond_atom_site_label_1
_geom_bond_atom_site_label_2
_geom_bond_distance
_geom_bond_site_symmetry_2
Mg0 O10 1.982870 1_655
Mg0 O10 1.982878 1_555
Mg0 O6 2.045538 1_556
Mg0 O7 2.047153 1_645
Bi0 O1 2.109597 1_555
Bi0 O5 2.343169 1_455
Bi0 O5 2.343169 1_555
Bi0 O0 2.613118 1_554
Bi0 O0 2.613122 1_454
Bi1 O0 2.109975 1_555
Bi1 O4 2.338772 1_655
Bi1 O4 2.338783 1_555
Bi1 O1 2.619180 1_556
Bi1 O1 2.619184 1_656
O0 Ti2 2.180995 1_555
O1 Ti3 2.182610 1_555
O2 Ti0 1.854778 1_555
O2 Ti2 1.867527 1_545
O3 Ti1 1.856624 1_555
O3 Ti3 1.865920 1_565
O4 Ti0 2.113610 1_555
O4 Ti1 2.120762 1_555
O5 Ti1 2.102670 1_555
O5 Ti0 2.119013 1_555
O6 Ti3 1.990581 1_655
O6 Ti3 1.990585 1_555
O6 Ti0 2.082033 1_555
O7 Ti2 1.989990 1_555
O7 Ti2 1.989990 1_455
O7 Ti1 2.082801 1_555
O8 Ti0 1.991216 1_555
O8 Ti0 1.991220 1_455
O8 Ti3 2.014381 1_555
O9 Ti1 1.991772 1_555
O9 Ti1 1.991776 1_655
O9 Ti2 2.015354 1_555
O10 Ti2 2.087389 1_545
O10 Ti3 2.091612 1_556
