# generated using pymatgen
data_MnCo2Sn
_symmetry_space_group_name_H-M   'P 1'
_cell_length_a   4.21098018
_cell_length_b   4.21098032
_cell_length_c   4.21097992
_cell_angle_alpha   60.00000312
_cell_angle_beta   60.00000200
_cell_angle_gamma   59.99999787
_symmetry_Int_Tables_number   1
_chemical_formula_structural   MnCo2Sn
_chemical_formula_sum   'Mn1 Co2 Sn1'
_cell_volume   52.80008124
_cell_formula_units_Z   1
loop_
 _symmetry_equiv_pos_site_id
 _symmetry_equiv_pos_as_xyz
  1  'x, y, z'
loop_
 _atom_site_type_symbol
 _atom_site_label
 _atom_site_symmetry_multiplicity
 _atom_site_fract_x
 _atom_site_fract_y
 _atom_site_fract_z
 _atom_site_occupancy
  Mn  Mn0  1  0.00000000  0.00000000  -0.00000000  1
  Co  Co0  1  0.25000000  0.25000000  0.25000000  1
  Co  Co1  1  0.75000000  0.75000000  0.75000000  1
  Sn  Sn0  1  0.50000000  0.50000000  0.50000000  1
loop_
_geom_bond_atom_site_label_1
_geom_bond_atom_site_label_2
_geom_bond_distance
_geom_bond_site_symmetry_2
Mn0 Sn0 2.977613 1_455
Mn0 Sn0 2.977613 1_454
Mn0 Sn0 2.977613 1_544
Mn0 Sn0 2.977613 1_545
Mn0 Sn0 2.977613 1_445
Mn0 Sn0 2.977613 1_554
Co0 Sn0 2.578688 1_555
Co0 Sn0 2.578688 1_554
Co0 Mn0 2.578688 1_555
Co0 Mn0 2.578688 1_556
Co0 Mn0 2.578688 1_655
Co0 Sn0 2.578688 1_455
Co0 Mn0 2.578688 1_565
Co0 Sn0 2.578688 1_545
Co1 Sn0 2.578688 1_555
Co1 Sn0 2.578688 1_556
Co1 Mn0 2.578688 1_666
Co1 Mn0 2.578688 1_665
Co1 Sn0 2.578688 1_655
Co1 Mn0 2.578688 1_566
Co1 Mn0 2.578688 1_656
Co1 Sn0 2.578688 1_565
