# generated using pymatgen
data_NaCaHfP(SO6)2
_symmetry_space_group_name_H-M   'P 1'
_cell_length_a   9.08694271
_cell_length_b   9.06882009
_cell_length_c   23.02688160
_cell_angle_alpha   89.70525972
_cell_angle_beta   90.00000000
_cell_angle_gamma   120.06612667
_symmetry_Int_Tables_number   1
_chemical_formula_structural   NaCaHfP(SO6)2
_chemical_formula_sum   'Na6 Ca6 Hf6 P6 S12 O72'
_cell_volume   1642.24100644
_cell_formula_units_Z   6
loop_
 _symmetry_equiv_pos_site_id
 _symmetry_equiv_pos_as_xyz
  1  'x, y, z'
loop_
 _atom_site_type_symbol
 _atom_site_label
 _atom_site_symmetry_multiplicity
 _atom_site_fract_x
 _atom_site_fract_y
 _atom_site_fract_z
 _atom_site_occupancy
  Na  Na0  1  0.96394595  0.97229555  0.50335344  1
  Na  Na1  1  0.00834960  0.97229555  0.00335344  1
  Na  Na2  1  0.64426988  0.29575212  0.83737229  1
  Na  Na3  1  0.65148324  0.29575212  0.33737229  1
  Na  Na4  1  0.31892041  0.68714573  0.17119261  1
  Na  Na5  1  0.36822432  0.68714573  0.67119261  1
  Ca  Ca0  1  0.99138511  0.99551792  0.64534572  1
  Ca  Ca1  1  0.00413281  0.99551792  0.14534572  1
  Ca  Ca2  1  0.66450286  0.33271036  0.97880728  1
  Ca  Ca3  1  0.66820850  0.33271036  0.47880728  1
  Ca  Ca4  1  0.33784834  0.67657288  0.31202231  1
  Ca  Ca5  1  0.33872354  0.67657288  0.81202231  1
  Hf  Hf0  1  0.00552728  0.00007189  0.35183600  1
  Hf  Hf1  1  0.99454461  0.00007189  0.85183600  1
  Hf  Hf2  1  0.66846208  0.33579479  0.68518026  1
  Hf  Hf3  1  0.66733372  0.33579479  0.18518026  1
  Hf  Hf4  1  0.32338828  0.67359001  0.01852976  1
  Hf  Hf5  1  0.35020073  0.67359001  0.51852976  1
  P  P0  1  0.30410638  0.01467832  0.24819200  1
  P  P1  1  0.71057195  0.01467832  0.74819200  1
  P  P2  1  0.65658435  0.62103015  0.58091711  1
  P  P3  1  0.96444680  0.62103015  0.08091711  1
  P  P4  1  0.31792698  0.95909655  0.91443497  1
  P  P5  1  0.64116857  0.95909655  0.41443497  1
  S  S0  1  0.71278582  0.69735632  0.25018928  1
  S  S1  1  0.98586411  0.28629645  0.24888690  1
  S  S2  1  0.30043234  0.28629645  0.74888690  1
  S  S3  1  0.98457051  0.69735632  0.75018928  1
  S  S4  1  0.97301487  0.35292061  0.58300212  1
  S  S5  1  0.37984239  0.03125594  0.58356925  1
  S  S6  1  0.65141455  0.03125594  0.08356925  1
  S  S7  1  0.37990674  0.35292061  0.08300212  1
  S  S8  1  0.63157540  0.68097450  0.91684105  1
  S  S9  1  0.04712106  0.36570581  0.91565503  1
  S  S10  1  0.31858375  0.36570581  0.41565503  1
  S  S11  1  0.04939810  0.68097450  0.41684105  1
  O  O0  1  0.20597848  0.02908847  0.30395658  1
  O  O1  1  0.82135016  0.78930145  0.30268057  1
  O  O2  1  0.96829781  0.17845861  0.30219911  1
  O  O3  1  0.21016080  0.17845861  0.80219911  1
  O  O4  1  0.96795128  0.78930145  0.80268057  1
  O  O5  1  0.82310999  0.02908847  0.80395658  1
  O  O6  1  0.79795192  0.00280918  0.69426834  1
  O  O7  1  0.20665776  0.20726585  0.69639027  1
  O  O8  1  0.01398396  0.79860763  0.69781417  1
  O  O9  1  0.78462367  0.79860763  0.19781417  1
  O  O10  1  0.00060809  0.20726585  0.19639027  1
  O  O11  1  0.20485726  0.00280918  0.19426834  1
  O  O12  1  0.87896264  0.36478909  0.63614721  1
  O  O13  1  0.48911772  0.12162196  0.63608280  1
  O  O14  1  0.63862068  0.50850253  0.63694344  1
  O  O15  1  0.86988285  0.50850253  0.13694344  1
  O  O16  1  0.63250523  0.12162196  0.13608280  1
  O  O17  1  0.48582745  0.36478909  0.13614721  1
  O  O18  1  0.45482409  0.32657963  0.03130809  1
  O  O19  1  0.86745714  0.53533328  0.02676053  1
  O  O20  1  0.66933312  0.12639686  0.03067227  1
  O  O21  1  0.45706473  0.12639686  0.53067227  1
  O  O22  1  0.66787714  0.53533328  0.52676053  1
  O  O23  1  0.87175655  0.32657963  0.53130809  1
  O  O24  1  0.54048107  0.69627688  0.96946184  1
  O  O25  1  0.15318373  0.45526218  0.96905123  1
  O  O26  1  0.30155990  0.84441743  0.97074781  1
  O  O27  1  0.54285653  0.84441743  0.47074781  1
  O  O28  1  0.30207745  0.45526218  0.46905123  1
  O  O29  1  0.15579482  0.69627688  0.46946184  1
  O  O30  1  0.12317306  0.65864773  0.36420381  1
  O  O31  1  0.53740016  0.87492361  0.36129998  1
  O  O32  1  0.33396270  0.46143610  0.36338115  1
  O  O33  1  0.12747240  0.46143610  0.86338115  1
  O  O34  1  0.33752245  0.87492361  0.86129998  1
  O  O35  1  0.53547368  0.65864773  0.86420381  1
  O  O36  1  0.04798485  0.84795283  0.41340307  1
  O  O37  1  0.81567507  0.95995374  0.41168339  1
  O  O38  1  0.15414264  0.19532405  0.41348669  1
  O  O39  1  0.04118141  0.19532405  0.91348669  1
  O  O40  1  0.14427866  0.95995374  0.91168339  1
  O  O41  1  0.79996798  0.84795283  0.91340307  1
  O  O42  1  0.01145443  0.21539257  0.58955735  1
  O  O43  1  0.20777933  0.00086567  0.59057887  1
  O  O44  1  0.80446257  0.80283383  0.58510244  1
  O  O45  1  0.99837126  0.80283383  0.08510244  1
  O  O46  1  0.79308634  0.00086567  0.09057887  1
  O  O47  1  0.20393814  0.21539257  0.08955735  1
  O  O48  1  0.70422709  0.18646386  0.74616382  1
  O  O49  1  0.47102626  0.29305431  0.74667851  1
  O  O50  1  0.81556940  0.53245557  0.74604076  1
  O  O51  1  0.71688718  0.53245557  0.24604076  1
  O  O52  1  0.82202905  0.29305431  0.24667851  1
  O  O53  1  0.48223777  0.18646386  0.24616382  1
  O  O54  1  0.66901211  0.54307126  0.92322687  1
  O  O55  1  0.87387761  0.33446093  0.92119316  1
  O  O56  1  0.46511858  0.14091761  0.92024758  1
  O  O57  1  0.67580004  0.14091761  0.42024758  1
  O  O58  1  0.46058432  0.33446093  0.42119316  1
  O  O59  1  0.87406015  0.54307126  0.42322687  1
  O  O60  1  0.38264260  0.52039226  0.07923718  1
  O  O61  1  0.14411713  0.62823360  0.07890611  1
  O  O62  1  0.48693881  0.86091362  0.08085180  1
  O  O63  1  0.37397381  0.86091362  0.58085180  1
  O  O64  1  0.48411548  0.62823360  0.57890611  1
  O  O65  1  0.13774866  0.52039226  0.57923718  1
  O  O66  1  0.33478823  0.86502013  0.25220308  1
  O  O67  1  0.53735531  0.65525483  0.25762275  1
  O  O68  1  0.12935701  0.45895492  0.25512000  1
  O  O69  1  0.32959691  0.45895492  0.75512000  1
  O  O70  1  0.11789853  0.65525483  0.75762275  1
  O  O71  1  0.53023091  0.86502013  0.75220308  1
loop_
_geom_bond_atom_site_label_1
_geom_bond_atom_site_label_2
_geom_bond_distance
_geom_bond_site_symmetry_2
Na0 O44 2.396698 1_555
Na0 O37 2.476882 1_555
Na0 O36 2.651757 1_655
Na0 O38 2.795436 1_665
Na0 O42 2.842231 1_665
Na0 O43 2.905301 1_665
Na1 O45 2.396698 1_455
Na1 O40 2.476882 1_554
Na1 O41 2.651757 1_454
Na1 O39 2.795436 1_564
Na1 O47 2.842231 1_565
Na1 O46 2.905301 1_465
Na2 O56 2.438374 1_555
Na2 O48 2.500533 1_555
Na2 O49 2.608103 1_555
Na2 O55 2.734031 1_555
Na2 O50 2.838902 1_555
Na2 O54 2.920589 1_555
Na3 O57 2.438374 1_555
Na3 O53 2.500533 1_555
Na3 O52 2.608103 1_555
Na3 O58 2.734031 1_555
Na3 O51 2.838902 1_555
Na3 O59 2.920589 1_555
Na4 O66 2.429116 1_555
Na4 O61 2.546725 1_555
Na4 O62 2.587930 1_555
Na4 O68 2.715073 1_555
Na4 O60 2.831279 1_555
Na4 O67 2.924678 1_555
Na5 O71 2.429116 1_555
Na5 O64 2.546725 1_555
Na5 O63 2.587930 1_555
Na5 O69 2.715073 1_555
Na5 O65 2.831279 1_555
Na5 O70 2.924678 1_555
Ca0 O6 2.116659 1_565
Ca0 O44 2.216719 1_555
Ca0 O8 2.244105 1_655
Ca0 O7 2.270463 1_665
Ca0 O42 2.295401 1_665
Ca0 O43 2.315846 1_665
Ca1 O11 2.116659 1_565
Ca1 O45 2.216719 1_455
Ca1 O9 2.244105 1_455
Ca1 O10 2.270463 1_565
Ca1 O47 2.295401 1_565
Ca1 O46 2.315846 1_465
Ca2 O19 2.149956 1_556
Ca2 O18 2.233401 1_556
Ca2 O20 2.233443 1_556
Ca2 O56 2.234437 1_555
Ca2 O54 2.275005 1_555
Ca2 O55 2.312927 1_555
Ca3 O22 2.149956 1_555
Ca3 O23 2.233402 1_555
Ca3 O21 2.233443 1_555
Ca3 O57 2.234437 1_555
Ca3 O59 2.275005 1_555
Ca3 O58 2.312927 1_555
Ca4 O31 2.136368 1_555
Ca4 O66 2.200500 1_555
Ca4 O30 2.226174 1_555
Ca4 O32 2.261338 1_555
Ca4 O67 2.290596 1_555
Ca4 O68 2.341191 1_555
Ca5 O34 2.136368 1_555
Ca5 O71 2.200500 1_555
Ca5 O35 2.226174 1_555
Ca5 O33 2.261338 1_555
Ca5 O70 2.290596 1_555
Ca5 O69 2.341191 1_555
Hf0 O0 2.029616 1_555
Hf0 O37 2.091335 1_445
Hf0 O1 2.133686 1_445
Hf0 O2 2.137137 1_455
Hf0 O36 2.138932 1_545
Hf0 O38 2.145761 1_555
Hf1 O5 2.029616 1_555
Hf1 O40 2.091335 1_645
Hf1 O4 2.133686 1_545
Hf1 O3 2.137137 1_655
Hf1 O41 2.138932 1_545
Hf1 O39 2.145761 1_655
Hf2 O14 2.041594 1_555
Hf2 O48 2.081590 1_555
Hf2 O12 2.120322 1_555
Hf2 O13 2.134830 1_555
Hf2 O50 2.137427 1_555
Hf2 O49 2.161465 1_555
Hf3 O15 2.041594 1_555
Hf3 O53 2.081590 1_555
Hf3 O17 2.120322 1_555
Hf3 O16 2.134830 1_555
Hf3 O51 2.137427 1_555
Hf3 O52 2.161465 1_555
Hf4 O26 1.985027 1_554
Hf4 O61 2.019531 1_555
Hf4 O25 2.136648 1_554
Hf4 O62 2.156253 1_555
Hf4 O24 2.191226 1_554
Hf4 O60 2.214464 1_555
Hf5 O27 1.985027 1_555
Hf5 O64 2.019531 1_555
Hf5 O28 2.136648 1_555
Hf5 O63 2.156253 1_555
Hf5 O29 2.191226 1_555
Hf5 O65 2.214464 1_555
O0 P0 1.606093 1_555
O1 S0 1.521713 1_555
O2 S1 1.523206 1_555
O3 S2 1.523206 1_555
O4 S3 1.521713 1_555
O5 P1 1.606093 1_555
O6 P1 1.506939 1_555
O7 S2 1.448460 1_555
O8 S3 1.453203 1_455
O9 S0 1.453203 1_555
O10 S1 1.448460 1_455
O11 P0 1.506939 1_555
O12 S4 1.527461 1_555
O13 S5 1.521394 1_555
O14 P2 1.597492 1_555
O15 P3 1.597492 1_555
O16 S6 1.521394 1_555
O17 S7 1.527461 1_555
O18 S7 1.450284 1_555
O19 P3 1.503182 1_555
O20 S6 1.450184 1_555
O21 S5 1.450184 1_555
O22 P2 1.503182 1_555
O23 S4 1.450284 1_555
O24 S8 1.513107 1_555
O25 S9 1.525203 1_555
O26 P4 1.617505 1_555
O27 P5 1.617505 1_555
O28 S10 1.525203 1_555
O29 S11 1.513107 1_555
O30 S11 1.448472 1_555
O31 P5 1.502414 1_555
O32 S10 1.445621 1_555
O33 S9 1.445621 1_555
O34 P4 1.502414 1_555
O35 S8 1.448472 1_555
O36 S11 1.522425 1_555
O37 P5 1.583117 1_555
O38 S10 1.519917 1_555
O39 S9 1.519921 1_555
O40 P4 1.583108 1_555
O41 S8 1.522430 1_555
O42 S4 1.461139 1_455
O43 S5 1.454096 1_555
O44 P2 1.521522 1_555
O45 P3 1.521525 1_555
O46 S6 1.454087 1_555
O47 S7 1.461146 1_555
O48 P1 1.588013 1_555
O49 S2 1.521238 1_555
O50 S3 1.517960 1_555
O51 S0 1.517964 1_555
O52 S1 1.521229 1_555
O53 P0 1.588018 1_555
O54 S8 1.458012 1_555
O55 S9 1.458592 1_655
O56 P4 1.522557 1_545
O57 P5 1.522551 1_545
O58 S10 1.458610 1_555
O59 S11 1.458000 1_655
O60 S7 1.508512 1_555
O61 P3 1.601584 1_455
O62 S6 1.520412 1_565
O63 S5 1.520404 1_565
O64 P2 1.601602 1_555
O65 S4 1.508503 1_455
O66 P0 1.518612 1_565
O67 S0 1.451129 1_555
O68 S1 1.459143 1_455
O69 S2 1.459146 1_555
O70 S3 1.451120 1_455
O71 P1 1.518618 1_565
