# generated using pymatgen
data_PdPbF4
_symmetry_space_group_name_H-M   'P 1'
_cell_length_a   5.89110554
_cell_length_b   5.89110535
_cell_length_c   6.80845352
_cell_angle_alpha   115.63469491
_cell_angle_beta   115.63470813
_cell_angle_gamma   89.99999679
_symmetry_Int_Tables_number   1
_chemical_formula_structural   PdPbF4
_chemical_formula_sum   'Pd2 Pb2 F8'
_cell_volume   186.90074808
_cell_formula_units_Z   2
loop_
 _symmetry_equiv_pos_site_id
 _symmetry_equiv_pos_as_xyz
  1  'x, y, z'
loop_
 _atom_site_type_symbol
 _atom_site_label
 _atom_site_symmetry_multiplicity
 _atom_site_fract_x
 _atom_site_fract_y
 _atom_site_fract_z
 _atom_site_occupancy
  Pd  Pd0  1  0.50000000  0.00000000  0.00000000  1
  Pd  Pd1  1  0.00000000  0.50000000  0.00000000  1
  Pb  Pb0  1  0.75000000  0.75000000  0.50000000  1
  Pb  Pb1  1  0.25000000  0.25000000  0.50000000  1
  F  F0  1  0.96181187  0.46181187  0.26106604  1
  F  F1  1  0.70074583  0.20074583  0.73893396  1
  F  F2  1  0.03818813  0.53818813  0.73893396  1
  F  F3  1  0.20074583  0.03818813  0.73893396  1
  F  F4  1  0.29925417  0.79925417  0.26106604  1
  F  F5  1  0.46181187  0.29925417  0.26106604  1
  F  F6  1  0.79925417  0.96181187  0.26106604  1
  F  F7  1  0.53818813  0.70074583  0.73893396  1
loop_
_geom_bond_atom_site_label_1
_geom_bond_atom_site_label_2
_geom_bond_distance
_geom_bond_site_symmetry_2
F0 Pd1 1.988107 1_655
F0 Pb1 2.540161 1_655
F0 Pb0 2.540161 1_555
F1 Pd1 1.988106 1_656
F1 Pb1 2.540160 1_555
F1 Pb0 2.540161 1_545
F2 Pd1 1.988107 1_556
F2 Pb0 2.540161 1_455
F2 Pb1 2.540161 1_555
F3 Pd0 1.988106 1_556
F3 Pb0 2.540160 1_445
F3 Pb1 2.540161 1_555
F4 Pd1 1.988106 1_555
F4 Pb0 2.540160 1_555
F4 Pb1 2.540161 1_565
F5 Pd0 1.988106 1_555
F5 Pb0 2.540160 1_555
F5 Pb1 2.540161 1_555
F6 Pd0 1.988106 1_565
F6 Pb1 2.540160 1_665
F6 Pb0 2.540161 1_555
F7 Pd0 1.988106 1_566
F7 Pb1 2.540160 1_555
F7 Pb0 2.540161 1_555
