# generated using pymatgen
data_Na9Mg10Ta2P3(S5O24)3
_symmetry_space_group_name_H-M   'P 1'
_cell_length_a   8.73237889
_cell_length_b   8.72456327
_cell_length_c   22.57018187
_cell_angle_alpha   89.84750756
_cell_angle_beta   90.15715089
_cell_angle_gamma   119.95037418
_symmetry_Int_Tables_number   1
_chemical_formula_structural   Na9Mg10Ta2P3(S5O24)3
_chemical_formula_sum   'Na9 Mg10 Ta2 P3 S15 O72'
_cell_volume   1489.89889648
_cell_formula_units_Z   1
loop_
 _symmetry_equiv_pos_site_id
 _symmetry_equiv_pos_as_xyz
  1  'x, y, z'
loop_
 _atom_site_type_symbol
 _atom_site_label
 _atom_site_symmetry_multiplicity
 _atom_site_fract_x
 _atom_site_fract_y
 _atom_site_fract_z
 _atom_site_occupancy
  Na  Na0  1  0.66801393  0.97057393  0.58686026  1
  Na  Na1  1  0.30264531  0.97059171  0.08685506  1
  Na  Na2  1  0.33233139  0.04037022  0.41487360  1
  Na  Na3  1  0.00586826  0.00803450  0.50085931  1
  Na  Na4  1  0.99076721  0.00174731  0.00068775  1
  Na  Na5  1  0.66911686  0.32722134  0.83117696  1
  Na  Na6  1  0.66300955  0.33626741  0.33060954  1
  Na  Na7  1  0.33324095  0.66134990  0.16220545  1
  Na  Na8  1  0.32654485  0.65915161  0.66194011  1
  Mg  Mg0  1  0.00612538  0.00701381  0.34981904  1
  Mg  Mg1  1  0.99528155  0.00208266  0.85045771  1
  Mg  Mg2  1  0.99912753  0.99861002  0.65020687  1
  Mg  Mg3  1  0.99953847  0.99830772  0.15001991  1
  Mg  Mg4  1  0.66769832  0.33032801  0.68462112  1
  Mg  Mg5  1  0.66145570  0.32879409  0.18458063  1
  Mg  Mg6  1  0.67033482  0.33575201  0.98289661  1
  Mg  Mg7  1  0.66757672  0.34401419  0.48273131  1
  Mg  Mg8  1  0.33283516  0.65951461  0.01888489  1
  Mg  Mg9  1  0.32534601  0.65190257  0.51916228  1
  Ta  Ta0  1  0.33358378  0.66212519  0.31216200  1
  Ta  Ta1  1  0.33842654  0.67074368  0.81227467  1
  P  P0  1  0.29552129  0.00705448  0.25047660  1
  P  P1  1  0.71641398  0.01064375  0.74949099  1
  P  P2  1  0.33173917  0.37102173  0.41895250  1
  S  S0  1  0.71413835  0.70918255  0.25083997  1
  S  S1  1  0.99388045  0.28748531  0.25013667  1
  S  S2  1  0.29221314  0.28751774  0.75093562  1
  S  S3  1  0.99566602  0.70834185  0.75114074  1
  S  S4  1  0.95890629  0.33504599  0.58340884  1
  S  S5  1  0.37069718  0.03960823  0.58234070  1
  S  S6  1  0.66847262  0.62641502  0.58397712  1
  S  S7  1  0.95728109  0.62471969  0.08327515  1
  S  S8  1  0.66951783  0.04146171  0.08277918  1
  S  S9  1  0.37503980  0.33500706  0.08310526  1
  S  S10  1  0.62683815  0.66708878  0.91810960  1
  S  S11  1  0.04194895  0.37420048  0.91755115  1
  S  S12  1  0.33149658  0.95945450  0.91809991  1
  S  S13  1  0.62854532  0.95706911  0.41809246  1
  S  S14  1  0.04089327  0.66465894  0.41743461  1
  O  O0  1  0.21103423  0.02367881  0.30726529  1
  O  O1  1  0.81349437  0.79053830  0.30460983  1
  O  O2  1  0.97096365  0.18585656  0.30380158  1
  O  O3  1  0.21324002  0.18491308  0.80445096  1
  O  O4  1  0.97708380  0.78991410  0.80469966  1
  O  O5  1  0.82032244  0.02647934  0.80473644  1
  O  O6  1  0.77690246  0.96281884  0.69242286  1
  O  O7  1  0.18405812  0.21822074  0.69755436  1
  O  O8  1  0.03743793  0.81719712  0.69773068  1
  O  O9  1  0.78206778  0.81772686  0.19743027  1
  O  O10  1  0.03256524  0.21716511  0.19707840  1
  O  O11  1  0.18436567  0.96387968  0.19388593  1
  O  O12  1  0.87691222  0.35899852  0.63675315  1
  O  O13  1  0.48540950  0.12261969  0.63438561  1
  O  O14  1  0.64208336  0.51878552  0.63706371  1
  O  O15  1  0.87720191  0.51829933  0.13662395  1
  O  O16  1  0.63668283  0.12078237  0.13563327  1
  O  O17  1  0.48185531  0.36093120  0.13655304  1
  O  O18  1  0.45457118  0.30246570  0.02992920  1
  O  O19  1  0.85234246  0.54444948  0.02948099  1
  O  O20  1  0.69414057  0.14758417  0.02891287  1
  O  O21  1  0.44950043  0.14243375  0.52701234  1
  O  O22  1  0.69309764  0.54674757  0.53019282  1
  O  O23  1  0.84689825  0.30298034  0.52998454  1
  O  O24  1  0.54153136  0.69332668  0.96955891  1
  O  O25  1  0.15107482  0.45925276  0.96971022  1
  O  O26  1  0.30707803  0.85185874  0.97123195  1
  O  O27  1  0.54583378  0.85283099  0.47164710  1
  O  O28  1  0.30642459  0.46145481  0.47138210  1
  O  O29  1  0.15632137  0.70010500  0.46899921  1
  O  O30  1  0.13289381  0.64310030  0.36284723  1
  O  O31  1  0.50721054  0.86723337  0.36426020  1
  O  O32  1  0.35351543  0.49377880  0.36188260  1
  O  O33  1  0.13486413  0.48974857  0.86309746  1
  O  O34  1  0.35434068  0.86340613  0.86411341  1
  O  O35  1  0.50940822  0.64415253  0.86330656  1
  O  O36  1  0.02399963  0.82340700  0.40872767  1
  O  O37  1  0.79999931  0.97156373  0.40827497  1
  O  O38  1  0.16883972  0.18644864  0.41047618  1
  O  O39  1  0.02762384  0.20045762  0.90977248  1
  O  O40  1  0.17329755  0.97364019  0.90829066  1
  O  O41  1  0.80040688  0.82426104  0.90935740  1
  O  O42  1  0.97530946  0.17203831  0.58900163  1
  O  O43  1  0.19391258  0.02018977  0.58968892  1
  O  O44  1  0.82737374  0.80818313  0.58873841  1
  O  O45  1  0.98106439  0.80716323  0.08815438  1
  O  O46  1  0.82622145  0.02021959  0.08995934  1
  O  O47  1  0.19635934  0.17194603  0.08892870  1
  O  O48  1  0.67809886  0.16204254  0.74402463  1
  O  O49  1  0.47272683  0.32051251  0.74413170  1
  O  O50  1  0.84481448  0.52971912  0.74433008  1
  O  O51  1  0.68581503  0.53018325  0.24432867  1
  O  O52  1  0.84633279  0.32032410  0.24353619  1
  O  O53  1  0.48320968  0.16218496  0.24457740  1
  O  O54  1  0.63567523  0.50353762  0.92022203  1
  O  O55  1  0.86803338  0.36250345  0.92011167  1
  O  O56  1  0.49422418  0.13226374  0.92015215  1
  O  O57  1  0.63789093  0.13133787  0.42046896  1
  O  O58  1  0.49926545  0.35363685  0.41939247  1
  O  O59  1  0.86950043  0.50272657  0.42089811  1
  O  O60  1  0.35466936  0.49279064  0.07658021  1
  O  O61  1  0.14082164  0.65042590  0.07753840  1
  O  O62  1  0.50438136  0.86323075  0.07656761  1
  O  O63  1  0.35809948  0.86176659  0.57664094  1
  O  O64  1  0.51124785  0.65276068  0.57856682  1
  O  O65  1  0.13599218  0.49358553  0.57777656  1
  O  O66  1  0.31384094  0.83070105  0.26161094  1
  O  O67  1  0.52693432  0.68986438  0.25868242  1
  O  O68  1  0.16265650  0.47352679  0.25823816  1
  O  O69  1  0.30877947  0.47347651  0.75970065  1
  O  O70  1  0.16201655  0.68692157  0.75998329  1
  O  O71  1  0.51912626  0.83230350  0.76164136  1
loop_
_geom_bond_atom_site_label_1
_geom_bond_atom_site_label_2
_geom_bond_distance
_geom_bond_site_symmetry_2
Na0 O42 2.362785 1_565
Na0 O63 2.389748 1_555
Na0 O64 2.410111 1_555
Na0 O44 2.431789 1_555
Na0 O6 2.576098 1_555
Na0 O13 2.753538 1_565
Na0 O27 2.803606 1_555
Na0 O23 2.822471 1_565
Na1 O47 2.361866 1_565
Na1 O62 2.384459 1_555
Na1 O61 2.429780 1_555
Na1 O45 2.433500 1_455
Na1 O11 2.618857 1_555
Na1 O16 2.758841 1_565
Na1 O26 2.817756 1_554
Na1 O18 2.819307 1_565
Na2 O38 2.342587 1_555
Na2 O58 2.372298 1_555
Na2 O57 2.376898 1_555
Na2 O36 2.400445 1_545
Na2 O0 2.622149 1_555
Na2 O21 2.708094 1_555
Na2 O29 2.846526 1_545
Na2 O31 2.870687 1_545
Na3 O38 2.529196 1_555
Na3 O42 2.544712 1_455
Na3 O43 2.556653 1_555
Na3 O44 2.586239 1_445
Na3 O37 2.666730 1_445
Na3 O36 2.686640 1_545
Na4 O46 2.529653 1_555
Na4 O45 2.574083 1_545
Na4 O47 2.594007 1_655
Na4 O39 2.597559 1_654
Na4 O41 2.614994 1_544
Na4 O40 2.713105 1_644
Na5 O48 2.465972 1_555
Na5 O55 2.567371 1_555
Na5 O50 2.570784 1_555
Na5 O56 2.581320 1_555
Na5 O49 2.585759 1_555
Na5 O54 2.637984 1_555
Na6 O53 2.481984 1_555
Na6 O58 2.513286 1_555
Na6 O51 2.518411 1_555
Na6 O52 2.585608 1_555
Na6 O59 2.625658 1_555
Na6 O57 2.636227 1_555
Na7 O60 2.494881 1_555
Na7 O61 2.511495 1_555
Na7 O62 2.537927 1_555
Na7 O68 2.676494 1_555
Na7 O67 2.688268 1_555
Na7 O66 2.741377 1_555
Na8 O65 2.461926 1_555
Na8 O64 2.500507 1_555
Na8 O63 2.530945 1_555
Na8 O69 2.692341 1_555
Na8 O70 2.717987 1_555
Na8 O71 2.763083 1_555
Mg0 O0 1.973386 1_555
Mg0 O2 2.018817 1_455
Mg0 O38 2.030676 1_555
Mg0 O1 2.065525 1_445
Mg0 O37 2.128673 1_445
Mg0 O36 2.143681 1_545
Mg1 O5 1.938889 1_555
Mg1 O3 2.053233 1_655
Mg1 O4 2.057648 1_545
Mg1 O39 2.095146 1_655
Mg1 O41 2.106016 1_545
Mg1 O40 2.134052 1_645
Mg2 O6 2.043192 1_555
Mg2 O8 2.070077 1_655
Mg2 O7 2.081556 1_665
Mg2 O44 2.108848 1_555
Mg2 O43 2.118002 1_665
Mg2 O42 2.131319 1_565
Mg3 O11 2.036934 1_655
Mg3 O9 2.061137 1_555
Mg3 O10 2.077612 1_665
Mg3 O46 2.107367 1_565
Mg3 O45 2.121160 1_555
Mg3 O47 2.133596 1_665
Mg4 O48 2.020771 1_555
Mg4 O12 2.029924 1_555
Mg4 O13 2.055263 1_555
Mg4 O14 2.064489 1_555
Mg4 O50 2.132838 1_555
Mg4 O49 2.139276 1_555
Mg5 O53 2.027633 1_555
Mg5 O17 2.035060 1_555
Mg5 O16 2.044057 1_555
Mg5 O15 2.084699 1_555
Mg5 O52 2.118776 1_555
Mg5 O51 2.142144 1_555
Mg6 O19 2.014523 1_556
Mg6 O20 2.036545 1_556
Mg6 O18 2.055267 1_556
Mg6 O55 2.156913 1_555
Mg6 O54 2.159750 1_555
Mg6 O56 2.190357 1_555
Mg7 O22 1.985161 1_555
Mg7 O23 2.065486 1_555
Mg7 O58 2.078929 1_555
Mg7 O21 2.091726 1_555
Mg7 O59 2.130601 1_555
Mg7 O57 2.239755 1_555
Mg8 O25 2.008832 1_554
Mg8 O60 2.028148 1_555
Mg8 O24 2.029835 1_554
Mg8 O26 2.095087 1_554
Mg8 O62 2.107383 1_555
Mg8 O61 2.109286 1_555
Mg9 O28 1.919771 1_555
Mg9 O65 2.028272 1_555
Mg9 O29 2.060421 1_555
Mg9 O64 2.099766 1_555
Mg9 O27 2.135747 1_555
Mg9 O63 2.145919 1_555
O0 P0 1.523549 1_555
O1 S0 1.453713 1_555
O2 S1 1.453181 1_555
O3 S2 1.455416 1_555
O4 S3 1.454327 1_555
O5 P1 1.505557 1_555
O6 P1 1.529314 1_565
O7 S2 1.461713 1_555
O8 S3 1.462394 1_455
O9 S0 1.462454 1_555
O10 S1 1.462079 1_455
O11 P0 1.531710 1_565
O12 S4 1.470169 1_555
O13 S5 1.476978 1_555
O14 S6 1.466269 1_555
O15 S7 1.466721 1_555
O16 S8 1.479393 1_555
O17 S9 1.470047 1_555
O18 S9 1.485483 1_555
O19 S7 1.470359 1_555
O20 S8 1.475885 1_555
O21 S5 1.490003 1_555
O22 S6 1.469054 1_555
O23 S4 1.486939 1_555
O24 S10 1.460201 1_555
O25 S11 1.461861 1_555
O26 S12 1.469796 1_555
O27 S13 1.467261 1_555
O28 P2 1.500743 1_555
O29 S14 1.466404 1_555
O30 S14 1.535020 1_555
O30 Ta0 2.031508 1_555
O31 S13 1.543366 1_555
O31 Ta0 2.043529 1_555
O32 P2 1.622651 1_555
O32 Ta0 1.921527 1_555
O33 S11 1.538593 1_555
O33 Ta1 2.041551 1_555
O34 S12 1.549320 1_555
O34 Ta1 1.997494 1_555
O35 S10 1.552740 1_555
O35 Ta1 1.986140 1_555
O36 S14 1.476832 1_555
O37 S13 1.455789 1_555
O38 P2 1.538226 1_555
O39 S11 1.468392 1_555
O40 S12 1.463435 1_555
O41 S10 1.463410 1_555
O42 S4 1.503785 1_555
O43 S5 1.476307 1_555
O44 S6 1.501581 1_555
O45 S7 1.503204 1_555
O46 S8 1.478161 1_555
O47 S9 1.503142 1_555
O48 P1 1.520560 1_555
O49 S2 1.462608 1_555
O50 S3 1.462151 1_555
O51 S0 1.461847 1_555
O52 S1 1.460024 1_555
O53 P0 1.523505 1_555
O54 S10 1.467608 1_555
O55 S11 1.471697 1_655
O56 S12 1.468096 1_545
O57 S13 1.482473 1_545
O58 P2 1.544233 1_555
O59 S14 1.459743 1_655
O60 S9 1.480412 1_555
O61 S7 1.509280 1_455
O62 S8 1.509362 1_565
O63 S5 1.505536 1_565
O64 S6 1.505577 1_555
O65 S4 1.478202 1_455
O66 P0 1.643029 1_565
O66 Ta0 1.933328 1_555
O67 S0 1.567935 1_555
O67 Ta0 1.991953 1_555
O68 S1 1.565764 1_455
O68 Ta0 1.991227 1_555
O69 S2 1.568271 1_555
O69 Ta1 2.000356 1_555
O70 S3 1.566583 1_455
O70 Ta1 1.998043 1_555
O71 P1 1.669715 1_565
O71 Ta1 1.887638 1_555
