# generated using pymatgen
data_Pr2Te4O11
_symmetry_space_group_name_H-M   'P 1'
_cell_length_a   6.87977155
_cell_length_b   6.87977155
_cell_length_c   16.42291202
_cell_angle_alpha   75.64207828
_cell_angle_beta   75.64207828
_cell_angle_gamma   45.01871041
_symmetry_Int_Tables_number   1
_chemical_formula_structural   Pr2Te4O11
_chemical_formula_sum   'Pr4 Te8 O22'
_cell_volume   529.64686881
_cell_formula_units_Z   2
loop_
 _symmetry_equiv_pos_site_id
 _symmetry_equiv_pos_as_xyz
  1  'x, y, z'
loop_
 _atom_site_type_symbol
 _atom_site_label
 _atom_site_symmetry_multiplicity
 _atom_site_fract_x
 _atom_site_fract_y
 _atom_site_fract_z
 _atom_site_occupancy
  Pr  Pr0  1  0.13750229  0.62700731  0.53739517  1
  Pr  Pr1  1  0.37299269  0.86249771  0.96260483  1
  Pr  Pr2  1  0.86249771  0.37299269  0.46260483  1
  Pr  Pr3  1  0.62700731  0.13750229  0.03739517  1
  Te  Te0  1  0.60644656  0.15514342  0.70165263  1
  Te  Te1  1  0.84485658  0.39355344  0.79834737  1
  Te  Te2  1  0.39355344  0.84485658  0.29834737  1
  Te  Te3  1  0.15514342  0.60644656  0.20165263  1
  Te  Te4  1  0.14901580  0.58873399  0.87191690  1
  Te  Te5  1  0.41126601  0.85098420  0.62808310  1
  Te  Te6  1  0.85098420  0.41126601  0.12808310  1
  Te  Te7  1  0.58873399  0.14901580  0.37191690  1
  O  O0  1  0.84859697  0.15140303  0.75000000  1
  O  O1  1  0.15140303  0.84859697  0.25000000  1
  O  O2  1  0.19663821  0.09529897  0.82816486  1
  O  O3  1  0.90470103  0.80336179  0.67183514  1
  O  O4  1  0.80336179  0.90470103  0.17183514  1
  O  O5  1  0.09529897  0.19663821  0.32816486  1
  O  O6  1  0.62064735  0.42986831  0.89909710  1
  O  O7  1  0.57013169  0.37935265  0.60090290  1
  O  O8  1  0.37935265  0.57013169  0.10090290  1
  O  O9  1  0.42986831  0.62064735  0.39909710  1
  O  O10  1  0.04972401  0.80364461  0.95273650  1
  O  O11  1  0.19635539  0.95027599  0.54726350  1
  O  O12  1  0.67942029  0.81769837  0.37187397  1
  O  O13  1  0.18230163  0.32057971  0.12812603  1
  O  O14  1  0.32057971  0.18230163  0.62812603  1
  O  O15  1  0.81769837  0.67942029  0.87187397  1
  O  O16  1  0.25419564  0.33090262  0.44210684  1
  O  O17  1  0.66909738  0.74580436  0.05789316  1
  O  O18  1  0.74580436  0.66909738  0.55789316  1
  O  O19  1  0.33090262  0.25419564  0.94210684  1
  O  O20  1  0.80364461  0.04972401  0.45273650  1
  O  O21  1  0.95027599  0.19635539  0.04726350  1
loop_
_geom_bond_atom_site_label_1
_geom_bond_atom_site_label_2
_geom_bond_distance
_geom_bond_site_symmetry_2
O0 Te1 1.997937 1_555
O0 Te0 1.997937 1_555
O1 Te2 1.997937 1_555
O1 Te3 1.997937 1_555
O2 Te1 1.837434 1_455
O2 Pr1 2.395741 1_545
O3 Te0 1.837434 1_565
O3 Pr0 2.395741 1_655
O4 Te3 1.837434 1_655
O4 Pr3 2.395741 1_565
O5 Te2 1.837434 1_545
O5 Pr2 2.395741 1_455
O6 Te1 1.890465 1_555
O6 Pr1 2.517645 1_555
O6 Pr3 2.620194 1_556
O7 Te0 1.890465 1_555
O7 Pr0 2.517645 1_555
O7 Pr2 2.620194 1_555
O8 Te3 1.890465 1_555
O8 Pr3 2.517645 1_555
O8 Pr1 2.620194 1_554
O9 Te2 1.890465 1_555
O9 Pr2 2.517645 1_555
O9 Pr0 2.620194 1_555
O10 Te4 1.873537 1_555
O10 Pr3 2.408571 1_466
O10 Pr1 2.573097 1_555
O11 Te5 1.873537 1_555
O11 Pr2 2.408571 1_465
O11 Pr0 2.573097 1_555
O12 Te7 1.890748 1_565
O12 Te2 2.430501 1_555
O12 Pr2 2.527652 1_555
O13 Te6 1.890748 1_455
O13 Te3 2.430501 1_555
O13 Pr3 2.527652 1_555
O14 Te5 1.890748 1_545
O14 Te0 2.430501 1_555
O14 Pr0 2.527652 1_555
O15 Te4 1.890748 1_655
O15 Te1 2.430501 1_555
O15 Pr1 2.527652 1_555
O16 Te7 1.876088 1_555
O16 Pr0 2.426775 1_555
O16 Pr2 2.440147 1_455
O17 Te6 1.876088 1_555
O17 Pr1 2.426775 1_554
O17 Pr3 2.440147 1_565
O18 Te5 1.876088 1_555
O18 Pr2 2.426775 1_555
O18 Pr0 2.440147 1_655
O19 Te4 1.876088 1_555
O19 Pr3 2.426775 1_556
O19 Pr1 2.440147 1_545
O20 Te7 1.873537 1_555
O20 Pr0 2.408571 1_645
O20 Pr2 2.573097 1_555
O21 Te6 1.873537 1_555
O21 Pr1 2.408571 1_644
O21 Pr3 2.573097 1_555
