# generated using pymatgen
data_KBe(H2N)3
_symmetry_space_group_name_H-M   'P 1'
_cell_length_a   11.29711400
_cell_length_b   13.09319600
_cell_length_c   13.28703300
_cell_angle_alpha   90.00000000
_cell_angle_beta   90.00000000
_cell_angle_gamma   90.00000000
_symmetry_Int_Tables_number   1
_chemical_formula_structural   KBe(H2N)3
_chemical_formula_sum   'K16 Be16 H96 N48'
_cell_volume   1965.35584217
_cell_formula_units_Z   16
loop_
 _symmetry_equiv_pos_site_id
 _symmetry_equiv_pos_as_xyz
  1  'x, y, z'
loop_
 _atom_site_type_symbol
 _atom_site_label
 _atom_site_symmetry_multiplicity
 _atom_site_fract_x
 _atom_site_fract_y
 _atom_site_fract_z
 _atom_site_occupancy
  K  K0  1  0.16253300  0.46132100  0.70089600  1
  K  K1  1  0.66253300  0.53867900  0.79910400  1
  K  K2  1  0.33746700  0.96132100  0.29910400  1
  K  K3  1  0.83746700  0.03867900  0.20089600  1
  K  K4  1  0.83746700  0.53867900  0.29910400  1
  K  K5  1  0.33746700  0.46132100  0.20089600  1
  K  K6  1  0.66253300  0.03867900  0.70089600  1
  K  K7  1  0.16253300  0.96132100  0.79910400  1
  K  K8  1  0.94414900  0.34178200  0.47994300  1
  K  K9  1  0.44414900  0.65821800  0.02005700  1
  K  K10  1  0.55585100  0.84178200  0.52005700  1
  K  K11  1  0.05585100  0.15821800  0.97994300  1
  K  K12  1  0.05585100  0.65821800  0.52005700  1
  K  K13  1  0.55585100  0.34178200  0.97994300  1
  K  K14  1  0.44414900  0.15821800  0.47994300  1
  K  K15  1  0.94414900  0.84178200  0.02005700  1
  Be  Be0  1  0.20506700  0.44976600  0.44343800  1
  Be  Be1  1  0.79493300  0.05023400  0.94343800  1
  Be  Be2  1  0.29493300  0.94976600  0.55656200  1
  Be  Be3  1  0.29493300  0.44976600  0.94343800  1
  Be  Be4  1  0.79493300  0.55023400  0.55656200  1
  Be  Be5  1  0.20506700  0.94976600  0.05656200  1
  Be  Be6  1  0.70506700  0.05023400  0.44343800  1
  Be  Be7  1  0.96981500  0.75886000  0.25361000  1
  Be  Be8  1  0.46981500  0.24114000  0.24639000  1
  Be  Be9  1  0.53018500  0.25886000  0.74639000  1
  Be  Be10  1  0.03018500  0.74114000  0.75361000  1
  Be  Be11  1  0.03018500  0.24114000  0.74639000  1
  Be  Be12  1  0.53018500  0.75886000  0.75361000  1
  Be  Be13  1  0.46981500  0.74114000  0.25361000  1
  Be  Be14  1  0.96981500  0.25886000  0.24639000  1
  Be  Be15  1  0.70506700  0.55023400  0.05656200  1
  H  H0  1  0.15526500  0.27729100  0.17859200  1
  H  H1  1  0.65526500  0.72270900  0.32140800  1
  H  H2  1  0.34473500  0.77729100  0.82140800  1
  H  H3  1  0.84473500  0.22270900  0.67859200  1
  H  H4  1  0.84473500  0.72270900  0.82140800  1
  H  H5  1  0.34473500  0.27729100  0.67859200  1
  H  H6  1  0.65526500  0.22270900  0.17859200  1
  H  H7  1  0.15526500  0.77729100  0.32140800  1
  H  H8  1  0.05900800  0.35265000  0.12173300  1
  H  H9  1  0.55900800  0.64735000  0.37826700  1
  H  H10  1  0.44099200  0.85265000  0.87826700  1
  H  H11  1  0.94099200  0.14735000  0.62173300  1
  H  H12  1  0.94099200  0.64735000  0.87826700  1
  H  H13  1  0.44099200  0.35265000  0.62173300  1
  H  H14  1  0.55900800  0.14735000  0.12173300  1
  H  H15  1  0.05900800  0.85265000  0.37826700  1
  H  H16  1  0.80820400  0.35186900  0.19025100  1
  H  H17  1  0.30820400  0.64813100  0.30974900  1
  H  H18  1  0.69179600  0.85186900  0.80974900  1
  H  H19  1  0.19179600  0.14813100  0.69025100  1
  H  H20  1  0.19179600  0.64813100  0.80974900  1
  H  H21  1  0.69179600  0.35186900  0.69025100  1
  H  H22  1  0.30820400  0.14813100  0.19025100  1
  H  H23  1  0.80820400  0.85186900  0.30974900  1
  H  H24  1  0.77701800  0.29033600  0.29483200  1
  H  H25  1  0.27701800  0.70966400  0.20516800  1
  H  H26  1  0.72298200  0.79033600  0.70516800  1
  H  H27  1  0.22298200  0.20966400  0.79483200  1
  H  H28  1  0.22298200  0.70966400  0.70516800  1
  H  H29  1  0.72298200  0.29033600  0.79483200  1
  H  H30  1  0.27701800  0.20966400  0.29483200  1
  H  H31  1  0.77701800  0.79033600  0.20516800  1
  H  H32  1  0.93303900  0.14686500  0.38086500  1
  H  H33  1  0.43303900  0.85313500  0.11913500  1
  H  H34  1  0.56696100  0.64686500  0.61913500  1
  H  H35  1  0.06696100  0.35313500  0.88086500  1
  H  H36  1  0.06696100  0.85313500  0.61913500  1
  H  H37  1  0.56696100  0.14686500  0.88086500  1
  H  H38  1  0.43303900  0.35313500  0.38086500  1
  H  H39  1  0.93303900  0.64686500  0.11913500  1
  H  H40  1  0.07128200  0.13479000  0.34215000  1
  H  H41  1  0.57128200  0.86521000  0.15785000  1
  H  H42  1  0.42871800  0.63479000  0.65785000  1
  H  H43  1  0.85345800  0.99309600  0.54513600  1
  H  H44  1  0.92871800  0.36521000  0.84215000  1
  H  H45  1  0.42871800  0.13479000  0.84215000  1
  H  H46  1  0.57128200  0.36521000  0.34215000  1
  H  H47  1  0.07128200  0.63479000  0.15785000  1
  H  H48  1  0.61229200  0.94320000  0.32438800  1
  H  H49  1  0.11229200  0.05680000  0.17561200  1
  H  H50  1  0.88770800  0.44320000  0.67561200  1
  H  H51  1  0.38770800  0.55680000  0.82438800  1
  H  H52  1  0.38770800  0.05680000  0.67561200  1
  H  H53  1  0.88770800  0.94320000  0.82438800  1
  H  H54  1  0.11229200  0.55680000  0.32438800  1
  H  H55  1  0.61229200  0.44320000  0.17561200  1
  H  H56  1  0.58284400  0.06442600  0.30479400  1
  H  H57  1  0.08284400  0.93557400  0.19520600  1
  H  H58  1  0.91715600  0.56442600  0.69520600  1
  H  H59  1  0.41715600  0.43557400  0.80479400  1
  H  H60  1  0.41715600  0.93557400  0.69520600  1
  H  H61  1  0.91715600  0.06442600  0.80479400  1
  H  H62  1  0.08284400  0.43557400  0.30479400  1
  H  H63  1  0.58284400  0.56442600  0.19520600  1
  H  H64  1  0.66841300  0.22629200  0.43853900  1
  H  H65  1  0.16841300  0.77370800  0.06146100  1
  H  H66  1  0.83158700  0.72629200  0.56146100  1
  H  H67  1  0.33158700  0.27370800  0.93853900  1
  H  H68  1  0.33158700  0.77370800  0.56146100  1
  H  H69  1  0.83158700  0.22629200  0.93853900  1
  H  H70  1  0.16841300  0.27370800  0.43853900  1
  H  H71  1  0.66841300  0.72629200  0.06146100  1
  H  H72  1  0.75610900  0.19720800  0.53375400  1
  H  H73  1  0.25610900  0.80279200  0.96624600  1
  H  H74  1  0.74389100  0.69720800  0.46624600  1
  H  H75  1  0.24389100  0.30279200  0.03375400  1
  H  H76  1  0.24389100  0.80279200  0.46624600  1
  H  H77  1  0.74389100  0.19720800  0.03375400  1
  H  H78  1  0.25610900  0.30279200  0.53375400  1
  H  H79  1  0.75610900  0.69720800  0.96624600  1
  H  H80  1  0.80284300  0.39876500  0.02033400  1
  H  H81  1  0.30284300  0.60123500  0.47966600  1
  H  H82  1  0.69715700  0.89876500  0.97966600  1
  H  H83  1  0.19715700  0.10123500  0.52033400  1
  H  H84  1  0.19715700  0.60123500  0.97966600  1
  H  H85  1  0.69715700  0.39876500  0.52033400  1
  H  H86  1  0.30284300  0.10123500  0.02033400  1
  H  H87  1  0.80284300  0.89876500  0.47966600  1
  H  H88  1  0.85345800  0.49309600  0.95486400  1
  H  H89  1  0.35345800  0.50690400  0.54513600  1
  H  H90  1  0.64654200  0.99309600  0.04513600  1
  H  H91  1  0.14654200  0.00690400  0.45486400  1
  H  H92  1  0.14654200  0.50690400  0.04513600  1
  H  H93  1  0.64654200  0.49309600  0.45486400  1
  H  H94  1  0.35345800  0.00690400  0.95486400  1
  H  H95  1  0.92871800  0.86521000  0.65785000  1
  N  N0  1  0.27898800  0.53241700  0.50953900  1
  N  N1  1  0.49325600  0.82877700  0.17113700  1
  N  N2  1  0.50674400  0.67122300  0.67113700  1
  N  N3  1  0.00674400  0.32877700  0.82886300  1
  N  N4  1  0.00674400  0.82877700  0.67113700  1
  N  N5  1  0.50674400  0.17122300  0.82886300  1
  N  N6  1  0.49325600  0.32877700  0.32886300  1
  N  N7  1  0.99325600  0.67122300  0.17113700  1
  N  N8  1  0.61259200  0.01352800  0.35750900  1
  N  N9  1  0.11259200  0.98647200  0.14249100  1
  N  N10  1  0.88740800  0.51352800  0.64249100  1
  N  N11  1  0.38740800  0.48647200  0.85750900  1
  N  N12  1  0.38740800  0.98647200  0.64249100  1
  N  N13  1  0.88740800  0.01352800  0.85750900  1
  N  N14  1  0.11259200  0.48647200  0.35750900  1
  N  N15  1  0.61259200  0.51352800  0.14249100  1
  N  N16  1  0.70448500  0.16739500  0.47830300  1
  N  N17  1  0.20448500  0.83260500  0.02169700  1
  N  N18  1  0.79551500  0.66739500  0.52169700  1
  N  N19  1  0.29551500  0.33260500  0.97830300  1
  N  N20  1  0.29551500  0.83260500  0.52169700  1
  N  N21  1  0.79551500  0.16739500  0.97830300  1
  N  N22  1  0.20448500  0.33260500  0.47830300  1
  N  N23  1  0.70448500  0.66739500  0.02169700  1
  N  N24  1  0.84473300  0.81865600  0.24766400  1
  N  N25  1  0.27898800  0.03241700  0.99046100  1
  N  N26  1  0.72101200  0.46758300  0.49046100  1
  N  N27  1  0.22101200  0.53241700  0.00953900  1
  N  N28  1  0.22101200  0.03241700  0.49046100  1
  N  N29  1  0.72101200  0.96758300  0.00953900  1
  N  N30  1  0.99325600  0.17122300  0.32886300  1
  N  N31  1  0.77898800  0.46758300  0.99046100  1
  N  N32  1  0.34473300  0.18134400  0.25233600  1
  N  N33  1  0.65526700  0.31865600  0.75233600  1
  N  N34  1  0.15526700  0.68134400  0.74766400  1
  N  N35  1  0.15526700  0.18134400  0.75233600  1
  N  N36  1  0.65526700  0.81865600  0.74766400  1
  N  N37  1  0.34473300  0.68134400  0.24766400  1
  N  N38  1  0.84473300  0.31865600  0.25233600  1
  N  N39  1  0.06775700  0.78636300  0.33855200  1
  N  N40  1  0.56775700  0.21363700  0.16144800  1
  N  N41  1  0.43224300  0.28636300  0.66144800  1
  N  N42  1  0.93224300  0.71363700  0.83855200  1
  N  N43  1  0.93224300  0.21363700  0.66144800  1
  N  N44  1  0.43224300  0.78636300  0.83855200  1
  N  N45  1  0.56775700  0.71363700  0.33855200  1
  N  N46  1  0.06775700  0.28636300  0.16144800  1
  N  N47  1  0.77898800  0.96758300  0.50953900  1
loop_
_geom_bond_atom_site_label_1
_geom_bond_atom_site_label_2
_geom_bond_distance
_geom_bond_site_symmetry_2
K0 N34 2.948206 1_555
K0 N3 3.000034 1_555
K0 N0 3.010314 1_555
K1 N33 2.948206 1_555
K1 N2 3.000034 1_555
K1 N31 3.010314 1_555
K2 N32 2.948206 1_565
K2 N1 3.000034 1_555
K2 N28 3.010314 1_565
K3 N24 2.948206 1_545
K3 N30 3.000034 1_555
K3 N29 3.010314 1_545
K4 N38 2.948206 1_555
K4 N7 3.000034 1_555
K4 N26 3.010314 1_555
K5 N37 2.948206 1_555
K5 N6 3.000034 1_555
K5 N27 3.010314 1_555
K6 N36 2.948206 1_545
K6 N5 3.000034 1_555
K6 N47 3.010314 1_545
K7 N35 2.948206 1_565
K7 N4 3.000034 1_555
K7 N25 3.010314 1_565
K8 N43 2.940972 1_555
K8 N22 2.943580 1_655
K8 N26 3.014473 1_555
K8 N30 3.053597 1_555
K8 N14 3.139505 1_655
K8 N10 3.183114 1_555
K8 N38 3.240214 1_555
K9 N44 2.940972 1_554
K9 N23 2.943580 1_555
K9 N27 3.014473 1_555
K9 N1 3.053597 1_555
K9 N15 3.139505 1_555
K9 N11 3.183114 1_554
K9 N37 3.240214 1_555
K10 N45 2.940972 1_555
K10 N20 2.943580 1_555
K10 N47 3.014473 1_555
K10 N2 3.053597 1_555
K10 N12 3.139505 1_555
K10 N8 3.183114 1_565
K10 N36 3.240214 1_555
K11 N46 2.940972 1_556
K11 N21 2.943580 1_455
K11 N25 3.014473 1_555
K11 N3 3.053597 1_555
K11 N13 3.139505 1_455
K11 N9 3.183114 1_546
K11 N35 3.240214 1_555
K12 N39 2.940972 1_555
K12 N18 2.943580 1_455
K12 N0 3.014473 1_555
K12 N4 3.053597 1_555
K12 N10 3.139505 1_455
K12 N14 3.183114 1_555
K12 N34 3.240214 1_555
K13 N40 2.940972 1_556
K13 N19 2.943580 1_555
K13 N31 3.014473 1_555
K13 N5 3.053597 1_555
K13 N11 3.139505 1_555
K13 N15 3.183114 1_556
K13 N33 3.240214 1_555
K14 N41 2.940972 1_555
K14 N16 2.943580 1_555
K14 N28 3.014473 1_555
K14 N6 3.053597 1_555
K14 N8 3.139505 1_555
K14 N12 3.183114 1_545
K14 N32 3.240214 1_555
K15 N42 2.940972 1_554
K15 N17 2.943580 1_655
K15 N29 3.014473 1_555
K15 N7 3.053597 1_555
K15 N9 3.139505 1_655
K15 N13 3.183114 1_564
K15 N24 3.240214 1_555
Be0 N22 1.602448 1_555
Be0 N14 1.620478 1_555
Be0 N0 1.624762 1_555
Be1 N21 1.602448 1_555
Be1 N13 1.620478 1_555
Be1 N29 1.624762 1_546
Be2 N20 1.602448 1_555
Be2 N12 1.620478 1_555
Be2 N28 1.624762 1_565
Be3 N19 1.602448 1_555
Be3 N11 1.620478 1_555
Be3 N27 1.624762 1_556
Be4 N18 1.602448 1_555
Be4 N10 1.620478 1_555
Be4 N26 1.624762 1_555
Be5 N17 1.602448 1_555
Be5 N9 1.620478 1_555
Be5 N25 1.624762 1_564
Be6 N16 1.602448 1_555
Be6 N8 1.620478 1_555
Be6 N47 1.624762 1_545
Be7 N7 1.608599 1_555
Be7 N24 1.617393 1_555
Be7 N39 1.621028 1_655
Be8 N6 1.608599 1_555
Be8 N32 1.617393 1_555
Be8 N40 1.621028 1_555
Be9 N5 1.608599 1_555
Be9 N33 1.617393 1_555
Be9 N41 1.621028 1_555
Be10 N4 1.608599 1_555
Be10 N34 1.617393 1_555
Be10 N42 1.621028 1_455
Be11 N3 1.608599 1_555
Be11 N35 1.617393 1_555
Be11 N43 1.621028 1_455
Be12 N2 1.608599 1_555
Be12 N36 1.617393 1_555
Be12 N44 1.621028 1_555
Be13 N1 1.608599 1_555
Be13 N37 1.617393 1_555
Be13 N45 1.621028 1_555
Be14 N30 1.608599 1_555
Be14 N38 1.617393 1_555
Be14 N46 1.621028 1_655
Be15 N23 1.602448 1_555
Be15 N15 1.620478 1_555
Be15 N31 1.624762 1_554
H0 N46 1.021423 1_555
H1 N45 1.021423 1_555
H2 N44 1.021423 1_555
H3 N43 1.021423 1_555
H4 N42 1.021423 1_555
H5 N41 1.021423 1_555
H6 N40 1.021423 1_555
H7 N39 1.021423 1_555
H8 N46 1.020537 1_555
H9 N45 1.020537 1_555
H10 N44 1.020537 1_555
H11 N43 1.020537 1_555
H12 N42 1.020537 1_555
H13 N41 1.020537 1_555
H14 N40 1.020537 1_555
H15 N39 1.020537 1_555
H16 N38 1.019758 1_555
H16 K4 2.860733 1_555
H17 N37 1.019758 1_555
H17 K5 2.860733 1_555
H18 N36 1.019758 1_555
H18 K6 2.860733 1_565
H19 N35 1.019758 1_555
H19 K7 2.860733 1_545
H20 N34 1.019758 1_555
H20 K0 2.860733 1_555
H21 N33 1.019758 1_555
H21 K1 2.860733 1_555
H22 N32 1.019758 1_555
H22 K2 2.860733 1_545
H23 N24 1.019758 1_555
H23 K3 2.860733 1_565
H24 N38 1.020548 1_555
H25 N37 1.020548 1_555
H26 N36 1.020548 1_555
H27 N35 1.020548 1_555
H28 N34 1.020548 1_555
H29 N33 1.020548 1_555
H30 N32 1.020548 1_555
H31 N24 1.020548 1_555
H32 N30 1.020738 1_555
H32 K8 2.874360 1_555
H32 K3 2.981660 1_555
H33 N1 1.020738 1_555
H33 K9 2.874360 1_555
H33 K2 2.981660 1_555
H34 N2 1.020738 1_555
H34 K10 2.874360 1_555
H34 K1 2.981660 1_555
H35 N3 1.020738 1_555
H35 K11 2.874360 1_555
H35 K0 2.981660 1_555
H36 N4 1.020738 1_555
H36 K12 2.874360 1_555
H36 K7 2.981660 1_555
H37 N5 1.020738 1_555
H37 K13 2.874360 1_555
H37 K6 2.981660 1_555
H38 N6 1.020738 1_555
H38 K14 2.874360 1_555
H38 K5 2.981660 1_555
H39 N7 1.020738 1_555
H39 K15 2.874360 1_555
H39 K4 2.981660 1_555
H40 N30 1.017697 1_455
H41 N1 1.017697 1_555
H42 N2 1.017697 1_555
H43 N47 1.021310 1_555
H44 N3 1.017697 1_655
H45 N5 1.017697 1_555
H46 N6 1.017697 1_555
H47 N7 1.017697 1_455
H48 N8 1.020582 1_565
H48 K10 2.988162 1_555
H49 N9 1.020582 1_545
H49 K11 2.988162 1_554
H50 N10 1.020582 1_555
H50 K8 2.988162 1_555
H51 N11 1.020582 1_555
H51 K9 2.988162 1_556
H52 N12 1.020582 1_545
H52 K14 2.988162 1_555
H53 N13 1.020582 1_565
H53 K15 2.988162 1_556
H54 N14 1.020582 1_555
H54 K12 2.988162 1_555
H55 N15 1.020582 1_555
H55 K13 2.988162 1_554
H56 N8 1.023548 1_555
H56 K14 3.062517 1_555
H57 N9 1.023548 1_555
H57 K15 3.062517 1_455
H58 N10 1.023548 1_555
H58 K12 3.062517 1_655
H59 N11 1.023548 1_555
H59 K13 3.062517 1_555
H60 N12 1.023548 1_555
H60 K10 3.062517 1_555
H61 N13 1.023548 1_555
H61 K11 3.062517 1_655
H62 N14 1.023548 1_555
H62 K8 3.062517 1_455
H63 N15 1.023548 1_555
H63 K9 3.062517 1_555
H64 N16 1.019748 1_555
H64 K14 2.741511 1_555
H65 N17 1.019748 1_555
H65 K15 2.741511 1_455
H66 N18 1.019748 1_555
H66 K12 2.741511 1_655
H67 N19 1.019748 1_555
H67 K13 2.741511 1_555
H68 N20 1.019748 1_555
H68 K10 2.741511 1_555
H69 N21 1.019748 1_555
H69 K11 2.741511 1_655
H70 N22 1.019748 1_555
H70 K8 2.741511 1_455
H71 N23 1.019748 1_555
H71 K9 2.741511 1_555
H72 N16 1.017516 1_555
H72 K8 2.933787 1_555
H73 N17 1.017516 1_556
H73 K9 2.933787 1_556
H74 N18 1.017516 1_555
H74 K10 2.933787 1_555
H75 N19 1.017516 1_554
H75 K11 2.933787 1_554
H76 N20 1.017516 1_555
H76 K12 2.933787 1_555
H77 N21 1.017516 1_554
H77 K13 2.933787 1_554
H78 N22 1.017516 1_555
H78 K14 2.933787 1_555
H79 N23 1.017516 1_556
H79 K15 2.933787 1_556
H80 N31 1.020814 1_554
H80 K13 2.937759 1_554
H81 N0 1.020814 1_555
H81 K12 2.937759 1_555
H82 N29 1.020814 1_556
H82 K15 2.937759 1_556
H83 N28 1.020814 1_555
H83 K14 2.937759 1_555
H84 N27 1.020814 1_556
H84 K9 2.937759 1_556
H85 N26 1.020814 1_555
H85 K8 2.937759 1_555
H86 N25 1.020814 1_554
H86 K11 2.937759 1_554
H87 N47 1.020814 1_555
H87 K10 2.937759 1_555
H88 N31 1.021310 1_555
H89 N0 1.021310 1_555
H90 N29 1.021310 1_555
H91 N28 1.021310 1_555
H92 N27 1.021310 1_555
H93 N26 1.021310 1_555
H94 N25 1.021310 1_555
H95 N4 1.017697 1_655
