# generated using pymatgen
data_Mg(CrS2)4
_symmetry_space_group_name_H-M   'P 1'
_cell_length_a   6.56141584
_cell_length_b   8.44138533
_cell_length_c   8.40433641
_cell_angle_alpha   45.50670431
_cell_angle_beta   67.10129027
_cell_angle_gamma   67.18400198
_symmetry_Int_Tables_number   1
_chemical_formula_structural   Mg(CrS2)4
_chemical_formula_sum   'Mg1 Cr4 S8'
_cell_volume   301.15757153
_cell_formula_units_Z   1
loop_
 _symmetry_equiv_pos_site_id
 _symmetry_equiv_pos_as_xyz
  1  'x, y, z'
loop_
 _atom_site_type_symbol
 _atom_site_label
 _atom_site_symmetry_multiplicity
 _atom_site_fract_x
 _atom_site_fract_y
 _atom_site_fract_z
 _atom_site_occupancy
  Mg  Mg0  1  0.62610792  0.61986950  0.62817156  1
  Cr  Cr0  1  0.57216741  0.43666441  0.43397307  1
  Cr  Cr1  1  0.43278234  0.04933327  0.58484107  1
  Cr  Cr2  1  0.05736243  0.43674388  0.43392813  1
  Cr  Cr3  1  0.43241468  0.58283608  0.05184395  1
  S  S0  1  0.76514523  0.24958748  0.72098563  1
  S  S1  1  0.72250761  0.76055504  0.76390316  1
  S  S2  1  0.27669678  0.23726586  0.70997030  1
  S  S3  1  0.27711752  0.71452510  0.23142101  1
  S  S4  1  0.24339508  0.28071536  0.27818760  1
  S  S5  1  0.76407236  0.72094268  0.25127585  1
  S  S6  1  0.25324591  0.76047108  0.76315809  1
  S  S7  1  0.69698572  0.28049025  0.27833857  1
loop_
_geom_bond_atom_site_label_1
_geom_bond_atom_site_label_2
_geom_bond_distance
_geom_bond_site_symmetry_2
Mg0 S0 2.476999 1_555
Mg0 S1 2.480848 1_555
Mg0 S6 2.481231 1_555
Mg0 S5 2.482006 1_555
Cr0 S7 2.205806 1_555
Cr0 S5 2.318612 1_555
Cr0 S0 2.324318 1_555
Cr0 S2 2.351786 1_555
Cr0 S3 2.365111 1_555
Cr1 S2 2.216237 1_555
Cr1 S6 2.304618 1_545
Cr1 S1 2.304633 1_545
Cr1 S7 2.356106 1_555
Cr1 S4 2.357005 1_555
Cr2 S4 2.205471 1_555
Cr2 S5 2.317692 1_455
Cr2 S0 2.323724 1_455
Cr2 S2 2.352022 1_555
Cr2 S3 2.364900 1_555
Cr3 S3 2.197298 1_555
Cr3 S6 2.295694 1_554
Cr3 S1 2.295912 1_554
Cr3 S7 2.340241 1_555
Cr3 S4 2.340519 1_555
