# generated using pymatgen
data_Nb10Ge7
_symmetry_space_group_name_H-M   'P 1'
_cell_length_a   14.39757191
_cell_length_b   14.39757191
_cell_length_c   5.56438400
_cell_angle_alpha   90.00000000
_cell_angle_beta   90.00000000
_cell_angle_gamma   119.99999958
_symmetry_Int_Tables_number   1
_chemical_formula_structural   Nb10Ge7
_chemical_formula_sum   'Nb30 Ge21'
_cell_volume   998.90972046
_cell_formula_units_Z   3
loop_
 _symmetry_equiv_pos_site_id
 _symmetry_equiv_pos_as_xyz
  1  'x, y, z'
loop_
 _atom_site_type_symbol
 _atom_site_label
 _atom_site_symmetry_multiplicity
 _atom_site_fract_x
 _atom_site_fract_y
 _atom_site_fract_z
 _atom_site_occupancy
  Nb  Nb0  1  0.90885600  0.09114400  0.23577000  1
  Nb  Nb1  1  0.90885600  0.81771300  0.23577000  1
  Nb  Nb2  1  0.18228700  0.09114400  0.23577000  1
  Nb  Nb3  1  0.81771300  0.90885600  0.76423000  1
  Nb  Nb4  1  0.09114400  0.18228700  0.76423000  1
  Nb  Nb5  1  0.09114400  0.90885600  0.76423000  1
  Nb  Nb6  1  0.60093800  0.39906200  0.45604500  1
  Nb  Nb7  1  0.60093800  0.20187600  0.45604500  1
  Nb  Nb8  1  0.79812400  0.39906200  0.45604500  1
  Nb  Nb9  1  0.20187600  0.60093800  0.54395500  1
  Nb  Nb10  1  0.39906200  0.79812400  0.54395500  1
  Nb  Nb11  1  0.39906200  0.60093800  0.54395500  1
  Nb  Nb12  1  0.50755600  0.49244400  0.26119900  1
  Nb  Nb13  1  0.50755600  0.01511100  0.26119900  1
  Nb  Nb14  1  0.98488900  0.49244400  0.26119900  1
  Nb  Nb15  1  0.01511100  0.50755600  0.73880100  1
  Nb  Nb16  1  0.49244400  0.98488900  0.73880100  1
  Nb  Nb17  1  0.49244400  0.50755600  0.73880100  1
  Nb  Nb18  1  0.31860600  0.00000000  0.50000000  1
  Nb  Nb19  1  0.00000000  0.31860600  0.50000000  1
  Nb  Nb20  1  0.68139400  0.68139400  0.50000000  1
  Nb  Nb21  1  0.68139400  0.00000000  0.50000000  1
  Nb  Nb22  1  0.00000000  0.68139400  0.50000000  1
  Nb  Nb23  1  0.31860600  0.31860600  0.50000000  1
  Nb  Nb24  1  0.30760500  0.00000000  0.00000000  1
  Nb  Nb25  1  0.00000000  0.30760500  0.00000000  1
  Nb  Nb26  1  0.69239500  0.69239500  0.00000000  1
  Nb  Nb27  1  0.69239500  0.00000000  0.00000000  1
  Nb  Nb28  1  0.00000000  0.69239500  0.00000000  1
  Nb  Nb29  1  0.30760500  0.30760500  0.00000000  1
  Ge  Ge0  1  0.79575200  0.20424800  0.32420000  1
  Ge  Ge1  1  0.79575200  0.59150300  0.32420000  1
  Ge  Ge2  1  0.40849700  0.20424800  0.32420000  1
  Ge  Ge3  1  0.59150300  0.79575200  0.67580000  1
  Ge  Ge4  1  0.20424800  0.40849700  0.67580000  1
  Ge  Ge5  1  0.20424800  0.79575200  0.67580000  1
  Ge  Ge6  1  0.41988200  0.58011800  0.07416100  1
  Ge  Ge7  1  0.41988200  0.83976400  0.07416100  1
  Ge  Ge8  1  0.16023600  0.58011800  0.07416100  1
  Ge  Ge9  1  0.83976400  0.41988200  0.92583900  1
  Ge  Ge10  1  0.58011800  0.16023600  0.92583900  1
  Ge  Ge11  1  0.58011800  0.41988200  0.92583900  1
  Ge  Ge12  1  0.12852600  0.87147400  0.26316100  1
  Ge  Ge13  1  0.12852600  0.25705200  0.26316100  1
  Ge  Ge14  1  0.74294800  0.87147400  0.26316100  1
  Ge  Ge15  1  0.25705200  0.12852600  0.73683900  1
  Ge  Ge16  1  0.87147400  0.74294800  0.73683900  1
  Ge  Ge17  1  0.87147400  0.12852600  0.73683900  1
  Ge  Ge18  1  0.33333300  0.66666700  0.91961500  1
  Ge  Ge19  1  0.66666700  0.33333300  0.08038500  1
  Ge  Ge20  1  0.00000000  0.00000000  0.00000000  1
loop_
_geom_bond_atom_site_label_1
_geom_bond_atom_site_label_2
_geom_bond_distance
_geom_bond_site_symmetry_2
Nb0 Nb25 3.011001 1_655
Nb0 Nb27 3.011001 1_555
Nb1 Nb26 3.011002 1_555
Nb1 Nb28 3.011013 1_655
Nb2 Nb29 3.011002 1_555
Nb2 Nb24 3.011013 1_555
Nb12 Nb26 3.133836 1_555
Nb12 Nb29 3.133836 1_555
Nb13 Nb27 3.133828 1_555
Nb13 Nb24 3.133841 1_555
Nb14 Nb25 3.133828 1_655
Nb14 Nb28 3.133841 1_655
Nb15 Nb28 3.133828 1_556
Nb15 Nb25 3.133841 1_556
Nb16 Nb24 3.133828 1_566
Nb16 Nb27 3.133841 1_566
Nb17 Nb26 3.133836 1_556
Nb17 Nb29 3.133836 1_556
Nb18 Nb24 2.786697 1_556
Nb18 Nb24 2.786697 1_555
Nb19 Nb25 2.786697 1_556
Nb19 Nb25 2.786697 1_555
Nb20 Nb26 2.786697 1_556
Nb20 Nb26 2.786697 1_555
Nb21 Nb27 2.786697 1_555
Nb21 Nb27 2.786697 1_556
Nb22 Nb28 2.786697 1_555
Nb22 Nb28 2.786697 1_556
Nb23 Nb29 2.786697 1_555
Nb23 Nb29 2.786697 1_556
Nb24 Nb5 3.011001 1_544
Nb25 Nb4 3.011013 1_554
Nb26 Nb3 3.011002 1_554
Nb27 Nb3 3.011013 1_544
Nb28 Nb5 3.011001 1_554
Nb29 Nb4 3.011002 1_554
Ge0 Nb21 2.733791 1_555
Ge0 Nb19 2.733791 1_655
Ge0 Nb0 2.863111 1_555
Ge0 Nb7 2.882842 1_555
Ge0 Nb8 2.882842 1_555
Ge0 Nb27 3.120947 1_555
Ge0 Nb25 3.120947 1_655
Ge1 Nb22 2.733790 1_655
Ge1 Nb20 2.733803 1_555
Ge1 Nb1 2.863136 1_555
Ge1 Nb8 2.882828 1_555
Ge1 Nb6 2.882835 1_555
Ge1 Nb28 3.120947 1_655
Ge1 Nb26 3.120958 1_555
Ge2 Nb18 2.733790 1_555
Ge2 Nb23 2.733803 1_555
Ge2 Nb2 2.863136 1_555
Ge2 Nb7 2.882828 1_555
Ge2 Nb6 2.882835 1_555
Ge2 Nb24 3.120947 1_555
Ge2 Nb29 3.120958 1_555
Ge3 Nb21 2.733790 1_565
Ge3 Nb20 2.733803 1_555
Ge3 Nb3 2.863136 1_555
Ge3 Nb10 2.882828 1_555
Ge3 Nb11 2.882835 1_555
Ge3 Nb27 3.120947 1_566
Ge3 Nb26 3.120958 1_556
Ge4 Nb19 2.733790 1_555
Ge4 Nb23 2.733803 1_555
Ge4 Nb4 2.863136 1_555
Ge4 Nb9 2.882828 1_555
Ge4 Nb11 2.882835 1_555
Ge4 Nb25 3.120947 1_556
Ge4 Nb29 3.120958 1_556
Ge5 Nb22 2.733791 1_555
Ge5 Nb18 2.733791 1_565
Ge5 Nb5 2.863111 1_555
Ge5 Nb9 2.882842 1_555
Ge5 Nb10 2.882842 1_555
Ge5 Nb28 3.120947 1_556
Ge5 Nb24 3.120947 1_566
Ge6 Nb12 2.421428 1_555
Ge6 Nb17 2.599331 1_554
Ge6 Nb11 2.665175 1_555
Ge6 Nb11 2.995606 1_554
Ge6 Nb26 3.440207 1_555
Ge6 Nb29 3.440207 1_555
Ge7 Nb13 2.421416 1_565
Ge7 Nb16 2.599340 1_554
Ge7 Nb10 2.665175 1_555
Ge7 Nb10 2.995606 1_554
Ge7 Nb24 3.440207 1_565
Ge7 Nb27 3.440207 1_565
Ge8 Nb14 2.421416 1_455
Ge8 Nb15 2.599340 1_554
Ge8 Nb9 2.665175 1_555
Ge8 Nb9 2.995606 1_554
Ge8 Nb28 3.440207 1_555
Ge8 Nb25 3.440207 1_555
Ge9 Nb15 2.421416 1_655
Ge9 Nb14 2.599340 1_556
Ge9 Nb8 2.665175 1_555
Ge9 Nb8 2.995606 1_556
Ge9 Nb25 3.440207 1_656
Ge9 Nb28 3.440207 1_656
Ge10 Ge19 2.323301 1_556
Ge10 Nb16 2.421416 1_545
Ge10 Nb13 2.599340 1_556
Ge10 Nb7 2.665175 1_555
Ge10 Nb7 2.995606 1_556
Ge10 Nb27 3.440207 1_556
Ge10 Nb24 3.440207 1_556
Ge11 Ge19 2.323313 1_556
Ge11 Nb17 2.421428 1_555
Ge11 Nb12 2.599331 1_556
Ge11 Nb6 2.665175 1_555
Ge11 Nb6 2.995606 1_556
Ge11 Nb26 3.440207 1_556
Ge11 Nb29 3.440207 1_556
Ge12 Nb24 2.728564 1_565
Ge12 Nb28 2.728564 1_555
Ge12 Nb18 2.754325 1_565
Ge12 Nb22 2.754325 1_555
Ge12 Nb1 2.859560 1_455
Ge12 Nb2 2.859560 1_565
Ge12 Nb5 2.928573 1_554
Ge12 Nb5 2.939853 1_555
Ge13 Nb25 2.728564 1_555
Ge13 Nb29 2.728564 1_555
Ge13 Nb19 2.754325 1_555
Ge13 Nb23 2.754325 1_555
Ge13 Nb2 2.859546 1_555
Ge13 Nb0 2.859556 1_455
Ge13 Nb4 2.928577 1_554
Ge13 Nb4 2.939857 1_555
Ge14 Nb27 2.728564 1_565
Ge14 Nb26 2.728564 1_555
Ge14 Nb21 2.754325 1_565
Ge14 Nb20 2.754325 1_555
Ge14 Nb1 2.859546 1_555
Ge14 Nb0 2.859556 1_565
Ge14 Nb3 2.928577 1_554
Ge14 Nb3 2.939857 1_555
Ge15 Nb24 2.728564 1_556
Ge15 Nb29 2.728564 1_556
Ge15 Nb18 2.754325 1_555
Ge15 Nb23 2.754325 1_555
Ge15 Nb4 2.859546 1_555
Ge15 Nb5 2.859556 1_545
Ge15 Nb2 2.928577 1_556
Ge15 Nb2 2.939857 1_555
Ge16 Nb28 2.728564 1_656
Ge16 Nb26 2.728564 1_556
Ge16 Nb22 2.754325 1_655
Ge16 Nb20 2.754325 1_555
Ge16 Nb3 2.859546 1_555
Ge16 Nb5 2.859556 1_655
Ge16 Nb1 2.928577 1_556
Ge16 Nb1 2.939857 1_555
Ge17 Nb25 2.728564 1_656
Ge17 Nb27 2.728564 1_556
Ge17 Nb19 2.754325 1_655
Ge17 Nb21 2.754325 1_555
Ge17 Nb3 2.859560 1_545
Ge17 Nb4 2.859560 1_655
Ge17 Nb0 2.928573 1_556
Ge17 Nb0 2.939853 1_555
Ge18 Ge7 2.323301 1_556
Ge18 Ge8 2.323301 1_556
Ge18 Ge6 2.323313 1_556
Ge18 Nb9 2.656322 1_555
Ge18 Nb10 2.656322 1_555
Ge18 Nb11 2.656330 1_555
Ge19 Ge9 2.323301 1_554
Ge19 Nb8 2.656322 1_555
Ge19 Nb7 2.656322 1_555
Ge19 Nb6 2.656330 1_555
Ge20 Nb4 2.624325 1_554
Ge20 Nb2 2.624325 1_555
Ge20 Nb3 2.624325 1_444
Ge20 Nb1 2.624325 1_445
Ge20 Nb5 2.624336 1_544
Ge20 Nb0 2.624336 1_455
