# generated using pymatgen
data_MgFeCu2SnS4
_symmetry_space_group_name_H-M   'P 1'
_cell_length_a   5.78157604
_cell_length_b   5.84511104
_cell_length_c   5.78580300
_cell_angle_alpha   90.00281776
_cell_angle_beta   90.00044596
_cell_angle_gamma   89.98655581
_symmetry_Int_Tables_number   1
_chemical_formula_structural   MgFeCu2SnS4
_chemical_formula_sum   'Mg1 Fe1 Cu2 Sn1 S4'
_cell_volume   195.52515458
_cell_formula_units_Z   1
loop_
 _symmetry_equiv_pos_site_id
 _symmetry_equiv_pos_as_xyz
  1  'x, y, z'
loop_
 _atom_site_type_symbol
 _atom_site_label
 _atom_site_symmetry_multiplicity
 _atom_site_fract_x
 _atom_site_fract_y
 _atom_site_fract_z
 _atom_site_occupancy
  Mg  Mg0  1  0.50002400  0.49996200  0.49998500  1
  Fe  Fe0  1  0.49998100  0.49999800  0.00005900  1
  Cu  Cu0  1  0.00000100  0.50003700  0.50002000  1
  Cu  Cu1  1  0.50000000  0.00002000  0.49995200  1
  Sn  Sn0  1  0.99999600  0.99997900  0.00005600  1
  S  S0  1  0.27019500  0.27039800  0.25944200  1
  S  S1  1  0.27017500  0.72968200  0.74050700  1
  S  S2  1  0.72980900  0.27035200  0.74054500  1
  S  S3  1  0.72981800  0.72957100  0.25943400  1
loop_
_geom_bond_atom_site_label_1
_geom_bond_atom_site_label_2
_geom_bond_distance
_geom_bond_site_symmetry_2
Mg0 S2 2.345784 1_555
Mg0 S0 2.345994 1_555
Mg0 S3 2.346148 1_555
Mg0 S1 2.346165 1_555
Fe0 S3 2.412279 1_555
Fe0 S0 2.412328 1_555
Fe0 S2 2.412654 1_554
Fe0 S1 2.412914 1_554
Cu0 S3 2.485341 1_455
Cu0 S0 2.485626 1_555
Cu0 S1 2.485659 1_555
Cu0 S2 2.486062 1_455
Cu1 S0 2.489678 1_555
Cu1 S3 2.489932 1_545
Cu1 S2 2.490097 1_555
Cu1 S1 2.490144 1_545
S0 Sn0 2.681779 1_445
S1 Sn0 2.681401 1_456
S2 Sn0 2.681640 1_546
S3 Sn0 2.681745 1_555
