# generated using pymatgen
data_H8S(NO2)2
_symmetry_space_group_name_H-M   'P 1'
_cell_length_a   5.90549639
_cell_length_b   7.91291932
_cell_length_c   10.46341775
_cell_angle_alpha   90.00000000
_cell_angle_beta   90.00000000
_cell_angle_gamma   90.00000000
_symmetry_Int_Tables_number   1
_chemical_formula_structural   H8S(NO2)2
_chemical_formula_sum   'H32 S4 N8 O16'
_cell_volume   488.95254485
_cell_formula_units_Z   4
loop_
 _symmetry_equiv_pos_site_id
 _symmetry_equiv_pos_as_xyz
  1  'x, y, z'
loop_
 _atom_site_type_symbol
 _atom_site_label
 _atom_site_symmetry_multiplicity
 _atom_site_fract_x
 _atom_site_fract_y
 _atom_site_fract_z
 _atom_site_occupancy
  H  H0  1  0.42273590  0.45889454  0.83666383  1
  H  H1  1  0.92273590  0.54110546  0.16333617  1
  H  H2  1  0.92273590  0.04110546  0.33666383  1
  H  H3  1  0.42273590  0.95889454  0.66333617  1
  H  H4  1  0.14842424  0.39643676  0.83664746  1
  H  H5  1  0.64842424  0.60356324  0.16335254  1
  H  H6  1  0.64842424  0.10356324  0.33664746  1
  H  H7  1  0.14842424  0.89643676  0.66335254  1
  H  H8  1  0.26183936  0.48511889  0.70509588  1
  H  H9  1  0.76183936  0.51488111  0.29490412  1
  H  H10  1  0.76183936  0.01488111  0.20509588  1
  H  H11  1  0.26183936  0.98511889  0.79490412  1
  H  H12  1  0.22035420  0.60391481  0.83720882  1
  H  H13  1  0.72035420  0.39608519  0.16279118  1
  H  H14  1  0.19425518  0.26525270  0.17995385  1
  H  H15  1  0.72035420  0.89608519  0.33720882  1
  H  H16  1  0.41449547  0.18787238  0.09471975  1
  H  H17  1  0.91449547  0.81212762  0.90528025  1
  H  H18  1  0.91449547  0.31212762  0.59471975  1
  H  H19  1  0.41449547  0.68787238  0.40528025  1
  H  H20  1  0.15468066  0.20482866  0.02671362  1
  H  H21  1  0.65468066  0.79517134  0.97328638  1
  H  H22  1  0.65468066  0.29517134  0.52671362  1
  H  H23  1  0.15468066  0.70482866  0.47328638  1
  H  H24  1  0.19868856  0.05894615  0.13947805  1
  H  H25  1  0.69868856  0.94105385  0.86052195  1
  H  H26  1  0.69868856  0.44105385  0.63947805  1
  H  H27  1  0.19868856  0.55894615  0.36052195  1
  H  H28  1  0.19425518  0.76525270  0.32004615  1
  H  H29  1  0.69425518  0.23474730  0.67995385  1
  H  H30  1  0.69425518  0.73474730  0.82004615  1
  H  H31  1  0.22035420  0.10391481  0.66279118  1
  S  S0  1  0.24737368  0.74216141  0.07281892  1
  S  S1  1  0.74737368  0.25783859  0.92718108  1
  S  S2  1  0.74737368  0.75783859  0.57281892  1
  S  S3  1  0.24737368  0.24216141  0.42718108  1
  N  N0  1  0.26169462  0.48586626  0.80260529  1
  N  N1  1  0.76169462  0.51413374  0.19739471  1
  N  N2  1  0.76169462  0.01413374  0.30260529  1
  N  N3  1  0.26169462  0.98586626  0.69739471  1
  N  N4  1  0.24198206  0.18001383  0.11071106  1
  N  N5  1  0.74198206  0.81998617  0.88928894  1
  N  N6  1  0.74198206  0.31998617  0.61071106  1
  N  N7  1  0.24198206  0.68001383  0.38928894  1
  O  O0  1  0.48530822  0.77618095  0.11002610  1
  O  O1  1  0.98530822  0.22381905  0.88997390  1
  O  O2  1  0.98530822  0.72381905  0.61002610  1
  O  O3  1  0.48530822  0.27618095  0.38997390  1
  O  O4  1  0.09610647  0.84431234  0.15468466  1
  O  O5  1  0.59610647  0.15568766  0.84531534  1
  O  O6  1  0.59610647  0.65568766  0.65468466  1
  O  O7  1  0.09610647  0.34431234  0.34531534  1
  O  O8  1  0.21568419  0.79358478  0.93738310  1
  O  O9  1  0.71568419  0.20641522  0.06261690  1
  O  O10  1  0.71568419  0.70641522  0.43738310  1
  O  O11  1  0.21568419  0.29358478  0.56261690  1
  O  O12  1  0.19537719  0.56232935  0.08880253  1
  O  O13  1  0.69537719  0.43767065  0.91119747  1
  O  O14  1  0.69537719  0.93767065  0.58880253  1
  O  O15  1  0.19537719  0.06232935  0.41119747  1
loop_
_geom_bond_atom_site_label_1
_geom_bond_atom_site_label_2
_geom_bond_distance
_geom_bond_site_symmetry_2
H0 N0 1.037788 1_555
H1 N1 1.037788 1_555
H2 N2 1.037788 1_555
H3 N3 1.037788 1_555
H4 N0 1.036867 1_555
H5 N1 1.036867 1_555
H6 N2 1.036867 1_555
H7 N3 1.036867 1_555
H8 N0 1.020299 1_555
H9 N1 1.020299 1_555
H10 N2 1.020299 1_555
H11 N3 1.020299 1_555
H12 N0 1.031143 1_555
H13 N1 1.031143 1_555
H14 N4 1.029222 1_555
H15 N2 1.031143 1_565
H16 N4 1.034298 1_555
H17 N5 1.034298 1_555
H18 N6 1.034298 1_555
H19 N7 1.034298 1_555
H20 N4 1.037700 1_555
H21 N5 1.037700 1_555
H22 N6 1.037700 1_555
H23 N7 1.037700 1_555
H24 N4 1.036210 1_555
H25 N5 1.036210 1_555
H26 N6 1.036210 1_555
H27 N7 1.036210 1_555
H28 N7 1.029222 1_555
H29 N6 1.029222 1_555
H30 N5 1.029222 1_555
H31 N3 1.031143 1_545
O0 S0 1.482699 1_555
O1 S1 1.482699 1_555
O2 S2 1.482699 1_555
O3 S3 1.482699 1_555
O4 S0 1.478216 1_555
O5 S1 1.478216 1_555
O6 S2 1.478216 1_555
O7 S3 1.478216 1_555
O8 S0 1.486214 1_556
O9 S1 1.486214 1_554
O10 S2 1.486214 1_555
O11 S3 1.486214 1_555
O12 S0 1.465325 1_555
O13 S1 1.465325 1_555
O14 S2 1.465325 1_555
O15 S3 1.465325 1_555
