# generated using pymatgen
data_Rb2ZrTe3
_symmetry_space_group_name_H-M   'P 1'
_cell_length_a   14.51514630
_cell_length_b   7.03622947
_cell_length_c   9.85247333
_cell_angle_alpha   71.89567587
_cell_angle_beta   90.00000000
_cell_angle_gamma   90.00000000
_symmetry_Int_Tables_number   1
_chemical_formula_structural   Rb2ZrTe3
_chemical_formula_sum   'Rb8 Zr4 Te12'
_cell_volume   956.43459050
_cell_formula_units_Z   4
loop_
 _symmetry_equiv_pos_site_id
 _symmetry_equiv_pos_as_xyz
  1  'x, y, z'
loop_
 _atom_site_type_symbol
 _atom_site_label
 _atom_site_symmetry_multiplicity
 _atom_site_fract_x
 _atom_site_fract_y
 _atom_site_fract_z
 _atom_site_occupancy
  Rb  Rb0  1  0.95353021  0.67441776  0.65358632  1
  Rb  Rb1  1  0.45353021  0.82558224  0.34641368  1
  Rb  Rb2  1  0.04646979  0.32558224  0.34641368  1
  Rb  Rb3  1  0.54646979  0.17441776  0.65358632  1
  Rb  Rb4  1  0.86654369  0.07937081  0.90371291  1
  Rb  Rb5  1  0.36654369  0.42062919  0.09628709  1
  Rb  Rb6  1  0.13345631  0.92062919  0.09628709  1
  Rb  Rb7  1  0.63345631  0.57937081  0.90371291  1
  Zr  Zr0  1  0.74795699  0.67474619  0.29660665  1
  Zr  Zr1  1  0.24795699  0.82525381  0.70339335  1
  Zr  Zr2  1  0.25204301  0.32525381  0.70339335  1
  Zr  Zr3  1  0.75204301  0.17474619  0.29660665  1
  Te  Te0  1  0.91140639  0.90956054  0.27657384  1
  Te  Te1  1  0.41140639  0.59043946  0.72342616  1
  Te  Te2  1  0.08859361  0.09043946  0.72342616  1
  Te  Te3  1  0.58859361  0.40956054  0.27657384  1
  Te  Te4  1  0.81428270  0.30329372  0.52543729  1
  Te  Te5  1  0.31428270  0.19670628  0.47456271  1
  Te  Te6  1  0.18571730  0.69670628  0.47456271  1
  Te  Te7  1  0.68571730  0.80329372  0.52543729  1
  Te  Te8  1  0.84756738  0.49263745  0.09071610  1
  Te  Te9  1  0.34756738  0.00736255  0.90928390  1
  Te  Te10  1  0.15243262  0.50736255  0.90928390  1
  Te  Te11  1  0.65243262  0.99263745  0.09071610  1
loop_
_geom_bond_atom_site_label_1
_geom_bond_atom_site_label_2
_geom_bond_distance
_geom_bond_site_symmetry_2
Rb0 Te0 3.617913 1_555
Rb0 Te2 3.759968 1_665
Rb0 Te10 3.771370 1_655
Rb0 Te6 3.784469 1_655
Rb0 Te4 3.814105 1_555
Rb0 Te7 4.100767 1_555
Rb1 Te1 3.617913 1_555
Rb1 Te3 3.759968 1_555
Rb1 Te11 3.771370 1_555
Rb1 Te7 3.784469 1_555
Rb1 Te5 3.814105 1_565
Rb1 Te6 4.100767 1_555
Rb2 Te2 3.617913 1_555
Rb2 Te0 3.759968 1_445
Rb2 Te8 3.771370 1_455
Rb2 Te4 3.784469 1_455
Rb2 Te6 3.814105 1_555
Rb2 Te5 4.100767 1_555
Rb3 Te3 3.617913 1_555
Rb3 Te1 3.759968 1_555
Rb3 Te9 3.771370 1_555
Rb3 Te5 3.784469 1_555
Rb3 Te7 3.814105 1_545
Rb3 Te4 4.100767 1_555
Rb4 Te0 3.552333 1_546
Rb4 Te11 3.567489 1_546
Rb4 Te4 3.646718 1_555
Rb4 Te2 3.669266 1_655
Rb4 Te8 3.905852 1_556
Rb4 Te8 3.973257 1_546
Rb5 Te1 3.552333 1_554
Rb5 Te10 3.567489 1_554
Rb5 Te5 3.646718 1_555
Rb5 Te3 3.669266 1_555
Rb5 Te9 3.905852 1_554
Rb5 Te9 3.973257 1_564
Rb6 Te2 3.552333 1_564
Rb6 Te9 3.567489 1_564
Rb6 Te6 3.646718 1_555
Rb6 Te0 3.669266 1_455
Rb6 Te10 3.905852 1_554
Rb6 Te10 3.973257 1_564
Rb7 Te3 3.552333 1_556
Rb7 Te8 3.567489 1_556
Rb7 Te7 3.646718 1_555
Rb7 Te1 3.669266 1_555
Rb7 Te11 3.905852 1_556
Rb7 Te11 3.973257 1_546
Te0 Zr0 2.862655 1_555
Te0 Zr3 3.016664 1_565
Te1 Zr1 2.862655 1_555
Te1 Zr2 3.016664 1_555
Te2 Zr2 2.862655 1_555
Te2 Zr1 3.016664 1_545
Te3 Zr3 2.862655 1_555
Te3 Zr0 3.016664 1_555
Te4 Zr3 2.825707 1_555
Te4 Zr0 3.029632 1_555
Te5 Zr2 2.825707 1_555
Te5 Zr1 3.029632 1_545
Te6 Zr1 2.825707 1_555
Te6 Zr2 3.029632 1_555
Te7 Zr0 2.825707 1_555
Te7 Zr3 3.029632 1_565
Te8 Zr3 2.867159 1_555
Te8 Zr0 3.076161 1_555
Te9 Zr2 2.867159 1_555
Te9 Zr1 3.076161 1_545
Te10 Zr1 2.867159 1_555
Te10 Zr2 3.076161 1_555
Te11 Zr0 2.867159 1_555
Te11 Zr3 3.076161 1_565
