# generated using pymatgen
data_SrMg(NiO2)4
_symmetry_space_group_name_H-M   'P 1'
_cell_length_a   6.41264373
_cell_length_b   6.49304261
_cell_length_c   6.41264421
_cell_angle_alpha   53.94331090
_cell_angle_beta   55.80146466
_cell_angle_gamma   53.94331396
_symmetry_Int_Tables_number   1
_chemical_formula_structural   SrMg(NiO2)4
_chemical_formula_sum   'Sr1 Mg1 Ni4 O8'
_cell_volume   164.73570703
_cell_formula_units_Z   1
loop_
 _symmetry_equiv_pos_site_id
 _symmetry_equiv_pos_as_xyz
  1  'x, y, z'
loop_
 _atom_site_type_symbol
 _atom_site_label
 _atom_site_symmetry_multiplicity
 _atom_site_fract_x
 _atom_site_fract_y
 _atom_site_fract_z
 _atom_site_occupancy
  Sr  Sr0  1  0.50126800  0.49856900  0.50126800  1
  Mg  Mg0  1  0.86407300  0.82869200  0.86407300  1
  Ni  Ni0  1  0.00481400  0.01231000  0.00481400  1
  Ni  Ni1  1  0.49691300  0.00127800  0.49691300  1
  Ni  Ni2  1  0.49286600  0.50134300  0.00380600  1
  Ni  Ni3  1  0.00380600  0.50134300  0.49286600  1
  O  O0  1  0.78306500  0.22403800  0.78306500  1
  O  O1  1  0.22191600  0.23949700  0.72217500  1
  O  O2  1  0.22238800  0.76056800  0.22238800  1
  O  O3  1  0.72217500  0.23949700  0.22191600  1
  O  O4  1  0.26818800  0.29043400  0.26818800  1
  O  O5  1  0.73420100  0.71586600  0.73420100  1
  O  O6  1  0.78199900  0.76457900  0.25418000  1
  O  O7  1  0.25418000  0.76457900  0.78199900  1
loop_
_geom_bond_atom_site_label_1
_geom_bond_atom_site_label_2
_geom_bond_distance
_geom_bond_site_symmetry_2
Mg0 O5 2.034691 1_555
Mg0 O7 2.064061 1_655
Mg0 O6 2.064061 1_556
Mg0 O0 2.071966 1_565
Ni0 O2 1.839595 1_545
Ni0 O0 1.898597 1_454
Ni0 O1 1.957796 1_554
Ni0 O3 1.957796 1_455
Ni0 O6 2.072485 1_445
Ni0 O7 2.072485 1_544
Ni1 O4 1.939738 1_555
Ni1 O5 2.007215 1_545
Ni1 O3 2.035843 1_555
Ni1 O1 2.035843 1_555
Ni1 O7 2.106388 1_545
Ni1 O6 2.106388 1_545
Ni2 O3 1.891786 1_555
Ni2 O4 1.915524 1_555
Ni2 O7 1.947596 1_554
Ni2 O5 2.004820 1_554
Ni2 O2 2.100910 1_555
Ni2 O0 2.191704 1_554
Ni3 O1 1.891786 1_555
Ni3 O4 1.915525 1_555
Ni3 O6 1.947596 1_455
Ni3 O5 2.004820 1_455
Ni3 O2 2.100910 1_555
Ni3 O0 2.191704 1_455
O0 Sr0 2.407383 1_555
O1 Sr0 2.436182 1_555
O2 Sr0 2.392282 1_555
O3 Sr0 2.436182 1_555
O6 Sr0 2.442712 1_555
O7 Sr0 2.442712 1_555
