# generated using pymatgen
data_Na2La3NbP4(SO12)2
_symmetry_space_group_name_H-M   'P 1'
_cell_length_a   9.31146061
_cell_length_b   9.30488476
_cell_length_c   24.52954241
_cell_angle_alpha   90.31664665
_cell_angle_beta   89.80678947
_cell_angle_gamma   120.11133516
_symmetry_Int_Tables_number   1
_chemical_formula_structural   Na2La3NbP4(SO12)2
_chemical_formula_sum   'Na6 La9 Nb3 P12 S6 O72'
_cell_volume   1838.45848544
_cell_formula_units_Z   3
loop_
 _symmetry_equiv_pos_site_id
 _symmetry_equiv_pos_as_xyz
  1  'x, y, z'
loop_
 _atom_site_type_symbol
 _atom_site_label
 _atom_site_symmetry_multiplicity
 _atom_site_fract_x
 _atom_site_fract_y
 _atom_site_fract_z
 _atom_site_occupancy
  Na  Na0  1  0.99224534  0.99003923  0.50079204  1
  Na  Na1  1  0.00713226  0.99947969  0.99918554  1
  Na  Na2  1  0.66785391  0.32971161  0.83328622  1
  Na  Na3  1  0.68419156  0.34191930  0.33027967  1
  Na  Na4  1  0.32900827  0.65240860  0.16195206  1
  Na  Na5  1  0.33449287  0.66626862  0.67358844  1
  La  La0  1  0.98952756  0.99436313  0.34970413  1
  La  La1  1  0.00128725  0.00187623  0.85229865  1
  La  La2  1  0.99923332  0.99924558  0.66209120  1
  La  La3  1  0.99653471  0.00119467  0.14603822  1
  La  La4  1  0.66631550  0.33319735  0.69060077  1
  La  La5  1  0.67320343  0.34418535  0.18591873  1
  La  La6  1  0.67527512  0.33208805  0.47523333  1
  La  La7  1  0.32932614  0.66258967  0.01721841  1
  La  La8  1  0.33324487  0.67212950  0.51778518  1
  Nb  Nb0  1  0.66418200  0.34545887  0.97655231  1
  Nb  Nb1  1  0.33257850  0.66823415  0.31538850  1
  Nb  Nb2  1  0.33090542  0.66753953  0.82029706  1
  P  P0  1  0.68379320  0.69859739  0.25292805  1
  P  P1  1  0.01249085  0.31235065  0.25380489  1
  P  P2  1  0.30179466  0.31898413  0.75497780  1
  P  P3  1  0.01641616  0.69873501  0.75484501  1
  P  P4  1  0.68149607  0.98335816  0.75516551  1
  P  P5  1  0.94773141  0.62274770  0.07787126  1
  P  P6  1  0.37883581  0.32654194  0.07897866  1
  P  P7  1  0.61849555  0.65585736  0.91655359  1
  P  P8  1  0.02935507  0.38248156  0.91631242  1
  P  P9  1  0.35084101  0.96905108  0.91747626  1
  P  P10  1  0.61659431  0.95482537  0.41272791  1
  P  P11  1  0.04614672  0.66535491  0.41235793  1
  S  S0  1  0.30145899  0.98566091  0.25350720  1
  S  S1  1  0.96565330  0.32664106  0.58366557  1
  S  S2  1  0.36338332  0.03771424  0.58320094  1
  S  S3  1  0.67128817  0.63508628  0.58308314  1
  S  S4  1  0.67110710  0.05282280  0.07859752  1
  S  S5  1  0.33734892  0.38251176  0.41191135  1
  O  O0  1  0.22260741  0.00947992  0.30154113  1
  O  O1  1  0.79357734  0.78021354  0.30231844  1
  O  O2  1  0.99197137  0.20577829  0.30316024  1
  O  O3  1  0.21818196  0.20351392  0.80236414  1
  O  O4  1  0.98541640  0.78252748  0.80248264  1
  O  O5  1  0.79749311  0.01510089  0.80234776  1
  O  O6  1  0.74700611  0.94716978  0.70159725  1
  O  O7  1  0.19994455  0.25207037  0.70165617  1
  O  O8  1  0.05205888  0.80009596  0.70157083  1
  O  O9  1  0.75518644  0.80252576  0.20094695  1
  O  O10  1  0.04745300  0.24354653  0.20125534  1
  O  O11  1  0.20203188  0.95593237  0.20363784  1
  O  O12  1  0.88140580  0.34114951  0.63241748  1
  O  O13  1  0.46008296  0.12240839  0.63226767  1
  O  O14  1  0.65923831  0.53895583  0.63210639  1
  O  O15  1  0.86884197  0.52882554  0.13032106  1
  O  O16  1  0.65968552  0.12692769  0.13044093  1
  O  O17  1  0.47176808  0.33505279  0.13085008  1
  O  O18  1  0.48760442  0.32330163  0.02662911  1
  O  O19  1  0.83468797  0.51308207  0.02638665  1
  O  O20  1  0.67844811  0.15416779  0.03032347  1
  O  O21  1  0.45040768  0.13140170  0.53316178  1
  O  O22  1  0.68003850  0.54829120  0.53290889  1
  O  O23  1  0.87046204  0.31681533  0.53346092  1
  O  O24  1  0.54712610  0.67900310  0.96870066  1
  O  O25  1  0.12932462  0.45397088  0.96751556  1
  O  O26  1  0.32596394  0.86972806  0.96846292  1
  O  O27  1  0.53811353  0.86366342  0.46570707  1
  O  O28  1  0.32368270  0.45673565  0.46322644  1
  O  O29  1  0.13432887  0.67276111  0.46550235  1
  O  O30  1  0.15565702  0.65974596  0.36263685  1
  O  O31  1  0.50438203  0.84408842  0.36298480  1
  O  O32  1  0.34379390  0.48681175  0.36399103  1
  O  O33  1  0.13144419  0.50193884  0.86642740  1
  O  O34  1  0.36967526  0.86918059  0.86694130  1
  O  O35  1  0.50086617  0.63112687  0.86680023  1
  O  O36  1  0.03154586  0.82083980  0.40884144  1
  O  O37  1  0.79041590  0.97724971  0.41011111  1
  O  O38  1  0.19143746  0.21528742  0.40833902  1
  O  O39  1  0.99717989  0.20742358  0.90719145  1
  O  O40  1  0.20758747  -0.00008049  0.90845923  1
  O  O41  1  0.79511711  0.79393260  0.90846773  1
  O  O42  1  0.98071687  0.17519223  0.58534914  1
  O  O43  1  0.19595212  0.02054594  0.58494226  1
  O  O44  1  0.82241890  0.80305767  0.58488638  1
  O  O45  1  0.95343505  0.79146960  0.07720381  1
  O  O46  1  0.82584780  0.04107594  0.07877486  1
  O  O47  1  0.20800826  0.16521633  0.07695477  1
  O  O48  1  0.65014699  0.13000287  0.74852739  1
  O  O49  1  0.48001268  0.35143425  0.74819314  1
  O  O50  1  0.87049116  0.52014614  0.74809960  1
  O  O51  1  0.64844718  0.51932517  0.24925718  1
  O  O52  1  0.86519926  0.34201726  0.25002003  1
  O  O53  1  0.47140984  0.12660667  0.24876976  1
  O  O54  1  0.62902851  0.48693108  0.92495184  1
  O  O55  1  0.85487775  0.37426321  0.92355468  1
  O  O56  1  0.51671943  0.14623758  0.92539992  1
  O  O57  1  0.62116251  0.12301353  0.40981737  1
  O  O58  1  0.49240196  0.37435191  0.41090784  1
  O  O59  1  0.87549245  0.50354288  0.40918155  1
  O  O60  1  0.36355657  0.48246529  0.07641886  1
  O  O61  1  0.12046060  0.64259568  0.07490622  1
  O  O62  1  0.52472930  0.88385173  0.07663567  1
  O  O63  1  0.34641272  0.86945040  0.58230934  1
  O  O64  1  0.51999900  0.65112480  0.58158833  1
  O  O65  1  0.13343066  0.47740324  0.58170009  1
  O  O66  1  0.31518764  0.82957307  0.26166887  1
  O  O67  1  0.50764623  0.68411911  0.26590820  1
  O  O68  1  0.17362642  0.49094996  0.26676242  1
  O  O69  1  0.31470954  0.49285674  0.76841193  1
  O  O70  1  0.17730230  0.68529788  0.76781390  1
  O  O71  1  0.50715978  0.82288884  0.76844939  1
loop_
_geom_bond_atom_site_label_1
_geom_bond_atom_site_label_2
_geom_bond_distance
_geom_bond_site_symmetry_2
Na0 O44 2.653287 1_555
Na0 O43 2.723771 1_665
Na0 O42 2.725125 1_565
Na0 O36 2.869348 1_655
Na0 O37 2.880049 1_555
Na0 O38 3.016574 1_665
Na1 O47 2.571625 1_566
Na1 O45 2.592706 1_456
Na1 O46 2.726835 1_466
Na1 O40 2.898467 1_565
Na1 O41 2.949792 1_455
Na1 O39 3.012326 1_465
Na2 O55 2.720099 1_555
Na2 O48 2.730416 1_555
Na2 O56 2.758796 1_555
Na2 O50 2.779588 1_555
Na2 O54 2.795610 1_555
Na2 O49 2.800166 1_555
Na3 O59 2.546323 1_555
Na3 O52 2.587032 1_555
Na3 O57 2.671444 1_555
Na3 O51 2.716183 1_555
Na3 O58 2.775286 1_555
Na3 O53 2.817207 1_555
Na4 O60 2.734077 1_555
Na4 O61 2.861155 1_555
Na4 O62 2.902577 1_555
Na4 O68 2.965942 1_555
Na4 O66 2.980473 1_555
Na4 O67 2.980640 1_555
Na5 O70 2.783619 1_555
Na5 O71 2.785681 1_555
Na5 O69 2.790715 1_555
Na5 O64 2.882835 1_555
Na5 O65 2.890905 1_555
Na5 O63 2.904215 1_555
La0 O1 2.234167 1_555
La0 O2 2.270150 1_565
La0 O37 2.312186 1_555
La0 O36 2.351147 1_655
La0 O0 2.409156 1_665
La0 O38 2.436573 1_665
La1 O3 2.303488 1_555
La1 O4 2.313394 1_445
La1 O5 2.317120 1_455
La1 O39 2.348853 1_455
La1 O41 2.369008 1_445
La1 O40 2.375160 1_555
La2 O6 2.353253 1_555
La2 O7 2.354696 1_665
La2 O8 2.356105 1_655
La2 O42 2.563808 1_565
La2 O43 2.567554 1_665
La2 O44 2.568419 1_555
La3 O46 2.449949 1_555
La3 O45 2.450018 1_545
La3 O10 2.458131 1_655
La3 O47 2.463547 1_655
La3 O9 2.473975 1_545
La3 O11 2.582333 1_645
La4 O50 2.302697 1_555
La4 O49 2.304367 1_555
La4 O48 2.314964 1_555
La4 O13 2.406329 1_555
La4 O14 2.426157 1_555
La4 O12 2.426278 1_555
La5 O15 2.235847 1_555
La5 O17 2.281642 1_555
La5 O51 2.338656 1_555
La5 O16 2.381150 1_555
La5 O52 2.392563 1_555
La5 O53 2.490847 1_555
La6 O57 2.366592 1_555
La6 O23 2.375362 1_555
La6 O59 2.381157 1_555
La6 O22 2.435170 1_555
La6 O21 2.444687 1_555
La6 O58 2.498161 1_555
La7 O25 2.254927 1_554
La7 O24 2.286393 1_554
La7 O26 2.287448 1_554
La7 O61 2.332535 1_555
La7 O60 2.363364 1_555
La7 O62 2.428916 1_555
La8 O27 2.246037 1_555
La8 O29 2.258858 1_555
La8 O28 2.368113 1_555
La8 O63 2.373712 1_555
La8 O65 2.414938 1_555
La8 O64 2.423702 1_555
Nb0 O54 1.973740 1_555
Nb0 O18 1.975806 1_556
Nb0 O19 1.988733 1_556
Nb0 O56 2.080406 1_555
Nb0 O55 2.103706 1_555
Nb0 O20 2.278140 1_556
Nb1 O68 1.968489 1_555
Nb1 O67 1.974642 1_555
Nb1 O30 1.980145 1_555
Nb1 O31 1.991173 1_555
Nb1 O66 2.069674 1_555
Nb1 O32 2.117060 1_555
Nb2 O70 1.995556 1_555
Nb2 O69 2.004239 1_555
Nb2 O71 2.006582 1_555
Nb2 O33 2.058605 1_555
Nb2 O34 2.063778 1_555
Nb2 O35 2.115424 1_555
O0 S0 1.459806 1_545
O1 P0 1.519462 1_555
O2 P1 1.518938 1_655
O3 P2 1.509978 1_555
O4 P3 1.506702 1_655
O5 P4 1.509270 1_545
O6 P4 1.551736 1_555
O7 P2 1.550715 1_555
O8 P3 1.550488 1_555
O9 P0 1.538112 1_555
O10 P1 1.540971 1_555
O11 S0 1.475459 1_555
O12 S1 1.470322 1_555
O13 S2 1.471484 1_555
O14 S3 1.472758 1_555
O15 P5 1.523335 1_555
O16 S4 1.472059 1_555
O17 P6 1.520390 1_555
O18 P6 1.642267 1_555
O19 P5 1.631302 1_555
O20 S4 1.497744 1_555
O21 S2 1.489805 1_555
O22 S3 1.492648 1_555
O23 S1 1.495126 1_555
O24 P7 1.503014 1_555
O25 P8 1.504614 1_555
O26 P9 1.505989 1_555
O27 P10 1.525194 1_555
O28 S5 1.468023 1_555
O29 P11 1.525715 1_555
O30 P11 1.604472 1_555
O31 P10 1.598980 1_555
O32 S5 1.510258 1_555
O33 P8 1.607326 1_555
O34 P9 1.606317 1_555
O35 P7 1.579588 1_555
O36 P11 1.522459 1_555
O37 P10 1.525746 1_555
O38 S5 1.467268 1_555
O39 P8 1.516536 1_655
O40 P9 1.515857 1_545
O41 P7 1.508401 1_555
O42 S1 1.485353 1_555
O43 S2 1.485817 1_555
O44 S3 1.489269 1_555
O45 P5 1.544154 1_555
O46 S4 1.498705 1_555
O47 P6 1.545935 1_555
O48 P4 1.541441 1_545
O49 P2 1.539041 1_555
O50 P3 1.538829 1_655
O51 P0 1.531892 1_555
O52 P1 1.531941 1_655
O53 S0 1.468272 1_545
O54 P7 1.637416 1_555
O55 P8 1.596999 1_655
O56 P9 1.607815 1_545
O57 P10 1.546113 1_545
O58 S5 1.483433 1_555
O59 P11 1.548239 1_655
O60 P6 1.528831 1_555
O61 P5 1.525630 1_455
O62 S4 1.476982 1_565
O63 S2 1.492713 1_565
O64 S3 1.489787 1_555
O65 S1 1.487338 1_455
O66 S0 1.534765 1_555
O67 P0 1.607787 1_555
O68 P1 1.615402 1_555
O69 P2 1.593644 1_555
O70 P3 1.597712 1_555
O71 P4 1.593940 1_555
