# generated using pymatgen
data_Li2NiGe3O8
_symmetry_space_group_name_H-M   'P 1'
_cell_length_a   8.18963880
_cell_length_b   8.18962990
_cell_length_c   8.18966278
_cell_angle_alpha   90.00008227
_cell_angle_beta   90.00001903
_cell_angle_gamma   90.00024389
_symmetry_Int_Tables_number   1
_chemical_formula_structural   Li2NiGe3O8
_chemical_formula_sum   'Li8 Ni4 Ge12 O32'
_cell_volume   549.28158996
_cell_formula_units_Z   4
loop_
 _symmetry_equiv_pos_site_id
 _symmetry_equiv_pos_as_xyz
  1  'x, y, z'
loop_
 _atom_site_type_symbol
 _atom_site_label
 _atom_site_symmetry_multiplicity
 _atom_site_fract_x
 _atom_site_fract_y
 _atom_site_fract_z
 _atom_site_occupancy
  Li  Li0  1  0.50338723  0.50339025  0.50338836  1
  Li  Li1  1  0.25338400  0.24661532  0.75338433  1
  Li  Li2  1  0.75338847  0.25338812  0.24661206  1
  Li  Li3  1  0.24661156  0.75339159  0.25338584  1
  Li  Li4  1  0.99661400  0.49660874  0.00338906  1
  Li  Li5  1  0.00338813  0.99661134  0.49661283  1
  Li  Li6  1  0.49661321  0.00338289  0.99661655  1
  Li  Li7  1  0.74661076  0.74661152  0.74661137  1
  Ni  Ni0  1  0.12500440  0.12499907  0.12499460  1
  Ni  Ni1  1  0.37500283  0.87500148  0.62499760  1
  Ni  Ni2  1  0.62500204  0.37499798  0.87499658  1
  Ni  Ni3  1  0.87500520  0.62500099  0.37499689  1
  Ge  Ge0  1  0.87729730  0.37268336  0.62501137  1
  Ge  Ge1  1  0.37268700  0.62500331  0.87730658  1
  Ge  Ge2  1  0.62730680  0.12499873  0.62268415  1
  Ge  Ge3  1  0.87270448  0.87501482  0.12267792  1
  Ge  Ge4  1  0.12269080  0.87268869  0.87500024  1
  Ge  Ge5  1  0.62267999  0.62729444  0.12498912  1
  Ge  Ge6  1  0.87500294  0.12268647  0.87269484  1
  Ge  Ge7  1  0.37499877  0.37731069  0.12731509  1
  Ge  Ge8  1  0.62498698  0.87732326  0.37270435  1
  Ge  Ge9  1  0.12732240  0.37498691  0.37729402  1
  Ge  Ge10  1  0.12501198  0.62270538  0.62732201  1
  Ge  Ge11  1  0.37731187  0.12731235  0.37500123  1
  O  O0  1  0.61584657  0.11584053  0.38415369  1
  O  O1  1  0.64908556  0.35664559  0.62385786  1
  O  O2  1  0.14908047  0.14335869  0.37614286  1
  O  O3  1  0.35664345  0.62386335  0.64908269  1
  O  O4  1  0.64335293  0.12386258  0.85091844  1
  O  O5  1  0.62385686  0.64907869  0.35664824  1
  O  O6  1  0.87613799  0.35091991  0.85664308  1
  O  O7  1  0.89907660  0.37386005  0.39335004  1
  O  O8  1  0.39908444  0.12613653  0.60664658  1
  O  O9  1  0.10091219  0.87386106  0.10664328  1
  O  O10  1  0.12614121  0.60664839  0.39907857  1
  O  O11  1  0.10664220  0.10091636  0.87385867  1
  O  O12  1  0.60664630  0.39908476  0.12614351  1
  O  O13  1  0.37385644  0.39335463  0.89908120  1
  O  O14  1  0.39335725  0.89908180  0.37386049  1
  O  O15  1  0.87385906  0.10664174  0.10091630  1
  O  O16  1  0.88415708  0.88415615  0.88416439  1
  O  O17  1  0.63415231  0.86584728  0.13414987  1
  O  O18  1  0.13415334  0.63415214  0.86584185  1
  O  O19  1  0.86584382  0.13416188  0.63415583  1
  O  O20  1  0.62614048  0.89335600  0.60091220  1
  O  O21  1  0.38416169  0.61584447  0.11584426  1
  O  O22  1  0.11585020  0.38415030  0.61585127  1
  O  O23  1  0.36583739  0.36584505  0.36584414  1
  O  O24  1  0.89334910  0.60092040  0.62614531  1
  O  O25  1  0.35091625  0.85664389  0.87614271  1
  O  O26  1  0.85092226  0.64334791  0.12385749  1
  O  O27  1  0.14335436  0.37613818  0.14908718  1
  O  O28  1  0.85664989  0.87614061  0.35092170  1
  O  O29  1  0.12385719  0.85091233  0.64335658  1
  O  O30  1  0.37613984  0.14908417  0.14335621  1
  O  O31  1  0.60092214  0.62613687  0.89335651  1
loop_
_geom_bond_atom_site_label_1
_geom_bond_atom_site_label_2
_geom_bond_distance
_geom_bond_site_symmetry_2
Li0 O23 1.951075 1_555
Li0 O5 1.959887 1_555
Li0 O3 1.959953 1_555
Li0 O1 1.959963 1_555
Li1 O22 1.950906 1_555
Li1 O13 1.959934 1_555
Li1 O11 1.959966 1_555
Li1 O8 1.959976 1_555
Li2 O0 1.951039 1_555
Li2 O7 1.959882 1_555
Li2 O12 1.959938 1_555
Li2 O15 1.959962 1_555
Li3 O21 1.951079 1_555
Li3 O10 1.959927 1_555
Li3 O14 1.959941 1_555
Li3 O9 1.959958 1_555
Li4 O18 1.951034 1_654
Li4 O26 1.959897 1_555
Li4 O6 1.959942 1_554
Li4 O27 1.959945 1_655
Li5 O19 1.951075 1_465
Li5 O28 1.959894 1_455
Li5 O2 1.959943 1_565
Li5 O29 1.959960 1_555
Li6 O17 1.950935 1_546
Li6 O25 1.959938 1_545
Li6 O30 1.959967 1_556
Li6 O4 1.959975 1_555
Li7 O16 1.951098 1_555
Li7 O24 1.959880 1_555
Li7 O31 1.959934 1_555
Li7 O20 1.959970 1_555
Ni0 O30 2.071609 1_555
Ni0 O11 2.071618 1_554
Ni0 O9 2.071627 1_545
Ni0 O27 2.071636 1_555
Ni0 O15 2.071682 1_455
Ni0 O2 2.071712 1_555
Ni1 O8 2.071595 1_565
Ni1 O14 2.071622 1_555
Ni1 O20 2.071624 1_555
Ni1 O3 2.071628 1_555
Ni1 O25 2.071694 1_555
Ni1 O29 2.071694 1_555
Ni2 O4 2.071596 1_555
Ni2 O6 2.071605 1_555
Ni2 O31 2.071632 1_555
Ni2 O1 2.071636 1_555
Ni2 O13 2.071690 1_555
Ni2 O12 2.071707 1_556
Ni3 O10 2.071608 1_655
Ni3 O28 2.071632 1_555
Ni3 O7 2.071638 1_555
Ni3 O26 2.071638 1_555
Ni3 O5 2.071703 1_555
Ni3 O24 2.071708 1_555
Ge0 O1 1.873604 1_555
Ge0 O24 1.873816 1_555
Ge0 O6 1.905364 1_555
Ge0 O7 1.905618 1_555
Ge0 O19 1.957087 1_555
Ge0 O22 1.957356 1_655
Ge1 O3 1.873712 1_555
Ge1 O31 1.873802 1_555
Ge1 O25 1.905435 1_555
Ge1 O13 1.905504 1_555
Ge1 O18 1.957195 1_555
Ge1 O21 1.957240 1_556
Ge2 O8 1.873691 1_555
Ge2 O4 1.873799 1_555
Ge2 O20 1.905453 1_545
Ge2 O1 1.905492 1_555
Ge2 O0 1.957175 1_555
Ge2 O19 1.957229 1_555
Ge3 O9 1.873570 1_655
Ge3 O28 1.873881 1_555
Ge3 O15 1.905316 1_565
Ge3 O26 1.905658 1_555
Ge3 O16 1.957028 1_554
Ge3 O17 1.957354 1_555
Ge4 O25 1.873721 1_555
Ge4 O11 1.873739 1_565
Ge4 O9 1.905469 1_556
Ge4 O29 1.905471 1_555
Ge4 O16 1.957201 1_455
Ge4 O18 1.957218 1_555
Ge5 O12 1.873583 1_555
Ge5 O26 1.873862 1_555
Ge5 O31 1.905367 1_554
Ge5 O5 1.905604 1_555
Ge5 O21 1.957061 1_555
Ge5 O17 1.957355 1_555
Ge6 O15 1.873694 1_556
Ge6 O6 1.873788 1_555
Ge6 O11 1.905426 1_655
Ge6 O4 1.905518 1_555
Ge6 O16 1.957169 1_545
Ge6 O19 1.957251 1_555
Ge7 O30 1.873725 1_555
Ge7 O13 1.873795 1_554
Ge7 O27 1.905469 1_555
Ge7 O12 1.905495 1_555
Ge7 O23 1.957167 1_555
Ge7 O21 1.957200 1_555
Ge8 O20 1.873576 1_555
Ge8 O5 1.873881 1_555
Ge8 O14 1.905339 1_555
Ge8 O28 1.905629 1_555
Ge8 O0 1.957050 1_565
Ge8 O17 1.957380 1_555
Ge9 O27 1.873567 1_555
Ge9 O7 1.873893 1_455
Ge9 O2 1.905324 1_555
Ge9 O10 1.905616 1_555
Ge9 O23 1.957034 1_555
Ge9 O22 1.957400 1_555
Ge10 O29 1.873562 1_555
Ge10 O10 1.873879 1_555
Ge10 O3 1.905354 1_555
Ge10 O24 1.905629 1_455
Ge10 O18 1.957077 1_555
Ge10 O22 1.957373 1_555
Ge11 O14 1.873761 1_545
Ge11 O2 1.873771 1_555
Ge11 O30 1.905480 1_555
Ge11 O8 1.905483 1_555
Ge11 O23 1.957191 1_555
Ge11 O0 1.957207 1_555
