# generated using pymatgen
data_LaRu2
_symmetry_space_group_name_H-M   'P 1'
_cell_length_a   5.43092438
_cell_length_b   5.43091976
_cell_length_c   5.43092444
_cell_angle_alpha   59.99997148
_cell_angle_beta   59.99999963
_cell_angle_gamma   59.99997887
_symmetry_Int_Tables_number   1
_chemical_formula_structural   LaRu2
_chemical_formula_sum   'La2 Ru4'
_cell_volume   113.26761088
_cell_formula_units_Z   2
loop_
 _symmetry_equiv_pos_site_id
 _symmetry_equiv_pos_as_xyz
  1  'x, y, z'
loop_
 _atom_site_type_symbol
 _atom_site_label
 _atom_site_symmetry_multiplicity
 _atom_site_fract_x
 _atom_site_fract_y
 _atom_site_fract_z
 _atom_site_occupancy
  La  La0  1  0.12500000  0.12499900  0.12500000  1
  La  La1  1  0.87500000  0.87500100  0.87500000  1
  Ru  Ru0  1  0.50000000  0.00000000  0.50000000  1
  Ru  Ru1  1  0.00000000  0.50000000  0.50000000  1
  Ru  Ru2  1  0.50000000  0.50000000  0.50000000  1
  Ru  Ru3  1  0.50000000  0.50000000  -0.00000000  1
loop_
_geom_bond_atom_site_label_1
_geom_bond_atom_site_label_2
_geom_bond_distance
_geom_bond_site_symmetry_2
La0 Ru1 3.184154 1_545
La0 Ru3 3.184154 1_545
La0 Ru2 3.184157 1_545
La0 Ru0 3.184159 1_455
La0 Ru0 3.184159 1_554
La0 Ru1 3.184161 1_554
La0 Ru3 3.184161 1_455
La0 Ru2 3.184163 1_554
La0 Ru2 3.184163 1_455
La0 Ru0 3.184164 1_555
La0 Ru3 3.184165 1_555
La0 Ru1 3.184165 1_555
La0 La1 3.325739 1_444
La0 La1 3.325748 1_445
La0 La1 3.325748 1_544
La0 La1 3.325753 1_454
La1 Ru1 3.184154 1_665
La1 Ru3 3.184154 1_566
La1 Ru2 3.184157 1_565
La1 Ru0 3.184159 1_665
La1 Ru0 3.184159 1_566
La1 Ru1 3.184161 1_656
La1 Ru3 3.184161 1_656
La1 Ru2 3.184163 1_556
La1 Ru2 3.184163 1_655
La1 Ru0 3.184164 1_565
La1 Ru3 3.184165 1_556
La1 Ru1 3.184165 1_655
Ru0 Ru2 2.715460 1_555
Ru0 Ru3 2.715460 1_546
Ru0 Ru3 2.715460 1_555
Ru0 Ru2 2.715460 1_545
Ru0 Ru1 2.715460 1_555
Ru0 Ru1 2.715460 1_645
Ru1 Ru2 2.715462 1_555
Ru1 Ru2 2.715462 1_455
Ru1 Ru3 2.715462 1_555
Ru1 Ru3 2.715462 1_456
Ru2 Ru3 2.715462 1_555
Ru2 Ru3 2.715462 1_556
