# generated using pymatgen
data_RbMgMn4O8
_symmetry_space_group_name_H-M   'P 1'
_cell_length_a   7.56673791
_cell_length_b   7.56656031
_cell_length_c   7.86730094
_cell_angle_alpha   92.64133547
_cell_angle_beta   156.29068323
_cell_angle_gamma   93.95806653
_symmetry_Int_Tables_number   1
_chemical_formula_structural   RbMgMn4O8
_chemical_formula_sum   'Rb1 Mg1 Mn4 O8'
_cell_volume   173.85212198
_cell_formula_units_Z   1
loop_
 _symmetry_equiv_pos_site_id
 _symmetry_equiv_pos_as_xyz
  1  'x, y, z'
loop_
 _atom_site_type_symbol
 _atom_site_label
 _atom_site_symmetry_multiplicity
 _atom_site_fract_x
 _atom_site_fract_y
 _atom_site_fract_z
 _atom_site_occupancy
  Rb  Rb0  1  0.49746731  0.93944330  0.45456287  1
  Mg  Mg0  1  0.86431941  0.20501636  0.11325333  1
  Mn  Mn0  1  0.87641620  0.16160389  0.44295072  1
  Mn  Mn1  1  0.35369667  0.50095587  0.16175639  1
  Mn  Mn2  1  0.66070565  0.52555142  0.83011373  1
  Mn  Mn3  1  0.22532461  0.80339294  0.71058504  1
  O  O0  1  0.82322188  0.35474932  0.55115349  1
  O  O1  1  0.83092243  0.97680825  0.19822951  1
  O  O2  1  0.59119410  0.67829345  0.20168782  1
  O  O3  1  0.06453959  0.36713680  0.10958539  1
  O  O4  1  0.85273871  0.63344705  0.77456004  1
  O  O5  1  0.36389919  0.31230184  0.72189670  1
  O  O6  1  0.24080112  0.01976277  0.89864871  1
  O  O7  1  0.23006213  0.66351173  0.49459627  1
loop_
_geom_bond_atom_site_label_1
_geom_bond_atom_site_label_2
_geom_bond_distance
_geom_bond_site_symmetry_2
Mg0 O3 1.904634 1_655
Mg0 O5 1.944855 1_554
Mg0 O1 1.961629 1_545
Mg0 O5 1.987229 1_655
Mn0 O0 1.901703 1_555
Mn0 O6 1.941744 1_554
Mn0 O5 2.021814 1_655
Mn0 O1 2.062085 1_545
Mn0 O6 2.066174 1_655
Mn1 O2 1.929546 1_555
Mn1 O3 1.998078 1_555
Mn1 O0 1.999951 1_454
Mn1 O0 2.038498 1_555
Mn1 O4 2.049895 1_555
Mn1 O4 2.077125 1_454
Mn2 O7 1.910056 1_555
Mn2 O4 2.000245 1_555
Mn2 O3 2.013438 1_656
Mn2 O5 2.060108 1_555
Mn2 O7 2.147830 1_656
Mn2 O3 2.391781 1_555
Mn3 O2 1.947826 1_455
Mn3 O1 1.987906 1_556
Mn3 O7 1.989975 1_555
Mn3 O6 2.077529 1_565
Mn3 O2 2.144746 1_556
Mn3 O1 2.423980 1_455
O4 Rb0 2.699548 1_656
O4 Rb0 2.815825 1_555
O6 Rb0 2.749453 1_445
O6 Rb0 2.850070 1_546
O7 Rb0 3.032620 1_555
