# generated using pymatgen
data_MgCr3InO8
_symmetry_space_group_name_H-M   'P 1'
_cell_length_a   5.21701191
_cell_length_b   5.21701227
_cell_length_c   8.40161955
_cell_angle_alpha   98.56636956
_cell_angle_beta   98.56636895
_cell_angle_gamma   63.92956587
_symmetry_Int_Tables_number   1
_chemical_formula_structural   MgCr3InO8
_chemical_formula_sum   'Mg1 Cr3 In1 O8'
_cell_volume   202.21188242
_cell_formula_units_Z   1
loop_
 _symmetry_equiv_pos_site_id
 _symmetry_equiv_pos_as_xyz
  1  'x, y, z'
loop_
 _atom_site_type_symbol
 _atom_site_label
 _atom_site_symmetry_multiplicity
 _atom_site_fract_x
 _atom_site_fract_y
 _atom_site_fract_z
 _atom_site_occupancy
  Mg  Mg0  1  0.89416803  0.89416803  0.16584008  1
  Cr  Cr0  1  0.37895129  0.37895129  0.70877444  1
  Cr  Cr1  1  0.60497974  0.60497974  0.31754356  1
  Cr  Cr2  1  0.99449087  0.99449087  0.51824170  1
  In  In0  1  0.07363294  0.07363294  0.92216977  1
  O  O0  1  0.75174953  0.23482708  0.69785612  1
  O  O1  1  0.31390132  0.31390132  0.89057615  1
  O  O2  1  0.75157763  0.23324273  0.33144429  1
  O  O3  1  0.21938703  0.21938703  0.56600416  1
  O  O4  1  0.23324273  0.75157763  0.33144429  1
  O  O5  1  0.23482708  0.75174953  0.69785612  1
  O  O6  1  0.76720075  0.76720075  0.45657916  1
  O  O7  1  0.66939106  0.66939106  0.13567015  1
loop_
_geom_bond_atom_site_label_1
_geom_bond_atom_site_label_2
_geom_bond_distance
_geom_bond_site_symmetry_2
Mg0 O7 1.961151 1_555
Mg0 O4 2.009207 1_655
Mg0 O2 2.009207 1_565
Cr0 O3 1.684902 1_555
Cr0 O1 1.724371 1_555
Cr0 O0 1.761713 1_555
Cr0 O5 1.761713 1_555
Cr1 O6 1.684490 1_555
Cr1 O7 1.722180 1_555
Cr1 O4 1.759787 1_555
Cr1 O2 1.759787 1_555
Cr2 O3 1.960528 1_665
Cr2 O6 1.987552 1_555
Cr2 O0 2.015709 1_565
Cr2 O5 2.015709 1_655
Cr2 O4 2.054970 1_655
Cr2 O2 2.054970 1_565
In0 O1 2.189101 1_555
In0 O0 2.316668 1_455
In0 O5 2.316668 1_545
In0 Mg0 2.803011 1_446
