# generated using pymatgen
data_Na7Y2Ga2SiP5O24
_symmetry_space_group_name_H-M   'P 1'
_cell_length_a   9.12404383
_cell_length_b   9.11057231
_cell_length_c   22.44795169
_cell_angle_alpha   90.12536160
_cell_angle_beta   89.70088138
_cell_angle_gamma   119.82725778
_symmetry_Int_Tables_number   1
_chemical_formula_structural   Na7Y2Ga2SiP5O24
_chemical_formula_sum   'Na21 Y6 Ga6 Si3 P15 O72'
_cell_volume   1618.77966081
_cell_formula_units_Z   3
loop_
 _symmetry_equiv_pos_site_id
 _symmetry_equiv_pos_as_xyz
  1  'x, y, z'
loop_
 _atom_site_type_symbol
 _atom_site_label
 _atom_site_symmetry_multiplicity
 _atom_site_fract_x
 _atom_site_fract_y
 _atom_site_fract_z
 _atom_site_occupancy
  Na  Na0  1  0.36822165  0.37186855  0.25264537  1
  Na  Na1  1  0.00251712  0.63073136  0.24991596  1
  Na  Na2  1  0.63651543  0.64610968  0.75084305  1
  Na  Na3  1  0.99704982  0.35899963  0.75537368  1
  Na  Na4  1  0.36318619  0.99321966  0.75069740  1
  Na  Na5  1  0.30513060  0.33029693  0.57805806  1
  Na  Na6  1  0.03523576  0.69630103  0.57913524  1
  Na  Na7  1  0.65680845  0.96718863  0.58417941  1
  Na  Na8  1  0.30452664  0.97057019  0.08380645  1
  Na  Na9  1  0.67221103  0.69576547  0.08264374  1
  Na  Na10  1  0.02968994  0.33952567  0.08528785  1
  Na  Na11  1  0.96284309  0.66608634  0.91961416  1
  Na  Na12  1  0.70386792  0.03580853  0.91449912  1
  Na  Na13  1  0.96544362  0.29510005  0.41306999  1
  Na  Na14  1  0.33169217  0.03581465  0.41675732  1
  Na  Na15  1  0.99381150  0.98706213  0.49666268  1
  Na  Na16  1  0.01073354  0.00747332  0.00506849  1
  Na  Na17  1  0.65495417  0.32808714  0.83264703  1
  Na  Na18  1  0.66656883  0.33286662  0.33208442  1
  Na  Na19  1  0.34058193  0.67829779  0.16760372  1
  Na  Na20  1  0.33982574  0.67574871  0.66637351  1
  Y  Y0  1  0.00644760  0.00808516  0.85457722  1
  Y  Y1  1  0.99878133  0.00002781  0.65351396  1
  Y  Y2  1  0.66276871  0.32450270  0.67869419  1
  Y  Y3  1  0.67037030  0.32763089  0.18492606  1
  Y  Y4  1  0.66238412  0.33756792  0.98411584  1
  Y  Y5  1  0.66427359  0.33963925  0.47740295  1
  Ga  Ga0  1  0.98944679  0.99186695  0.34978145  1
  Ga  Ga1  1  0.99545371  0.99225373  0.15386032  1
  Ga  Ga2  1  0.32909783  0.66432684  0.01756593  1
  Ga  Ga3  1  0.33944197  0.67338053  0.51172766  1
  Ga  Ga4  1  0.34462332  0.67547695  0.31593974  1
  Ga  Ga5  1  0.33751763  0.66799567  0.81819036  1
  Si  Si0  1  0.68459936  0.99230593  0.75419566  1
  Si  Si1  1  0.35807737  0.01661115  0.57802031  1
  Si  Si2  1  0.97986384  0.64721401  0.08428144  1
  P  P0  1  0.28058688  0.99253077  0.25422863  1
  P  P1  1  0.70679254  0.71770656  0.25211765  1
  P  P2  1  0.00720809  0.28793695  0.25331881  1
  P  P3  1  0.30514508  0.31377117  0.75094547  1
  P  P4  1  0.00632934  0.69389170  0.75382601  1
  P  P5  1  0.97974081  0.34266011  0.57832018  1
  P  P6  1  0.65839925  0.63728148  0.58184223  1
  P  P7  1  0.66800396  0.02323711  0.08131325  1
  P  P8  1  0.35557202  0.33226658  0.08697440  1
  P  P9  1  0.61279787  0.66367410  0.91753588  1
  P  P10  1  0.05241568  0.38671093  0.91820561  1
  P  P11  1  0.33515718  0.94735293  0.91800302  1
  P  P12  1  0.62814758  0.94820122  0.41336075  1
  P  P13  1  0.32439715  0.37772249  0.41214126  1
  P  P14  1  0.05446330  0.67590426  0.41132953  1
  O  O0  1  0.19512616  0.02085118  0.30972468  1
  O  O1  1  0.82585977  0.80336434  0.30494260  1
  O  O2  1  0.98607204  0.18307508  0.31003170  1
  O  O3  1  0.21911510  0.18752483  0.80147184  1
  O  O4  1  0.97821260  0.77889505  0.80830337  1
  O  O5  1  0.80938262  0.02762936  0.81047739  1
  O  O6  1  0.76406737  0.95885522  0.69353025  1
  O  O7  1  0.20409504  0.24137137  0.69265774  1
  O  O8  1  0.03821034  0.80342713  0.69735711  1
  O  O9  1  0.78420788  0.81626669  0.19328265  1
  O  O10  1  0.02670586  0.20014831  0.19660503  1
  O  O11  1  0.17295553  0.96526762  0.19720420  1
  O  O12  1  0.90481203  0.37573925  0.63564896  1
  O  O13  1  0.47061724  0.09388007  0.63873652  1
  O  O14  1  0.63052008  0.53791482  0.64055968  1
  O  O15  1  0.89718740  0.51929644  0.14118605  1
  O  O16  1  0.62298075  0.10533826  0.13306683  1
  O  O17  1  0.46810747  0.36895775  0.14255118  1
  O  O18  1  0.43559964  0.28815049  0.03424896  1
  O  O19  1  0.85562161  0.56882495  0.02641662  1
  O  O20  1  0.70452045  0.13338013  0.02480868  1
  O  O21  1  0.44756234  0.14447588  0.52222657  1
  O  O22  1  0.69679746  0.54890841  0.53135270  1
  O  O23  1  0.86422535  0.31350823  0.52494859  1
  O  O24  1  0.52420212  0.67876658  0.97410780  1
  O  O25  1  0.14997085  0.47282952  0.97536406  1
  O  O26  1  0.32080733  0.84569368  0.97478132  1
  O  O27  1  0.55076929  0.85021912  0.47223798  1
  O  O28  1  0.30509403  0.46444754  0.46934553  1
  O  O29  1  0.16076883  0.70201081  0.46868334  1
  O  O30  1  0.14103701  0.64869273  0.35606961  1
  O  O31  1  0.50832895  0.86213676  0.36083761  1
  O  O32  1  0.34492592  0.48365143  0.35592465  1
  O  O33  1  0.13886672  0.48872855  0.86097011  1
  O  O34  1  0.34990753  0.86140061  0.86047777  1
  O  O35  1  0.51650290  0.65166170  0.85979398  1
  O  O36  1  0.03774441  0.83856794  0.40766981  1
  O  O37  1  0.81062354  0.97379114  0.40792038  1
  O  O38  1  0.16074751  0.19777809  0.41108455  1
  O  O39  1  0.02446770  0.20511051  0.91855985  1
  O  O40  1  0.17248807  0.96010543  0.91798508  1
  O  O41  1  0.79185525  0.82572938  0.91800345  1
  O  O42  1  0.99513824  0.18209831  0.58419435  1
  O  O43  1  0.16929687  0.99408392  0.58306925  1
  O  O44  1  0.81233458  0.81751640  0.58475350  1
  O  O45  1  0.99666739  0.83551004  0.09399235  1
  O  O46  1  0.83122187  0.01358663  0.09228523  1
  O  O47  1  0.17578711  0.17626330  0.09464230  1
  O  O48  1  0.66578720  0.16173279  0.75078945  1
  O  O49  1  0.48638557  0.34277861  0.74684506  1
  O  O50  1  0.84631417  0.51870808  0.74790204  1
  O  O51  1  0.68766126  0.53690155  0.24892564  1
  O  O52  1  0.85327174  0.31698090  0.25100480  1
  O  O53  1  0.45516582  0.15566745  0.24993228  1
  O  O54  1  0.64086913  0.50934660  0.91755579  1
  O  O55  1  0.87342313  0.37096184  0.91822347  1
  O  O56  1  0.49753069  0.12322941  0.91877478  1
  O  O57  1  0.64898529  0.12950064  0.41562160  1
  O  O58  1  0.47769415  0.34850043  0.41346045  1
  O  O59  1  0.88014595  0.51302099  0.41442085  1
  O  O60  1  0.34329695  0.49456664  0.07672364  1
  O  O61  1  0.16902930  0.66613822  0.07619928  1
  O  O62  1  0.51312437  0.84234986  0.07504603  1
  O  O63  1  0.34709958  0.83130107  0.57106515  1
  O  O64  1  0.49300227  0.64324055  0.57236370  1
  O  O65  1  0.15721227  0.50074444  0.57099523  1
  O  O66  1  0.29706117  0.82973583  0.25821089  1
  O  O67  1  0.52407535  0.69148004  0.25793296  1
  O  O68  1  0.17074927  0.46810659  0.25478234  1
  O  O69  1  0.31121642  0.48530809  0.75983435  1
  O  O70  1  0.16449493  0.67331527  0.75928173  1
  O  O71  1  0.49790252  0.82026320  0.75945833  1
loop_
_geom_bond_atom_site_label_1
_geom_bond_atom_site_label_2
_geom_bond_distance
_geom_bond_site_symmetry_2
Na0 O68 2.363840 1_555
Na0 O53 2.462952 1_555
Na0 O67 2.529082 1_555
Na0 O51 2.530042 1_555
Na0 O32 2.580155 1_555
Na0 O17 2.634253 1_555
Na1 O66 2.387651 1_555
Na1 O52 2.480623 1_455
Na1 O51 2.557666 1_455
Na1 O68 2.613035 1_555
Na1 O15 2.637174 1_455
Na1 O30 2.669549 1_555
Na1 O11 2.896435 1_555
Na1 O1 3.014959 1_455
Na2 O49 2.399158 1_555
Na2 O71 2.479227 1_555
Na2 O69 2.581825 1_555
Na2 O14 2.653394 1_555
Na2 O35 2.685098 1_555
Na2 O50 2.687817 1_555
Na2 O6 2.798187 1_555
Na3 O50 2.455792 1_555
Na3 O70 2.488013 1_655
Na3 O69 2.504406 1_655
Na3 O48 2.640953 1_555
Na3 O33 2.681145 1_655
Na3 O12 2.847396 1_555
Na3 O5 2.903119 1_555
Na3 O7 2.945956 1_655
Na4 O48 2.400682 1_565
Na4 O71 2.441929 1_555
Na4 O70 2.561407 1_555
Na4 O13 2.684885 1_565
Na4 O34 2.719382 1_555
Na4 O49 2.802196 1_565
Na4 O8 2.853622 1_555
Na4 O3 2.907080 1_565
Na5 O42 2.457559 1_455
Na5 O64 2.494201 1_555
Na5 O65 2.519157 1_555
Na5 O43 2.674851 1_545
Na5 O7 2.713943 1_555
Na5 O28 2.731782 1_555
Na5 O21 2.878873 1_555
Na5 O14 2.967504 1_555
Na6 O43 2.358635 1_555
Na6 O63 2.481200 1_555
Na6 O65 2.532803 1_555
Na6 O29 2.715463 1_555
Na6 O44 2.757280 1_455
Na6 O8 2.821206 1_555
Na6 O12 2.845706 1_455
Na6 O22 2.896961 1_455
Na7 O44 2.407976 1_555
Na7 O63 2.476181 1_555
Na7 O64 2.574362 1_555
Na7 O6 2.662492 1_555
Na7 O42 2.711139 1_565
Na7 O27 2.715541 1_555
Na7 O13 2.764196 1_565
Na8 O61 2.416463 1_555
Na8 O45 2.452075 1_455
Na8 O47 2.671229 1_565
Na8 O62 2.689317 1_555
Na8 O26 2.730985 1_554
Na8 O18 2.756318 1_565
Na8 O16 2.766132 1_565
Na8 O11 2.798963 1_555
Na9 O62 2.418957 1_555
Na9 O46 2.521394 1_565
Na9 O45 2.589727 1_555
Na9 O60 2.629582 1_555
Na9 O9 2.704883 1_555
Na9 O24 2.758336 1_554
Na9 O19 2.761849 1_555
Na9 O17 2.935487 1_555
Na10 O47 2.451534 1_555
Na10 O60 2.488858 1_555
Na10 O61 2.597879 1_555
Na10 O46 2.602228 1_455
Na10 O25 2.725288 1_554
Na10 O15 2.768287 1_455
Na10 O10 2.799312 1_555
Na10 O20 2.942899 1_455
Na11 O55 2.390335 1_555
Na11 O40 2.395451 1_655
Na11 O54 2.549400 1_555
Na11 O19 2.571517 1_556
Na11 O41 2.609338 1_555
Na11 O4 2.680232 1_555
Na12 O56 2.382691 1_555
Na12 O41 2.417364 1_545
Na12 O5 2.536156 1_555
Na12 O39 2.541237 1_655
Na12 O20 2.628151 1_556
Na12 O55 2.650460 1_555
Na13 O38 2.352502 1_655
Na13 O59 2.466763 1_555
Na13 O57 2.506322 1_555
Na13 O37 2.542569 1_545
Na13 O2 2.569679 1_555
Na13 O23 2.704882 1_555
Na14 O36 2.381951 1_545
Na14 O58 2.473910 1_555
Na14 O57 2.579038 1_555
Na14 O21 2.584153 1_555
Na14 O38 2.630318 1_555
Na14 O0 2.684180 1_555
Na14 O29 2.884086 1_545
Na15 O43 2.501992 1_655
Na15 O44 2.544188 1_555
Na15 O36 2.549712 1_655
Na15 O37 2.570860 1_555
Na15 O38 2.602429 1_665
Na15 O42 2.642332 1_565
Na16 O45 2.503320 1_445
Na16 O47 2.527871 1_555
Na16 O46 2.564301 1_455
Na16 O40 2.604910 1_544
Na16 O39 2.610989 1_554
Na16 O41 2.699416 1_444
Na17 O48 2.412101 1_555
Na17 O49 2.515962 1_555
Na17 O54 2.563452 1_555
Na17 O56 2.569918 1_555
Na17 O50 2.578145 1_555
Na17 O55 2.660518 1_555
Na18 O52 2.539133 1_555
Na18 O58 2.556784 1_555
Na18 O51 2.575413 1_555
Na18 O53 2.579547 1_555
Na18 O57 2.586778 1_555
Na18 O59 2.598092 1_555
Na19 O61 2.555855 1_555
Na19 O62 2.582244 1_555
Na19 O66 2.592764 1_555
Na19 O67 2.600641 1_555
Na19 O68 2.632658 1_555
Na19 O60 2.643901 1_555
Na20 O71 2.512046 1_555
Na20 O63 2.551150 1_555
Na20 O70 2.615229 1_555
Na20 O64 2.621580 1_555
Na20 O69 2.653252 1_555
Na20 O65 2.698510 1_555
Ga0 O1 1.910098 1_555
Ga0 O0 1.972427 1_665
Ga0 O2 1.972869 1_565
Ga0 O37 2.025812 1_555
Ga0 O36 2.111775 1_655
Ga0 O38 2.224915 1_665
Ga1 O45 1.962819 1_555
Ga1 O9 1.995751 1_555
Ga1 O11 2.010877 1_655
Ga1 O10 2.011726 1_665
Ga1 O46 2.122790 1_565
Ga1 O47 2.127851 1_665
Ga2 O25 1.945470 1_554
Ga2 O26 1.946910 1_554
Ga2 O61 1.967089 1_555
Ga2 O24 1.971640 1_554
Ga2 O60 2.093419 1_555
Ga2 O62 2.102173 1_555
Ga3 O63 1.934347 1_555
Ga3 O27 1.999360 1_555
Ga3 O28 2.007096 1_555
Ga3 O29 2.024812 1_555
Ga3 O64 2.072550 1_555
Ga3 O65 2.095933 1_555
Ga4 O31 1.902678 1_555
Ga4 O30 1.963174 1_555
Ga4 O32 1.967636 1_555
Ga4 O67 2.034392 1_555
Ga4 O66 2.112654 1_555
Ga4 O68 2.236223 1_555
Ga5 O71 1.942296 1_555
Ga5 O34 1.953020 1_555
Ga5 O35 1.954365 1_555
Ga5 O33 1.979579 1_555
Ga5 O69 2.034754 1_555
Ga5 O70 2.083605 1_555
O0 P0 1.554064 1_545
O1 P1 1.536686 1_555
O2 P2 1.546003 1_655
O3 P3 1.524398 1_555
O3 Y0 2.165087 1_555
O4 P4 1.533383 1_655
O4 Y0 2.227899 1_665
O5 Si0 1.626276 1_545
O5 Y0 2.140667 1_655
O6 Si0 1.637323 1_555
O6 Y1 2.171658 1_565
O7 P3 1.549517 1_555
O7 Y1 2.242156 1_455
O8 P4 1.549270 1_555
O8 Y1 2.226805 1_465
O9 P1 1.553718 1_555
O10 P2 1.557838 1_555
O11 P0 1.560058 1_555
O12 P5 1.551910 1_555
O12 Y2 2.232238 1_555
O13 Si1 1.642838 1_555
O13 Y2 2.153292 1_555
O14 P6 1.547335 1_555
O14 Y2 2.275681 1_555
O15 Si2 1.637334 1_555
O15 Y3 2.165060 1_555
O16 P7 1.541041 1_555
O16 Y3 2.183460 1_555
O17 P8 1.546803 1_555
O17 Y3 2.272312 1_555
O18 P8 1.541555 1_555
O18 Y4 2.191329 1_554
O19 Si2 1.639604 1_555
O19 Y4 2.182352 1_554
O20 P7 1.547705 1_555
O20 Y4 2.272747 1_554
O21 Si1 1.625380 1_555
O21 Y5 2.138520 1_555
O22 P6 1.525779 1_555
O22 Y5 2.149545 1_555
O23 P5 1.533010 1_555
O23 Y5 2.231060 1_555
O24 P9 1.544063 1_555
O25 P10 1.538500 1_555
O26 P11 1.543447 1_555
O27 P12 1.552614 1_555
O28 P13 1.560734 1_555
O29 P14 1.561137 1_555
O30 P14 1.551581 1_555
O31 P12 1.535182 1_555
O32 P13 1.543374 1_555
O33 P10 1.549886 1_555
O34 P11 1.548365 1_555
O35 P9 1.542606 1_555
O36 P14 1.565812 1_555
O37 P12 1.566236 1_555
O38 P13 1.575692 1_555
O39 P10 1.543617 1_555
O39 Y0 2.238214 1_555
O40 P11 1.545281 1_555
O40 Y0 2.279514 1_565
O41 P9 1.565132 1_555
O41 Y0 2.316517 1_665
O42 P5 1.543504 1_555
O42 Y1 2.289255 1_555
O43 Si1 1.633455 1_565
O43 Y1 2.231995 1_465
O44 P6 1.542564 1_555
O44 Y1 2.289885 1_565
O45 Si2 1.658610 1_555
O46 P7 1.555733 1_555
O47 P8 1.555427 1_555
O48 Si0 1.637726 1_545
O48 Y2 2.206947 1_555
O49 P3 1.541637 1_555
O49 Y2 2.279875 1_555
O50 P4 1.542607 1_655
O50 Y2 2.327277 1_555
O51 P1 1.569260 1_555
O51 Y3 2.327031 1_555
O52 P2 1.554324 1_655
O52 Y3 2.276430 1_555
O53 P0 1.549028 1_545
O53 Y3 2.315022 1_555
O54 P9 1.549420 1_555
O54 Y4 2.244798 1_555
O55 P10 1.566720 1_655
O55 Y4 2.318961 1_555
O56 P11 1.549619 1_545
O56 Y4 2.305584 1_555
O57 P12 1.566624 1_545
O57 Y5 2.309294 1_555
O58 P13 1.548863 1_555
O58 Y5 2.264418 1_555
O59 P14 1.545316 1_655
O59 Y5 2.293294 1_555
O60 P8 1.555116 1_555
O61 Si2 1.656022 1_455
O62 P7 1.554670 1_565
O63 Si1 1.647875 1_565
O64 P6 1.552570 1_555
O65 P5 1.549725 1_455
O66 P0 1.566150 1_555
O67 P1 1.566853 1_555
O68 P2 1.576624 1_555
O69 P3 1.548502 1_555
O70 P4 1.550409 1_555
O71 Si0 1.647754 1_555
