# generated using pymatgen
data_Ba3AlF9
_symmetry_space_group_name_H-M   'P 1'
_cell_length_a   5.67584200
_cell_length_b   15.40702400
_cell_length_c   20.09377800
_cell_angle_alpha   90.00000000
_cell_angle_beta   90.00000000
_cell_angle_gamma   90.00000000
_symmetry_Int_Tables_number   1
_chemical_formula_structural   Ba3AlF9
_chemical_formula_sum   'Ba24 Al8 F72'
_cell_volume   1757.15736125
_cell_formula_units_Z   8
loop_
 _symmetry_equiv_pos_site_id
 _symmetry_equiv_pos_as_xyz
  1  'x, y, z'
loop_
 _atom_site_type_symbol
 _atom_site_label
 _atom_site_symmetry_multiplicity
 _atom_site_fract_x
 _atom_site_fract_y
 _atom_site_fract_z
 _atom_site_occupancy
  Ba  Ba0  1  0.25000000  0.19078700  0.10790900  1
  Ba  Ba1  1  0.75000000  0.80921300  0.89209100  1
  Ba  Ba2  1  0.75000000  0.69078700  0.39209100  1
  Ba  Ba3  1  0.25000000  0.30921300  0.60790900  1
  Ba  Ba4  1  0.25000000  0.78963000  0.24335900  1
  Ba  Ba5  1  0.75000000  0.21037000  0.75664100  1
  Ba  Ba6  1  0.75000000  0.28963000  0.25664100  1
  Ba  Ba7  1  0.25000000  0.71037000  0.74335900  1
  Ba  Ba8  1  0.25000000  0.50674200  0.32238700  1
  Ba  Ba9  1  0.75000000  0.49325800  0.67761300  1
  Ba  Ba10  1  0.75000000  0.00674200  0.17761300  1
  Ba  Ba11  1  0.25000000  0.99325800  0.82238700  1
  Ba  Ba12  1  0.25000000  0.90756700  0.03046200  1
  Ba  Ba13  1  0.75000000  0.09243300  0.96953800  1
  Ba  Ba14  1  0.75000000  0.40756700  0.46953800  1
  Ba  Ba15  1  0.25000000  0.59243300  0.53046200  1
  Ba  Ba16  1  0.25000000  0.07545400  0.31640500  1
  Ba  Ba17  1  0.75000000  0.92454600  0.68359500  1
  Ba  Ba18  1  0.75000000  0.57545400  0.18359500  1
  Ba  Ba19  1  0.25000000  0.42454600  0.81640500  1
  Ba  Ba20  1  0.25000000  0.62202400  0.99802800  1
  Ba  Ba21  1  0.75000000  0.37797600  0.00197200  1
  Ba  Ba22  1  0.75000000  0.12202400  0.50197200  1
  Ba  Ba23  1  0.25000000  0.87797600  0.49802800  1
  Al  Al0  1  0.25000000  0.42584600  0.11975600  1
  Al  Al1  1  0.75000000  0.57415400  0.88024400  1
  Al  Al2  1  0.75000000  0.92584600  0.38024400  1
  Al  Al3  1  0.25000000  0.07415400  0.61975600  1
  Al  Al4  1  0.25000000  0.27822200  0.38837500  1
  Al  Al5  1  0.75000000  0.72177800  0.61162500  1
  Al  Al6  1  0.75000000  0.77822200  0.11162500  1
  Al  Al7  1  0.25000000  0.22177800  0.88837500  1
  F  F0  1  0.25000000  0.32029200  0.47234100  1
  F  F1  1  0.75000000  0.67970800  0.52765900  1
  F  F2  1  0.75000000  0.82029200  0.02765900  1
  F  F3  1  0.25000000  0.17970800  0.97234100  1
  F  F4  1  0.25000000  0.24962500  0.30014800  1
  F  F5  1  0.75000000  0.75037500  0.69985200  1
  F  F6  1  0.75000000  0.74962500  0.19985200  1
  F  F7  1  0.25000000  0.25037500  0.80014800  1
  F  F8  1  0.25000000  0.50366200  0.18844500  1
  F  F9  1  0.75000000  0.49633800  0.81155500  1
  F  F10  1  0.75000000  0.00366200  0.31155500  1
  F  F11  1  0.25000000  0.99633800  0.68844500  1
  F  F12  1  0.25000000  0.35565700  0.04599900  1
  F  F13  1  0.75000000  0.64434300  0.95400100  1
  F  F14  1  0.75000000  0.85565700  0.45400100  1
  F  F15  1  0.25000000  0.14434300  0.54599900  1
  F  F16  1  0.25000000  0.96118200  0.22624500  1
  F  F17  1  0.75000000  0.03881800  0.77375500  1
  F  F18  1  0.75000000  0.46118200  0.27375500  1
  F  F19  1  0.25000000  0.53881800  0.72624500  1
  F  F20  1  0.25000000  0.72579200  0.44612900  1
  F  F21  1  0.75000000  0.27420800  0.55387100  1
  F  F22  1  0.75000000  0.22579200  0.05387100  1
  F  F23  1  0.25000000  0.77420800  0.94612900  1
  F  F24  1  0.99262700  0.14592800  0.21357100  1
  F  F25  1  0.49262700  0.85407200  0.78642900  1
  F  F26  1  0.00737300  0.64592800  0.28642900  1
  F  F27  1  0.50737300  0.35407200  0.71357100  1
  F  F28  1  0.00737300  0.85407200  0.78642900  1
  F  F29  1  0.50737300  0.14592800  0.21357100  1
  F  F30  1  0.99262700  0.35407200  0.71357100  1
  F  F31  1  0.49262700  0.64592800  0.28642900  1
  F  F32  1  0.00555100  0.04544900  0.07265600  1
  F  F33  1  0.50555100  0.95455100  0.92734400  1
  F  F34  1  0.99444900  0.54544900  0.42734400  1
  F  F35  1  0.49444900  0.45455100  0.57265600  1
  F  F36  1  0.99444900  0.95455100  0.92734400  1
  F  F37  1  0.49444900  0.04544900  0.07265600  1
  F  F38  1  0.00555100  0.45455100  0.57265600  1
  F  F39  1  0.50555100  0.54544900  0.42734400  1
  F  F40  1  0.02001300  0.35752800  0.36623700  1
  F  F41  1  0.52001300  0.64247200  0.63376300  1
  F  F42  1  0.97998700  0.85752800  0.13376300  1
  F  F43  1  0.47998700  0.14247200  0.86623700  1
  F  F44  1  0.97998700  0.64247200  0.63376300  1
  F  F45  1  0.47998700  0.35752800  0.36623700  1
  F  F46  1  0.02001300  0.14247200  0.86623700  1
  F  F47  1  0.52001300  0.85752800  0.13376300  1
  F  F48  1  0.01966700  0.49345200  0.07903500  1
  F  F49  1  0.51966700  0.50654800  0.92096500  1
  F  F50  1  0.98033300  0.99345200  0.42096500  1
  F  F51  1  0.48033300  0.00654800  0.57903500  1
  F  F52  1  0.98033300  0.50654800  0.92096500  1
  F  F53  1  0.48033300  0.49345200  0.07903500  1
  F  F54  1  0.01966700  0.00654800  0.57903500  1
  F  F55  1  0.51966700  0.99345200  0.42096500  1
  F  F56  1  0.02400200  0.35732300  0.15726500  1
  F  F57  1  0.52400200  0.64267700  0.84273500  1
  F  F58  1  0.97599800  0.85732300  0.34273500  1
  F  F59  1  0.47599800  0.14267700  0.65726500  1
  F  F60  1  0.97599800  0.64267700  0.84273500  1
  F  F61  1  0.47599800  0.35732300  0.15726500  1
  F  F62  1  0.02400200  0.14267700  0.65726500  1
  F  F63  1  0.52400200  0.85732300  0.34273500  1
  F  F64  1  0.02144600  0.19650800  0.40340800  1
  F  F65  1  0.52144600  0.80349200  0.59659200  1
  F  F66  1  0.97855400  0.69650800  0.09659200  1
  F  F67  1  0.47855400  0.30349200  0.90340800  1
  F  F68  1  0.97855400  0.80349200  0.59659200  1
  F  F69  1  0.47855400  0.19650800  0.40340800  1
  F  F70  1  0.02144600  0.30349200  0.90340800  1
  F  F71  1  0.52144600  0.69650800  0.09659200  1
loop_
_geom_bond_atom_site_label_1
_geom_bond_atom_site_label_2
_geom_bond_distance
_geom_bond_site_symmetry_2
Ba0 F29 2.668221 1_555
Ba0 F24 2.668221 1_455
Ba0 F37 2.727809 1_555
Ba0 F32 2.727809 1_555
Ba0 F3 2.729416 1_554
Ba0 F12 2.828417 1_555
Ba0 F61 3.035196 1_555
Ba0 F56 3.035196 1_555
Ba0 F22 3.086047 1_455
Ba0 F22 3.086047 1_555
Ba1 F25 2.668221 1_555
Ba1 F28 2.668221 1_655
Ba1 F36 2.727809 1_555
Ba1 F33 2.727809 1_555
Ba1 F2 2.729416 1_556
Ba1 F13 2.828417 1_555
Ba1 F57 3.035196 1_555
Ba1 F60 3.035196 1_555
Ba1 F23 3.086047 1_555
Ba1 F23 3.086047 1_655
Ba2 F31 2.668221 1_555
Ba2 F26 2.668221 1_655
Ba2 F34 2.727809 1_555
Ba2 F39 2.727809 1_555
Ba2 F1 2.729416 1_555
Ba2 F14 2.828417 1_555
Ba2 F58 3.035196 1_555
Ba2 F63 3.035196 1_555
Ba2 F20 3.086047 1_555
Ba2 F20 3.086047 1_655
Ba3 F30 2.668221 1_455
Ba3 F27 2.668221 1_555
Ba3 F38 2.727809 1_555
Ba3 F35 2.727809 1_555
Ba3 F0 2.729416 1_555
Ba3 F15 2.828417 1_555
Ba3 F62 3.035196 1_555
Ba3 F59 3.035196 1_555
Ba3 F21 3.086047 1_455
Ba3 F21 3.086047 1_555
Ba4 F16 2.665383 1_555
Ba4 F58 2.737468 1_455
Ba4 F63 2.737468 1_555
Ba4 F31 2.747237 1_555
Ba4 F26 2.747237 1_555
Ba4 F47 2.879709 1_555
Ba4 F42 2.879709 1_455
Ba4 F6 3.032813 1_455
Ba4 F6 3.032813 1_555
Ba5 F17 2.665383 1_555
Ba5 F59 2.737468 1_555
Ba5 F62 2.737468 1_655
Ba5 F30 2.747237 1_555
Ba5 F27 2.747237 1_555
Ba5 F43 2.879709 1_555
Ba5 F46 2.879709 1_655
Ba5 F7 3.032813 1_555
Ba5 F7 3.032813 1_655
Ba6 F18 2.665383 1_555
Ba6 F61 2.737468 1_555
Ba6 F56 2.737468 1_655
Ba6 F29 2.747237 1_555
Ba6 F24 2.747237 1_555
Ba6 F45 2.879709 1_555
Ba6 F40 2.879709 1_655
Ba6 F4 3.032813 1_655
Ba6 F4 3.032813 1_555
Ba7 F19 2.665383 1_555
Ba7 F60 2.737468 1_455
Ba7 F57 2.737468 1_555
Ba7 F28 2.747237 1_555
Ba7 F25 2.747237 1_555
Ba7 F44 2.879709 1_455
Ba7 F41 2.879709 1_555
Ba7 F5 3.032813 1_555
Ba7 F5 3.032813 1_455
Ba8 F39 2.628176 1_555
Ba8 F34 2.628176 1_455
Ba8 F31 2.648985 1_555
Ba8 F26 2.648985 1_555
Ba8 F8 2.691819 1_555
Ba8 F40 2.786663 1_555
Ba8 F45 2.786663 1_555
Ba8 F18 3.082441 1_455
Ba8 F18 3.082441 1_555
Ba9 F35 2.628176 1_555
Ba9 F38 2.628176 1_655
Ba9 F30 2.648985 1_555
Ba9 F27 2.648985 1_555
Ba9 F9 2.691819 1_555
Ba9 F44 2.786663 1_555
Ba9 F41 2.786663 1_555
Ba9 F19 3.082441 1_655
Ba9 F19 3.082441 1_555
Ba10 F37 2.628176 1_555
Ba10 F32 2.628176 1_655
Ba10 F29 2.648985 1_555
Ba10 F24 2.648985 1_555
Ba10 F10 2.691819 1_555
Ba10 F47 2.786663 1_545
Ba10 F42 2.786663 1_545
Ba10 F16 3.082441 1_545
Ba10 F16 3.082441 1_645
Ba11 F36 2.628176 1_455
Ba11 F33 2.628176 1_555
Ba11 F25 2.648985 1_555
Ba11 F28 2.648985 1_555
Ba11 F11 2.691819 1_555
Ba11 F43 2.786663 1_565
Ba11 F46 2.786663 1_565
Ba11 F17 3.082441 1_465
Ba11 F17 3.082441 1_565
Ba12 F33 2.630812 1_554
Ba12 F36 2.630812 1_454
Ba12 F23 2.663309 1_554
Ba12 F32 2.675205 1_565
Ba12 F37 2.675205 1_565
Ba12 F47 2.692887 1_555
Ba12 F42 2.692887 1_455
Ba12 F2 3.140867 1_455
Ba12 F2 3.140867 1_555
Ba13 F37 2.630812 1_556
Ba13 F32 2.630812 1_656
Ba13 F22 2.663309 1_556
Ba13 F36 2.675205 1_545
Ba13 F33 2.675205 1_545
Ba13 F43 2.692887 1_555
Ba13 F46 2.692887 1_655
Ba13 F3 3.140867 1_655
Ba13 F3 3.140867 1_555
Ba14 F35 2.630812 1_555
Ba14 F38 2.630812 1_655
Ba14 F21 2.663309 1_555
Ba14 F39 2.675205 1_555
Ba14 F34 2.675205 1_555
Ba14 F45 2.692887 1_555
Ba14 F40 2.692887 1_655
Ba14 F0 3.140867 1_655
Ba14 F0 3.140867 1_555
Ba15 F34 2.630812 1_455
Ba15 F39 2.630812 1_555
Ba15 F20 2.663309 1_555
Ba15 F35 2.675205 1_555
Ba15 F38 2.675205 1_555
Ba15 F41 2.692887 1_555
Ba15 F44 2.692887 1_455
Ba15 F1 3.140867 1_455
Ba15 F1 3.140867 1_555
Ba16 F16 2.526218 1_545
Ba16 F4 2.703267 1_555
Ba16 F24 2.753653 1_455
Ba16 F29 2.753653 1_555
Ba16 F64 2.866640 1_555
Ba16 F69 2.866640 1_555
Ba16 F50 2.890176 1_445
Ba16 F55 2.890176 1_545
Ba16 F10 3.047417 1_455
Ba16 F10 3.047417 1_555
Ba17 F17 2.526218 1_565
Ba17 F5 2.703267 1_555
Ba17 F25 2.753653 1_555
Ba17 F28 2.753653 1_655
Ba17 F68 2.866640 1_555
Ba17 F65 2.866640 1_555
Ba17 F51 2.890176 1_565
Ba17 F54 2.890176 1_665
Ba17 F11 3.047417 1_555
Ba17 F11 3.047417 1_655
Ba18 F18 2.526218 1_555
Ba18 F6 2.703267 1_555
Ba18 F31 2.753653 1_555
Ba18 F26 2.753653 1_655
Ba18 F66 2.866640 1_555
Ba18 F71 2.866640 1_555
Ba18 F53 2.890176 1_555
Ba18 F48 2.890176 1_655
Ba18 F8 3.047417 1_555
Ba18 F8 3.047417 1_655
Ba19 F19 2.526218 1_555
Ba19 F7 2.703267 1_555
Ba19 F30 2.753653 1_455
Ba19 F27 2.753653 1_555
Ba19 F70 2.866640 1_555
Ba19 F67 2.866640 1_555
Ba19 F49 2.890176 1_555
Ba19 F52 2.890176 1_455
Ba19 F9 3.047417 1_455
Ba19 F9 3.047417 1_555
Ba20 F23 2.566157 1_555
Ba20 F66 2.759187 1_456
Ba20 F71 2.759187 1_556
Ba20 F49 2.811735 1_555
Ba20 F52 2.811735 1_455
Ba20 F53 2.877961 1_556
Ba20 F48 2.877961 1_556
Ba20 F13 2.992437 1_455
Ba20 F13 2.992437 1_555
Ba21 F22 2.566157 1_555
Ba21 F67 2.759187 1_554
Ba21 F70 2.759187 1_654
Ba21 F53 2.811735 1_555
Ba21 F48 2.811735 1_655
Ba21 F52 2.877961 1_554
Ba21 F49 2.877961 1_554
Ba21 F12 2.992437 1_555
Ba21 F12 2.992437 1_655
Ba22 F21 2.566157 1_555
Ba22 F69 2.759187 1_555
Ba22 F64 2.759187 1_655
Ba22 F51 2.811735 1_555
Ba22 F54 2.811735 1_655
Ba22 F55 2.877961 1_545
Ba22 F50 2.877961 1_545
Ba22 F15 2.992437 1_555
Ba22 F15 2.992437 1_655
Ba23 F20 2.566157 1_555
Ba23 F68 2.759187 1_455
Ba23 F65 2.759187 1_555
Ba23 F50 2.811735 1_455
Ba23 F55 2.811735 1_555
Ba23 F54 2.877961 1_565
Ba23 F51 2.877961 1_565
Ba23 F14 2.992437 1_455
Ba23 F14 2.992437 1_555
Al0 F56 1.824289 1_555
Al0 F61 1.824289 1_555
Al0 F8 1.828224 1_555
Al0 F12 1.834646 1_555
Al0 F53 1.861070 1_555
Al0 F48 1.861070 1_555
Al1 F57 1.824289 1_555
Al1 F60 1.824289 1_555
Al1 F9 1.828224 1_555
Al1 F13 1.834646 1_555
Al1 F52 1.861070 1_555
Al1 F49 1.861070 1_555
Al2 F58 1.824289 1_555
Al2 F63 1.824289 1_555
Al2 F10 1.828224 1_565
Al2 F14 1.834646 1_555
Al2 F55 1.861070 1_555
Al2 F50 1.861070 1_555
Al3 F59 1.824289 1_555
Al3 F62 1.824289 1_555
Al3 F11 1.828224 1_545
Al3 F15 1.834646 1_555
Al3 F51 1.861070 1_555
Al3 F54 1.861070 1_555
Al4 F0 1.807416 1_555
Al4 F4 1.826744 1_555
Al4 F69 1.832777 1_555
Al4 F64 1.832777 1_555
Al4 F45 1.842508 1_555
Al4 F40 1.842508 1_555
Al5 F1 1.807416 1_555
Al5 F5 1.826744 1_555
Al5 F68 1.832777 1_555
Al5 F65 1.832777 1_555
Al5 F41 1.842508 1_555
Al5 F44 1.842508 1_555
Al6 F2 1.807416 1_555
Al6 F6 1.826744 1_555
Al6 F66 1.832777 1_555
Al6 F71 1.832777 1_555
Al6 F47 1.842508 1_555
Al6 F42 1.842508 1_555
Al7 F3 1.807416 1_555
Al7 F7 1.826744 1_555
Al7 F67 1.832777 1_555
Al7 F70 1.832777 1_555
Al7 F46 1.842508 1_555
Al7 F43 1.842508 1_555
