# generated using pymatgen
data_GdH12(ClO2)3
_symmetry_space_group_name_H-M   'P 1'
_cell_length_a   6.59862400
_cell_length_b   7.91967400
_cell_length_c   12.18124855
_cell_angle_alpha   52.55447304
_cell_angle_beta   90.00000000
_cell_angle_gamma   90.00000000
_symmetry_Int_Tables_number   1
_chemical_formula_structural   GdH12(ClO2)3
_chemical_formula_sum   'Gd2 H24 Cl6 O12'
_cell_volume   505.40049515
_cell_formula_units_Z   2
loop_
 _symmetry_equiv_pos_site_id
 _symmetry_equiv_pos_as_xyz
  1  'x, y, z'
loop_
 _atom_site_type_symbol
 _atom_site_label
 _atom_site_symmetry_multiplicity
 _atom_site_fract_x
 _atom_site_fract_y
 _atom_site_fract_z
 _atom_site_occupancy
  Gd  Gd0  1  0.15334400  0.00000000  0.25000000  1
  Gd  Gd1  1  0.84665600  0.00000000  0.75000000  1
  H  H0  1  0.24824300  0.47310300  0.03532800  1
  H  H1  1  0.24824300  0.52689700  0.46467200  1
  H  H2  1  0.75175700  0.52689700  0.96467200  1
  H  H3  1  0.75175700  0.47310300  0.53532800  1
  H  H4  1  0.32864500  0.37141300  0.96657900  1
  H  H5  1  0.32864500  0.62858700  0.53342100  1
  H  H6  1  0.67135500  0.62858700  0.03342100  1
  H  H7  1  0.67135500  0.37141300  0.46657900  1
  H  H8  1  0.55216300  0.96792800  0.38491000  1
  H  H9  1  0.55216300  0.03207200  0.11509000  1
  H  H10  1  0.44783700  0.03207200  0.61509000  1
  H  H11  1  0.44783700  0.96792800  0.88491000  1
  H  H12  1  0.47491000  0.19984000  0.31839900  1
  H  H13  1  0.47491000  0.80016000  0.18160100  1
  H  H14  1  0.52509000  0.80016000  0.68160100  1
  H  H15  1  0.52509000  0.19984000  0.81839900  1
  H  H16  1  0.09487000  0.75991300  0.12967000  1
  H  H17  1  0.09487000  0.24008700  0.37033000  1
  H  H18  1  0.90513000  0.24008700  0.87033000  1
  H  H19  1  0.90513000  0.75991300  0.62967000  1
  H  H20  1  0.08486100  0.67664900  0.73531300  1
  H  H21  1  0.08486100  0.32335100  0.76468700  1
  H  H22  1  0.91513900  0.32335100  0.26468700  1
  H  H23  1  0.91513900  0.67664900  0.23531300  1
  Cl  Cl0  1  0.83201100  0.79899700  0.44271800  1
  Cl  Cl1  1  0.83201100  0.20100300  0.05728200  1
  Cl  Cl2  1  0.16798900  0.20100300  0.55728200  1
  Cl  Cl3  1  0.16798900  0.79899700  0.94271800  1
  Cl  Cl4  1  0.36580500  0.50000000  0.75000000  1
  Cl  Cl5  1  0.63419500  0.50000000  0.25000000  1
  O  O0  1  0.29384600  0.33648700  0.05723200  1
  O  O1  1  0.29384600  0.66351300  0.44276800  1
  O  O2  1  0.70615400  0.66351300  0.94276800  1
  O  O3  1  0.70615400  0.33648700  0.55723200  1
  O  O4  1  0.42766900  0.05633100  0.35424900  1
  O  O5  1  0.42766900  0.94366900  0.14575100  1
  O  O6  1  0.57233100  0.94366900  0.64575100  1
  O  O7  1  0.57233100  0.05633100  0.85424900  1
  O  O8  1  0.05081600  0.74203000  0.21415800  1
  O  O9  1  0.05081600  0.25797000  0.28584200  1
  O  O10  1  0.94918400  0.25797000  0.78584200  1
  O  O11  1  0.94918400  0.74203000  0.71415800  1
loop_
_geom_bond_atom_site_label_1
_geom_bond_atom_site_label_2
_geom_bond_distance
_geom_bond_site_symmetry_2
Gd0 O4 2.403588 1_555
Gd0 O5 2.403588 1_545
Gd0 O1 2.421914 1_545
Gd0 O0 2.421914 1_555
Gd0 O8 2.430434 1_545
Gd0 O9 2.430434 1_555
Gd1 O7 2.403588 1_555
Gd1 O6 2.403588 1_545
Gd1 O2 2.421914 1_545
Gd1 O3 2.421914 1_555
Gd1 O10 2.430434 1_555
Gd1 O11 2.430434 1_545
H0 O0 0.990617 1_555
H1 O1 0.990617 1_555
H2 O2 0.990617 1_555
H3 O3 0.990617 1_555
H4 O0 0.988544 1_556
H5 O1 0.988544 1_555
H6 O2 0.988544 1_554
H7 O3 0.988544 1_555
H8 O4 0.993246 1_565
H9 O5 0.993246 1_545
H10 O6 0.993246 1_545
H11 O7 0.993246 1_565
H12 O4 0.987963 1_555
H13 O5 0.987963 1_555
H14 O6 0.987963 1_555
H15 O7 0.987963 1_555
H16 O8 0.993231 1_555
H17 O9 0.993231 1_555
H18 O10 0.993231 1_555
H19 O11 0.993231 1_555
H20 O11 0.986809 1_455
H21 O10 0.986809 1_455
H22 O9 0.986809 1_655
H23 O8 0.986809 1_655
Cl0 H8 2.133108 1_555
Cl0 H19 2.158140 1_555
Cl0 H3 2.161928 1_555
Cl0 Gd0 2.827844 1_665
Cl1 H9 2.133108 1_555
Cl1 H18 2.158140 1_554
Cl1 H2 2.161928 1_554
Cl1 Gd0 2.827844 1_655
Cl2 H10 2.133108 1_555
Cl2 H17 2.158140 1_555
Cl2 H1 2.161928 1_555
Cl2 Gd1 2.827844 1_455
Cl3 H11 2.133108 1_555
Cl3 H16 2.158140 1_556
Cl3 H0 2.161928 1_556
Cl3 Gd1 2.827844 1_465
