# generated using pymatgen
data_Na5Ga3Sn(PO4)6
_symmetry_space_group_name_H-M   'P 1'
_cell_length_a   8.74067956
_cell_length_b   8.73736330
_cell_length_c   22.05725590
_cell_angle_alpha   89.92782975
_cell_angle_beta   89.99332771
_cell_angle_gamma   120.00714614
_symmetry_Int_Tables_number   1
_chemical_formula_structural   Na5Ga3Sn(PO4)6
_chemical_formula_sum   'Na15 Ga9 Sn3 P18 O72'
_cell_volume   1458.73338735
_cell_formula_units_Z   3
loop_
 _symmetry_equiv_pos_site_id
 _symmetry_equiv_pos_as_xyz
  1  'x, y, z'
loop_
 _atom_site_type_symbol
 _atom_site_label
 _atom_site_symmetry_multiplicity
 _atom_site_fract_x
 _atom_site_fract_y
 _atom_site_fract_z
 _atom_site_occupancy
  Na  Na0  1  0.63347249  0.99941611  0.25262563  1
  Na  Na1  1  0.36562042  0.36648656  0.25303852  1
  Na  Na2  1  0.00077168  0.63479393  0.25265513  1
  Na  Na3  1  0.63903036  0.63315826  0.74878288  1
  Na  Na4  1  0.99752007  0.36208451  0.74898773  1
  Na  Na5  1  0.03220707  0.70086037  0.58214912  1
  Na  Na6  1  0.66563409  0.96689875  0.58188725  1
  Na  Na7  1  0.66602945  0.69954009  0.08233835  1
  Na  Na8  1  0.03231664  0.33125161  0.08253851  1
  Na  Na9  1  0.00851285  0.00927942  0.49626831  1
  Na  Na10  1  0.00814862  0.99906526  0.99607488  1
  Na  Na11  1  0.65772738  0.32362703  0.83335094  1
  Na  Na12  1  0.66627100  0.33326698  0.33632845  1
  Na  Na13  1  0.33239226  0.67429001  0.16585426  1
  Na  Na14  1  0.33316577  0.66581878  0.66331807  1
  Ga  Ga0  1  0.00052832  0.00007765  0.35531981  1
  Ga  Ga1  1  0.00248029  0.00083893  0.85371262  1
  Ga  Ga2  1  0.00728393  0.00634416  0.64930588  1
  Ga  Ga3  1  0.00553769  0.99923024  0.15019338  1
  Ga  Ga4  1  0.65925861  0.32695436  0.68352100  1
  Ga  Ga5  1  0.66539095  0.33162797  0.18302767  1
  Ga  Ga6  1  0.33259831  0.67298106  0.01505245  1
  Ga  Ga7  1  0.33262438  0.66032493  0.51433560  1
  Ga  Ga8  1  0.33328901  0.66663679  0.32107331  1
  Sn  Sn0  1  0.66525726  0.33242697  0.97986240  1
  Sn  Sn1  1  0.66453626  0.33273383  0.47908069  1
  Sn  Sn2  1  0.33390902  0.67236399  0.81652876  1
  P  P0  1  0.28941902  -0.00013809  0.25056952  1
  P  P1  1  0.71065341  0.71050302  0.24984602  1
  P  P2  1  -0.00030713  0.28961365  0.24985598  1
  P  P3  1  0.29030415  0.28360924  0.75048725  1
  P  P4  1  0.99909777  0.71250191  0.74917411  1
  P  P5  1  0.71316437  0.00368068  0.74929557  1
  P  P6  1  0.96244250  0.33348826  0.58511552  1
  P  P7  1  0.37204290  0.04145341  0.58438082  1
  P  P8  1  0.66360640  0.62548838  0.58537347  1
  P  P9  1  0.96326508  0.63005970  0.08496336  1
  P  P10  1  0.66377728  0.03752473  0.08539112  1
  P  P11  1  0.37079283  0.33011604  0.08495267  1
  P  P12  1  0.63049306  0.67234737  0.91765484  1
  P  P13  1  0.04171374  0.36965297  0.91791119  1
  P  P14  1  0.32772359  0.95845234  0.91782539  1
  P  P15  1  0.62644500  0.95478708  0.41618442  1
  P  P16  1  0.32826944  0.37399482  0.41544945  1
  P  P17  1  0.04526869  0.67135627  0.41636640  1
  O  O0  1  0.20865235  0.04035406  0.30546041  1
  O  O1  1  0.83312305  0.79376817  0.30414857  1
  O  O2  1  0.96068925  0.16685774  0.30415133  1
  O  O3  1  0.20742005  0.17485329  0.80748768  1
  O  O4  1  0.96354181  0.79435309  0.80479835  1
  O  O5  1  0.83030562  0.03726976  0.80504935  1
  O  O6  1  0.78842863  0.96386838  0.69156319  1
  O  O7  1  0.17158460  0.21050726  0.69423479  1
  O  O8  1  0.03063547  0.82036766  0.69071303  1
  O  O9  1  0.78605986  0.82387161  0.19127773  1
  O  O10  1  0.03724725  0.21421818  0.19131125  1
  O  O11  1  0.17229464  0.95927066  0.19361541  1
  O  O12  1  0.88111048  0.37164427  0.64201065  1
  O  O13  1  0.49543474  0.12226504  0.63940814  1
  O  O14  1  0.63392480  0.51340575  0.64298312  1
  O  O15  1  0.88133987  0.50968845  0.14176278  1
  O  O16  1  0.63302040  0.11962428  0.14275409  1
  O  O17  1  0.49062536  0.37045804  0.14164992  1
  O  O18  1  0.45261700  0.29647479  0.02846048  1
  O  O19  1  0.83934464  0.54863220  0.02935043  1
  O  O20  1  0.70918741  0.16136989  0.02971472  1
  O  O21  1  0.45037154  0.15520866  0.52697416  1
  O  O22  1  0.70881152  0.54713442  0.52965706  1
  O  O23  1  0.83871213  0.29085324  0.52933798  1
  O  O24  1  0.54309310  0.69662449  0.97492410  1
  O  O25  1  0.15431537  0.45694826  0.97495135  1
  O  O26  1  0.29990943  0.84364743  0.97382951  1
  O  O27  1  0.54294075  0.84668651  0.47460704  1
  O  O28  1  0.30144664  0.45908702  0.47206369  1
  O  O29  1  0.15393855  0.69687313  0.47459444  1
  O  O30  1  0.12326383  0.63727796  0.35807600  1
  O  O31  1  0.51413878  0.87631017  0.35802477  1
  O  O32  1  0.36279054  0.48445551  0.35648252  1
  O  O33  1  0.11619846  0.48189621  0.85874399  1
  O  O34  1  0.36946573  0.88611674  0.85968327  1
  O  O35  1  0.51757276  0.63417915  0.85876121  1
  O  O36  1  0.02632531  0.83626712  0.41057002  1
  O  O37  1  0.81002132  0.97315690  0.41040799  1
  O  O38  1  0.16348506  0.18990533  0.41000292  1
  O  O39  1  0.02489503  0.18805313  0.91150299  1
  O  O40  1  0.16247395  0.97442988  0.91107744  1
  O  O41  1  0.81168625  0.83779656  0.91095983  1
  O  O42  1  0.97426271  0.16383126  0.59140459  1
  O  O43  1  0.18495314  0.01637580  0.59079393  1
  O  O44  1  0.83178363  0.81211191  0.59063939  1
  O  O45  1  0.97452785  0.81089056  0.09117577  1
  O  O46  1  0.83204969  0.01985772  0.09081277  1
  O  O47  1  0.18402058  0.16822848  0.09091318  1
  O  O48  1  0.69484365  0.17005090  0.74297638  1
  O  O49  1  0.47968975  0.31434013  0.74379303  1
  O  O50  1  0.83360611  0.52310526  0.74400130  1
  O  O51  1  0.68957661  0.52223637  0.24307218  1
  O  O52  1  0.83265320  0.31089091  0.24331573  1
  O  O53  1  0.47741584  0.16718797  0.24326501  1
  O  O54  1  0.64536648  0.50263725  0.92137342  1
  O  O55  1  0.85747144  0.35564313  0.92178043  1
  O  O56  1  0.49714147  0.14320311  0.92182388  1
  O  O57  1  0.64272263  0.14101617  0.42003993  1
  O  O58  1  0.49882964  0.35881168  0.41973949  1
  O  O59  1  0.85927305  0.50102307  0.42052397  1
  O  O60  1  0.35488606  0.49943382  0.07818475  1
  O  O61  1  0.14317377  0.63940633  0.07721048  1
  O  O62  1  0.50105230  0.85155807  0.07768109  1
  O  O63  1  0.35433456  0.85533860  0.57768027  1
  O  O64  1  0.50098762  0.64906834  0.57758089  1
  O  O65  1  0.14306254  0.50344466  0.57709310  1
  O  O66  1  0.31220225  0.83439189  0.25662818  1
  O  O67  1  0.52299962  0.68886622  0.25583023  1
  O  O68  1  0.16550668  0.47746891  0.25585237  1
  O  O69  1  0.31127790  0.47587079  0.75496849  1
  O  O70  1  0.16276667  0.68417721  0.75381576  1
  O  O71  1  0.52740099  0.83126482  0.75421556  1
loop_
_geom_bond_atom_site_label_1
_geom_bond_atom_site_label_2
_geom_bond_distance
_geom_bond_site_symmetry_2
Na0 O67 2.383009 1_555
Na0 O52 2.395627 1_565
Na0 O66 2.433542 1_555
Na0 O53 2.459942 1_565
Na0 O31 2.553558 1_555
Na0 O16 2.640847 1_565
Na0 O2 2.726153 1_565
Na0 O9 2.830776 1_555
Na1 O68 2.387514 1_555
Na1 O53 2.395091 1_555
Na1 O67 2.440295 1_555
Na1 O51 2.462331 1_555
Na1 O32 2.510091 1_555
Na1 O17 2.681933 1_555
Na1 O0 2.723997 1_555
Na1 O10 2.836889 1_555
Na2 O66 2.389799 1_555
Na2 O51 2.394910 1_455
Na2 O68 2.438711 1_555
Na2 O52 2.460277 1_455
Na2 O30 2.555632 1_555
Na2 O15 2.670846 1_455
Na2 O1 2.721423 1_455
Na2 O11 2.778504 1_555
Na3 O50 2.337552 1_555
Na3 O71 2.377447 1_555
Na3 O49 2.414929 1_555
Na3 O69 2.485115 1_555
Na3 O14 2.549938 1_555
Na3 O35 2.649651 1_555
Na3 O4 2.750473 1_555
Na3 O6 2.804263 1_555
Na4 O48 2.322225 1_555
Na4 O69 2.408358 1_655
Na4 O70 2.439796 1_655
Na4 O50 2.461689 1_555
Na4 O12 2.587501 1_555
Na4 O33 2.636969 1_655
Na4 O7 2.747059 1_655
Na4 O5 2.749824 1_555
Na5 O65 2.366161 1_555
Na5 O43 2.395552 1_565
Na5 O44 2.398435 1_455
Na5 O63 2.440825 1_555
Na5 O29 2.607324 1_555
Na5 O8 2.616362 1_555
Na5 O22 2.709616 1_455
Na5 O12 2.819935 1_455
Na6 O42 2.374925 1_565
Na6 O63 2.389535 1_555
Na6 O64 2.407325 1_555
Na6 O44 2.437068 1_555
Na6 O27 2.594786 1_555
Na6 O6 2.652140 1_555
Na6 O23 2.711503 1_565
Na6 O13 2.772988 1_565
Na7 O45 2.373222 1_555
Na7 O60 2.388729 1_555
Na7 O62 2.402000 1_555
Na7 O46 2.431624 1_565
Na7 O24 2.596551 1_554
Na7 O9 2.630963 1_555
Na7 O19 2.720441 1_555
Na7 O17 2.812525 1_555
Na8 O61 2.364689 1_555
Na8 O47 2.389523 1_555
Na8 O46 2.394793 1_455
Na8 O60 2.444087 1_555
Na8 O25 2.606959 1_554
Na8 O10 2.615667 1_555
Na8 O20 2.711049 1_455
Na8 O15 2.818014 1_455
Na9 O38 2.408259 1_555
Na9 O36 2.474883 1_545
Na9 O37 2.480098 1_445
Na9 O43 2.575812 1_555
Na9 O42 2.593829 1_455
Na9 O44 2.648659 1_445
Na10 O40 2.381520 1_555
Na10 O39 2.445056 1_565
Na10 O41 2.458894 1_455
Na10 O47 2.580618 1_566
Na10 O45 2.587989 1_456
Na10 O46 2.654955 1_466
Na11 O56 2.458039 1_555
Na11 O49 2.491040 1_555
Na11 O48 2.514264 1_555
Na11 O54 2.530650 1_555
Na11 O55 2.538618 1_555
Na11 O50 2.568230 1_555
Na12 O58 2.429787 1_555
Na12 O57 2.433026 1_555
Na12 O59 2.444906 1_555
Na12 O52 2.578174 1_555
Na12 O51 2.579477 1_555
Na12 O53 2.580049 1_555
Na13 O62 2.462240 1_555
Na13 O61 2.479775 1_555
Na13 O66 2.500153 1_555
Na13 O60 2.533763 1_555
Na13 O68 2.550977 1_555
Na13 O67 2.553392 1_555
Na14 O64 2.442190 1_555
Na14 O63 2.455587 1_555
Na14 O65 2.457762 1_555
Na14 O70 2.543160 1_555
Na14 O71 2.558356 1_555
Na14 O69 2.559607 1_555
Ga0 O38 1.969020 1_555
Ga0 O36 1.975602 1_545
Ga0 O37 1.977774 1_445
Ga0 O0 2.000213 1_555
Ga0 O2 2.005506 1_455
Ga0 O1 2.007908 1_445
Ga1 O3 1.957446 1_555
Ga1 O4 1.981323 1_445
Ga1 O40 1.983018 1_545
Ga1 O5 1.999227 1_455
Ga1 O39 2.005918 1_555
Ga1 O41 2.005920 1_445
Ga2 O7 1.915474 1_555
Ga2 O8 1.960692 1_545
Ga2 O43 1.986988 1_555
Ga2 O6 1.988587 1_445
Ga2 O42 2.000185 1_455
Ga2 O44 2.076012 1_445
Ga3 O11 1.916304 1_555
Ga3 O9 1.976141 1_455
Ga3 O10 1.977744 1_565
Ga3 O47 2.003603 1_565
Ga3 O45 2.008827 1_455
Ga3 O46 2.078628 1_465
Ga4 O13 1.907599 1_555
Ga4 O14 1.964608 1_555
Ga4 O12 1.998097 1_555
Ga4 O49 2.017217 1_555
Ga4 O48 2.029302 1_555
Ga4 O50 2.105499 1_555
Ga5 O16 1.944318 1_555
Ga5 O17 1.949225 1_555
Ga5 O15 1.967360 1_555
Ga5 O53 2.040279 1_555
Ga5 O52 2.050211 1_555
Ga5 O51 2.055689 1_555
Ga6 O26 1.885418 1_554
Ga6 O24 1.957096 1_554
Ga6 O25 1.958590 1_554
Ga6 O62 2.053977 1_555
Ga6 O61 2.054211 1_555
Ga6 O60 2.136958 1_555
Ga7 O28 1.886834 1_555
Ga7 O27 1.949544 1_555
Ga7 O29 1.951453 1_555
Ga7 O65 2.064803 1_555
Ga7 O64 2.065498 1_555
Ga7 O63 2.138726 1_555
Ga8 O32 1.902037 1_555
Ga8 O31 1.904412 1_555
Ga8 O30 1.905279 1_555
Ga8 O66 2.113763 1_555
Ga8 O68 2.129353 1_555
Ga8 O67 2.129534 1_555
O0 P0 1.529751 1_555
O1 P1 1.527536 1_555
O2 P2 1.527027 1_655
O3 P3 1.522089 1_555
O4 P4 1.528988 1_555
O5 P5 1.532150 1_555
O6 P5 1.550866 1_565
O7 P3 1.537415 1_555
O8 P4 1.537534 1_455
O9 P1 1.558220 1_555
O10 P2 1.558072 1_555
O11 P0 1.546050 1_565
O12 P6 1.558627 1_555
O13 P7 1.541343 1_555
O14 P8 1.543930 1_555
O15 P9 1.559390 1_555
O16 P10 1.543646 1_555
O17 P11 1.554809 1_555
O18 P11 1.536738 1_555
O18 Sn0 2.029019 1_554
O19 P9 1.554293 1_555
O19 Sn0 2.050845 1_554
O20 P10 1.550337 1_555
O20 Sn0 2.039691 1_554
O21 P7 1.541416 1_555
O21 Sn1 2.029108 1_555
O22 P8 1.551676 1_555
O22 Sn1 2.045425 1_555
O23 P6 1.555804 1_555
O23 Sn1 2.058419 1_555
O24 P12 1.544928 1_555
O25 P13 1.544419 1_555
O26 P14 1.531061 1_555
O27 P15 1.546809 1_555
O28 P16 1.530927 1_555
O29 P17 1.546178 1_555
O30 P17 1.552514 1_555
O31 P15 1.552006 1_555
O32 P16 1.555533 1_555
O33 P13 1.564226 1_555
O33 Sn2 2.021358 1_555
O34 P14 1.552367 1_555
O34 Sn2 1.978557 1_555
O35 P12 1.563660 1_555
O35 Sn2 2.022741 1_555
O36 P17 1.535606 1_555
O37 P15 1.535898 1_555
O38 P16 1.536044 1_555
O39 P13 1.525281 1_555
O40 P14 1.526302 1_555
O41 P12 1.526193 1_555
O42 P6 1.542713 1_555
O43 P7 1.543916 1_555
O44 P8 1.560845 1_555
O45 P9 1.539414 1_555
O46 P10 1.558368 1_555
O47 P11 1.540441 1_555
O48 P5 1.546110 1_555
O49 P3 1.545763 1_555
O50 P4 1.565291 1_555
O51 P1 1.568329 1_555
O52 P2 1.567980 1_655
O53 P0 1.568438 1_555
O54 P12 1.553992 1_555
O54 Sn0 2.039649 1_555
O55 P13 1.555132 1_655
O55 Sn0 2.040364 1_555
O56 P14 1.554301 1_545
O56 Sn0 2.026660 1_555
O57 P15 1.563295 1_545
O57 Sn1 2.055325 1_555
O58 P16 1.564254 1_555
O58 Sn1 2.047622 1_555
O59 P17 1.563943 1_655
O59 Sn1 2.054000 1_555
O60 P11 1.560575 1_555
O61 P9 1.542789 1_455
O62 P10 1.543137 1_565
O63 P7 1.561739 1_565
O64 P8 1.544423 1_555
O65 P6 1.543780 1_455
O66 P0 1.560534 1_565
O67 P1 1.559881 1_555
O68 P2 1.559908 1_555
O69 P3 1.599281 1_555
O69 Sn2 2.120532 1_555
O70 P4 1.572378 1_455
O70 Sn2 2.077591 1_555
O71 P5 1.571807 1_565
O71 Sn2 2.079207 1_555
