# generated using pymatgen
data_U2Mn3Si5
_symmetry_space_group_name_H-M   'P 1'
_cell_length_a   10.57952925
_cell_length_b   10.57937845
_cell_length_c   5.39089570
_cell_angle_alpha   90.00000000
_cell_angle_beta   90.00000000
_cell_angle_gamma   90.00009521
_symmetry_Int_Tables_number   1
_chemical_formula_structural   U2Mn3Si5
_chemical_formula_sum   'U8 Mn12 Si20'
_cell_volume   603.37515894
_cell_formula_units_Z   4
loop_
 _symmetry_equiv_pos_site_id
 _symmetry_equiv_pos_as_xyz
  1  'x, y, z'
loop_
 _atom_site_type_symbol
 _atom_site_label
 _atom_site_symmetry_multiplicity
 _atom_site_fract_x
 _atom_site_fract_y
 _atom_site_fract_z
 _atom_site_occupancy
  U  U0  1  0.42820558  0.26519523  0.50000000  1
  U  U1  1  0.57179442  0.73480477  0.50000000  1
  U  U2  1  0.73492299  0.42822925  0.50000000  1
  U  U3  1  0.26507701  0.57177075  0.50000000  1
  U  U4  1  0.76528242  0.92828530  0.00000000  1
  U  U5  1  0.92830717  0.23481501  0.00000000  1
  U  U6  1  0.07169283  0.76518499  0.00000000  1
  U  U7  1  0.23471758  0.07171470  0.00000000  1
  Mn  Mn0  1  0.37677439  0.64089559  0.00000000  1
  Mn  Mn1  1  0.50000000  -0.00000000  0.74994486  1
  Mn  Mn2  1  0.00000000  0.50000000  0.25000348  1
  Mn  Mn3  1  0.50000000  -0.00000000  0.25005514  1
  Mn  Mn4  1  0.12313333  0.14089210  0.50000000  1
  Mn  Mn5  1  0.87686667  0.85910790  0.50000000  1
  Mn  Mn6  1  0.85913747  0.12321567  0.50000000  1
  Mn  Mn7  1  0.14086253  0.87678433  0.50000000  1
  Mn  Mn8  1  0.64093033  0.62313003  0.00000000  1
  Mn  Mn9  1  0.62322561  0.35910441  0.00000000  1
  Mn  Mn10  1  0.35906967  0.37686997  0.00000000  1
  Mn  Mn11  1  0.00000000  0.50000000  0.74999652  1
  Si  Si0  1  0.31488506  0.02052453  0.50000000  1
  Si  Si1  1  0.68511494  0.97947547  0.50000000  1
  Si  Si2  1  0.97951240  0.31496708  0.50000000  1
  Si  Si3  1  0.02048760  0.68503292  0.50000000  1
  Si  Si4  1  0.52053945  0.81493638  0.00000000  1
  Si  Si5  1  0.81502300  0.47948287  0.00000000  1
  Si  Si6  1  0.18497700  0.52051713  0.00000000  1
  Si  Si7  1  0.47946055  0.18506362  0.00000000  1
  Si  Si8  1  0.50000000  0.50000000  0.76144115  1
  Si  Si9  1  0.00000000  -0.00000000  0.73851110  1
  Si  Si10  1  0.50000000  0.50000000  0.23855885  1
  Si  Si11  1  0.00000000  -0.00000000  0.26148890  1
  Si  Si12  1  0.67648739  0.17646784  0.75000038  1
  Si  Si13  1  0.17643311  0.32354593  0.75001279  1
  Si  Si14  1  0.82356689  0.67645407  0.75001279  1
  Si  Si15  1  0.67648739  0.17646784  0.24999962  1
  Si  Si16  1  0.32351261  0.82353216  0.24999962  1
  Si  Si17  1  0.82356689  0.67645407  0.24998721  1
  Si  Si18  1  0.17643311  0.32354593  0.24998721  1
  Si  Si19  1  0.32351261  0.82353216  0.75000038  1
loop_
_geom_bond_atom_site_label_1
_geom_bond_atom_site_label_2
_geom_bond_distance
_geom_bond_site_symmetry_2
Mn0 Si8 2.361213 1_554
Mn0 Si10 2.361213 1_555
Mn0 Si4 2.388202 1_555
Mn0 Si6 2.395667 1_555
Mn0 Si16 2.422230 1_555
Mn0 Si19 2.422230 1_554
Mn0 U3 3.032600 1_555
Mn0 U3 3.032600 1_554
Mn1 Si7 2.386962 1_556
Mn1 Si4 2.386962 1_546
Mn1 Si1 2.387080 1_545
Mn1 Si0 2.387080 1_555
Mn1 Si12 2.640387 1_555
Mn1 Si19 2.640387 1_545
Mn1 U0 3.203729 1_555
Mn1 U1 3.203729 1_545
Mn1 U7 3.204619 1_556
Mn1 U4 3.204619 1_546
Mn2 Si5 2.386054 1_455
Mn2 Si6 2.386054 1_555
Mn2 Si3 2.386467 1_555
Mn2 Si2 2.386467 1_455
Mn2 Si17 2.639882 1_455
Mn2 Si18 2.639882 1_555
Mn2 U2 3.202722 1_455
Mn2 U3 3.202722 1_555
Mn2 U6 3.203510 1_555
Mn2 U5 3.203510 1_455
Mn3 Si4 2.386962 1_545
Mn3 Si7 2.386962 1_555
Mn3 Si1 2.387080 1_545
Mn3 Si0 2.387080 1_555
Mn3 Si15 2.640387 1_555
Mn3 Si16 2.640387 1_545
Mn3 U0 3.203729 1_555
Mn3 U1 3.203729 1_545
Mn3 U4 3.204619 1_545
Mn3 U7 3.204619 1_555
Mn4 Si9 2.360507 1_555
Mn4 Si11 2.360507 1_555
Mn4 Si2 2.387514 1_455
Mn4 Si0 2.395200 1_555
Mn4 Si18 2.422507 1_555
Mn4 Si13 2.422507 1_555
Mn4 U7 3.032269 1_555
Mn4 U7 3.032269 1_556
Mn5 Si9 2.360507 1_665
Mn5 Si11 2.360507 1_665
Mn5 Si3 2.387514 1_655
Mn5 Si1 2.395200 1_555
Mn5 Si14 2.422507 1_555
Mn5 Si17 2.422507 1_555
Mn5 U4 3.032269 1_556
Mn5 U4 3.032269 1_555
Mn6 Si11 2.360797 1_655
Mn6 Si9 2.360797 1_655
Mn6 Si1 2.387892 1_545
Mn6 Si2 2.395220 1_555
Mn6 Si15 2.422343 1_555
Mn6 Si12 2.422343 1_555
Mn6 U5 3.032306 1_556
Mn6 U5 3.032306 1_555
Mn7 Si11 2.360797 1_565
Mn7 Si9 2.360797 1_565
Mn7 Si0 2.387892 1_565
Mn7 Si3 2.395220 1_555
Mn7 Si16 2.422343 1_555
Mn7 Si19 2.422343 1_555
Mn7 U6 3.032306 1_555
Mn7 U6 3.032306 1_556
Mn8 Si8 2.360887 1_554
Mn8 Si10 2.360887 1_555
Mn8 Si5 2.387841 1_555
Mn8 Si4 2.395806 1_555
Mn8 Si17 2.422365 1_555
Mn8 Si14 2.422365 1_554
Mn8 U1 3.032532 1_555
Mn8 U1 3.032532 1_554
Mn9 Si8 2.361213 1_554
Mn9 Si10 2.361213 1_555
Mn9 Si7 2.388202 1_555
Mn9 Si5 2.395667 1_555
Mn9 Si12 2.422230 1_554
Mn9 Si15 2.422230 1_555
Mn9 U2 3.032600 1_555
Mn9 U2 3.032600 1_554
Mn10 Si8 2.360887 1_554
Mn10 Si10 2.360887 1_555
Mn10 Si6 2.387841 1_555
Mn10 Si7 2.395806 1_555
Mn10 Si13 2.422365 1_554
Mn10 Si18 2.422365 1_555
Mn10 U0 3.032532 1_555
Mn10 U0 3.032532 1_554
Mn11 Si5 2.386054 1_456
Mn11 Si6 2.386054 1_556
Mn11 Si2 2.386467 1_455
Mn11 Si3 2.386467 1_555
Mn11 Si14 2.639882 1_455
Mn11 Si13 2.639882 1_555
Mn11 U2 3.202722 1_455
Mn11 U3 3.202722 1_555
Mn11 U6 3.203510 1_556
Mn11 U5 3.203510 1_456
Si0 Si19 2.483544 1_545
Si0 Si16 2.483544 1_545
Si0 U0 2.852620 1_555
Si0 U7 2.877162 1_555
Si0 U7 2.877162 1_556
Si1 Si15 2.483544 1_565
Si1 Si12 2.483544 1_565
Si1 U1 2.852620 1_555
Si1 U4 2.877162 1_556
Si1 U4 2.877162 1_555
Si2 U2 2.851611 1_555
Si2 U5 2.877141 1_556
Si2 U5 2.877141 1_555
Si3 U3 2.851611 1_555
Si3 U6 2.877141 1_556
Si3 U6 2.877141 1_555
Si4 U4 2.853467 1_555
Si4 U1 2.877177 1_554
Si4 U1 2.877177 1_555
Si5 U5 2.852435 1_555
Si5 U2 2.877077 1_555
Si5 U2 2.877077 1_554
Si6 U6 2.852435 1_555
Si6 U3 2.877077 1_554
Si6 U3 2.877077 1_555
Si7 U7 2.853467 1_555
Si7 U0 2.877177 1_555
Si7 U0 2.877177 1_554
Si8 U0 2.955338 1_555
Si8 U1 2.955338 1_555
Si8 U3 2.956354 1_555
Si8 U2 2.956354 1_555
Si9 U7 2.954496 1_556
Si9 U4 2.954496 1_446
Si9 U5 2.955278 1_456
Si9 U6 2.955278 1_546
Si10 U0 2.955338 1_555
Si10 U1 2.955338 1_555
Si10 U3 2.956354 1_555
Si10 U2 2.956354 1_555
Si11 U4 2.954496 1_445
Si11 U7 2.954496 1_555
Si11 U5 2.955278 1_455
Si11 U6 2.955278 1_545
Si12 Si7 2.483860 1_556
Si12 Si15 2.695444 1_556
Si12 Si15 2.695452 1_555
Si12 U2 3.048390 1_555
Si12 U5 3.048769 1_556
Si12 U4 3.097211 1_546
Si12 U0 3.097914 1_555
Si13 Si2 2.482950 1_455
Si13 Si6 2.483285 1_556
Si13 Si18 2.695310 1_556
Si13 Si18 2.695586 1_555
Si13 U0 3.048373 1_555
Si13 U7 3.048682 1_556
Si13 U5 3.096494 1_456
Si13 U3 3.097134 1_555
Si14 Si3 2.482950 1_655
Si14 Si5 2.483285 1_556
Si14 Si17 2.695310 1_556
Si14 Si17 2.695586 1_555
Si14 U1 3.048373 1_555
Si14 U4 3.048682 1_556
Si14 U6 3.096494 1_656
Si14 U2 3.097134 1_555
Si15 Si7 2.483860 1_555
Si15 U2 3.048390 1_555
Si15 U5 3.048769 1_555
Si15 U4 3.097211 1_545
Si15 U0 3.097914 1_555
Si16 Si4 2.483860 1_555
Si16 Si19 2.695444 1_554
Si16 Si19 2.695452 1_555
Si16 U3 3.048390 1_555
Si16 U6 3.048769 1_555
Si16 U7 3.097211 1_565
Si16 U1 3.097914 1_555
Si17 Si3 2.482950 1_655
Si17 Si5 2.483285 1_555
Si17 U1 3.048373 1_555
Si17 U4 3.048682 1_555
Si17 U6 3.096494 1_655
Si17 U2 3.097134 1_555
Si18 Si2 2.482950 1_455
Si18 Si6 2.483285 1_555
Si18 U0 3.048373 1_555
Si18 U7 3.048682 1_555
Si18 U5 3.096494 1_455
Si18 U3 3.097134 1_555
Si19 Si4 2.483860 1_556
Si19 U3 3.048390 1_555
Si19 U6 3.048769 1_556
Si19 U7 3.097211 1_566
Si19 U1 3.097914 1_555
