# generated using pymatgen
data_Na2Ta3InSi4(SO12)2
_symmetry_space_group_name_H-M   'P 1'
_cell_length_a   8.86606844
_cell_length_b   8.90966215
_cell_length_c   22.96714072
_cell_angle_alpha   90.01226494
_cell_angle_beta   90.51925823
_cell_angle_gamma   119.83726965
_symmetry_Int_Tables_number   1
_chemical_formula_structural   Na2Ta3InSi4(SO12)2
_chemical_formula_sum   'Na6 Ta9 In3 Si12 S6 O72'
_cell_volume   1573.67635333
_cell_formula_units_Z   3
loop_
 _symmetry_equiv_pos_site_id
 _symmetry_equiv_pos_as_xyz
  1  'x, y, z'
loop_
 _atom_site_type_symbol
 _atom_site_label
 _atom_site_symmetry_multiplicity
 _atom_site_fract_x
 _atom_site_fract_y
 _atom_site_fract_z
 _atom_site_occupancy
  Na  Na0  1  0.97701550  0.97151208  0.49853267  1
  Na  Na1  1  0.00231259  0.99067323  0.99775452  1
  Na  Na2  1  0.65079283  0.31441214  0.83092718  1
  Na  Na3  1  0.67180382  0.31597378  0.32329568  1
  Na  Na4  1  0.31307820  0.64573827  0.15972982  1
  Na  Na5  1  0.35939684  0.66240195  0.66694041  1
  Ta  Ta0  1  0.00147835  0.00357776  0.35238985  1
  Ta  Ta1  1  0.00229025  0.01379253  0.85893419  1
  Ta  Ta2  1  0.98537159  0.99547941  0.64762554  1
  Ta  Ta3  1  0.02125753  0.01287272  0.14135778  1
  Ta  Ta4  1  0.66264796  0.34381698  0.97626649  1
  Ta  Ta5  1  0.67701883  0.34233745  0.47723046  1
  Ta  Ta6  1  0.32531684  0.66134234  0.01777040  1
  Ta  Ta7  1  0.32076761  0.67636978  0.31020153  1
  Ta  Ta8  1  0.33906458  0.66421487  0.81273765  1
  In  In0  1  0.64975746  0.33101778  0.69310726  1
  In  In1  1  0.67527348  0.33845274  0.18704630  1
  In  In2  1  0.35310154  0.68282206  0.51631691  1
  Si  Si0  1  0.29269099  0.00840644  0.24964776  1
  Si  Si1  1  0.00499887  0.29048675  0.24903393  1
  Si  Si2  1  0.28071078  0.28936393  0.75162038  1
  Si  Si3  1  0.70626045  0.99902059  0.75205888  1
  Si  Si4  1  0.66340591  0.62180995  0.58548599  1
  Si  Si5  1  0.95656438  0.62199730  0.08515777  1
  Si  Si6  1  0.38807093  0.34474822  0.08458307  1
  Si  Si7  1  0.62248577  0.67264311  0.91746974  1
  Si  Si8  1  0.04176614  0.38509237  0.91459021  1
  Si  Si9  1  0.33687996  0.95275289  0.91514047  1
  Si  Si10  1  0.62697060  0.95903504  0.41652083  1
  Si  Si11  1  0.04706128  0.67228465  0.41845707  1
  S  S0  1  0.70974435  0.71971211  0.25128140  1
  S  S1  1  0.00806457  0.72379650  0.75138246  1
  S  S2  1  0.95455370  0.32849438  0.58363660  1
  S  S3  1  0.37071806  0.04468193  0.58315235  1
  S  S4  1  0.66610540  0.03842061  0.08232802  1
  S  S5  1  0.33411818  0.37262828  0.41606269  1
  O  O0  1  0.18091766  0.00551828  0.30614354  1
  O  O1  1  0.81318285  0.81201351  0.30508474  1
  O  O2  1  0.99343557  0.17413425  0.30603791  1
  O  O3  1  0.17682948  0.17091613  0.80741159  1
  O  O4  1  0.99283808  0.81022926  0.80326963  1
  O  O5  1  0.82237011  0.00398077  0.80787270  1
  O  O6  1  0.79996958  0.96908873  0.69202834  1
  O  O7  1  0.16618651  0.18373404  0.69162836  1
  O  O8  1  0.01960344  0.82478220  0.69633578  1
  O  O9  1  0.78859599  0.81951278  0.19834452  1
  O  O10  1  0.01620851  0.18588116  0.19150524  1
  O  O11  1  0.17389030  0.97906894  0.19061958  1
  O  O12  1  0.87275834  0.34546662  0.63581270  1
  O  O13  1  0.47353046  0.11827499  0.63644465  1
  O  O14  1  0.65533692  0.51894715  0.64302985  1
  O  O15  1  0.89817805  0.51279958  0.14402342  1
  O  O16  1  0.63323577  0.10338828  0.13674038  1
  O  O17  1  0.48944342  0.37353068  0.14461788  1
  O  O18  1  0.47529631  0.30766184  0.02746779  1
  O  O19  1  0.83141090  0.51870863  0.02833110  1
  O  O20  1  0.69313241  0.14862028  0.03103200  1
  O  O21  1  0.46301076  0.14895271  0.53032780  1
  O  O22  1  0.68204817  0.51698660  0.52669681  1
  O  O23  1  0.84266991  0.30392614  0.52935020  1
  O  O24  1  0.53119471  0.69985530  0.97374324  1
  O  O25  1  0.16314329  0.47220390  0.97229807  1
  O  O26  1  0.30683567  0.83330350  0.97189277  1
  O  O27  1  0.57696850  0.84892256  0.47498691  1
  O  O28  1  0.29716328  0.43603013  0.46982907  1
  O  O29  1  0.15374708  0.70026600  0.47705778  1
  O  O30  1  0.13685261  0.63703128  0.36067015  1
  O  O31  1  0.49637685  0.85408382  0.36077735  1
  O  O32  1  0.36313340  0.48158069  0.36504969  1
  O  O33  1  0.13372703  0.50262466  0.85728003  1
  O  O34  1  0.36267062  0.85936780  0.85752147  1
  O  O35  1  0.50137957  0.63699732  0.85832655  1
  O  O36  1  0.01136889  0.83217095  0.40647457  1
  O  O37  1  0.82584299  0.00358853  0.40256201  1
  O  O38  1  0.18622124  0.19248804  0.40753884  1
  O  O39  1  0.02722957  0.19397602  0.91007677  1
  O  O40  1  0.16458508  0.97281672  0.90616024  1
  O  O41  1  0.81599820  0.83677093  0.90946075  1
  O  O42  1  0.96350089  0.16230964  0.58600689  1
  O  O43  1  0.19987210  0.04230067  0.58594103  1
  O  O44  1  0.84825677  0.81570620  0.58883167  1
  O  O45  1  0.96157632  0.81149287  0.09147490  1
  O  O46  1  0.82467093  0.01936058  0.08799242  1
  O  O47  1  0.18753567  0.16773522  0.08852019  1
  O  O48  1  0.70899948  0.17985970  0.74742581  1
  O  O49  1  0.47228699  0.31241489  0.75504584  1
  O  O50  1  0.85638429  0.54995828  0.74797717  1
  O  O51  1  0.69761676  0.55002664  0.25287588  1
  O  O52  1  0.83973395  0.31724090  0.25017000  1
  O  O53  1  0.47924898  0.17682681  0.24980253  1
  O  O54  1  0.63562204  0.49608791  0.92409948  1
  O  O55  1  0.84972412  0.35808985  0.92468938  1
  O  O56  1  0.50751833  0.14219059  0.92592751  1
  O  O57  1  0.63357408  0.14732653  0.42632245  1
  O  O58  1  0.49182246  0.35080497  0.42331970  1
  O  O59  1  0.85062765  0.49480966  0.42536332  1
  O  O60  1  0.35494174  0.50733632  0.07350342  1
  O  O61  1  0.15759880  0.66703631  0.07194793  1
  O  O62  1  0.51592177  0.86091532  0.07389873  1
  O  O63  1  0.33628271  0.86586595  0.57905002  1
  O  O64  1  0.49550155  0.64722661  0.58124458  1
  O  O65  1  0.12804472  0.47447950  0.57584722  1
  O  O66  1  0.30017107  0.82470011  0.25613687  1
  O  O67  1  0.53487357  0.70322228  0.25794917  1
  O  O68  1  0.19042630  0.47511696  0.25927991  1
  O  O69  1  0.28299191  0.47482336  0.75437852  1
  O  O70  1  0.17211327  0.71812379  0.75191415  1
  O  O71  1  0.51512650  0.82422699  0.75542627  1
loop_
_geom_bond_atom_site_label_1
_geom_bond_atom_site_label_2
_geom_bond_distance
_geom_bond_site_symmetry_2
Na0 O44 2.449200 1_555
Na0 O36 2.547779 1_655
Na0 O43 2.649428 1_665
Na0 O37 2.657885 1_565
Na0 O42 2.673193 1_565
Na0 O38 2.849978 1_665
Na1 O41 2.530868 1_455
Na1 O45 2.598861 1_456
Na1 O40 2.608272 1_555
Na1 O47 2.624847 1_566
Na1 O39 2.645048 1_565
Na1 O46 2.701980 1_466
Na2 O49 2.337589 1_555
Na2 O48 2.452339 1_555
Na2 O56 2.615499 1_555
Na2 O55 2.673457 1_555
Na2 O54 2.727223 1_555
Na2 O50 2.759429 1_555
Na3 O52 2.250817 1_555
Na3 O53 2.267469 1_555
Na3 O51 2.559303 1_555
Na3 O57 2.735137 1_555
Na3 O59 2.822241 1_555
Na3 O58 2.911871 1_555
Na4 O60 2.459254 1_555
Na4 O61 2.492185 1_555
Na4 O68 2.668819 1_555
Na4 O62 2.725951 1_555
Na4 O66 2.764561 1_555
Na4 O67 2.852171 1_555
Na5 O64 2.356585 1_555
Na5 O71 2.466221 1_555
Na5 O69 2.486849 1_555
Na5 O70 2.773268 1_555
Na5 O63 2.786875 1_555
Na5 O65 2.809108 1_555
In0 O14 2.012030 1_555
In0 O49 2.075591 1_555
In0 O48 2.082970 1_555
In0 O13 2.177778 1_555
In0 O50 2.269471 1_555
In0 O12 2.334778 1_555
In1 O17 2.060387 1_555
In1 O15 2.067921 1_555
In1 O52 2.121244 1_555
In1 O53 2.174291 1_555
In1 O16 2.252670 1_555
In1 O51 2.345277 1_555
In2 O27 2.035321 1_555
In2 O29 2.050783 1_555
In2 O64 2.069481 1_555
In2 O63 2.236677 1_555
In2 O28 2.263858 1_555
In2 O65 2.379369 1_555
O0 Si0 1.632267 1_555
O0 Ta0 1.913831 1_555
O1 S0 1.507607 1_555
O1 Ta0 2.002876 1_665
O2 Si1 1.642099 1_655
O2 Ta0 1.885398 1_655
O3 Si2 1.630542 1_555
O3 Ta1 1.906028 1_555
O4 S1 1.461978 1_655
O4 Ta1 2.185573 1_665
O5 Si3 1.623485 1_545
O5 Ta1 1.937744 1_655
O6 Si3 1.703931 1_555
O6 Ta2 1.855588 1_555
O7 Si2 1.684744 1_555
O7 Ta2 1.923248 1_445
O8 S1 1.526308 1_555
O8 Ta2 2.027452 1_455
O9 S0 1.467954 1_555
O9 Ta3 2.334470 1_665
O10 Si1 1.648721 1_555
O10 Ta3 1.942528 1_555
O11 Si0 1.647939 1_565
O11 Ta3 1.892098 1_565
O12 S2 1.452444 1_555
O13 S3 1.464115 1_555
O14 Si4 1.590190 1_555
O15 Si5 1.598268 1_555
O16 S4 1.468289 1_555
O17 Si6 1.588321 1_555
O18 Si6 1.643313 1_555
O18 Ta4 1.936208 1_554
O19 Si5 1.654893 1_555
O19 Ta4 1.934809 1_554
O20 S4 1.476789 1_555
O20 Ta4 2.267650 1_554
O21 S3 1.505522 1_555
O21 Ta5 2.201306 1_555
O22 Si4 1.696987 1_555
O22 Ta5 1.908751 1_555
O23 S2 1.532265 1_555
O23 Ta5 2.043403 1_555
O24 Si7 1.611956 1_555
O24 Ta6 1.970379 1_556
O25 Si8 1.630857 1_555
O25 Ta6 1.886485 1_556
O26 Si9 1.620906 1_555
O26 Ta6 1.931796 1_556
O27 Si10 1.593957 1_555
O28 S5 1.463741 1_555
O29 Si11 1.584424 1_555
O30 Si11 1.661829 1_555
O30 Ta7 1.894994 1_555
O31 Si10 1.658116 1_555
O31 Ta7 1.947766 1_555
O32 S5 1.462413 1_555
O32 Ta7 2.319690 1_555
O33 Si8 1.632270 1_555
O33 Ta8 1.964668 1_555
O34 Si9 1.640161 1_555
O34 Ta8 1.938605 1_555
O35 Si7 1.653160 1_555
O35 Ta8 1.883127 1_555
O36 Si11 1.628600 1_555
O36 Ta0 2.003758 1_565
O37 Si10 1.638021 1_545
O37 Ta0 1.945597 1_655
O38 S5 1.494904 1_555
O38 Ta0 2.082853 1_555
O39 Si8 1.645639 1_555
O39 Ta1 1.909728 1_555
O40 Si9 1.635244 1_555
O40 Ta1 1.968462 1_565
O41 Si7 1.620222 1_555
O41 Ta1 2.001393 1_665
O42 S2 1.522634 1_555
O42 Ta2 2.128972 1_545
O43 S3 1.506236 1_555
O43 Ta2 2.248891 1_445
O44 Si4 1.690161 1_555
O44 Ta2 1.974458 1_555
O45 Si5 1.672915 1_555
O45 Ta3 1.963467 1_665
O46 S4 1.502146 1_555
O46 Ta3 2.145926 1_655
O47 Si6 1.693918 1_555
O47 Ta3 1.886488 1_555
O48 Si3 1.602845 1_545
O49 Si2 1.607425 1_555
O50 S1 1.462510 1_655
O51 S0 1.461814 1_555
O52 Si1 1.597718 1_655
O53 Si0 1.586717 1_555
O54 Si7 1.641132 1_555
O54 Ta4 1.911147 1_555
O55 Si8 1.615640 1_655
O55 Ta4 1.999061 1_555
O56 Si9 1.628213 1_545
O56 Ta4 1.991776 1_555
O57 Si10 1.664439 1_545
O57 Ta5 1.964504 1_555
O58 S5 1.512255 1_555
O58 Ta5 2.078767 1_555
O59 Si11 1.680306 1_655
O59 Ta5 1.893924 1_555
O60 Si6 1.634529 1_555
O60 Ta6 1.985829 1_555
O61 Si5 1.651698 1_455
O61 Ta6 1.967386 1_555
O62 S4 1.487069 1_565
O62 Ta6 2.156106 1_555
O63 S3 1.468244 1_565
O64 Si4 1.615452 1_555
O65 S2 1.450528 1_455
O66 Si0 1.677360 1_565
O66 Ta7 1.886395 1_555
O67 S0 1.492138 1_555
O67 Ta7 2.165733 1_555
O68 Si1 1.663100 1_555
O68 Ta7 1.957320 1_555
O69 Si2 1.643612 1_555
O69 Ta8 2.010779 1_555
O70 S1 1.480205 1_555
O70 Ta8 2.245753 1_555
O71 Si3 1.636869 1_555
O71 Ta8 2.006319 1_555
