# generated using pymatgen
data_BeH8(NF2)2
_symmetry_space_group_name_H-M   'P 1'
_cell_length_a   5.84346427
_cell_length_b   10.45872783
_cell_length_c   15.03495603
_cell_angle_alpha   90.00000000
_cell_angle_beta   90.00000000
_cell_angle_gamma   90.00000000
_symmetry_Int_Tables_number   1
_chemical_formula_structural   BeH8(NF2)2
_chemical_formula_sum   'Be8 H64 N16 F32'
_cell_volume   918.86438061
_cell_formula_units_Z   8
loop_
 _symmetry_equiv_pos_site_id
 _symmetry_equiv_pos_as_xyz
  1  'x, y, z'
loop_
 _atom_site_type_symbol
 _atom_site_label
 _atom_site_symmetry_multiplicity
 _atom_site_fract_x
 _atom_site_fract_y
 _atom_site_fract_z
 _atom_site_occupancy
  Be  Be0  1  0.26060720  0.41657877  0.50329362  1
  Be  Be1  1  0.25634038  0.08238493  0.25316437  1
  Be  Be2  1  0.75634038  0.58238493  0.24683563  1
  Be  Be3  1  0.24365962  0.08238493  0.75316437  1
  Be  Be4  1  0.76060720  0.91657877  0.99670638  1
  Be  Be5  1  0.23939280  0.41657877  0.00329362  1
  Be  Be6  1  0.73939280  0.91657877  0.49670638  1
  Be  Be7  1  0.74365962  0.58238493  0.74683563  1
  H  H0  1  0.85009286  0.18425229  0.70324874  1
  H  H1  1  0.14990714  0.68425229  0.29675126  1
  H  H2  1  0.64990714  0.18425229  0.20324874  1
  H  H3  1  0.35009286  0.68425229  0.79675126  1
  H  H4  1  0.57637773  0.17744752  0.66575170  1
  H  H5  1  0.42362227  0.67744752  0.33424830  1
  H  H6  1  0.92362227  0.17744752  0.16575170  1
  H  H7  1  0.07637773  0.67744752  0.83424830  1
  H  H8  1  0.78851143  0.14929528  0.59461086  1
  H  H9  1  0.21148857  0.64929528  0.40538914  1
  H  H10  1  0.71148857  0.14929528  0.09461086  1
  H  H11  1  0.28851143  0.64929528  0.90538914  1
  H  H12  1  0.74478857  0.29651193  0.63398758  1
  H  H13  1  0.25521143  0.79651193  0.36601242  1
  H  H14  1  0.75521143  0.29651193  0.13398758  1
  H  H15  1  0.24478857  0.79651193  0.86601242  1
  H  H16  1  0.90191194  0.92292793  0.78076431  1
  H  H17  1  0.09808806  0.42292793  0.21923569  1
  H  H18  1  0.59808806  0.92292793  0.28076431  1
  H  H19  1  0.40191194  0.42292793  0.71923569  1
  H  H20  1  0.63029339  0.97571950  0.79418559  1
  H  H21  1  0.36970661  0.47571950  0.20581441  1
  H  H22  1  0.86970661  0.97571950  0.29418559  1
  H  H23  1  0.13029339  0.47571950  0.70581441  1
  H  H24  1  0.70368746  0.82507383  0.82164382  1
  H  H25  1  0.29631254  0.32507383  0.17835618  1
  H  H26  1  0.79631254  0.82507383  0.32164382  1
  H  H27  1  0.20368746  0.32507383  0.67835618  1
  H  H28  1  0.69561981  0.86877788  0.71351465  1
  H  H29  1  0.78364056  0.68053139  0.06504413  1
  H  H30  1  0.30438019  0.36877788  0.28648535  1
  H  H31  1  0.19561981  0.36877788  0.78648535  1
  H  H32  1  0.90058952  0.31308811  0.91422893  1
  H  H33  1  0.09941048  0.81308811  0.08577107  1
  H  H34  1  0.59941048  0.31308811  0.41422893  1
  H  H35  1  0.40058952  0.81308811  0.58577107  1
  H  H36  1  0.62878564  0.31930805  0.95409329  1
  H  H37  1  0.37121436  0.81930805  0.04590671  1
  H  H38  1  0.87121436  0.31930805  0.45409329  1
  H  H39  1  0.12878564  0.81930805  0.54590671  1
  H  H40  1  0.69266008  0.35592238  0.84558056  1
  H  H41  1  0.30733992  0.85592238  0.15441944  1
  H  H42  1  0.80733992  0.35592238  0.34558056  1
  H  H43  1  0.19266008  0.85592238  0.65441944  1
  H  H44  1  0.70539842  0.20570144  0.88130400  1
  H  H45  1  0.29460158  0.70570144  0.11869600  1
  H  H46  1  0.79460158  0.20570144  0.38130400  1
  H  H47  1  0.20539842  0.70570144  0.61869600  1
  H  H48  1  0.85872215  0.52658618  0.04568578  1
  H  H49  1  0.14127785  0.02658618  0.95431422  1
  H  H50  1  0.64127785  0.52658618  0.54568578  1
  H  H51  1  0.35872215  0.02658618  0.45431422  1
  H  H52  1  0.58576567  0.57646276  0.03189889  1
  H  H53  1  0.41423433  0.07646276  0.96810111  1
  H  H54  1  0.91423433  0.57646276  0.53189889  1
  H  H55  1  0.08576567  0.07646276  0.46810111  1
  H  H56  1  0.28381100  0.12327158  0.54012962  1
  H  H57  1  0.71618900  0.62327158  0.45987038  1
  H  H58  1  0.21618900  0.12327158  0.04012962  1
  H  H59  1  0.78381100  0.62327158  0.95987038  1
  H  H60  1  0.28364056  0.18053139  0.43495587  1
  H  H61  1  0.71635944  0.68053139  0.56504413  1
  H  H62  1  0.21635944  0.18053139  0.93495587  1
  H  H63  1  0.80438019  0.86877788  0.21351465  1
  N  N0  1  0.75530220  0.60186784  0.02591532  1
  N  N1  1  0.26926994  0.79863287  0.10036100  1
  N  N2  1  0.76926994  0.29863287  0.39963900  1
  N  N3  1  0.23141473  0.39785330  0.72253696  1
  N  N4  1  0.73073006  0.29863287  0.89963900  1
  N  N5  1  0.24469780  0.10186784  0.97408468  1
  N  N6  1  0.74469780  0.60186784  0.52591532  1
  N  N7  1  0.25530220  0.10186784  0.47408468  1
  N  N8  1  0.76858527  0.89785330  0.27746304  1
  N  N9  1  0.26858527  0.39785330  0.22253696  1
  N  N10  1  0.73141473  0.89785330  0.77746304  1
  N  N11  1  0.24222869  0.70176034  0.84996826  1
  N  N12  1  0.75777131  0.20176034  0.15003174  1
  N  N13  1  0.25777131  0.70176034  0.34996826  1
  N  N14  1  0.23073006  0.79863287  0.60036100  1
  N  N15  1  0.74222869  0.20176034  0.65003174  1
  F  F0  1  0.46587832  0.10968081  0.80677370  1
  F  F1  1  0.30215030  0.93556690  0.25287904  1
  F  F2  1  0.80215030  0.43556690  0.24712096  1
  F  F3  1  0.19784970  0.93556690  0.75287904  1
  F  F4  1  0.69784970  0.43556690  0.74712096  1
  F  F5  1  0.21541187  0.13162171  0.15607939  1
  F  F6  1  0.71541187  0.63162171  0.34392061  1
  F  F7  1  0.28458813  0.13162171  0.65607939  1
  F  F8  1  0.98085014  0.89049140  0.94242080  1
  F  F9  1  0.01914986  0.39049140  0.05757920  1
  F  F10  1  0.51914986  0.89049140  0.44242080  1
  F  F11  1  0.48085014  0.39049140  0.55757920  1
  F  F12  1  0.54754870  0.84855995  0.95734541  1
  F  F13  1  0.45245130  0.34855995  0.04265459  1
  F  F14  1  0.95245130  0.84855995  0.45734541  1
  F  F15  1  0.04754870  0.34855995  0.54265459  1
  F  F16  1  0.71166345  0.06306338  -0.00147148  1
  F  F17  1  0.28833655  0.56306338  0.00147148  1
  F  F18  1  0.78833655  0.06306338  0.49852852  1
  F  F19  1  0.21166345  0.56306338  0.50147148  1
  F  F20  1  0.80140713  0.86296108  0.09291854  1
  F  F21  1  0.19859287  0.36296108  0.90708146  1
  F  F22  1  0.69859287  0.86296108  0.59291854  1
  F  F23  1  0.30140713  0.36296108  0.40708146  1
  F  F24  1  0.53412168  0.60968081  0.19322630  1
  F  F25  1  0.03412168  0.10968081  0.30677370  1
  F  F26  1  0.96587832  0.60968081  0.69322630  1
  F  F27  1  0.03052648  0.15090068  0.79093415  1
  F  F28  1  0.96947352  0.65090068  0.20906585  1
  F  F29  1  0.46947352  0.15090068  0.29093415  1
  F  F30  1  0.53052648  0.65090068  0.70906585  1
  F  F31  1  0.78458813  0.63162171  0.84392061  1
loop_
_geom_bond_atom_site_label_1
_geom_bond_atom_site_label_2
_geom_bond_distance
_geom_bond_site_symmetry_2
Be0 F11 1.548198 1_555
Be0 F15 1.551231 1_555
Be0 F19 1.558750 1_555
Be0 F23 1.569650 1_555
Be1 F29 1.545018 1_555
Be1 F25 1.554776 1_555
Be1 F1 1.558694 1_545
Be1 F5 1.566209 1_555
Be2 F28 1.545018 1_555
Be2 F24 1.554776 1_555
Be2 F2 1.558694 1_555
Be2 F6 1.566209 1_555
Be3 F27 1.545018 1_555
Be3 F0 1.554776 1_555
Be3 F3 1.558694 1_545
Be3 F7 1.566209 1_555
Be4 F8 1.548198 1_555
Be4 F12 1.551231 1_555
Be4 F16 1.558750 1_566
Be4 F20 1.569650 1_556
Be5 F9 1.548198 1_555
Be5 F13 1.551231 1_555
Be5 F17 1.558750 1_555
Be5 F21 1.569650 1_554
Be6 F10 1.548198 1_555
Be6 F14 1.551231 1_555
Be6 F18 1.558750 1_565
Be6 F22 1.569650 1_555
Be7 F30 1.545018 1_555
Be7 F26 1.554776 1_555
Be7 F4 1.558694 1_555
Be7 F31 1.566209 1_555
H0 N15 1.034888 1_555
H1 N13 1.034888 1_555
H2 N12 1.034888 1_555
H3 N11 1.034888 1_555
H4 N15 1.029447 1_555
H5 N13 1.029447 1_555
H6 N12 1.029447 1_555
H7 N11 1.029447 1_555
H8 N15 1.033703 1_555
H9 N13 1.033703 1_555
H10 N12 1.033703 1_555
H11 N11 1.033703 1_555
H12 N15 1.020027 1_555
H13 N13 1.020027 1_555
H14 N12 1.020027 1_555
H15 N11 1.020027 1_555
H16 N10 1.031426 1_555
H17 N9 1.031426 1_555
H18 N8 1.031426 1_555
H19 N3 1.031426 1_555
H20 N10 1.037108 1_555
H21 N9 1.037108 1_555
H22 N8 1.037108 1_555
H23 N3 1.037108 1_555
H24 N10 1.023173 1_555
H25 N9 1.023173 1_555
H26 N8 1.023173 1_555
H27 N3 1.023173 1_555
H28 N10 1.029869 1_555
H29 N0 1.024884 1_555
H30 N9 1.029869 1_555
H31 N3 1.029869 1_555
H32 N4 1.027699 1_555
H33 N1 1.027699 1_555
H34 N2 1.027699 1_555
H35 N14 1.027699 1_555
H36 N4 1.035338 1_555
H37 N1 1.035338 1_555
H38 N2 1.035338 1_555
H39 N14 1.035338 1_555
H40 N4 1.033968 1_555
H41 N1 1.033968 1_555
H42 N2 1.033968 1_555
H43 N14 1.033968 1_555
H44 N4 1.021068 1_555
H45 N1 1.021068 1_555
H46 N2 1.021068 1_555
H47 N14 1.021068 1_555
H48 N0 1.036095 1_555
H49 N5 1.036095 1_555
H50 N6 1.036095 1_555
H51 N7 1.036095 1_555
H52 N0 1.029631 1_555
H53 N5 1.029631 1_555
H54 N6 1.029631 1_555
H55 N7 1.029631 1_555
H56 N7 1.031445 1_555
H57 N6 1.031445 1_555
H58 N5 1.031445 1_554
H59 N0 1.031445 1_556
H60 N7 1.024884 1_555
H61 N6 1.024884 1_555
H62 N5 1.024884 1_555
H63 N8 1.029869 1_555
