# generated using pymatgen
data_Na2TiSiGe(PO6)2
_symmetry_space_group_name_H-M   'P 1'
_cell_length_a   8.64497188
_cell_length_b   8.64717148
_cell_length_c   21.81668035
_cell_angle_alpha   89.93023436
_cell_angle_beta   90.25347512
_cell_angle_gamma   119.82344809
_symmetry_Int_Tables_number   1
_chemical_formula_structural   Na2TiSiGe(PO6)2
_chemical_formula_sum   'Na12 Ti6 Si6 Ge6 P12 O72'
_cell_volume   1414.88882219
_cell_formula_units_Z   6
loop_
 _symmetry_equiv_pos_site_id
 _symmetry_equiv_pos_as_xyz
  1  'x, y, z'
loop_
 _atom_site_type_symbol
 _atom_site_label
 _atom_site_symmetry_multiplicity
 _atom_site_fract_x
 _atom_site_fract_y
 _atom_site_fract_z
 _atom_site_occupancy
  Na  Na0  1  0.00131175  0.63951835  0.24986332  1
  Na  Na1  1  0.36626541  0.00060851  0.75107711  1
  Na  Na2  1  0.66559990  0.96597575  0.58507465  1
  Na  Na3  1  0.03515132  0.33085078  0.08504359  1
  Na  Na4  1  0.96892138  0.66901094  0.91870914  1
  Na  Na5  1  0.33155100  0.03340589  0.41736861  1
  Na  Na6  1  0.00092911  0.99692125  0.50011109  1
  Na  Na7  1  0.00206370  0.99853759  0.00016915  1
  Na  Na8  1  0.66701231  0.33129818  0.83454410  1
  Na  Na9  1  0.66827396  0.33294195  0.33258298  1
  Na  Na10  1  0.35508092  0.67910975  0.16601780  1
  Na  Na11  1  0.32323337  0.64388594  0.66781139  1
  Ti  Ti0  1  0.99300366  0.00220590  0.35354631  1
  Ti  Ti1  1  0.00436320  0.00065266  0.64824580  1
  Ti  Ti2  1  0.99848572  0.99305796  0.14533946  1
  Ti  Ti3  1  0.67045195  0.32829233  0.69003132  1
  Ti  Ti4  1  0.66988025  0.34127286  0.47781286  1
  Ti  Ti5  1  0.32482408  0.66876005  0.52138722  1
  Si  Si0  1  0.00010874  0.29202281  0.24698068  1
  Si  Si1  1  0.71371129  0.99197434  0.75311463  1
  Si  Si2  1  0.37392832  0.04779000  0.58223758  1
  Si  Si3  1  0.95080305  0.61732344  0.08041613  1
  Si  Si4  1  0.33868371  0.96082388  0.91607068  1
  Si  Si5  1  0.04155763  0.66261775  0.41259346  1
  Ge  Ge0  1  0.00439305  0.00791252  0.85585760  1
  Ge  Ge1  1  0.66820994  0.32897527  0.18516025  1
  Ge  Ge2  1  0.65960188  0.33049344  0.97894596  1
  Ge  Ge3  1  0.32943973  0.67329940  0.01948717  1
  Ge  Ge4  1  0.32838742  0.65867609  0.31144297  1
  Ge  Ge5  1  0.34171942  0.67388425  0.81493980  1
  P  P0  1  0.29947373  0.00740377  0.25047822  1
  P  P1  1  0.70383159  0.70851456  0.24961234  1
  P  P2  1  0.28423232  0.29379640  0.75383684  1
  P  P3  1  0.99904210  0.70997528  0.75511669  1
  P  P4  1  0.95568152  0.33541012  0.58388493  1
  P  P5  1  0.66718810  0.61808318  0.58492073  1
  P  P6  1  0.65728074  0.04373536  0.08158295  1
  P  P7  1  0.38811445  0.33919850  0.08229682  1
  P  P8  1  0.61577401  0.66718302  0.91808854  1
  P  P9  1  0.05105181  0.37961934  0.91739547  1
  P  P10  1  0.61688011  0.94725939  0.41574637  1
  P  P11  1  0.33364444  0.38519956  0.41493348  1
  O  O0  1  0.21769041  0.03239223  0.30940105  1
  O  O1  1  0.82920910  0.79018195  0.30555456  1
  O  O2  1  0.97170874  0.16422585  0.30591033  1
  O  O3  1  0.20794727  0.16647228  0.80958392  1
  O  O4  1  0.97285611  0.79306154  0.81417244  1
  O  O5  1  0.84239271  0.03039338  0.81193679  1
  O  O6  1  0.79804426  0.96631688  0.68982264  1
  O  O7  1  0.16893231  0.20593860  0.69625646  1
  O  O8  1  0.03961402  0.83711134  0.69985459  1
  O  O9  1  0.79356429  0.82478983  0.19289259  1
  O  O10  1  0.02640143  0.19944525  0.18632666  1
  O  O11  1  0.16871067  0.96499840  0.19588676  1
  O  O12  1  0.87078356  0.36212916  0.64194646  1
  O  O13  1  0.50068194  0.13737239  0.64315225  1
  O  O14  1  0.64637456  0.50534253  0.64142077  1
  O  O15  1  0.86784478  0.48939623  0.14125870  1
  O  O16  1  0.62051091  0.12130906  0.14008812  1
  O  O17  1  0.50362988  0.36981890  0.14005052  1
  O  O18  1  0.46494045  0.30043315  0.02455471  1
  O  O19  1  0.83335927  0.52982177  0.01822554  1
  O  O20  1  0.70079328  0.16882630  0.02577107  1
  O  O21  1  0.46556150  0.16013112  0.52022424  1
  O  O22  1  0.69357286  0.53166106  0.52665734  1
  O  O23  1  0.83645162  0.30480971  0.52754371  1
  O  O24  1  0.52915066  0.69766480  0.97489291  1
  O  O25  1  0.16089944  0.45487535  0.97734856  1
  O  O26  1  0.28205268  0.82003842  0.97310948  1
  O  O27  1  0.54061284  0.84341725  0.47575773  1
  O  O28  1  0.31070520  0.47323005  0.47196472  1
  O  O29  1  0.17363191  0.70070381  0.47209740  1
  O  O30  1  0.13000636  0.63442553  0.35055224  1
  O  O31  1  0.49235838  0.85749862  0.36005718  1
  O  O32  1  0.36689973  0.49738641  0.35625867  1
  O  O33  1  0.13837277  0.50769000  0.86263914  1
  O  O34  1  0.37142828  0.87769466  0.85322759  1
  O  O35  1  0.50098435  0.63046267  0.85991385  1
  O  O36  1  0.03132782  0.84548556  0.40928346  1
  O  O37  1  0.80174845  0.96471232  0.40941555  1
  O  O38  1  0.16705939  0.19719121  0.41031313  1
  O  O39  1  0.03405233  0.19451704  0.91168949  1
  O  O40  1  0.15214554  0.97417613  0.91051562  1
  O  O41  1  0.80547559  0.83324431  0.91362821  1
  O  O42  1  0.96755494  0.16417233  0.58877769  1
  O  O43  1  0.17834551  0.02486798  0.58962358  1
  O  O44  1  0.83274619  0.80641829  0.58865810  1
  O  O45  1  0.97369953  0.81462986  0.08839189  1
  O  O46  1  0.82739127  0.02841120  0.08775217  1
  O  O47  1  0.19844847  0.17478045  0.08836887  1
  O  O48  1  0.68547286  0.16763438  0.74763033  1
  O  O49  1  0.47057645  0.31389375  0.74633734  1
  O  O50  1  0.83341060  0.52874508  0.74733072  1
  O  O51  1  0.68586788  0.52217912  0.24246805  1
  O  O52  1  0.82213321  0.31675594  0.24354809  1
  O  O53  1  0.48012125  0.17732513  0.24136622  1
  O  O54  1  0.64105815  0.50082801  0.92187727  1
  O  O55  1  0.86492549  0.36499549  0.92091218  1
  O  O56  1  0.51659229  0.15690570  0.92344633  1
  O  O57  1  0.63313122  0.13244235  0.41883303  1
  O  O58  1  0.49668906  0.35757994  0.41901177  1
  O  O59  1  0.84872074  0.48644951  0.42029934  1
  O  O60  1  0.36922570  0.50837850  0.07683329  1
  O  O61  1  0.14914303  0.62929691  0.07619399  1
  O  O62  1  0.49168767  0.85781582  0.07464886  1
  O  O63  1  0.36393865  0.85272077  0.57904989  1
  O  O64  1  0.50139533  0.63953853  0.57939682  1
  O  O65  1  0.14161792  0.49917195  0.57846842  1
  O  O66  1  0.31991931  0.83896360  0.25427223  1
  O  O67  1  0.52228133  0.69771468  0.25697685  1
  O  O68  1  0.17802800  0.49279732  0.25251774  1
  O  O69  1  0.29173060  0.47389657  0.76090612  1
  O  O70  1  0.16886705  0.69180310  0.75850654  1
  O  O71  1  0.51095049  0.81531637  0.75656292  1
loop_
_geom_bond_atom_site_label_1
_geom_bond_atom_site_label_2
_geom_bond_distance
_geom_bond_site_symmetry_2
Na0 O51 2.395083 1_455
Na0 O66 2.417284 1_555
Na0 O68 2.423596 1_555
Na0 O52 2.430406 1_455
Na0 O30 2.468216 1_555
Na0 O15 2.669074 1_455
Na0 O1 2.708323 1_455
Na0 O11 2.712574 1_555
Na1 O70 2.353245 1_545
Na1 O49 2.394369 1_555
Na1 O48 2.396659 1_555
Na1 O71 2.477425 1_545
Na1 O34 2.477657 1_545
Na1 O13 2.635032 1_555
Na1 O8 2.688280 1_545
Na1 O3 2.744446 1_555
Na2 O63 2.287845 1_555
Na2 O42 2.303584 1_565
Na2 O44 2.445290 1_555
Na2 O64 2.451956 1_555
Na2 O6 2.550857 1_555
Na2 O27 2.612070 1_555
Na2 O13 2.820818 1_565
Na2 O23 2.836292 1_565
Na3 O61 2.267016 1_555
Na3 O46 2.323225 1_455
Na3 O47 2.390261 1_555
Na3 O10 2.467659 1_555
Na3 O60 2.514688 1_555
Na3 O25 2.590201 1_554
Na3 O15 2.732719 1_455
Na3 O20 2.816633 1_455
Na4 O40 2.312605 1_655
Na4 O55 2.317498 1_555
Na4 O41 2.453531 1_555
Na4 O54 2.460670 1_555
Na4 O19 2.479711 1_556
Na4 O4 2.512287 1_555
Na4 O26 2.626976 1_655
Na4 O33 2.764207 1_655
Na5 O36 2.282445 1_545
Na5 O57 2.304385 1_555
Na5 O58 2.432392 1_555
Na5 O38 2.460174 1_555
Na5 O21 2.509704 1_555
Na5 O0 2.547208 1_555
Na5 O29 2.768681 1_545
Na5 O31 2.816560 1_545
Na6 O43 2.414639 1_565
Na6 O36 2.462441 1_555
Na6 O44 2.488822 1_455
Na6 O42 2.518654 1_465
Na6 O38 2.538205 1_565
Na6 O37 2.540056 1_455
Na7 O40 2.418427 1_554
Na7 O45 2.429517 1_455
Na7 O41 2.461293 1_454
Na7 O39 2.491018 1_564
Na7 O47 2.512418 1_565
Na7 O46 2.532334 1_465
Na8 O56 2.406576 1_555
Na8 O48 2.420262 1_555
Na8 O55 2.457570 1_555
Na8 O54 2.483416 1_555
Na8 O50 2.485567 1_555
Na8 O49 2.515410 1_555
Na9 O52 2.402201 1_555
Na9 O59 2.403702 1_555
Na9 O57 2.472278 1_555
Na9 O58 2.478148 1_555
Na9 O53 2.493506 1_555
Na9 O51 2.512622 1_555
Na10 O67 2.407743 1_555
Na10 O62 2.440138 1_555
Na10 O68 2.462731 1_555
Na10 O66 2.477889 1_555
Na10 O60 2.483746 1_555
Na10 O61 2.530570 1_555
Na11 O65 2.419689 1_555
Na11 O69 2.441174 1_555
Na11 O71 2.483245 1_555
Na11 O64 2.485639 1_555
Na11 O70 2.538312 1_555
Na11 O63 2.549560 1_555
Ge0 O5 1.782073 1_455
Ge0 O40 1.869466 1_545
Ge0 O3 1.899520 1_555
Ge0 O39 1.934848 1_555
Ge0 O4 1.962428 1_445
Ge0 O41 2.063499 1_445
Ge1 O15 1.857492 1_555
Ge1 O52 1.878561 1_555
Ge1 O17 1.898471 1_555
Ge1 O16 1.904149 1_555
Ge1 O53 1.939084 1_555
Ge1 O51 2.031582 1_555
Ge2 O19 1.838089 1_556
Ge2 O56 1.842014 1_555
Ge2 O18 1.862446 1_556
Ge2 O20 1.900833 1_556
Ge2 O54 1.993476 1_555
Ge2 O55 2.082052 1_555
Ge3 O26 1.819852 1_554
Ge3 O61 1.879034 1_555
Ge3 O24 1.903748 1_554
Ge3 O62 1.930065 1_555
Ge3 O25 1.946941 1_554
Ge3 O60 2.048670 1_555
Ge4 O30 1.835212 1_555
Ge4 O32 1.862164 1_555
Ge4 O68 1.880132 1_555
Ge4 O31 1.912368 1_555
Ge4 O67 1.946648 1_555
Ge4 O66 2.024707 1_555
Ge5 O34 1.849641 1_555
Ge5 O71 1.868453 1_555
Ge5 O35 1.871029 1_555
Ge5 O33 1.933450 1_555
Ge5 O69 1.955531 1_555
Ge5 O70 1.996580 1_555
O0 P0 1.536146 1_555
O0 Ti0 2.068886 1_455
O1 P1 1.546649 1_555
O1 Ti0 1.967743 1_565
O2 Si0 1.632129 1_655
O2 Ti0 1.824306 1_555
O3 P2 1.551746 1_555
O4 P3 1.547261 1_555
O5 Si1 1.617277 1_545
O6 Si1 1.630323 1_555
O6 Ti1 1.891864 1_665
O7 P2 1.544932 1_555
O7 Ti1 1.936919 1_555
O8 P3 1.549892 1_455
O8 Ti1 1.944790 1_565
O9 P1 1.540654 1_555
O9 Ti2 1.944350 1_555
O10 Si0 1.621663 1_555
O10 Ti2 1.901699 1_445
O11 P0 1.551676 1_565
O11 Ti2 1.944403 1_455
O12 P4 1.540847 1_555
O12 Ti3 1.922698 1_555
O13 Si2 1.646890 1_555
O13 Ti3 1.872524 1_555
O14 P5 1.525369 1_555
O14 Ti3 1.955250 1_555
O15 Si3 1.647945 1_555
O16 P6 1.548528 1_555
O17 P7 1.543252 1_555
O18 P7 1.539576 1_555
O19 Si3 1.634142 1_555
O20 P6 1.546056 1_555
O21 Si2 1.625568 1_555
O21 Ti4 1.920559 1_555
O22 P5 1.549403 1_555
O22 Ti4 1.885422 1_555
O23 P4 1.536756 1_555
O23 Ti4 1.946055 1_555
O24 P8 1.539941 1_555
O25 P9 1.553219 1_555
O26 Si4 1.636808 1_555
O27 P10 1.539819 1_555
O27 Ti5 1.990578 1_555
O28 P11 1.523656 1_555
O28 Ti5 1.958120 1_555
O29 Si5 1.646601 1_555
O29 Ti5 1.813006 1_555
O30 Si5 1.634479 1_555
O31 P10 1.548234 1_555
O32 P11 1.544409 1_555
O33 P9 1.548094 1_555
O34 Si4 1.638536 1_555
O35 P8 1.540398 1_555
O36 Si5 1.628580 1_555
O36 Ti0 1.965698 1_465
O37 P10 1.535589 1_555
O37 Ti0 1.951457 1_565
O38 P11 1.548387 1_555
O38 Ti0 2.026297 1_455
O39 P9 1.537987 1_555
O40 Si4 1.676898 1_555
O41 P8 1.555527 1_555
O42 P4 1.537909 1_555
O42 Ti1 2.055056 1_655
O43 Si2 1.610302 1_555
O43 Ti1 1.909157 1_555
O44 P5 1.545381 1_555
O44 Ti1 2.054711 1_665
O45 Si3 1.626311 1_555
O45 Ti2 1.908795 1_555
O46 P6 1.546084 1_555
O46 Ti2 2.071724 1_545
O47 P7 1.552460 1_555
O47 Ti2 2.077195 1_445
O48 Si1 1.658097 1_545
O48 Ti3 1.923454 1_555
O49 P2 1.541395 1_555
O49 Ti3 2.077165 1_555
O50 P3 1.517092 1_555
O50 Ti3 2.027977 1_555
O51 P1 1.547943 1_555
O52 Si0 1.656763 1_655
O53 P0 1.535252 1_555
O54 P8 1.560831 1_555
O55 P9 1.552296 1_655
O56 Si4 1.634289 1_545
O57 P10 1.537815 1_545
O57 Ti4 2.109252 1_555
O58 P11 1.544464 1_555
O58 Ti4 2.024807 1_555
O59 Si5 1.613654 1_655
O59 Ti4 1.903549 1_555
O60 P7 1.555006 1_555
O61 Si3 1.668533 1_455
O62 P6 1.538293 1_565
O63 Si2 1.647094 1_565
O63 Ti5 1.921838 1_555
O64 P5 1.538222 1_555
O64 Ti5 2.088390 1_555
O65 P4 1.529781 1_455
O65 Ti5 1.978030 1_555
O66 P0 1.554098 1_565
O67 P1 1.534360 1_555
O68 Si0 1.654477 1_555
O69 P2 1.534090 1_555
O70 P3 1.553722 1_455
O71 Si1 1.658087 1_555
