# generated using pymatgen
data_Cs3H(SeO4)2
_symmetry_space_group_name_H-M   'P 1'
_cell_length_a   6.42977607
_cell_length_b   6.42977607
_cell_length_c   8.68068572
_cell_angle_alpha   71.30743741
_cell_angle_beta   71.30743741
_cell_angle_gamma   60.85276384
_symmetry_Int_Tables_number   1
_chemical_formula_structural   Cs3H(SeO4)2
_chemical_formula_sum   'Cs3 H1 Se2 O8'
_cell_volume   290.97913886
_cell_formula_units_Z   1
loop_
 _symmetry_equiv_pos_site_id
 _symmetry_equiv_pos_as_xyz
  1  'x, y, z'
loop_
 _atom_site_type_symbol
 _atom_site_label
 _atom_site_symmetry_multiplicity
 _atom_site_fract_x
 _atom_site_fract_y
 _atom_site_fract_z
 _atom_site_occupancy
  Cs  Cs0  1  0.80202800  0.80202800  0.60994900  1
  Cs  Cs1  1  0.19797200  0.19797200  0.39005100  1
  Cs  Cs2  1  0.00000000  0.00000000  0.00000000  1
  H  H0  1  0.50000000  0.50000000  0.00000000  1
  Se  Se0  1  0.57107400  0.57107400  0.23409900  1
  Se  Se1  1  0.42892600  0.42892600  0.76590100  1
  O  O0  1  0.71292300  0.71292300  0.25760600  1
  O  O1  1  0.28707700  0.28707700  0.74239400  1
  O  O2  1  0.60301100  0.60301100  0.02214200  1
  O  O3  1  0.39698900  0.39698900  0.97785800  1
  O  O4  1  0.27281600  0.69739100  0.30934600  1
  O  O5  1  0.30260900  0.72718400  0.69065400  1
  O  O6  1  0.72718400  0.30260900  0.69065400  1
  O  O7  1  0.69739100  0.27281600  0.30934600  1
loop_
_geom_bond_atom_site_label_1
_geom_bond_atom_site_label_2
_geom_bond_distance
_geom_bond_site_symmetry_2
Cs0 O7 3.240883 1_565
Cs0 O4 3.240883 1_655
Cs0 O6 3.286695 1_565
Cs0 O5 3.286695 1_655
Cs0 O6 3.298652 1_555
Cs0 O5 3.298652 1_555
Cs0 O2 3.435584 1_556
Cs0 O1 3.436673 1_655
Cs0 O1 3.436673 1_565
Cs0 O0 3.546486 1_555
Cs1 O5 3.240883 1_545
Cs1 O6 3.240883 1_455
Cs1 O7 3.286695 1_455
Cs1 O4 3.286695 1_545
Cs1 O7 3.298652 1_555
Cs1 O4 3.298652 1_555
Cs1 O3 3.435584 1_554
Cs1 O0 3.436673 1_545
Cs1 O0 3.436673 1_455
Cs1 O1 3.546486 1_555
Cs2 O1 3.137237 1_554
Cs2 O0 3.137237 1_445
Cs2 O4 3.227911 1_545
Cs2 O7 3.227911 1_455
Cs2 O5 3.227911 1_544
Cs2 O6 3.227911 1_454
H0 O2 1.226728 1_555
H0 O3 1.226728 1_554
O0 Se0 1.659589 1_555
O1 Se1 1.659589 1_555
O2 Se0 1.739656 1_555
O3 Se1 1.739656 1_555
O4 Se0 1.668502 1_555
O5 Se1 1.668502 1_555
O6 Se1 1.668502 1_555
O7 Se0 1.668502 1_555
