# generated using pymatgen
data_Na3Y2Ge2P5SO24
_symmetry_space_group_name_H-M   'P 1'
_cell_length_a   8.82716620
_cell_length_b   8.80585219
_cell_length_c   22.47073580
_cell_angle_alpha   90.25712898
_cell_angle_beta   90.08406054
_cell_angle_gamma   119.38694004
_symmetry_Int_Tables_number   1
_chemical_formula_structural   Na3Y2Ge2P5SO24
_chemical_formula_sum   'Na9 Y6 Ge6 P15 S3 O72'
_cell_volume   1521.88655537
_cell_formula_units_Z   3
loop_
 _symmetry_equiv_pos_site_id
 _symmetry_equiv_pos_as_xyz
  1  'x, y, z'
loop_
 _atom_site_type_symbol
 _atom_site_label
 _atom_site_symmetry_multiplicity
 _atom_site_fract_x
 _atom_site_fract_y
 _atom_site_fract_z
 _atom_site_occupancy
  Na  Na0  1  0.00595801  0.36012158  0.75065799  1
  Na  Na1  1  0.67131231  0.95326431  0.58320075  1
  Na  Na2  1  0.05012932  0.33046605  0.08332999  1
  Na  Na3  1  0.01403024  0.99499165  0.49435946  1
  Na  Na4  1  0.00678427  0.98897121  0.99370583  1
  Na  Na5  1  0.65372359  0.32411950  0.83539245  1
  Na  Na6  1  0.67639063  0.33468919  0.33397250  1
  Na  Na7  1  0.35373317  0.67460136  0.16902413  1
  Na  Na8  1  0.33626447  0.66763261  0.66857153  1
  Y  Y0  1  0.01222990  0.99777272  0.64209292  1
  Y  Y1  1  0.99724006  0.98808995  0.14279958  1
  Y  Y2  1  0.33534275  0.67557125  0.01668496  1
  Y  Y3  1  0.32142712  0.66616896  0.51683936  1
  Y  Y4  1  0.32769843  0.66512269  0.31921825  1
  Y  Y5  1  0.33656830  0.67781255  0.82121009  1
  Ge  Ge0  1  0.96463817  0.98028367  0.34770931  1
  Ge  Ge1  1  0.01576207  0.01372347  0.84580635  1
  Ge  Ge2  1  0.66395224  0.33787669  0.68805802  1
  Ge  Ge3  1  0.67726079  0.34247182  0.18630547  1
  Ge  Ge4  1  0.66233801  0.32226685  0.98185907  1
  Ge  Ge5  1  0.67691120  0.33909105  0.48181423  1
  P  P0  1  0.70439956  0.69050190  0.24853158  1
  P  P1  1  0.98281304  0.28247935  0.24814559  1
  P  P2  1  0.30456991  0.29114898  0.74987219  1
  P  P3  1  0.98322815  0.69926822  0.75178967  1
  P  P4  1  0.71278980  0.01017859  0.74685510  1
  P  P5  1  0.94589156  0.34272413  0.58628616  1
  P  P6  1  0.40208799  0.06771234  0.58140225  1
  P  P7  1  0.65985962  0.60463977  0.58293364  1
  P  P8  1  0.93805525  0.60240389  0.08033435  1
  P  P9  1  0.65894183  0.05603268  0.08550476  1
  P  P10  1  0.39843294  0.33907238  0.08444209  1
  P  P11  1  0.01187305  0.34437120  0.91656518  1
  P  P12  1  0.33222946  0.99059398  0.91677580  1
  P  P13  1  0.64753456  0.98596528  0.41945285  1
  P  P14  1  0.01015373  0.66931248  0.41564876  1
  S  S0  1  0.30359352  0.01689963  0.25190136  1
  S  S1  1  0.65498902  0.66790119  0.91710596  1
  S  S2  1  0.33055922  0.34487781  0.41645709  1
  O  O0  1  0.20976823  0.03160857  0.30520669  1
  O  O1  1  0.81967827  0.77985266  0.30593319  1
  O  O2  1  0.95699506  0.15628641  0.30270446  1
  O  O3  1  0.21710413  0.17333578  0.80595295  1
  O  O4  1  0.96650061  0.79913180  0.80760593  1
  O  O5  1  0.84616979  0.04550030  0.79993351  1
  O  O6  1  0.78299039  0.98522269  0.68818198  1
  O  O7  1  0.18914670  0.21657751  0.69577351  1
  O  O8  1  0.01481621  0.79989504  0.69513128  1
  O  O9  1  0.78752226  0.79821908  0.19421198  1
  O  O10  1  0.01247728  0.21326887  0.18991832  1
  O  O11  1  0.20738518  0.99386121  0.19658246  1
  O  O12  1  0.86064442  0.35739658  0.64602089  1
  O  O13  1  0.50732719  0.15054555  0.64009211  1
  O  O14  1  0.64679863  0.50434202  0.64144203  1
  O  O15  1  0.85955327  0.50050966  0.13955194  1
  O  O16  1  0.64411887  0.14673031  0.14320584  1
  O  O17  1  0.50223592  0.35677751  0.14294922  1
  O  O18  1  0.48813909  0.32714861  0.02695512  1
  O  O19  1  0.83436416  0.50751310  0.02384954  1
  O  O20  1  0.67720588  0.15836296  0.02730995  1
  O  O21  1  0.49395878  0.16620794  0.52413051  1
  O  O22  1  0.67059138  0.51353311  0.52540666  1
  O  O23  1  0.84018926  0.32644926  0.52908642  1
  O  O24  1  0.57330164  0.69732590  0.96997316  1
  O  O25  1  0.12565668  0.42143570  0.97248438  1
  O  O26  1  0.29688113  0.87504842  0.97123203  1
  O  O27  1  0.57878975  0.87817347  0.47638992  1
  O  O28  1  0.30105313  0.42588633  0.46979689  1
  O  O29  1  0.12431777  0.70941729  0.47119385  1
  O  O30  1  0.08723271  0.62632574  0.36209030  1
  O  O31  1  0.52868497  0.89968309  0.36630968  1
  O  O32  1  0.36292386  0.45608666  0.36403735  1
  O  O33  1  0.09221084  0.45974727  0.86196602  1
  O  O34  1  0.37752378  0.91800560  0.86227941  1
  O  O35  1  0.54528157  0.63554735  0.86393095  1
  O  O36  1  0.99612836  0.83924799  0.40458220  1
  O  O37  1  0.83317137  0.00601429  0.40763257  1
  O  O38  1  0.17403244  0.17089876  0.40788606  1
  O  O39  1  0.99196765  0.15873275  0.90494603  1
  O  O40  1  0.16245952  0.00184734  0.90601232  1
  O  O41  1  0.82772763  0.82500878  0.90963432  1
  O  O42  1  0.95553865  0.17339079  0.58459815  1
  O  O43  1  0.22316806  0.05291785  0.57942526  1
  O  O44  1  0.82167639  0.78735505  0.58201673  1
  O  O45  1  0.95421314  0.78220314  0.07860917  1
  O  O46  1  0.82815465  0.04593401  0.08473527  1
  O  O47  1  0.21583107  0.17646546  0.08440820  1
  O  O48  1  0.70353813  0.18562213  0.74552872  1
  O  O49  1  0.48501444  0.30118166  0.74400050  1
  O  O50  1  0.81280019  0.51573705  0.74815218  1
  O  O51  1  0.69648856  0.50836640  0.24476257  1
  O  O52  1  0.81060147  0.29491289  0.24516428  1
  O  O53  1  0.47636523  0.17904789  0.24958653  1
  O  O54  1  0.67473122  0.50993075  0.92424254  1
  O  O55  1  0.82471889  0.32062807  0.92504277  1
  O  O56  1  0.49011879  0.17834053  0.92655252  1
  O  O57  1  0.67632041  0.17575463  0.42599689  1
  O  O58  1  0.48810650  0.32480498  0.42369927  1
  O  O59  1  0.82390862  0.50968806  0.42562527  1
  O  O60  1  0.37325223  0.50074545  0.08269441  1
  O  O61  1  0.11821794  0.61404007  0.07951686  1
  O  O62  1  0.49739526  0.87615026  0.08416823  1
  O  O63  1  0.38760531  0.88527814  0.58136384  1
  O  O64  1  0.49740294  0.62742084  0.58186969  1
  O  O65  1  0.12534986  0.50513095  0.58484174  1
  O  O66  1  0.32924289  0.86315585  0.25619836  1
  O  O67  1  0.52285926  0.66675415  0.25656979  1
  O  O68  1  0.13706387  0.46317089  0.25897933  1
  O  O69  1  0.32362283  0.47188675  0.75985242  1
  O  O70  1  0.13539911  0.66152678  0.75916807  1
  O  O71  1  0.53320508  0.85522239  0.75716588  1
loop_
_geom_bond_atom_site_label_1
_geom_bond_atom_site_label_2
_geom_bond_distance
_geom_bond_site_symmetry_2
Na0 O70 2.324882 1_555
Na0 O48 2.339340 1_455
Na0 O69 2.482381 1_555
Na0 O33 2.631422 1_555
Na0 O50 2.661118 1_455
Na0 O5 2.662368 1_455
Na0 O12 2.671111 1_455
Na0 O7 2.780546 1_555
Na1 O63 2.271529 1_555
Na1 O42 2.297690 1_565
Na1 O44 2.408253 1_555
Na1 O64 2.503349 1_555
Na1 O27 2.512931 1_555
Na1 O6 2.516120 1_555
Na2 O61 2.265673 1_555
Na2 O46 2.302349 1_455
Na2 O47 2.434317 1_555
Na2 O60 2.487355 1_555
Na2 O10 2.569050 1_555
Na2 O25 2.605538 1_554
Na3 O36 2.395234 1_455
Na3 O38 2.461280 1_565
Na3 O43 2.525625 1_565
Na3 O37 2.549643 1_465
Na3 O44 2.664813 1_455
Na3 O42 2.759834 1_465
Na4 O40 2.375133 1_565
Na4 O41 2.424628 1_455
Na4 O45 2.524866 1_456
Na4 O39 2.539235 1_465
Na4 O47 2.693296 1_566
Na4 O46 2.774605 1_466
Na5 O56 2.478399 1_555
Na5 O49 2.483572 1_555
Na5 O48 2.503028 1_555
Na5 O54 2.523798 1_555
Na5 O50 2.524748 1_555
Na5 O55 2.524811 1_555
Na6 O52 2.432380 1_555
Na6 O51 2.480165 1_555
Na6 O53 2.486665 1_555
Na6 O57 2.501981 1_555
Na6 O59 2.511218 1_555
Na6 O58 2.589301 1_555
Na7 O67 2.489442 1_555
Na7 O62 2.494496 1_555
Na7 O60 2.523861 1_555
Na7 O66 2.639146 1_555
Na7 O61 2.746215 1_555
Na7 O68 2.785798 1_555
Na8 O65 2.530761 1_555
Na8 O64 2.537821 1_555
Na8 O71 2.618415 1_555
Na8 O63 2.627274 1_555
Na8 O69 2.652257 1_555
Na8 O70 2.684968 1_555
Ge0 O1 1.843594 1_555
Ge0 O37 1.863080 1_565
Ge0 O2 1.883029 1_565
Ge0 O36 1.898660 1_555
Ge0 O0 2.201960 1_665
Ge0 O38 2.233791 1_665
Ge1 O3 1.870989 1_555
Ge1 O40 1.909728 1_555
Ge1 O4 1.916942 1_445
Ge1 O39 1.920802 1_455
Ge1 O5 1.947070 1_455
Ge1 O41 2.212471 1_445
Ge2 O14 1.870854 1_555
Ge2 O13 1.880366 1_555
Ge2 O12 1.910422 1_555
Ge2 O49 1.920435 1_555
Ge2 O50 1.989737 1_555
Ge2 O48 2.015291 1_555
Ge3 O15 1.857441 1_555
Ge3 O16 1.866516 1_555
Ge3 O17 1.881399 1_555
Ge3 O51 1.904504 1_555
Ge3 O52 1.947874 1_555
Ge3 O53 2.181496 1_555
Ge4 O20 1.828168 1_556
Ge4 O19 1.846104 1_556
Ge4 O18 1.860707 1_556
Ge4 O56 1.884477 1_555
Ge4 O55 1.926192 1_555
Ge4 O54 2.064283 1_555
Ge5 O23 1.836321 1_555
Ge5 O22 1.842018 1_555
Ge5 O21 1.853245 1_555
Ge5 O57 1.902201 1_555
Ge5 O59 1.908774 1_555
Ge5 O58 2.070056 1_555
O0 S0 1.498085 1_555
O1 P0 1.587311 1_555
O2 P1 1.598221 1_555
O3 P2 1.577634 1_555
O4 P3 1.576799 1_555
O5 P4 1.593314 1_555
O6 P4 1.517888 1_565
O6 Y0 2.228720 1_655
O7 P2 1.509850 1_555
O7 Y0 2.151008 1_545
O8 P3 1.500847 1_455
O8 Y0 2.124801 1_555
O9 P0 1.502647 1_555
O9 Y1 2.131459 1_555
O10 P1 1.517369 1_455
O10 Y1 2.188604 1_445
O11 S0 1.460520 1_565
O11 Y1 2.191912 1_455
O12 P5 1.575273 1_555
O13 P6 1.567493 1_555
O14 P7 1.559739 1_555
O15 P8 1.568167 1_555
O16 P9 1.558811 1_555
O17 P10 1.564207 1_555
O18 P10 1.546000 1_555
O19 P8 1.543849 1_555
O20 P9 1.554551 1_555
O21 P6 1.545613 1_555
O22 P7 1.545722 1_555
O23 P5 1.551376 1_555
O24 S1 1.476974 1_555
O24 Y2 2.272430 1_556
O25 P11 1.538812 1_555
O25 Y2 2.308687 1_556
O26 P12 1.526666 1_555
O26 Y2 2.200985 1_556
O27 P13 1.534279 1_555
O27 Y3 2.308977 1_555
O28 S2 1.479491 1_555
O28 Y3 2.287504 1_555
O29 P14 1.530097 1_555
O29 Y3 2.207479 1_555
O30 P14 1.518454 1_555
O30 Y4 2.201730 1_555
O31 P13 1.519813 1_555
O31 Y4 2.216332 1_555
O32 S2 1.471349 1_555
O32 Y4 2.253162 1_555
O33 P11 1.531996 1_555
O33 Y5 2.266118 1_555
O34 P12 1.520935 1_555
O34 Y5 2.164969 1_555
O35 S1 1.472922 1_555
O35 Y5 2.263903 1_555
O36 P14 1.581622 1_655
O37 P13 1.582611 1_545
O38 S2 1.487418 1_555
O39 P11 1.576529 1_655
O40 P12 1.568112 1_545
O41 S1 1.483142 1_555
O42 P5 1.535012 1_555
O42 Y0 2.255361 1_645
O43 P6 1.520238 1_555
O43 Y0 2.193685 1_545
O44 P7 1.540895 1_555
O44 Y0 2.235414 1_655
O45 P8 1.519073 1_555
O45 Y1 2.193381 1_555
O46 P9 1.539376 1_555
O46 Y1 2.221684 1_545
O47 P10 1.543789 1_555
O47 Y1 2.254350 1_445
O48 P4 1.587008 1_555
O49 P2 1.557205 1_555
O50 P3 1.579287 1_555
O51 P0 1.572659 1_555
O52 P1 1.578104 1_555
O53 S0 1.493699 1_555
O54 S1 1.493646 1_555
O55 P11 1.572113 1_655
O56 P12 1.567958 1_545
O57 P13 1.568504 1_545
O58 S2 1.494190 1_555
O59 P14 1.569978 1_655
O60 P10 1.545581 1_555
O60 Y2 2.281832 1_555
O61 P8 1.542774 1_455
O61 Y2 2.226199 1_555
O62 P9 1.525161 1_565
O62 Y2 2.226068 1_555
O63 P6 1.547766 1_565
O63 Y3 2.243321 1_555
O64 P7 1.542574 1_555
O64 Y3 2.276554 1_555
O65 P5 1.527392 1_455
O65 Y3 2.227113 1_555
O66 S0 1.481694 1_565
O66 Y4 2.246205 1_555
O67 P0 1.522047 1_555
O67 Y4 2.220979 1_555
O68 P1 1.521275 1_455
O68 Y4 2.204836 1_555
O69 P2 1.531535 1_555
O69 Y5 2.230694 1_555
O70 P3 1.542788 1_455
O70 Y5 2.204196 1_555
O71 P4 1.519733 1_565
O71 Y5 2.211503 1_555
