# generated using pymatgen
data_Na8La2Ti2Si5SO24
_symmetry_space_group_name_H-M   'P 1'
_cell_length_a   9.41677271
_cell_length_b   9.41969302
_cell_length_c   22.71500055
_cell_angle_alpha   90.34744528
_cell_angle_beta   89.35459883
_cell_angle_gamma   120.14416359
_symmetry_Int_Tables_number   1
_chemical_formula_structural   Na8La2Ti2Si5SO24
_chemical_formula_sum   'Na24 La6 Ti6 Si15 S3 O72'
_cell_volume   1742.29580168
_cell_formula_units_Z   3
loop_
 _symmetry_equiv_pos_site_id
 _symmetry_equiv_pos_as_xyz
  1  'x, y, z'
loop_
 _atom_site_type_symbol
 _atom_site_label
 _atom_site_symmetry_multiplicity
 _atom_site_fract_x
 _atom_site_fract_y
 _atom_site_fract_z
 _atom_site_occupancy
  Na  Na0  1  0.64976351  0.01130891  0.25248143  1
  Na  Na1  1  0.34965642  0.36297963  0.25036505  1
  Na  Na2  1  0.99983818  0.64227922  0.25012571  1
  Na  Na3  1  0.62976402  0.62926269  0.74512315  1
  Na  Na4  1  0.98600552  0.35730411  0.74611299  1
  Na  Na5  1  0.37584503  0.01664579  0.74608970  1
  Na  Na6  1  0.29295720  0.33366517  0.59007387  1
  Na  Na7  1  0.04179517  0.70990539  0.58399083  1
  Na  Na8  1  0.66791850  0.95541445  0.58458544  1
  Na  Na9  1  0.28197736  0.96565166  0.08311924  1
  Na  Na10  1  0.67234236  0.68831333  0.09270761  1
  Na  Na11  1  0.04789489  0.33543715  0.09273825  1
  Na  Na12  1  0.97968024  0.67297840  0.91261430  1
  Na  Na13  1  0.70976514  0.04746800  0.90125225  1
  Na  Na14  1  0.31551978  0.27932006  0.91545900  1
  Na  Na15  1  0.94906241  0.29552517  0.40985098  1
  Na  Na16  1  0.33298547  0.02510219  0.41568669  1
  Na  Na17  1  0.70874014  0.67097207  0.41872383  1
  Na  Na18  1  0.98740865  0.98500849  0.50577288  1
  Na  Na19  1  0.03039432  0.01139418  0.99928083  1
  Na  Na20  1  0.66907436  0.32257836  0.82481393  1
  Na  Na21  1  0.67275584  0.32816413  0.33516913  1
  Na  Na22  1  0.32217945  0.64916251  0.17298007  1
  Na  Na23  1  0.33893042  0.66570484  0.66834027  1
  La  La0  1  0.99611423  0.99646530  0.34113048  1
  La  La1  1  0.00708611  0.00476273  0.83288536  1
  La  La2  1  0.00368785  -0.00003122  0.16370584  1
  La  La3  1  0.66876511  0.33131638  0.97908793  1
  La  La4  1  0.31769977  0.65606737  0.01932475  1
  La  La5  1  0.33485472  0.67284604  0.52146015  1
  Ti  Ti0  1  0.99979679  0.00054127  0.65238946  1
  Ti  Ti1  1  0.66597242  0.33388319  0.68264972  1
  Ti  Ti2  1  0.66393548  0.35009492  0.18711766  1
  Ti  Ti3  1  0.68047068  0.32922640  0.48840938  1
  Ti  Ti4  1  0.33036800  0.68859500  0.31616392  1
  Ti  Ti5  1  0.31040292  0.66800980  0.80624949  1
  Si  Si0  1  0.32965831  0.00856709  0.24998781  1
  Si  Si1  1  0.66678044  0.67865451  0.25129293  1
  Si  Si2  1  0.00018101  0.33159445  0.25055662  1
  Si  Si3  1  0.30967591  0.31017152  0.74661051  1
  Si  Si4  1  0.99153632  0.69142618  0.74717479  1
  Si  Si5  1  0.69045033  -0.00070311  0.74727205  1
  Si  Si6  1  0.94666809  0.31490189  0.58828419  1
  Si  Si7  1  0.37608809  0.05960194  0.58614827  1
  Si  Si8  1  0.68404992  0.62225911  0.58574361  1
  Si  Si9  1  0.95896806  0.63150153  0.08629628  1
  Si  Si10  1  0.37191950  0.33204840  0.08635163  1
  Si  Si11  1  0.03893545  0.36938241  0.90924935  1
  Si  Si12  1  0.33209437  0.95905858  0.91164282  1
  Si  Si13  1  0.63084517  0.97474153  0.41835653  1
  Si  Si14  1  0.02519299  0.65812865  0.41919372  1
  S  S0  1  0.67102609  0.03796609  0.08805388  1
  S  S1  1  0.62690168  0.66914942  0.91115623  1
  S  S2  1  0.34295174  0.36824734  0.41589413  1
  O  O0  1  0.25946731  0.06299811  0.30601266  1
  O  O1  1  0.79760922  0.74898428  0.30467132  1
  O  O2  1  0.94767432  0.20281432  0.30530809  1
  O  O3  1  0.26281968  0.21007058  0.80828092  1
  O  O4  1  0.94416472  0.74114349  0.80938543  1
  O  O5  1  0.79189695  0.04759938  0.80814248  1
  O  O6  1  0.81040305  0.97244659  0.69683170  1
  O  O7  1  0.16334375  0.19014972  0.69672196  1
  O  O8  1  0.02452097  0.83568013  0.69693918  1
  O  O9  1  0.73595551  0.80034366  0.19454561  1
  O  O10  1  0.05271413  0.25941960  0.19397671  1
  O  O11  1  0.20331661  0.94761954  0.19517614  1
  O  O12  1  0.84275216  0.33020912  0.64254291  1
  O  O13  1  0.49014485  0.16128667  0.64182720  1
  O  O14  1  0.67281769  0.51032647  0.64179380  1
  O  O15  1  0.83271245  0.51118890  0.13935744  1
  O  O16  1  0.66955712  0.13964718  0.13735642  1
  O  O17  1  0.48885289  0.32117309  0.13897690  1
  O  O18  1  0.44265029  0.31706203  0.02183953  1
  O  O19  1  0.87788392  0.55537534  0.02236473  1
  O  O20  1  0.68062306  0.11603893  0.03017933  1
  O  O21  1  0.47781164  0.17044639  0.52596389  1
  O  O22  1  0.70026486  0.52379073  0.52539490  1
  O  O23  1  0.83657785  0.30087649  0.52700495  1
  O  O24  1  0.55565278  0.67746396  0.96884905  1
  O  O25  1  0.12741263  0.43778864  0.97277677  1
  O  O26  1  0.32920064  0.87749886  0.97537403  1
  O  O27  1  0.56676369  0.86894405  0.47874715  1
  O  O28  1  0.32094413  0.43773081  0.47202024  1
  O  O29  1  0.12582663  0.68594269  0.47970716  1
  O  O30  1  0.14210927  0.65355444  0.36322685  1
  O  O31  1  0.50323315  0.86054712  0.36393512  1
  O  O32  1  0.35016415  0.47024375  0.36499851  1
  O  O33  1  0.16332947  0.49321903  0.85456253  1
  O  O34  1  0.32805847  0.83525937  0.85580483  1
  O  O35  1  0.52566044  0.66722477  0.86121203  1
  O  O36  1  0.00064811  0.81770885  0.41282527  1
  O  O37  1  0.81811861  0.00931250  0.40988177  1
  O  O38  1  0.19911642  0.19931162  0.41280528  1
  O  O39  1  0.00951627  0.18330675  0.90738268  1
  O  O40  1  0.16573330  0.97283934  0.91095183  1
  O  O41  1  0.79446806  0.81479984  0.90964582  1
  O  O42  1  0.95679688  0.14467040  0.59138993  1
  O  O43  1  0.19321662  0.04508588  0.59024443  1
  O  O44  1  0.85118775  0.80637210  0.59032212  1
  O  O45  1  0.97614368  0.81325619  0.08912912  1
  O  O46  1  0.81856266  0.01943548  0.08952457  1
  O  O47  1  0.18493348  0.17465775  0.09001766  1
  O  O48  1  0.66157800  0.15495674  0.73541108  1
  O  O49  1  0.49490106  0.34011424  0.73403337  1
  O  O50  1  0.84202539  0.50510598  0.73542085  1
  O  O51  1  0.64011103  0.49221796  0.23937268  1
  O  O52  1  0.84070048  0.35538791  0.23898515  1
  O  O53  1  0.51602973  0.15824506  0.23677386  1
  O  O54  1  0.63547340  0.51470745  0.90790062  1
  O  O55  1  0.86752739  0.37274746  0.90263837  1
  O  O56  1  0.50236879  0.13498875  0.90251245  1
  O  O57  1  0.63107518  0.15161465  0.42189109  1
  O  O58  1  0.49858753  0.36303802  0.41671216  1
  O  O59  1  0.84590195  0.48283102  0.42116571  1
  O  O60  1  0.37636204  0.50748067  0.09517518  1
  O  O61  1  0.13676539  0.64174576  0.09585724  1
  O  O62  1  0.51954313  0.87429628  0.09165581  1
  O  O63  1  0.35801335  0.87736124  0.58879216  1
  O  O64  1  0.51686113  0.63483874  0.58737705  1
  O  O65  1  0.12976727  0.47660135  0.58914157  1
  O  O66  1  0.34699538  0.84379793  0.26277450  1
  O  O67  1  0.48504761  0.65244995  0.26762901  1
  O  O68  1  0.16283640  0.51264177  0.26377080  1
  O  O69  1  0.31459949  0.48797116  0.74923486  1
  O  O70  1  0.16755559  0.68577494  0.75115944  1
  O  O71  1  0.51070905  0.82619941  0.75138908  1
loop_
_geom_bond_atom_site_label_1
_geom_bond_atom_site_label_2
_geom_bond_distance
_geom_bond_site_symmetry_2
Na0 O53 2.322866 1_555
Na0 O66 2.478773 1_545
Na0 O2 2.744261 1_555
Na0 O9 2.811391 1_545
Na0 O52 2.824600 1_555
Na0 O16 2.852334 1_555
Na0 O31 2.885638 1_545
Na0 O67 2.947374 1_545
Na1 O51 2.381064 1_555
Na1 O67 2.391864 1_555
Na1 O68 2.765641 1_555
Na1 O10 2.781560 1_555
Na1 O32 2.786527 1_555
Na1 O0 2.812946 1_555
Na1 O17 2.950710 1_555
Na2 O52 2.354931 1_555
Na2 O68 2.416829 1_655
Na2 O11 2.820735 1_655
Na2 O1 2.833042 1_555
Na2 O66 2.855673 1_655
Na2 O30 2.887512 1_655
Na2 O15 2.903804 1_555
Na2 O51 2.956008 1_555
Na3 O49 2.370566 1_555
Na3 O69 2.572200 1_555
Na3 O71 2.607778 1_555
Na3 O14 2.707657 1_555
Na3 O50 2.783235 1_555
Na3 O35 2.885283 1_555
Na3 O4 2.991953 1_555
Na3 O6 3.004193 1_555
Na4 O50 2.396456 1_555
Na4 O12 2.671707 1_555
Na4 O48 2.681076 1_555
Na4 O70 2.682669 1_655
Na4 O69 2.696919 1_655
Na4 O33 2.898824 1_655
Na4 O5 2.910892 1_555
Na4 O7 3.017261 1_655
Na5 O48 2.337592 1_555
Na5 O13 2.670698 1_555
Na5 O71 2.672052 1_545
Na5 O49 2.681093 1_555
Na5 O70 2.726488 1_545
Na5 O3 2.886299 1_555
Na5 O34 2.930350 1_545
Na6 O43 2.388988 1_555
Na6 O65 2.500791 1_555
Na6 O64 2.547397 1_555
Na6 O7 2.738931 1_555
Na6 O42 2.743971 1_455
Na6 O28 2.824497 1_555
Na7 O44 2.387215 1_455
Na7 O29 2.533579 1_555
Na7 O63 2.579684 1_555
Na7 O65 2.713564 1_555
Na7 O43 2.738507 1_565
Na7 O8 2.856541 1_555
Na8 O42 2.395310 1_565
Na8 O27 2.568885 1_555
Na8 O64 2.613866 1_555
Na8 O63 2.627888 1_555
Na8 O44 2.721610 1_555
Na8 O6 2.860552 1_555
Na9 O45 2.492955 1_455
Na9 O47 2.556509 1_565
Na9 O11 2.625425 1_555
Na9 O61 2.659742 1_555
Na9 O26 2.683076 1_554
Na9 O62 2.779938 1_555
Na10 O60 2.429477 1_555
Na10 O9 2.488033 1_555
Na10 O45 2.488047 1_555
Na10 O46 2.704960 1_565
Na10 O62 2.770041 1_555
Na10 O15 2.962320 1_555
Na10 O24 3.014424 1_554
Na11 O10 2.420345 1_555
Na11 O47 2.433674 1_555
Na11 O61 2.569865 1_555
Na11 O46 2.659720 1_455
Na11 O60 2.676741 1_555
Na11 O25 2.859417 1_554
Na12 O40 2.465533 1_655
Na12 O55 2.482461 1_555
Na12 O4 2.504802 1_555
Na12 O41 2.678612 1_555
Na12 O19 2.697065 1_556
Na12 O54 2.809405 1_555
Na13 O5 2.243562 1_555
Na13 O39 2.450184 1_655
Na13 O56 2.471896 1_555
Na13 O55 2.650364 1_555
Na13 O41 2.690759 1_545
Na14 O40 2.498876 1_545
Na14 O3 2.506322 1_555
Na14 O39 2.558800 1_555
Na14 O18 2.650665 1_556
Na14 O54 2.703130 1_555
Na14 O56 2.723388 1_555
Na15 O37 2.334565 1_555
Na15 O59 2.415168 1_555
Na15 O2 2.523109 1_555
Na15 O57 2.605399 1_555
Na15 O23 2.862650 1_555
Na15 O38 2.918590 1_655
Na16 O57 2.442673 1_555
Na16 O38 2.523321 1_555
Na16 O0 2.666620 1_555
Na16 O36 2.734475 1_545
Na16 O58 2.753125 1_555
Na16 O21 2.858180 1_555
Na16 O31 2.964129 1_545
Na17 O36 2.379594 1_655
Na17 O58 2.562670 1_555
Na17 O59 2.667207 1_555
Na17 O1 2.703458 1_555
Na17 O22 2.779358 1_555
Na17 O37 2.822189 1_565
Na18 O44 2.445650 1_555
Na18 O42 2.552361 1_565
Na18 O43 2.593652 1_665
Na18 O36 2.666026 1_655
Na18 O37 2.790880 1_565
Na18 O38 2.902398 1_665
Na19 O40 2.485995 1_545
Na19 O47 2.551926 1_556
Na19 O45 2.640984 1_446
Na19 O39 2.718182 1_555
Na19 O46 2.871347 1_456
Na19 O41 2.904266 1_445
Na20 O56 2.427161 1_555
Na20 O55 2.453171 1_555
Na20 O48 2.544511 1_555
Na20 O50 2.624362 1_555
Na20 O49 2.705916 1_555
Na20 O54 2.730878 1_555
Na21 O57 2.483336 1_555
Na21 O59 2.499660 1_555
Na21 O58 2.587274 1_555
Na21 O52 2.619534 1_555
Na21 O53 2.719167 1_555
Na21 O51 2.783987 1_555
Na22 O60 2.408311 1_555
Na22 O61 2.463184 1_555
Na22 O68 2.486525 1_555
Na22 O67 2.645985 1_555
Na22 O66 2.666713 1_555
Na22 O62 2.715795 1_555
Na23 O69 2.423732 1_555
Na23 O71 2.457419 1_555
Na23 O70 2.532362 1_555
Na23 O64 2.586027 1_555
Na23 O65 2.608844 1_555
Na23 O63 2.636066 1_555
La0 O1 2.291150 1_555
La0 O37 2.324958 1_565
La0 O2 2.359315 1_565
La0 O0 2.362137 1_665
La0 O36 2.365651 1_655
La0 O38 2.513922 1_665
La1 O3 2.270914 1_555
La1 O4 2.305572 1_445
La1 O5 2.331219 1_455
La1 O39 2.370726 1_555
La1 O40 2.446255 1_545
La1 O41 2.571329 1_445
La2 O11 2.292075 1_545
La2 O10 2.347845 1_555
La2 O45 2.354958 1_445
La2 O47 2.360243 1_555
La2 O9 2.365945 1_445
La2 O46 2.510569 1_455
La3 O19 2.267787 1_556
La3 O18 2.272162 1_556
La3 O20 2.393820 1_556
La3 O55 2.423330 1_555
La3 O56 2.452113 1_555
La3 O54 2.507284 1_555
La4 O25 2.207349 1_554
La4 O26 2.270459 1_554
La4 O61 2.376681 1_555
La4 O24 2.422293 1_554
La4 O60 2.461689 1_555
La4 O62 2.577408 1_555
La5 O27 2.246119 1_555
La5 O29 2.253123 1_555
La5 O63 2.376527 1_555
La5 O28 2.421793 1_555
La5 O65 2.427443 1_555
La5 O64 2.447077 1_555
O0 Si0 1.622591 1_555
O1 Si1 1.622033 1_555
O2 Si2 1.632418 1_655
O3 Si3 1.621845 1_555
O4 Si4 1.613322 1_555
O5 Si5 1.617707 1_555
O6 Si5 1.704965 1_565
O6 Ti0 1.938703 1_565
O7 Si3 1.707673 1_555
O7 Ti0 1.956117 1_455
O8 Si4 1.682832 1_455
O8 Ti0 1.969104 1_465
O9 Si1 1.627543 1_555
O10 Si2 1.634496 1_555
O11 Si0 1.622928 1_565
O12 Si6 1.615477 1_555
O12 Ti1 1.904124 1_555
O13 Si7 1.628890 1_555
O13 Ti1 1.886061 1_555
O14 Si8 1.626380 1_555
O14 Ti1 1.880839 1_555
O15 Si9 1.667822 1_555
O15 Ti2 1.887983 1_555
O16 S0 1.473676 1_555
O16 Ti2 2.299356 1_555
O17 Si10 1.672234 1_555
O17 Ti2 1.890538 1_555
O18 Si10 1.637336 1_555
O19 Si9 1.633572 1_555
O20 S0 1.489811 1_555
O21 Si7 1.691150 1_555
O21 Ti3 1.928399 1_555
O22 Si8 1.698502 1_555
O22 Ti3 1.934225 1_555
O23 Si6 1.709519 1_555
O23 Ti3 1.851226 1_555
O24 S1 1.485059 1_555
O25 Si11 1.633495 1_555
O26 Si12 1.636537 1_555
O27 Si13 1.622655 1_555
O28 S2 1.488918 1_555
O29 Si14 1.622255 1_555
O30 Si14 1.686897 1_555
O30 Ti4 1.941251 1_555
O31 Si13 1.687711 1_555
O31 Ti4 1.954792 1_555
O32 S2 1.486748 1_555
O32 Ti4 2.431687 1_555
O33 Si11 1.699525 1_555
O33 Ti5 1.879039 1_555
O34 Si12 1.705498 1_555
O34 Ti5 1.869860 1_555
O35 S1 1.484265 1_555
O35 Ti5 2.395783 1_555
O36 Si14 1.638991 1_555
O37 Si13 1.633831 1_545
O38 S2 1.485872 1_555
O39 Si11 1.631698 1_555
O40 Si12 1.635881 1_555
O41 S1 1.482705 1_555
O42 Si6 1.655449 1_555
O42 Ti0 2.124775 1_555
O43 Si7 1.659184 1_555
O43 Ti0 2.160530 1_455
O44 Si8 1.660044 1_555
O44 Ti0 2.175739 1_565
O45 Si9 1.637766 1_555
O46 S0 1.485420 1_555
O47 Si10 1.637588 1_555
O48 Si5 1.644167 1_555
O48 Ti1 2.057199 1_555
O49 Si3 1.642904 1_555
O49 Ti1 2.003162 1_555
O50 Si4 1.629364 1_555
O50 Ti1 2.030385 1_555
O51 Si1 1.665334 1_555
O51 Ti2 1.878267 1_555
O52 Si2 1.649959 1_655
O52 Ti2 2.030131 1_555
O53 Si0 1.632822 1_555
O53 Ti2 1.984776 1_555
O54 S1 1.498304 1_555
O55 Si11 1.638845 1_655
O56 Si12 1.639584 1_545
O57 Si13 1.666453 1_545
O57 Ti3 2.121800 1_555
O58 S2 1.491158 1_555
O58 Ti3 2.510840 1_555
O59 Si14 1.666827 1_655
O59 Ti3 2.136070 1_555
O60 Si10 1.643008 1_555
O61 Si9 1.644795 1_455
O62 S0 1.486112 1_565
O63 Si7 1.639217 1_565
O64 Si8 1.637097 1_555
O65 Si6 1.629722 1_455
O66 Si0 1.667627 1_565
O66 Ti4 1.849301 1_555
O67 Si1 1.640073 1_555
O67 Ti4 1.977463 1_555
O68 Si2 1.650820 1_555
O68 Ti4 2.011091 1_555
O69 Si3 1.652749 1_555
O69 Ti5 2.143464 1_555
O70 Si4 1.688343 1_455
O70 Ti5 1.915707 1_555
O71 Si5 1.660922 1_565
O71 Ti5 2.116089 1_555
