# generated using pymatgen
data_MgNbV3O10
_symmetry_space_group_name_H-M   'P 1'
_cell_length_a   6.63498000
_cell_length_b   6.63498000
_cell_length_c   5.42197300
_cell_angle_alpha   90.00000000
_cell_angle_beta   90.00000000
_cell_angle_gamma   90.00000000
_symmetry_Int_Tables_number   1
_chemical_formula_structural   MgNbV3O10
_chemical_formula_sum   'Mg1 Nb1 V3 O10'
_cell_volume   238.69129833
_cell_formula_units_Z   1
loop_
 _symmetry_equiv_pos_site_id
 _symmetry_equiv_pos_as_xyz
  1  'x, y, z'
loop_
 _atom_site_type_symbol
 _atom_site_label
 _atom_site_symmetry_multiplicity
 _atom_site_fract_x
 _atom_site_fract_y
 _atom_site_fract_z
 _atom_site_occupancy
  Mg  Mg0  1  0.25000000  0.75000000  0.00000000  1
  Nb  Nb0  1  0.75000000  0.25000000  0.50000000  1
  V  V0  1  0.25000000  0.25000000  0.63105500  1
  V  V1  1  0.75000000  0.75000000  0.36894500  1
  V  V2  1  0.25000000  0.75000000  0.50000000  1
  O  O0  1  0.04318800  0.75000000  0.27798000  1
  O  O1  1  0.25000000  0.25000000  0.32965200  1
  O  O2  1  0.25000000  0.54318800  0.72202000  1
  O  O3  1  0.25000000  0.95681200  0.72202000  1
  O  O4  1  0.45681200  0.75000000  0.27798000  1
  O  O5  1  0.52653800  0.25000000  0.71148100  1
  O  O6  1  0.75000000  0.02653800  0.28851900  1
  O  O7  1  0.75000000  0.47346200  0.28851900  1
  O  O8  1  0.75000000  0.75000000  0.67034800  1
  O  O9  1  0.97346200  0.25000000  0.71148100  1
loop_
_geom_bond_atom_site_label_1
_geom_bond_atom_site_label_2
_geom_bond_distance
_geom_bond_site_symmetry_2
Mg0 O2 2.038275 1_554
Mg0 O3 2.038275 1_554
Mg0 O0 2.038275 1_555
Mg0 O4 2.038275 1_555
Nb0 O9 1.874324 1_555
Nb0 O5 1.874324 1_555
Nb0 O6 1.874324 1_555
Nb0 O7 1.874324 1_555
O0 V2 1.825381 1_555
O0 V1 2.006847 1_455
O1 V0 1.634199 1_555
O2 V2 1.825381 1_555
O2 V0 2.006847 1_555
O3 V2 1.825381 1_555
O3 V0 2.006847 1_565
O4 V2 1.825381 1_555
O4 V1 2.006847 1_555
O5 V0 1.885931 1_555
O6 V1 1.885931 1_545
O7 V1 1.885931 1_555
O8 V1 1.634199 1_555
O9 V0 1.885931 1_655
