# generated using pymatgen
data_Ta4Mn11O21
_symmetry_space_group_name_H-M   'P 1'
_cell_length_a   5.45070252
_cell_length_b   5.45070252
_cell_length_c   34.36120200
_cell_angle_alpha   90.00000000
_cell_angle_beta   90.00000000
_cell_angle_gamma   120.00000630
_symmetry_Int_Tables_number   1
_chemical_formula_structural   Ta4Mn11O21
_chemical_formula_sum   'Ta8 Mn22 O42'
_cell_volume   884.10513385
_cell_formula_units_Z   2
loop_
 _symmetry_equiv_pos_site_id
 _symmetry_equiv_pos_as_xyz
  1  'x, y, z'
loop_
 _atom_site_type_symbol
 _atom_site_label
 _atom_site_symmetry_multiplicity
 _atom_site_fract_x
 _atom_site_fract_y
 _atom_site_fract_z
 _atom_site_occupancy
  Ta  Ta0  1  0.33333300  0.66666700  0.07083500  1
  Ta  Ta1  1  0.66666700  0.33333300  0.42916500  1
  Ta  Ta2  1  0.66666700  0.33333300  0.92916500  1
  Ta  Ta3  1  0.33333300  0.66666700  0.57083500  1
  Ta  Ta4  1  0.00000000  0.00000000  0.20529700  1
  Ta  Ta5  1  0.00000000  0.00000000  0.29470300  1
  Ta  Ta6  1  0.00000000  0.00000000  0.79470300  1
  Ta  Ta7  1  0.00000000  0.00000000  0.70529700  1
  Mn  Mn0  1  0.00000000  0.00000000  0.08774700  1
  Mn  Mn1  1  0.00000000  0.00000000  0.41225300  1
  Mn  Mn2  1  0.00000000  0.00000000  0.91225300  1
  Mn  Mn3  1  0.00000000  0.00000000  0.58774700  1
  Mn  Mn4  1  0.33333300  0.66666700  0.98015000  1
  Mn  Mn5  1  0.66666700  0.33333300  0.51985000  1
  Mn  Mn6  1  0.66666700  0.33333300  0.01985000  1
  Mn  Mn7  1  0.33333300  0.66666700  0.48015000  1
  Mn  Mn8  1  0.33333300  0.66666700  0.15690600  1
  Mn  Mn9  1  0.66666700  0.33333300  0.34309400  1
  Mn  Mn10  1  0.66666700  0.33333300  0.84309400  1
  Mn  Mn11  1  0.33333300  0.66666700  0.65690600  1
  Mn  Mn12  1  0.66666700  0.33333300  0.13495400  1
  Mn  Mn13  1  0.33333300  0.66666700  0.36504600  1
  Mn  Mn14  1  0.33333300  0.66666700  0.86504600  1
  Mn  Mn15  1  0.66666700  0.33333300  0.63495400  1
  Mn  Mn16  1  0.66666700  0.33333300  0.22628500  1
  Mn  Mn17  1  0.33333300  0.66666700  0.27371500  1
  Mn  Mn18  1  0.33333300  0.66666700  0.77371500  1
  Mn  Mn19  1  0.66666700  0.33333300  0.72628500  1
  Mn  Mn20  1  0.00000000  0.00000000  0.00000000  1
  Mn  Mn21  1  0.00000000  0.00000000  0.50000000  1
  O  O0  1  0.64798000  0.69631200  0.03648200  1
  O  O1  1  0.30368800  0.95166800  0.03648200  1
  O  O2  1  0.04833200  0.35202000  0.03648200  1
  O  O3  1  0.95166800  0.30368800  0.46351800  1
  O  O4  1  0.35202000  0.04833200  0.46351800  1
  O  O5  1  0.69631200  0.64798000  0.46351800  1
  O  O6  1  0.35202000  0.30368800  0.96351800  1
  O  O7  1  0.69631200  0.04833200  0.96351800  1
  O  O8  1  0.95166800  0.64798000  0.96351800  1
  O  O9  1  0.04833200  0.69631200  0.53648200  1
  O  O10  1  0.64798000  0.95166800  0.53648200  1
  O  O11  1  0.30368800  0.35202000  0.53648200  1
  O  O12  1  0.34624600  0.38251100  0.10653200  1
  O  O13  1  0.61748900  0.96373500  0.10653200  1
  O  O14  1  0.03626500  0.65375400  0.10653200  1
  O  O15  1  0.96373500  0.61748900  0.39346800  1
  O  O16  1  0.65375400  0.03626500  0.39346800  1
  O  O17  1  0.38251100  0.34624600  0.39346800  1
  O  O18  1  0.65375400  0.61748900  0.89346800  1
  O  O19  1  0.38251100  0.03626500  0.89346800  1
  O  O20  1  0.96373500  0.34624600  0.89346800  1
  O  O21  1  0.03626500  0.38251100  0.60653200  1
  O  O22  1  0.34624600  0.96373500  0.60653200  1
  O  O23  1  0.61748900  0.65375400  0.60653200  1
  O  O24  1  0.69995100  0.66801000  0.18095000  1
  O  O25  1  0.33199000  0.03194100  0.18095000  1
  O  O26  1  0.96805900  0.30004900  0.18095000  1
  O  O27  1  0.03194100  0.33199000  0.31905000  1
  O  O28  1  0.30004900  0.96805900  0.31905000  1
  O  O29  1  0.66801000  0.69995100  0.31905000  1
  O  O30  1  0.30004900  0.33199000  0.81905000  1
  O  O31  1  0.66801000  0.96805900  0.81905000  1
  O  O32  1  0.03194100  0.69995100  0.81905000  1
  O  O33  1  0.96805900  0.66801000  0.68095000  1
  O  O34  1  0.69995100  0.03194100  0.68095000  1
  O  O35  1  0.33199000  0.30004900  0.68095000  1
  O  O36  1  0.27588400  0.27588400  0.25000000  1
  O  O37  1  0.72411600  0.00000000  0.25000000  1
  O  O38  1  0.00000000  0.72411600  0.25000000  1
  O  O39  1  0.72411600  0.72411600  0.75000000  1
  O  O40  1  0.27588400  0.00000000  0.75000000  1
  O  O41  1  0.00000000  0.27588400  0.75000000  1
loop_
_geom_bond_atom_site_label_1
_geom_bond_atom_site_label_2
_geom_bond_distance
_geom_bond_site_symmetry_2
Mn0 O12 2.095378 1_555
Mn0 O13 2.095378 1_445
Mn0 O14 2.095379 1_545
Mn0 O0 2.519627 1_445
Mn0 O2 2.519627 1_555
Mn0 O1 2.519627 1_545
Mn1 O17 2.095378 1_555
Mn1 O15 2.095378 1_445
Mn1 O16 2.095379 1_455
Mn1 O5 2.519627 1_445
Mn1 O4 2.519627 1_555
Mn1 O3 2.519627 1_455
Mn2 O18 2.095378 1_445
Mn2 O19 2.095378 1_555
Mn2 O20 2.095379 1_455
Mn2 O6 2.519627 1_555
Mn2 O8 2.519627 1_445
Mn2 O7 2.519627 1_455
Mn3 O23 2.095378 1_445
Mn3 O21 2.095378 1_555
Mn3 O22 2.095379 1_545
Mn3 O11 2.519627 1_555
Mn3 O10 2.519627 1_445
Mn3 O9 2.519627 1_545
Mn4 O8 2.110192 1_455
Mn4 O7 2.110194 1_565
Mn4 O6 2.110197 1_555
Mn4 O1 2.537131 1_556
Mn4 O2 2.537133 1_556
Mn4 O0 2.537135 1_556
Mn5 O10 2.110192 1_545
Mn5 O9 2.110194 1_655
Mn5 O11 2.110197 1_555
Mn5 O3 2.537131 1_555
Mn5 O4 2.537133 1_555
Mn5 O5 2.537135 1_555
Mn6 O2 2.110192 1_655
Mn6 O1 2.110194 1_545
Mn6 O0 2.110197 1_555
Mn6 O7 2.537131 1_554
Mn6 O8 2.537133 1_554
Mn6 O6 2.537135 1_554
Mn7 O4 2.110192 1_565
Mn7 O3 2.110194 1_455
Mn7 O5 2.110197 1_555
Mn7 O9 2.537131 1_555
Mn7 O10 2.537133 1_555
Mn7 O11 2.537135 1_555
Mn8 O25 2.159001 1_565
Mn8 O26 2.159003 1_455
Mn8 O24 2.159006 1_555
Mn8 O14 2.347113 1_555
Mn8 O13 2.347115 1_555
Mn8 O12 2.347117 1_555
Mn9 O27 2.159001 1_655
Mn9 O28 2.159003 1_545
Mn9 O29 2.159006 1_555
Mn9 O16 2.347113 1_555
Mn9 O15 2.347115 1_555
Mn9 O17 2.347117 1_555
Mn10 O31 2.159001 1_545
Mn10 O32 2.159003 1_655
Mn10 O30 2.159006 1_555
Mn10 O20 2.347113 1_555
Mn10 O19 2.347115 1_555
Mn10 O18 2.347117 1_555
Mn11 O33 2.159001 1_455
Mn11 O34 2.159003 1_565
Mn11 O35 2.159006 1_555
Mn11 O22 2.347113 1_555
Mn11 O21 2.347115 1_555
Mn11 O23 2.347117 1_555
Mn12 O13 2.131690 1_545
Mn12 O14 2.131691 1_655
Mn12 O12 2.131695 1_555
Mn12 O26 2.351095 1_555
Mn12 O25 2.351097 1_555
Mn12 O24 2.351099 1_555
Mn13 O15 2.131690 1_455
Mn13 O16 2.131691 1_565
Mn13 O17 2.131695 1_555
Mn13 O28 2.351095 1_555
Mn13 O27 2.351097 1_555
Mn13 O29 2.351099 1_555
Mn14 O19 2.131690 1_565
Mn14 O20 2.131691 1_455
Mn14 O18 2.131695 1_555
Mn14 O32 2.351095 1_555
Mn14 O31 2.351097 1_555
Mn14 O30 2.351099 1_555
Mn15 O21 2.131690 1_655
Mn15 O22 2.131691 1_545
Mn15 O23 2.131695 1_555
Mn15 O34 2.351095 1_555
Mn15 O33 2.351097 1_555
Mn15 O35 2.351099 1_555
Mn16 O37 2.152240 1_555
Mn16 O38 2.152243 1_655
Mn16 O36 2.152245 1_555
Mn16 O26 2.335887 1_555
Mn16 O25 2.335890 1_555
Mn16 O24 2.335891 1_555
Mn17 O38 2.152240 1_555
Mn17 O37 2.152243 1_565
Mn17 O36 2.152245 1_555
Mn17 O28 2.335887 1_555
Mn17 O27 2.335890 1_555
Mn17 O29 2.335891 1_555
Mn18 O40 2.152240 1_565
Mn18 O41 2.152243 1_555
Mn18 O39 2.152245 1_555
Mn18 O32 2.335887 1_555
Mn18 O31 2.335890 1_555
Mn18 O30 2.335891 1_555
Mn19 O41 2.152240 1_655
Mn19 O40 2.152243 1_555
Mn19 O39 2.152245 1_555
Mn19 O34 2.335887 1_555
Mn19 O33 2.335890 1_555
Mn19 O35 2.335891 1_555
Mn20 O6 2.194760 1_554
Mn20 O0 2.194760 1_445
Mn20 O8 2.194760 1_444
Mn20 O2 2.194760 1_555
Mn20 O7 2.194760 1_454
Mn20 O1 2.194760 1_545
Mn21 O11 2.194760 1_555
Mn21 O5 2.194760 1_445
Mn21 O4 2.194760 1_555
Mn21 O10 2.194760 1_445
Mn21 O9 2.194760 1_545
Mn21 O3 2.194760 1_455
O0 Ta0 2.020826 1_555
O1 Ta0 2.020822 1_555
O2 Ta0 2.020824 1_555
O3 Ta1 2.020822 1_555
O4 Ta1 2.020824 1_555
O5 Ta1 2.020826 1_555
O6 Ta2 2.020826 1_555
O7 Ta2 2.020822 1_555
O8 Ta2 2.020824 1_555
O9 Ta3 2.020822 1_555
O10 Ta3 2.020824 1_555
O11 Ta3 2.020826 1_555
O12 Ta0 2.004354 1_555
O13 Ta0 2.004351 1_555
O14 Ta0 2.004349 1_555
O15 Ta1 2.004351 1_555
O16 Ta1 2.004349 1_555
O17 Ta1 2.004354 1_555
O18 Ta2 2.004354 1_555
O19 Ta2 2.004351 1_555
O20 Ta2 2.004349 1_555
O21 Ta3 2.004351 1_555
O22 Ta3 2.004349 1_555
O23 Ta3 2.004354 1_555
O24 Ta4 1.920865 1_665
O25 Ta4 1.920865 1_555
O26 Ta4 1.920865 1_655
O27 Ta5 1.920865 1_555
O28 Ta5 1.920865 1_565
O29 Ta5 1.920865 1_665
O30 Ta6 1.920865 1_555
O31 Ta6 1.920865 1_665
O32 Ta6 1.920865 1_565
O33 Ta7 1.920865 1_665
O34 Ta7 1.920865 1_655
O35 Ta7 1.920865 1_555
O36 Ta5 2.149592 1_555
O36 Ta4 2.149592 1_555
O37 Ta5 2.149592 1_655
O37 Ta4 2.149592 1_655
O38 Ta4 2.149592 1_565
O38 Ta5 2.149592 1_565
O39 Ta6 2.149592 1_665
O39 Ta7 2.149592 1_665
O40 Ta7 2.149592 1_555
O40 Ta6 2.149592 1_555
O41 Ta7 2.149592 1_555
O41 Ta6 2.149592 1_555
