# generated using pymatgen
data_WS9Cl4
_symmetry_space_group_name_H-M   'P 1'
_cell_length_a   18.24022500
_cell_length_b   18.24022500
_cell_length_c   11.34687600
_cell_angle_alpha   90.00000000
_cell_angle_beta   90.00000000
_cell_angle_gamma   90.00000000
_symmetry_Int_Tables_number   1
_chemical_formula_structural   WS9Cl4
_chemical_formula_sum   'W8 S72 Cl32'
_cell_volume   3775.17154843
_cell_formula_units_Z   8
loop_
 _symmetry_equiv_pos_site_id
 _symmetry_equiv_pos_as_xyz
  1  'x, y, z'
loop_
 _atom_site_type_symbol
 _atom_site_label
 _atom_site_symmetry_multiplicity
 _atom_site_fract_x
 _atom_site_fract_y
 _atom_site_fract_z
 _atom_site_occupancy
  W  W0  1  0.14190400  0.78371400  0.08772000  1
  W  W1  1  0.21628600  0.14190400  0.91228000  1
  W  W2  1  0.78371400  0.85809600  0.91228000  1
  W  W3  1  0.85809600  0.21628600  0.08772000  1
  W  W4  1  0.64190400  0.71628600  0.41228000  1
  W  W5  1  0.35809600  0.28371400  0.41228000  1
  W  W6  1  0.28371400  0.64190400  0.58772000  1
  W  W7  1  0.71628600  0.35809600  0.58772000  1
  S  S0  1  0.20807100  0.79871400  0.23758100  1
  S  S1  1  0.20128600  0.20807100  0.76241900  1
  S  S2  1  0.79871400  0.79192900  0.76241900  1
  S  S3  1  0.79192900  0.20128600  0.23758100  1
  S  S4  1  0.70807100  0.70128600  0.26241900  1
  S  S5  1  0.29192900  0.29871400  0.26241900  1
  S  S6  1  0.29871400  0.70807100  0.73758100  1
  S  S7  1  0.70128600  0.29192900  0.73758100  1
  S  S8  1  0.01844400  0.76221900  0.83771100  1
  S  S9  1  0.23778100  0.01844400  0.16228900  1
  S  S10  1  0.76221900  0.98155600  0.16228900  1
  S  S11  1  0.98155600  0.23778100  0.83771100  1
  S  S12  1  0.51844400  0.73778100  0.66228900  1
  S  S13  1  0.48155600  0.26221900  0.66228900  1
  S  S14  1  0.26221900  0.51844400  0.33771100  1
  S  S15  1  0.73778100  0.48155600  0.33771100  1
  S  S16  1  0.03791500  0.65594800  0.78213700  1
  S  S17  1  0.34405200  0.03791500  0.21786300  1
  S  S18  1  0.65594800  0.96208500  0.21786300  1
  S  S19  1  0.96208500  0.34405200  0.78213700  1
  S  S20  1  0.53791500  0.84405200  0.71786300  1
  S  S21  1  0.46208500  0.15594800  0.71786300  1
  S  S22  1  0.15594800  0.53791500  0.28213700  1
  S  S23  1  0.84405200  0.46208500  0.28213700  1
  S  S24  1  0.94579400  0.61817700  0.69679100  1
  S  S25  1  0.38182300  0.94579400  0.30320900  1
  S  S26  1  0.61817700  0.05420600  0.30320900  1
  S  S27  1  0.05420600  0.38182300  0.69679100  1
  S  S28  1  0.44579400  0.88182300  0.80320900  1
  S  S29  1  0.55420600  0.11817700  0.80320900  1
  S  S30  1  0.11817700  0.44579400  0.19679100  1
  S  S31  1  0.88182300  0.55420600  0.19679100  1
  S  S32  1  0.95889600  0.63086700  0.51708800  1
  S  S33  1  0.36913300  0.95889600  0.48291200  1
  S  S34  1  0.63086700  0.04110400  0.48291200  1
  S  S35  1  0.04110400  0.36913300  0.51708800  1
  S  S36  1  0.45889600  0.86913300  0.98291200  1
  S  S37  1  0.54110400  0.13086700  0.98291200  1
  S  S38  1  0.13086700  0.45889600  0.01708800  1
  S  S39  1  0.86913300  0.54110400  0.01708800  1
  S  S40  1  0.90794400  0.72624300  0.46429500  1
  S  S41  1  0.27375700  0.90794400  0.53570500  1
  S  S42  1  0.72624300  0.09205600  0.53570500  1
  S  S43  1  0.09205600  0.27375700  0.46429500  1
  S  S44  1  0.40794400  0.77375700  0.03570500  1
  S  S45  1  0.59205600  0.22624300  0.03570500  1
  S  S46  1  0.22624300  0.40794400  0.96429500  1
  S  S47  1  0.77375700  0.59205600  0.96429500  1
  S  S48  1  0.98445100  0.80920400  0.45305300  1
  S  S49  1  0.19079600  0.98445100  0.54694700  1
  S  S50  1  0.80920400  0.01554900  0.54694700  1
  S  S51  1  0.01554900  0.19079600  0.45305300  1
  S  S52  1  0.48445100  0.69079600  0.04694700  1
  S  S53  1  0.51554900  0.30920400  0.04694700  1
  S  S54  1  0.30920400  0.48445100  0.95305300  1
  S  S55  1  0.69079600  0.51554900  0.95305300  1
  S  S56  1  0.98168100  0.87037500  0.60632700  1
  S  S57  1  0.12962500  0.98168100  0.39367300  1
  S  S58  1  0.87037500  0.01831900  0.39367300  1
  S  S59  1  0.01831900  0.12962500  0.60632700  1
  S  S60  1  0.48168100  0.62962500  0.89367300  1
  S  S61  1  0.51831900  0.37037500  0.89367300  1
  S  S62  1  0.37037500  0.48168100  0.10632700  1
  S  S63  1  0.62962500  0.51831900  0.10632700  1
  S  S64  1  0.06327400  0.83527300  0.71814400  1
  S  S65  1  0.16472700  0.06327400  0.28185600  1
  S  S66  1  0.83527300  0.93672600  0.28185600  1
  S  S67  1  0.93672600  0.16472700  0.71814400  1
  S  S68  1  0.56327400  0.66472700  0.78185600  1
  S  S69  1  0.43672600  0.33527300  0.78185600  1
  S  S70  1  0.33527300  0.56327400  0.21814400  1
  S  S71  1  0.66472700  0.43672600  0.21814400  1
  Cl  Cl0  1  0.06168000  0.88111700  0.09748800  1
  Cl  Cl1  1  0.11888300  0.06168000  0.90251200  1
  Cl  Cl2  1  0.88111700  0.93832000  0.90251200  1
  Cl  Cl3  1  0.93832000  0.11888300  0.09748800  1
  Cl  Cl4  1  0.56168000  0.61888300  0.40251200  1
  Cl  Cl5  1  0.43832000  0.38111700  0.40251200  1
  Cl  Cl6  1  0.38111700  0.56168000  0.59748800  1
  Cl  Cl7  1  0.61888300  0.43832000  0.59748800  1
  Cl  Cl8  1  0.04714700  0.71128400  0.15614400  1
  Cl  Cl9  1  0.28871600  0.04714700  0.84385600  1
  Cl  Cl10  1  0.71128400  0.95285300  0.84385600  1
  Cl  Cl11  1  0.95285300  0.28871600  0.15614400  1
  Cl  Cl12  1  0.54714700  0.78871600  0.34385600  1
  Cl  Cl13  1  0.45285300  0.21128400  0.34385600  1
  Cl  Cl14  1  0.21128400  0.54714700  0.65614400  1
  Cl  Cl15  1  0.78871600  0.45285300  0.65614400  1
  Cl  Cl16  1  0.18898000  0.67895400  0.00276800  1
  Cl  Cl17  1  0.32104600  0.18898000  0.99723200  1
  Cl  Cl18  1  0.67895400  0.81102000  0.99723200  1
  Cl  Cl19  1  0.81102000  0.32104600  0.00276800  1
  Cl  Cl20  1  0.68898000  0.82104600  0.49723200  1
  Cl  Cl21  1  0.31102000  0.17895400  0.49723200  1
  Cl  Cl22  1  0.17895400  0.68898000  0.50276800  1
  Cl  Cl23  1  0.82104600  0.31102000  0.50276800  1
  Cl  Cl24  1  0.20394800  0.84873700  0.94422700  1
  Cl  Cl25  1  0.15126300  0.20394800  0.05577300  1
  Cl  Cl26  1  0.84873700  0.79605200  0.05577300  1
  Cl  Cl27  1  0.79605200  0.15126300  0.94422700  1
  Cl  Cl28  1  0.70394800  0.65126300  0.55577300  1
  Cl  Cl29  1  0.29605200  0.34873700  0.55577300  1
  Cl  Cl30  1  0.34873700  0.70394800  0.44422700  1
  Cl  Cl31  1  0.65126300  0.29605200  0.44422700  1
loop_
_geom_bond_atom_site_label_1
_geom_bond_atom_site_label_2
_geom_bond_distance
_geom_bond_site_symmetry_2
S0 W0 2.103096 1_555
S1 W1 2.103096 1_555
S2 W2 2.103096 1_555
S3 W3 2.103096 1_555
S4 W4 2.103096 1_555
S5 W5 2.103096 1_555
S6 W6 2.103096 1_555
S7 W7 2.103096 1_555
S10 S18 2.069107 1_555
S10 S66 2.070007 1_555
S11 S19 2.069107 1_555
S11 S67 2.070007 1_555
S12 S20 2.069107 1_555
S12 S68 2.070007 1_555
S13 S21 2.069107 1_555
S13 S69 2.070007 1_555
S14 S22 2.069107 1_555
S14 S70 2.070007 1_555
S15 S23 2.069107 1_555
S15 S71 2.070007 1_555
S16 S24 2.058132 1_455
S16 S8 2.069107 1_555
S17 S25 2.058132 1_545
S17 S9 2.069107 1_555
S18 S26 2.058132 1_565
S19 S27 2.058132 1_655
S20 S28 2.058132 1_555
S21 S29 2.058132 1_555
S22 S30 2.058132 1_555
S23 S31 2.058132 1_555
S24 S32 2.066032 1_555
S25 S33 2.066032 1_555
S26 S34 2.066032 1_555
S27 S35 2.066032 1_555
S28 S36 2.066032 1_555
S29 S37 2.066032 1_555
S30 S38 2.066032 1_555
S31 S39 2.066032 1_555
S32 S40 2.061327 1_555
S33 S41 2.061327 1_555
S34 S42 2.061327 1_555
S35 S43 2.061327 1_555
S36 S44 2.061327 1_556
S37 S45 2.061327 1_556
S38 S46 2.061327 1_554
S39 S47 2.061327 1_554
S40 S48 2.062417 1_555
S41 S49 2.062417 1_555
S42 S50 2.062417 1_555
S43 S51 2.062417 1_555
S44 S52 2.062417 1_555
S45 S53 2.062417 1_555
S46 S54 2.062417 1_555
S47 S55 2.062417 1_555
S48 S56 2.066943 1_555
S49 S57 2.066943 1_555
S50 S58 2.066943 1_555
S51 S59 2.066943 1_555
S52 S60 2.066943 1_554
S53 S61 2.066943 1_554
S54 S62 2.066943 1_556
S55 S63 2.066943 1_556
S56 S64 2.057837 1_655
S57 S65 2.057837 1_565
S58 S66 2.057837 1_545
S59 S67 2.057837 1_455
S60 S68 2.057837 1_555
S61 S69 2.057837 1_555
S62 S70 2.057837 1_555
S63 S71 2.057837 1_555
S64 S8 2.070007 1_555
S65 S9 2.070007 1_555
Cl0 W0 2.304352 1_555
Cl1 W1 2.304352 1_555
Cl2 W2 2.304352 1_555
Cl3 W3 2.304352 1_555
Cl4 W4 2.304352 1_555
Cl5 W5 2.304352 1_555
Cl6 W6 2.304352 1_555
Cl7 W7 2.304352 1_555
Cl8 W0 2.309877 1_555
Cl9 W1 2.309877 1_555
Cl10 W2 2.309877 1_555
Cl11 W3 2.309877 1_555
Cl12 W4 2.309877 1_555
Cl13 W5 2.309877 1_555
Cl14 W6 2.309877 1_555
Cl15 W7 2.309877 1_555
Cl16 W0 2.306044 1_555
Cl17 W1 2.306044 1_555
Cl18 W2 2.306044 1_555
Cl19 W3 2.306044 1_555
Cl20 W4 2.306044 1_555
Cl21 W5 2.306044 1_555
Cl22 W6 2.306044 1_555
Cl23 W7 2.306044 1_555
Cl24 W0 2.310507 1_556
Cl25 W1 2.310507 1_554
Cl26 W2 2.310507 1_554
Cl27 W3 2.310507 1_556
Cl28 W4 2.310507 1_555
Cl29 W5 2.310507 1_555
Cl30 W6 2.310507 1_555
Cl31 W7 2.310507 1_555
