# generated using pymatgen
data_PuCuO3
_symmetry_space_group_name_H-M   'P 1'
_cell_length_a   3.82168300
_cell_length_b   3.82368400
_cell_length_c   3.82368400
_cell_angle_alpha   90.00000000
_cell_angle_beta   90.00000000
_cell_angle_gamma   90.00000000
_symmetry_Int_Tables_number   1
_chemical_formula_structural   PuCuO3
_chemical_formula_sum   'Pu1 Cu1 O3'
_cell_volume   55.87514305
_cell_formula_units_Z   1
loop_
 _symmetry_equiv_pos_site_id
 _symmetry_equiv_pos_as_xyz
  1  'x, y, z'
loop_
 _atom_site_type_symbol
 _atom_site_label
 _atom_site_symmetry_multiplicity
 _atom_site_fract_x
 _atom_site_fract_y
 _atom_site_fract_z
 _atom_site_occupancy
  Pu  Pu0  1  0.50000000  0.50000000  0.50000000  1
  Cu  Cu0  1  0.00000000  0.00000000  0.00000000  1
  O  O0  1  0.50000000  0.00000000  0.00000000  1
  O  O1  1  0.00000000  0.50000000  0.00000000  1
  O  O2  1  0.00000000  0.00000000  0.50000000  1
loop_
_geom_bond_atom_site_label_1
_geom_bond_atom_site_label_2
_geom_bond_distance
_geom_bond_site_symmetry_2
Cu0 O0 1.910842 1_455
Cu0 O0 1.910842 1_555
Cu0 O2 1.911842 1_555
Cu0 O2 1.911842 1_554
Cu0 O1 1.911842 1_545
Cu0 O1 1.911842 1_555
O0 Pu0 2.703753 1_545
O0 Pu0 2.703753 1_555
O0 Pu0 2.703753 1_554
O0 Pu0 2.703753 1_544
O1 Pu0 2.703046 1_555
O1 Pu0 2.703046 1_454
O1 Pu0 2.703046 1_455
O1 Pu0 2.703046 1_554
O2 Pu0 2.703046 1_555
O2 Pu0 2.703046 1_445
O2 Pu0 2.703046 1_455
O2 Pu0 2.703046 1_545
