# generated using pymatgen
data_MgMn(SbO3)4
_symmetry_space_group_name_H-M   'P 1'
_cell_length_a   5.54422395
_cell_length_b   10.99324067
_cell_length_c   9.63614943
_cell_angle_alpha   28.81440309
_cell_angle_beta   52.24846266
_cell_angle_gamma   57.57357574
_symmetry_Int_Tables_number   1
_chemical_formula_structural   MgMn(SbO3)4
_chemical_formula_sum   'Mg1 Mn1 Sb4 O12'
_cell_volume   223.81567906
_cell_formula_units_Z   1
loop_
 _symmetry_equiv_pos_site_id
 _symmetry_equiv_pos_as_xyz
  1  'x, y, z'
loop_
 _atom_site_type_symbol
 _atom_site_label
 _atom_site_symmetry_multiplicity
 _atom_site_fract_x
 _atom_site_fract_y
 _atom_site_fract_z
 _atom_site_occupancy
  Mg  Mg0  1  0.79981400  0.99974300  0.77651400  1
  Mn  Mn0  1  0.28772100  0.00410100  0.26013600  1
  Sb  Sb0  1  0.01216100  0.00380800  0.98449800  1
  Sb  Sb1  1  0.97669200  0.49638000  0.99901700  1
  Sb  Sb2  1  0.50090600  0.99289500  0.49653700  1
  Sb  Sb3  1  0.48742100  0.50302700  0.48772600  1
  O  O0  1  0.33784000  0.27934100  0.14246600  1
  O  O1  1  0.20745700  0.10910800  0.62931200  1
  O  O2  1  0.12798500  0.30529500  0.74956700  1
  O  O3  1  0.86058700  0.18513000  0.24288000  1
  O  O4  1  0.38092300  0.81928200  0.10218800  1
  O  O5  1  0.72903400  0.36473300  0.37723600  1
  O  O6  1  0.23348900  0.62095500  0.62019700  1
  O  O7  1  0.64000400  0.18557500  0.84342500  1
  O  O8  1  0.11659800  0.81412600  0.72891600  1
  O  O9  1  0.84473800  0.72159800  0.19806800  1
  O  O10  1  0.71656500  0.88696400  0.34966500  1
  O  O11  1  0.62079400  0.69008000  0.86261900  1
loop_
_geom_bond_atom_site_label_1
_geom_bond_atom_site_label_2
_geom_bond_distance
_geom_bond_site_symmetry_2
Mg0 O5 2.040636 1_565
Mg0 O8 2.066174 1_655
Mg0 O4 2.069937 1_556
Mg0 O1 2.136708 1_665
Mg0 O9 2.137486 1_556
Mg0 O7 2.245375 1_565
Mn0 O6 2.083558 1_545
Mn0 O3 2.108146 1_455
Mn0 O7 2.110989 1_554
Mn0 O0 2.240968 1_555
Mn0 O10 2.310181 1_545
Mn0 O8 2.452030 1_545
O0 Sb1 2.024557 1_454
O0 Sb2 2.066611 1_545
O1 Sb2 2.000627 1_545
O1 Sb0 2.022442 1_555
O2 Sb0 1.968824 1_555
O2 Sb3 1.984995 1_555
O3 Sb2 1.978978 1_545
O3 Sb1 2.015923 1_554
O4 Sb0 1.985211 1_564
O4 Sb3 2.021979 1_555
O5 Sb1 2.005808 1_554
O5 Sb3 2.036021 1_555
O6 Sb3 2.008548 1_555
O6 Sb1 2.048069 1_455
O7 Sb3 2.016417 1_555
O7 Sb0 2.085894 1_655
O8 Sb1 2.019733 1_455
O8 Sb2 2.086420 1_555
O9 Sb3 2.017495 1_555
O9 Sb0 2.069461 1_664
O10 Sb0 1.998372 1_664
O10 Sb2 2.027706 1_555
O11 Sb2 1.971645 1_555
O11 Sb1 1.979998 1_555
