# generated using pymatgen
data_TlSb3S5
_symmetry_space_group_name_H-M   'P 1'
_cell_length_a   15.95388900
_cell_length_b   7.47970200
_cell_length_c   9.19703356
_cell_angle_alpha   65.63857150
_cell_angle_beta   90.00000000
_cell_angle_gamma   90.00000000
_symmetry_Int_Tables_number   1
_chemical_formula_structural   TlSb3S5
_chemical_formula_sum   'Tl4 Sb12 S20'
_cell_volume   999.76673406
_cell_formula_units_Z   4
loop_
 _symmetry_equiv_pos_site_id
 _symmetry_equiv_pos_as_xyz
  1  'x, y, z'
loop_
 _atom_site_type_symbol
 _atom_site_label
 _atom_site_symmetry_multiplicity
 _atom_site_fract_x
 _atom_site_fract_y
 _atom_site_fract_z
 _atom_site_occupancy
  Tl  Tl0  1  0.73601700  0.02672500  0.46247900  1
  Tl  Tl1  1  0.23601700  0.97327500  0.03752100  1
  Tl  Tl2  1  0.26398300  0.97327500  0.53752100  1
  Tl  Tl3  1  0.76398300  0.02672500  0.96247900  1
  Sb  Sb0  1  0.86918700  0.49675900  0.06344500  1
  Sb  Sb1  1  0.36918700  0.50324100  0.43655500  1
  Sb  Sb2  1  0.13081300  0.50324100  0.93655500  1
  Sb  Sb3  1  0.63081300  0.49675900  0.56344500  1
  Sb  Sb4  1  0.50335200  0.99313000  0.21321400  1
  Sb  Sb5  1  0.00335200  0.00687000  0.28678600  1
  Sb  Sb6  1  0.49664800  0.00687000  0.78678600  1
  Sb  Sb7  1  0.99664800  0.99313000  0.71321400  1
  Sb  Sb8  1  0.59632500  0.53346200  0.11227800  1
  Sb  Sb9  1  0.09632500  0.46653800  0.38772200  1
  Sb  Sb10  1  0.40367500  0.46653800  0.88772200  1
  Sb  Sb11  1  0.90367500  0.53346200  0.61227800  1
  S  S0  1  0.72834200  0.32808500  0.11131100  1
  S  S1  1  0.22834200  0.67191500  0.38868900  1
  S  S2  1  0.27165800  0.67191500  0.88868900  1
  S  S3  1  0.77165800  0.32808500  0.61131100  1
  S  S4  1  0.87338400  0.78895100  0.34084300  1
  S  S5  1  0.37338400  0.21104900  0.15915700  1
  S  S6  1  0.12661600  0.21104900  0.65915700  1
  S  S7  1  0.62661600  0.78895100  0.84084300  1
  S  S8  1  0.55617100  0.25042200  0.49990900  1
  S  S9  1  0.05617100  0.74957800  0.00009100  1
  S  S10  1  0.44382900  0.74957800  0.50009100  1
  S  S11  1  0.94382900  0.25042200  0.99990900  1
  S  S12  1  0.94061400  0.22517800  0.39680400  1
  S  S13  1  0.44061400  0.77482200  0.10319600  1
  S  S14  1  0.05938600  0.77482200  0.60319600  1
  S  S15  1  0.55938600  0.22517800  0.89680400  1
  S  S16  1  0.84114100  0.70952900  0.76317400  1
  S  S17  1  0.34114100  0.29047100  0.73682600  1
  S  S18  1  0.15885900  0.29047100  0.23682600  1
  S  S19  1  0.65885900  0.70952900  0.26317400  1
loop_
_geom_bond_atom_site_label_1
_geom_bond_atom_site_label_2
_geom_bond_distance
_geom_bond_site_symmetry_2
S0 Sb0 2.525161 1_555
S0 Sb8 2.609051 1_555
S0 Tl0 3.085609 1_555
S0 Tl3 3.134210 1_554
S1 Sb1 2.525161 1_555
S1 Sb9 2.609051 1_555
S1 Tl1 3.085609 1_555
S1 Tl2 3.134210 1_555
S2 Sb2 2.525161 1_555
S2 Sb10 2.609051 1_555
S2 Tl2 3.085609 1_555
S2 Tl1 3.134210 1_556
S3 Sb3 2.525161 1_555
S3 Sb11 2.609051 1_555
S3 Tl3 3.085609 1_555
S3 Tl0 3.134210 1_555
S4 Sb11 2.486313 1_555
S4 Sb5 2.556329 1_665
S5 Sb10 2.486313 1_554
S5 Sb4 2.556329 1_545
S6 Sb9 2.486313 1_555
S6 Sb7 2.556329 1_445
S7 Sb8 2.486313 1_556
S7 Sb6 2.556329 1_565
S8 Sb3 2.458185 1_555
S8 Sb6 2.686339 1_555
S9 Sb2 2.458185 1_554
S9 Sb7 2.686339 1_454
S10 Sb1 2.458185 1_555
S10 Sb4 2.686339 1_555
S11 Sb0 2.458185 1_556
S11 Sb5 2.686339 1_656
S12 Sb5 2.460688 1_655
S12 Sb7 2.848354 1_545
S12 Sb9 3.051707 1_655
S12 Sb0 3.112363 1_555
S13 Sb4 2.460688 1_555
S13 Sb6 2.848354 1_564
S13 Sb8 3.051707 1_555
S13 Sb1 3.112363 1_555
S14 Sb7 2.460688 1_455
S14 Sb5 2.848354 1_565
S14 Sb11 3.051707 1_455
S14 Sb2 3.112363 1_555
S15 Sb6 2.460688 1_555
S15 Sb4 2.848354 1_546
S15 Sb10 3.051707 1_555
S15 Sb3 3.112363 1_555
S16 Sb11 2.482613 1_555
S16 Sb0 2.594921 1_556
S17 Sb10 2.482613 1_555
S17 Sb1 2.594921 1_555
S18 Sb9 2.482613 1_555
S18 Sb2 2.594921 1_554
S19 Sb8 2.482613 1_555
S19 Sb3 2.594921 1_555
