# generated using pymatgen
data_Na6Hf4Zr4Si7S5O48
_symmetry_space_group_name_H-M   'P 1'
_cell_length_a   18.13008862
_cell_length_b   9.01946052
_cell_length_c   23.35364868
_cell_angle_alpha   89.89087901
_cell_angle_beta   90.05712405
_cell_angle_gamma   119.87881044
_symmetry_Int_Tables_number   1
_chemical_formula_structural   Na6Hf4Zr4Si7S5O48
_chemical_formula_sum   'Na18 Hf12 Zr12 Si21 S15 O144'
_cell_volume   3311.26649908
_cell_formula_units_Z   3
loop_
 _symmetry_equiv_pos_site_id
 _symmetry_equiv_pos_as_xyz
  1  'x, y, z'
loop_
 _atom_site_type_symbol
 _atom_site_label
 _atom_site_symmetry_multiplicity
 _atom_site_fract_x
 _atom_site_fract_y
 _atom_site_fract_z
 _atom_site_occupancy
  Na  Na0  1  0.00042161  0.63200607  0.25234642  1
  Na  Na1  1  0.49783337  0.64731014  0.24545610  1
  Na  Na2  1  0.99902660  0.34835482  0.75275065  1
  Na  Na3  1  0.50001173  0.37054307  0.75436418  1
  Na  Na4  1  0.66477359  0.31417797  0.91782785  1
  Na  Na5  1  0.16585131  0.01905647  0.41449566  1
  Na  Na6  1  0.99906117  0.98306856  0.50306336  1
  Na  Na7  1  0.49368755  0.98842066  0.49379734  1
  Na  Na8  1  0.99394659  0.99882491  0.99590207  1
  Na  Na9  1  0.49785005  0.00448224  0.00740162  1
  Na  Na10  1  0.33475134  0.33681021  0.83248510  1
  Na  Na11  1  0.83327867  0.33116458  0.83584596  1
  Na  Na12  1  0.33230078  0.33567492  0.32897284  1
  Na  Na13  1  0.83396116  0.32942243  0.32756012  1
  Na  Na14  1  0.17690055  0.67668431  0.17181761  1
  Na  Na15  1  0.66905545  0.66515994  0.16113593  1
  Na  Na16  1  0.17681928  0.68411191  0.66670655  1
  Na  Na17  1  0.67432625  0.67561802  0.67382807  1
  Hf  Hf0  1  0.49608971  0.97911022  0.35324268  1
  Hf  Hf1  1  0.99635476  0.01389134  0.85526454  1
  Hf  Hf2  1  0.99906721  0.00035841  0.64537349  1
  Hf  Hf3  1  0.49764289  0.99465355  0.65308827  1
  Hf  Hf4  1  0.99871794  0.00244247  0.15293675  1
  Hf  Hf5  1  0.49734236  0.98579512  0.14161748  1
  Hf  Hf6  1  0.34343010  0.33480592  0.98289386  1
  Hf  Hf7  1  0.83860445  0.35276336  0.48039288  1
  Hf  Hf8  1  0.16632365  0.66673647  0.02037980  1
  Hf  Hf9  1  0.66384496  0.64702689  0.02057789  1
  Hf  Hf10  1  0.17019968  0.68806237  0.51754297  1
  Hf  Hf11  1  0.66586130  0.66579000  0.51984046  1
  Zr  Zr0  1  0.99889706  0.99439953  0.34766101  1
  Zr  Zr1  1  0.49831655  0.00146952  0.84920328  1
  Zr  Zr2  1  0.32471804  0.32368541  0.69121609  1
  Zr  Zr3  1  0.82478483  0.33213654  0.68799583  1
  Zr  Zr4  1  0.33210193  0.32796260  0.18403340  1
  Zr  Zr5  1  0.82460705  0.32423936  0.19058424  1
  Zr  Zr6  1  0.83349815  0.33917302  0.97951622  1
  Zr  Zr7  1  0.33396384  0.32845284  0.47855754  1
  Zr  Zr8  1  0.16873615  0.67632939  0.30978480  1
  Zr  Zr9  1  0.66575008  0.67308705  0.31083762  1
  Zr  Zr10  1  0.16780796  0.66031320  0.81313465  1
  Zr  Zr11  1  0.66844066  0.66212738  0.81179188  1
  Si  Si0  1  0.14826134  0.00774931  0.24964863  1
  Si  Si1  1  0.64132122  0.00352545  0.25091616  1
  Si  Si2  1  0.35456473  0.70838868  0.24837925  1
  Si  Si3  1  0.85230377  0.70819623  0.24890959  1
  Si  Si4  1  0.00035635  0.29266270  0.25025790  1
  Si  Si5  1  0.14126278  0.28191855  0.75073980  1
  Si  Si6  1  0.64442806  0.28831027  0.75035553  1
  Si  Si7  1  0.50069506  0.70837118  0.75025677  1
  Si  Si8  1  0.35217103  0.99522071  0.74928372  1
  Si  Si9  1  0.85508581  0.99902412  0.74818249  1
  Si  Si10  1  0.18649670  0.04212223  0.58292691  1
  Si  Si11  1  0.83280563  0.63032529  0.58341204  1
  Si  Si12  1  0.48205315  0.62480981  0.08380455  1
  Si  Si13  1  0.33196874  0.03669742  0.08363413  1
  Si  Si14  1  0.68688317  0.33081595  0.08314034  1
  Si  Si15  1  0.81371235  0.67331984  0.91755065  1
  Si  Si16  1  0.02153439  0.37818203  0.91735815  1
  Si  Si17  1  0.51870393  0.37210485  0.91495512  1
  Si  Si18  1  0.31562378  0.95815949  0.41578988  1
  Si  Si19  1  0.02017188  0.66691596  0.41523941  1
  Si  Si20  1  0.52210627  0.66776686  0.41727521  1
  S  S0  1  0.49992714  0.28552348  0.25066645  1
  S  S1  1  0.00048871  0.71301846  0.75000932  1
  S  S2  1  0.48043496  0.33232296  0.58325978  1
  S  S3  1  0.97921179  0.33482257  0.58283660  1
  S  S4  1  0.68675242  0.04175952  0.58137975  1
  S  S5  1  0.33393133  0.62738126  0.58273321  1
  S  S6  1  0.98058889  0.62861040  0.08334509  1
  S  S7  1  0.83519692  0.04185456  0.08274345  1
  S  S8  1  0.18584390  0.33046918  0.08106488  1
  S  S9  1  0.31067196  0.66329067  0.91850176  1
  S  S10  1  0.16680444  0.95786529  0.91704770  1
  S  S11  1  0.66594765  0.95501201  0.91790718  1
  S  S12  1  0.81092046  0.95784206  0.41885981  1
  S  S13  1  0.16552648  0.37765258  0.41849501  1
  S  S14  1  0.66729093  0.37656785  0.41785500  1
  O  O0  1  0.10426411  0.02932733  0.30896093  1
  O  O1  1  0.59997102  0.03249395  0.30841352  1
  O  O2  1  0.41560998  0.79536752  0.30573787  1
  O  O3  1  0.91332083  0.79323545  0.30552219  1
  O  O4  1  0.48948167  0.18594734  0.30323895  1
  O  O5  1  0.98419398  0.17330286  0.30709638  1
  O  O6  1  0.09832286  0.16581393  0.80697811  1
  O  O7  1  0.60382769  0.17779182  0.80869879  1
  O  O8  1  0.48430245  0.79496971  0.80634715  1
  O  O9  1  0.98706425  0.78795922  0.80164332  1
  O  O10  1  0.41324119  0.03187306  0.80510721  1
  O  O11  1  0.91687053  0.03874225  0.80464395  1
  O  O12  1  0.39766994  0.96789120  0.69255102  1
  O  O13  1  0.90145083  0.97259810  0.69258444  1
  O  O14  1  0.08142328  0.19958182  0.69429536  1
  O  O15  1  0.58379020  0.19475176  0.69421964  1
  O  O16  1  0.01262130  0.81546439  0.69775745  1
  O  O17  1  0.51361023  0.82767777  0.69310089  1
  O  O18  1  0.40046969  0.82977709  0.19380767  1
  O  O19  1  0.89829091  0.82791374  0.19279797  1
  O  O20  1  0.01351694  0.19967375  0.19376146  1
  O  O21  1  0.51300604  0.21197143  0.19911055  1
  O  O22  1  0.08380059  0.97342391  0.19500830  1
  O  O23  1  0.58147727  0.96389560  0.19538453  1
  O  O24  1  0.44495902  0.36227225  0.63536962  1
  O  O25  1  0.94093149  0.36006385  0.63500959  1
  O  O26  1  0.24894921  0.13725636  0.63710887  1
  O  O27  1  0.73888121  0.11744040  0.63387762  1
  O  O28  1  0.32387112  0.52556645  0.63458015  1
  O  O29  1  0.81932344  0.50528072  0.63815578  1
  O  O30  1  0.43759963  0.51024311  0.14162917  1
  O  O31  1  0.94506164  0.52769394  0.13554397  1
  O  O32  1  0.31415250  0.12512314  0.13881657  1
  O  O33  1  0.82562885  0.12488825  0.13459621  1
  O  O34  1  0.23759784  0.35962225  0.13341283  1
  O  O35  1  0.75024212  0.35908553  0.13705366  1
  O  O36  1  0.22709743  0.30888855  0.02992523  1
  O  O37  1  0.73262432  0.30622088  0.02529913  1
  O  O38  1  0.41897125  0.52728807  0.02848124  1
  O  O39  1  0.92712534  0.54348526  0.03240056  1
  O  O40  1  0.34184463  0.15445483  0.02691363  1
  O  O41  1  0.84832383  0.14946546  0.03155121  1
  O  O42  1  0.23162159  0.15580489  0.52504253  1
  O  O43  1  0.73020546  0.14738068  0.53081211  1
  O  O44  1  0.34678508  0.54704854  0.53150427  1
  O  O45  1  0.84409878  0.52933104  0.52767740  1
  O  O46  1  0.42698234  0.31080769  0.53239304  1
  O  O47  1  0.92345723  0.31006695  0.53200677  1
  O  O48  1  0.26863658  0.68868348  0.96913582  1
  O  O49  1  0.76851241  0.70082442  0.97313828  1
  O  O50  1  0.08311033  0.47925912  0.97161398  1
  O  O51  1  0.58178018  0.46688896  0.96971131  1
  O  O52  1  0.15696844  0.85034386  0.96837634  1
  O  O53  1  0.65619745  0.85392957  0.96944527  1
  O  O54  1  0.26951228  0.84060898  0.47330915  1
  O  O55  1  0.76854051  0.84766579  0.46981378  1
  O  O56  1  0.15599906  0.45961378  0.47064917  1
  O  O57  1  0.65834313  0.46481885  0.46936002  1
  O  O58  1  0.08204472  0.69225473  0.47101033  1
  O  O59  1  0.58313368  0.68819191  0.47247221  1
  O  O60  1  0.06083294  0.63826305  0.35789297  1
  O  O61  1  0.56602547  0.63749704  0.36051009  1
  O  O62  1  0.25098929  0.87065363  0.36255043  1
  O  O63  1  0.75969083  0.87852765  0.36673893  1
  O  O64  1  0.17788359  0.47824531  0.36686580  1
  O  O65  1  0.68389322  0.48326803  0.36664118  1
  O  O66  1  0.06481287  0.49231314  0.85889390  1
  O  O67  1  0.56152386  0.48318989  0.85684298  1
  O  O68  1  0.18110689  0.87860161  0.86561348  1
  O  O69  1  0.67843326  0.87894923  0.86551219  1
  O  O70  1  0.25948560  0.64423943  0.86605321  1
  O  O71  1  0.75193727  0.63318909  0.86181370  1
  O  O72  1  0.01445416  0.84368996  0.41388522  1
  O  O73  1  0.51561977  0.84152823  0.41302209  1
  O  O74  1  0.41122980  0.99044702  0.40998340  1
  O  O75  1  0.89624992  0.97638233  0.41443463  1
  O  O76  1  0.09023751  0.20255009  0.41468926  1
  O  O77  1  0.59023885  0.20911556  0.41329737  1
  O  O78  1  0.01549276  0.19111252  0.91265501  1
  O  O79  1  0.51399097  0.18433191  0.91178736  1
  O  O80  1  0.08822518  0.96703125  0.91145899  1
  O  O81  1  0.59090292  0.97934936  0.91294598  1
  O  O82  1  0.39589666  0.81541212  0.91342158  1
  O  O83  1  0.91034820  0.83138047  0.90886040  1
  O  O84  1  0.49037233  0.17883560  0.58713315  1
  O  O85  1  0.98547799  0.17708970  0.58679743  1
  O  O86  1  0.09270875  0.02217164  0.59088784  1
  O  O87  1  0.60162082  0.02457585  0.58699264  1
  O  O88  1  0.41030514  0.80185064  0.58758306  1
  O  O89  1  0.91727726  0.81601469  0.58912286  1
  O  O90  1  0.48757815  0.81015037  0.08700632  1
  O  O91  1  0.99033959  0.80184088  0.08712540  1
  O  O92  1  0.41665488  0.02295651  0.08965087  1
  O  O93  1  0.91249798  0.02301681  0.08780671  1
  O  O94  1  0.10007737  0.17814087  0.08727684  1
  O  O95  1  0.59352588  0.16691687  0.09103551  1
  O  O96  1  0.35021379  0.17369056  0.74244732  1
  O  O97  1  0.85395745  0.18123055  0.73935461  1
  O  O98  1  0.23767212  0.31537277  0.74458923  1
  O  O99  1  0.73943868  0.30877734  0.74393600  1
  O  O100  1  0.41869582  0.51762231  0.74016519  1
  O  O101  1  0.92605544  0.53556655  0.74271138  1
  O  O102  1  0.35129070  0.52304376  0.24324175  1
  O  O103  1  0.85056402  0.52620547  0.24261231  1
  O  O104  1  0.42513129  0.31240354  0.24637177  1
  O  O105  1  0.91881500  0.32016337  0.24124757  1
  O  O106  1  0.24161663  0.17375420  0.24419277  1
  O  O107  1  0.73842771  0.16203850  0.24578698  1
  O  O108  1  0.31535384  0.50539612  0.92406159  1
  O  O109  1  0.81774626  0.49270023  0.92415508  1
  O  O110  1  0.42347832  0.35164318  0.92196539  1
  O  O111  1  0.92656140  0.35282194  0.92493121  1
  O  O112  1  0.24135517  0.13075325  0.92396468  1
  O  O113  1  0.74286897  0.13128837  0.92242787  1
  O  O114  1  0.31820879  0.14406801  0.42428709  1
  O  O115  1  0.81739897  0.12707279  0.42679647  1
  O  O116  1  0.24234048  0.35527987  0.42393769  1
  O  O117  1  0.74305056  0.35273250  0.42656149  1
  O  O118  1  0.42716377  0.50238495  0.42658936  1
  O  O119  1  0.92492159  0.49534089  0.42522190  1
  O  O120  1  0.17682175  0.48661660  0.07460814  1
  O  O121  1  0.68177787  0.50671654  0.07775491  1
  O  O122  1  0.06699183  0.64748603  0.07452261  1
  O  O123  1  0.57677198  0.65033941  0.07494066  1
  O  O124  1  0.24666801  0.84656419  0.07344605  1
  O  O125  1  0.75808439  0.87311828  0.07696127  1
  O  O126  1  0.17706546  0.84944276  0.57745895  1
  O  O127  1  0.67816429  0.86834903  0.57530383  1
  O  O128  1  0.25559891  0.64061161  0.57682221  1
  O  O129  1  0.74713818  0.64565282  0.57377990  1
  O  O130  1  0.06487712  0.48407667  0.57479472  1
  O  O131  1  0.56725204  0.48662116  0.57443281  1
  O  O132  1  0.15010438  0.82844987  0.25369351  1
  O  O133  1  0.64880962  0.82622589  0.25859496  1
  O  O134  1  0.26046666  0.68329061  0.25750575  1
  O  O135  1  0.75812646  0.68387920  0.25858580  1
  O  O136  1  0.08331068  0.48157457  0.25589718  1
  O  O137  1  0.57671973  0.46346559  0.25719231  1
  O  O138  1  0.14791993  0.47285540  0.75758901  1
  O  O139  1  0.65039535  0.47389027  0.75330027  1
  O  O140  1  0.07675730  0.69102111  0.75522771  1
  O  O141  1  0.58359395  0.68500609  0.75517872  1
  O  O142  1  0.25717778  0.83132805  0.75723557  1
  O  O143  1  0.76075727  0.83898236  0.75625092  1
loop_
_geom_bond_atom_site_label_1
_geom_bond_atom_site_label_2
_geom_bond_distance
_geom_bond_site_symmetry_2
Na0 O132 2.390441 1_555
Na0 O103 2.400092 1_455
Na0 O105 2.454195 1_455
Na0 O136 2.477302 1_555
Na0 O60 2.685529 1_555
Na0 O31 2.897710 1_455
Na0 O3 2.906778 1_455
Na0 O22 2.985179 1_555
Na1 O102 2.313158 1_555
Na1 O133 2.406218 1_555
Na1 O104 2.625869 1_555
Na1 O137 2.688968 1_555
Na1 O30 2.694680 1_555
Na1 O23 2.738077 1_555
Na1 O2 2.825274 1_555
Na1 O61 2.976144 1_555
Na2 O97 2.310342 1_555
Na2 O138 2.353818 1_655
Na2 O101 2.622978 1_555
Na2 O140 2.683748 1_655
Na2 O11 2.707775 1_555
Na2 O66 2.777854 1_655
Na2 O14 2.811412 1_655
Na2 O25 2.963990 1_555
Na3 O139 2.402301 1_555
Na3 O96 2.408683 1_555
Na3 O100 2.447268 1_555
Na3 O141 2.461525 1_555
Na3 O67 2.622724 1_555
Na4 O79 2.382151 1_555
Na4 O109 2.420140 1_555
Na4 O81 2.626433 1_545
Na4 O113 2.657697 1_555
Na4 O51 2.775651 1_555
Na4 O7 2.807380 1_555
Na4 O37 2.810488 1_556
Na4 O71 2.819026 1_555
Na5 O72 2.389677 1_545
Na5 O114 2.418734 1_555
Na5 O76 2.622779 1_555
Na5 O116 2.641976 1_555
Na5 O0 2.725141 1_555
Na5 O62 2.777454 1_545
Na5 O42 2.854614 1_555
Na5 O58 2.875024 1_545
Na6 O89 2.505313 1_555
Na6 O72 2.521166 1_655
Na6 O86 2.571563 1_665
Na6 O85 2.718522 1_565
Na6 O76 2.764371 1_665
Na6 O75 2.764584 1_555
Na7 O73 2.451090 1_555
Na7 O74 2.467341 1_555
Na7 O77 2.661093 1_565
Na7 O88 2.715173 1_555
Na7 O84 2.796750 1_565
Na7 O87 2.833888 1_565
Na8 O78 2.500755 1_665
Na8 O83 2.536735 1_555
Na8 O93 2.676553 1_566
Na8 O80 2.718474 1_655
Na8 O91 2.751290 1_556
Na8 O94 2.788583 1_666
Na9 O92 2.477008 1_555
Na9 O90 2.495204 1_545
Na9 O95 2.538161 1_555
Na9 O79 2.686554 1_554
Na9 O82 2.829732 1_544
Na9 O81 2.855490 1_544
Na10 O110 2.598525 1_555
Na10 O98 2.646498 1_555
Na10 O96 2.662415 1_555
Na10 O100 2.672913 1_555
Na10 O108 2.748861 1_555
Na10 O112 2.782456 1_555
Na11 O109 2.622342 1_555
Na11 O111 2.625284 1_555
Na11 O113 2.659667 1_555
Na11 O99 2.682267 1_555
Na11 O97 2.750580 1_555
Na11 O101 2.803796 1_555
Na12 O106 2.523546 1_555
Na12 O102 2.528209 1_555
Na12 O104 2.637763 1_555
Na12 O114 2.748322 1_555
Na12 O118 2.800818 1_555
Na12 O116 2.811756 1_555
Na13 O107 2.515000 1_555
Na13 O105 2.563513 1_555
Na13 O103 2.575248 1_555
Na13 O119 2.776257 1_555
Na13 O115 2.869026 1_555
Na13 O117 2.908793 1_555
Na14 O134 2.491576 1_555
Na14 O132 2.537769 1_555
Na14 O136 2.617245 1_555
Na14 O124 2.699408 1_555
Na14 O120 2.846932 1_555
Na14 O122 2.945046 1_555
Na15 O121 2.495427 1_555
Na15 O123 2.576956 1_555
Na15 O125 2.638871 1_555
Na15 O135 2.745559 1_555
Na15 O133 2.823292 1_555
Na15 O137 2.846368 1_555
Na16 O142 2.536252 1_555
Na16 O126 2.559172 1_555
Na16 O128 2.677258 1_555
Na16 O138 2.720665 1_555
Na16 O140 2.772952 1_555
Na16 O130 2.887784 1_555
Na17 O143 2.456839 1_555
Na17 O139 2.479025 1_555
Na17 O141 2.543254 1_555
Na17 O129 2.763854 1_555
Na17 O127 2.861004 1_555
Na17 O131 2.961679 1_555
Hf0 O2 1.923750 1_555
Hf0 O1 1.993364 1_565
Hf0 O73 2.011079 1_555
Hf0 O74 2.072368 1_555
Hf0 O4 2.252211 1_565
Hf0 O77 2.379597 1_565
Hf1 O11 1.960059 1_555
Hf1 O78 1.981512 1_655
Hf1 O6 2.010290 1_655
Hf1 O83 2.036295 1_545
Hf1 O80 2.317347 1_645
Hf1 O9 2.327315 1_545
Hf2 O13 1.992940 1_545
Hf2 O14 2.023565 1_655
Hf2 O86 2.051988 1_655
Hf2 O89 2.058404 1_545
Hf2 O16 2.176684 1_645
Hf2 O85 2.203460 1_555
Hf3 O17 1.911438 1_555
Hf3 O12 1.938920 1_555
Hf3 O15 1.953062 1_565
Hf3 O88 2.265701 1_555
Hf3 O84 2.314640 1_565
Hf3 O87 2.346590 1_565
Hf4 O20 1.917271 1_655
Hf4 O19 1.949831 1_545
Hf4 O22 1.952330 1_645
Hf4 O93 2.252702 1_555
Hf4 O94 2.309648 1_655
Hf4 O91 2.322751 1_545
Hf5 O90 1.973699 1_555
Hf5 O18 2.021312 1_555
Hf5 O92 2.051491 1_565
Hf5 O23 2.058611 1_555
Hf5 O95 2.064820 1_565
Hf5 O21 2.340394 1_565
Hf6 O40 1.910710 1_556
Hf6 O38 1.912671 1_556
Hf6 O110 1.984348 1_555
Hf6 O36 2.285134 1_556
Hf6 O108 2.298937 1_555
Hf6 O112 2.305883 1_555
Hf7 O45 1.901039 1_555
Hf7 O119 1.937901 1_555
Hf7 O47 2.133696 1_555
Hf7 O117 2.139355 1_555
Hf7 O43 2.247087 1_555
Hf7 O115 2.255481 1_555
Hf8 O50 1.973463 1_554
Hf8 O124 1.984564 1_555
Hf8 O52 2.125548 1_554
Hf8 O48 2.133038 1_554
Hf8 O122 2.136427 1_555
Hf8 O120 2.139884 1_555
Hf9 O51 1.964676 1_554
Hf9 O121 1.973044 1_555
Hf9 O49 2.036812 1_554
Hf9 O123 2.038612 1_555
Hf9 O53 2.275230 1_554
Hf9 O125 2.312109 1_555
Hf10 O54 1.931889 1_555
Hf10 O58 1.947660 1_555
Hf10 O126 1.979639 1_555
Hf10 O56 2.233987 1_555
Hf10 O128 2.269492 1_555
Hf10 O130 2.305279 1_555
Hf11 O59 1.952411 1_555
Hf11 O129 2.013267 1_555
Hf11 O57 2.110864 1_555
Hf11 O55 2.115623 1_555
Hf11 O131 2.133386 1_555
Hf11 O127 2.160493 1_555
O0 Si0 1.658533 1_555
O0 Zr0 1.992018 1_445
O1 Si1 1.622293 1_555
O2 Si2 1.664535 1_555
O3 Si3 1.647912 1_555
O3 Zr0 1.966384 1_555
O4 S0 1.475359 1_555
O5 Si4 1.639460 1_655
O5 Zr0 1.998618 1_545
O6 Si5 1.616223 1_555
O7 Si6 1.630253 1_555
O7 Zr1 2.012477 1_555
O8 Si7 1.627954 1_555
O8 Zr1 2.017505 1_565
O9 S1 1.462110 1_655
O10 Si8 1.633665 1_545
O10 Zr1 1.982912 1_555
O11 Si9 1.649483 1_545
O12 Si8 1.643969 1_555
O13 Si9 1.628584 1_555
O14 Si5 1.632257 1_555
O15 Si6 1.648149 1_555
O16 S1 1.478165 1_555
O17 Si7 1.654863 1_555
O18 Si2 1.613851 1_555
O19 Si3 1.636482 1_555
O20 Si4 1.644811 1_555
O21 S0 1.451319 1_555
O22 Si0 1.651668 1_565
O23 Si1 1.612255 1_565
O24 S2 1.464086 1_555
O24 Zr2 2.412974 1_555
O25 S3 1.475886 1_555
O25 Zr3 2.346141 1_555
O26 Si10 1.628707 1_555
O26 Zr2 2.003591 1_555
O27 S4 1.490098 1_555
O27 Zr3 2.184795 1_555
O28 S5 1.473760 1_555
O28 Zr2 2.254733 1_555
O29 Si11 1.639114 1_555
O29 Zr3 1.987534 1_555
O30 Si12 1.645613 1_555
O30 Zr4 2.050981 1_555
O31 S6 1.463769 1_555
O31 Zr5 2.406798 1_555
O32 Si13 1.631754 1_555
O32 Zr4 1.995385 1_555
O33 S7 1.480097 1_555
O33 Zr5 2.232734 1_555
O34 S8 1.482301 1_555
O34 Zr4 2.212882 1_555
O35 Si14 1.635945 1_555
O35 Zr5 1.974008 1_555
O36 S8 1.473549 1_555
O37 Si14 1.657791 1_555
O37 Zr6 2.009314 1_554
O38 Si12 1.658328 1_555
O39 S6 1.484658 1_555
O39 Zr6 2.165750 1_554
O40 Si13 1.649369 1_555
O41 S7 1.481206 1_555
O41 Zr6 2.219541 1_554
O42 Si10 1.645966 1_555
O42 Zr7 2.040829 1_555
O43 S4 1.473978 1_555
O44 S5 1.477401 1_555
O44 Zr7 2.241054 1_555
O45 Si11 1.660342 1_555
O46 S2 1.482966 1_555
O46 Zr7 2.170829 1_555
O47 S3 1.501500 1_555
O48 S9 1.486026 1_555
O49 Si15 1.619950 1_555
O50 Si16 1.634150 1_555
O51 Si17 1.643482 1_555
O52 S10 1.494284 1_555
O53 S11 1.465193 1_555
O54 Si18 1.655635 1_555
O55 S12 1.493471 1_555
O56 S13 1.480167 1_555
O57 S14 1.496457 1_555
O58 Si19 1.658239 1_555
O59 Si20 1.647653 1_555
O60 Si19 1.611498 1_555
O60 Zr8 2.130946 1_555
O61 Si20 1.638919 1_555
O61 Zr9 2.035229 1_555
O62 Si18 1.619056 1_555
O62 Zr8 2.052976 1_555
O63 S12 1.481584 1_555
O63 Zr9 2.213369 1_555
O64 S13 1.456368 1_555
O64 Zr8 2.298305 1_555
O65 S14 1.467985 1_555
O65 Zr9 2.299888 1_555
O66 Si16 1.652741 1_555
O66 Zr10 2.025734 1_555
O67 Si17 1.634104 1_555
O67 Zr11 2.085601 1_555
O68 S10 1.486527 1_555
O68 Zr10 2.229830 1_555
O69 S11 1.475672 1_555
O69 Zr11 2.255457 1_555
O70 S9 1.493548 1_555
O70 Zr10 2.132202 1_555
O71 Si15 1.635449 1_555
O71 Zr11 2.028144 1_555
O72 Si19 1.648743 1_555
O72 Zr0 2.166176 1_455
O73 Si20 1.631850 1_555
O74 Si18 1.614024 1_555
O75 S12 1.474601 1_555
O75 Zr0 2.371707 1_555
O76 S13 1.489232 1_555
O76 Zr0 2.371872 1_445
O77 S14 1.463592 1_555
O78 Si16 1.639351 1_555
O79 Si17 1.654501 1_555
O79 Zr1 2.116261 1_555
O80 S10 1.473238 1_555
O81 S11 1.486575 1_555
O81 Zr1 2.324019 1_565
O82 S9 1.473618 1_555
O82 Zr1 2.324787 1_565
O83 Si15 1.629171 1_555
O84 S2 1.484966 1_555
O85 S3 1.485244 1_555
O86 Si10 1.629080 1_555
O87 S4 1.478313 1_555
O88 S5 1.495266 1_555
O89 Si11 1.616517 1_555
O90 Si12 1.625957 1_555
O91 S6 1.485119 1_555
O92 Si13 1.606720 1_555
O93 S7 1.497939 1_555
O94 S8 1.482472 1_555
O95 Si14 1.609589 1_555
O96 Si8 1.635179 1_545
O96 Zr2 2.022667 1_555
O97 Si9 1.666102 1_545
O97 Zr3 2.068976 1_555
O98 Si5 1.625338 1_555
O98 Zr2 1.983813 1_555
O99 Si6 1.645395 1_555
O99 Zr3 1.955378 1_555
O100 Si7 1.636503 1_555
O100 Zr2 2.074567 1_555
O101 S1 1.503476 1_655
O101 Zr3 2.240139 1_555
O102 Si2 1.647550 1_555
O102 Zr4 2.127753 1_555
O103 Si3 1.632891 1_555
O103 Zr5 2.041885 1_555
O104 S0 1.494966 1_555
O104 Zr4 2.283419 1_555
O105 Si4 1.629680 1_655
O105 Zr5 2.092099 1_555
O106 Si0 1.611692 1_555
O106 Zr4 2.079287 1_555
O107 Si1 1.627840 1_555
O107 Zr5 1.990703 1_555
O108 S9 1.473739 1_555
O109 Si15 1.673560 1_555
O109 Zr6 2.014210 1_555
O110 Si17 1.650601 1_555
O111 Si16 1.629870 1_655
O111 Zr6 2.069711 1_555
O112 S10 1.478224 1_545
O113 S11 1.508329 1_545
O113 Zr6 2.220035 1_555
O114 Si18 1.666183 1_545
O114 Zr7 1.996918 1_555
O115 S12 1.483363 1_545
O116 S13 1.508600 1_555
O116 Zr7 2.200019 1_555
O117 S14 1.505862 1_555
O118 Si20 1.636029 1_555
O118 Zr7 2.035906 1_555
O119 Si19 1.663775 1_655
O120 S8 1.503879 1_555
O121 Si14 1.639202 1_555
O122 S6 1.503373 1_455
O123 Si12 1.628315 1_555
O124 Si13 1.657593 1_565
O125 S7 1.472921 1_565
O126 Si10 1.664468 1_565
O127 S4 1.499618 1_565
O128 S5 1.489491 1_555
O129 Si11 1.641685 1_555
O130 S3 1.475185 1_455
O131 S2 1.507924 1_555
O132 Si0 1.636635 1_565
O132 Zr8 2.041222 1_555
O133 Si1 1.680188 1_565
O133 Zr9 1.976401 1_555
O134 Si2 1.619536 1_555
O134 Zr8 2.039637 1_555
O135 Si3 1.625422 1_555
O135 Zr9 2.035844 1_555
O136 Si4 1.621651 1_555
O136 Zr8 2.088538 1_555
O137 S0 1.520412 1_555
O137 Zr9 2.171171 1_555
O138 Si5 1.673279 1_555
O138 Zr10 2.017779 1_555
O139 Si6 1.624237 1_555
O139 Zr11 2.076056 1_555
O140 S1 1.496376 1_555
O140 Zr10 2.253926 1_555
O141 Si7 1.622240 1_555
O141 Zr11 2.113780 1_555
O142 Si8 1.627514 1_555
O142 Zr10 2.053091 1_555
O143 Si9 1.607458 1_555
O143 Zr11 2.089169 1_555
