# generated using pymatgen
data_MgFeCo5O12
_symmetry_space_group_name_H-M   'P 1'
_cell_length_a   4.99973371
_cell_length_b   4.96689061
_cell_length_c   9.99900200
_cell_angle_alpha   86.17824140
_cell_angle_beta   82.38998217
_cell_angle_gamma   59.78101817
_symmetry_Int_Tables_number   1
_chemical_formula_structural   MgFeCo5O12
_chemical_formula_sum   'Mg1 Fe1 Co5 O12'
_cell_volume   212.67388666
_cell_formula_units_Z   1
loop_
 _symmetry_equiv_pos_site_id
 _symmetry_equiv_pos_as_xyz
  1  'x, y, z'
loop_
 _atom_site_type_symbol
 _atom_site_label
 _atom_site_symmetry_multiplicity
 _atom_site_fract_x
 _atom_site_fract_y
 _atom_site_fract_z
 _atom_site_occupancy
  Mg  Mg0  1  0.59569700  0.00000000  0.24708800  1
  Fe  Fe0  1  0.99317000  0.00000000  0.98256200  1
  Co  Co0  1  0.18319000  0.66525300  0.49805200  1
  Co  Co1  1  0.65220200  0.66649300  0.00053300  1
  Co  Co2  1  0.31869500  0.33350700  0.00053300  1
  Co  Co3  1  0.84844400  0.33474700  0.49805200  1
  Co  Co4  1  0.51019900  0.00000000  0.50961600  1
  O  O0  1  0.94333800  0.67172300  0.10306600  1
  O  O1  1  0.37259900  0.64164800  0.90240200  1
  O  O2  1  0.23642300  0.31581700  0.39732500  1
  O  O3  1  0.55224100  0.68418300  0.39732500  1
  O  O4  1  0.47914100  0.34267400  0.59591700  1
  O  O5  1  0.15511400  0.00000000  0.59641700  1
  O  O6  1  0.82181500  0.65732600  0.59591700  1
  O  O7  1  0.61506200  0.32827700  0.10306600  1
  O  O8  1  0.31286100  0.00000000  0.10541600  1
  O  O9  1  0.01424700  0.35835200  0.90240200  1
  O  O10  1  0.64892300  0.00000000  0.90082000  1
  O  O11  1  0.85913700  0.00000000  0.40099200  1
loop_
_geom_bond_atom_site_label_1
_geom_bond_atom_site_label_2
_geom_bond_distance
_geom_bond_site_symmetry_2
Mg0 O8 2.130012 1_555
Mg0 O0 2.133246 1_545
Mg0 O7 2.133248 1_555
Mg0 O11 2.154031 1_555
Mg0 O3 2.169553 1_545
Mg0 O2 2.169556 1_555
Fe0 O9 1.948800 1_655
Fe0 O1 1.948800 1_645
Fe0 O10 2.000742 1_555
Fe0 O7 2.059125 1_556
Fe0 O0 2.059127 1_546
Fe0 O8 2.140990 1_656
Co0 O4 1.871406 1_555
Co0 O5 1.923014 1_565
Co0 O2 1.947976 1_555
Co0 O11 1.954743 1_465
Co0 O6 1.954932 1_455
Co0 O3 2.024261 1_555
Co1 O1 1.866905 1_554
Co1 O10 1.869528 1_564
Co1 O9 1.876919 1_654
Co1 O0 1.899319 1_555
Co1 O8 1.911439 1_565
Co1 O7 1.985338 1_555
Co2 O9 1.866905 1_554
Co2 O10 1.869528 1_554
Co2 O1 1.876919 1_554
Co2 O7 1.899323 1_555
Co2 O8 1.911439 1_555
Co2 O0 1.985340 1_455
Co3 O6 1.871404 1_555
Co3 O5 1.923012 1_655
Co3 O3 1.947975 1_555
Co3 O11 1.954745 1_555
Co3 O4 1.954936 1_555
Co3 O2 2.024253 1_655
Co4 O5 1.870021 1_555
Co4 O6 1.886768 1_545
Co4 O4 1.886768 1_555
Co4 O3 1.898901 1_545
Co4 O2 1.898903 1_555
Co4 O11 1.929101 1_555
