# generated using pymatgen
data_Na6Nb8Zn16Si3(S11O48)3
_symmetry_space_group_name_H-M   'P 1'
_cell_length_a   17.56563930
_cell_length_b   8.77821166
_cell_length_c   22.71784559
_cell_angle_alpha   90.17592879
_cell_angle_beta   89.83952558
_cell_angle_gamma   119.99454986
_symmetry_Int_Tables_number   1
_chemical_formula_structural   Na6Nb8Zn16Si3(S11O48)3
_chemical_formula_sum   'Na6 Nb8 Zn16 Si3 S33 O144'
_cell_volume   3033.81518898
_cell_formula_units_Z   1
loop_
 _symmetry_equiv_pos_site_id
 _symmetry_equiv_pos_as_xyz
  1  'x, y, z'
loop_
 _atom_site_type_symbol
 _atom_site_label
 _atom_site_symmetry_multiplicity
 _atom_site_fract_x
 _atom_site_fract_y
 _atom_site_fract_z
 _atom_site_occupancy
  Na  Na0  1  0.00087332  0.99239070  0.49107688  1
  Na  Na1  1  0.49292970  0.00210104  0.99901277  1
  Na  Na2  1  0.33327728  0.33355534  0.83892421  1
  Na  Na3  1  0.84132207  0.34672824  0.82909746  1
  Na  Na4  1  0.33460784  0.33792371  0.33341266  1
  Na  Na5  1  0.83552526  0.33712649  0.33880442  1
  Nb  Nb0  1  0.00137171  0.99173988  0.64566906  1
  Nb  Nb1  1  0.49949750  0.99984939  0.64020655  1
  Nb  Nb2  1  0.00320887  0.00159946  0.14336984  1
  Nb  Nb3  1  0.66050823  0.64994789  0.02259263  1
  Nb  Nb4  1  0.16413027  0.66576602  0.31595745  1
  Nb  Nb5  1  0.66499176  0.66536075  0.31293743  1
  Nb  Nb6  1  0.16219103  0.66761908  0.81144004  1
  Nb  Nb7  1  0.66273204  0.65837407  0.81045950  1
  Zn  Zn0  1  0.00053619  0.99000399  0.35523949  1
  Zn  Zn1  1  0.49823980  0.99672246  0.35233349  1
  Zn  Zn2  1  0.00137736  0.99478850  0.85325699  1
  Zn  Zn3  1  0.49603573  0.00438318  0.85627257  1
  Zn  Zn4  1  0.49182632  0.99723098  0.15120415  1
  Zn  Zn5  1  0.33135245  0.33129758  0.68154410  1
  Zn  Zn6  1  0.84170060  0.34637804  0.68271912  1
  Zn  Zn7  1  0.33712996  0.33279545  0.18074121  1
  Zn  Zn8  1  0.83034845  0.33082350  0.18401316  1
  Zn  Zn9  1  0.33563248  0.32317203  0.97983271  1
  Zn  Zn10  1  0.83921438  0.34077894  0.98214508  1
  Zn  Zn11  1  0.33174081  0.32936542  0.48085619  1
  Zn  Zn12  1  0.84450170  0.34891790  0.47861127  1
  Zn  Zn13  1  0.17309605  0.67884343  0.02082665  1
  Zn  Zn14  1  0.15962964  0.66636883  0.51813308  1
  Zn  Zn15  1  0.66758557  0.66689874  0.51935953  1
  Si  Si0  1  0.99145080  0.70064321  0.75397607  1
  Si  Si1  1  0.51404263  0.36193261  0.91583990  1
  Si  Si2  1  0.01524769  0.66707287  0.42128173  1
  S  S0  1  0.14720384  0.00470425  0.25057170  1
  S  S1  1  0.64651506  0.00575467  0.25060092  1
  S  S2  1  0.35470973  0.70380587  0.25087382  1
  S  S3  1  0.85550834  0.70795776  0.25041084  1
  S  S4  1  0.99829339  0.28597212  0.25140506  1
  S  S5  1  0.49769025  0.28841933  0.25113282  1
  S  S6  1  0.14766599  0.29018107  0.75122533  1
  S  S7  1  0.64407588  0.28194618  0.75052443  1
  S  S8  1  0.49751903  0.71132768  0.75100805  1
  S  S9  1  0.35631018  0.00439682  0.75035650  1
  S  S10  1  0.85577406  0.00310795  0.75190876  1
  S  S11  1  0.47923489  0.34144126  0.58341573  1
  S  S12  1  0.98038988  0.33361842  0.58336341  1
  S  S13  1  0.19075238  0.04279227  0.58343012  1
  S  S14  1  0.69327623  0.04508920  0.58344137  1
  S  S15  1  0.32860033  0.61731364  0.58297094  1
  S  S16  1  0.82939873  0.62163212  0.58315423  1
  S  S17  1  0.47710732  0.63044712  0.08287663  1
  S  S18  1  0.97910120  0.61784507  0.08417088  1
  S  S19  1  0.33407685  0.04039174  0.08341879  1
  S  S20  1  0.83327501  0.04418966  0.08347007  1
  S  S21  1  0.19209460  0.34290203  0.08316067  1
  S  S22  1  0.68770710  0.32505015  0.08273572  1
  S  S23  1  0.31098626  0.66410917  0.91702737  1
  S  S24  1  0.81135372  0.66715656  0.91712213  1
  S  S25  1  0.02079507  0.37271798  0.91798976  1
  S  S26  1  0.16484493  0.95700923  0.91830514  1
  S  S27  1  0.66883536  0.95701038  0.91731259  1
  S  S28  1  0.31449326  0.96011738  0.41790788  1
  S  S29  1  0.81053865  0.95617358  0.41781591  1
  S  S30  1  0.16829395  0.37615396  0.41805881  1
  S  S31  1  0.66384580  0.37173672  0.41727459  1
  S  S32  1  0.52048789  0.66808782  0.41813732  1
  O  O0  1  0.10575602  0.03152084  0.30153775  1
  O  O1  1  0.60719736  0.03098519  0.30374351  1
  O  O2  1  0.40906919  0.78419585  0.30338643  1
  O  O3  1  0.90823012  0.78927625  0.30214698  1
  O  O4  1  0.48567550  0.18489891  0.30391711  1
  O  O5  1  0.98576563  0.17866152  0.30295378  1
  O  O6  1  0.10806556  0.18702535  0.80357962  1
  O  O7  1  0.60328375  0.17970098  0.80315111  1
  O  O8  1  0.48736638  0.79305665  0.80373656  1
  O  O9  1  0.98209679  0.79559618  0.80978503  1
  O  O10  1  0.41005379  0.03297455  0.80235022  1
  O  O11  1  0.90828002  0.03277916  0.80427607  1
  O  O12  1  0.39870991  0.97540673  0.69668241  1
  O  O13  1  0.89706415  0.97282348  0.69819835  1
  O  O14  1  0.09129876  0.21027147  0.69725272  1
  O  O15  1  0.58708241  0.20339399  0.69723568  1
  O  O16  1  0.01213450  0.83321179  0.69424540  1
  O  O17  1  0.51239597  0.82222112  0.69738979  1
  O  O18  1  0.39065114  0.81000930  0.19739590  1
  O  O19  1  0.89703755  0.82041973  0.19643792  1
  O  O20  1  0.01056077  0.19726689  0.19684311  1
  O  O21  1  0.51887229  0.22387576  0.19776737  1
  O  O22  1  0.08890098  0.97549186  0.19646381  1
  O  O23  1  0.59417940  0.96816989  0.19711656  1
  O  O24  1  0.44010700  0.36336186  0.63741598  1
  O  O25  1  0.94033481  0.35640685  0.63666798  1
  O  O26  1  0.23934931  0.12513476  0.63757719  1
  O  O27  1  0.74208985  0.12409334  0.63746257  1
  O  O28  1  0.31919855  0.51982469  0.63725783  1
  O  O29  1  0.81831783  0.52214448  0.63690203  1
  O  O30  1  0.44624311  0.52548627  0.13626898  1
  O  O31  1  0.93839969  0.51465700  0.13714399  1
  O  O32  1  0.32093236  0.11971864  0.13737335  1
  O  O33  1  0.81661116  0.11560850  0.13654170  1
  O  O34  1  0.24160418  0.36347092  0.13695257  1
  O  O35  1  0.74066730  0.36442426  0.13582771  1
  O  O36  1  0.22329837  0.29505546  0.03090719  1
  O  O37  1  0.72846354  0.30406486  0.02913482  1
  O  O38  1  0.42537124  0.54940269  0.03005696  1
  O  O39  1  0.92348445  0.55578829  0.03164865  1
  O  O40  1  0.34989951  0.15118331  0.03056415  1
  O  O41  1  0.85324257  0.15240617  0.03087533  1
  O  O42  1  0.22537572  0.15371163  0.53083954  1
  O  O43  1  0.72425442  0.15473446  0.53124824  1
  O  O44  1  0.35397651  0.55297366  0.53141829  1
  O  O45  1  0.85206208  0.55629931  0.53074594  1
  O  O46  1  0.42357154  0.29401800  0.53137817  1
  O  O47  1  0.92410533  0.28823347  0.53099982  1
  O  O48  1  0.27187079  0.69300386  0.96971269  1
  O  O49  1  0.76423961  0.68439437  0.97019466  1
  O  O50  1  0.07360478  0.45666010  0.96981937  1
  O  O51  1  0.58188802  0.47978764  0.97250731  1
  O  O52  1  0.15303526  0.84866570  0.96959441  1
  O  O53  1  0.66031426  0.84696343  0.97017982  1
  O  O54  1  0.27523045  0.85490673  0.47007854  1
  O  O55  1  0.77026228  0.84729046  0.46973171  1
  O  O56  1  0.15859851  0.45811241  0.47082738  1
  O  O57  1  0.65200780  0.45628834  0.46910409  1
  O  O58  1  0.07906460  0.69968381  0.47465976  1
  O  O59  1  0.57407456  0.69121333  0.46987838  1
  O  O60  1  0.07341122  0.64572247  0.36029274  1
  O  O61  1  0.56837667  0.64331558  0.36338109  1
  O  O62  1  0.25429697  0.86415436  0.36302489  1
  O  O63  1  0.75401803  0.85838414  0.36289254  1
  O  O64  1  0.18080380  0.49113422  0.36271018  1
  O  O65  1  0.67641150  0.49458074  0.36277833  1
  O  O66  1  0.06749929  0.49222021  0.86308985  1
  O  O67  1  0.57450822  0.50116038  0.85960819  1
  O  O68  1  0.17708009  0.86086936  0.86352328  1
  O  O69  1  0.68086662  0.86923186  0.86274961  1
  O  O70  1  0.25621272  0.64771427  0.86266093  1
  O  O71  1  0.75366082  0.64322972  0.86347749  1
  O  O72  1  0.01028623  0.84260533  0.41162397  1
  O  O73  1  0.51365700  0.82299232  0.40685235  1
  O  O74  1  0.39981532  0.97767755  0.40600813  1
  O  O75  1  0.89750427  0.97692726  0.40880177  1
  O  O76  1  0.08867716  0.20663262  0.40840596  1
  O  O77  1  0.58554900  0.20408862  0.40578096  1
  O  O78  1  0.01251214  0.20253895  0.90588211  1
  O  O79  1  0.51876496  0.18593711  0.91461491  1
  O  O80  1  0.08801588  0.97437988  0.90938301  1
  O  O81  1  0.58780032  0.96261770  0.91245109  1
  O  O82  1  0.39953486  0.81962972  0.90979334  1
  O  O83  1  0.89450202  0.82663561  0.91285255  1
  O  O84  1  0.48825411  0.17296901  0.59519830  1
  O  O85  1  0.98916070  0.16769141  0.59380110  1
  O  O86  1  0.09807736  0.02926096  0.59119417  1
  O  O87  1  0.59767600  0.02390164  0.59640580  1
  O  O88  1  0.41384369  0.80483609  0.59527109  1
  O  O89  1  0.91307947  0.81087034  0.59234875  1
  O  O90  1  0.49478121  0.81163870  0.08896934  1
  O  O91  1  0.98807136  0.80369945  0.09632595  1
  O  O92  1  0.41467962  0.02308410  0.08869007  1
  O  O93  1  0.91223174  0.01945467  0.09437574  1
  O  O94  1  0.09737056  0.17102223  0.09625681  1
  O  O95  1  0.59777292  0.17842403  0.08851594  1
  O  O96  1  0.34353369  0.15556159  0.74160005  1
  O  O97  1  0.83781037  0.14599010  0.74228226  1
  O  O98  1  0.23613273  0.31517138  0.74214154  1
  O  O99  1  0.73162746  0.30903359  0.74168744  1
  O  O100  1  0.42339501  0.53336732  0.74270612  1
  O  O101  1  0.91279929  0.50547189  0.74459956  1
  O  O102  1  0.34209369  0.52449767  0.24388541  1
  O  O103  1  0.84252776  0.53089066  0.24162152  1
  O  O104  1  0.42289755  0.31912554  0.24505997  1
  O  O105  1  0.92305771  0.31170686  0.24181159  1
  O  O106  1  0.23452679  0.15675717  0.24106319  1
  O  O107  1  0.73747757  0.15536947  0.24456139  1
  O  O108  1  0.31421405  0.50017121  0.91950058  1
  O  O109  1  0.81501083  0.50378270  0.92122183  1
  O  O110  1  0.42534713  0.36752682  0.91763074  1
  O  O111  1  0.93371695  0.36358881  0.91936546  1
  O  O112  1  0.24685501  0.12773194  0.91816098  1
  O  O113  1  0.74829385  0.12982259  0.92200309  1
  O  O114  1  0.31793741  0.13255179  0.41856156  1
  O  O115  1  0.81048486  0.12268820  0.41859351  1
  O  O116  1  0.24926988  0.36295831  0.41857414  1
  O  O117  1  0.74485057  0.36340122  0.41809782  1
  O  O118  1  0.43462563  0.50346110  0.41927123  1
  O  O119  1  0.92339461  0.48420275  0.41592593  1
  O  O120  1  0.17199346  0.48286233  0.07594299  1
  O  O121  1  0.68064171  0.49464994  0.07384719  1
  O  O122  1  0.06763253  0.65030324  0.07612522  1
  O  O123  1  0.57040924  0.64981345  0.07246131  1
  O  O124  1  0.25541542  0.86554120  0.07693025  1
  O  O125  1  0.75743024  0.86417081  0.07322292  1
  O  O126  1  0.17697433  0.86704310  0.57866875  1
  O  O127  1  0.67362899  0.86428077  0.57634312  1
  O  O128  1  0.25735592  0.65223137  0.57507158  1
  O  O129  1  0.75588163  0.65284337  0.57604485  1
  O  O130  1  0.06929869  0.48056612  0.57701472  1
  O  O131  1  0.56855707  0.48542867  0.57607193  1
  O  O132  1  0.15278317  0.83992853  0.25498977  1
  O  O133  1  0.65607458  0.84119784  0.26174110  1
  O  O134  1  0.26532665  0.68713301  0.26095543  1
  O  O135  1  0.76662284  0.69462614  0.25666103  1
  O  O136  1  0.08184022  0.46025569  0.25555648  1
  O  O137  1  0.57982997  0.47272395  0.26153056  1
  O  O138  1  0.15530023  0.46874578  0.75793688  1
  O  O139  1  0.65172086  0.46417321  0.75682901  1
  O  O140  1  0.08618022  0.69326288  0.76158970  1
  O  O141  1  0.58194001  0.70073166  0.75683285  1
  O  O142  1  0.26894809  0.83910641  0.75672328  1
  O  O143  1  0.76741177  0.83418387  0.75950589  1
loop_
_geom_bond_atom_site_label_1
_geom_bond_atom_site_label_2
_geom_bond_distance
_geom_bond_site_symmetry_2
Na0 O72 2.283704 1_555
Na0 O76 2.558963 1_565
Na0 O75 2.565143 1_455
Na0 O86 2.767302 1_565
Na0 O89 2.784978 1_455
Na0 O85 2.854496 1_465
Na1 O79 2.401714 1_555
Na1 O92 2.511742 1_556
Na1 O82 2.595498 1_545
Na1 O90 2.654896 1_546
Na1 O95 2.659574 1_556
Na1 O81 2.705416 1_545
Na2 O110 2.330728 1_555
Na2 O112 2.464054 1_555
Na2 O108 2.464125 1_555
Na2 O98 2.741464 1_555
Na2 O100 2.754707 1_555
Na2 O96 2.760482 1_555
Na3 O101 2.335964 1_555
Na3 O111 2.576414 1_555
Na3 O97 2.620940 1_555
Na3 O109 2.666145 1_555
Na3 O99 2.673099 1_555
Na3 O113 2.764930 1_555
Na4 O116 2.519695 1_555
Na4 O118 2.540073 1_555
Na4 O114 2.562841 1_555
Na4 O102 2.576796 1_555
Na4 O104 2.587972 1_555
Na4 O106 2.688127 1_555
Na5 O119 2.264434 1_555
Na5 O117 2.486706 1_555
Na5 O115 2.492217 1_555
Na5 O107 2.710712 1_555
Na5 O105 2.755032 1_555
Na5 O103 2.755881 1_555
Nb0 O16 1.861112 1_555
Nb0 O89 1.982466 1_455
Nb0 O86 1.989199 1_565
Nb0 O85 2.040564 1_465
Nb0 O13 2.119788 1_455
Nb0 O14 2.124918 1_565
Nb1 O87 1.906954 1_565
Nb1 O88 1.912850 1_555
Nb1 O84 1.924754 1_565
Nb1 O12 2.106094 1_555
Nb1 O15 2.118128 1_565
Nb1 O17 2.130150 1_555
Nb2 O94 1.906182 1_555
Nb2 O91 1.938849 1_445
Nb2 O93 2.019586 1_455
Nb2 O22 2.032218 1_545
Nb2 O20 2.051556 1_555
Nb2 O19 2.120047 1_445
Nb3 O51 1.835453 1_554
Nb3 O123 1.943283 1_555
Nb3 O121 1.957907 1_555
Nb3 O49 2.065835 1_554
Nb3 O53 2.104122 1_554
Nb3 O125 2.134108 1_555
Nb4 O60 1.815639 1_555
Nb4 O62 1.981147 1_555
Nb4 O64 2.006109 1_555
Nb4 O134 2.100459 1_555
Nb4 O132 2.148178 1_555
Nb4 O136 2.148354 1_555
Nb5 O65 1.970302 1_555
Nb5 O61 1.973061 1_555
Nb5 O137 1.982329 1_555
Nb5 O63 1.988283 1_555
Nb5 O133 2.003384 1_555
Nb5 O135 2.101948 1_555
Nb6 O140 1.851069 1_555
Nb6 O68 1.972807 1_555
Nb6 O66 1.988383 1_555
Nb6 O138 2.077548 1_555
Nb6 O70 2.100648 1_555
Nb6 O142 2.122219 1_555
Nb7 O67 1.847776 1_555
Nb7 O139 2.021596 1_555
Nb7 O141 2.043660 1_555
Nb7 O71 2.059991 1_555
Nb7 O143 2.065070 1_555
Nb7 O69 2.082728 1_555
O0 S0 1.446041 1_555
O0 Zn0 2.086590 1_545
O1 S1 1.459520 1_555
O1 Zn1 2.094439 1_545
O2 S2 1.469837 1_555
O2 Zn1 2.060511 1_555
O3 S3 1.445196 1_555
O3 Zn0 2.080846 1_655
O4 S5 1.456637 1_555
O4 Zn1 2.089058 1_545
O5 S4 1.450955 1_555
O5 Zn0 2.159682 1_645
O6 S6 1.445909 1_555
O6 Zn2 2.114538 1_545
O7 S7 1.451601 1_555
O7 Zn3 2.115120 1_555
O8 S8 1.450131 1_555
O8 Zn3 2.143338 1_565
O9 Si0 1.567958 1_555
O9 Zn2 1.883253 1_655
O10 S9 1.454986 1_555
O10 Zn3 2.058144 1_555
O11 S10 1.448399 1_555
O11 Zn2 2.140421 1_645
O12 S9 1.512879 1_565
O13 S10 1.507115 1_565
O14 S6 1.510933 1_555
O15 S7 1.501582 1_555
O16 Si0 1.706387 1_455
O17 S8 1.500263 1_555
O18 S2 1.468976 1_555
O18 Zn4 2.010097 1_555
O19 S3 1.514122 1_555
O20 S4 1.532821 1_455
O21 S5 1.460571 1_555
O21 Zn4 2.085135 1_545
O22 S0 1.538864 1_565
O23 S1 1.459749 1_565
O23 Zn4 2.203665 1_555
O24 S11 1.463024 1_555
O24 Zn5 2.046223 1_555
O25 S12 1.461492 1_555
O25 Zn6 1.985439 1_555
O26 S13 1.465544 1_555
O26 Zn5 1.989548 1_555
O27 S14 1.458910 1_555
O27 Zn6 2.123715 1_555
O28 S15 1.464461 1_555
O28 Zn5 2.039920 1_555
O29 S16 1.458343 1_555
O29 Zn6 2.068470 1_555
O30 S17 1.455286 1_555
O30 Zn7 2.076915 1_555
O31 S18 1.460914 1_555
O31 Zn8 2.068117 1_555
O32 S19 1.481404 1_555
O32 Zn7 2.002075 1_555
O33 S20 1.452318 1_555
O33 Zn8 2.079307 1_555
O34 S21 1.459415 1_555
O34 Zn7 2.083375 1_555
O35 S22 1.456670 1_555
O35 Zn8 2.059879 1_555
O36 S21 1.452404 1_555
O36 Zn9 2.191532 1_554
O37 S22 1.467941 1_555
O37 Zn10 2.095629 1_554
O38 S17 1.458192 1_555
O38 Zn9 2.143991 1_554
O39 S18 1.464689 1_555
O39 Zn10 2.054533 1_554
O40 S19 1.483216 1_555
O40 Zn9 2.015201 1_554
O41 S20 1.457584 1_555
O41 Zn10 2.107309 1_554
O42 S13 1.468448 1_555
O42 Zn11 2.067895 1_555
O43 S14 1.451946 1_555
O43 Zn12 2.279368 1_555
O44 S15 1.460833 1_555
O44 Zn11 2.132370 1_555
O45 S16 1.458201 1_555
O45 Zn12 2.116678 1_555
O46 S11 1.457174 1_555
O46 Zn11 2.128046 1_555
O47 S12 1.470093 1_555
O47 Zn12 2.100812 1_555
O48 S23 1.461767 1_555
O48 Zn13 2.036705 1_556
O49 S24 1.509966 1_555
O50 S25 1.451634 1_555
O50 Zn13 2.188702 1_556
O51 Si1 1.707500 1_555
O52 S26 1.453751 1_555
O52 Zn13 2.058948 1_556
O53 S27 1.503200 1_555
O54 S28 1.448661 1_555
O54 Zn14 2.166284 1_555
O55 S29 1.459881 1_555
O55 Zn15 2.043426 1_555
O56 S30 1.449058 1_555
O56 Zn14 2.110031 1_555
O57 S31 1.458798 1_555
O57 Zn15 2.068652 1_555
O58 Si2 1.579136 1_555
O58 Zn14 1.867362 1_555
O59 S32 1.456908 1_555
O59 Zn15 2.090356 1_555
O60 Si2 1.783423 1_555
O61 S32 1.574060 1_555
O62 S28 1.578797 1_555
O63 S29 1.558100 1_555
O64 S30 1.559669 1_555
O65 S31 1.585240 1_555
O66 S25 1.571892 1_555
O67 Si1 1.719831 1_555
O68 S26 1.575012 1_555
O69 S27 1.526554 1_555
O70 S23 1.529370 1_555
O71 S24 1.532598 1_555
O72 Si2 1.602010 1_555
O72 Zn0 1.891365 1_555
O73 S32 1.447267 1_555
O73 Zn1 2.087943 1_555
O74 S28 1.452602 1_555
O74 Zn1 2.050446 1_555
O75 S29 1.459085 1_555
O75 Zn0 2.133093 1_655
O76 S30 1.461950 1_555
O76 Zn0 2.127144 1_545
O77 S31 1.449638 1_555
O77 Zn1 2.084586 1_545
O78 S25 1.452189 1_555
O78 Zn2 2.103481 1_545
O79 Si1 1.588177 1_555
O79 Zn3 1.951886 1_555
O80 S26 1.446754 1_555
O80 Zn2 2.063689 1_555
O81 S27 1.453185 1_555
O81 Zn3 2.228619 1_565
O82 S23 1.478826 1_555
O82 Zn3 2.057636 1_565
O83 S24 1.434624 1_555
O83 Zn2 2.182565 1_655
O84 S11 1.587696 1_555
O85 S12 1.558259 1_555
O86 S13 1.581283 1_555
O87 S14 1.620680 1_555
O88 S15 1.601546 1_555
O89 S16 1.588072 1_555
O90 S17 1.466470 1_555
O90 Zn4 2.173895 1_555
O91 S18 1.582158 1_555
O92 S19 1.502717 1_555
O92 Zn4 2.055495 1_545
O93 S20 1.528213 1_555
O94 S21 1.619703 1_555
O95 S22 1.461647 1_555
O95 Zn4 2.249651 1_545
O96 S9 1.466417 1_555
O96 Zn5 2.152107 1_555
O97 S10 1.455443 1_555
O97 Zn6 2.196324 1_555
O98 S6 1.470778 1_555
O98 Zn5 2.112895 1_555
O99 S7 1.447384 1_555
O99 Zn6 2.234945 1_555
O100 S8 1.461899 1_555
O100 Zn5 2.195695 1_555
O101 Si0 1.588132 1_555
O101 Zn6 1.933978 1_555
O102 S2 1.483818 1_555
O102 Zn7 2.176326 1_555
O103 S3 1.466905 1_555
O103 Zn8 2.110617 1_555
O104 S5 1.474117 1_555
O104 Zn7 2.147871 1_555
O105 S4 1.464744 1_555
O105 Zn8 2.165836 1_555
O106 S0 1.460795 1_555
O106 Zn7 2.174560 1_555
O107 S1 1.482720 1_555
O107 Zn8 2.100899 1_555
O108 S23 1.469498 1_555
O108 Zn9 2.243805 1_555
O109 S24 1.470543 1_555
O109 Zn10 2.183450 1_555
O110 Si1 1.583521 1_555
O110 Zn9 2.002324 1_555
O111 S25 1.491380 1_655
O111 Zn10 2.118006 1_555
O112 S26 1.470586 1_545
O112 Zn9 2.158850 1_555
O113 S27 1.464089 1_545
O113 Zn10 2.210505 1_555
O114 S28 1.484376 1_545
O114 Zn11 2.148140 1_555
O115 S29 1.462226 1_545
O115 Zn12 2.227414 1_555
O116 S30 1.483777 1_555
O116 Zn11 2.151441 1_555
O117 S31 1.461029 1_555
O117 Zn12 2.281918 1_555
O118 S32 1.478037 1_555
O118 Zn11 2.190110 1_555
O119 Si2 1.614075 1_655
O119 Zn12 1.926816 1_555
O120 S21 1.447866 1_555
O120 Zn13 2.123116 1_555
O121 S22 1.568241 1_555
O122 S18 1.445222 1_455
O122 Zn13 2.144226 1_555
O123 S17 1.578103 1_555
O124 S19 1.471759 1_565
O124 Zn13 2.007329 1_555
O125 S20 1.490239 1_565
O126 S13 1.440901 1_565
O126 Zn14 2.130275 1_555
O127 S14 1.454408 1_565
O127 Zn15 2.119510 1_555
O128 S15 1.441324 1_555
O128 Zn14 2.204954 1_555
O129 S16 1.457392 1_555
O129 Zn15 2.069443 1_555
O130 S12 1.452391 1_455
O130 Zn14 2.093134 1_555
O131 S11 1.450581 1_555
O131 Zn15 2.110189 1_555
O132 S0 1.501512 1_565
O133 S1 1.556880 1_565
O134 S2 1.519025 1_555
O135 S3 1.512541 1_555
O136 S4 1.502747 1_455
O137 S5 1.555858 1_555
O138 S6 1.512185 1_555
O139 S7 1.543139 1_555
O140 Si0 1.706581 1_455
O141 S8 1.537616 1_555
O142 S9 1.501638 1_565
O143 S10 1.528604 1_565
