# generated using pymatgen
data_BiTePd
_symmetry_space_group_name_H-M   'P 1'
_cell_length_a   6.72362166
_cell_length_b   6.72362166
_cell_length_c   6.72362166
_cell_angle_alpha   90.00000000
_cell_angle_beta   90.00000000
_cell_angle_gamma   90.00000000
_symmetry_Int_Tables_number   1
_chemical_formula_structural   BiTePd
_chemical_formula_sum   'Bi4 Te4 Pd4'
_cell_volume   303.95535759
_cell_formula_units_Z   4
loop_
 _symmetry_equiv_pos_site_id
 _symmetry_equiv_pos_as_xyz
  1  'x, y, z'
loop_
 _atom_site_type_symbol
 _atom_site_label
 _atom_site_symmetry_multiplicity
 _atom_site_fract_x
 _atom_site_fract_y
 _atom_site_fract_z
 _atom_site_occupancy
  Bi  Bi0  1  0.36907552  0.36907552  0.36907552  1
  Bi  Bi1  1  0.13092448  0.63092448  0.86907552  1
  Bi  Bi2  1  0.86907552  0.13092448  0.63092448  1
  Bi  Bi3  1  0.63092448  0.86907552  0.13092448  1
  Te  Te0  1  0.62544228  0.62544228  0.62544228  1
  Te  Te1  1  0.87455772  0.37455772  0.12544228  1
  Te  Te2  1  0.12544228  0.87455772  0.37455772  1
  Te  Te3  1  0.37455772  0.12544228  0.87455772  1
  Pd  Pd0  1  0.00397129  0.00397129  0.00397129  1
  Pd  Pd1  1  0.49602871  0.99602871  0.50397129  1
  Pd  Pd2  1  0.50397129  0.49602871  0.99602871  1
  Pd  Pd3  1  0.99602871  0.50397129  0.49602871  1
loop_
_geom_bond_atom_site_label_1
_geom_bond_atom_site_label_2
_geom_bond_distance
_geom_bond_site_symmetry_2
Bi0 Pd3 2.800434 1_455
Bi0 Pd2 2.800434 1_554
Bi0 Pd1 2.800434 1_545
Bi0 Te0 2.985559 1_555
Bi1 Pd0 2.800434 1_566
Bi1 Pd3 2.800434 1_455
Bi1 Pd2 2.800434 1_555
Bi1 Te1 2.985559 1_456
Bi2 Pd0 2.800434 1_656
Bi2 Pd3 2.800434 1_555
Bi2 Pd1 2.800434 1_545
Bi2 Te2 2.985559 1_645
Bi3 Pd1 2.800434 1_555
Bi3 Pd2 2.800434 1_554
Bi3 Pd0 2.800434 1_665
Bi3 Te3 2.985559 1_564
Pd0 Te3 2.762724 1_554
Pd0 Te2 2.762724 1_545
Pd0 Te1 2.762724 1_455
Pd1 Te3 2.762724 1_565
Pd1 Te2 2.762724 1_555
Pd1 Te0 2.762724 1_555
Pd2 Te1 2.762724 1_556
Pd2 Te3 2.762724 1_555
Pd2 Te0 2.762724 1_555
Pd3 Te2 2.762724 1_655
Pd3 Te0 2.762724 1_555
Pd3 Te1 2.762724 1_555
