# generated using pymatgen
data_ReH12C4O5F
_symmetry_space_group_name_H-M   'P 1'
_cell_length_a   6.37771400
_cell_length_b   6.88798535
_cell_length_c   12.78209653
_cell_angle_alpha   78.31677148
_cell_angle_beta   81.80995781
_cell_angle_gamma   63.51613459
_symmetry_Int_Tables_number   1
_chemical_formula_structural   ReH12C4O5F
_chemical_formula_sum   'Re2 H24 C8 O10 F2'
_cell_volume   491.30275302
_cell_formula_units_Z   2
loop_
 _symmetry_equiv_pos_site_id
 _symmetry_equiv_pos_as_xyz
  1  'x, y, z'
loop_
 _atom_site_type_symbol
 _atom_site_label
 _atom_site_symmetry_multiplicity
 _atom_site_fract_x
 _atom_site_fract_y
 _atom_site_fract_z
 _atom_site_occupancy
  Re  Re0  1  0.66126300  0.59159500  0.73253200  1
  Re  Re1  1  0.33873700  0.40840500  0.26746800  1
  H  H0  1  0.03939600  0.66132700  0.86485300  1
  H  H1  1  0.96060400  0.33867300  0.13514700  1
  H  H2  1  0.18096400  0.83487600  0.86572300  1
  H  H3  1  0.81903600  0.16512400  0.13427700  1
  H  H4  1  0.15628800  0.65698800  0.98627300  1
  H  H5  1  0.84371200  0.34301200  0.01372700  1
  H  H6  1  0.84253400  0.98879900  0.65435400  1
  H  H7  1  0.15746600  0.01120100  0.34564600  1
  H  H8  1  0.40929700  0.26674600  0.99761200  1
  H  H9  1  0.59070300  0.73325400  0.00238800  1
  H  H10  1  0.60380700  0.17489900  0.88294300  1
  H  H11  1  0.39619300  0.82510100  0.11705700  1
  H  H12  1  0.29415000  0.26200200  0.87757000  1
  H  H13  1  0.70585000  0.73799800  0.12243000  1
  H  H14  1  0.98825900  0.16344400  0.64288100  1
  H  H15  1  0.01174100  0.83655600  0.35711900  1
  H  H16  1  0.57571600  0.84312600  0.34570800  1
  H  H17  1  0.42428400  0.15687400  0.65429200  1
  H  H18  1  0.73336600  0.55636800  0.33426500  1
  H  H19  1  0.26663400  0.44363200  0.66573500  1
  H  H20  1  0.59229100  0.63693600  0.46006500  1
  H  H21  1  0.40770900  0.36306400  0.53993500  1
  H  H22  1  0.84042700  0.17180300  0.53126200  1
  H  H23  1  0.15957300  0.82819700  0.46873800  1
  C  C0  1  0.41809600  0.32122300  0.62730300  1
  C  C1  1  0.16180000  0.85019900  0.38098100  1
  C  C2  1  0.42888100  0.28878600  0.90964300  1
  C  C3  1  0.58190400  0.67877700  0.37269700  1
  C  C4  1  0.81926800  0.32465800  0.10161000  1
  C  C5  1  0.18073200  0.67534200  0.89839000  1
  C  C6  1  0.57111900  0.71121400  0.09035700  1
  C  C7  1  0.83820000  0.14980100  0.61901900  1
  O  O0  1  0.40675500  0.50808900  0.86905700  1
  O  O1  1  0.59324500  0.49191100  0.13094300  1
  O  O2  1  0.62712600  0.32146800  0.65839600  1
  O  O3  1  0.17749500  0.36235400  0.38266300  1
  O  O4  1  0.86626700  0.35658000  0.80502600  1
  O  O5  1  0.13373300  0.64342000  0.19497400  1
  O  O6  1  0.82250500  0.63764600  0.61733700  1
  O  O7  1  0.37866900  0.20030600  0.19856300  1
  O  O8  1  0.62133100  0.79969400  0.80143700  1
  O  O9  1  0.37287400  0.67853200  0.34160400  1
  F  F0  1  0.35412800  0.73553900  0.67268500  1
  F  F1  1  0.64587200  0.26446100  0.32731500  1
loop_
_geom_bond_atom_site_label_1
_geom_bond_atom_site_label_2
_geom_bond_distance
_geom_bond_site_symmetry_2
C0 H19 1.091546 1_555
C0 H17 1.099061 1_555
C0 H21 1.099214 1_555
C0 O2 1.445142 1_555
C1 H15 1.092136 1_555
C1 H7 1.099070 1_565
C1 H23 1.099979 1_555
C1 O9 1.446367 1_555
C2 H10 1.093557 1_555
C2 H8 1.100341 1_555
C2 H12 1.101292 1_555
C2 O0 1.443671 1_555
C3 H18 1.091546 1_555
C3 H16 1.099061 1_555
C3 H20 1.099214 1_555
C3 O9 1.445142 1_555
C4 H3 1.094216 1_555
C4 H1 1.100029 1_555
C4 H5 1.101055 1_555
C4 O1 1.444135 1_555
C5 H2 1.094216 1_555
C5 H0 1.100029 1_555
C5 H4 1.101055 1_555
C5 O0 1.444135 1_555
C6 H11 1.093557 1_555
C6 H9 1.100341 1_555
C6 H13 1.101292 1_555
C6 O1 1.443671 1_555
C7 H14 1.092136 1_555
C7 H6 1.099070 1_545
C7 H22 1.099979 1_555
C7 O2 1.446367 1_555
O0 Re0 2.372759 1_555
O1 Re1 2.372759 1_555
O2 Re0 2.354034 1_555
O3 Re1 1.731054 1_555
O4 Re0 1.743137 1_555
O5 Re1 1.743137 1_555
O6 Re0 1.731054 1_555
O7 Re1 1.736943 1_555
O8 Re0 1.736943 1_555
O9 Re1 2.354034 1_555
F0 Re0 1.947503 1_555
F1 Re1 1.947503 1_555
