# generated using pymatgen
data_Sr5U3O14
_symmetry_space_group_name_H-M   'P 1'
_cell_length_a   11.21530500
_cell_length_b   11.33356500
_cell_length_c   11.33454100
_cell_angle_alpha   90.00000000
_cell_angle_beta   90.00000000
_cell_angle_gamma   90.00000000
_symmetry_Int_Tables_number   1
_chemical_formula_structural   Sr5U3O14
_chemical_formula_sum   'Sr20 U12 O56'
_cell_volume   1440.72657218
_cell_formula_units_Z   4
loop_
 _symmetry_equiv_pos_site_id
 _symmetry_equiv_pos_as_xyz
  1  'x, y, z'
loop_
 _atom_site_type_symbol
 _atom_site_label
 _atom_site_symmetry_multiplicity
 _atom_site_fract_x
 _atom_site_fract_y
 _atom_site_fract_z
 _atom_site_occupancy
  Sr  Sr0  1  0.50000000  0.00000000  0.00000000  1
  Sr  Sr1  1  0.00000000  0.50000000  0.00000000  1
  Sr  Sr2  1  0.50000000  0.50000000  0.50000000  1
  Sr  Sr3  1  0.00000000  0.00000000  0.50000000  1
  Sr  Sr4  1  0.25713500  0.26153700  0.01978400  1
  Sr  Sr5  1  0.75713500  0.23846300  0.98021600  1
  Sr  Sr6  1  0.74286500  0.76153700  0.48021600  1
  Sr  Sr7  1  0.24286500  0.73846300  0.51978400  1
  Sr  Sr8  1  0.74286500  0.73846300  0.98021600  1
  Sr  Sr9  1  0.24286500  0.76153700  0.01978400  1
  Sr  Sr10  1  0.25713500  0.23846300  0.51978400  1
  Sr  Sr11  1  0.75713500  0.26153700  0.48021600  1
  Sr  Sr12  1  0.27607000  0.50419900  0.25065100  1
  Sr  Sr13  1  0.77607000  0.99580100  0.74934900  1
  Sr  Sr14  1  0.72393000  0.00419900  0.24934900  1
  Sr  Sr15  1  0.22393000  0.49580100  0.75065100  1
  Sr  Sr16  1  0.72393000  0.49580100  0.74934900  1
  Sr  Sr17  1  0.22393000  0.00419900  0.25065100  1
  Sr  Sr18  1  0.27607000  0.99580100  0.75065100  1
  Sr  Sr19  1  0.77607000  0.50419900  0.24934900  1
  U  U0  1  0.00000000  0.00000000  0.00000000  1
  U  U1  1  0.50000000  0.50000000  0.00000000  1
  U  U2  1  0.00000000  0.50000000  0.50000000  1
  U  U3  1  0.50000000  0.00000000  0.50000000  1
  U  U4  1  0.00110600  0.25162000  0.24396300  1
  U  U5  1  0.50110600  0.24838000  0.75603700  1
  U  U6  1  0.99889400  0.75162000  0.25603700  1
  U  U7  1  0.49889400  0.74838000  0.74396300  1
  U  U8  1  0.99889400  0.74838000  0.75603700  1
  U  U9  1  0.49889400  0.75162000  0.24396300  1
  U  U10  1  0.00110600  0.24838000  0.74396300  1
  U  U11  1  0.50110600  0.25162000  0.25603700  1
  O  O0  1  0.15960000  0.97501000  0.93298500  1
  O  O1  1  0.65960000  0.52499000  0.06701500  1
  O  O2  1  0.84040000  0.47501000  0.56701500  1
  O  O3  1  0.34040000  0.02499000  0.43298500  1
  O  O4  1  0.84040000  0.02499000  0.06701500  1
  O  O5  1  0.34040000  0.47501000  0.93298500  1
  O  O6  1  0.15960000  0.52499000  0.43298500  1
  O  O7  1  0.65960000  0.97501000  0.56701500  1
  O  O8  1  0.08207600  0.13067700  0.11164800  1
  O  O9  1  0.58207600  0.36932300  0.88835200  1
  O  O10  1  0.91792400  0.63067700  0.38835200  1
  O  O11  1  0.41792400  0.86932300  0.61164800  1
  O  O12  1  0.91792400  0.86932300  0.88835200  1
  O  O13  1  0.41792400  0.63067700  0.11164800  1
  O  O14  1  0.08207600  0.36932300  0.61164800  1
  O  O15  1  0.58207600  0.13067700  0.38835200  1
  O  O16  1  0.06732500  0.62167800  0.62868100  1
  O  O17  1  0.56732500  0.87832200  0.37131900  1
  O  O18  1  0.93267500  0.12167800  0.87131900  1
  O  O19  1  0.43267500  0.37832200  0.12868100  1
  O  O20  1  0.93267500  0.37832200  0.37131900  1
  O  O21  1  0.43267500  0.12167800  0.62868100  1
  O  O22  1  0.06732500  0.87832200  0.12868100  1
  O  O23  1  0.56732500  0.62167800  0.87131900  1
  O  O24  1  0.11246400  0.16786700  0.36284400  1
  O  O25  1  0.61246400  0.33213300  0.63715600  1
  O  O26  1  0.88753600  0.66786700  0.13715600  1
  O  O27  1  0.38753600  0.83213300  0.86284400  1
  O  O28  1  0.88753600  0.83213300  0.63715600  1
  O  O29  1  0.38753600  0.66786700  0.36284400  1
  O  O30  1  0.11246400  0.33213300  0.86284400  1
  O  O31  1  0.61246400  0.16786700  0.13715600  1
  O  O32  1  0.11280700  0.66101200  0.87198500  1
  O  O33  1  0.61280700  0.83898800  0.12801500  1
  O  O34  1  0.88719300  0.16101200  0.62801500  1
  O  O35  1  0.38719300  0.33898800  0.37198500  1
  O  O36  1  0.88719300  0.33898800  0.12801500  1
  O  O37  1  0.38719300  0.16101200  0.87198500  1
  O  O38  1  0.11280700  0.83898800  0.37198500  1
  O  O39  1  0.61280700  0.66101200  0.62801500  1
  O  O40  1  0.87580100  0.14651700  0.32137700  1
  O  O41  1  0.37580100  0.35348300  0.67862300  1
  O  O42  1  0.12419900  0.64651700  0.17862300  1
  O  O43  1  0.62419900  0.85348300  0.82137700  1
  O  O44  1  0.12419900  0.85348300  0.67862300  1
  O  O45  1  0.62419900  0.64651700  0.32137700  1
  O  O46  1  0.87580100  0.35348300  0.82137700  1
  O  O47  1  0.37580100  0.14651700  0.17862300  1
  O  O48  1  0.87506700  0.63616100  0.82777600  1
  O  O49  1  0.37506700  0.86383900  0.17222400  1
  O  O50  1  0.12493300  0.13616100  0.67222400  1
  O  O51  1  0.62493300  0.36383900  0.32777600  1
  O  O52  1  0.12493300  0.36383900  0.17222400  1
  O  O53  1  0.62493300  0.13616100  0.82777600  1
  O  O54  1  0.87506700  0.86383900  0.32777600  1
  O  O55  1  0.37506700  0.63616100  0.67222400  1
loop_
_geom_bond_atom_site_label_1
_geom_bond_atom_site_label_2
_geom_bond_distance
_geom_bond_site_symmetry_2
O0 U0 1.964981 1_566
O0 Sr18 2.456204 1_555
O0 Sr9 2.773720 1_556
O1 U1 1.964981 1_555
O1 Sr19 2.456204 1_555
O1 Sr8 2.773720 1_554
O2 U2 1.964981 1_655
O2 Sr16 2.456204 1_555
O2 Sr11 2.773720 1_555
O3 U3 1.964981 1_555
O3 Sr17 2.456204 1_555
O3 Sr10 2.773720 1_555
O4 U0 1.964981 1_655
O4 Sr14 2.456204 1_555
O4 Sr5 2.773720 1_554
O5 U1 1.964981 1_556
O5 Sr15 2.456204 1_555
O5 Sr4 2.773720 1_556
O6 U2 1.964981 1_555
O6 Sr12 2.456204 1_555
O6 Sr7 2.773720 1_555
O7 U3 1.964981 1_565
O7 Sr13 2.456204 1_555
O7 Sr6 2.773720 1_555
O8 U0 2.154586 1_555
O8 U4 2.225467 1_555
O8 Sr17 2.658601 1_555
O8 Sr4 2.671796 1_555
O9 U1 2.154586 1_556
O9 U5 2.225467 1_555
O9 Sr16 2.658601 1_555
O9 Sr5 2.671796 1_555
O10 U2 2.154586 1_655
O10 U6 2.225467 1_555
O10 Sr19 2.658601 1_555
O10 Sr6 2.671796 1_555
O11 U3 2.154586 1_565
O11 U7 2.225467 1_555
O11 Sr18 2.658601 1_555
O11 Sr7 2.671796 1_555
O12 U0 2.154586 1_666
O12 U8 2.225467 1_555
O12 Sr13 2.658601 1_555
O12 Sr8 2.671796 1_555
O13 U1 2.154586 1_555
O13 U9 2.225467 1_555
O13 Sr12 2.658601 1_555
O13 Sr9 2.671796 1_555
O14 U2 2.154586 1_555
O14 U10 2.225467 1_555
O14 Sr15 2.658601 1_555
O14 Sr10 2.671796 1_555
O15 U3 2.154586 1_555
O15 U11 2.225467 1_555
O15 Sr14 2.658601 1_555
O15 Sr11 2.671796 1_555
O16 U2 2.144583 1_555
O16 U8 2.175966 1_455
O16 Sr15 2.651673 1_555
O16 Sr7 2.674191 1_555
O17 U3 2.144583 1_565
O17 U9 2.175966 1_555
O17 Sr14 2.651673 1_565
O17 Sr6 2.674191 1_555
O18 U0 2.144583 1_656
O18 U10 2.175966 1_655
O18 Sr13 2.651673 1_545
O18 Sr5 2.674191 1_555
O19 U1 2.144583 1_555
O19 U11 2.175966 1_555
O19 Sr12 2.651673 1_555
O19 Sr4 2.674191 1_555
O20 U2 2.144583 1_655
O20 U4 2.175966 1_655
O20 Sr19 2.651673 1_555
O20 Sr11 2.674191 1_555
O21 U3 2.144583 1_555
O21 U5 2.175966 1_555
O21 Sr18 2.651673 1_545
O21 Sr10 2.674191 1_555
O22 U0 2.144583 1_565
O22 U6 2.175966 1_455
O22 Sr17 2.651673 1_565
O22 Sr9 2.674191 1_555
O23 U1 2.144583 1_556
O23 U7 2.175966 1_555
O23 Sr16 2.651673 1_555
O23 Sr8 2.674191 1_555
O24 U4 2.067960 1_555
O24 Sr10 2.537134 1_555
O24 Sr17 2.573078 1_555
O24 Sr3 2.761762 1_555
O25 U5 2.067960 1_555
O25 Sr11 2.537134 1_555
O25 Sr16 2.573078 1_555
O25 Sr2 2.761762 1_555
O26 U6 2.067960 1_555
O26 Sr8 2.537134 1_554
O26 Sr19 2.573078 1_555
O26 Sr1 2.761762 1_655
O27 U7 2.067960 1_555
O27 Sr9 2.537134 1_556
O27 Sr18 2.573078 1_555
O27 Sr0 2.761762 1_566
O28 U8 2.067960 1_555
O28 Sr6 2.537134 1_555
O28 Sr13 2.573078 1_555
O28 Sr3 2.761762 1_665
O29 U9 2.067960 1_555
O29 Sr7 2.537134 1_555
O29 Sr12 2.573078 1_555
O29 Sr2 2.761762 1_555
O30 U10 2.067960 1_555
O30 Sr4 2.537134 1_556
O30 Sr15 2.573078 1_555
O30 Sr1 2.761762 1_556
O31 U11 2.067960 1_555
O31 Sr5 2.537134 1_554
O31 Sr14 2.573078 1_555
O31 Sr0 2.761762 1_555
O32 U8 2.083225 1_455
O32 Sr9 2.496409 1_556
O32 Sr15 2.636391 1_555
O32 Sr1 2.652557 1_556
O33 U9 2.083225 1_555
O33 Sr8 2.496409 1_554
O33 Sr14 2.636391 1_565
O33 Sr0 2.652557 1_565
O34 U10 2.083225 1_655
O34 Sr11 2.496409 1_555
O34 Sr13 2.636391 1_545
O34 Sr3 2.652557 1_655
O35 U11 2.083225 1_555
O35 Sr10 2.496409 1_555
O35 Sr12 2.636391 1_555
O35 Sr2 2.652557 1_555
O36 U4 2.083225 1_655
O36 Sr5 2.496409 1_554
O36 Sr19 2.636391 1_555
O36 Sr1 2.652557 1_655
O37 U5 2.083225 1_555
O37 Sr4 2.496409 1_556
O37 Sr18 2.636391 1_545
O37 Sr0 2.652557 1_556
O38 U6 2.083225 1_455
O38 Sr7 2.496409 1_555
O38 Sr17 2.636391 1_565
O38 Sr3 2.652557 1_565
O39 U7 2.083225 1_555
O39 Sr6 2.496409 1_555
O39 Sr16 2.636391 1_555
O39 Sr2 2.652557 1_555
O40 U4 2.040545 1_655
O40 Sr14 2.483818 1_555
O40 Sr11 2.590731 1_555
O40 Sr3 2.965933 1_655
O41 U5 2.040545 1_555
O41 Sr15 2.483818 1_555
O41 Sr10 2.590731 1_555
O41 Sr2 2.965933 1_555
O42 U6 2.040545 1_455
O42 Sr12 2.483818 1_555
O42 Sr9 2.590731 1_555
O42 Sr1 2.965933 1_555
O43 U7 2.040545 1_555
O43 Sr13 2.483818 1_555
O43 Sr8 2.590731 1_555
O43 Sr0 2.965933 1_566
O44 U8 2.040545 1_455
O44 Sr18 2.483818 1_555
O44 Sr7 2.590731 1_555
O44 Sr3 2.965933 1_565
O45 U9 2.040545 1_555
O45 Sr19 2.483818 1_555
O45 Sr6 2.590731 1_555
O45 Sr2 2.965933 1_555
O46 U10 2.040545 1_655
O46 Sr16 2.483818 1_555
O46 Sr5 2.590731 1_555
O46 Sr1 2.965933 1_656
O47 U11 2.040545 1_555
O47 Sr17 2.483818 1_555
O47 Sr4 2.590731 1_555
O47 Sr0 2.965933 1_555
O48 U8 2.051196 1_555
O48 Sr16 2.488768 1_555
O48 Sr8 2.555014 1_555
O48 Sr1 2.855749 1_656
O49 U9 2.051196 1_555
O49 Sr17 2.488768 1_565
O49 Sr9 2.555014 1_555
O49 Sr0 2.855749 1_565
O50 U10 2.051196 1_555
O50 Sr18 2.488768 1_545
O50 Sr10 2.555014 1_555
O50 Sr3 2.855749 1_555
O51 U11 2.051196 1_555
O51 Sr19 2.488768 1_555
O51 Sr11 2.555014 1_555
O51 Sr2 2.855749 1_555
O52 U4 2.051196 1_555
O52 Sr12 2.488768 1_555
O52 Sr4 2.555014 1_555
O52 Sr1 2.855749 1_555
O53 U5 2.051196 1_555
O53 Sr13 2.488768 1_545
O53 Sr5 2.555014 1_555
O53 Sr0 2.855749 1_556
O54 U6 2.051196 1_555
O54 Sr14 2.488768 1_565
O54 Sr6 2.555014 1_555
O54 Sr3 2.855749 1_665
O55 U7 2.051196 1_555
O55 Sr15 2.488768 1_555
O55 Sr7 2.555014 1_555
O55 Sr2 2.855749 1_555
