# generated using pymatgen
data_MgV4Ag2O11
_symmetry_space_group_name_H-M   'P 1'
_cell_length_a   3.70825896
_cell_length_b   8.54593550
_cell_length_c   8.29887252
_cell_angle_alpha   68.45834514
_cell_angle_beta   77.13820323
_cell_angle_gamma   78.31314137
_symmetry_Int_Tables_number   1
_chemical_formula_structural   MgV4Ag2O11
_chemical_formula_sum   'Mg1 V4 Ag2 O11'
_cell_volume   236.36145359
_cell_formula_units_Z   1
loop_
 _symmetry_equiv_pos_site_id
 _symmetry_equiv_pos_as_xyz
  1  'x, y, z'
loop_
 _atom_site_type_symbol
 _atom_site_label
 _atom_site_symmetry_multiplicity
 _atom_site_fract_x
 _atom_site_fract_y
 _atom_site_fract_z
 _atom_site_occupancy
  Mg  Mg0  1  -0.00020324  0.75881270  0.22834717  1
  V  V0  1  0.63371720  0.15940275  0.58244148  1
  V  V1  1  0.33586627  0.87266498  0.44703887  1
  V  V2  1  0.86326362  0.12925291  0.14720254  1
  V  V3  1  0.13410559  0.86783732  0.83955219  1
  Ag  Ag0  1  0.87922926  0.51491732  0.72016839  1
  Ag  Ag1  1  0.20235645  0.41759842  0.20301736  1
  O  O0  1  0.51994585  0.31639633  0.66457932  1
  O  O1  1  0.46980514  0.72131309  0.32371424  1
  O  O2  1  0.69948503  0.26226240  0.35269419  1
  O  O3  1  0.28352834  0.73581117  0.67148339  1
  O  O4  1  0.84270368  0.32563714  -0.00054177  1
  O  O5  1  0.15552557  0.68161127  0.01799523  1
  O  O6  1  0.98771488  0.99327046  0.02337401  1
  O  O7  1  0.34252312  0.09693025  0.21996972  1
  O  O8  1  0.84425969  0.91786677  0.38715482  1
  O  O9  1  0.16824437  0.07957561  0.58949488  1
  O  O10  1  0.63793217  0.94050812  0.78231098  1
loop_
_geom_bond_atom_site_label_1
_geom_bond_atom_site_label_2
_geom_bond_distance
_geom_bond_site_symmetry_2
Mg0 O1 1.992004 1_455
Mg0 O1 1.992083 1_555
Mg0 O5 2.014646 1_555
Mg0 O6 2.098777 1_455
Mg0 O8 2.139322 1_455
Ag0 O4 2.280965 1_556
Ag0 O3 2.508260 1_655
Ag0 O0 2.574931 1_555
Ag0 O3 2.598925 1_555
Ag0 O0 2.681409 1_655
Ag1 O5 2.212313 1_555
Ag1 O2 2.349620 1_555
Ag1 O2 2.354422 1_455
Ag1 O7 2.640488 1_555
O0 V0 1.660403 1_555
O1 V1 1.858145 1_555
O2 V0 1.765367 1_555
O2 V2 2.291696 1_555
O3 V1 1.790583 1_555
O3 V3 2.020839 1_555
O4 V2 1.674651 1_555
O5 V3 1.732784 1_554
O6 V2 1.751587 1_565
O6 V3 2.089828 1_654
O7 V2 1.935029 1_555
O7 V2 1.938017 1_455
O7 V1 2.138012 1_545
O8 V1 1.920242 1_555
O8 V1 1.922659 1_655
O8 V2 2.140367 1_565
O9 V0 1.962387 1_555
O9 V0 1.967818 1_455
O9 V3 2.194321 1_545
O9 V1 2.381894 1_545
O10 V3 1.925169 1_655
O10 V3 1.990041 1_555
O10 V0 1.992981 1_565
