# generated using pymatgen
data_Ba2Si3O8
_symmetry_space_group_name_H-M   'P 1'
_cell_length_a   4.70734364
_cell_length_b   12.52847138
_cell_length_c   14.02499766
_cell_angle_alpha   86.52366130
_cell_angle_beta   90.00000000
_cell_angle_gamma   90.00000000
_symmetry_Int_Tables_number   1
_chemical_formula_structural   Ba2Si3O8
_chemical_formula_sum   'Ba8 Si12 O32'
_cell_volume   825.61374644
_cell_formula_units_Z   4
loop_
 _symmetry_equiv_pos_site_id
 _symmetry_equiv_pos_as_xyz
  1  'x, y, z'
loop_
 _atom_site_type_symbol
 _atom_site_label
 _atom_site_symmetry_multiplicity
 _atom_site_fract_x
 _atom_site_fract_y
 _atom_site_fract_z
 _atom_site_occupancy
  Ba  Ba0  1  0.75222943  0.85589978  0.46785799  1
  Ba  Ba1  1  0.25222943  0.14410022  0.03214201  1
  Ba  Ba2  1  0.24777057  0.14410022  0.53214201  1
  Ba  Ba3  1  0.74777057  0.85589978  0.96785799  1
  Ba  Ba4  1  0.27177778  0.58243126  0.38885982  1
  Ba  Ba5  1  0.77177778  0.41756874  0.11114018  1
  Ba  Ba6  1  0.72822222  0.41756874  0.61114018  1
  Ba  Ba7  1  0.22822222  0.58243126  0.88885982  1
  Si  Si0  1  0.82089898  0.97362578  0.18783364  1
  Si  Si1  1  0.32089898  0.02637422  0.31216636  1
  Si  Si2  1  0.17910102  0.02637422  0.81216636  1
  Si  Si3  1  0.67910102  0.97362578  0.68783364  1
  Si  Si4  1  0.82125058  0.72390797  0.22277370  1
  Si  Si5  1  0.32125058  0.27609203  0.27722630  1
  Si  Si6  1  0.17874942  0.27609203  0.77722630  1
  Si  Si7  1  0.67874942  0.72390797  0.72277370  1
  Si  Si8  1  0.31472333  0.64945704  0.11061000  1
  Si  Si9  1  0.81472333  0.35054296  0.38939000  1
  Si  Si10  1  0.68527667  0.35054296  0.88939000  1
  Si  Si11  1  0.18527667  0.64945704  0.61061000  1
  O  O0  1  0.15116532  0.00128605  0.21415207  1
  O  O1  1  0.65116532  0.99871395  0.28584793  1
  O  O2  1  0.84883468  0.99871395  0.78584793  1
  O  O3  1  0.34883468  0.00128605  0.71415207  1
  O  O4  1  0.73555962  0.03497892  0.09003911  1
  O  O5  1  0.23555962  0.96502108  0.40996089  1
  O  O6  1  0.26444038  0.96502108  0.90996089  1
  O  O7  1  0.76444038  0.03497892  0.59003911  1
  O  O8  1  0.79648630  0.84524396  0.17329387  1
  O  O9  1  0.29648630  0.15475604  0.32670613  1
  O  O10  1  0.20351370  0.15475604  0.82670613  1
  O  O11  1  0.70351370  0.84524396  0.67329387  1
  O  O12  1  0.73880870  0.71266395  0.33225462  1
  O  O13  1  0.23880870  0.28733605  0.16774538  1
  O  O14  1  0.26119130  0.28733605  0.66774538  1
  O  O15  1  0.76119130  0.71266395  0.83225462  1
  O  O16  1  0.14790897  0.68187484  0.20926659  1
  O  O17  1  0.64790897  0.31812516  0.29073341  1
  O  O18  1  0.85209103  0.31812516  0.79073341  1
  O  O19  1  0.35209103  0.68187484  0.70926659  1
  O  O20  1  0.24832861  0.52895560  0.58421539  1
  O  O21  1  0.74832861  0.47104440  0.91578461  1
  O  O22  1  0.75167139  0.47104440  0.41578461  1
  O  O23  1  0.25167139  0.52895560  0.08421539  1
  O  O24  1  0.23300435  0.73423437  0.52194936  1
  O  O25  1  0.73300435  0.26576563  0.97805064  1
  O  O26  1  0.76699565  0.26576563  0.47805064  1
  O  O27  1  0.26699565  0.73423437  0.02194936  1
  O  O28  1  0.85177516  0.64883744  0.65018016  1
  O  O29  1  0.35177516  0.35116256  0.84981984  1
  O  O30  1  0.14822484  0.35116256  0.34981984  1
  O  O31  1  0.64822484  0.64883744  0.15018016  1
loop_
_geom_bond_atom_site_label_1
_geom_bond_atom_site_label_2
_geom_bond_distance
_geom_bond_site_symmetry_2
Ba0 O12 2.693546 1_555
Ba0 O5 2.751417 1_655
Ba0 O24 2.807253 1_655
Ba0 O5 2.882546 1_555
Ba0 O11 2.885359 1_555
Ba0 O7 2.905103 1_565
Ba0 O24 2.955113 1_555
Ba0 O1 3.064319 1_555
Ba1 O13 2.693546 1_555
Ba1 O4 2.751417 1_555
Ba1 O25 2.807253 1_554
Ba1 O4 2.882546 1_455
Ba1 O10 2.885359 1_554
Ba1 O6 2.905103 1_544
Ba1 O25 2.955113 1_454
Ba1 O0 3.064319 1_555
Ba2 O14 2.693546 1_555
Ba2 O7 2.751417 1_455
Ba2 O26 2.807253 1_455
Ba2 O7 2.882546 1_555
Ba2 O9 2.885359 1_555
Ba2 O5 2.905103 1_545
Ba2 O26 2.955113 1_555
Ba2 O3 3.064319 1_555
Ba3 O15 2.693546 1_555
Ba3 O6 2.751417 1_555
Ba3 O27 2.807253 1_556
Ba3 O6 2.882546 1_655
Ba3 O8 2.885359 1_556
Ba3 O4 2.905103 1_566
Ba3 O27 2.955113 1_656
Ba3 O2 3.064319 1_555
Ba4 O22 2.670079 1_555
Ba4 O24 2.750459 1_555
Ba4 O20 2.783033 1_555
Ba4 O16 2.802849 1_555
Ba4 O12 2.822877 1_555
Ba4 O22 2.832031 1_455
Ba4 O30 3.037373 1_555
Ba4 O12 3.070792 1_455
Ba5 O23 2.670079 1_655
Ba5 O25 2.750459 1_554
Ba5 O21 2.783033 1_554
Ba5 O17 2.802849 1_555
Ba5 O13 2.822877 1_655
Ba5 O23 2.832031 1_555
Ba5 O31 3.037373 1_555
Ba5 O13 3.070792 1_555
Ba6 O20 2.670079 1_555
Ba6 O26 2.750459 1_555
Ba6 O22 2.783033 1_555
Ba6 O18 2.802849 1_555
Ba6 O14 2.822877 1_555
Ba6 O20 2.832031 1_655
Ba6 O28 3.037373 1_555
Ba6 O14 3.070792 1_655
Ba7 O21 2.670079 1_455
Ba7 O27 2.750459 1_556
Ba7 O23 2.783033 1_556
Ba7 O19 2.802849 1_555
Ba7 O15 2.822877 1_455
Ba7 O21 2.832031 1_555
Ba7 O29 3.037373 1_555
Ba7 O15 3.070792 1_555
O0 Si1 1.636841 1_555
O0 Si0 1.639778 1_445
O1 Si0 1.636841 1_555
O1 Si1 1.639778 1_565
O2 Si3 1.636841 1_555
O2 Si2 1.639778 1_665
O3 Si2 1.636841 1_555
O3 Si3 1.639778 1_545
O4 Si0 1.582898 1_545
O5 Si1 1.582898 1_565
O6 Si2 1.582898 1_565
O7 Si3 1.582898 1_545
O8 Si4 1.636490 1_555
O8 Si0 1.637561 1_555
O9 Si5 1.636490 1_555
O9 Si1 1.637561 1_555
O10 Si6 1.636490 1_555
O10 Si2 1.637561 1_555
O11 Si7 1.636490 1_555
O11 Si3 1.637561 1_555
O12 Si4 1.581736 1_555
O13 Si5 1.581736 1_555
O14 Si6 1.581736 1_555
O15 Si7 1.581736 1_555
O16 Si4 1.640062 1_455
O16 Si8 1.662600 1_555
O17 Si5 1.640062 1_555
O17 Si9 1.662600 1_555
O18 Si6 1.640062 1_655
O18 Si10 1.662600 1_555
O19 Si7 1.640062 1_555
O19 Si11 1.662600 1_555
O20 Si11 1.603776 1_555
O21 Si10 1.603776 1_555
O22 Si9 1.603776 1_555
O23 Si8 1.603776 1_555
O24 Si11 1.601448 1_555
O25 Si10 1.601448 1_555
O26 Si9 1.601448 1_555
O27 Si8 1.601448 1_555
O28 Si7 1.643373 1_555
O28 Si11 1.664973 1_655
O29 Si6 1.643373 1_555
O29 Si10 1.664973 1_555
O30 Si5 1.643373 1_555
O30 Si9 1.664973 1_455
O31 Si4 1.643373 1_555
O31 Si8 1.664973 1_555
