# generated using pymatgen
data_RhN2
_symmetry_space_group_name_H-M   'P 1'
_cell_length_a   2.83452500
_cell_length_b   4.08754200
_cell_length_c   4.91768900
_cell_angle_alpha   90.00000000
_cell_angle_beta   90.00000000
_cell_angle_gamma   90.00000000
_symmetry_Int_Tables_number   1
_chemical_formula_structural   RhN2
_chemical_formula_sum   'Rh2 N4'
_cell_volume   56.97752494
_cell_formula_units_Z   2
loop_
 _symmetry_equiv_pos_site_id
 _symmetry_equiv_pos_as_xyz
  1  'x, y, z'
loop_
 _atom_site_type_symbol
 _atom_site_label
 _atom_site_symmetry_multiplicity
 _atom_site_fract_x
 _atom_site_fract_y
 _atom_site_fract_z
 _atom_site_occupancy
  Rh  Rh0  1  0.50000000  0.50000000  0.50000000  1
  Rh  Rh1  1  0.00000000  0.00000000  0.00000000  1
  N  N0  1  0.50000000  0.37851400  0.91493600  1
  N  N1  1  0.50000000  0.62148600  0.08506400  1
  N  N2  1  0.00000000  0.12148600  0.41493600  1
  N  N3  1  0.00000000  0.87851400  0.58506400  1
loop_
_geom_bond_atom_site_label_1
_geom_bond_atom_site_label_2
_geom_bond_distance
_geom_bond_site_symmetry_2
N0 N1 1.298585 1_556
N0 Rh0 2.100080 1_555
N0 Rh1 2.139492 1_656
N0 Rh1 2.139492 1_556
N1 Rh0 2.100080 1_555
N1 Rh1 2.139492 1_665
N1 Rh1 2.139492 1_565
N2 N3 1.298585 1_545
N2 Rh1 2.100080 1_555
N2 Rh0 2.139492 1_555
N2 Rh0 2.139492 1_455
N3 Rh1 2.100080 1_566
N3 Rh0 2.139492 1_555
N3 Rh0 2.139492 1_455
