# generated using pymatgen
data_MgV3CrO10
_symmetry_space_group_name_H-M   'P 1'
_cell_length_a   6.48141906
_cell_length_b   6.57086406
_cell_length_c   5.44666200
_cell_angle_alpha   90.00052541
_cell_angle_beta   90.00453819
_cell_angle_gamma   90.01473792
_symmetry_Int_Tables_number   1
_chemical_formula_structural   MgV3CrO10
_chemical_formula_sum   'Mg1 V3 Cr1 O10'
_cell_volume   231.96528444
_cell_formula_units_Z   1
loop_
 _symmetry_equiv_pos_site_id
 _symmetry_equiv_pos_as_xyz
  1  'x, y, z'
loop_
 _atom_site_type_symbol
 _atom_site_label
 _atom_site_symmetry_multiplicity
 _atom_site_fract_x
 _atom_site_fract_y
 _atom_site_fract_z
 _atom_site_occupancy
  Mg  Mg0  1  0.24996900  0.75000200  0.98585100  1
  V  V0  1  0.25001000  0.25000800  0.62190400  1
  V  V1  1  0.74999600  0.74999900  0.38683100  1
  V  V2  1  0.75000500  0.24999500  0.51132100  1
  Cr  Cr0  1  0.25000300  0.75000500  0.48436800  1
  O  O0  1  0.04472600  0.74997400  0.26426600  1
  O  O1  1  0.24999200  0.25000400  0.32488300  1
  O  O2  1  0.25028400  0.54440100  0.70808600  1
  O  O3  1  0.24973000  0.95560100  0.70808800  1
  O  O4  1  0.45525200  0.75002300  0.26426900  1
  O  O5  1  0.52714100  0.24981800  0.70540300  1
  O  O6  1  0.75002800  0.04415300  0.32078100  1
  O  O7  1  0.74996100  0.45584200  0.32080100  1
  O  O8  1  0.75001500  0.75000900  0.68773700  1
  O  O9  1  0.97288900  0.25016700  0.70540900  1
loop_
_geom_bond_atom_site_label_1
_geom_bond_atom_site_label_2
_geom_bond_distance
_geom_bond_site_symmetry_2
Mg0 O0 2.017299 1_556
Mg0 O4 2.017324 1_556
Mg0 O2 2.028287 1_555
Mg0 O3 2.028288 1_555
Cr0 O4 1.790837 1_555
Cr0 O0 1.790841 1_555
Cr0 O3 1.819294 1_555
Cr0 O2 1.819342 1_555
O0 V1 2.023605 1_455
O1 V0 1.617773 1_555
O2 V0 1.990551 1_555
O3 V0 1.990651 1_565
O4 V1 2.023586 1_555
O5 V2 1.790030 1_555
O5 V0 1.852849 1_555
O6 V2 1.704827 1_555
O6 V1 1.966044 1_545
O7 V2 1.704802 1_555
O7 V1 1.966037 1_555
O8 V1 1.638933 1_555
O9 V2 1.790019 1_555
O9 V0 1.852864 1_655
