# generated using pymatgen
data_NdP2H9O10
_symmetry_space_group_name_H-M   'P 1'
_cell_length_a   7.34310900
_cell_length_b   10.15835200
_cell_length_c   11.79699900
_cell_angle_alpha   90.00000000
_cell_angle_beta   90.00000000
_cell_angle_gamma   90.00000000
_symmetry_Int_Tables_number   1
_chemical_formula_structural   NdP2H9O10
_chemical_formula_sum   'Nd4 P8 H36 O40'
_cell_volume   879.98399851
_cell_formula_units_Z   4
loop_
 _symmetry_equiv_pos_site_id
 _symmetry_equiv_pos_as_xyz
  1  'x, y, z'
loop_
 _atom_site_type_symbol
 _atom_site_label
 _atom_site_symmetry_multiplicity
 _atom_site_fract_x
 _atom_site_fract_y
 _atom_site_fract_z
 _atom_site_occupancy
  Nd  Nd0  1  0.75000000  0.24330100  0.25000000  1
  Nd  Nd1  1  0.75000000  0.25669900  0.75000000  1
  Nd  Nd2  1  0.25000000  0.75669900  0.75000000  1
  Nd  Nd3  1  0.25000000  0.74330100  0.25000000  1
  P  P0  1  0.91286600  0.53129600  0.42918100  1
  P  P1  1  0.91286600  0.96870400  0.57081900  1
  P  P2  1  0.58713400  0.53129600  0.07081900  1
  P  P3  1  0.58713400  0.96870400  0.92918100  1
  P  P4  1  0.08713400  0.46870400  0.57081900  1
  P  P5  1  0.08713400  0.03129600  0.42918100  1
  P  P6  1  0.41286600  0.46870400  0.92918100  1
  P  P7  1  0.41286600  0.03129600  0.07081900  1
  H  H0  1  0.55517100  0.94467900  0.25613700  1
  H  H1  1  0.55517100  0.55532100  0.74386300  1
  H  H2  1  0.94482900  0.94467900  0.24386300  1
  H  H3  1  0.94482900  0.55532100  0.75613700  1
  H  H4  1  0.44482900  0.05532100  0.74386300  1
  H  H5  1  0.44482900  0.44467900  0.25613700  1
  H  H6  1  0.05517100  0.05532100  0.75613700  1
  H  H7  1  0.05517100  0.44467900  0.24386300  1
  H  H8  1  0.53758600  0.62935700  0.42985100  1
  H  H9  1  0.53758600  0.87064300  0.57014900  1
  H  H10  1  0.96241400  0.62935700  0.07014900  1
  H  H11  1  0.96241400  0.87064300  0.92985100  1
  H  H12  1  0.46241400  0.37064300  0.57014900  1
  H  H13  1  0.46241400  0.12935700  0.42985100  1
  H  H14  1  0.03758600  0.37064300  0.92985100  1
  H  H15  1  0.03758600  0.12935700  0.07014900  1
  H  H16  1  0.62826300  0.85338900  0.35382000  1
  H  H17  1  0.62826300  0.64661100  0.64618000  1
  H  H18  1  0.87173700  0.85338900  0.14618000  1
  H  H19  1  0.87173700  0.64661100  0.85382000  1
  H  H20  1  0.37173700  0.14661100  0.64618000  1
  H  H21  1  0.37173700  0.35338900  0.35382000  1
  H  H22  1  0.12826300  0.14661100  0.85382000  1
  H  H23  1  0.12826300  0.35338900  0.14618000  1
  H  H24  1  0.80091600  0.75000000  0.50000000  1
  H  H25  1  0.69908400  0.75000000  0.00000000  1
  H  H26  1  0.19908400  0.25000000  0.50000000  1
  H  H27  1  0.30091600  0.25000000  0.00000000  1
  H  H28  1  0.34040900  0.62086300  0.48604200  1
  H  H29  1  0.34040900  0.87913700  0.51395800  1
  H  H30  1  0.15959100  0.62086300  0.01395800  1
  H  H31  1  0.15959100  0.87913700  0.98604200  1
  H  H32  1  0.65959100  0.37913700  0.51395800  1
  H  H33  1  0.65959100  0.12086300  0.48604200  1
  H  H34  1  0.84040900  0.37913700  0.98604200  1
  H  H35  1  0.84040900  0.12086300  0.01395800  1
  O  O0  1  0.40583900  0.63308800  0.41307800  1
  O  O1  1  0.40583900  0.86691200  0.58692200  1
  O  O2  1  0.09416100  0.63308800  0.08692200  1
  O  O3  1  0.09416100  0.86691200  0.91307800  1
  O  O4  1  0.59416100  0.36691200  0.58692200  1
  O  O5  1  0.59416100  0.13308800  0.41307800  1
  O  O6  1  0.90583900  0.36691200  0.91307800  1
  O  O7  1  0.90583900  0.13308800  0.08692200  1
  O  O8  1  0.19522000  0.90777100  0.39529400  1
  O  O9  1  0.19522000  0.59222900  0.60470600  1
  O  O10  1  0.30478000  0.90777100  0.10470600  1
  O  O11  1  0.30478000  0.59222900  0.89529400  1
  O  O12  1  0.80478000  0.09222900  0.60470600  1
  O  O13  1  0.80478000  0.40777100  0.39529400  1
  O  O14  1  0.69522000  0.09222900  0.89529400  1
  O  O15  1  0.69522000  0.40777100  0.10470600  1
  O  O16  1  0.55059500  0.85387200  0.28666400  1
  O  O17  1  0.55059500  0.64612800  0.71333600  1
  O  O18  1  0.94940500  0.85387200  0.21333600  1
  O  O19  1  0.94940500  0.64612800  0.78666400  1
  O  O20  1  0.44940500  0.14612800  0.71333600  1
  O  O21  1  0.44940500  0.35387200  0.28666400  1
  O  O22  1  0.05059500  0.14612800  0.78666400  1
  O  O23  1  0.05059500  0.35387200  0.21333600  1
  O  O24  1  0.72379100  0.63535600  0.02216800  1
  O  O25  1  0.72379100  0.86464400  0.97783200  1
  O  O26  1  0.77620900  0.63535600  0.47783200  1
  O  O27  1  0.77620900  0.86464400  0.52216800  1
  O  O28  1  0.27620900  0.36464400  0.97783200  1
  O  O29  1  0.27620900  0.13535600  0.02216800  1
  O  O30  1  0.22379100  0.36464400  0.52216800  1
  O  O31  1  0.22379100  0.13535600  0.47783200  1
  O  O32  1  0.46524100  0.58575400  0.16532000  1
  O  O33  1  0.46524100  0.91424600  0.83468000  1
  O  O34  1  0.03475900  0.58575400  0.33468000  1
  O  O35  1  0.03475900  0.91424600  0.66532000  1
  O  O36  1  0.53475900  0.41424600  0.83468000  1
  O  O37  1  0.53475900  0.08575400  0.16532000  1
  O  O38  1  0.96524100  0.41424600  0.66532000  1
  O  O39  1  0.96524100  0.08575400  0.33468000  1
loop_
_geom_bond_atom_site_label_1
_geom_bond_atom_site_label_2
_geom_bond_distance
_geom_bond_site_symmetry_2
Nd0 O13 2.427160 1_555
Nd0 O15 2.427160 1_555
Nd0 O39 2.461174 1_555
Nd0 O37 2.461174 1_555
Nd0 O7 2.502821 1_555
Nd0 O5 2.502821 1_555
Nd0 O23 2.514136 1_655
Nd0 O21 2.514136 1_555
Nd1 O14 2.427160 1_555
Nd1 O12 2.427160 1_555
Nd1 O36 2.461174 1_555
Nd1 O38 2.461174 1_555
Nd1 O4 2.502821 1_555
Nd1 O6 2.502821 1_555
Nd1 O22 2.514136 1_655
Nd1 O20 2.514136 1_555
Nd2 O9 2.427160 1_555
Nd2 O11 2.427160 1_555
Nd2 O35 2.461174 1_555
Nd2 O33 2.461174 1_555
Nd2 O3 2.502821 1_555
Nd2 O1 2.502821 1_555
Nd2 O17 2.514136 1_555
Nd2 O19 2.514136 1_455
Nd3 O8 2.427160 1_555
Nd3 O10 2.427160 1_555
Nd3 O34 2.461174 1_555
Nd3 O32 2.461174 1_555
Nd3 O2 2.502821 1_555
Nd3 O0 2.502821 1_555
Nd3 O16 2.514136 1_555
Nd3 O18 2.514136 1_455
H0 O16 0.990825 1_555
H1 O17 0.990825 1_555
H2 O18 0.990825 1_555
H3 O19 0.990825 1_555
H4 O20 0.990825 1_555
H5 O21 0.990825 1_555
H6 O22 0.990825 1_555
H7 O23 0.990825 1_555
H8 O0 0.988188 1_555
H9 O1 0.988188 1_555
H10 O2 0.988188 1_655
H11 O3 0.988188 1_655
H12 O4 0.988188 1_555
H13 O5 0.988188 1_555
H14 O6 0.988188 1_455
H15 O7 0.988188 1_455
H16 O16 0.976185 1_555
H17 O17 0.976185 1_555
H18 O18 0.976185 1_555
H19 O19 0.976185 1_555
H20 O20 0.976185 1_555
H21 O21 0.976185 1_555
H22 O22 0.976185 1_555
H23 O23 0.976185 1_555
H24 O27 1.207305 1_555
H24 O26 1.207305 1_555
H25 O25 1.207305 1_554
H25 O24 1.207305 1_555
H26 O30 1.207305 1_555
H26 O31 1.207305 1_555
H27 O29 1.207305 1_555
H27 O28 1.207305 1_554
H28 O0 0.993562 1_555
H29 O1 0.993562 1_555
H30 O2 0.993562 1_555
H31 O3 0.993562 1_555
H32 O4 0.993562 1_555
H33 O5 0.993562 1_555
H34 O6 0.993562 1_555
H35 O7 0.993562 1_555
O8 P5 1.537628 1_565
O9 P4 1.537628 1_555
O10 P7 1.537628 1_565
O11 P6 1.537628 1_555
O12 P1 1.537628 1_545
O13 P0 1.537628 1_555
O14 P3 1.537628 1_545
O15 P2 1.537628 1_555
O24 P2 1.566462 1_555
O25 P3 1.566462 1_555
O26 P0 1.566462 1_555
O27 P1 1.566462 1_555
O28 P6 1.566462 1_555
O29 P7 1.566462 1_555
O30 P4 1.566462 1_555
O31 P5 1.566462 1_555
O32 P2 1.532982 1_555
O33 P3 1.532982 1_555
O34 P0 1.532982 1_455
O35 P1 1.532982 1_455
O36 P6 1.532982 1_555
O37 P7 1.532982 1_555
O38 P4 1.532982 1_655
O39 P5 1.532982 1_655
