# generated using pymatgen
data_BaCa3
_symmetry_space_group_name_H-M   'P 1'
_cell_length_a   6.45616586
_cell_length_b   6.45616586
_cell_length_c   6.45616586
_cell_angle_alpha   120.11839183
_cell_angle_beta   120.11839183
_cell_angle_gamma   89.79506136
_symmetry_Int_Tables_number   1
_chemical_formula_structural   BaCa3
_chemical_formula_sum   'Ba1 Ca3'
_cell_volume   189.94513134
_cell_formula_units_Z   1
loop_
 _symmetry_equiv_pos_site_id
 _symmetry_equiv_pos_as_xyz
  1  'x, y, z'
loop_
 _atom_site_type_symbol
 _atom_site_label
 _atom_site_symmetry_multiplicity
 _atom_site_fract_x
 _atom_site_fract_y
 _atom_site_fract_z
 _atom_site_occupancy
  Ba  Ba0  1  0.00000000  0.00000000  0.00000000  1
  Ca  Ca0  1  0.75000000  0.25000000  0.50000000  1
  Ca  Ca1  1  0.25000000  0.75000000  0.50000000  1
  Ca  Ca2  1  0.50000000  0.50000000  0.00000000  1
loop_
_geom_bond_atom_site_label_1
_geom_bond_atom_site_label_2
_geom_bond_distance
_geom_bond_site_symmetry_2
Ba0 Ca1 3.951220 1_545
Ba0 Ca0 3.951220 1_455
Ba0 Ca0 3.951220 1_454
Ba0 Ca0 3.951220 1_444
Ba0 Ca1 3.951220 1_544
Ba0 Ca1 3.951220 1_555
Ba0 Ca0 3.951220 1_555
Ba0 Ca1 3.951220 1_444
Ba0 Ca2 4.557027 1_455
Ba0 Ca2 4.557027 1_444
Ba0 Ca2 4.557027 1_545
Ba0 Ca2 4.557027 1_556
Ba0 Ca2 4.573356 1_555
Ba0 Ca2 4.573356 1_445
Ca0 Ca2 3.951220 1_555
Ca0 Ca2 3.951220 1_545
Ca0 Ca2 3.951220 1_556
Ca0 Ca2 3.951220 1_656
Ca1 Ca2 3.951220 1_555
Ca1 Ca2 3.951220 1_556
Ca1 Ca2 3.951220 1_566
Ca1 Ca2 3.951220 1_455
