# generated using pymatgen
data_Ba3MgNb2CoO9
_symmetry_space_group_name_H-M   'P 1'
_cell_length_a   5.93668052
_cell_length_b   5.94364264
_cell_length_c   7.83924948
_cell_angle_alpha   90.47854277
_cell_angle_beta   89.80626088
_cell_angle_gamma   119.91868695
_symmetry_Int_Tables_number   1
_chemical_formula_structural   Ba3MgNb2CoO9
_chemical_formula_sum   'Ba3 Mg1 Nb2 Co1 O9'
_cell_volume   239.74050831
_cell_formula_units_Z   1
loop_
 _symmetry_equiv_pos_site_id
 _symmetry_equiv_pos_as_xyz
  1  'x, y, z'
loop_
 _atom_site_type_symbol
 _atom_site_label
 _atom_site_symmetry_multiplicity
 _atom_site_fract_x
 _atom_site_fract_y
 _atom_site_fract_z
 _atom_site_occupancy
  Ba  Ba0  1  0.66662733  0.33369129  0.36789169  1
  Ba  Ba1  1  0.00018509  0.99904983  0.98806223  1
  Ba  Ba2  1  0.33311135  0.66342896  0.66597470  1
  Mg  Mg0  1  0.99943355  0.99383620  0.61327482  1
  Nb  Nb0  1  0.33366801  0.66847966  0.17519503  1
  Nb  Nb1  1  0.66669459  0.33143569  0.86813425  1
  Co  Co0  1  0.00002574  0.00330171  0.32499594  1
  O  O0  1  0.50100818  0.50108845  0.02227715  1
  O  O1  1  0.18177827  0.36461256  0.33882984  1
  O  O2  1  0.82530632  0.64742883  0.71310417  1
  O  O3  1  -0.00041048  0.50106111  0.02295622  1
  O  O4  1  0.17992270  0.82070648  0.34208688  1
  O  O5  1  0.34698166  0.16959356  0.71510803  1
  O  O6  1  0.82640947  0.16917031  0.71642217  1
  O  O7  1  0.63803574  0.81982511  0.34150151  1
  O  O8  1  0.50122346  0.00287325  0.02492737  1
loop_
_geom_bond_atom_site_label_1
_geom_bond_atom_site_label_2
_geom_bond_distance
_geom_bond_site_symmetry_2
Ba0 O7 2.978676 1_545
Ba0 O1 2.978943 1_655
Ba0 O4 2.981864 1_545
Ba0 O1 2.983902 1_555
Ba0 O4 2.985345 1_655
Ba0 O7 2.986593 1_555
Ba0 O2 3.141475 1_555
Ba0 O8 3.172132 1_555
Ba0 O5 3.181864 1_555
Ba0 O3 3.202491 1_655
Ba0 O6 3.210677 1_555
Ba0 O0 3.214994 1_555
Ba1 Co0 2.641219 1_566
Ba1 O6 2.777169 1_465
Ba1 O5 2.787370 1_565
Ba1 O2 2.804833 1_455
Ba1 O3 2.973000 1_556
Ba1 O8 2.978252 1_566
Ba1 O0 2.978650 1_456
Ba1 O8 2.986599 1_466
Ba1 O0 2.992962 1_566
Ba1 O3 2.995770 1_566
Ba2 O1 2.980996 1_555
Ba2 O5 2.989936 1_565
Ba2 O7 2.990125 1_555
Ba2 O2 2.990131 1_455
Ba2 O2 2.994785 1_555
Ba2 O6 2.995844 1_565
Ba2 O5 3.005099 1_555
Ba2 O6 3.005231 1_455
Ba2 O4 3.008478 1_555
Ba2 O0 3.278631 1_556
Ba2 O3 3.284009 1_556
Ba2 O8 3.301546 1_566
Mg0 O2 1.954100 1_555
Mg0 O5 1.957755 1_665
Mg0 O6 1.960383 1_565
Nb0 O1 2.031460 1_555
Nb0 O7 2.036858 1_555
Nb0 O4 2.039444 1_555
Nb0 O0 2.090885 1_555
Nb0 O3 2.091767 1_555
Nb0 O8 2.094364 1_565
Nb1 O6 2.032015 1_555
Nb1 O5 2.035127 1_555
Nb1 O2 2.038954 1_555
Nb1 O3 2.098432 1_656
Nb1 O0 2.098920 1_556
Nb1 O8 2.099454 1_556
Co0 O1 1.863656 1_555
Co0 O7 1.867338 1_445
Co0 O4 1.869761 1_545
Co0 Mg0 2.261007 1_445
