# generated using pymatgen
data_La3(AlI)2
_symmetry_space_group_name_H-M   'P 1'
_cell_length_a   10.19195022
_cell_length_b   10.19195022
_cell_length_c   12.47796396
_cell_angle_alpha   59.23913734
_cell_angle_beta   59.23913734
_cell_angle_gamma   24.65666486
_symmetry_Int_Tables_number   1
_chemical_formula_structural   La3(AlI)2
_chemical_formula_sum   'La6 Al4 I4'
_cell_volume   460.70757053
_cell_formula_units_Z   2
loop_
 _symmetry_equiv_pos_site_id
 _symmetry_equiv_pos_as_xyz
  1  'x, y, z'
loop_
 _atom_site_type_symbol
 _atom_site_label
 _atom_site_symmetry_multiplicity
 _atom_site_fract_x
 _atom_site_fract_y
 _atom_site_fract_z
 _atom_site_occupancy
  La  La0  1  0.83074800  0.83074800  0.39194500  1
  La  La1  1  0.16925200  0.16925200  0.60805500  1
  La  La2  1  0.75481000  0.75481000  0.80182700  1
  La  La3  1  0.24519000  0.24519000  0.19817300  1
  La  La4  1  0.53458400  0.53458400  0.30915200  1
  La  La5  1  0.46541600  0.46541600  0.69084800  1
  Al  Al0  1  0.92697700  0.92697700  0.53337700  1
  Al  Al1  1  0.07302300  0.07302300  0.46662300  1
  Al  Al2  1  0.34089200  0.34089200  0.58470200  1
  Al  Al3  1  0.65910800  0.65910800  0.41529800  1
  I  I0  1  0.42332900  0.42332900  0.17024200  1
  I  I1  1  0.57667100  0.57667100  0.82975800  1
  I  I2  1  0.85845200  0.85845200  0.94055700  1
  I  I3  1  0.14154800  0.14154800  0.05944300  1
loop_
_geom_bond_atom_site_label_1
_geom_bond_atom_site_label_2
_geom_bond_distance
_geom_bond_site_symmetry_2
Al0 Al1 2.572107 1_665
Al0 Al2 2.633414 1_655
Al0 Al2 2.633414 1_565
Al0 La0 3.213659 1_555
Al0 La5 3.279817 1_565
Al0 La5 3.279817 1_655
Al0 La4 3.298161 1_655
Al0 La4 3.298161 1_565
Al0 La2 3.309122 1_555
Al1 Al3 2.633414 1_545
Al1 Al3 2.633414 1_455
Al1 La1 3.213659 1_555
Al1 La4 3.279817 1_455
Al1 La4 3.279817 1_545
Al1 La5 3.298161 1_455
Al1 La5 3.298161 1_545
Al1 La3 3.309122 1_555
Al2 La2 3.186124 1_545
Al2 La2 3.186124 1_455
Al2 La1 3.274883 1_555
Al2 La0 3.327175 1_455
Al2 La0 3.327175 1_545
Al2 La5 3.367846 1_555
Al2 La4 3.579584 1_555
Al3 La3 3.186124 1_655
Al3 La3 3.186124 1_565
Al3 La0 3.274883 1_555
Al3 La1 3.327175 1_565
Al3 La1 3.327175 1_655
Al3 La4 3.367846 1_555
Al3 La5 3.579584 1_555
I0 La0 3.232218 1_545
I0 La0 3.232218 1_455
I0 La3 3.378049 1_555
I0 La4 3.454530 1_555
I1 La1 3.232218 1_565
I1 La1 3.232218 1_655
I1 La2 3.378049 1_555
I1 La5 3.454530 1_555
I2 La2 3.316206 1_555
I2 La5 3.468711 1_565
I2 La5 3.468711 1_655
I2 La3 3.544626 1_656
I2 La3 3.544626 1_566
I3 La3 3.316206 1_555
I3 La4 3.468711 1_455
I3 La4 3.468711 1_545
I3 La2 3.544626 1_454
I3 La2 3.544626 1_544
