# generated using pymatgen
data_Bi(PO3)3
_symmetry_space_group_name_H-M   'P 1'
_cell_length_a   6.92124743
_cell_length_b   7.16455110
_cell_length_c   13.71696835
_cell_angle_alpha   86.38492490
_cell_angle_beta   90.00000000
_cell_angle_gamma   90.00000000
_symmetry_Int_Tables_number   1
_chemical_formula_structural   Bi(PO3)3
_chemical_formula_sum   'Bi4 P12 O36'
_cell_volume   678.83849852
_cell_formula_units_Z   4
loop_
 _symmetry_equiv_pos_site_id
 _symmetry_equiv_pos_as_xyz
  1  'x, y, z'
loop_
 _atom_site_type_symbol
 _atom_site_label
 _atom_site_symmetry_multiplicity
 _atom_site_fract_x
 _atom_site_fract_y
 _atom_site_fract_z
 _atom_site_occupancy
  Bi  Bi0  1  0.36603082  0.75949894  0.56629813  1
  Bi  Bi1  1  0.86603082  0.24050106  0.93370187  1
  Bi  Bi2  1  0.63396918  0.24050106  0.43370187  1
  Bi  Bi3  1  0.13396918  0.75949894  0.06629813  1
  P  P0  1  0.31566959  0.23577119  0.63573969  1
  P  P1  1  0.81566959  0.76422881  0.86426031  1
  P  P2  1  0.68433041  0.76422881  0.36426031  1
  P  P3  1  0.18433041  0.23577119  0.13573969  1
  P  P4  1  0.39290581  0.29314404  0.84151211  1
  P  P5  1  0.89290581  0.70685596  0.65848789  1
  P  P6  1  0.60709419  0.70685596  0.15848789  1
  P  P7  1  0.10709419  0.29314404  0.34151211  1
  P  P8  1  0.39826128  0.70651636  0.82377571  1
  P  P9  1  0.89826128  0.29348364  0.67622429  1
  P  P10  1  0.60173872  0.29348364  0.17622429  1
  P  P11  1  0.10173872  0.70651636  0.32377571  1
  O  O0  1  0.34218172  0.43222833  0.59650883  1
  O  O1  1  0.84218172  0.56777167  0.90349117  1
  O  O2  1  0.65781828  0.56777167  0.40349117  1
  O  O3  1  0.15781828  0.43222833  0.09650883  1
  O  O4  1  0.39172900  0.08955776  0.57197499  1
  O  O5  1  0.89172900  0.91044224  0.92802501  1
  O  O6  1  0.60827100  0.91044224  0.42802501  1
  O  O7  1  0.10827100  0.08955776  0.07197499  1
  O  O8  1  0.03527849  0.79549735  0.58862220  1
  O  O9  1  0.53527849  0.20450265  0.91137780  1
  O  O10  1  0.96472151  0.20450265  0.41137780  1
  O  O11  1  0.46472151  0.79549735  0.08862220  1
  O  O12  1  0.18679541  0.29590573  0.86972842  1
  O  O13  1  0.68679541  0.70409427  0.63027158  1
  O  O14  1  0.81320459  0.70409427  0.13027158  1
  O  O15  1  0.31320459  0.29590573  0.36972842  1
  O  O16  1  0.17665056  0.78558938  0.22813396  1
  O  O17  1  0.67665056  0.21441062  0.27186604  1
  O  O18  1  0.82334944  0.21441062  0.77186604  1
  O  O19  1  0.32334944  0.78558938  0.72813396  1
  O  O20  1  0.08631653  0.19900133  0.23947364  1
  O  O21  1  0.58631653  0.80099867  0.26052636  1
  O  O22  1  0.91368347  0.80099867  0.76052636  1
  O  O23  1  0.41368347  0.19900133  0.73947364  1
  O  O24  1  0.23147132  0.71617307  0.40853757  1
  O  O25  1  0.73147132  0.28382693  0.09146243  1
  O  O26  1  0.76852868  0.28382693  0.59146243  1
  O  O27  1  0.26852868  0.71617307  0.90853757  1
  O  O28  1  0.03077417  0.49881691  0.31095157  1
  O  O29  1  0.53077417  0.50118309  0.18904843  1
  O  O30  1  0.96922583  0.50118309  0.68904843  1
  O  O31  1  0.46922583  0.49881691  0.81095157  1
  O  O32  1  0.40406236  0.19094933  0.15571705  1
  O  O33  1  0.90406236  0.80905067  0.34428295  1
  O  O34  1  0.59593764  0.80905067  0.84428295  1
  O  O35  1  0.09593764  0.19094933  0.65571705  1
loop_
_geom_bond_atom_site_label_1
_geom_bond_atom_site_label_2
_geom_bond_distance
_geom_bond_site_symmetry_2
Bi0 O19 2.258867 1_555
Bi0 O8 2.326106 1_555
Bi0 O0 2.360991 1_555
Bi0 O4 2.377569 1_565
Bi0 O24 2.394014 1_555
Bi0 O13 2.410911 1_555
Bi0 O6 2.705416 1_555
Bi1 O18 2.258867 1_555
Bi1 O9 2.326106 1_555
Bi1 O1 2.360991 1_555
Bi1 O5 2.377569 1_545
Bi1 O25 2.394014 1_556
Bi1 O12 2.410911 1_655
Bi1 O7 2.705416 1_656
Bi2 O17 2.258867 1_555
Bi2 O10 2.326106 1_555
Bi2 O2 2.360991 1_555
Bi2 O6 2.377569 1_545
Bi2 O26 2.394014 1_555
Bi2 O15 2.410911 1_555
Bi2 O4 2.705416 1_555
Bi3 O16 2.258867 1_555
Bi3 O11 2.326106 1_555
Bi3 O3 2.360991 1_555
Bi3 O7 2.377569 1_565
Bi3 O27 2.394014 1_554
Bi3 O14 2.410911 1_455
Bi3 O5 2.705416 1_454
O0 P0 1.486227 1_555
O1 P1 1.486227 1_555
O2 P2 1.486227 1_555
O3 P3 1.486227 1_555
O4 P0 1.501687 1_555
O5 P1 1.501687 1_555
O6 P2 1.501687 1_555
O7 P3 1.501687 1_555
O8 P5 1.488624 1_455
O9 P4 1.488624 1_555
O10 P7 1.488624 1_655
O11 P6 1.488624 1_555
O12 P4 1.478573 1_555
O13 P5 1.478573 1_555
O14 P6 1.478573 1_555
O15 P7 1.478573 1_555
O16 P11 1.489016 1_555
O17 P10 1.489016 1_555
O18 P9 1.489016 1_555
O19 P8 1.489016 1_555
O20 P3 1.583355 1_555
O20 P7 1.598034 1_555
O21 P2 1.583355 1_555
O21 P6 1.598034 1_555
O22 P1 1.583355 1_555
O22 P5 1.598034 1_555
O23 P0 1.583355 1_555
O23 P4 1.598034 1_555
O24 P11 1.474107 1_555
O25 P10 1.474107 1_555
O26 P9 1.474107 1_555
O27 P8 1.474107 1_555
O28 P11 1.587311 1_555
O28 P7 1.596314 1_555
O29 P10 1.587311 1_555
O29 P6 1.596314 1_555
O30 P9 1.587311 1_555
O30 P5 1.596314 1_555
O31 P8 1.587311 1_555
O31 P4 1.596314 1_555
O32 P3 1.574804 1_555
O32 P10 1.586418 1_555
O33 P2 1.574804 1_555
O33 P11 1.586418 1_655
O34 P1 1.574804 1_555
O34 P8 1.586418 1_555
O35 P0 1.574804 1_555
O35 P9 1.586418 1_455
