# generated using pymatgen
data_Na3La2(PO4)3
_symmetry_space_group_name_H-M   'P 1'
_cell_length_a   16.60720787
_cell_length_b   9.56845187
_cell_length_c   9.67718893
_cell_angle_alpha   90.00000000
_cell_angle_beta   125.22851791
_cell_angle_gamma   90.00000000
_symmetry_Int_Tables_number   1
_chemical_formula_structural   Na3La2(PO4)3
_chemical_formula_sum   'Na12 La8 P12 O48'
_cell_volume   1256.12837409
_cell_formula_units_Z   4
loop_
 _symmetry_equiv_pos_site_id
 _symmetry_equiv_pos_as_xyz
  1  'x, y, z'
loop_
 _atom_site_type_symbol
 _atom_site_label
 _atom_site_symmetry_multiplicity
 _atom_site_fract_x
 _atom_site_fract_y
 _atom_site_fract_z
 _atom_site_occupancy
  Na  Na0  1  0.24246792  0.77039816  0.99524644  1
  Na  Na1  1  0.74246792  0.72960184  0.49524644  1
  Na  Na2  1  0.74246792  0.27039816  0.99524644  1
  Na  Na3  1  0.24246792  0.22960184  0.49524644  1
  Na  Na4  1  0.50053539  0.09837172  0.73470040  1
  Na  Na5  1  0.50053539  0.90162828  0.23470040  1
  Na  Na6  1  0.00053539  0.59837172  0.73470040  1
  Na  Na7  1  0.00053539  0.40162828  0.23470040  1
  Na  Na8  1  0.81063650  0.93406002  0.19158568  1
  Na  Na9  1  0.81063650  0.06593998  0.69158568  1
  Na  Na10  1  0.31063650  0.43406002  0.19158568  1
  Na  Na11  1  0.31063650  0.56593998  0.69158568  1
  La  La0  1  0.10270402  0.76699000  0.54529983  1
  La  La1  1  0.89951207  0.75027281  0.94590371  1
  La  La2  1  0.89951207  0.24972719  0.44590371  1
  La  La3  1  0.10270402  0.23301000  0.04529983  1
  La  La4  1  0.60270402  0.26699000  0.54529983  1
  La  La5  1  0.39951207  0.25027281  0.94590371  1
  La  La6  1  0.39951207  0.74972719  0.44590371  1
  La  La7  1  0.60270402  0.73301000  0.04529983  1
  P  P0  1  0.99129319  0.93360833  0.73400426  1
  P  P1  1  0.99129319  0.06639167  0.23400426  1
  P  P2  1  0.49129319  0.43360833  0.73400426  1
  P  P3  1  0.49129319  0.56639167  0.23400426  1
  P  P4  1  0.35669389  0.89928497  0.76856639  1
  P  P5  1  0.65714871  0.91308446  0.75387332  1
  P  P6  1  0.65714871  0.08691554  0.25387332  1
  P  P7  1  0.35669389  0.10071503  0.26856639  1
  P  P8  1  0.85669389  0.39928497  0.76856639  1
  P  P9  1  0.15714871  0.41308446  0.75387332  1
  P  P10  1  0.15714871  0.58691554  0.25387332  1
  P  P11  1  0.85669389  0.60071503  0.26856639  1
  O  O0  1  0.16087949  0.57618006  0.75851334  1
  O  O1  1  0.84255749  0.55926721  0.73490852  1
  O  O2  1  0.84255749  0.44073279  0.23490852  1
  O  O3  1  0.16087949  0.42381994  0.25851334  1
  O  O4  1  0.66087949  0.07618006  0.75851334  1
  O  O5  1  0.34255749  0.05926721  0.73490852  1
  O  O6  1  0.34255749  0.94073279  0.23490852  1
  O  O7  1  0.66087949  0.92381994  0.25851334  1
  O  O8  1  0.44017133  0.52557048  0.57359443  1
  O  O9  1  0.54040251  0.52829154  0.89266998  1
  O  O10  1  0.54040251  0.47170846  0.39266998  1
  O  O11  1  0.44017133  0.47442952  0.07359443  1
  O  O12  1  0.94017133  0.02557048  0.57359443  1
  O  O13  1  0.04040251  0.02829154  0.89266998  1
  O  O14  1  0.04040251  0.97170846  0.39266998  1
  O  O15  1  0.94017133  0.97442952  0.07359443  1
  O  O16  1  0.27163814  0.83025475  0.76844315  1
  O  O17  1  0.73874999  0.85754619  0.73628960  1
  O  O18  1  0.73874999  0.14245381  0.23628960  1
  O  O19  1  0.27163814  0.16974525  0.26844315  1
  O  O20  1  0.77163814  0.33025475  0.76844315  1
  O  O21  1  0.23874999  0.35754619  0.73628960  1
  O  O22  1  0.23874999  0.64245381  0.23628960  1
  O  O23  1  0.77163814  0.66974525  0.26844315  1
  O  O24  1  0.36108220  0.82997445  0.62764634  1
  O  O25  1  0.67248600  0.86358207  0.92155761  1
  O  O26  1  0.67248600  0.13641793  0.42155761  1
  O  O27  1  0.36108220  0.17002555  0.12764634  1
  O  O28  1  0.86108220  0.32997445  0.62764634  1
  O  O29  1  0.17248600  0.36358207  0.92155761  1
  O  O30  1  0.17248600  0.63641793  0.42155761  1
  O  O31  1  0.86108220  0.67002555  0.12764634  1
  O  O32  1  0.45586384  0.86924647  0.94085200  1
  O  O33  1  0.55505899  0.86114305  0.60224538  1
  O  O34  1  0.55505899  0.13885695  0.10224538  1
  O  O35  1  0.45586384  0.13075353  0.44085200  1
  O  O36  1  0.95586384  0.36924647  0.94085200  1
  O  O37  1  0.05505899  0.36114305  0.60224538  1
  O  O38  1  0.05505899  0.63885695  0.10224538  1
  O  O39  1  0.95586384  0.63075353  0.44085200  1
  O  O40  1  0.07062960  0.83342680  0.75165336  1
  O  O41  1  0.90948876  0.84286838  0.72244625  1
  O  O42  1  0.90948876  0.15713162  0.22244625  1
  O  O43  1  0.07062960  0.16657320  0.25165336  1
  O  O44  1  0.57062960  0.33342680  0.75165336  1
  O  O45  1  0.40948876  0.34286838  0.72244625  1
  O  O46  1  0.40948876  0.65713162  0.22244625  1
  O  O47  1  0.57062960  0.66657320  0.25165336  1
loop_
_geom_bond_atom_site_label_1
_geom_bond_atom_site_label_2
_geom_bond_distance
_geom_bond_site_symmetry_2
Na0 O40 2.510680 1_555
Na0 O6 2.520065 1_556
Na0 O16 2.570326 1_555
Na0 O46 2.581983 1_556
Na0 O0 2.637535 1_555
Na0 O22 2.666426 1_556
Na1 O47 2.510680 1_555
Na1 O1 2.520065 1_555
Na1 O23 2.570326 1_555
Na1 O41 2.581983 1_555
Na1 O7 2.637535 1_555
Na1 O17 2.666426 1_555
Na2 O44 2.510680 1_555
Na2 O2 2.520065 1_556
Na2 O20 2.570326 1_555
Na2 O42 2.581983 1_556
Na2 O4 2.637535 1_555
Na2 O18 2.666426 1_556
Na3 O43 2.510680 1_555
Na3 O5 2.520065 1_555
Na3 O19 2.570326 1_555
Na3 O45 2.581983 1_555
Na3 O3 2.637535 1_555
Na3 O21 2.666426 1_555
Na4 O44 2.494025 1_555
Na4 O35 2.509738 1_555
Na4 O4 2.545804 1_555
Na4 O5 2.651270 1_555
Na4 O45 2.750724 1_555
Na5 O47 2.494025 1_555
Na5 O32 2.509738 1_554
Na5 O7 2.545804 1_555
Na5 O6 2.651270 1_555
Na5 O46 2.750724 1_555
Na6 O40 2.494025 1_555
Na6 O39 2.509738 1_455
Na6 O0 2.545804 1_555
Na6 O1 2.651270 1_455
Na6 O41 2.750724 1_455
Na7 O43 2.494025 1_555
Na7 O36 2.509738 1_454
Na7 O3 2.545804 1_555
Na7 O2 2.651270 1_455
Na7 O42 2.750724 1_455
Na8 O25 2.372831 1_554
Na8 O18 2.486822 1_565
Na8 O42 2.602786 1_565
Na8 O23 2.815072 1_555
Na8 O31 2.839971 1_555
Na8 O7 2.910809 1_555
Na8 O15 2.985710 1_555
Na9 O26 2.372831 1_555
Na9 O17 2.486822 1_545
Na9 O41 2.602786 1_545
Na9 O20 2.815072 1_555
Na9 O28 2.839971 1_555
Na9 O4 2.910809 1_555
Na9 O12 2.985710 1_555
Na10 O29 2.372831 1_554
Na10 O22 2.486822 1_555
Na10 O46 2.602786 1_555
Na10 O19 2.815072 1_555
Na10 O27 2.839971 1_555
Na10 O3 2.910809 1_555
Na10 O11 2.985710 1_555
Na11 O30 2.372831 1_555
Na11 O21 2.486822 1_555
Na11 O45 2.602786 1_555
Na11 O16 2.815072 1_555
Na11 O24 2.839971 1_555
Na11 O0 2.910809 1_555
Na11 O8 2.985710 1_555
La0 O14 2.307835 1_555
La0 O39 2.413316 1_455
La0 O40 2.429548 1_555
La0 O16 2.431286 1_555
La0 O30 2.436985 1_555
La0 O0 2.494847 1_555
La1 O31 2.320579 1_556
La1 O38 2.364233 1_656
La1 O15 2.370774 1_556
La1 O41 2.429389 1_555
La1 O17 2.459322 1_555
La1 O1 2.485135 1_555
La2 O28 2.320579 1_555
La2 O37 2.364233 1_655
La2 O12 2.370774 1_555
La2 O42 2.429389 1_555
La2 O18 2.459322 1_555
La2 O2 2.485135 1_555
La3 O13 2.307835 1_554
La3 O36 2.413316 1_454
La3 O43 2.429548 1_555
La3 O19 2.431286 1_555
La3 O29 2.436985 1_554
La3 O3 2.494847 1_555
La4 O10 2.307835 1_555
La4 O35 2.413316 1_555
La4 O44 2.429548 1_555
La4 O20 2.431286 1_555
La4 O26 2.436985 1_555
La4 O4 2.494847 1_555
La5 O27 2.320579 1_556
La5 O34 2.364233 1_556
La5 O11 2.370774 1_556
La5 O45 2.429389 1_555
La5 O21 2.459322 1_555
La5 O5 2.485135 1_555
La6 O24 2.320579 1_555
La6 O33 2.364233 1_555
La6 O8 2.370774 1_555
La6 O46 2.429389 1_555
La6 O22 2.459322 1_555
La6 O6 2.485135 1_555
La7 O9 2.307835 1_554
La7 O32 2.413316 1_554
La7 O47 2.429548 1_555
La7 O23 2.431286 1_555
La7 O25 2.436985 1_554
La7 O7 2.494847 1_555
O0 P9 1.561420 1_555
O1 P8 1.554439 1_555
O2 P11 1.554439 1_555
O3 P10 1.561420 1_555
O4 P5 1.561420 1_545
O5 P4 1.554439 1_545
O6 P7 1.554439 1_565
O7 P6 1.561420 1_565
O8 P2 1.544125 1_555
O9 P2 1.548809 1_555
O10 P3 1.548809 1_555
O11 P3 1.544125 1_555
O12 P0 1.544125 1_545
O13 P0 1.548809 1_445
O14 P1 1.548809 1_465
O15 P1 1.544125 1_565
O16 P4 1.558717 1_555
O17 P5 1.553665 1_555
O18 P6 1.553665 1_555
O19 P7 1.558717 1_555
O20 P8 1.558717 1_555
O21 P9 1.553665 1_555
O22 P10 1.553665 1_555
O23 P11 1.558717 1_555
O24 P4 1.555474 1_555
O25 P5 1.563838 1_555
O26 P6 1.563838 1_555
O27 P7 1.555474 1_555
O28 P8 1.555474 1_555
O29 P9 1.563838 1_555
O30 P10 1.563838 1_555
O31 P11 1.555474 1_555
O32 P4 1.551415 1_555
O33 P5 1.550637 1_555
O34 P6 1.550637 1_555
O35 P7 1.551415 1_555
O36 P8 1.551415 1_555
O37 P9 1.550637 1_555
O38 P10 1.550637 1_555
O39 P11 1.551415 1_555
O40 P0 1.557046 1_455
O41 P0 1.560990 1_555
O42 P1 1.560990 1_555
O43 P1 1.557046 1_455
O44 P2 1.557046 1_555
O45 P2 1.560990 1_555
O46 P3 1.560990 1_555
O47 P3 1.557046 1_555
