# generated using pymatgen
data_B2PCl2
_symmetry_space_group_name_H-M   'P 1'
_cell_length_a   6.51049900
_cell_length_b   13.27109400
_cell_length_c   24.83441300
_cell_angle_alpha   90.00000000
_cell_angle_beta   90.00000000
_cell_angle_gamma   90.00000000
_symmetry_Int_Tables_number   1
_chemical_formula_structural   B2PCl2
_chemical_formula_sum   'B32 P16 Cl32'
_cell_volume   2145.72914945
_cell_formula_units_Z   16
loop_
 _symmetry_equiv_pos_site_id
 _symmetry_equiv_pos_as_xyz
  1  'x, y, z'
loop_
 _atom_site_type_symbol
 _atom_site_label
 _atom_site_symmetry_multiplicity
 _atom_site_fract_x
 _atom_site_fract_y
 _atom_site_fract_z
 _atom_site_occupancy
  B  B0  1  0.61034600  0.85840700  0.40853800  1
  B  B1  1  0.61034600  0.64159300  0.59146200  1
  B  B2  1  0.88965400  0.35840700  0.09146200  1
  B  B3  1  0.88965400  0.14159300  0.90853800  1
  B  B4  1  0.38965400  0.14159300  0.59146200  1
  B  B5  1  0.38965400  0.35840700  0.40853800  1
  B  B6  1  0.11034600  0.64159300  0.90853800  1
  B  B7  1  0.11034600  0.85840700  0.09146200  1
  B  B8  1  0.40542400  0.77443200  0.39787700  1
  B  B9  1  0.40542400  0.72556800  0.60212300  1
  B  B10  1  0.09457600  0.27443200  0.10212300  1
  B  B11  1  0.09457600  0.22556800  0.89787700  1
  B  B12  1  0.59457600  0.22556800  0.60212300  1
  B  B13  1  0.59457600  0.27443200  0.39787700  1
  B  B14  1  0.90542400  0.72556800  0.89787700  1
  B  B15  1  0.90542400  0.77443200  0.10212300  1
  B  B16  1  0.61445000  0.78134700  0.35365700  1
  B  B17  1  0.61445000  0.71865300  0.64634300  1
  B  B18  1  0.88555000  0.28134700  0.14634300  1
  B  B19  1  0.88555000  0.21865300  0.85365700  1
  B  B20  1  0.38555000  0.21865300  0.64634300  1
  B  B21  1  0.38555000  0.28134700  0.35365700  1
  B  B22  1  0.11445000  0.71865300  0.85365700  1
  B  B23  1  0.11445000  0.78134700  0.14634300  1
  B  B24  1  0.58254900  0.91106700  0.34403700  1
  B  B25  1  0.58254900  0.58893300  0.65596300  1
  B  B26  1  0.91745100  0.41106700  0.15596300  1
  B  B27  1  0.91745100  0.08893300  0.84403700  1
  B  B28  1  0.41745100  0.08893300  0.65596300  1
  B  B29  1  0.41745100  0.41106700  0.34403700  1
  B  B30  1  0.08254900  0.58893300  0.84403700  1
  B  B31  1  0.08254900  0.91106700  0.15596300  1
  P  P0  1  0.34238500  0.82311100  0.32216400  1
  P  P1  1  0.34238500  0.67688900  0.67783600  1
  P  P2  1  0.15761500  0.32311100  0.17783600  1
  P  P3  1  0.15761500  0.17688900  0.82216400  1
  P  P4  1  0.65761500  0.17688900  0.67783600  1
  P  P5  1  0.65761500  0.32311100  0.32216400  1
  P  P6  1  0.84238500  0.67688900  0.82216400  1
  P  P7  1  0.84238500  0.82311100  0.17783600  1
  P  P8  1  0.33727200  0.92406600  0.39398400  1
  P  P9  1  0.33727200  0.57593400  0.60601600  1
  P  P10  1  0.16272800  0.42406600  0.10601600  1
  P  P11  1  0.16272800  0.07593400  0.89398400  1
  P  P12  1  0.66272800  0.07593400  0.60601600  1
  P  P13  1  0.66272800  0.42406600  0.39398400  1
  P  P14  1  0.83727200  0.57593400  0.89398400  1
  P  P15  1  0.83727200  0.92406600  0.10601600  1
  Cl  Cl0  1  0.77789200  0.88151000  0.46228600  1
  Cl  Cl1  1  0.77789200  0.61849000  0.53771400  1
  Cl  Cl2  1  0.72210800  0.38151000  0.03771400  1
  Cl  Cl3  1  0.72210800  0.11849000  0.96228600  1
  Cl  Cl4  1  0.22210800  0.11849000  0.53771400  1
  Cl  Cl5  1  0.22210800  0.38151000  0.46228600  1
  Cl  Cl6  1  0.27789200  0.61849000  0.96228600  1
  Cl  Cl7  1  0.27789200  0.88151000  0.03771400  1
  Cl  Cl8  1  0.28656300  0.67800900  0.43446200  1
  Cl  Cl9  1  0.28656300  0.82199100  0.56553800  1
  Cl  Cl10  1  0.21343700  0.17800900  0.06553800  1
  Cl  Cl11  1  0.21343700  0.32199100  0.93446200  1
  Cl  Cl12  1  0.71343700  0.32199100  0.56553800  1
  Cl  Cl13  1  0.71343700  0.17800900  0.43446200  1
  Cl  Cl14  1  0.78656300  0.82199100  0.93446200  1
  Cl  Cl15  1  0.78656300  0.67800900  0.06553800  1
  Cl  Cl16  1  0.78882000  0.69268500  0.32796400  1
  Cl  Cl17  1  0.78882000  0.80731500  0.67203600  1
  Cl  Cl18  1  0.71118000  0.19268500  0.17203600  1
  Cl  Cl19  1  0.71118000  0.30731500  0.82796400  1
  Cl  Cl20  1  0.21118000  0.30731500  0.67203600  1
  Cl  Cl21  1  0.21118000  0.19268500  0.32796400  1
  Cl  Cl22  1  0.28882000  0.80731500  0.82796400  1
  Cl  Cl23  1  0.28882000  0.69268500  0.17203600  1
  Cl  Cl24  1  0.71350300  0.00277100  0.30644500  1
  Cl  Cl25  1  0.71350300  0.49722900  0.69355500  1
  Cl  Cl26  1  0.78649700  0.50277100  0.19355500  1
  Cl  Cl27  1  0.78649700  0.99722900  0.80644500  1
  Cl  Cl28  1  0.28649700  0.99722900  0.69355500  1
  Cl  Cl29  1  0.28649700  0.50277100  0.30644500  1
  Cl  Cl30  1  0.21350300  0.49722900  0.80644500  1
  Cl  Cl31  1  0.21350300  0.00277100  0.19355500  1
loop_
_geom_bond_atom_site_label_1
_geom_bond_atom_site_label_2
_geom_bond_distance
_geom_bond_site_symmetry_2
B0 Cl0 1.750874 1_555
B0 P8 2.012626 1_555
B1 Cl1 1.750874 1_555
B1 P9 2.012626 1_555
B2 Cl2 1.750874 1_555
B2 P10 2.012626 1_655
B3 Cl3 1.750874 1_555
B3 P11 2.012626 1_655
B4 Cl4 1.750874 1_555
B4 P12 2.012626 1_555
B5 Cl5 1.750874 1_555
B5 P13 2.012626 1_555
B6 Cl6 1.750874 1_555
B6 P14 2.012626 1_455
B7 Cl7 1.750874 1_555
B7 P15 2.012626 1_455
B8 Cl8 1.749801 1_555
B8 P0 2.030091 1_555
B8 P8 2.037069 1_555
B9 Cl9 1.749801 1_555
B9 P1 2.030091 1_555
B9 P9 2.037069 1_555
B10 Cl10 1.749801 1_555
B10 P2 2.030091 1_555
B10 P10 2.037069 1_555
B11 Cl11 1.749801 1_555
B11 P3 2.030091 1_555
B11 P11 2.037069 1_555
B12 Cl12 1.749801 1_555
B12 P4 2.030091 1_555
B12 P12 2.037069 1_555
B13 Cl13 1.749801 1_555
B13 P5 2.030091 1_555
B13 P13 2.037069 1_555
B14 Cl14 1.749801 1_555
B14 P6 2.030091 1_555
B14 P14 2.037069 1_555
B15 Cl15 1.749801 1_555
B15 P7 2.030091 1_555
B15 P15 2.037069 1_555
B16 Cl16 1.755101 1_555
B16 P0 2.014031 1_555
B17 Cl17 1.755101 1_555
B17 P1 2.014031 1_555
B18 Cl18 1.755101 1_555
B18 P2 2.014031 1_655
B19 Cl19 1.755101 1_555
B19 P3 2.014031 1_655
B20 Cl20 1.755101 1_555
B20 P4 2.014031 1_555
B21 Cl21 1.755101 1_555
B21 P5 2.014031 1_555
B22 Cl22 1.755101 1_555
B22 P6 2.014031 1_455
B23 Cl23 1.755101 1_555
B23 P7 2.014031 1_455
B24 Cl24 1.754870 1_565
B24 P0 2.025438 1_555
B24 P8 2.029378 1_555
B25 Cl25 1.754870 1_555
B25 P1 2.025438 1_555
B25 P9 2.029378 1_555
B26 Cl26 1.754870 1_555
B26 P2 2.025438 1_655
B26 P10 2.029378 1_655
B27 Cl27 1.754870 1_545
B27 P3 2.025438 1_655
B27 P11 2.029378 1_655
B28 Cl28 1.754870 1_545
B28 P4 2.025438 1_555
B28 P12 2.029378 1_555
B29 Cl29 1.754870 1_555
B29 P5 2.025438 1_555
B29 P13 2.029378 1_555
B30 Cl30 1.754870 1_555
B30 P6 2.025438 1_455
B30 P14 2.029378 1_455
B31 Cl31 1.754870 1_565
B31 P7 2.025438 1_455
B31 P15 2.029378 1_455
P0 P8 2.231005 1_555
P1 P9 2.231005 1_555
P10 P2 2.231005 1_555
P11 P3 2.231005 1_555
P12 P4 2.231005 1_555
P13 P5 2.231005 1_555
P14 P6 2.231005 1_555
P15 P7 2.231005 1_555
