# generated using pymatgen
data_Na4LaTiSi2PO12
_symmetry_space_group_name_H-M   'P 1'
_cell_length_a   9.49906885
_cell_length_b   9.49906849
_cell_length_c   21.90968438
_cell_angle_alpha   90.71600724
_cell_angle_beta   89.28399270
_cell_angle_gamma   119.96491083
_symmetry_Int_Tables_number   1
_chemical_formula_structural   Na4LaTiSi2PO12
_chemical_formula_sum   'Na24 La6 Ti6 Si12 P6 O72'
_cell_volume   1712.52540929
_cell_formula_units_Z   6
loop_
 _symmetry_equiv_pos_site_id
 _symmetry_equiv_pos_as_xyz
  1  'x, y, z'
loop_
 _atom_site_type_symbol
 _atom_site_label
 _atom_site_symmetry_multiplicity
 _atom_site_fract_x
 _atom_site_fract_y
 _atom_site_fract_z
 _atom_site_occupancy
  Na  Na0  1  0.64219285  0.00515733  0.24869487  1
  Na  Na1  1  0.36453149  0.37282801  0.24552808  1
  Na  Na2  1  0.99405376  0.62967483  0.24680270  1
  Na  Na3  1  0.62717199  0.63546851  0.74552808  1
  Na  Na4  1  0.99484267  0.35780715  0.74869487  1
  Na  Na5  1  0.37032517  0.00594624  0.74680270  1
  Na  Na6  1  0.30885985  0.33849033  0.58202787  1
  Na  Na7  1  0.03119849  0.70616101  0.57886108  1
  Na  Na8  1  0.66072076  0.96300783  0.58013570  1
  Na  Na9  1  0.29383899  0.96880151  0.07886108  1
  Na  Na10  1  0.66150967  0.69114015  0.08202787  1
  Na  Na11  1  0.03699217  0.33927924  0.08013570  1
  Na  Na12  1  0.97552585  0.67182433  0.91536187  1
  Na  Na13  1  0.69786449  0.03949501  0.91219508  1
  Na  Na14  1  0.32738676  0.29634183  0.91346970  1
  Na  Na15  1  0.96050499  0.30213551  0.41219508  1
  Na  Na16  1  0.32817567  0.02447415  0.41536187  1
  Na  Na17  1  0.70365817  0.67261324  0.41346970  1
  Na  Na18  1  0.99216069  0.98983672  0.50225156  1
  Na  Na19  1  0.01016328  0.00783931  0.00225156  1
  Na  Na20  1  0.65882769  0.32316972  0.83558456  1
  Na  Na21  1  0.67683028  0.34117231  0.33558456  1
  Na  Na22  1  0.32549369  0.65650372  0.16891856  1
  Na  Na23  1  0.34349628  0.67450631  0.66891856  1
  La  La0  1  0.99597996  0.99832452  0.34120966  1
  La  La1  1  0.00167548  0.00402004  0.84120966  1
  La  La2  1  0.66264696  0.33165752  0.67454266  1
  La  La3  1  0.66834248  0.33735304  0.17454266  1
  La  La4  1  0.32931296  0.66499152  0.00787666  1
  La  La5  1  0.33500848  0.67068704  0.50787666  1
  Ti  Ti0  1  0.99870458  0.00081926  0.65043698  1
  Ti  Ti1  1  0.99918074  0.00129542  0.15043698  1
  Ti  Ti2  1  0.66537158  0.33415226  0.98376998  1
  Ti  Ti3  1  0.66584774  0.33462842  0.48376998  1
  Ti  Ti4  1  0.33203758  0.66748626  0.31710398  1
  Ti  Ti5  1  0.33251374  0.66796242  0.81710398  1
  Si  Si0  1  0.68504363  0.70471044  0.25093193  1
  Si  Si1  1  0.01648398  0.31428467  0.25168552  1
  Si  Si2  1  0.29528956  0.31495637  0.75093193  1
  Si  Si3  1  0.68571533  0.98351602  0.75168552  1
  Si  Si4  1  0.35171063  0.03804344  0.58426493  1
  Si  Si5  1  0.68315098  0.64761767  0.58501852  1
  Si  Si6  1  0.96195656  0.64828937  0.08426493  1
  Si  Si7  1  0.35238233  0.31684902  0.08501852  1
  Si  Si8  1  0.01837663  0.37137744  0.91759893  1
  Si  Si9  1  0.34981698  0.98095167  0.91835252  1
  Si  Si10  1  0.62862256  0.98162337  0.41759893  1
  Si  Si11  1  0.01904833  0.65018302  0.41835252  1
  P  P0  1  0.29201379  0.97644555  0.24847560  1
  P  P1  1  0.02355445  0.70798621  0.74847560  1
  P  P2  1  0.95868079  0.30977855  0.58180860  1
  P  P3  1  0.69022145  0.04131921  0.08180860  1
  P  P4  1  0.62534679  0.64311255  0.91514260  1
  P  P5  1  0.35688745  0.37465321  0.41514260  1
  O  O0  1  0.23950459  0.00826421  0.31090349  1
  O  O1  1  0.77739263  0.76196007  0.31523010  1
  O  O2  1  0.99219751  0.22520520  0.31582235  1
  O  O3  1  0.23803993  0.22260737  0.81523010  1
  O  O4  1  0.99173579  0.76049541  0.81090349  1
  O  O5  1  0.77479480  0.00780249  0.81582235  1
  O  O6  1  0.81091760  0.97231913  0.69631615  1
  O  O7  1  0.15871792  0.18782342  0.69701367  1
  O  O8  1  0.02922033  0.82848754  0.69728492  1
  O  O9  1  0.81217658  0.84128208  0.19701367  1
  O  O10  1  0.02768087  0.18908240  0.19631615  1
  O  O11  1  0.17151246  0.97077967  0.19728492  1
  O  O12  1  0.90617159  0.34159721  0.64423649  1
  O  O13  1  0.44405963  0.09529307  0.64856310  1
  O  O14  1  0.65886451  0.55853820  0.64915535  1
  O  O15  1  0.90470693  0.55594037  0.14856310  1
  O  O16  1  0.65840279  0.09382841  0.14423649  1
  O  O17  1  0.44146180  0.34113549  0.14915535  1
  O  O18  1  0.47758460  0.30565213  0.02964915  1
  O  O19  1  0.82538492  0.52115642  0.03034667  1
  O  O20  1  0.69588733  0.16182054  0.03061792  1
  O  O21  1  0.47884358  0.17461508  0.53034667  1
  O  O22  1  0.69434787  0.52241540  0.52964915  1
  O  O23  1  0.83817946  0.30411267  0.53061792  1
  O  O24  1  0.57283759  0.67493121  0.97757049  1
  O  O25  1  0.11072563  0.42862707  0.98189710  1
  O  O26  1  0.32553051  0.89187220  0.98248935  1
  O  O27  1  0.57137293  0.88927437  0.48189710  1
  O  O28  1  0.32506879  0.42716241  0.47757049  1
  O  O29  1  0.10812780  0.67446949  0.48248935  1
  O  O30  1  0.14425060  0.63898613  0.36298315  1
  O  O31  1  0.49205092  0.85449042  0.36368067  1
  O  O32  1  0.36255333  0.49515454  0.36395192  1
  O  O33  1  0.14550958  0.50794908  0.86368067  1
  O  O34  1  0.36101387  0.85574940  0.86298315  1
  O  O35  1  0.50484546  0.63744667  0.86395192  1
  O  O36  1  0.99108612  0.80488785  0.41183272  1
  O  O37  1  0.81424059  0.01915156  0.40942209  1
  O  O38  1  0.22171968  0.19786688  0.40524633  1
  O  O39  1  0.98084844  0.18575941  0.90942209  1
  O  O40  1  0.19511215  0.00891388  0.91183272  1
  O  O41  1  0.80213312  0.77828032  0.90524633  1
  O  O42  1  0.94796927  0.13935318  0.58215607  1
  O  O43  1  0.18097153  0.04719546  0.58635080  1
  O  O44  1  0.86054061  0.82104726  0.58640442  1
  O  O45  1  0.95280454  0.81902847  0.08635080  1
  O  O46  1  0.86064682  0.05203073  0.08215607  1
  O  O47  1  0.17895274  0.13945939  0.08640442  1
  O  O48  1  0.65775312  0.13822085  0.74516572  1
  O  O49  1  0.48090759  0.35248456  0.74275509  1
  O  O50  1  0.88838668  0.53119988  0.73857933  1
  O  O51  1  0.64751544  0.51909241  0.24275509  1
  O  O52  1  0.86177915  0.34224688  0.24516572  1
  O  O53  1  0.46880012  0.11161332  0.23857933  1
  O  O54  1  0.61463627  0.47268618  0.91548907  1
  O  O55  1  0.84763853  0.38052846  0.91968380  1
  O  O56  1  0.52720761  0.15438026  0.91973742  1
  O  O57  1  0.61947154  0.15236147  0.41968380  1
  O  O58  1  0.52731382  0.38536373  0.41548907  1
  O  O59  1  0.84561974  0.47279239  0.41973742  1
  O  O60  1  0.32441912  0.47155485  0.07849972  1
  O  O61  1  0.14757359  0.68581856  0.07608909  1
  O  O62  1  0.55505268  0.86453388  0.07191333  1
  O  O63  1  0.31418144  0.85242641  0.57608909  1
  O  O64  1  0.52844515  0.67558088  0.57849972  1
  O  O65  1  0.13546612  0.44494732  0.57191333  1
  O  O66  1  0.28130227  0.80602018  0.24882307  1
  O  O67  1  0.51430453  0.71386246  0.25301780  1
  O  O68  1  0.19387361  0.48771426  0.25307142  1
  O  O69  1  0.28613754  0.48569547  0.75301780  1
  O  O70  1  0.19397982  0.71869773  0.74882307  1
  O  O71  1  0.51228574  0.80612639  0.75307142  1
loop_
_geom_bond_atom_site_label_1
_geom_bond_atom_site_label_2
_geom_bond_distance
_geom_bond_site_symmetry_2
Na0 O53 2.337323 1_555
Na0 O67 2.405621 1_545
Na0 O16 2.425057 1_555
Na0 O52 2.817814 1_555
Na1 O17 2.290934 1_555
Na1 O51 2.329610 1_555
Na1 O68 2.366907 1_555
Na1 O67 2.816738 1_555
Na2 O15 2.293004 1_555
Na2 O52 2.367764 1_555
Na2 O66 2.385058 1_655
Na2 O68 2.829858 1_655
Na2 O51 2.915133 1_555
Na3 O14 2.290934 1_555
Na3 O49 2.329610 1_555
Na3 O71 2.366907 1_555
Na3 O69 2.816738 1_555
Na4 O50 2.337323 1_555
Na4 O69 2.405621 1_655
Na4 O12 2.425057 1_555
Na4 O48 2.817814 1_555
Na5 O13 2.293004 1_555
Na5 O48 2.367764 1_555
Na5 O70 2.385057 1_545
Na5 O71 2.829858 1_545
Na5 O49 2.915132 1_555
Na6 O65 2.337336 1_555
Na6 O43 2.405621 1_555
Na6 O28 2.425040 1_555
Na6 O64 2.817819 1_555
Na7 O29 2.290908 1_555
Na7 O63 2.329602 1_555
Na7 O44 2.366907 1_455
Na7 O43 2.816738 1_565
Na8 O27 2.292985 1_555
Na8 O64 2.367755 1_555
Na8 O42 2.385058 1_565
Na8 O44 2.829858 1_555
Na8 O63 2.915143 1_555
Na9 O26 2.290908 1_554
Na9 O61 2.329602 1_555
Na9 O47 2.366907 1_565
Na9 O45 2.816738 1_455
Na10 O62 2.337336 1_555
Na10 O45 2.405621 1_555
Na10 O24 2.425040 1_554
Na10 O60 2.817819 1_555
Na11 O25 2.292985 1_554
Na11 O60 2.367755 1_555
Na11 O46 2.385057 1_455
Na11 O47 2.829858 1_555
Na11 O61 2.915143 1_555
Na12 O41 2.337323 1_555
Na12 O55 2.405629 1_555
Na12 O4 2.425057 1_555
Na12 O40 2.817814 1_665
Na13 O5 2.290934 1_555
Na13 O39 2.329610 1_555
Na13 O56 2.366890 1_555
Na13 O55 2.816728 1_555
Na14 O3 2.293004 1_555
Na14 O40 2.367764 1_555
Na14 O54 2.385063 1_555
Na14 O56 2.829873 1_555
Na14 O39 2.915133 1_455
Na15 O2 2.290934 1_555
Na15 O37 2.329610 1_555
Na15 O59 2.366890 1_555
Na15 O57 2.816728 1_555
Na16 O38 2.337323 1_555
Na16 O57 2.405629 1_555
Na16 O0 2.425057 1_555
Na16 O36 2.817814 1_445
Na17 O1 2.293004 1_555
Na17 O36 2.367764 1_555
Na17 O58 2.385063 1_555
Na17 O59 2.829873 1_555
Na17 O37 2.915132 1_565
Na18 O44 2.355234 1_555
Na18 O42 2.402772 1_565
Na18 O43 2.447461 1_665
Na18 O36 2.628071 1_555
Na18 O37 2.764180 1_565
Na18 O38 2.976864 1_665
Na19 O47 2.355234 1_555
Na19 O46 2.402772 1_455
Na19 O45 2.447461 1_445
Na19 O40 2.628071 1_554
Na19 O39 2.764180 1_454
Na19 O41 2.976864 1_444
Na20 O56 2.355234 1_555
Na20 O54 2.402772 1_555
Na20 O55 2.447461 1_555
Na20 O48 2.628071 1_555
Na20 O49 2.764180 1_555
Na20 O50 2.976864 1_555
Na21 O59 2.355234 1_555
Na21 O58 2.402772 1_555
Na21 O57 2.447461 1_555
Na21 O52 2.628071 1_555
Na21 O51 2.764180 1_555
Na21 O53 2.976864 1_555
Na22 O68 2.355234 1_555
Na22 O66 2.402772 1_555
Na22 O67 2.447461 1_555
Na22 O60 2.628071 1_555
Na22 O61 2.764180 1_555
Na22 O62 2.976864 1_555
Na23 O71 2.355234 1_555
Na23 O70 2.402772 1_555
Na23 O69 2.447461 1_555
Na23 O64 2.628071 1_555
Na23 O63 2.764180 1_555
Na23 O65 2.976864 1_555
La0 O1 2.239870 1_555
La0 O2 2.250152 1_565
La0 O37 2.349960 1_565
La0 O0 2.354987 1_665
La0 O36 2.399294 1_555
La0 O38 2.471421 1_665
La1 O3 2.239870 1_555
La1 O5 2.250152 1_455
La1 O39 2.349960 1_455
La1 O4 2.354987 1_445
La1 O40 2.399294 1_555
La1 O41 2.471421 1_445
La2 O13 2.239870 1_555
La2 O14 2.250152 1_555
La2 O49 2.349960 1_555
La2 O12 2.354987 1_555
La2 O48 2.399294 1_555
La2 O50 2.471421 1_555
La3 O15 2.239870 1_555
La3 O17 2.250152 1_555
La3 O51 2.349960 1_555
La3 O16 2.354987 1_555
La3 O52 2.399294 1_555
La3 O53 2.471421 1_555
La4 O25 2.239870 1_554
La4 O26 2.250152 1_554
La4 O61 2.349960 1_555
La4 O24 2.354987 1_554
La4 O60 2.399294 1_555
La4 O62 2.471421 1_555
La5 O27 2.239870 1_555
La5 O29 2.250152 1_555
La5 O63 2.349960 1_555
La5 O28 2.354987 1_555
La5 O64 2.399294 1_555
La5 O65 2.471421 1_555
O0 P0 1.527798 1_545
O1 Si0 1.607808 1_555
O2 Si1 1.603271 1_655
O3 Si2 1.607808 1_555
O4 P1 1.527798 1_655
O5 Si3 1.603271 1_545
O6 Si3 1.727573 1_555
O6 Ti0 1.935263 1_565
O7 Si2 1.724696 1_555
O7 Ti0 1.950250 1_455
O8 P1 1.593763 1_555
O8 Ti0 2.083447 1_465
O9 Si0 1.724696 1_555
O9 Ti1 1.950250 1_565
O10 Si1 1.727573 1_555
O10 Ti1 1.935263 1_455
O11 P0 1.593763 1_555
O11 Ti1 2.083447 1_465
O12 P2 1.527798 1_555
O13 Si4 1.607808 1_555
O14 Si5 1.603271 1_555
O15 Si6 1.607808 1_555
O16 P3 1.527798 1_555
O17 Si7 1.603271 1_555
O18 Si7 1.727573 1_555
O18 Ti2 1.935263 1_554
O19 Si6 1.724696 1_555
O19 Ti2 1.950250 1_554
O20 P3 1.593763 1_555
O20 Ti2 2.083447 1_554
O21 Si4 1.724696 1_555
O21 Ti3 1.950250 1_555
O22 Si5 1.727573 1_555
O22 Ti3 1.935263 1_555
O23 P2 1.593763 1_555
O23 Ti3 2.083447 1_555
O24 P4 1.527798 1_555
O25 Si8 1.607808 1_555
O26 Si9 1.603271 1_555
O27 Si10 1.607808 1_555
O28 P5 1.527798 1_555
O29 Si11 1.603271 1_555
O30 Si11 1.727573 1_555
O30 Ti4 1.935263 1_555
O31 Si10 1.724696 1_555
O31 Ti4 1.950250 1_555
O32 P5 1.593763 1_555
O32 Ti4 2.083447 1_555
O33 Si8 1.724696 1_555
O33 Ti5 1.950250 1_555
O34 Si9 1.727573 1_555
O34 Ti5 1.935263 1_555
O35 P4 1.593763 1_555
O35 Ti5 2.083447 1_555
O36 Si11 1.626854 1_655
O37 Si10 1.622918 1_545
O38 P5 1.536107 1_555
O39 Si8 1.622918 1_655
O40 Si9 1.626854 1_545
O41 P4 1.536107 1_555
O42 P2 1.570648 1_555
O42 Ti0 2.214222 1_555
O43 Si4 1.667027 1_555
O43 Ti0 2.087105 1_455
O44 Si5 1.667715 1_555
O44 Ti0 2.086659 1_565
O45 Si6 1.667027 1_555
O45 Ti1 2.087105 1_565
O46 P3 1.570648 1_555
O46 Ti1 2.214222 1_555
O47 Si7 1.667715 1_555
O47 Ti1 2.086659 1_455
O48 Si3 1.626854 1_545
O49 Si2 1.622918 1_555
O50 P1 1.536107 1_655
O51 Si0 1.622918 1_555
O52 Si1 1.626854 1_655
O53 P0 1.536107 1_545
O54 P4 1.570661 1_555
O54 Ti2 2.214222 1_555
O55 Si8 1.667013 1_655
O55 Ti2 2.087105 1_555
O56 Si9 1.667715 1_545
O56 Ti2 2.086659 1_555
O57 Si10 1.667012 1_545
O57 Ti3 2.087105 1_555
O58 P5 1.570661 1_555
O58 Ti3 2.214222 1_555
O59 Si11 1.667715 1_655
O59 Ti3 2.086659 1_555
O60 Si7 1.626867 1_555
O61 Si6 1.622903 1_455
O62 P3 1.536100 1_565
O63 Si4 1.622903 1_565
O64 Si5 1.626867 1_555
O65 P2 1.536100 1_455
O66 P0 1.570648 1_555
O66 Ti4 2.214222 1_555
O67 Si0 1.667027 1_555
O67 Ti4 2.087105 1_555
O68 Si1 1.667715 1_555
O68 Ti4 2.086659 1_555
O69 Si2 1.667027 1_555
O69 Ti5 2.087105 1_555
O70 P1 1.570648 1_555
O70 Ti5 2.214222 1_555
O71 Si3 1.667715 1_555
O71 Ti5 2.086659 1_555
