# generated using pymatgen
data_MgV4FeCoO12
_symmetry_space_group_name_H-M   'P 1'
_cell_length_a   6.87906889
_cell_length_b   6.85860739
_cell_length_c   5.77617980
_cell_angle_alpha   74.57951117
_cell_angle_beta   107.78370360
_cell_angle_gamma   100.35212931
_symmetry_Int_Tables_number   1
_chemical_formula_structural   MgV4FeCoO12
_chemical_formula_sum   'Mg1 V4 Fe1 Co1 O12'
_cell_volume   248.71675955
_cell_formula_units_Z   1
loop_
 _symmetry_equiv_pos_site_id
 _symmetry_equiv_pos_as_xyz
  1  'x, y, z'
loop_
 _atom_site_type_symbol
 _atom_site_label
 _atom_site_symmetry_multiplicity
 _atom_site_fract_x
 _atom_site_fract_y
 _atom_site_fract_z
 _atom_site_occupancy
  Mg  Mg0  1  0.70509200  0.73853200  0.69508600  1
  V  V0  1  0.15690500  0.59280700  0.70743700  1
  V  V1  1  0.36881900  0.78571000  0.24307100  1
  V  V2  1  0.61676300  0.20090200  0.74757500  1
  V  V3  1  0.81872200  0.39387400  0.25296600  1
  Fe  Fe0  1  0.92460200  0.92326500  0.25117600  1
  Co  Co0  1  0.07319000  0.07311400  0.75558600  1
  O  O0  1  0.99957800  0.80281100  0.66439200  1
  O  O1  1  0.06847400  0.34411200  0.79345300  1
  O  O2  1  0.20092100  0.96976600  0.14027700  1
  O  O3  1  0.38918400  0.66393200  0.57096100  1
  O  O4  1  0.36762800  0.12666500  0.72834200  1
  O  O5  1  0.32300800  0.63402200  0.03438100  1
  O  O6  1  0.70796100  0.43440200  0.91983900  1
  O  O7  1  0.62766200  0.88015300  0.30245700  1
  O  O8  1  0.63955500  0.34978100  0.42456800  1
  O  O9  1  0.78123700  0.99322900  0.84366100  1
  O  O10  1  0.97962700  0.61211100  0.31711500  1
  O  O11  1  0.96403600  0.19377600  0.35765700  1
loop_
_geom_bond_atom_site_label_1
_geom_bond_atom_site_label_2
_geom_bond_distance
_geom_bond_site_symmetry_2
Mg0 O0 2.046086 1_555
Mg0 O9 2.063061 1_555
Mg0 O3 2.083782 1_555
Mg0 O6 2.143784 1_555
Mg0 O7 2.155711 1_555
Fe0 O11 2.053820 1_565
Fe0 O7 2.110361 1_555
Fe0 O2 2.131293 1_655
Fe0 O10 2.147707 1_555
Fe0 O9 2.212462 1_554
Fe0 O0 2.235603 1_555
Co0 O1 1.935394 1_555
Co0 O0 1.997460 1_445
Co0 O4 2.039302 1_555
Co0 O2 2.098942 1_546
Co0 O9 2.161702 1_445
Co0 O11 2.165484 1_455
O0 V0 1.874324 1_655
O1 V0 1.699221 1_555
O2 V1 1.728176 1_555
O3 V1 1.828391 1_555
O3 V0 1.922851 1_555
O4 V2 1.675984 1_555
O5 V1 1.718078 1_555
O5 V0 1.949767 1_554
O6 V3 1.804567 1_556
O6 V2 2.013318 1_555
O7 V1 1.743078 1_555
O8 V3 1.745246 1_555
O8 V2 1.912132 1_555
O9 V2 1.841772 1_565
O10 V3 1.746960 1_555
O10 V0 2.192622 1_655
O11 V3 1.711971 1_555
