# generated using pymatgen
data_Ge(SF6)2
_symmetry_space_group_name_H-M   'P 1'
_cell_length_a   6.03515828
_cell_length_b   7.44476877
_cell_length_c   9.49127788
_cell_angle_alpha   90.00000000
_cell_angle_beta   90.00000000
_cell_angle_gamma   90.00000000
_symmetry_Int_Tables_number   1
_chemical_formula_structural   Ge(SF6)2
_chemical_formula_sum   'Ge2 S4 F24'
_cell_volume   426.44651193
_cell_formula_units_Z   2
loop_
 _symmetry_equiv_pos_site_id
 _symmetry_equiv_pos_as_xyz
  1  'x, y, z'
loop_
 _atom_site_type_symbol
 _atom_site_label
 _atom_site_symmetry_multiplicity
 _atom_site_fract_x
 _atom_site_fract_y
 _atom_site_fract_z
 _atom_site_occupancy
  Ge  Ge0  1  -0.00000000  0.50000000  -0.00000000  1
  Ge  Ge1  1  0.50000000  0.00000000  0.50000000  1
  S  S0  1  0.50000000  0.56937121  0.24293125  1
  S  S1  1  0.50000000  0.43062879  0.75706875  1
  S  S2  1  -0.00000000  0.06937121  0.25706875  1
  S  S3  1  -0.00000000  0.93062879  0.74293125  1
  F  F0  1  0.21135878  0.36577954  0.91520646  1
  F  F1  1  0.21135878  0.63422046  0.08479354  1
  F  F2  1  0.28864122  0.86577954  0.58479354  1
  F  F3  1  0.28864122  0.13422046  0.41520646  1
  F  F4  1  0.78864122  0.63422046  0.08479354  1
  F  F5  1  0.78864122  0.36577954  0.91520646  1
  F  F6  1  0.81052308  0.97150656  0.84798390  1
  F  F7  1  0.81052308  0.02849344  0.15201610  1
  F  F8  1  0.68947692  0.47150656  0.65201610  1
  F  F9  1  0.68947692  0.52849344  0.34798390  1
  F  F10  1  0.18947692  0.02849344  0.15201610  1
  F  F11  1  0.18947692  0.97150656  0.84798390  1
  F  F12  1  0.31052308  0.52849344  0.34798390  1
  F  F13  1  0.31052308  0.47150656  0.65201610  1
  F  F14  1  -0.00000000  0.65049167  0.85057663  1
  F  F15  1  -0.00000000  0.34950833  0.14942337  1
  F  F16  1  0.50000000  0.15049167  0.64942337  1
  F  F17  1  0.50000000  0.84950833  0.35057663  1
  F  F18  1  0.50000000  0.61915366  0.82544496  1
  F  F19  1  0.50000000  0.38084634  0.17455504  1
  F  F20  1  -0.00000000  0.11915366  0.67455504  1
  F  F21  1  -0.00000000  0.88084634  0.32544496  1
  F  F22  1  0.71135878  0.86577954  0.58479354  1
  F  F23  1  0.71135878  0.13422046  0.41520646  1
loop_
_geom_bond_atom_site_label_1
_geom_bond_atom_site_label_2
_geom_bond_distance
_geom_bond_site_symmetry_2
F0 Ge0 1.809225 1_556
F1 Ge0 1.809225 1_555
F2 Ge1 1.809225 1_565
F3 Ge1 1.809225 1_555
F4 Ge0 1.809225 1_655
F5 Ge0 1.809225 1_656
F6 S3 1.547396 1_655
F7 S2 1.547396 1_655
F8 S1 1.547396 1_555
F9 S0 1.547396 1_555
F10 S2 1.547396 1_555
F11 S3 1.547396 1_555
F12 S0 1.547396 1_555
F13 S1 1.547396 1_555
F14 Ge0 1.807370 1_556
F15 Ge0 1.807370 1_555
F16 Ge1 1.807370 1_555
F17 Ge1 1.807370 1_565
F18 S1 1.546303 1_555
F19 S0 1.546303 1_555
F20 S3 1.546303 1_545
F21 S2 1.546303 1_565
F22 Ge1 1.809225 1_565
F23 Ge1 1.809225 1_555
