# generated using pymatgen
data_Sr3MgTi2O7
_symmetry_space_group_name_H-M   'P 1'
_cell_length_a   3.93292836
_cell_length_b   3.93292797
_cell_length_c   12.04067309
_cell_angle_alpha   99.39956499
_cell_angle_beta   99.39956327
_cell_angle_gamma   90.00000293
_symmetry_Int_Tables_number   1
_chemical_formula_structural   Sr3MgTi2O7
_chemical_formula_sum   'Sr3 Mg1 Ti2 O7'
_cell_volume   181.20845898
_cell_formula_units_Z   1
loop_
 _symmetry_equiv_pos_site_id
 _symmetry_equiv_pos_as_xyz
  1  'x, y, z'
loop_
 _atom_site_type_symbol
 _atom_site_label
 _atom_site_symmetry_multiplicity
 _atom_site_fract_x
 _atom_site_fract_y
 _atom_site_fract_z
 _atom_site_occupancy
  Sr  Sr0  1  0.34277200  0.34277200  0.68554500  1
  Sr  Sr1  1  0.50000000  0.50000000  0.00000000  1
  Sr  Sr2  1  0.65722800  0.65722800  0.31445500  1
  Mg  Mg0  1  0.75000000  0.25000000  0.50000000  1
  Ti  Ti0  1  0.08242100  0.08242100  0.16484100  1
  Ti  Ti1  1  0.91757900  0.91757900  0.83515900  1
  O  O0  1  0.90984800  0.40984800  0.81969600  1
  O  O1  1  0.79112100  0.79112100  0.58224200  1
  O  O2  1  0.00000000  0.00000000  0.00000000  1
  O  O3  1  0.59015200  0.09015200  0.18030400  1
  O  O4  1  0.08921000  0.58921000  0.17842100  1
  O  O5  1  0.41079000  0.91079000  0.82157900  1
  O  O6  1  0.20887900  0.20887900  0.41775800  1
loop_
_geom_bond_atom_site_label_1
_geom_bond_atom_site_label_2
_geom_bond_distance
_geom_bond_site_symmetry_2
Mg0 O1 2.189809 1_555
Mg0 O1 2.189809 1_545
Mg0 O6 2.189809 1_655
Mg0 O6 2.189809 1_555
O0 Ti1 1.974788 1_555
O0 Ti1 1.974792 1_545
O0 Sr0 2.517316 1_655
O0 Sr0 2.517319 1_555
O0 Sr1 2.885951 1_556
O0 Sr1 2.885951 1_656
O2 Ti0 1.931131 1_555
O2 Ti1 1.931131 1_444
O2 Sr1 2.781000 1_555
O2 Sr1 2.781000 1_445
O2 Sr1 2.781000 1_455
O2 Sr1 2.781000 1_545
O3 Ti0 1.974788 1_555
O3 Ti0 1.974792 1_655
O3 Sr2 2.517316 1_545
O3 Sr2 2.517319 1_555
O3 Sr1 2.885951 1_545
O3 Sr1 2.885951 1_555
O4 Ti0 1.972885 1_555
O4 Ti0 1.972893 1_565
O4 Sr2 2.531145 1_455
O4 Sr2 2.531152 1_555
O4 Sr1 2.869843 1_455
O4 Sr1 2.869846 1_555
O5 Ti1 1.972885 1_555
O5 Ti1 1.972893 1_455
O5 Sr0 2.531145 1_565
O5 Sr0 2.531151 1_555
O5 Sr1 2.869843 1_566
O5 Sr1 2.869846 1_556
