# generated using pymatgen
data_Mn3As2
_symmetry_space_group_name_H-M   'P 1'
_cell_length_a   6.66496671
_cell_length_b   6.66496671
_cell_length_c   8.70218319
_cell_angle_alpha   50.04048548
_cell_angle_beta   50.04048548
_cell_angle_gamma   30.27843579
_symmetry_Int_Tables_number   1
_chemical_formula_structural   Mn3As2
_chemical_formula_sum   'Mn6 As4'
_cell_volume   145.50705987
_cell_formula_units_Z   2
loop_
 _symmetry_equiv_pos_site_id
 _symmetry_equiv_pos_as_xyz
  1  'x, y, z'
loop_
 _atom_site_type_symbol
 _atom_site_label
 _atom_site_symmetry_multiplicity
 _atom_site_fract_x
 _atom_site_fract_y
 _atom_site_fract_z
 _atom_site_occupancy
  Mn  Mn0  1  0.30427200  0.30427200  0.32620600  1
  Mn  Mn1  1  0.69572800  0.69572800  0.67379400  1
  Mn  Mn2  1  0.39278800  0.39278800  0.90954000  1
  Mn  Mn3  1  0.60721200  0.60721200  0.09046000  1
  Mn  Mn4  1  0.50000000  0.50000000  0.50000000  1
  Mn  Mn5  1  0.00000000  0.00000000  0.00000000  1
  As  As0  1  0.06004700  0.06004700  0.65505100  1
  As  As1  1  0.93995300  0.93995300  0.34494900  1
  As  As2  1  0.24953900  0.24953900  0.82080400  1
  As  As3  1  0.75046100  0.75046100  0.17919600  1
loop_
_geom_bond_atom_site_label_1
_geom_bond_atom_site_label_2
_geom_bond_distance
_geom_bond_site_symmetry_2
As0 Mn0 2.469416 1_555
As0 Mn2 2.494783 1_545
As0 Mn2 2.494783 1_455
As0 Mn1 2.546252 1_545
As0 Mn1 2.546252 1_455
As0 Mn5 2.553736 1_556
As0 Mn4 2.614321 1_455
As0 Mn4 2.614321 1_545
As1 Mn1 2.469416 1_555
As1 Mn3 2.494783 1_655
As1 Mn3 2.494783 1_565
As1 Mn0 2.546252 1_565
As1 Mn0 2.546252 1_655
As1 Mn5 2.553736 1_665
As1 Mn4 2.614321 1_565
As1 Mn4 2.614321 1_655
As2 Mn2 2.426474 1_555
As2 Mn5 2.465522 1_556
As2 Mn3 2.484303 1_456
As2 Mn3 2.484303 1_546
As2 Mn4 2.491527 1_555
As2 Mn1 2.514885 1_455
As2 Mn1 2.514885 1_545
As3 Mn3 2.426474 1_555
As3 Mn5 2.465522 1_665
As3 Mn2 2.484303 1_564
As3 Mn2 2.484303 1_654
As3 Mn4 2.491527 1_555
As3 Mn0 2.514885 1_655
As3 Mn0 2.514885 1_565
