# generated using pymatgen
data_NaY3Zn(SO4)6
_symmetry_space_group_name_H-M   'P 1'
_cell_length_a   9.07417731
_cell_length_b   9.07417700
_cell_length_c   24.03405107
_cell_angle_alpha   90.00000000
_cell_angle_beta   90.00000000
_cell_angle_gamma   120.00000111
_symmetry_Int_Tables_number   1
_chemical_formula_structural   NaY3Zn(SO4)6
_chemical_formula_sum   'Na3 Y9 Zn3 S18 O72'
_cell_volume   1713.84725741
_cell_formula_units_Z   3
loop_
 _symmetry_equiv_pos_site_id
 _symmetry_equiv_pos_as_xyz
  1  'x, y, z'
loop_
 _atom_site_type_symbol
 _atom_site_label
 _atom_site_symmetry_multiplicity
 _atom_site_fract_x
 _atom_site_fract_y
 _atom_site_fract_z
 _atom_site_occupancy
  Na  Na0  1  -0.00000000  -0.00000000  0.99151988  1
  Na  Na1  1  0.66666700  0.33333300  0.84191976  1
  Na  Na2  1  0.66666700  0.33333300  0.33328374  1
  Y  Y0  1  -0.00000000  -0.00000000  0.64757043  1
  Y  Y1  1  -0.00000000  -0.00000000  0.14750116  1
  Y  Y2  1  0.66666700  0.33333300  0.68761463  1
  Y  Y3  1  0.66666700  0.33333300  0.18499953  1
  Y  Y4  1  0.66666700  0.33333300  0.47993923  1
  Y  Y5  1  0.33333300  0.66666700  0.01724441  1
  Y  Y6  1  0.33333300  0.66666700  0.51655252  1
  Y  Y7  1  0.33333300  0.66666700  0.31204526  1
  Y  Y8  1  0.33333300  0.66666700  0.81589364  1
  Zn  Zn0  1  -0.00000000  -0.00000000  0.35335479  1
  Zn  Zn1  1  -0.00000000  -0.00000000  0.84950899  1
  Zn  Zn2  1  0.66666700  0.33333300  0.98336045  1
  S  S0  1  0.28868181  0.00590061  0.25372261  1
  S  S1  1  0.71721880  0.71131819  0.25372261  1
  S  S2  1  0.99409939  0.28278120  0.25372261  1
  S  S3  1  0.28799020  0.28446678  0.75387201  1
  S  S4  1  0.99647659  0.71200980  0.75387201  1
  S  S5  1  0.71553322  0.00352341  0.75387201  1
  S  S6  1  0.95955144  0.33468936  0.58328119  1
  S  S7  1  0.37513891  0.04044856  0.58328119  1
  S  S8  1  0.66531064  0.62486109  0.58328119  1
  S  S9  1  0.95157324  0.62226142  0.07944527  1
  S  S10  1  0.67068918  0.04842676  0.07944527  1
  S  S11  1  0.37773858  0.32931082  0.07944527  1
  S  S12  1  0.63888863  0.66667303  0.91666474  1
  S  S13  1  0.02778340  0.36111137  0.91666474  1
  S  S14  1  0.33332697  0.97221660  0.91666474  1
  S  S15  1  0.63669029  0.96189452  0.41376308  1
  S  S16  1  0.32520323  0.36330971  0.41376308  1
  S  S17  1  0.03810548  0.67479677  0.41376308  1
  O  O0  1  0.20659289  0.02971447  0.30260034  1
  O  O1  1  0.82312158  0.79340711  0.30260034  1
  O  O2  1  0.97028553  0.17687842  0.30260034  1
  O  O3  1  0.20629032  0.17736949  0.80297805  1
  O  O4  1  0.97107917  0.79370968  0.80297805  1
  O  O5  1  0.82263051  0.02892083  0.80297805  1
  O  O6  1  0.79204218  0.98329290  0.70204350  1
  O  O7  1  0.19125072  0.20795782  0.70204350  1
  O  O8  1  0.01670710  0.80874928  0.70204350  1
  O  O9  1  0.79371988  0.80794678  0.20152192  1
  O  O10  1  0.01422691  0.20628012  0.20152192  1
  O  O11  1  0.19205322  0.98577309  0.20152192  1
  O  O12  1  0.87867179  0.36037396  0.63322996  1
  O  O13  1  0.48170318  0.12132821  0.63322996  1
  O  O14  1  0.63962604  0.51829682  0.63322996  1
  O  O15  1  0.87480896  0.52470618  0.13148379  1
  O  O16  1  0.64989822  0.12519104  0.13148379  1
  O  O17  1  0.47529382  0.35010178  0.13148379  1
  O  O18  1  0.46001429  0.30413465  0.03052084  1
  O  O19  1  0.84412136  0.53998571  0.03052084  1
  O  O20  1  0.69586535  0.15587864  0.03052084  1
  O  O21  1  0.45598010  0.14781703  0.53359971  1
  O  O22  1  0.69183793  0.54401990  0.53359971  1
  O  O23  1  0.85218297  0.30816207  0.53359971  1
  O  O24  1  0.55403949  0.68959630  0.96651556  1
  O  O25  1  0.13555581  0.44596051  0.96651556  1
  O  O26  1  0.31040370  0.86444419  0.96651556  1
  O  O27  1  0.55386510  0.86097178  0.46476868  1
  O  O28  1  0.30710568  0.44613490  0.46476868  1
  O  O29  1  0.13902822  0.69289432  0.46476868  1
  O  O30  1  0.12016586  0.64315758  0.36532191  1
  O  O31  1  0.52299072  0.87983414  0.36532191  1
  O  O32  1  0.35684242  0.47700928  0.36532191  1
  O  O33  1  0.11259025  0.46899506  0.86686951  1
  O  O34  1  0.35640381  0.88740975  0.86686951  1
  O  O35  1  0.53100494  0.64359619  0.86686951  1
  O  O36  1  0.02218252  0.82584886  0.40611773  1
  O  O37  1  0.80366634  0.97781748  0.40611773  1
  O  O38  1  0.17415114  0.19633366  0.40611773  1
  O  O39  1  0.01345448  0.19127322  0.91072297  1
  O  O40  1  0.17781873  0.98654552  0.91072297  1
  O  O41  1  0.80872678  0.82218127  0.91072297  1
  O  O42  1  0.97656415  0.18292222  0.59091204  1
  O  O43  1  0.20635807  0.02343585  0.59091204  1
  O  O44  1  0.81707778  0.79364193  0.59091204  1
  O  O45  1  0.97162277  0.79567032  0.08555892  1
  O  O46  1  0.82404755  0.02837723  0.08555892  1
  O  O47  1  0.20432968  0.17595245  0.08555892  1
  O  O48  1  0.69547699  0.15722091  0.74811841  1
  O  O49  1  0.46174493  0.30452301  0.74811841  1
  O  O50  1  0.84277909  0.53825507  0.74811841  1
  O  O51  1  0.69590087  0.53678106  0.24786161  1
  O  O52  1  0.84088119  0.30409913  0.24786161  1
  O  O53  1  0.46321894  0.15911881  0.24786161  1
  O  O54  1  0.65312850  0.51104058  0.92264349  1
  O  O55  1  0.85791308  0.34687150  0.92264349  1
  O  O56  1  0.48895942  0.14208692  0.92264349  1
  O  O57  1  0.65302194  0.13449708  0.41966478  1
  O  O58  1  0.48147614  0.34697806  0.41966478  1
  O  O59  1  0.86550292  0.51852386  0.41966478  1
  O  O60  1  0.35909766  0.48126940  0.07314327  1
  O  O61  1  0.12217074  0.64090234  0.07314327  1
  O  O62  1  0.51873060  0.87782926  0.07314327  1
  O  O63  1  0.35825406  0.87170727  0.57524106  1
  O  O64  1  0.51345221  0.64174594  0.57524106  1
  O  O65  1  0.12829273  0.48654779  0.57524106  1
  O  O66  1  0.30784061  0.85395861  0.25907840  1
  O  O67  1  0.54611699  0.69215939  0.25907840  1
  O  O68  1  0.14604139  0.45388301  0.25907840  1
  O  O69  1  0.30711552  0.45532309  0.76018719  1
  O  O70  1  0.14820657  0.69288448  0.76018719  1
  O  O71  1  0.54467691  0.85179343  0.76018719  1
loop_
_geom_bond_atom_site_label_1
_geom_bond_atom_site_label_2
_geom_bond_distance
_geom_bond_site_symmetry_2
Na0 O41 2.566391 1_445
Na0 O40 2.566391 1_545
Na0 O39 2.566391 1_555
Na0 O45 2.852170 1_446
Na0 O47 2.852170 1_556
Na0 O46 2.852170 1_456
Na1 O56 2.564678 1_555
Na1 O54 2.564678 1_555
Na1 O55 2.564678 1_555
Na1 O50 2.849982 1_555
Na1 O49 2.849982 1_555
Na1 O48 2.849982 1_555
Na2 O51 2.683987 1_555
Na2 O53 2.683987 1_555
Na2 O52 2.683987 1_555
Na2 O57 2.712464 1_555
Na2 O59 2.712464 1_555
Na2 O58 2.712464 1_555
O0 S0 1.463732 1_555
O0 Zn0 2.137657 1_555
O1 S1 1.463731 1_555
O1 Zn0 2.137657 1_665
O2 S2 1.463731 1_555
O2 Zn0 2.137657 1_655
O3 S3 1.471901 1_555
O3 Zn1 2.081427 1_555
O4 S4 1.471901 1_555
O4 Zn1 2.081427 1_665
O5 S5 1.471901 1_555
O5 Zn1 2.081427 1_655
O6 S5 1.481479 1_565
O6 Y0 2.238721 1_665
O7 S3 1.481479 1_555
O7 Y0 2.238721 1_555
O8 S4 1.481479 1_455
O8 Y0 2.238721 1_565
O9 S1 1.488638 1_555
O9 Y1 2.228097 1_665
O10 S2 1.488638 1_455
O10 Y1 2.228097 1_555
O11 S0 1.488638 1_565
O11 Y1 2.228098 1_565
O12 S6 1.484970 1_555
O12 Y2 2.235514 1_555
O13 S7 1.484970 1_555
O13 Y2 2.235513 1_555
O14 S8 1.484970 1_555
O14 Y2 2.235513 1_555
O15 S9 1.488779 1_555
O15 Y3 2.226505 1_555
O16 S10 1.488779 1_555
O16 Y3 2.226505 1_555
O17 S11 1.488779 1_555
O17 Y3 2.226505 1_555
O18 S11 1.470635 1_555
O18 Zn2 2.091523 1_554
O19 S9 1.470635 1_555
O19 Zn2 2.091523 1_554
O20 S10 1.470635 1_555
O20 Zn2 2.091523 1_554
O21 S7 1.482698 1_555
O21 Y4 2.221214 1_555
O22 S8 1.482698 1_555
O22 Y4 2.221214 1_555
O23 S6 1.482698 1_555
O23 Y4 2.221214 1_555
O24 S12 1.493890 1_555
O24 Y5 2.263629 1_556
O25 S13 1.493890 1_555
O25 Y5 2.263629 1_556
O26 S14 1.493890 1_555
O26 Y5 2.263629 1_556
O27 S15 1.489298 1_555
O27 Y6 2.265821 1_555
O28 S16 1.489298 1_555
O28 Y6 2.265821 1_555
O29 S17 1.489298 1_555
O29 Y6 2.265821 1_555
O30 S17 1.485306 1_555
O30 Y7 2.239198 1_555
O31 S15 1.485306 1_555
O31 Y7 2.239198 1_555
O32 S16 1.485306 1_555
O32 Y7 2.239198 1_555
O33 S13 1.493148 1_555
O33 Y8 2.266659 1_555
O34 S14 1.493149 1_555
O34 Y8 2.266659 1_555
O35 S12 1.493149 1_555
O35 Y8 2.266659 1_555
O36 S17 1.459942 1_555
O36 Zn0 2.112814 1_565
O37 S15 1.459951 1_555
O37 Zn0 2.112814 1_665
O38 S16 1.459947 1_555
O38 Zn0 2.112814 1_555
O39 S13 1.487290 1_555
O39 Zn1 2.231583 1_555
O40 S14 1.487281 1_555
O40 Zn1 2.231583 1_565
O41 S12 1.487286 1_555
O41 Zn1 2.231583 1_665
O42 S6 1.471952 1_555
O42 Y0 2.237786 1_655
O43 S7 1.471961 1_555
O43 Y0 2.237787 1_555
O44 S8 1.471958 1_555
O44 Y0 2.237786 1_665
O45 S9 1.498148 1_555
O45 Y1 2.289747 1_665
O46 S10 1.498139 1_555
O46 Y1 2.289747 1_655
O47 S11 1.498145 1_555
O47 Y1 2.289747 1_555
O48 S5 1.500398 1_555
O48 Y2 2.270355 1_555
O49 S3 1.500407 1_555
O49 Y2 2.270355 1_555
O50 S4 1.500403 1_555
O50 Y2 2.270355 1_555
O51 S1 1.503081 1_555
O51 Y3 2.295958 1_555
O52 S2 1.503072 1_555
O52 Y3 2.295958 1_555
O53 S0 1.503078 1_555
O53 Y3 2.295958 1_555
O54 S12 1.488032 1_555
O54 Zn2 2.223285 1_555
O55 S13 1.488014 1_655
O55 Zn2 2.223285 1_555
O56 S14 1.488021 1_545
O56 Zn2 2.223285 1_555
O57 S15 1.504339 1_545
O57 Y4 2.268454 1_555
O58 S16 1.504357 1_555
O58 Y4 2.268454 1_555
O59 S17 1.504347 1_655
O59 Y4 2.268454 1_555
O60 S11 1.478566 1_555
O60 Y5 2.254582 1_555
O61 S9 1.478548 1_455
O61 Y5 2.254582 1_555
O62 S10 1.478556 1_565
O62 Y5 2.254582 1_555
O63 S7 1.473347 1_565
O63 Y6 2.254262 1_555
O64 S8 1.473365 1_555
O64 Y6 2.254262 1_555
O65 S6 1.473354 1_455
O65 Y6 2.254262 1_555
O66 S0 1.478999 1_565
O66 Y7 2.226108 1_555
O67 S1 1.479008 1_555
O67 Y7 2.226108 1_555
O68 S2 1.479004 1_455
O68 Y7 2.226108 1_555
O69 S3 1.479112 1_555
O69 Y8 2.251828 1_555
O70 S4 1.479103 1_455
O70 Y8 2.251828 1_555
O71 S5 1.479108 1_565
O71 Y8 2.251828 1_555
