# generated using pymatgen
data_KPr5(CCl5)2
_symmetry_space_group_name_H-M   'P 1'
_cell_length_a   8.49922693
_cell_length_b   8.49922694
_cell_length_c   15.11336234
_cell_angle_alpha   90.00000000
_cell_angle_beta   90.00000000
_cell_angle_gamma   120.00000104
_symmetry_Int_Tables_number   1
_chemical_formula_structural   KPr5(CCl5)2
_chemical_formula_sum   'K2 Pr10 C4 Cl20'
_cell_volume   945.47613734
_cell_formula_units_Z   2
loop_
 _symmetry_equiv_pos_site_id
 _symmetry_equiv_pos_as_xyz
  1  'x, y, z'
loop_
 _atom_site_type_symbol
 _atom_site_label
 _atom_site_symmetry_multiplicity
 _atom_site_fract_x
 _atom_site_fract_y
 _atom_site_fract_z
 _atom_site_occupancy
  K  K0  1  0.00000000  -0.00000000  0.04935394  1
  K  K1  1  0.00000000  -0.00000000  0.54935394  1
  Pr  Pr0  1  0.66666700  0.33333300  0.44822229  1
  Pr  Pr1  1  0.33333300  0.66666700  0.94822229  1
  Pr  Pr2  1  0.33333300  0.66666700  0.54534394  1
  Pr  Pr3  1  0.66666700  0.33333300  0.04534394  1
  Pr  Pr4  1  0.37975734  0.96633509  0.74853829  1
  Pr  Pr5  1  0.03366491  0.41342224  0.74853829  1
  Pr  Pr6  1  0.58657776  0.62024266  0.74853829  1
  Pr  Pr7  1  0.62024266  0.03366491  0.24853829  1
  Pr  Pr8  1  0.96633509  0.58657776  0.24853829  1
  Pr  Pr9  1  0.41342224  0.37975734  0.24853829  1
  C  C0  1  0.33333300  0.66666700  0.69826404  1
  C  C1  1  0.66666700  0.33333300  0.19826404  1
  C  C2  1  0.66666700  0.33333300  0.29412849  1
  C  C3  1  0.33333300  0.66666700  0.79412849  1
  Cl  Cl0  1  0.02413507  0.64139090  0.06230583  1
  Cl  Cl1  1  0.35860910  0.38274417  0.06230583  1
  Cl  Cl2  1  0.61725583  0.97586493  0.06230583  1
  Cl  Cl3  1  0.97586493  0.35860910  0.56230583  1
  Cl  Cl4  1  0.64139090  0.61725583  0.56230583  1
  Cl  Cl5  1  0.38274417  0.02413507  0.56230583  1
  Cl  Cl6  1  0.99741805  0.32048170  0.93242793  1
  Cl  Cl7  1  0.67951830  0.67693535  0.93242793  1
  Cl  Cl8  1  0.32306465  0.00258195  0.93242793  1
  Cl  Cl9  1  0.00258195  0.67951830  0.43242793  1
  Cl  Cl10  1  0.32048170  0.32306465  0.43242793  1
  Cl  Cl11  1  0.67693535  0.99741805  0.43242793  1
  Cl  Cl12  1  0.98796932  0.74592609  0.72464278  1
  Cl  Cl13  1  0.25407391  0.24204224  0.72464278  1
  Cl  Cl14  1  0.75795776  0.01203068  0.72464278  1
  Cl  Cl15  1  0.01203068  0.25407391  0.22464278  1
  Cl  Cl16  1  0.74592609  0.75795776  0.22464278  1
  Cl  Cl17  1  0.24204224  0.98796932  0.22464278  1
  Cl  Cl18  1  0.66666700  0.33333300  0.79815182  1
  Cl  Cl19  1  0.33333300  0.66666700  0.29815182  1
loop_
_geom_bond_atom_site_label_1
_geom_bond_atom_site_label_2
_geom_bond_distance
_geom_bond_site_symmetry_2
C0 C3 1.448834 1_555
C0 Pr2 2.311137 1_555
C0 Pr4 2.492988 1_555
C0 Pr5 2.492991 1_555
C0 Pr6 2.492996 1_555
C1 C2 1.448834 1_555
C1 Pr3 2.311137 1_555
C1 Pr7 2.492988 1_555
C1 Pr8 2.492991 1_555
C1 Pr9 2.492996 1_555
C2 Pr0 2.328875 1_555
C2 Pr7 2.472332 1_555
C2 Pr8 2.472335 1_555
C2 Pr9 2.472340 1_555
C3 Pr1 2.328875 1_555
C3 Pr4 2.472332 1_555
C3 Pr5 2.472335 1_555
C3 Pr6 2.472340 1_555
Cl0 Pr8 2.855078 1_455
Cl0 Pr3 2.863015 1_455
Cl0 Pr1 3.059493 1_554
Cl0 K0 3.161535 1_565
Cl1 Pr9 2.855078 1_555
Cl1 Pr3 2.863021 1_555
Cl1 Pr1 3.059500 1_554
Cl1 K0 3.161535 1_555
Cl2 Pr7 2.855078 1_565
Cl2 Pr3 2.863012 1_565
Cl2 Pr1 3.059496 1_554
Cl2 K0 3.161535 1_665
Cl3 Pr5 2.855078 1_655
Cl3 Pr2 2.863015 1_655
Cl3 Pr0 3.059493 1_555
Cl3 K1 3.161535 1_655
Cl4 Pr6 2.855078 1_555
Cl4 Pr2 2.863021 1_555
Cl4 Pr0 3.059500 1_555
Cl4 K1 3.161535 1_665
Cl5 Pr4 2.855078 1_545
Cl5 Pr2 2.863012 1_545
Cl5 Pr0 3.059496 1_555
Cl5 K1 3.161535 1_555
Cl6 Pr5 2.863466 1_655
Cl6 Pr1 2.909457 1_655
Cl6 K0 3.256132 1_656
Cl6 Pr3 3.336720 1_556
Cl7 Pr6 2.863465 1_555
Cl7 Pr1 2.909465 1_555
Cl7 K0 3.256136 1_666
Cl7 Pr3 3.336720 1_556
Cl8 Pr4 2.863464 1_545
Cl8 Pr1 2.909448 1_545
Cl8 K0 3.256140 1_556
Cl8 Pr3 3.336720 1_556
Cl9 Pr8 2.863466 1_455
Cl9 Pr0 2.909457 1_455
Cl9 K1 3.256132 1_565
Cl9 Pr2 3.336720 1_555
Cl10 Pr9 2.863465 1_555
Cl10 Pr0 2.909465 1_555
Cl10 K1 3.256136 1_555
Cl10 Pr2 3.336720 1_555
Cl11 Pr7 2.863464 1_565
Cl11 Pr0 2.909448 1_565
Cl11 K1 3.256140 1_665
Cl11 Pr2 3.336720 1_555
Cl12 Pr4 2.913758 1_655
Cl12 Pr6 3.043966 1_555
Cl12 Pr5 3.060269 1_655
Cl12 K1 3.386898 1_665
Cl13 Pr5 2.913765 1_555
Cl13 Pr4 3.043958 1_545
Cl13 Pr6 3.060274 1_555
Cl13 K1 3.386895 1_555
Cl14 Pr6 2.913758 1_545
Cl14 Pr5 3.043964 1_655
Cl14 Pr4 3.060277 1_545
Cl14 K1 3.386893 1_655
Cl15 Pr7 2.913758 1_455
Cl15 Pr9 3.043966 1_555
Cl15 Pr8 3.060269 1_455
Cl15 K0 3.386898 1_555
Cl16 Pr8 2.913765 1_555
Cl16 Pr7 3.043958 1_565
Cl16 Pr9 3.060274 1_555
Cl16 K0 3.386895 1_665
Cl17 Pr9 2.913758 1_565
Cl17 Pr8 3.043964 1_455
Cl17 Pr7 3.060277 1_565
Cl17 K0 3.386893 1_565
Cl18 Pr5 2.937986 1_655
Cl18 Pr4 2.937988 1_545
Cl18 Pr6 2.937994 1_555
Cl19 Pr8 2.937986 1_455
Cl19 Pr7 2.937988 1_565
Cl19 Pr9 2.937994 1_555
