# generated using pymatgen
data_CoMoP
_symmetry_space_group_name_H-M   'P 1'
_cell_length_a   3.71320591
_cell_length_b   5.78181165
_cell_length_c   6.67084378
_cell_angle_alpha   90.00065750
_cell_angle_beta   90.00000000
_cell_angle_gamma   89.99999975
_symmetry_Int_Tables_number   1
_chemical_formula_structural   CoMoP
_chemical_formula_sum   'Co4 Mo4 P4'
_cell_volume   143.21672661
_cell_formula_units_Z   4
loop_
 _symmetry_equiv_pos_site_id
 _symmetry_equiv_pos_as_xyz
  1  'x, y, z'
loop_
 _atom_site_type_symbol
 _atom_site_label
 _atom_site_symmetry_multiplicity
 _atom_site_fract_x
 _atom_site_fract_y
 _atom_site_fract_z
 _atom_site_occupancy
  Co  Co0  1  0.74999999  0.63952038  0.56676987  1
  Co  Co1  1  0.25000001  0.86046490  0.06675438  1
  Co  Co2  1  0.75000002  0.13955275  0.93323114  1
  Co  Co3  1  0.25000000  0.36046234  0.43326123  1
  Mo  Mo0  1  0.25000002  0.46686586  0.83049682  1
  Mo  Mo1  1  0.24999997  0.96685294  0.66948205  1
  Mo  Mo2  1  0.75000002  0.03313214  0.33050400  1
  Mo  Mo3  1  0.74999998  0.53314054  0.16950281  1
  P  P0  1  0.25000000  0.73308243  0.38088762  1
  P  P1  1  0.25000000  0.23306040  0.11911692  1
  P  P2  1  0.75000000  0.26692197  0.61909936  1
  P  P3  1  0.75000000  0.76694135  0.88089281  1
loop_
_geom_bond_atom_site_label_1
_geom_bond_atom_site_label_2
_geom_bond_distance
_geom_bond_site_symmetry_2
Co0 P2 2.182397 1_555
Co0 P3 2.221194 1_555
Co0 P0 2.297217 1_555
Co0 P0 2.297217 1_655
Co0 Mo3 2.720540 1_555
Co0 Mo1 2.738294 1_655
Co0 Mo1 2.738294 1_555
Co0 Mo0 2.745651 1_555
Co0 Mo0 2.745651 1_655
Co0 Mo2 2.768279 1_565
Co1 P1 2.182408 1_565
Co1 P0 2.221200 1_555
Co1 P3 2.297083 1_554
Co1 P3 2.297083 1_454
Co1 Mo1 2.720598 1_554
Co1 Mo3 2.738332 1_555
Co1 Mo3 2.738333 1_455
Co1 Mo2 2.745760 1_465
Co1 Mo2 2.745760 1_565
Co1 Mo0 2.768157 1_554
Co2 P3 2.182473 1_545
Co2 P2 2.221166 1_555
Co2 P1 2.297149 1_656
Co2 P1 2.297149 1_556
Co2 Mo2 2.720644 1_556
Co2 Mo0 2.738264 1_555
Co2 Mo0 2.738264 1_655
Co2 Mo1 2.745826 1_645
Co2 Mo1 2.745826 1_545
Co2 Mo3 2.768157 1_556
Co3 P0 2.182568 1_555
Co3 P1 2.221292 1_555
Co3 P2 2.297028 1_555
Co3 P2 2.297028 1_455
Co3 Mo0 2.720366 1_555
Co3 Mo2 2.738360 1_455
Co3 Mo2 2.738360 1_555
Co3 Mo3 2.745835 1_555
Co3 Mo3 2.745836 1_455
Co3 Mo1 2.768096 1_545
Mo0 P1 2.352532 1_556
Mo0 P3 2.563228 1_555
Mo0 P3 2.563228 1_455
Mo0 P2 2.602311 1_555
Mo0 P2 2.602311 1_455
Mo1 P0 2.352250 1_555
Mo1 P2 2.563196 1_465
Mo1 P2 2.563196 1_565
Mo1 P3 2.602291 1_455
Mo1 P3 2.602291 1_555
Mo2 P2 2.352320 1_555
Mo2 P0 2.563121 1_645
Mo2 P0 2.563121 1_545
Mo2 P1 2.602248 1_655
Mo2 P1 2.602248 1_555
Mo3 P3 2.352462 1_554
Mo3 P1 2.563237 1_555
Mo3 P1 2.563237 1_655
Mo3 P0 2.602260 1_555
Mo3 P0 2.602260 1_655
