# generated using pymatgen
data_NdSi2Ru
_symmetry_space_group_name_H-M   'P 1'
_cell_length_a   4.07566964
_cell_length_b   4.48103128
_cell_length_c   8.29030166
_cell_angle_alpha   102.14046964
_cell_angle_beta   90.00000000
_cell_angle_gamma   90.00000000
_symmetry_Int_Tables_number   1
_chemical_formula_structural   NdSi2Ru
_chemical_formula_sum   'Nd2 Si4 Ru2'
_cell_volume   148.02122523
_cell_formula_units_Z   2
loop_
 _symmetry_equiv_pos_site_id
 _symmetry_equiv_pos_as_xyz
  1  'x, y, z'
loop_
 _atom_site_type_symbol
 _atom_site_label
 _atom_site_symmetry_multiplicity
 _atom_site_fract_x
 _atom_site_fract_y
 _atom_site_fract_z
 _atom_site_occupancy
  Nd  Nd0  1  0.25000000  0.41093252  0.79849267  1
  Nd  Nd1  1  0.75000000  0.58906748  0.20150733  1
  Si  Si0  1  0.25000000  0.66788790  0.49260920  1
  Si  Si1  1  0.75000000  0.33211210  0.50739080  1
  Si  Si2  1  0.75000000  0.96251267  0.90783226  1
  Si  Si3  1  0.25000000  0.03748733  0.09216774  1
  Ru  Ru0  1  0.75000000  0.88099563  0.61227632  1
  Ru  Ru1  1  0.25000000  0.11900437  0.38772368  1
loop_
_geom_bond_atom_site_label_1
_geom_bond_atom_site_label_2
_geom_bond_distance
_geom_bond_site_symmetry_2
Nd0 Si0 2.997423 1_555
Nd0 Si1 3.121397 1_555
Nd0 Si1 3.121397 1_455
Nd0 Si2 3.127008 1_545
Nd0 Si2 3.127008 1_445
Nd0 Si2 3.184511 1_455
Nd0 Si2 3.184511 1_555
Nd0 Si3 3.231340 1_556
Nd0 Ru0 3.260844 1_445
Nd0 Ru0 3.260844 1_545
Nd0 Si3 3.306821 1_566
Nd1 Si1 2.997423 1_555
Nd1 Si0 3.121397 1_555
Nd1 Si0 3.121397 1_655
Nd1 Si3 3.127008 1_565
Nd1 Si3 3.127008 1_665
Nd1 Si3 3.184511 1_555
Nd1 Si3 3.184511 1_655
Nd1 Si2 3.231340 1_554
Nd1 Ru1 3.260844 1_665
Nd1 Ru1 3.260844 1_565
Nd1 Si2 3.306821 1_544
Si0 Si1 2.551319 1_455
Si0 Si1 2.551319 1_555
Si2 Si3 2.526870 1_566
Si2 Si3 2.526870 1_666
Ru0 Si1 2.362573 1_565
Ru0 Si0 2.377061 1_655
Ru0 Si0 2.377061 1_555
Ru0 Si2 2.400142 1_555
Ru0 Si1 2.430222 1_555
Ru1 Si0 2.362573 1_545
Ru1 Si1 2.377061 1_555
Ru1 Si1 2.377061 1_455
Ru1 Si3 2.400142 1_555
Ru1 Si0 2.430222 1_555
