# generated using pymatgen
data_SrInAu
_symmetry_space_group_name_H-M   'P 1'
_cell_length_a   4.80410734
_cell_length_b   7.74701770
_cell_length_c   8.51011023
_cell_angle_alpha   90.00000000
_cell_angle_beta   90.00000000
_cell_angle_gamma   90.00000000
_symmetry_Int_Tables_number   1
_chemical_formula_structural   SrInAu
_chemical_formula_sum   'Sr4 In4 Au4'
_cell_volume   316.72506659
_cell_formula_units_Z   4
loop_
 _symmetry_equiv_pos_site_id
 _symmetry_equiv_pos_as_xyz
  1  'x, y, z'
loop_
 _atom_site_type_symbol
 _atom_site_label
 _atom_site_symmetry_multiplicity
 _atom_site_fract_x
 _atom_site_fract_y
 _atom_site_fract_z
 _atom_site_occupancy
  Sr  Sr0  1  0.75000000  0.97617356  0.68447188  1
  Sr  Sr1  1  0.25000000  0.02382644  0.31552812  1
  Sr  Sr2  1  0.75000000  0.47617356  0.81552812  1
  Sr  Sr3  1  0.25000000  0.52382644  0.18447188  1
  In  In0  1  0.75000000  0.34299229  0.43258605  1
  In  In1  1  0.25000000  0.15700771  0.93258605  1
  In  In2  1  0.25000000  0.65700771  0.56741395  1
  In  In3  1  0.75000000  0.84299229  0.06741395  1
  Au  Au0  1  0.25000000  0.78546174  0.88581479  1
  Au  Au1  1  0.25000000  0.28546174  0.61418521  1
  Au  Au2  1  0.75000000  0.71453826  0.38581479  1
  Au  Au3  1  0.75000000  0.21453826  0.11418521  1
loop_
_geom_bond_atom_site_label_1
_geom_bond_atom_site_label_2
_geom_bond_distance
_geom_bond_site_symmetry_2
In0 Sr2 3.418306 1_555
In0 Sr3 3.491532 1_555
In0 Sr3 3.491532 1_655
In0 Sr0 3.559560 1_545
In0 Sr1 3.588300 1_655
In0 Sr1 3.588300 1_555
In1 Sr1 3.418306 1_556
In1 Sr0 3.491532 1_545
In1 Sr0 3.491532 1_445
In1 Sr3 3.559560 1_556
In1 Sr2 3.588300 1_555
In1 Sr2 3.588300 1_455
In2 Sr3 3.418306 1_555
In2 Sr2 3.491532 1_555
In2 Sr2 3.491532 1_455
In2 Sr1 3.559560 1_565
In2 Sr0 3.588300 1_555
In2 Sr0 3.588300 1_455
In3 Sr0 3.418306 1_554
In3 Sr1 3.491532 1_565
In3 Sr1 3.491532 1_665
In3 Sr2 3.559560 1_554
In3 Sr3 3.588300 1_555
In3 Sr3 3.588300 1_655
Au0 In2 2.886584 1_555
Au0 In3 2.890822 1_556
Au0 In3 2.890822 1_456
Au0 In1 2.905763 1_565
Au0 Sr3 3.250854 1_556
Au0 Sr0 3.299792 1_555
Au0 Sr0 3.299792 1_455
Au0 Sr2 3.445105 1_455
Au0 Sr2 3.445105 1_555
Au1 In1 2.886584 1_555
Au1 In0 2.890822 1_555
Au1 In0 2.890822 1_455
Au1 In2 2.905763 1_555
Au1 Sr1 3.250854 1_555
Au1 Sr2 3.299792 1_455
Au1 Sr2 3.299792 1_555
Au1 Sr0 3.445105 1_445
Au1 Sr0 3.445105 1_545
Au2 In3 2.886584 1_555
Au2 In2 2.890822 1_655
Au2 In2 2.890822 1_555
Au2 In0 2.905763 1_555
Au2 Sr0 3.250854 1_555
Au2 Sr3 3.299792 1_555
Au2 Sr3 3.299792 1_655
Au2 Sr1 3.445105 1_565
Au2 Sr1 3.445105 1_665
Au3 In0 2.886584 1_555
Au3 In1 2.890822 1_554
Au3 In1 2.890822 1_654
Au3 In3 2.905763 1_545
Au3 Sr2 3.250854 1_554
Au3 Sr1 3.299792 1_655
Au3 Sr1 3.299792 1_555
Au3 Sr3 3.445105 1_555
Au3 Sr3 3.445105 1_655
