# generated using pymatgen
data_MgFe6(OF)6
_symmetry_space_group_name_H-M   'P 1'
_cell_length_a   4.87711589
_cell_length_b   7.94481844
_cell_length_c   5.69400082
_cell_angle_alpha   96.86804638
_cell_angle_beta   91.46556525
_cell_angle_gamma   86.38215112
_symmetry_Int_Tables_number   1
_chemical_formula_structural   MgFe6(OF)6
_chemical_formula_sum   'Mg1 Fe6 O6 F6'
_cell_volume   218.57407625
_cell_formula_units_Z   1
loop_
 _symmetry_equiv_pos_site_id
 _symmetry_equiv_pos_as_xyz
  1  'x, y, z'
loop_
 _atom_site_type_symbol
 _atom_site_label
 _atom_site_symmetry_multiplicity
 _atom_site_fract_x
 _atom_site_fract_y
 _atom_site_fract_z
 _atom_site_occupancy
  Mg  Mg0  1  0.97071300  0.62738300  0.13585500  1
  Fe  Fe0  1  0.50244100  0.00476300  0.50369000  1
  Fe  Fe1  1  0.48030300  0.35548200  0.82932800  1
  Fe  Fe2  1  0.48731700  0.65412800  0.19858300  1
  Fe  Fe3  1  0.02758700  0.70372400  0.66104500  1
  Fe  Fe4  1  0.98022300  0.30954200  0.35268100  1
  Fe  Fe5  1  0.01940100  0.02178000  0.98962200  1
  O  O0  1  0.81215000  0.10627400  0.28174000  1
  O  O1  1  0.73043100  0.77717900  0.43175200  1
  O  O2  1  0.73470600  0.42888800  0.12290200  1
  O  O3  1  0.26701200  0.57038400  0.90429800  1
  O  O4  1  0.29195700  0.23300800  0.55039500  1
  O  O5  1  0.23743200  0.92299900  0.72715700  1
  F  F0  1  0.76943200  0.43649000  0.62815600  1
  F  F1  1  0.79403200  0.80446300  0.96211700  1
  F  F2  1  0.71827700  0.12191600  0.78624600  1
  F  F3  1  0.26602100  0.89233600  0.22123500  1
  F  F4  1  0.23109900  0.23109300  0.05387800  1
  F  F5  1  0.19335400  0.53150000  0.38551100  1
loop_
_geom_bond_atom_site_label_1
_geom_bond_atom_site_label_2
_geom_bond_distance
_geom_bond_site_symmetry_2
Mg0 O3 1.975808 1_654
Mg0 O2 2.003544 1_555
Mg0 O1 2.252501 1_555
Fe0 O4 2.019042 1_555
Fe0 O5 2.024675 1_545
Fe0 O1 2.065403 1_545
Fe0 O0 2.241492 1_555
Fe1 O3 1.950298 1_555
Fe1 O4 1.995414 1_555
Fe1 O2 2.103792 1_556
Fe2 O1 1.969681 1_555
Fe2 O3 2.033822 1_554
Fe2 O2 2.100811 1_555
Fe3 O1 2.030817 1_455
Fe3 O5 2.067004 1_555
Fe3 O3 2.125163 1_555
Fe4 O0 1.853967 1_555
Fe4 O4 1.976894 1_655
Fe4 O2 2.029271 1_555
Fe5 O5 1.917177 1_545
Fe5 O0 1.993057 1_456
F0 Fe1 2.021936 1_555
F0 Fe4 2.026759 1_555
F0 Fe3 2.521537 1_655
F1 Mg0 1.958750 1_556
F1 Fe5 2.092758 1_665
F1 Fe3 2.129220 1_655
F1 Fe2 2.488020 1_556
F2 Fe5 2.028956 1_655
F2 Fe0 2.059551 1_555
F2 Fe1 2.117668 1_555
F3 Fe5 2.081036 1_564
F3 Fe0 2.098932 1_565
F3 Fe2 2.110471 1_555
F4 Fe5 2.004278 1_554
F4 Fe4 2.129994 1_455
F4 Fe1 2.149857 1_554
F5 Mg0 1.963615 1_455
F5 Fe4 2.089885 1_455
F5 Fe3 2.097404 1_555
F5 Fe2 2.154036 1_555
