# generated using pymatgen
data_MgMn6(OF)6
_symmetry_space_group_name_H-M   'P 1'
_cell_length_a   5.76047855
_cell_length_b   8.16148126
_cell_length_c   6.09700256
_cell_angle_alpha   100.83535680
_cell_angle_beta   114.04142934
_cell_angle_gamma   71.70785561
_symmetry_Int_Tables_number   1
_chemical_formula_structural   MgMn6(OF)6
_chemical_formula_sum   'Mg1 Mn6 O6 F6'
_cell_volume   247.95238084
_cell_formula_units_Z   1
loop_
 _symmetry_equiv_pos_site_id
 _symmetry_equiv_pos_as_xyz
  1  'x, y, z'
loop_
 _atom_site_type_symbol
 _atom_site_label
 _atom_site_symmetry_multiplicity
 _atom_site_fract_x
 _atom_site_fract_y
 _atom_site_fract_z
 _atom_site_occupancy
  Mg  Mg0  1  0.96854195  0.65630341  0.15893940  1
  Mn  Mn0  1  0.60164598  0.07037521  0.39559966  1
  Mn  Mn1  1  0.48040866  0.66722361  0.15928165  1
  Mn  Mn2  1  0.45309971  0.29089589  0.89270735  1
  Mn  Mn3  1  0.98832779  0.67593479  0.68018836  1
  Mn  Mn4  1  0.00098543  0.32646016  0.33696697  1
  Mn  Mn5  1  0.00169264  0.99994649  0.01252192  1
  O  O0  1  0.79223540  0.15558888  0.18828079  1
  O  O1  1  0.74274656  0.79410430  0.36790198  1
  O  O2  1  0.74048119  0.48574642  0.08373006  1
  O  O3  1  0.21535509  0.54115654  0.96949888  1
  O  O4  1  0.29725939  0.18714756  0.55153371  1
  O  O5  1  0.19474897  0.83587132  0.84617424  1
  F  F0  1  0.79421645  0.49931231  0.55403775  1
  F  F1  1  0.76032789  0.82286491  0.90345261  1
  F  F2  1  0.80671851  0.15097099  0.74427144  1
  F  F3  1  0.20457382  0.82851008  0.28431450  1
  F  F4  1  0.19738656  0.51764139  0.44351063  1
  F  F5  1  0.25924803  0.16894674  0.09375509  1
loop_
_geom_bond_atom_site_label_1
_geom_bond_atom_site_label_2
_geom_bond_distance
_geom_bond_site_symmetry_2
Mg0 O2 2.071458 1_555
Mg0 O3 2.080828 1_654
Mg0 O1 2.114968 1_555
Mn0 O1 2.142768 1_545
Mn0 O4 2.203467 1_555
Mn0 O0 2.286337 1_555
Mn1 O2 1.887655 1_555
Mn1 O3 1.956464 1_554
Mn1 O1 1.973534 1_555
Mn1 O5 2.291996 1_554
Mn2 O4 2.035496 1_555
Mn2 O3 2.161853 1_555
Mn2 O0 2.192952 1_556
Mn2 O2 2.451769 1_556
Mn3 O5 1.907644 1_655
Mn3 O3 1.994646 1_655
Mn3 O1 2.048404 1_555
Mn4 O4 1.854426 1_555
Mn4 O0 1.975287 1_455
Mn4 O2 1.991995 1_455
Mn5 O5 1.879406 1_554
Mn5 O0 1.948682 1_465
F0 Mn3 1.952950 1_555
F0 Mn4 2.165211 1_655
F0 Mn1 2.660566 1_555
F1 Mg0 1.990808 1_556
F1 Mn5 2.147274 1_656
F1 Mn3 2.206880 1_555
F2 Mn5 1.961598 1_646
F2 Mn0 2.064768 1_555
F2 Mn2 2.434316 1_555
F3 Mn1 2.033556 1_555
F3 Mn5 2.082516 1_555
F3 Mg0 2.087363 1_455
F4 Mg0 1.991732 1_455
F4 Mn4 2.065136 1_555
F4 Mn3 2.222622 1_455
F5 Mn0 2.127760 1_555
F5 Mn5 2.185850 1_545
F5 Mn4 2.438248 1_555
F5 Mn2 2.451893 1_554
