# generated using pymatgen
data_Ba2(SnSb2)3
_symmetry_space_group_name_H-M   'P 1'
_cell_length_a   4.46025146
_cell_length_b   13.59205033
_cell_length_c   25.22966939
_cell_angle_alpha   90.00000000
_cell_angle_beta   90.00000000
_cell_angle_gamma   90.00000000
_symmetry_Int_Tables_number   1
_chemical_formula_structural   Ba2(SnSb2)3
_chemical_formula_sum   'Ba8 Sn12 Sb24'
_cell_volume   1529.52252667
_cell_formula_units_Z   4
loop_
 _symmetry_equiv_pos_site_id
 _symmetry_equiv_pos_as_xyz
  1  'x, y, z'
loop_
 _atom_site_type_symbol
 _atom_site_label
 _atom_site_symmetry_multiplicity
 _atom_site_fract_x
 _atom_site_fract_y
 _atom_site_fract_z
 _atom_site_occupancy
  Ba  Ba0  1  0.25000000  0.05049609  0.57993642  1
  Ba  Ba1  1  0.75000000  0.94950391  0.42006358  1
  Ba  Ba2  1  0.25000000  0.55049609  0.92006358  1
  Ba  Ba3  1  0.75000000  0.44950391  0.07993642  1
  Ba  Ba4  1  0.25000000  0.13146665  0.89098560  1
  Ba  Ba5  1  0.75000000  0.86853335  0.10901440  1
  Ba  Ba6  1  0.25000000  0.63146665  0.60901440  1
  Ba  Ba7  1  0.75000000  0.36853335  0.39098560  1
  Sn  Sn0  1  0.25000000  0.82211769  0.90364659  1
  Sn  Sn1  1  0.25000000  0.32211769  0.59635341  1
  Sn  Sn2  1  0.75000000  0.67788231  0.40364659  1
  Sn  Sn3  1  0.75000000  0.17788231  0.09635341  1
  Sn  Sn4  1  0.25000000  0.19547134  0.23142188  1
  Sn  Sn5  1  0.75000000  0.80452866  0.76857812  1
  Sn  Sn6  1  0.25000000  0.69547134  0.26857812  1
  Sn  Sn7  1  0.75000000  0.30452866  0.73142188  1
  Sn  Sn8  1  0.75000000  0.45719804  0.25030449  1
  Sn  Sn9  1  0.25000000  0.54280196  0.74969551  1
  Sn  Sn10  1  0.75000000  0.95719804  0.24969551  1
  Sn  Sn11  1  0.25000000  0.04280196  0.75030449  1
  Sb  Sb0  1  0.75000000  0.06942036  0.99702370  1
  Sb  Sb1  1  0.25000000  0.93057964  0.00297630  1
  Sb  Sb2  1  0.75000000  0.56942036  0.50297630  1
  Sb  Sb3  1  0.25000000  0.43057964  0.49702370  1
  Sb  Sb4  1  0.75000000  0.93300721  0.85696267  1
  Sb  Sb5  1  0.25000000  0.56699279  0.35696267  1
  Sb  Sb6  1  0.25000000  0.06699279  0.14303733  1
  Sb  Sb7  1  0.75000000  0.43300721  0.64303733  1
  Sb  Sb8  1  0.75000000  0.34022169  0.92209715  1
  Sb  Sb9  1  0.25000000  0.65977831  0.07790285  1
  Sb  Sb10  1  0.75000000  0.84022169  0.57790285  1
  Sb  Sb11  1  0.25000000  0.15977831  0.42209715  1
  Sb  Sb12  1  0.75000000  0.19575452  0.49583674  1
  Sb  Sb13  1  0.25000000  0.80424548  0.50416326  1
  Sb  Sb14  1  0.75000000  0.69575452  0.00416326  1
  Sb  Sb15  1  0.25000000  0.30424548  0.99583674  1
  Sb  Sb16  1  0.75000000  0.15217960  0.29870701  1
  Sb  Sb17  1  0.25000000  0.84782040  0.70129299  1
  Sb  Sb18  1  0.75000000  0.65217960  0.20129299  1
  Sb  Sb19  1  0.25000000  0.34782040  0.79870701  1
  Sb  Sb20  1  0.75000000  0.11467192  0.68581133  1
  Sb  Sb21  1  0.25000000  0.88532808  0.31418867  1
  Sb  Sb22  1  0.75000000  0.61467192  0.81418867  1
  Sb  Sb23  1  0.25000000  0.38532808  0.18581133  1
loop_
_geom_bond_atom_site_label_1
_geom_bond_atom_site_label_2
_geom_bond_distance
_geom_bond_site_symmetry_2
Ba0 Sb20 3.587420 1_455
Ba0 Sb20 3.587420 1_555
Ba0 Sb10 3.625548 1_545
Ba0 Sb10 3.625548 1_445
Ba0 Sb12 3.656996 1_455
Ba0 Sb12 3.656996 1_555
Ba0 Sn1 3.715056 1_555
Ba0 Sb13 3.854538 1_545
Ba0 Sb17 4.118657 1_545
Ba1 Sb21 3.587420 1_555
Ba1 Sb21 3.587420 1_655
Ba1 Sb11 3.625548 1_565
Ba1 Sb11 3.625548 1_665
Ba1 Sb13 3.656996 1_555
Ba1 Sb13 3.656996 1_655
Ba1 Sn2 3.715056 1_555
Ba1 Sb12 3.854538 1_565
Ba1 Sb16 4.118657 1_565
Ba2 Sb22 3.587420 1_455
Ba2 Sb22 3.587420 1_555
Ba2 Sb8 3.625548 1_455
Ba2 Sb8 3.625548 1_555
Ba2 Sb14 3.656996 1_556
Ba2 Sb14 3.656996 1_456
Ba2 Sn0 3.715056 1_555
Ba2 Sb15 3.854538 1_555
Ba2 Sb19 4.118657 1_555
Ba3 Sb23 3.587420 1_555
Ba3 Sb23 3.587420 1_655
Ba3 Sb9 3.625548 1_555
Ba3 Sb9 3.625548 1_655
Ba3 Sb15 3.656996 1_654
Ba3 Sb15 3.656996 1_554
Ba3 Sn3 3.715056 1_555
Ba3 Sb14 3.854538 1_555
Ba3 Sb18 4.118657 1_555
Ba4 Sb15 3.537371 1_555
Ba4 Sb0 3.583565 1_455
Ba4 Sb0 3.583565 1_555
Ba4 Sb4 3.603698 1_445
Ba4 Sb4 3.603698 1_545
Ba4 Sb8 3.693301 1_455
Ba4 Sb8 3.693301 1_555
Ba4 Sn11 3.748353 1_555
Ba4 Sb19 3.750731 1_555
Ba4 Sb1 3.929228 1_546
Ba5 Sb14 3.537371 1_555
Ba5 Sb1 3.583565 1_655
Ba5 Sb1 3.583565 1_555
Ba5 Sb6 3.603698 1_565
Ba5 Sb6 3.603698 1_665
Ba5 Sb9 3.693301 1_655
Ba5 Sb9 3.693301 1_555
Ba5 Sn10 3.748353 1_555
Ba5 Sb18 3.750731 1_555
Ba5 Sb0 3.929228 1_564
Ba6 Sb13 3.537371 1_555
Ba6 Sb2 3.583565 1_455
Ba6 Sb2 3.583565 1_555
Ba6 Sb7 3.603698 1_455
Ba6 Sb7 3.603698 1_555
Ba6 Sb10 3.693301 1_455
Ba6 Sb10 3.693301 1_555
Ba6 Sn9 3.748353 1_555
Ba6 Sb17 3.750731 1_555
Ba6 Sb3 3.929228 1_555
Ba7 Sb12 3.537371 1_555
Ba7 Sb3 3.583565 1_655
Ba7 Sb3 3.583565 1_555
Ba7 Sb5 3.603698 1_655
Ba7 Sb5 3.603698 1_555
Ba7 Sb11 3.693301 1_555
Ba7 Sb11 3.693301 1_655
Ba7 Sn8 3.748353 1_555
Ba7 Sb16 3.750731 1_555
Ba7 Sb2 3.929228 1_555
Sb0 Sn3 2.907515 1_556
Sb0 Sb1 2.925282 1_546
Sb0 Sb1 2.925282 1_646
Sb1 Sn0 2.907515 1_554
Sb2 Sn2 2.907515 1_555
Sb2 Sb3 2.925282 1_555
Sb2 Sb3 2.925282 1_655
Sb3 Sn1 2.907515 1_555
Sb4 Sn5 2.832319 1_555
Sb4 Sn0 2.938098 1_655
Sb4 Sn0 2.938098 1_555
Sb5 Sn6 2.832319 1_555
Sb5 Sn2 2.938098 1_555
Sb5 Sn2 2.938098 1_455
Sb6 Sn4 2.832319 1_555
Sb6 Sn3 2.938098 1_555
Sb6 Sn3 2.938098 1_455
Sb7 Sn7 2.832319 1_555
Sb7 Sn1 2.938098 1_655
Sb7 Sn1 2.938098 1_555
Sb10 Sb13 2.945124 1_655
Sb10 Sb13 2.945124 1_555
Sb11 Sb12 2.945124 1_455
Sb11 Sb12 2.945124 1_555
Sb14 Sb9 2.945124 1_555
Sb14 Sb9 2.945124 1_655
Sb15 Sb8 2.945124 1_455
Sb15 Sb8 2.945124 1_555
Sb16 Sn4 2.863824 1_555
Sb16 Sn4 2.863824 1_655
Sb16 Sn10 2.924482 1_545
Sb17 Sn5 2.863824 1_555
Sb17 Sn5 2.863824 1_455
Sb17 Sn11 2.924482 1_565
Sb18 Sn6 2.863824 1_655
Sb18 Sn6 2.863824 1_555
Sb18 Sn8 2.924482 1_555
Sb19 Sn7 2.863824 1_455
Sb19 Sn7 2.863824 1_555
Sb19 Sn9 2.924482 1_555
Sb20 Sn7 2.825491 1_555
Sb20 Sn11 2.928362 1_655
Sb20 Sn11 2.928362 1_555
Sb21 Sn6 2.825491 1_555
Sb21 Sn10 2.928362 1_455
Sb21 Sn10 2.928362 1_555
Sb22 Sn5 2.825491 1_555
Sb22 Sn9 2.928362 1_555
Sb22 Sn9 2.928362 1_655
Sb23 Sn4 2.825491 1_555
Sb23 Sn8 2.928362 1_455
Sb23 Sn8 2.928362 1_555
