# generated using pymatgen
data_Na3MgScSi(SO6)2
_symmetry_space_group_name_H-M   'P 1'
_cell_length_a   9.04185344
_cell_length_b   9.06445995
_cell_length_c   22.54612606
_cell_angle_alpha   89.99085338
_cell_angle_beta   90.00000000
_cell_angle_gamma   119.91753429
_symmetry_Int_Tables_number   1
_chemical_formula_structural   Na3MgScSi(SO6)2
_chemical_formula_sum   'Na18 Mg6 Sc6 Si6 S12 O72'
_cell_volume   1601.63017850
_cell_formula_units_Z   6
loop_
 _symmetry_equiv_pos_site_id
 _symmetry_equiv_pos_as_xyz
  1  'x, y, z'
loop_
 _atom_site_type_symbol
 _atom_site_label
 _atom_site_symmetry_multiplicity
 _atom_site_fract_x
 _atom_site_fract_y
 _atom_site_fract_z
 _atom_site_occupancy
  Na  Na0  1  0.62768924  0.00685821  0.25247666  1
  Na  Na1  1  0.00612418  0.64182454  0.24231197  1
  Na  Na2  1  0.63570036  0.64182454  0.74231197  1
  Na  Na3  1  0.37916897  0.00685821  0.75247666  1
  Na  Na4  1  0.31769681  0.34883855  0.58528901  1
  Na  Na5  1  0.65816301  0.94846511  0.57995273  1
  Na  Na6  1  0.29030310  0.94846511  0.07995273  1
  Na  Na7  1  0.03114275  0.34883855  0.08528901  1
  Na  Na8  1  0.98384156  0.68025335  0.92255923  1
  Na  Na9  1  0.69108020  0.02879223  0.90865523  1
  Na  Na10  1  0.33771103  0.02879223  0.40865523  1
  Na  Na11  1  0.69641079  0.68025335  0.42255923  1
  Na  Na12  1  0.97934734  0.98904535  0.49681191  1
  Na  Na13  1  0.00969801  0.98904535  0.99681191  1
  Na  Na14  1  0.66032629  0.31256015  0.83067449  1
  Na  Na15  1  0.65223486  0.31256015  0.33067449  1
  Na  Na16  1  0.32727882  0.66438769  0.16419791  1
  Na  Na17  1  0.33710787  0.66438769  0.66419791  1
  Mg  Mg0  1  0.00481857  0.01375984  0.34976822  1
  Mg  Mg1  1  0.00894127  0.01375984  0.84976822  1
  Mg  Mg2  1  0.67445170  0.33494747  0.68321258  1
  Mg  Mg3  1  0.66049677  0.33494747  0.18321258  1
  Mg  Mg4  1  0.32267065  0.67258429  0.01626490  1
  Mg  Mg5  1  0.34991264  0.67258429  0.51626490  1
  Sc  Sc0  1  0.97565922  0.97978505  0.64908610  1
  Sc  Sc1  1  0.00412583  0.97978505  0.14908610  1
  Sc  Sc2  1  0.66099130  0.33742109  0.98286116  1
  Sc  Sc3  1  0.67643079  0.33742109  0.48286116  1
  Sc  Sc4  1  0.34063929  0.68546384  0.31650066  1
  Sc  Sc5  1  0.34482355  0.68546384  0.81650066  1
  Si  Si0  1  0.30179427  0.00788533  0.25306692  1
  Si  Si1  1  0.70609106  0.00788533  0.75306692  1
  Si  Si2  1  0.66322111  0.62341638  0.58470389  1
  Si  Si3  1  0.96019626  0.62341638  0.08470389  1
  Si  Si4  1  0.33013695  0.96935036  0.91809955  1
  Si  Si5  1  0.63921242  0.96935036  0.41809955  1
  S  S0  1  0.70585328  0.70413756  0.25162728  1
  S  S1  1  0.00060816  0.29269059  0.24920984  1
  S  S2  1  0.29208243  0.29269059  0.74920984  1
  S  S3  1  0.99828429  0.70413756  0.75162728  1
  S  S4  1  0.96487600  0.33828373  0.58411170  1
  S  S5  1  0.37102126  0.03913351  0.58384686  1
  S  S6  1  0.66811326  0.03913351  0.08384686  1
  S  S7  1  0.37340873  0.33828373  0.08411170  1
  S  S8  1  0.62416506  0.66515950  0.91719022  1
  S  S9  1  0.04303961  0.37199502  0.91796294  1
  S  S10  1  0.32895441  0.37199502  0.41796294  1
  S  S11  1  0.04099344  0.66515950  0.41719022  1
  O  O0  1  0.20838607  0.02203674  0.31196718  1
  O  O1  1  0.81006368  0.78356143  0.30512440  1
  O  O2  1  0.97277341  0.18152825  0.30068807  1
  O  O3  1  0.20875485  0.18152825  0.80068807  1
  O  O4  1  0.97349774  0.78356143  0.80512440  1
  O  O5  1  0.81365067  0.02203674  0.81196718  1
  O  O6  1  0.79026057  0.96929087  0.69352793  1
  O  O7  1  0.19423524  0.21455344  0.69400673  1
  O  O8  1  0.03302108  0.81725137  0.69903618  1
  O  O9  1  0.78423030  0.81725137  0.19903618  1
  O  O10  1  0.02031820  0.21455344  0.19400673  1
  O  O11  1  0.17903030  0.96929087  0.19352793  1
  O  O12  1  0.88250144  0.35803715  0.63705093  1
  O  O13  1  0.47965785  0.11663222  0.63677528  1
  O  O14  1  0.63571390  0.50743400  0.64301196  1
  O  O15  1  0.87172110  0.50743400  0.14301196  1
  O  O16  1  0.63697537  0.11663222  0.13677528  1
  O  O17  1  0.47553671  0.35803715  0.13705093  1
  O  O18  1  0.44876032  0.30166573  0.03127586  1
  O  O19  1  0.84735336  0.53397540  0.02423244  1
  O  O20  1  0.69287380  0.14543468  0.02998207  1
  O  O21  1  0.45256188  0.14543468  0.52998207  1
  O  O22  1  0.68662304  0.53397540  0.52423244  1
  O  O23  1  0.85290641  0.30166573  0.53127586  1
  O  O24  1  0.53626325  0.68469382  0.96900837  1
  O  O25  1  0.14321768  0.44907681  0.97250899  1
  O  O26  1  0.30254766  0.85038558  0.97568706  1
  O  O27  1  0.54783692  0.85038558  0.47568706  1
  O  O28  1  0.30585813  0.44907681  0.47250899  1
  O  O29  1  0.14842957  0.68469382  0.46900837  1
  O  O30  1  0.11610602  0.63937925  0.36213263  1
  O  O31  1  0.51483164  0.87902323  0.35854781  1
  O  O32  1  0.35415572  0.48046598  0.36575158  1
  O  O33  1  0.12630926  0.48046598  0.86575158  1
  O  O34  1  0.36419060  0.87902323  0.85854781  1
  O  O35  1  0.52327223  0.63937925  0.86213263  1
  O  O36  1  0.02461213  0.82058646  0.41252360  1
  O  O37  1  0.82053427  0.97342168  0.40940613  1
  O  O38  1  0.18247076  0.19724781  0.41254052  1
  O  O39  1  0.01477705  0.19724781  0.91254052  1
  O  O40  1  0.15288741  0.97342168  0.90940613  1
  O  O41  1  0.79597433  0.82058646  0.91252360  1
  O  O42  1  0.98844599  0.18448523  0.58941123  1
  O  O43  1  0.20393356  0.03332546  0.59009411  1
  O  O44  1  0.83233103  0.82012737  0.58578734  1
  O  O45  1  0.98779634  0.82012737  0.08578734  1
  O  O46  1  0.82939190  0.03332546  0.09009411  1
  O  O47  1  0.19603924  0.18448523  0.08941123  1
  O  O48  1  0.66795336  0.16462865  0.74459360  1
  O  O49  1  0.46695952  0.31275613  0.74550289  1
  O  O50  1  0.84256377  0.53716602  0.74355635  1
  O  O51  1  0.69460325  0.53716602  0.24355635  1
  O  O52  1  0.84579761  0.31275613  0.24550289  1
  O  O53  1  0.49667629  0.16462865  0.24459360  1
  O  O54  1  0.64991938  0.51488611  0.92119998  1
  O  O55  1  0.86900274  0.35813912  0.92219100  1
  O  O56  1  0.51294303  0.15249684  0.92226979  1
  O  O57  1  0.63955481  0.15249684  0.42226979  1
  O  O58  1  0.48913738  0.35813912  0.42219100  1
  O  O59  1  0.86496774  0.51488611  0.42119998  1
  O  O60  1  0.35486706  0.48971598  0.07563289  1
  O  O61  1  0.15281643  0.64327929  0.08119865  1
  O  O62  1  0.51815023  0.86647856  0.07680206  1
  O  O63  1  0.34832733  0.86647856  0.57680206  1
  O  O64  1  0.49046186  0.64327929  0.58119865  1
  O  O65  1  0.13484792  0.48971598  0.57563289  1
  O  O66  1  0.31093549  0.82466340  0.25391459  1
  O  O67  1  0.53216249  0.68483287  0.25640831  1
  O  O68  1  0.15305699  0.46499829  0.25620954  1
  O  O69  1  0.31194030  0.46499829  0.75620954  1
  O  O70  1  0.15266938  0.68483287  0.75640831  1
  O  O71  1  0.51372691  0.82466340  0.75391459  1
loop_
_geom_bond_atom_site_label_1
_geom_bond_atom_site_label_2
_geom_bond_distance
_geom_bond_site_symmetry_2
Na0 O53 2.273732 1_555
Na0 O52 2.479432 1_555
Na0 O66 2.492599 1_545
Na0 O67 2.599874 1_545
Na0 O31 2.631136 1_545
Na0 O16 2.778107 1_555
Na0 O2 2.914905 1_555
Na0 O9 2.972587 1_545
Na1 O66 2.419684 1_555
Na1 O51 2.483791 1_455
Na1 O15 2.548986 1_455
Na1 O68 2.560519 1_555
Na1 O52 2.586616 1_455
Na1 O11 2.799053 1_555
Na1 O30 2.882608 1_555
Na2 O71 2.419691 1_555
Na2 O50 2.483800 1_555
Na2 O14 2.548988 1_555
Na2 O69 2.560526 1_555
Na2 O49 2.586615 1_555
Na2 O6 2.799053 1_555
Na2 O35 2.882611 1_555
Na3 O48 2.273740 1_555
Na3 O49 2.479430 1_555
Na3 O71 2.492591 1_545
Na3 O70 2.599876 1_545
Na3 O34 2.631135 1_545
Na3 O13 2.778108 1_555
Na3 O3 2.914905 1_555
Na3 O8 2.972587 1_545
Na4 O64 2.326607 1_555
Na4 O43 2.512880 1_555
Na4 O65 2.552902 1_555
Na4 O42 2.581999 1_455
Na4 O7 2.716547 1_555
Na4 O28 2.720091 1_555
Na4 O14 2.811733 1_555
Na4 O21 2.946992 1_555
Na5 O44 2.382849 1_555
Na5 O64 2.401760 1_555
Na5 O63 2.515735 1_555
Na5 O27 2.535294 1_555
Na5 O42 2.677303 1_565
Na5 O6 2.791876 1_555
Na6 O45 2.382857 1_455
Na6 O61 2.401759 1_555
Na6 O62 2.515717 1_555
Na6 O26 2.535290 1_554
Na6 O47 2.677309 1_565
Na6 O11 2.791880 1_555
Na7 O61 2.326609 1_555
Na7 O46 2.512881 1_455
Na7 O60 2.552886 1_555
Na7 O47 2.581992 1_555
Na7 O10 2.716546 1_555
Na7 O25 2.720087 1_554
Na7 O15 2.811733 1_455
Na7 O20 2.946992 1_455
Na8 O40 2.331119 1_655
Na8 O55 2.564999 1_555
Na8 O41 2.590379 1_555
Na8 O54 2.617131 1_555
Na8 O19 2.627297 1_556
Na8 O26 2.772155 1_655
Na8 O4 2.825339 1_555
Na8 O33 2.984488 1_655
Na9 O56 2.397413 1_555
Na9 O5 2.460057 1_555
Na9 O41 2.500876 1_545
Na9 O39 2.539213 1_655
Na9 O55 2.608279 1_555
Na9 O34 2.802377 1_545
Na9 O20 2.929958 1_556
Na10 O57 2.397430 1_555
Na10 O0 2.460053 1_555
Na10 O36 2.500870 1_545
Na10 O38 2.539206 1_555
Na10 O58 2.608278 1_555
Na10 O31 2.802377 1_545
Na10 O21 2.929961 1_555
Na11 O37 2.331118 1_555
Na11 O58 2.564996 1_555
Na11 O36 2.590387 1_655
Na11 O59 2.617146 1_555
Na11 O22 2.627301 1_555
Na11 O27 2.772155 1_555
Na11 O1 2.825341 1_555
Na11 O32 2.984488 1_555
Na12 O37 2.400582 1_555
Na12 O44 2.470716 1_555
Na12 O36 2.595180 1_655
Na12 O38 2.661986 1_665
Na12 O42 2.712878 1_565
Na12 O43 2.809846 1_665
Na13 O40 2.400582 1_555
Na13 O45 2.470716 1_456
Na13 O41 2.595180 1_455
Na13 O39 2.661986 1_565
Na13 O47 2.712878 1_566
Na13 O46 2.809846 1_466
Na14 O48 2.379614 1_555
Na14 O56 2.493201 1_555
Na14 O49 2.597594 1_555
Na14 O55 2.685303 1_555
Na14 O50 2.714864 1_555
Na14 O54 2.776929 1_555
Na15 O53 2.379614 1_555
Na15 O57 2.493201 1_555
Na15 O52 2.597594 1_555
Na15 O58 2.685303 1_555
Na15 O51 2.714864 1_555
Na15 O59 2.776929 1_555
Na16 O61 2.392875 1_555
Na16 O66 2.537551 1_555
Na16 O60 2.636524 1_555
Na16 O62 2.657452 1_555
Na16 O68 2.685227 1_555
Na16 O67 2.728746 1_555
Na17 O64 2.392875 1_555
Na17 O71 2.537551 1_555
Na17 O65 2.636524 1_555
Na17 O63 2.657452 1_555
Na17 O69 2.685227 1_555
Na17 O70 2.728746 1_555
Mg0 O0 1.995527 1_555
Mg0 O2 2.014958 1_455
Mg0 O37 2.027367 1_445
Mg0 O38 2.164552 1_555
Mg0 O1 2.191681 1_445
Mg0 O36 2.326327 1_545
Mg1 O5 1.995527 1_455
Mg1 O3 2.014958 1_555
Mg1 O40 2.027367 1_545
Mg1 O39 2.164552 1_555
Mg1 O4 2.191681 1_445
Mg1 O41 2.326327 1_445
Mg2 O14 1.983564 1_555
Mg2 O48 2.052058 1_555
Mg2 O12 2.067109 1_555
Mg2 O13 2.153678 1_555
Mg2 O50 2.177830 1_555
Mg2 O49 2.270702 1_555
Mg3 O15 1.983564 1_555
Mg3 O53 2.052058 1_555
Mg3 O17 2.067109 1_555
Mg3 O16 2.153678 1_555
Mg3 O51 2.177830 1_555
Mg3 O52 2.270702 1_555
Mg4 O26 1.938976 1_554
Mg4 O61 2.040950 1_555
Mg4 O25 2.105258 1_554
Mg4 O24 2.159989 1_554
Mg4 O62 2.231135 1_555
Mg4 O60 2.259351 1_555
Mg5 O27 1.938976 1_555
Mg5 O64 2.040950 1_555
Mg5 O28 2.105258 1_555
Mg5 O29 2.159989 1_555
Mg5 O63 2.231135 1_555
Mg5 O65 2.259351 1_555
O0 Si0 1.612889 1_555
O1 S0 1.478026 1_555
O2 S1 1.473902 1_655
O3 S2 1.473902 1_555
O4 S3 1.478027 1_555
O5 Si1 1.612889 1_555
O6 Si1 1.664115 1_565
O6 Sc0 1.914179 1_555
O7 S2 1.486159 1_555
O7 Sc0 2.294703 1_445
O8 S3 1.494739 1_455
O8 Sc0 2.114128 1_455
O9 S0 1.494739 1_555
O9 Sc1 2.114127 1_655
O10 S1 1.486159 1_555
O10 Sc1 2.294703 1_545
O11 Si0 1.664115 1_565
O11 Sc1 1.914179 1_555
O12 S4 1.464423 1_555
O13 S5 1.481332 1_555
O14 Si2 1.622987 1_555
O15 Si3 1.622987 1_555
O16 S6 1.481332 1_555
O17 S7 1.464423 1_555
O18 S7 1.489676 1_555
O18 Sc2 2.087694 1_554
O19 Si3 1.652994 1_555
O19 Sc2 1.972205 1_554
O20 S6 1.495957 1_555
O20 Sc2 2.177177 1_554
O21 S5 1.495957 1_555
O21 Sc3 2.177177 1_555
O22 Si2 1.652994 1_555
O22 Sc3 1.972205 1_555
O23 S4 1.489676 1_555
O23 Sc3 2.087694 1_555
O24 S8 1.472556 1_555
O25 S9 1.479877 1_555
O26 Si4 1.625444 1_555
O27 Si5 1.625445 1_555
O28 S10 1.479877 1_555
O29 S11 1.472556 1_555
O30 S11 1.488348 1_555
O30 Sc4 2.123341 1_555
O31 Si5 1.679212 1_555
O31 Sc4 1.923990 1_555
O32 S10 1.476660 1_555
O32 Sc4 2.219622 1_555
O33 S9 1.476660 1_555
O33 Sc5 2.219622 1_555
O34 Si4 1.679212 1_555
O34 Sc5 1.923990 1_555
O35 S8 1.488348 1_555
O35 Sc5 2.123341 1_555
O36 S11 1.491981 1_555
O37 Si5 1.633198 1_555
O38 S10 1.478361 1_555
O39 S9 1.478364 1_555
O40 Si4 1.633189 1_555
O41 S8 1.491987 1_555
O42 S4 1.516418 1_555
O42 Sc0 2.247587 1_545
O43 S5 1.491889 1_555
O43 Sc0 2.294629 1_445
O44 Si2 1.672836 1_555
O44 Sc0 1.985061 1_555
O45 Si3 1.672839 1_555
O45 Sc1 1.985061 1_655
O46 S6 1.491880 1_555
O46 Sc1 2.294629 1_645
O47 S7 1.516423 1_555
O47 Sc1 2.247587 1_545
O48 Si1 1.631776 1_555
O49 S2 1.501139 1_555
O50 S3 1.476708 1_555
O51 S0 1.476712 1_555
O52 S1 1.501130 1_655
O53 Si0 1.631782 1_555
O54 S8 1.494728 1_555
O54 Sc2 2.165718 1_555
O55 S9 1.517886 1_655
O55 Sc2 2.256410 1_555
O56 Si4 1.661269 1_545
O56 Sc2 2.056794 1_555
O57 Si5 1.661260 1_545
O57 Sc3 2.056794 1_555
O58 S10 1.517904 1_555
O58 Sc3 2.256410 1_555
O59 S11 1.494717 1_655
O59 Sc3 2.165718 1_555
O60 S7 1.475904 1_555
O61 Si3 1.661079 1_455
O62 S6 1.482025 1_565
O63 S5 1.482018 1_565
O64 Si2 1.661097 1_555
O65 S4 1.475893 1_455
O66 Si0 1.703643 1_565
O66 Sc4 1.998197 1_555
O67 S0 1.494836 1_555
O67 Sc4 2.201000 1_555
O68 S1 1.488936 1_555
O68 Sc4 2.310404 1_555
O69 S2 1.488940 1_555
O69 Sc5 2.310404 1_555
O70 S3 1.494827 1_455
O70 Sc5 2.201000 1_555
O71 Si1 1.703648 1_565
O71 Sc5 1.998197 1_555
