# generated using pymatgen
data_LaZn5
_symmetry_space_group_name_H-M   'P 1'
_cell_length_a   5.40449917
_cell_length_b   5.40449859
_cell_length_c   4.23848422
_cell_angle_alpha   90.00000000
_cell_angle_beta   90.00000000
_cell_angle_gamma   119.99999736
_symmetry_Int_Tables_number   1
_chemical_formula_structural   LaZn5
_chemical_formula_sum   'La1 Zn5'
_cell_volume   107.21414248
_cell_formula_units_Z   1
loop_
 _symmetry_equiv_pos_site_id
 _symmetry_equiv_pos_as_xyz
  1  'x, y, z'
loop_
 _atom_site_type_symbol
 _atom_site_label
 _atom_site_symmetry_multiplicity
 _atom_site_fract_x
 _atom_site_fract_y
 _atom_site_fract_z
 _atom_site_occupancy
  La  La0  1  0.00000000  0.00000000  -0.00000000  1
  Zn  Zn0  1  0.00000000  0.50000000  0.50000000  1
  Zn  Zn1  1  0.33333300  0.66666700  0.00000000  1
  Zn  Zn2  1  0.66666700  0.33333300  0.00000000  1
  Zn  Zn3  1  0.50000000  0.00000000  0.50000000  1
  Zn  Zn4  1  0.50000000  0.50000000  0.50000000  1
loop_
_geom_bond_atom_site_label_1
_geom_bond_atom_site_label_2
_geom_bond_distance
_geom_bond_site_symmetry_2
La0 Zn1 3.120286 1_545
La0 Zn2 3.120286 1_455
La0 Zn2 3.120290 1_445
La0 Zn1 3.120290 1_555
La0 Zn1 3.120291 1_445
La0 Zn2 3.120291 1_555
La0 Zn0 3.434143 1_555
La0 Zn0 3.434143 1_545
La0 Zn0 3.434143 1_554
La0 Zn0 3.434143 1_544
La0 Zn4 3.434143 1_554
La0 Zn4 3.434143 1_445
La0 Zn4 3.434143 1_555
La0 Zn4 3.434143 1_444
La0 Zn3 3.434143 1_455
La0 Zn3 3.434143 1_555
La0 Zn3 3.434143 1_554
La0 Zn3 3.434143 1_454
Zn0 Zn1 2.631584 1_555
Zn0 Zn1 2.631584 1_556
Zn0 Zn2 2.631584 1_455
Zn0 Zn2 2.631584 1_456
Zn0 Zn3 2.702250 1_565
Zn0 Zn3 2.702250 1_455
Zn0 Zn4 2.702250 1_555
Zn0 Zn4 2.702250 1_455
Zn1 Zn3 2.631584 1_565
Zn1 Zn3 2.631584 1_564
Zn1 Zn4 2.631586 1_554
Zn1 Zn4 2.631586 1_555
Zn2 Zn3 2.631584 1_555
Zn2 Zn3 2.631584 1_554
Zn2 Zn4 2.631586 1_554
Zn2 Zn4 2.631586 1_555
Zn3 Zn4 2.702249 1_555
Zn3 Zn4 2.702249 1_545
