# generated using pymatgen
data_HfNb(PO4)3
_symmetry_space_group_name_H-M   'P 1'
_cell_length_a   8.88044987
_cell_length_b   8.88044958
_cell_length_c   22.73423977
_cell_angle_alpha   90.00000000
_cell_angle_beta   90.00000000
_cell_angle_gamma   120.00000111
_symmetry_Int_Tables_number   1
_chemical_formula_structural   HfNb(PO4)3
_chemical_formula_sum   'Hf6 Nb6 P18 O72'
_cell_volume   1552.67651059
_cell_formula_units_Z   6
loop_
 _symmetry_equiv_pos_site_id
 _symmetry_equiv_pos_as_xyz
  1  'x, y, z'
loop_
 _atom_site_type_symbol
 _atom_site_label
 _atom_site_symmetry_multiplicity
 _atom_site_fract_x
 _atom_site_fract_y
 _atom_site_fract_z
 _atom_site_occupancy
  Hf  Hf0  1  -0.00000000  0.00000000  0.35805062  1
  Hf  Hf1  1  -0.00000000  0.00000000  0.85805062  1
  Hf  Hf2  1  0.66666700  0.33333300  0.69138362  1
  Hf  Hf3  1  0.66666700  0.33333300  0.19138362  1
  Hf  Hf4  1  0.33333300  0.66666700  0.02471762  1
  Hf  Hf5  1  0.33333300  0.66666700  0.52471762  1
  Nb  Nb0  1  -0.00000000  0.00000000  0.64265937  1
  Nb  Nb1  1  -0.00000000  0.00000000  0.14265937  1
  Nb  Nb2  1  0.66666700  0.33333300  0.97599237  1
  Nb  Nb3  1  0.66666700  0.33333300  0.47599237  1
  Nb  Nb4  1  0.33333300  0.66666700  0.30932637  1
  Nb  Nb5  1  0.33333300  0.66666700  0.80932637  1
  P  P0  1  0.28116628  0.99691304  0.25024237  1
  P  P1  1  0.71574676  0.71883372  0.25024237  1
  P  P2  1  0.00308696  0.28425324  0.25024237  1
  P  P3  1  0.28116628  0.28425324  0.75024237  1
  P  P4  1  0.00308696  0.71883372  0.75024237  1
  P  P5  1  0.71574676  0.99691304  0.75024237  1
  P  P6  1  0.94783328  0.33024604  0.58357537  1
  P  P7  1  0.38241376  0.05216672  0.58357537  1
  P  P8  1  0.66975396  0.61758624  0.58357537  1
  P  P9  1  0.94783328  0.61758624  0.08357537  1
  P  P10  1  0.66975396  0.05216672  0.08357537  1
  P  P11  1  0.38241376  0.33024604  0.08357537  1
  P  P12  1  0.61449928  0.66358004  0.91690937  1
  P  P13  1  0.04907976  0.38550072  0.91690937  1
  P  P14  1  0.33641996  0.95092024  0.91690937  1
  P  P15  1  0.61449928  0.95092024  0.41690937  1
  P  P16  1  0.33641996  0.38550072  0.41690937  1
  P  P17  1  0.04907976  0.66358004  0.41690937  1
  O  O0  1  0.19672345  0.02458187  0.30424263  1
  O  O1  1  0.82785842  0.80327655  0.30424263  1
  O  O2  1  0.97541813  0.17214158  0.30424263  1
  O  O3  1  0.19672345  0.17214158  0.80424263  1
  O  O4  1  0.97541813  0.80327655  0.80424263  1
  O  O5  1  0.82785842  0.02458187  0.80424263  1
  O  O6  1  0.80205876  0.96576184  0.69531901  1
  O  O7  1  0.16370308  0.19794124  0.69531901  1
  O  O8  1  0.03423816  0.83629692  0.69531901  1
  O  O9  1  0.80205876  0.83629692  0.19531901  1
  O  O10  1  0.03423816  0.19794124  0.19531901  1
  O  O11  1  0.16370308  0.96576184  0.19531901  1
  O  O12  1  0.86339045  0.35791487  0.63757563  1
  O  O13  1  0.49452542  0.13660955  0.63757563  1
  O  O14  1  0.64208513  0.50547458  0.63757563  1
  O  O15  1  0.86339045  0.50547458  0.13757563  1
  O  O16  1  0.64208513  0.13660955  0.13757563  1
  O  O17  1  0.49452542  0.35791487  0.13757563  1
  O  O18  1  0.46872576  0.29909484  0.02865201  1
  O  O19  1  0.83037008  0.53127424  0.02865201  1
  O  O20  1  0.70090516  0.16962992  0.02865201  1
  O  O21  1  0.46872576  0.16962992  0.52865201  1
  O  O22  1  0.70090516  0.53127424  0.52865201  1
  O  O23  1  0.83037008  0.29909484  0.52865201  1
  O  O24  1  0.53005645  0.69124887  0.97090963  1
  O  O25  1  0.16119142  0.46994355  0.97090963  1
  O  O26  1  0.30875113  0.83880858  0.97090963  1
  O  O27  1  0.53005645  0.83880858  0.47090963  1
  O  O28  1  0.30875113  0.46994355  0.47090963  1
  O  O29  1  0.16119142  0.69124887  0.47090963  1
  O  O30  1  0.13539176  0.63242884  0.36198601  1
  O  O31  1  0.49703608  0.86460824  0.36198601  1
  O  O32  1  0.36757116  0.50296392  0.36198601  1
  O  O33  1  0.13539176  0.50296392  0.86198601  1
  O  O34  1  0.36757116  0.86460824  0.86198601  1
  O  O35  1  0.49703608  0.63242884  0.86198601  1
  O  O36  1  0.02285463  0.81825203  0.40659438  1
  O  O37  1  0.79539740  0.97714537  0.40659438  1
  O  O38  1  0.18174797  0.20460260  0.40659438  1
  O  O39  1  0.02285463  0.20460260  0.90659438  1
  O  O40  1  0.18174797  0.97714537  0.90659438  1
  O  O41  1  0.79539740  0.81825203  0.90659438  1
  O  O42  1  0.96273574  0.16372365  0.59336493  1
  O  O43  1  0.20098791  0.03726426  0.59336493  1
  O  O44  1  0.83627635  0.79901209  0.59336493  1
  O  O45  1  0.96273574  0.79901209  0.09336493  1
  O  O46  1  0.83627635  0.03726426  0.09336493  1
  O  O47  1  0.20098791  0.16372365  0.09336493  1
  O  O48  1  0.68952163  0.15158503  0.73992738  1
  O  O49  1  0.46206440  0.31047837  0.73992738  1
  O  O50  1  0.84841497  0.53793560  0.73992738  1
  O  O51  1  0.68952163  0.53793560  0.23992738  1
  O  O52  1  0.84841497  0.31047837  0.23992738  1
  O  O53  1  0.46206440  0.15158503  0.23992738  1
  O  O54  1  0.62940274  0.49705665  0.92669793  1
  O  O55  1  0.86765491  0.37059726  0.92669793  1
  O  O56  1  0.50294335  0.13234509  0.92669793  1
  O  O57  1  0.62940274  0.13234509  0.42669793  1
  O  O58  1  0.50294335  0.37059726  0.42669793  1
  O  O59  1  0.86765491  0.49705665  0.42669793  1
  O  O60  1  0.35618763  0.48491903  0.07326138  1
  O  O61  1  0.12873040  0.64381237  0.07326138  1
  O  O62  1  0.51508097  0.87126960  0.07326138  1
  O  O63  1  0.35618763  0.87126960  0.57326138  1
  O  O64  1  0.51508097  0.64381237  0.57326138  1
  O  O65  1  0.12873040  0.48491903  0.57326138  1
  O  O66  1  0.29606874  0.83039065  0.26003193  1
  O  O67  1  0.53432091  0.70393126  0.26003193  1
  O  O68  1  0.16960935  0.46567909  0.26003193  1
  O  O69  1  0.29606874  0.46567909  0.76003193  1
  O  O70  1  0.16960935  0.70393126  0.76003193  1
  O  O71  1  0.53432091  0.83039065  0.76003193  1
loop_
_geom_bond_atom_site_label_1
_geom_bond_atom_site_label_2
_geom_bond_distance
_geom_bond_site_symmetry_2
Hf0 O38 2.047370 1_555
Hf0 O36 2.047370 1_545
Hf0 O37 2.047370 1_445
Hf0 O1 2.052972 1_445
Hf0 O2 2.052972 1_455
Hf0 O0 2.052972 1_555
Hf1 O39 2.047370 1_555
Hf1 O41 2.047370 1_445
Hf1 O40 2.047370 1_545
Hf1 O4 2.052972 1_445
Hf1 O3 2.052972 1_555
Hf1 O5 2.052972 1_455
Hf2 O50 2.047370 1_555
Hf2 O48 2.047370 1_555
Hf2 O49 2.047370 1_555
Hf2 O13 2.052972 1_555
Hf2 O14 2.052972 1_555
Hf2 O12 2.052972 1_555
Hf3 O51 2.047370 1_555
Hf3 O53 2.047370 1_555
Hf3 O52 2.047370 1_555
Hf3 O16 2.052972 1_555
Hf3 O15 2.052972 1_555
Hf3 O17 2.052972 1_555
Hf4 O62 2.047370 1_555
Hf4 O60 2.047370 1_555
Hf4 O61 2.047370 1_555
Hf4 O25 2.052972 1_554
Hf4 O26 2.052972 1_554
Hf4 O24 2.052972 1_554
Hf5 O63 2.047370 1_555
Hf5 O65 2.047370 1_555
Hf5 O64 2.047370 1_555
Hf5 O28 2.052972 1_555
Hf5 O27 2.052972 1_555
Hf5 O29 2.052972 1_555
Nb0 O44 1.990100 1_445
Nb0 O42 1.990100 1_455
Nb0 O43 1.990100 1_555
Nb0 O7 2.020174 1_555
Nb0 O8 2.020174 1_545
Nb0 O6 2.020174 1_445
Nb1 O45 1.990100 1_445
Nb1 O47 1.990100 1_555
Nb1 O46 1.990100 1_455
Nb1 O10 2.020174 1_555
Nb1 O9 2.020174 1_445
Nb1 O11 2.020174 1_545
Nb2 O56 1.990100 1_555
Nb2 O54 1.990100 1_555
Nb2 O55 1.990100 1_555
Nb2 O19 2.020174 1_556
Nb2 O20 2.020174 1_556
Nb2 O18 2.020174 1_556
Nb3 O57 1.990100 1_555
Nb3 O59 1.990100 1_555
Nb3 O58 1.990100 1_555
Nb3 O22 2.020174 1_555
Nb3 O21 2.020174 1_555
Nb3 O23 2.020174 1_555
Nb4 O68 1.990100 1_555
Nb4 O66 1.990100 1_555
Nb4 O67 1.990100 1_555
Nb4 O31 2.020174 1_555
Nb4 O32 2.020174 1_555
Nb4 O30 2.020174 1_555
Nb5 O69 1.990100 1_555
Nb5 O71 1.990100 1_555
Nb5 O70 1.990100 1_555
Nb5 O34 2.020174 1_555
Nb5 O33 2.020174 1_555
Nb5 O35 2.020174 1_555
O0 P0 1.521218 1_545
O1 P1 1.521218 1_555
O2 P2 1.521218 1_655
O3 P3 1.521218 1_555
O4 P4 1.521218 1_655
O5 P5 1.521218 1_545
O6 P5 1.560505 1_555
O7 P3 1.560505 1_555
O8 P4 1.560505 1_555
O9 P1 1.560505 1_555
O10 P2 1.560505 1_555
O11 P0 1.560505 1_555
O12 P6 1.521218 1_555
O13 P7 1.521218 1_555
O14 P8 1.521218 1_555
O15 P9 1.521218 1_555
O16 P10 1.521218 1_555
O17 P11 1.521218 1_555
O18 P11 1.560505 1_555
O19 P9 1.560505 1_555
O20 P10 1.560505 1_555
O21 P7 1.560505 1_555
O22 P8 1.560505 1_555
O23 P6 1.560505 1_555
O24 P12 1.521218 1_555
O25 P13 1.521218 1_555
O26 P14 1.521218 1_555
O27 P15 1.521218 1_555
O28 P16 1.521218 1_555
O29 P17 1.521218 1_555
O30 P17 1.560505 1_555
O31 P15 1.560505 1_555
O32 P16 1.560505 1_555
O33 P13 1.560505 1_555
O34 P14 1.560505 1_555
O35 P12 1.560505 1_555
O36 P17 1.521768 1_555
O37 P15 1.521777 1_555
O38 P16 1.521773 1_555
O39 P13 1.521777 1_555
O40 P14 1.521768 1_555
O41 P12 1.521773 1_555
O42 P6 1.565114 1_555
O43 P7 1.565123 1_555
O44 P8 1.565119 1_555
O45 P9 1.565123 1_555
O46 P10 1.565114 1_555
O47 P11 1.565119 1_555
O48 P5 1.521768 1_545
O49 P3 1.521777 1_555
O50 P4 1.521773 1_655
O51 P1 1.521777 1_555
O52 P2 1.521768 1_655
O53 P0 1.521773 1_545
O54 P12 1.565124 1_555
O55 P13 1.565107 1_655
O56 P14 1.565114 1_545
O57 P15 1.565107 1_545
O58 P16 1.565124 1_555
O59 P17 1.565114 1_655
O60 P11 1.521778 1_555
O61 P9 1.521761 1_455
O62 P10 1.521768 1_565
O63 P7 1.521761 1_565
O64 P8 1.521778 1_555
O65 P6 1.521768 1_455
O66 P0 1.565114 1_555
O67 P1 1.565123 1_555
O68 P2 1.565119 1_555
O69 P3 1.565123 1_555
O70 P4 1.565114 1_555
O71 P5 1.565119 1_555
