# generated using pymatgen
data_Hg4As2Br3
_symmetry_space_group_name_H-M   'P 1'
_cell_length_a   13.02890000
_cell_length_b   13.02890000
_cell_length_c   13.02890000
_cell_angle_alpha   90.00000000
_cell_angle_beta   90.00000000
_cell_angle_gamma   90.00000000
_symmetry_Int_Tables_number   1
_chemical_formula_structural   Hg4As2Br3
_chemical_formula_sum   'Hg32 As16 Br24'
_cell_volume   2211.68489733
_cell_formula_units_Z   8
loop_
 _symmetry_equiv_pos_site_id
 _symmetry_equiv_pos_as_xyz
  1  'x, y, z'
loop_
 _atom_site_type_symbol
 _atom_site_label
 _atom_site_symmetry_multiplicity
 _atom_site_fract_x
 _atom_site_fract_y
 _atom_site_fract_z
 _atom_site_occupancy
  Hg  Hg0  1  0.03264000  0.99876700  0.25473300  1
  Hg  Hg1  1  0.25473300  0.03264000  0.99876700  1
  Hg  Hg2  1  0.99876700  0.25473300  0.03264000  1
  Hg  Hg3  1  0.50123300  0.74526700  0.53264000  1
  Hg  Hg4  1  0.75473300  0.46736000  0.00123300  1
  Hg  Hg5  1  0.00123300  0.75473300  0.46736000  1
  Hg  Hg6  1  0.24526700  0.96736000  0.49876700  1
  Hg  Hg7  1  0.74526700  0.53264000  0.50123300  1
  Hg  Hg8  1  0.49876700  0.24526700  0.96736000  1
  Hg  Hg9  1  0.53264000  0.50123300  0.74526700  1
  Hg  Hg10  1  0.96736000  0.49876700  0.24526700  1
  Hg  Hg11  1  0.46736000  0.00123300  0.75473300  1
  Hg  Hg12  1  0.96736000  0.00123300  0.74526700  1
  Hg  Hg13  1  0.74526700  0.96736000  0.00123300  1
  Hg  Hg14  1  0.00123300  0.74526700  0.96736000  1
  Hg  Hg15  1  0.49876700  0.25473300  0.46736000  1
  Hg  Hg16  1  0.24526700  0.53264000  0.99876700  1
  Hg  Hg17  1  0.99876700  0.24526700  0.53264000  1
  Hg  Hg18  1  0.75473300  0.03264000  0.50123300  1
  Hg  Hg19  1  0.25473300  0.46736000  0.49876700  1
  Hg  Hg20  1  0.50123300  0.75473300  0.03264000  1
  Hg  Hg21  1  0.46736000  0.49876700  0.25473300  1
  Hg  Hg22  1  0.03264000  0.50123300  0.75473300  1
  Hg  Hg23  1  0.53264000  0.99876700  0.24526700  1
  Hg  Hg24  1  0.22285800  0.22285800  0.22285800  1
  Hg  Hg25  1  0.27714200  0.77714200  0.72285800  1
  Hg  Hg26  1  0.72285800  0.27714200  0.77714200  1
  Hg  Hg27  1  0.77714200  0.72285800  0.27714200  1
  Hg  Hg28  1  0.77714200  0.77714200  0.77714200  1
  Hg  Hg29  1  0.72285800  0.22285800  0.27714200  1
  Hg  Hg30  1  0.27714200  0.72285800  0.22285800  1
  Hg  Hg31  1  0.22285800  0.27714200  0.72285800  1
  As  As0  1  0.44584300  0.44584300  0.44584300  1
  As  As1  1  0.05415700  0.55415700  0.94584300  1
  As  As2  1  0.94584300  0.05415700  0.55415700  1
  As  As3  1  0.55415700  0.94584300  0.05415700  1
  As  As4  1  0.55415700  0.55415700  0.55415700  1
  As  As5  1  0.94584300  0.44584300  0.05415700  1
  As  As6  1  0.05415700  0.94584300  0.44584300  1
  As  As7  1  0.44584300  0.05415700  0.94584300  1
  As  As8  1  0.10883400  0.10883400  0.10883400  1
  As  As9  1  0.39116600  0.89116600  0.60883400  1
  As  As10  1  0.60883400  0.39116600  0.89116600  1
  As  As11  1  0.89116600  0.60883400  0.39116600  1
  As  As12  1  0.89116600  0.89116600  0.89116600  1
  As  As13  1  0.60883400  0.10883400  0.39116600  1
  As  As14  1  0.39116600  0.60883400  0.10883400  1
  As  As15  1  0.10883400  0.39116600  0.60883400  1
  Br  Br0  1  0.18593100  0.43328800  0.26621200  1
  Br  Br1  1  0.26621200  0.18593100  0.43328800  1
  Br  Br2  1  0.43328800  0.26621200  0.18593100  1
  Br  Br3  1  0.06671200  0.73378800  0.68593100  1
  Br  Br4  1  0.76621200  0.31406900  0.56671200  1
  Br  Br5  1  0.56671200  0.76621200  0.31406900  1
  Br  Br6  1  0.23378800  0.81406900  0.93328800  1
  Br  Br7  1  0.73378800  0.68593100  0.06671200  1
  Br  Br8  1  0.93328800  0.23378800  0.81406900  1
  Br  Br9  1  0.68593100  0.06671200  0.73378800  1
  Br  Br10  1  0.81406900  0.93328800  0.23378800  1
  Br  Br11  1  0.31406900  0.56671200  0.76621200  1
  Br  Br12  1  0.81406900  0.56671200  0.73378800  1
  Br  Br13  1  0.73378800  0.81406900  0.56671200  1
  Br  Br14  1  0.56671200  0.73378800  0.81406900  1
  Br  Br15  1  0.93328800  0.26621200  0.31406900  1
  Br  Br16  1  0.23378800  0.68593100  0.43328800  1
  Br  Br17  1  0.43328800  0.23378800  0.68593100  1
  Br  Br18  1  0.76621200  0.18593100  0.06671200  1
  Br  Br19  1  0.26621200  0.31406900  0.93328800  1
  Br  Br20  1  0.06671200  0.76621200  0.18593100  1
  Br  Br21  1  0.31406900  0.93328800  0.26621200  1
  Br  Br22  1  0.18593100  0.06671200  0.76621200  1
  Br  Br23  1  0.68593100  0.43328800  0.23378800  1
loop_
_geom_bond_atom_site_label_1
_geom_bond_atom_site_label_2
_geom_bond_distance
_geom_bond_site_symmetry_2
As0 As4 2.444291 1_555
As0 Hg21 2.598832 1_555
As0 Hg19 2.598832 1_555
As0 Hg15 2.598832 1_555
As1 As5 2.444291 1_456
As1 Hg16 2.598832 1_555
As1 Hg14 2.598832 1_555
As1 Hg22 2.598832 1_555
As2 As6 2.444291 1_645
As2 Hg17 2.598832 1_555
As2 Hg12 2.598832 1_555
As2 Hg18 2.598832 1_555
As3 As7 2.444291 1_564
As3 Hg23 2.598832 1_555
As3 Hg13 2.598832 1_555
As3 Hg20 2.598832 1_555
As4 Hg3 2.598832 1_555
As4 Hg9 2.598832 1_555
As4 Hg7 2.598832 1_555
As5 Hg10 2.598832 1_555
As5 Hg2 2.598832 1_555
As5 Hg4 2.598832 1_555
As6 Hg6 2.598832 1_555
As6 Hg5 2.598832 1_555
As6 Hg0 2.598832 1_555
As7 Hg8 2.598832 1_555
As7 Hg1 2.598832 1_555
As7 Hg11 2.598832 1_555
As8 Hg24 2.573147 1_555
As8 Hg2 2.579814 1_455
As8 Hg1 2.579814 1_554
As8 Hg0 2.579814 1_545
As9 Hg25 2.573147 1_555
As9 Hg3 2.579814 1_555
As9 Hg11 2.579814 1_565
As9 Hg6 2.579814 1_555
As10 Hg26 2.573147 1_555
As10 Hg9 2.579814 1_555
As10 Hg4 2.579814 1_556
As10 Hg8 2.579814 1_555
As11 Hg27 2.573147 1_555
As11 Hg7 2.579814 1_555
As11 Hg5 2.579814 1_655
As11 Hg10 2.579814 1_555
As12 Hg28 2.573147 1_555
As12 Hg13 2.579814 1_556
As12 Hg12 2.579814 1_565
As12 Hg14 2.579814 1_655
As13 Hg29 2.573147 1_555
As13 Hg23 2.579814 1_545
As13 Hg18 2.579814 1_555
As13 Hg15 2.579814 1_555
As14 Hg30 2.573147 1_555
As14 Hg20 2.579814 1_555
As14 Hg16 2.579814 1_554
As14 Hg21 2.579814 1_555
As15 Hg31 2.573147 1_555
As15 Hg22 2.579814 1_555
As15 Hg17 2.579814 1_455
As15 Hg19 2.579814 1_555
Br0 Hg24 2.840299 1_555
Br0 Hg10 2.985281 1_455
Br0 Hg19 3.190789 1_555
Br1 Hg24 2.840299 1_555
Br1 Hg6 2.985281 1_545
Br1 Hg15 3.190789 1_555
Br2 Hg24 2.840299 1_555
Br2 Hg8 2.985281 1_554
Br2 Hg21 3.190789 1_555
Br3 Hg25 2.840299 1_555
Br3 Hg5 2.985281 1_555
Br3 Hg22 3.190789 1_555
Br4 Hg26 2.840299 1_555
Br4 Hg7 2.985281 1_555
Br4 Hg17 3.190789 1_555
Br5 Hg27 2.840299 1_555
Br5 Hg3 2.985281 1_555
Br5 Hg23 3.190789 1_555
Br6 Hg25 2.840299 1_555
Br6 Hg1 2.985281 1_565
Br6 Hg14 3.190789 1_555
Br7 Hg27 2.840299 1_555
Br7 Hg4 2.985281 1_555
Br7 Hg20 3.190789 1_555
Br8 Hg26 2.840299 1_555
Br8 Hg2 2.985281 1_556
Br8 Hg12 3.190789 1_555
Br9 Hg26 2.840299 1_555
Br9 Hg11 2.985281 1_555
Br9 Hg18 3.190789 1_555
Br10 Hg27 2.840299 1_555
Br10 Hg0 2.985281 1_655
Br10 Hg13 3.190789 1_555
Br11 Hg25 2.840299 1_555
Br11 Hg9 2.985281 1_555
Br11 Hg16 3.190789 1_555
Br12 Hg28 2.840299 1_555
Br12 Hg22 2.985281 1_655
Br12 Hg7 3.190789 1_555
Br13 Hg28 2.840299 1_555
Br13 Hg18 2.985281 1_565
Br13 Hg3 3.190789 1_555
Br14 Hg28 2.840299 1_555
Br14 Hg20 2.985281 1_556
Br14 Hg9 3.190789 1_555
Br15 Hg29 2.840299 1_555
Br15 Hg17 2.985281 1_555
Br15 Hg10 3.190789 1_555
Br16 Hg30 2.840299 1_555
Br16 Hg19 2.985281 1_555
Br16 Hg5 3.190789 1_555
Br17 Hg31 2.840299 1_555
Br17 Hg15 2.985281 1_555
Br17 Hg11 3.190789 1_555
Br18 Hg29 2.840299 1_555
Br18 Hg13 2.985281 1_545
Br18 Hg2 3.190789 1_555
Br19 Hg31 2.840299 1_555
Br19 Hg16 2.985281 1_555
Br19 Hg8 3.190789 1_555
Br20 Hg30 2.840299 1_555
Br20 Hg14 2.985281 1_554
Br20 Hg0 3.190789 1_555
Br21 Hg30 2.840299 1_555
Br21 Hg23 2.985281 1_555
Br21 Hg6 3.190789 1_555
Br22 Hg31 2.840299 1_555
Br22 Hg12 2.985281 1_455
Br22 Hg1 3.190789 1_555
Br23 Hg29 2.840299 1_555
Br23 Hg21 2.985281 1_555
Br23 Hg4 3.190789 1_555
