# generated using pymatgen
data_Rb2NiH12(SO7)2
_symmetry_space_group_name_H-M   'P 1'
_cell_length_a   12.51301600
_cell_length_b   6.31862200
_cell_length_c   9.13810866
_cell_angle_alpha   74.49343679
_cell_angle_beta   90.00000000
_cell_angle_gamma   90.00000000
_symmetry_Int_Tables_number   1
_chemical_formula_structural   Rb2NiH12(SO7)2
_chemical_formula_sum   'Rb4 Ni2 H24 S4 O28'
_cell_volume   696.20543632
_cell_formula_units_Z   2
loop_
 _symmetry_equiv_pos_site_id
 _symmetry_equiv_pos_as_xyz
  1  'x, y, z'
loop_
 _atom_site_type_symbol
 _atom_site_label
 _atom_site_symmetry_multiplicity
 _atom_site_fract_x
 _atom_site_fract_y
 _atom_site_fract_z
 _atom_site_occupancy
  Rb  Rb0  1  0.64909300  0.34696900  0.86957500  1
  Rb  Rb1  1  0.14909300  0.65303100  0.63042500  1
  Rb  Rb2  1  0.35090700  0.65303100  0.13042500  1
  Rb  Rb3  1  0.85090700  0.34696900  0.36957500  1
  Ni  Ni0  1  0.50000000  0.00000000  0.50000000  1
  Ni  Ni1  1  0.00000000  0.00000000  0.00000000  1
  H  H0  1  0.35885700  0.31571500  0.47226400  1
  H  H1  1  0.85885700  0.68428500  0.02773600  1
  H  H2  1  0.64114300  0.68428500  0.52773600  1
  H  H3  1  0.14114300  0.31571500  0.97226400  1
  H  H4  1  0.44152300  0.33172000  0.59903400  1
  H  H5  1  0.94152300  0.66828000  0.90096600  1
  H  H6  1  0.59667400  0.92586800  0.77446900  1
  H  H7  1  0.09667400  0.07413200  0.72553100  1
  H  H8  1  0.40332600  0.07413200  0.22553100  1
  H  H9  1  0.90332600  0.92586800  0.27446900  1
  H  H10  1  0.62745600  0.08503800  0.25882000  1
  H  H11  1  0.12745600  0.91496200  0.24118000  1
  H  H12  1  0.37254400  0.91496200  0.74118000  1
  H  H13  1  0.87254400  0.08503800  0.75882000  1
  H  H14  1  0.59365400  0.31623600  0.28978100  1
  H  H15  1  0.09365400  0.68376400  0.21021900  1
  H  H16  1  0.40634600  0.68376400  0.71021900  1
  H  H17  1  0.90634600  0.31623600  0.78978100  1
  H  H18  1  0.18502200  0.00630300  0.85375500  1
  H  H19  1  0.68502200  0.99369700  0.64624500  1
  H  H20  1  0.05847700  0.33172000  0.09903400  1
  H  H21  1  0.55847700  0.66828000  0.40096600  1
  H  H22  1  0.31497800  0.00630300  0.35375500  1
  H  H23  1  0.81497800  0.99369700  0.14624500  1
  S  S0  1  0.14149000  0.26832000  0.40152800  1
  S  S1  1  0.64149000  0.73168000  0.09847200  1
  S  S2  1  0.85851000  0.73168000  0.59847200  1
  S  S3  1  0.35851000  0.26832000  0.90152800  1
  O  O0  1  0.38616500  0.83896700  0.66093100  1
  O  O1  1  0.11383500  0.83896700  0.16093100  1
  O  O2  1  0.88971400  0.02563500  0.17126500  1
  O  O3  1  0.38971400  0.97436500  0.32873500  1
  O  O4  1  0.11028600  0.97436500  0.82873500  1
  O  O5  1  0.61028600  0.02563500  0.67126500  1
  O  O6  1  0.06396500  0.29525300  0.99997500  1
  O  O7  1  0.88616500  0.16103300  0.83906900  1
  O  O8  1  0.93603500  0.70474700  0.00002500  1
  O  O9  1  0.43603500  0.29525300  0.49997500  1
  O  O10  1  0.67791400  0.94401100  0.12653900  1
  O  O11  1  0.17791400  0.05598900  0.37346100  1
  O  O12  1  0.32208600  0.05598900  0.87346100  1
  O  O13  1  0.82208600  0.94401100  0.62653900  1
  O  O14  1  0.57408300  0.60663400  0.22868300  1
  O  O15  1  0.07408300  0.39336600  0.27131700  1
  O  O16  1  0.42591700  0.39336600  0.77131700  1
  O  O17  1  0.92591700  0.60663400  0.72868300  1
  O  O18  1  0.57652500  0.77475200  0.95727000  1
  O  O19  1  0.07652500  0.22524800  0.54273000  1
  O  O20  1  0.42347500  0.22524800  0.04273000  1
  O  O21  1  0.92347500  0.77475200  0.45727000  1
  O  O22  1  0.56396500  0.70474700  0.50002500  1
  O  O23  1  0.23655100  0.40562400  0.41369000  1
  O  O24  1  0.26344900  0.40562400  0.91369000  1
  O  O25  1  0.76344900  0.59437600  0.58631000  1
  O  O26  1  0.61383500  0.16103300  0.33906900  1
  O  O27  1  0.73655100  0.59437600  0.08631000  1
loop_
_geom_bond_atom_site_label_1
_geom_bond_atom_site_label_2
_geom_bond_distance
_geom_bond_site_symmetry_2
Ni0 O9 2.029985 1_555
Ni0 O22 2.029985 1_545
Ni0 O26 2.104014 1_555
Ni0 O0 2.104014 1_545
Ni0 O3 2.124984 1_545
Ni0 O5 2.124984 1_555
Ni1 O6 2.029985 1_554
Ni1 O8 2.029985 1_445
Ni1 O1 2.104014 1_545
Ni1 O7 2.104014 1_454
Ni1 O2 2.124984 1_455
Ni1 O4 2.124984 1_544
H0 O9 0.997982 1_555
H0 O23 1.669977 1_555
H1 O8 0.997982 1_555
H1 O27 1.669977 1_555
H2 O22 0.997982 1_555
H2 O25 1.669977 1_555
H3 O6 0.997982 1_555
H3 O24 1.669977 1_555
H4 O9 0.994357 1_555
H5 O8 0.994357 1_556
H6 O5 0.998967 1_565
H6 Rb0 3.082491 1_565
H7 O4 0.998967 1_545
H7 Rb1 3.082491 1_545
H8 O3 0.998967 1_545
H8 Rb2 3.082491 1_545
H9 O2 0.998967 1_565
H9 Rb3 3.082491 1_565
H10 O26 0.992811 1_555
H11 O1 0.992811 1_555
H12 O0 0.992811 1_555
H13 O7 0.992811 1_555
H14 O26 0.996076 1_555
H15 O1 0.996076 1_555
H16 O0 0.996076 1_555
H17 O7 0.996076 1_555
H18 O4 0.996101 1_545
H19 O5 0.996101 1_565
H20 O6 0.994357 1_554
H21 O22 0.994357 1_555
H22 O3 0.996101 1_545
H23 O2 0.996101 1_565
O0 Rb1 3.230041 1_555
O1 Rb2 3.230041 1_555
O2 Rb3 3.099943 1_555
O3 Rb2 3.099943 1_555
O4 Rb1 3.099943 1_555
O5 Rb0 3.099943 1_555
O7 Rb0 3.230041 1_555
O10 S1 1.502497 1_555
O10 Rb0 2.988300 1_564
O11 S0 1.502497 1_555
O11 Rb1 2.988300 1_545
O12 S3 1.502497 1_555
O12 Rb2 2.988300 1_546
O13 S2 1.502497 1_555
O13 Rb3 2.988300 1_565
O14 S1 1.499615 1_555
O14 Rb2 2.924047 1_555
O15 S0 1.499615 1_555
O15 Rb3 2.924047 1_455
O16 S3 1.499615 1_555
O16 Rb0 2.924047 1_555
O17 S2 1.499615 1_555
O17 Rb1 2.924047 1_655
O18 S1 1.487294 1_556
O18 Rb0 3.151371 1_555
O18 Rb2 3.227191 1_556
O19 S0 1.487294 1_555
O19 Rb1 3.151371 1_555
O19 Rb3 3.227191 1_455
O20 S3 1.487294 1_554
O20 Rb2 3.151371 1_555
O20 Rb0 3.227191 1_554
O21 S2 1.487294 1_555
O21 Rb3 3.151371 1_555
O21 Rb1 3.227191 1_655
O23 S0 1.493820 1_555
O23 Rb2 3.004679 1_555
O23 Rb1 3.036365 1_555
O24 S3 1.493820 1_555
O24 Rb1 3.004679 1_555
O24 Rb2 3.036365 1_556
O25 S2 1.493820 1_555
O25 Rb0 3.004679 1_555
O25 Rb3 3.036365 1_555
O26 Rb3 3.230041 1_555
O27 S1 1.493820 1_555
O27 Rb3 3.004679 1_555
O27 Rb0 3.036365 1_554
