# generated using pymatgen
data_MgTe4Mo2W2(SeS)2
_symmetry_space_group_name_H-M   'P 1'
_cell_length_a   6.77383200
_cell_length_b   6.77386652
_cell_length_c   77.42277600
_cell_angle_alpha   90.00030096
_cell_angle_beta   90.00013427
_cell_angle_gamma   119.99943309
_symmetry_Int_Tables_number   1
_chemical_formula_structural   MgTe4Mo2W2(SeS)2
_chemical_formula_sum   'Mg8 Te32 Mo16 W16 Se16 S16'
_cell_volume   3076.61325978
_cell_formula_units_Z   8
loop_
 _symmetry_equiv_pos_site_id
 _symmetry_equiv_pos_as_xyz
  1  'x, y, z'
loop_
 _atom_site_type_symbol
 _atom_site_label
 _atom_site_symmetry_multiplicity
 _atom_site_fract_x
 _atom_site_fract_y
 _atom_site_fract_z
 _atom_site_occupancy
  Mg  Mg0_0  1  0.15243600  0.32190400  0.43725300  1
  Mg  Mg0_1  1  0.15243600  0.32190400  0.93725300  1
  Mg  Mg0_2  1  0.15243600  0.82190400  0.43725300  1
  Mg  Mg0_3  1  0.15243600  0.82190400  0.93725300  1
  Mg  Mg0_4  1  0.65243600  0.32190400  0.43725300  1
  Mg  Mg0_5  1  0.65243600  0.32190400  0.93725300  1
  Mg  Mg0_6  1  0.65243600  0.82190400  0.43725300  1
  Mg  Mg0_7  1  0.65243600  0.82190400  0.93725300  1
  Te  Te0_0  1  0.16667850  0.33335950  0.35313400  1
  Te  Te0_1  1  0.16667850  0.33335950  0.85313400  1
  Te  Te0_2  1  0.16667850  0.83335950  0.35313400  1
  Te  Te0_3  1  0.16667850  0.83335950  0.85313400  1
  Te  Te0_4  1  0.66667850  0.33335950  0.35313400  1
  Te  Te0_5  1  0.66667850  0.33335950  0.85313400  1
  Te  Te0_6  1  0.66667850  0.83335950  0.35313400  1
  Te  Te0_7  1  0.66667850  0.83335950  0.85313400  1
  Te  Te1_0  1  0.33331750  0.16663650  0.02274900  1
  Te  Te1_1  1  0.33331750  0.16663650  0.52274900  1
  Te  Te1_2  1  0.33331750  0.66663650  0.02274900  1
  Te  Te1_3  1  0.33331750  0.66663650  0.52274900  1
  Te  Te1_4  1  0.83331750  0.16663650  0.02274900  1
  Te  Te1_5  1  0.83331750  0.16663650  0.52274900  1
  Te  Te1_6  1  0.83331750  0.66663650  0.02274900  1
  Te  Te1_7  1  0.83331750  0.66663650  0.52274900  1
  Te  Te2_0  1  0.33332150  0.16664500  0.07117400  1
  Te  Te2_1  1  0.33332150  0.16664500  0.57117400  1
  Te  Te2_2  1  0.33332150  0.66664500  0.07117400  1
  Te  Te2_3  1  0.33332150  0.66664500  0.57117400  1
  Te  Te2_4  1  0.83332150  0.16664500  0.07117400  1
  Te  Te2_5  1  0.83332150  0.16664500  0.57117400  1
  Te  Te2_6  1  0.83332150  0.66664500  0.07117400  1
  Te  Te2_7  1  0.83332150  0.66664500  0.57117400  1
  Te  Te3_0  1  0.16668000  0.33336150  0.30441050  1
  Te  Te3_1  1  0.16668000  0.33336150  0.80441050  1
  Te  Te3_2  1  0.16668000  0.83336150  0.30441050  1
  Te  Te3_3  1  0.16668000  0.83336150  0.80441050  1
  Te  Te3_4  1  0.66668000  0.33336150  0.30441050  1
  Te  Te3_5  1  0.66668000  0.33336150  0.80441050  1
  Te  Te3_6  1  0.66668000  0.83336150  0.30441050  1
  Te  Te3_7  1  0.66668000  0.83336150  0.80441050  1
  Mo  Mo0_0  1  0.16665150  0.33330550  0.04694000  1
  Mo  Mo0_1  1  0.16665150  0.33330550  0.54694000  1
  Mo  Mo0_2  1  0.16665150  0.83330550  0.04694000  1
  Mo  Mo0_3  1  0.16665150  0.83330550  0.54694000  1
  Mo  Mo0_4  1  0.66665150  0.33330550  0.04694000  1
  Mo  Mo0_5  1  0.66665150  0.33330550  0.54694000  1
  Mo  Mo0_6  1  0.66665150  0.83330550  0.04694000  1
  Mo  Mo0_7  1  0.66665150  0.83330550  0.54694000  1
  Mo  Mo1_0  1  0.16665100  0.33330950  0.23482100  1
  Mo  Mo1_1  1  0.16665100  0.33330950  0.73482100  1
  Mo  Mo1_2  1  0.16665100  0.83330950  0.23482100  1
  Mo  Mo1_3  1  0.16665100  0.83330950  0.73482100  1
  Mo  Mo1_4  1  0.66665100  0.33330950  0.23482100  1
  Mo  Mo1_5  1  0.66665100  0.33330950  0.73482100  1
  Mo  Mo1_6  1  0.66665100  0.83330950  0.23482100  1
  Mo  Mo1_7  1  0.66665100  0.83330950  0.73482100  1
  W  W0_0  1  0.33333500  0.16668500  0.14090400  1
  W  W0_1  1  0.33333500  0.16668500  0.64090400  1
  W  W0_2  1  0.33333500  0.66668500  0.14090400  1
  W  W0_3  1  0.33333500  0.66668500  0.64090400  1
  W  W0_4  1  0.83333500  0.16668500  0.14090400  1
  W  W0_5  1  0.83333500  0.16668500  0.64090400  1
  W  W0_6  1  0.83333500  0.66668500  0.14090400  1
  W  W0_7  1  0.83333500  0.66668500  0.64090400  1
  W  W1_0  1  0.33334150  0.16668450  0.32879800  1
  W  W1_1  1  0.33334150  0.16668450  0.82879800  1
  W  W1_2  1  0.33334150  0.66668450  0.32879800  1
  W  W1_3  1  0.33334150  0.66668450  0.82879800  1
  W  W1_4  1  0.83334150  0.16668450  0.32879800  1
  W  W1_5  1  0.83334150  0.16668450  0.82879800  1
  W  W1_6  1  0.83334150  0.66668450  0.32879800  1
  W  W1_7  1  0.83334150  0.66668450  0.82879800  1
  Se  Se0_0  1  0.33332200  0.16664150  0.21349900  1
  Se  Se0_1  1  0.33332200  0.16664150  0.71349900  1
  Se  Se0_2  1  0.33332200  0.66664150  0.21349900  1
  Se  Se0_3  1  0.33332200  0.66664150  0.71349900  1
  Se  Se0_4  1  0.83332200  0.16664150  0.21349900  1
  Se  Se0_5  1  0.83332200  0.16664150  0.71349900  1
  Se  Se0_6  1  0.83332200  0.66664150  0.21349900  1
  Se  Se0_7  1  0.83332200  0.66664150  0.71349900  1
  Se  Se1_0  1  0.33333000  0.16664850  0.25613650  1
  Se  Se1_1  1  0.33333000  0.16664850  0.75613650  1
  Se  Se1_2  1  0.33333000  0.66664850  0.25613650  1
  Se  Se1_3  1  0.33333000  0.66664850  0.75613650  1
  Se  Se1_4  1  0.83333000  0.16664850  0.25613650  1
  Se  Se1_5  1  0.83333000  0.16664850  0.75613650  1
  Se  Se1_6  1  0.83333000  0.66664850  0.25613650  1
  Se  Se1_7  1  0.83333000  0.66664850  0.75613650  1
  S  S0_0  1  0.16668700  0.33336300  0.16038100  1
  S  S0_1  1  0.16668700  0.33336300  0.66038100  1
  S  S0_2  1  0.16668700  0.83336300  0.16038100  1
  S  S0_3  1  0.16668700  0.83336300  0.66038100  1
  S  S0_4  1  0.66668700  0.33336300  0.16038100  1
  S  S0_5  1  0.66668700  0.33336300  0.66038100  1
  S  S0_6  1  0.66668700  0.83336300  0.16038100  1
  S  S0_7  1  0.66668700  0.83336300  0.66038100  1
  S  S1_0  1  0.16668500  0.33335750  0.12142350  1
  S  S1_1  1  0.16668500  0.33335750  0.62142350  1
  S  S1_2  1  0.16668500  0.83335750  0.12142350  1
  S  S1_3  1  0.16668500  0.83335750  0.62142350  1
  S  S1_4  1  0.66668500  0.33335750  0.12142350  1
  S  S1_5  1  0.66668500  0.33335750  0.62142350  1
  S  S1_6  1  0.66668500  0.83335750  0.12142350  1
  S  S1_7  1  0.66668500  0.83335750  0.62142350  1
loop_
_geom_bond_atom_site_label_1
_geom_bond_atom_site_label_2
_geom_bond_distance
_geom_bond_site_symmetry_2
Mg0_0 Mg0_4 3.386916 1_455
Mg0_0 Mg0_4 3.386916 1_555
Mg0_0 Mg0_2 3.386933 1_555
Mg0_0 Mg0_2 3.386933 1_545
Mg0_0 Mg0_6 3.386954 1_555
Mg0_0 Mg0_6 3.386954 1_445
Mg0_1 Mg0_5 3.386916 1_555
Mg0_1 Mg0_5 3.386916 1_455
Mg0_1 Mg0_3 3.386933 1_545
Mg0_1 Mg0_3 3.386933 1_555
Mg0_1 Mg0_7 3.386954 1_445
Mg0_1 Mg0_7 3.386954 1_555
Mg0_2 Mg0_6 3.386916 1_455
Mg0_2 Mg0_6 3.386916 1_555
Mg0_2 Mg0_4 3.386954 1_455
Mg0_2 Mg0_4 3.386954 1_565
Mg0_3 Mg0_7 3.386916 1_455
Mg0_3 Mg0_7 3.386916 1_555
Mg0_3 Mg0_5 3.386954 1_565
Mg0_3 Mg0_5 3.386954 1_455
Mg0_4 Mg0_6 3.386933 1_555
Mg0_4 Mg0_6 3.386933 1_545
Mg0_5 Mg0_7 3.386933 1_545
Mg0_5 Mg0_7 3.386933 1_555
Te0_0 W1_2 2.715463 1_555
Te0_0 W1_4 2.715489 1_455
Te0_0 W1_0 2.715490 1_555
Te0_1 W1_3 2.715463 1_555
Te0_1 W1_5 2.715489 1_455
Te0_1 W1_1 2.715490 1_555
Te0_2 W1_0 2.715463 1_565
Te0_2 W1_6 2.715489 1_455
Te0_2 W1_2 2.715490 1_555
Te0_3 W1_1 2.715463 1_565
Te0_3 W1_7 2.715489 1_455
Te0_3 W1_3 2.715490 1_555
Te0_4 W1_6 2.715463 1_555
Te0_4 W1_0 2.715489 1_555
Te0_4 W1_4 2.715490 1_555
Te0_5 W1_7 2.715463 1_555
Te0_5 W1_1 2.715489 1_555
Te0_5 W1_5 2.715490 1_555
Te0_6 W1_4 2.715463 1_565
Te0_6 W1_2 2.715489 1_555
Te0_6 W1_6 2.715490 1_555
Te0_7 W1_5 2.715463 1_565
Te0_7 W1_3 2.715489 1_555
Te0_7 W1_7 2.715490 1_555
Te3_0 W1_2 2.718203 1_555
Te3_0 W1_0 2.718265 1_555
Te3_0 W1_4 2.718279 1_455
Te3_1 W1_3 2.718203 1_555
Te3_1 W1_1 2.718265 1_555
Te3_1 W1_5 2.718279 1_455
Te3_2 W1_0 2.718203 1_565
Te3_2 W1_2 2.718265 1_555
Te3_2 W1_6 2.718279 1_455
Te3_3 W1_1 2.718203 1_565
Te3_3 W1_3 2.718265 1_555
Te3_3 W1_7 2.718279 1_455
Te3_4 W1_6 2.718203 1_555
Te3_4 W1_4 2.718265 1_555
Te3_4 W1_0 2.718279 1_555
Te3_5 W1_7 2.718203 1_555
Te3_5 W1_5 2.718265 1_555
Te3_5 W1_1 2.718279 1_555
Te3_6 W1_4 2.718203 1_565
Te3_6 W1_6 2.718265 1_555
Te3_6 W1_2 2.718279 1_555
Te3_7 W1_5 2.718203 1_565
Te3_7 W1_7 2.718265 1_555
Te3_7 W1_3 2.718279 1_555
Mo0_0 Te1_4 2.707699 1_455
Mo0_0 Te1_0 2.707700 1_555
Mo0_0 Te1_2 2.707711 1_555
Mo0_0 Te2_0 2.709990 1_555
Mo0_0 Te2_4 2.710001 1_455
Mo0_0 Te2_2 2.710031 1_555
Mo0_1 Te1_5 2.707699 1_455
Mo0_1 Te1_1 2.707700 1_555
Mo0_1 Te1_3 2.707711 1_555
Mo0_1 Te2_1 2.709990 1_555
Mo0_1 Te2_5 2.710001 1_455
Mo0_1 Te2_3 2.710031 1_555
Mo0_2 Te1_6 2.707699 1_455
Mo0_2 Te1_2 2.707700 1_555
Mo0_2 Te1_0 2.707711 1_565
Mo0_2 Te2_2 2.709990 1_555
Mo0_2 Te2_6 2.710001 1_455
Mo0_2 Te2_0 2.710031 1_565
Mo0_3 Te1_7 2.707699 1_455
Mo0_3 Te1_3 2.707700 1_555
Mo0_3 Te1_1 2.707711 1_565
Mo0_3 Te2_3 2.709990 1_555
Mo0_3 Te2_7 2.710001 1_455
Mo0_3 Te2_1 2.710031 1_565
Mo0_4 Te1_0 2.707699 1_555
Mo0_4 Te1_4 2.707700 1_555
Mo0_4 Te1_6 2.707711 1_555
Mo0_4 Te2_4 2.709990 1_555
Mo0_4 Te2_0 2.710001 1_555
Mo0_4 Te2_6 2.710031 1_555
Mo0_5 Te1_1 2.707699 1_555
Mo0_5 Te1_5 2.707700 1_555
Mo0_5 Te1_7 2.707711 1_555
Mo0_5 Te2_5 2.709990 1_555
Mo0_5 Te2_1 2.710001 1_555
Mo0_5 Te2_7 2.710031 1_555
Mo0_6 Te1_2 2.707699 1_555
Mo0_6 Te1_6 2.707700 1_555
Mo0_6 Te1_4 2.707711 1_565
Mo0_6 Te2_6 2.709990 1_555
Mo0_6 Te2_2 2.710001 1_555
Mo0_6 Te2_4 2.710031 1_565
Mo0_7 Te1_3 2.707699 1_555
Mo0_7 Te1_7 2.707700 1_555
Mo0_7 Te1_5 2.707711 1_565
Mo0_7 Te2_7 2.709990 1_555
Mo0_7 Te2_3 2.710001 1_555
Mo0_7 Te2_5 2.710031 1_565
Mo1_0 Se1_4 2.558718 1_455
Mo1_0 Se1_0 2.558789 1_555
Mo1_0 Se1_2 2.558790 1_555
Mo1_0 Se0_4 2.559064 1_455
Mo1_0 Se0_2 2.559102 1_555
Mo1_0 Se0_0 2.559105 1_555
Mo1_1 Se1_5 2.558718 1_455
Mo1_1 Se1_1 2.558789 1_555
Mo1_1 Se1_3 2.558790 1_555
Mo1_1 Se0_5 2.559064 1_455
Mo1_1 Se0_3 2.559102 1_555
Mo1_1 Se0_1 2.559105 1_555
Mo1_2 Se1_6 2.558718 1_455
Mo1_2 Se1_2 2.558789 1_555
Mo1_2 Se1_0 2.558790 1_565
Mo1_2 Se0_6 2.559064 1_455
Mo1_2 Se0_0 2.559102 1_565
Mo1_2 Se0_2 2.559105 1_555
Mo1_3 Se1_7 2.558718 1_455
Mo1_3 Se1_3 2.558789 1_555
Mo1_3 Se1_1 2.558790 1_565
Mo1_3 Se0_7 2.559064 1_455
Mo1_3 Se0_1 2.559102 1_565
Mo1_3 Se0_3 2.559105 1_555
Mo1_4 Se1_0 2.558718 1_555
Mo1_4 Se1_4 2.558789 1_555
Mo1_4 Se1_6 2.558790 1_555
Mo1_4 Se0_0 2.559064 1_555
Mo1_4 Se0_6 2.559102 1_555
Mo1_4 Se0_4 2.559105 1_555
Mo1_5 Se1_1 2.558718 1_555
Mo1_5 Se1_5 2.558789 1_555
Mo1_5 Se1_7 2.558790 1_555
Mo1_5 Se0_1 2.559064 1_555
Mo1_5 Se0_7 2.559102 1_555
Mo1_5 Se0_5 2.559105 1_555
Mo1_6 Se1_2 2.558718 1_555
Mo1_6 Se1_6 2.558789 1_555
Mo1_6 Se1_4 2.558790 1_565
Mo1_6 Se0_2 2.559064 1_555
Mo1_6 Se0_4 2.559102 1_565
Mo1_6 Se0_6 2.559105 1_555
Mo1_7 Se1_3 2.558718 1_555
Mo1_7 Se1_7 2.558789 1_555
Mo1_7 Se1_5 2.558790 1_565
Mo1_7 Se0_3 2.559064 1_555
Mo1_7 Se0_5 2.559102 1_565
Mo1_7 Se0_7 2.559105 1_555
S0_0 W0_0 2.469313 1_555
S0_0 W0_2 2.469322 1_555
S0_0 W0_4 2.469438 1_455
S0_1 W0_1 2.469313 1_555
S0_1 W0_3 2.469322 1_555
S0_1 W0_5 2.469438 1_455
S0_2 W0_2 2.469313 1_555
S0_2 W0_0 2.469322 1_565
S0_2 W0_6 2.469438 1_455
S0_3 W0_3 2.469313 1_555
S0_3 W0_1 2.469322 1_565
S0_3 W0_7 2.469438 1_455
S0_4 W0_4 2.469313 1_555
S0_4 W0_6 2.469322 1_555
S0_4 W0_0 2.469438 1_555
S0_5 W0_5 2.469313 1_555
S0_5 W0_7 2.469322 1_555
S0_5 W0_1 2.469438 1_555
S0_6 W0_6 2.469313 1_555
S0_6 W0_4 2.469322 1_565
S0_6 W0_2 2.469438 1_555
S0_7 W0_7 2.469313 1_555
S0_7 W0_5 2.469322 1_565
S0_7 W0_3 2.469438 1_555
S1_0 W0_0 2.469466 1_555
S1_0 W0_2 2.469496 1_555
S1_0 W0_4 2.469608 1_455
S1_1 W0_1 2.469466 1_555
S1_1 W0_3 2.469496 1_555
S1_1 W0_5 2.469608 1_455
S1_2 W0_2 2.469466 1_555
S1_2 W0_0 2.469496 1_565
S1_2 W0_6 2.469608 1_455
S1_3 W0_3 2.469466 1_555
S1_3 W0_1 2.469496 1_565
S1_3 W0_7 2.469608 1_455
S1_4 W0_4 2.469466 1_555
S1_4 W0_6 2.469496 1_555
S1_4 W0_0 2.469608 1_555
S1_5 W0_5 2.469466 1_555
S1_5 W0_7 2.469496 1_555
S1_5 W0_1 2.469608 1_555
S1_6 W0_6 2.469466 1_555
S1_6 W0_4 2.469496 1_565
S1_6 W0_2 2.469608 1_555
S1_7 W0_7 2.469466 1_555
S1_7 W0_5 2.469496 1_565
S1_7 W0_3 2.469608 1_555
