# generated using pymatgen
data_Ho2Mg(SbO3)4
_symmetry_space_group_name_H-M   'P 1'
_cell_length_a   5.76144781
_cell_length_b   5.79393417
_cell_length_c   8.18984663
_cell_angle_alpha   90.49941972
_cell_angle_beta   95.39900337
_cell_angle_gamma   91.36402444
_symmetry_Int_Tables_number   1
_chemical_formula_structural   Ho2Mg(SbO3)4
_chemical_formula_sum   'Ho2 Mg1 Sb4 O12'
_cell_volume   272.08247578
_cell_formula_units_Z   1
loop_
 _symmetry_equiv_pos_site_id
 _symmetry_equiv_pos_as_xyz
  1  'x, y, z'
loop_
 _atom_site_type_symbol
 _atom_site_label
 _atom_site_symmetry_multiplicity
 _atom_site_fract_x
 _atom_site_fract_y
 _atom_site_fract_z
 _atom_site_occupancy
  Ho  Ho0  1  0.02530282  0.94003570  0.73206104  1
  Ho  Ho1  1  0.56299527  0.58235330  0.25606238  1
  Mg  Mg0  1  0.10885077  0.05078926  0.15564376  1
  Sb  Sb0  1  0.03588365  0.50617360  0.99029850  1
  Sb  Sb1  1  0.04567769  0.49566768  0.51507357  1
  Sb  Sb2  1  0.49419718  0.02013551  0.50934829  1
  Sb  Sb3  1  0.56443248  0.04172418  0.98171708  1
  O  O0  1  0.20551137  0.41357419  0.20749790  1
  O  O1  1  0.13414492  0.19195712  0.92971546  1
  O  O2  1  0.20852256  0.19111630  0.57736978  1
  O  O3  1  0.27853324  0.74597102  0.96396131  1
  O  O4  1  0.29639974  0.75024924  0.59480089  1
  O  O5  1  0.36558606  0.91404096  0.28752724  1
  O  O6  1  0.65392617  0.05312465  0.74808609  1
  O  O7  1  0.63053293  0.31144741  0.43705300  1
  O  O8  1  0.74633491  0.35689019  0.06765581  1
  O  O9  1  0.84133590  0.81680570  0.07317953  1
  O  O10  1  0.76807071  0.82795729  0.47281344  1
  O  O11  1  0.93036363  0.55665571  0.75013594  1
loop_
_geom_bond_atom_site_label_1
_geom_bond_atom_site_label_2
_geom_bond_distance
_geom_bond_site_symmetry_2
Ho0 O1 2.206425 1_565
Ho0 O2 2.246399 1_565
Ho0 O6 2.267778 1_465
Ho0 O11 2.284362 1_455
Ho0 O4 2.302830 1_555
Ho0 O10 2.542454 1_455
Ho0 O3 2.567846 1_555
Ho1 O7 2.184801 1_555
Ho1 O0 2.258252 1_555
Ho1 O5 2.281185 1_555
Ho1 O8 2.353811 1_555
Ho1 O10 2.460364 1_555
Ho1 O9 2.654061 1_555
Ho1 O3 2.946751 1_554
Mg0 O5 1.937107 1_545
Mg0 O1 2.045814 1_554
Mg0 O9 2.087632 1_445
Mg0 O0 2.189269 1_555
Mg0 O3 2.619529 1_544
O0 Sb0 2.030186 1_554
O1 Sb0 1.991799 1_555
O1 Sb3 2.644880 1_555
O2 Sb2 2.059435 1_555
O2 Sb1 2.063646 1_555
O3 Sb0 1.975047 1_555
O3 Sb3 2.342420 1_565
O4 Sb2 2.077970 1_565
O4 Sb1 2.095943 1_555
O5 Sb2 1.983124 1_565
O6 Sb3 2.029178 1_555
O6 Sb2 2.086348 1_555
O7 Sb2 1.964229 1_555
O7 Sb1 2.616751 1_655
O8 Sb0 2.017969 1_654
O8 Sb3 2.162373 1_554
O9 Sb3 2.166941 1_564
O9 Sb0 2.274697 1_654
O10 Sb2 1.996452 1_565
O10 Sb1 2.537443 1_655
O11 Sb0 2.029113 1_655
O11 Sb1 2.124234 1_655
