# generated using pymatgen
data_Na2Ti4Zn4SiS11O48
_symmetry_space_group_name_H-M   'P 1'
_cell_length_a   17.30659036
_cell_length_b   8.66397013
_cell_length_c   22.42511200
_cell_angle_alpha   89.84640746
_cell_angle_beta   90.02565646
_cell_angle_gamma   119.98750769
_symmetry_Int_Tables_number   1
_chemical_formula_structural   Na2Ti4Zn4SiS11O48
_chemical_formula_sum   'Na6 Ti12 Zn12 Si3 S33 O144'
_cell_volume   2912.37019283
_cell_formula_units_Z   3
loop_
 _symmetry_equiv_pos_site_id
 _symmetry_equiv_pos_as_xyz
  1  'x, y, z'
loop_
 _atom_site_type_symbol
 _atom_site_label
 _atom_site_symmetry_multiplicity
 _atom_site_fract_x
 _atom_site_fract_y
 _atom_site_fract_z
 _atom_site_occupancy
  Na  Na0  1  0.99697511  0.99185385  0.49439100  1
  Na  Na1  1  0.49870870  0.99674875  0.00023624  1
  Na  Na2  1  0.33197802  0.32944195  0.83563293  1
  Na  Na3  1  0.83782223  0.33836010  0.83243067  1
  Na  Na4  1  0.33505365  0.33339979  0.33122408  1
  Na  Na5  1  0.83714543  0.33699850  0.33775380  1
  Ti  Ti0  1  0.49766297  0.00890477  0.35615010  1
  Ti  Ti1  1  0.49674996  0.00767983  0.85517684  1
  Ti  Ti2  1  0.99867337  0.99406700  0.65038590  1
  Ti  Ti3  1  0.50054807  0.00146048  0.63977261  1
  Ti  Ti4  1  0.00044177  0.00195007  0.14569178  1
  Ti  Ti5  1  0.49956910  0.00863051  0.15159193  1
  Ti  Ti6  1  0.16291529  0.66588935  0.01818650  1
  Ti  Ti7  1  0.66282361  0.65177459  0.02046027  1
  Ti  Ti8  1  0.16010911  0.66724715  0.52017108  1
  Ti  Ti9  1  0.15723695  0.65991257  0.31261068  1
  Ti  Ti10  1  0.66537963  0.66354674  0.31015628  1
  Ti  Ti11  1  0.66322031  0.65854188  0.81141462  1
  Zn  Zn0  1  0.99923421  0.99098829  0.35577628  1
  Zn  Zn1  1  0.00251705  0.00266688  0.85546545  1
  Zn  Zn2  1  0.33176868  0.33312628  0.68341701  1
  Zn  Zn3  1  0.83576703  0.33621892  0.68142037  1
  Zn  Zn4  1  0.33707297  0.33283472  0.18546209  1
  Zn  Zn5  1  0.83393577  0.33276065  0.18343155  1
  Zn  Zn6  1  0.33632293  0.33170365  0.98088836  1
  Zn  Zn7  1  0.83558345  0.33503587  0.98309025  1
  Zn  Zn8  1  0.33601393  0.33806426  0.48307998  1
  Zn  Zn9  1  0.83629092  0.33809255  0.48002608  1
  Zn  Zn10  1  0.66760821  0.66925248  0.52040063  1
  Zn  Zn11  1  0.16265342  0.66190463  0.80985998  1
  Si  Si0  1  0.49780898  0.29422858  0.25185921  1
  Si  Si1  1  0.51921421  0.37817933  0.91575453  1
  Si  Si2  1  0.01563481  0.66629356  0.41730165  1
  S  S0  1  0.14420019  0.00069952  0.25042755  1
  S  S1  1  0.64411490  0.00138734  0.25151304  1
  S  S2  1  0.35490445  0.71337062  0.25203161  1
  S  S3  1  0.85548929  0.70923481  0.25002371  1
  S  S4  1  0.99929634  0.28681064  0.25090130  1
  S  S5  1  0.14615069  0.28954770  0.75054123  1
  S  S6  1  0.64374731  0.28605455  0.75032309  1
  S  S7  1  0.99837066  0.70648986  0.75149246  1
  S  S8  1  0.50040860  0.71542880  0.75089897  1
  S  S9  1  0.35622630  -0.00008932  0.74865367  1
  S  S10  1  0.85448814  0.00144383  0.75186731  1
  S  S11  1  0.48005133  0.33702818  0.58432053  1
  S  S12  1  0.98082323  0.32954999  0.58393850  1
  S  S13  1  0.18656517  0.04038058  0.58346544  1
  S  S14  1  0.68899209  0.04191376  0.58410698  1
  S  S15  1  0.33188193  0.62543387  0.58328879  1
  S  S16  1  0.83303139  0.62808006  0.58482136  1
  S  S17  1  0.48093928  0.63124478  0.08266518  1
  S  S18  1  0.98016122  0.62866777  0.08350029  1
  S  S19  1  0.33241662  0.03469206  0.08260295  1
  S  S20  1  0.83243706  0.03809374  0.08354149  1
  S  S21  1  0.18799204  0.33545034  0.08340977  1
  S  S22  1  0.68677029  0.33051384  0.08289266  1
  S  S23  1  0.30981382  0.66478912  0.91535396  1
  S  S24  1  0.81008618  0.66711509  0.91634966  1
  S  S25  1  0.02043964  0.37612576  0.91591561  1
  S  S26  1  0.16600999  0.95520703  0.91534576  1
  S  S27  1  0.66701935  0.95377777  0.91536971  1
  S  S28  1  0.30906348  0.95266830  0.41575111  1
  S  S29  1  0.80940847  0.95329492  0.41643618  1
  S  S30  1  0.16887611  0.38417624  0.41682786  1
  S  S31  1  0.66557463  0.37692185  0.41581523  1
  S  S32  1  0.52178124  0.66778342  0.41520626  1
  O  O0  1  0.10468026  0.02931322  0.30345707  1
  O  O1  1  0.59986586  0.02473014  0.30412170  1
  O  O2  1  0.41345538  0.79968068  0.30452356  1
  O  O3  1  0.90972562  0.78577113  0.30306126  1
  O  O4  1  0.48828853  0.16079922  0.30754685  1
  O  O5  1  0.98594416  0.18059429  0.30416105  1
  O  O6  1  0.10695858  0.18000220  0.80418166  1
  O  O7  1  0.59868357  0.17302022  0.80430923  1
  O  O8  1  0.48887959  0.80332662  0.80466873  1
  O  O9  1  0.98303453  0.78678924  0.80430918  1
  O  O10  1  0.41472599  0.02405047  0.80434437  1
  O  O11  1  0.90982255  0.03200278  0.80476062  1
  O  O12  1  0.40255573  0.97892315  0.69648329  1
  O  O13  1  0.89738182  0.97317159  0.69709297  1
  O  O14  1  0.08754538  0.19254956  0.69637836  1
  O  O15  1  0.58850627  0.20556076  0.69700538  1
  O  O16  1  0.00805514  0.82265802  0.69674565  1
  O  O17  1  0.51390848  0.82466445  0.69689349  1
  O  O18  1  0.39985936  0.82581710  0.19698456  1
  O  O19  1  0.89870559  0.82373036  0.19561290  1
  O  O20  1  0.01251942  0.20066979  0.19633034  1
  O  O21  1  0.51512913  0.19402610  0.19342108  1
  O  O22  1  0.08611448  0.97007825  0.19616146  1
  O  O23  1  0.58870584  0.97041498  0.19625728  1
  O  O24  1  0.43956788  0.36382217  0.63788020  1
  O  O25  1  0.94619584  0.36744399  0.63758766  1
  O  O26  1  0.23972783  0.11389313  0.63716946  1
  O  O27  1  0.74194482  0.12094498  0.63808305  1
  O  O28  1  0.31503869  0.51772233  0.63700527  1
  O  O29  1  0.82013768  0.52225268  0.63899527  1
  O  O30  1  0.44569058  0.52237849  0.13635761  1
  O  O31  1  0.94455844  0.51797863  0.13684989  1
  O  O32  1  0.31467852  0.10621403  0.13617054  1
  O  O33  1  0.81410330  0.11166419  0.13703715  1
  O  O34  1  0.24268903  0.37215484  0.13696696  1
  O  O35  1  0.73949065  0.36099972  0.13682067  1
  O  O36  1  0.22266536  0.29375174  0.03034344  1
  O  O37  1  0.72399879  0.29852204  0.02896334  1
  O  O38  1  0.42592309  0.55730449  0.02941092  1
  O  O39  1  0.92509452  0.55882096  0.03023957  1
  O  O40  1  0.35366181  0.14654154  0.02941140  1
  O  O41  1  0.85417714  0.15142092  0.03063695  1
  O  O42  1  0.22268311  0.14970491  0.52949252  1
  O  O43  1  0.72345539  0.15555594  0.53089560  1
  O  O44  1  0.35416120  0.55618769  0.53043710  1
  O  O45  1  0.85562797  0.55976105  0.53134715  1
  O  O46  1  0.42311813  0.29073572  0.53086731  1
  O  O47  1  0.92560975  0.29151279  0.53065202  1
  O  O48  1  0.27022630  0.69786552  0.96999580  1
  O  O49  1  0.76620064  0.69061478  0.97090549  1
  O  O50  1  0.07872539  0.47271348  0.97079981  1
  O  O51  1  0.58489915  0.47300753  0.97401512  1
  O  O52  1  0.15709394  0.83843306  0.97054192  1
  O  O53  1  0.65327003  0.84507270  0.96975048  1
  O  O54  1  0.27070196  0.84547141  0.47034610  1
  O  O55  1  0.77082769  0.84630721  0.47035277  1
  O  O56  1  0.16061646  0.47497742  0.47103264  1
  O  O57  1  0.64678876  0.44562932  0.46922904  1
  O  O58  1  0.08407092  0.68515416  0.47381684  1
  O  O59  1  0.57340571  0.69925515  0.46924263  1
  O  O60  1  0.07339321  0.64412997  0.35888444  1
  O  O61  1  0.56738456  0.64154370  0.36151361  1
  O  O62  1  0.25488947  0.86627896  0.36176874  1
  O  O63  1  0.75370860  0.85804397  0.36193808  1
  O  O64  1  0.18149809  0.49514992  0.36166994  1
  O  O65  1  0.67786444  0.49105997  0.36206235  1
  O  O66  1  0.06013356  0.48663550  0.86299521  1
  O  O67  1  0.57495089  0.50433544  0.85820214  1
  O  O68  1  0.18208318  0.87555468  0.86279858  1
  O  O69  1  0.67988349  0.86968240  0.86133381  1
  O  O70  1  0.25875968  0.64370452  0.86155698  1
  O  O71  1  0.75295606  0.64416709  0.86242591  1
  O  O72  1  0.01934676  0.85245217  0.41646048  1
  O  O73  1  0.51268125  0.82739488  0.40306112  1
  O  O74  1  0.39853117  0.96535069  0.40848350  1
  O  O75  1  0.89970340  0.97789747  0.40997995  1
  O  O76  1  0.08662568  0.21278994  0.41283518  1
  O  O77  1  0.58448817  0.19375563  0.40551866  1
  O  O78  1  0.01598552  0.20381815  0.91425104  1
  O  O79  1  0.51644902  0.18412938  0.90681712  1
  O  O80  1  0.08293389  0.95952819  0.91419093  1
  O  O81  1  0.58390337  0.96568100  0.90881149  1
  O  O82  1  0.40190073  0.83221600  0.91038977  1
  O  O83  1  0.89674044  0.82687102  0.91071246  1
  O  O84  1  0.48864462  0.16887479  0.59539698  1
  O  O85  1  0.99331434  0.17039627  0.59295645  1
  O  O86  1  0.09405884  0.01429649  0.59159494  1
  O  O87  1  0.59565438  0.02474148  0.59563504  1
  O  O88  1  0.41392478  0.80962874  0.59419368  1
  O  O89  1  0.91672098  0.81490965  0.59464454  1
  O  O90  1  0.49438223  0.81497596  0.09105255  1
  O  O91  1  0.99280150  0.81140111  0.09440221  1
  O  O92  1  0.41280466  0.00878620  0.09165307  1
  O  O93  1  0.91337823  0.01698754  0.09543783  1
  O  O94  1  0.09557589  0.17587258  0.09551077  1
  O  O95  1  0.59457380  0.16980374  0.08959411  1
  O  O96  1  0.35163057  0.16402644  0.74614819  1
  O  O97  1  0.84256282  0.15611918  0.74318575  1
  O  O98  1  0.23513497  0.30692116  0.74251902  1
  O  O99  1  0.73219450  0.30542336  0.74697599  1
  O  O100  1  0.42229674  0.53660727  0.74650363  1
  O  O101  1  0.91857319  0.52942710  0.74331296  1
  O  O102  1  0.34609538  0.53772612  0.24531988  1
  O  O103  1  0.84233292  0.52932151  0.24134614  1
  O  O104  1  0.41104891  0.30952550  0.24756528  1
  O  O105  1  0.92230508  0.31332073  0.24285425  1
  O  O106  1  0.23249296  0.15633005  0.24146639  1
  O  O107  1  0.73251069  0.15970474  0.24519337  1
  O  O108  1  0.32134224  0.51077559  0.92346457  1
  O  O109  1  0.81439840  0.50210216  0.92084681  1
  O  O110  1  0.42352332  0.35706277  0.91847892  1
  O  O111  1  0.93175063  0.36014240  0.92416939  1
  O  O112  1  0.24449789  0.13184487  0.92450796  1
  O  O113  1  0.74553499  0.13211417  0.92052891  1
  O  O114  1  0.32062740  0.13196418  0.42036200  1
  O  O115  1  0.81139877  0.12528295  0.41830598  1
  O  O116  1  0.24960392  0.36803695  0.42089863  1
  O  O117  1  0.74381792  0.35495735  0.41849120  1
  O  O118  1  0.43230794  0.50630163  0.41809853  1
  O  O119  1  0.92492624  0.48243438  0.41832415  1
  O  O120  1  0.17406568  0.49088836  0.07206979  1
  O  O121  1  0.67669342  0.49259412  0.07538342  1
  O  O122  1  0.07154598  0.65267957  0.07303633  1
  O  O123  1  0.57298925  0.65453650  0.07224947  1
  O  O124  1  0.25391652  0.85308626  0.07194208  1
  O  O125  1  0.75529648  0.85748129  0.07269013  1
  O  O126  1  0.17721874  0.85973027  0.57453321  1
  O  O127  1  0.67253823  0.86178815  0.57716446  1
  O  O128  1  0.25549002  0.65288468  0.57316060  1
  O  O129  1  0.75703943  0.65430839  0.57738471  1
  O  O130  1  0.07291189  0.48794101  0.57392013  1
  O  O131  1  0.56921834  0.48627467  0.57666212  1
  O  O132  1  0.15182175  0.83591331  0.25623759  1
  O  O133  1  0.65156760  0.83918626  0.25871924  1
  O  O134  1  0.26883370  0.70530240  0.25862248  1
  O  O135  1  0.76710636  0.69956539  0.25608004  1
  O  O136  1  0.08378852  0.46509506  0.25559526  1
  O  O137  1  0.59009978  0.48216831  0.26321777  1
  O  O138  1  0.15089745  0.46222666  0.75265829  1
  O  O139  1  0.65160132  0.46508218  0.75822955  1
  O  O140  1  0.08086853  0.70014325  0.75252720  1
  O  O141  1  0.58378262  0.70404036  0.75864666  1
  O  O142  1  0.27069881  0.83961324  0.75592933  1
  O  O143  1  0.76595529  0.83530418  0.75833889  1
loop_
_geom_bond_atom_site_label_1
_geom_bond_atom_site_label_2
_geom_bond_distance
_geom_bond_site_symmetry_2
Na0 O72 2.267619 1_655
Na0 O75 2.495328 1_555
Na0 O76 2.535984 1_665
Na0 O89 2.681335 1_555
Na0 O86 2.699041 1_665
Na0 O85 2.720092 1_565
Na1 O90 2.549216 1_555
Na1 O82 2.554122 1_554
Na1 O95 2.557852 1_565
Na1 O92 2.565672 1_565
Na1 O79 2.569577 1_564
Na1 O81 2.617660 1_554
Na2 O110 2.374800 1_555
Na2 O112 2.566840 1_555
Na2 O108 2.586038 1_555
Na2 O96 2.588391 1_555
Na2 O100 2.615122 1_555
Na2 O98 2.622860 1_555
Na3 O101 2.521804 1_555
Na3 O99 2.563957 1_555
Na3 O111 2.569597 1_555
Na3 O97 2.579078 1_555
Na3 O109 2.588219 1_555
Na3 O113 2.603465 1_555
Na4 O104 2.359749 1_555
Na4 O118 2.522829 1_555
Na4 O102 2.554475 1_555
Na4 O114 2.578771 1_555
Na4 O116 2.602024 1_555
Na4 O106 2.616658 1_555
Na5 O119 2.292684 1_555
Na5 O115 2.447891 1_555
Na5 O117 2.483232 1_555
Na5 O105 2.655291 1_555
Na5 O107 2.679618 1_555
Na5 O103 2.699984 1_555
O0 S0 1.454385 1_555
O0 Zn0 2.052123 1_445
O1 S1 1.475154 1_555
O1 Ti0 2.065731 1_555
O2 S2 1.489242 1_555
O2 Ti0 2.029559 1_565
O3 S3 1.454791 1_555
O3 Zn0 2.052997 1_555
O4 Si0 1.650786 1_555
O4 Ti0 1.775313 1_555
O5 S4 1.452080 1_555
O5 Zn0 2.111520 1_545
O6 S5 1.469320 1_555
O6 Zn1 2.041242 1_555
O7 S6 1.504655 1_555
O7 Ti1 1.983004 1_555
O8 S8 1.493562 1_555
O8 Ti1 2.050780 1_565
O9 S7 1.465126 1_555
O9 Zn1 2.075744 1_665
O10 S9 1.554682 1_555
O10 Ti1 1.879795 1_555
O11 S10 1.463328 1_555
O11 Zn1 2.082174 1_655
O12 S9 1.480677 1_565
O12 Ti3 2.049672 1_565
O13 S10 1.517908 1_565
O13 Ti2 1.971365 1_555
O14 S5 1.537064 1_555
O14 Ti2 1.936686 1_445
O15 S6 1.472046 1_555
O15 Ti3 2.100253 1_555
O16 S7 1.540544 1_455
O16 Ti2 1.882885 1_455
O17 S8 1.479890 1_555
O17 Ti3 2.093755 1_565
O18 S2 1.521513 1_555
O18 Ti5 1.945112 1_565
O19 S3 1.511594 1_555
O19 Ti4 2.003094 1_665
O20 S4 1.510904 1_455
O20 Ti4 1.986960 1_555
O21 Si0 1.681513 1_555
O21 Ti5 1.762937 1_555
O22 S0 1.515217 1_565
O22 Ti4 1.990401 1_565
O23 S1 1.506810 1_565
O23 Ti5 2.000018 1_565
O24 S11 1.467039 1_555
O24 Zn2 2.024447 1_555
O25 S12 1.453888 1_555
O25 Zn3 2.043352 1_555
O26 S13 1.455988 1_555
O26 Zn2 2.050706 1_555
O27 S14 1.466285 1_555
O27 Zn3 2.010145 1_555
O28 S15 1.459201 1_555
O28 Zn2 2.044174 1_555
O29 S16 1.468365 1_555
O29 Zn3 2.000883 1_555
O30 S17 1.459776 1_555
O30 Zn4 2.085515 1_555
O31 S18 1.460987 1_555
O31 Zn5 2.062367 1_555
O32 S19 1.454553 1_555
O32 Zn4 2.116057 1_555
O33 S20 1.467220 1_555
O33 Zn5 2.054942 1_555
O34 S21 1.462802 1_555
O34 Zn4 2.125939 1_555
O35 S22 1.457595 1_555
O35 Zn5 2.054492 1_555
O36 S21 1.458222 1_555
O36 Zn6 2.135585 1_554
O37 S22 1.461348 1_555
O37 Zn7 2.068091 1_554
O38 S17 1.461681 1_555
O38 Zn6 2.095030 1_554
O39 S18 1.458541 1_555
O39 Zn7 2.069796 1_554
O40 S19 1.461207 1_555
O40 Zn6 2.078275 1_554
O41 S20 1.462194 1_555
O41 Zn7 2.067244 1_554
O42 S13 1.468167 1_555
O42 Zn8 2.094414 1_555
O43 S14 1.468458 1_555
O43 Zn9 2.126267 1_555
O44 S15 1.465871 1_555
O44 Zn8 2.053050 1_555
O45 S16 1.475436 1_555
O45 Zn9 2.119901 1_555
O46 S11 1.474810 1_555
O46 Zn8 2.050157 1_555
O47 S12 1.461476 1_555
O47 Zn9 2.112069 1_555
O48 S23 1.500633 1_555
O48 Ti6 2.044417 1_556
O49 S24 1.507253 1_555
O49 Ti7 1.986708 1_556
O50 S25 1.547011 1_555
O50 Ti6 1.903636 1_556
O51 Si1 1.656815 1_555
O51 Ti7 1.794948 1_556
O52 S26 1.554638 1_555
O52 Ti6 1.878394 1_556
O53 S27 1.483539 1_555
O53 Ti7 2.095622 1_556
O54 S28 1.476658 1_555
O54 Ti8 2.081933 1_555
O55 S29 1.463885 1_555
O55 Zn10 2.014253 1_555
O56 S30 1.494852 1_555
O56 Ti8 2.003438 1_555
O57 S31 1.446529 1_555
O57 Zn10 2.124649 1_555
O58 Si2 1.685822 1_555
O58 Ti8 1.743096 1_555
O59 S32 1.448537 1_555
O59 Zn10 2.112346 1_555
O60 Si2 1.716568 1_555
O60 Ti9 1.733002 1_555
O61 S32 1.518560 1_555
O61 Ti10 1.978992 1_555
O62 S28 1.485619 1_555
O62 Ti9 2.063142 1_555
O63 S29 1.520858 1_555
O63 Ti10 1.989663 1_555
O64 S30 1.511966 1_555
O64 Ti9 2.003675 1_555
O65 S31 1.503247 1_555
O65 Ti10 1.986982 1_555
O66 S25 1.460874 1_555
O66 Zn11 2.042722 1_555
O67 Si1 1.652412 1_555
O67 Ti11 1.781361 1_555
O68 S26 1.462445 1_555
O68 Zn11 2.082796 1_555
O69 S27 1.488595 1_555
O69 Ti11 2.041092 1_555
O70 S23 1.452020 1_555
O70 Zn11 2.096379 1_555
O71 S24 1.510993 1_555
O71 Ti11 1.981655 1_555
O72 Si2 1.581804 1_555
O72 Zn0 1.955039 1_455
O73 S32 1.492299 1_555
O73 Ti0 2.011656 1_565
O74 S28 1.505382 1_555
O74 Ti0 1.953296 1_565
O75 S29 1.474953 1_555
O75 Zn0 2.064787 1_555
O76 S30 1.458383 1_555
O76 Zn0 2.173412 1_445
O77 S31 1.522024 1_555
O77 Ti0 1.910738 1_555
O78 S25 1.456452 1_555
O78 Zn1 2.106036 1_555
O79 Si1 1.670451 1_555
O79 Ti1 1.811772 1_555
O80 S26 1.457054 1_555
O80 Zn1 2.080052 1_565
O81 S27 1.499812 1_555
O81 Ti1 2.097324 1_565
O82 S23 1.531291 1_555
O82 Ti1 2.008948 1_565
O83 S24 1.450898 1_555
O83 Zn1 2.100165 1_665
O84 S11 1.555929 1_555
O84 Ti3 1.851314 1_555
O85 S12 1.511769 1_555
O85 Ti2 2.032750 1_545
O86 S13 1.511880 1_555
O86 Ti2 2.050732 1_445
O87 S14 1.567888 1_555
O87 Ti3 1.843390 1_555
O88 S15 1.536014 1_555
O88 Ti3 1.889854 1_565
O89 S16 1.557086 1_555
O89 Ti2 1.947208 1_555
O90 S17 1.501607 1_555
O90 Ti5 2.127853 1_565
O91 S18 1.506636 1_555
O91 Ti4 1.964108 1_665
O92 S19 1.529303 1_555
O92 Ti5 2.015367 1_555
O93 S20 1.523929 1_555
O93 Ti4 1.936823 1_655
O94 S21 1.526818 1_555
O94 Ti4 1.939146 1_555
O95 S22 1.511793 1_555
O95 Ti5 2.069503 1_555
O96 S9 1.464200 1_555
O96 Zn2 2.176120 1_555
O97 S10 1.466769 1_555
O97 Zn3 2.130451 1_555
O98 S5 1.481569 1_555
O98 Zn2 2.055696 1_555
O99 S6 1.456076 1_555
O99 Zn3 2.228800 1_555
O100 S8 1.464452 1_555
O100 Zn2 2.194186 1_555
O101 S7 1.475713 1_555
O101 Zn3 2.096406 1_555
O102 S2 1.459794 1_555
O102 Zn4 2.170931 1_555
O103 S3 1.471821 1_555
O103 Zn5 2.091014 1_555
O104 Si0 1.574842 1_555
O104 Zn4 1.968441 1_555
O105 S4 1.471818 1_555
O105 Zn5 2.097027 1_555
O106 S0 1.460359 1_555
O106 Zn4 2.101584 1_555
O107 S1 1.464052 1_555
O107 Zn5 2.146549 1_555
O108 S23 1.455412 1_555
O108 Zn6 2.126883 1_555
O109 S24 1.471586 1_555
O109 Zn7 2.167272 1_555
O110 Si1 1.573841 1_555
O110 Zn6 1.988286 1_555
O111 S25 1.482232 1_655
O111 Zn7 2.049801 1_555
O112 S26 1.467256 1_545
O112 Zn6 2.093221 1_555
O113 S27 1.466026 1_545
O113 Zn7 2.181815 1_555
O114 S28 1.467621 1_545
O114 Zn8 2.185263 1_555
O115 S29 1.473895 1_545
O115 Zn9 2.172539 1_555
O116 S30 1.474769 1_555
O116 Zn8 2.152359 1_555
O117 S31 1.459769 1_555
O117 Zn9 2.171980 1_555
O118 S32 1.481008 1_555
O118 Zn8 2.141952 1_555
O119 Si2 1.581943 1_655
O119 Zn9 1.976503 1_555
O120 S21 1.502982 1_555
O120 Ti6 2.019565 1_555
O121 S22 1.508053 1_555
O121 Ti7 1.948887 1_555
O122 S18 1.506931 1_455
O122 Ti6 1.961273 1_555
O123 S17 1.520486 1_555
O123 Ti7 1.950770 1_555
O124 S19 1.497819 1_565
O124 Ti6 2.004853 1_555
O125 S20 1.484471 1_565
O125 Ti7 2.065861 1_555
O126 S13 1.504844 1_565
O126 Ti8 1.967714 1_555
O127 S14 1.448393 1_565
O127 Zn10 2.068645 1_555
O128 S15 1.473029 1_555
O128 Ti8 2.086908 1_555
O129 S16 1.451705 1_555
O129 Zn10 2.059834 1_555
O130 S12 1.511981 1_455
O130 Ti8 1.947212 1_555
O131 S11 1.444743 1_555
O131 Zn10 2.072992 1_555
O132 S0 1.503311 1_565
O132 Ti9 2.016071 1_555
O133 S1 1.482426 1_565
O133 Ti10 2.014273 1_555
O134 S2 1.463444 1_555
O134 Ti9 2.142634 1_555
O135 S3 1.495724 1_555
O135 Ti10 2.029320 1_555
O136 S4 1.509355 1_455
O136 Ti9 1.991210 1_555
O137 Si0 1.633854 1_555
O137 Ti10 1.798859 1_555
O138 S5 1.457667 1_555
O138 Zn11 2.083167 1_555
O139 S6 1.498830 1_555
O139 Ti11 1.986433 1_555
O140 S7 1.456191 1_455
O140 Zn11 2.056942 1_555
O141 S8 1.504640 1_555
O141 Ti11 1.995870 1_555
O142 S9 1.445840 1_565
O142 Zn11 2.108043 1_555
O143 S10 1.495017 1_565
O143 Ti11 2.047804 1_555
