# generated using pymatgen
data_NaAlSiGe(SO6)2
_symmetry_space_group_name_H-M   'P 1'
_cell_length_a   8.43934721
_cell_length_b   8.41105987
_cell_length_c   21.90274060
_cell_angle_alpha   90.44371112
_cell_angle_beta   90.00000000
_cell_angle_gamma   120.11131334
_symmetry_Int_Tables_number   1
_chemical_formula_structural   NaAlSiGe(SO6)2
_chemical_formula_sum   'Na6 Al6 Si6 Ge6 S12 O72'
_cell_volume   1344.87846535
_cell_formula_units_Z   6
loop_
 _symmetry_equiv_pos_site_id
 _symmetry_equiv_pos_as_xyz
  1  'x, y, z'
loop_
 _atom_site_type_symbol
 _atom_site_label
 _atom_site_symmetry_multiplicity
 _atom_site_fract_x
 _atom_site_fract_y
 _atom_site_fract_z
 _atom_site_occupancy
  Na  Na0  1  0.01698573  0.00947768  0.50191278  1
  Na  Na1  1  0.99249195  0.00947768  0.00191278  1
  Na  Na2  1  0.68149606  0.33088473  0.83459977  1
  Na  Na3  1  0.64938967  0.33088473  0.33459977  1
  Na  Na4  1  0.33811399  0.68327521  0.16801300  1
  Na  Na5  1  0.34516021  0.68327521  0.66801300  1
  Al  Al0  1  0.99483597  0.99300844  0.64606411  1
  Al  Al1  1  0.99817247  0.99300844  0.14606411  1
  Al  Al2  1  0.68457367  0.32536672  0.97825793  1
  Al  Al3  1  0.64079405  0.32536672  0.47825793  1
  Al  Al4  1  0.33703068  0.67016769  0.31183484  1
  Al  Al5  1  0.33313601  0.67016769  0.81183484  1
  Si  Si0  1  0.28411217  0.99229172  0.24774374  1
  Si  Si1  1  0.70817955  0.99229172  0.74774374  1
  Si  Si2  1  0.36802700  0.03917638  0.58089085  1
  Si  Si3  1  0.67115038  0.03917638  0.08089085  1
  Si  Si4  1  0.05223184  0.38998739  0.91478167  1
  Si  Si5  1  0.33775455  0.38998739  0.41478167  1
  Ge  Ge0  1  0.02533332  0.02053486  0.35333047  1
  Ge  Ge1  1  0.99520155  0.02053486  0.85333047  1
  Ge  Ge2  1  0.65846555  0.30377772  0.68541973  1
  Ge  Ge3  1  0.64531318  0.30377772  0.18541973  1
  Ge  Ge4  1  0.33663037  0.66718833  0.01855802  1
  Ge  Ge5  1  0.33055696  0.66718833  0.51855802  1
  S  S0  1  0.71611410  0.71352888  0.24957712  1
  S  S1  1  -0.00000943  0.28901424  0.24893523  1
  S  S2  1  0.28902367  0.28901424  0.74893523  1
  S  S3  1  0.99741478  0.71352888  0.74957712  1
  S  S4  1  0.95077946  0.33260849  0.58195890  1
  S  S5  1  0.66778525  0.61566721  0.58392639  1
  S  S6  1  0.94788296  0.61566721  0.08392639  1
  S  S7  1  0.38183002  0.33260849  0.08195890  1
  S  S8  1  0.62349783  0.66333448  0.91601932  1
  S  S9  1  0.33048787  0.95693813  0.91505433  1
  S  S10  1  0.62644926  0.95693813  0.41505433  1
  S  S11  1  0.03983565  0.66333448  0.41601932  1
  O  O0  1  0.20828979  0.04156152  0.31072616  1
  O  O1  1  0.82644720  0.79373903  0.30676977  1
  O  O2  1  0.95334487  0.17259306  0.30549544  1
  O  O3  1  0.21924819  0.17259306  0.80549544  1
  O  O4  1  0.96729183  0.79373903  0.80676977  1
  O  O5  1  0.83327173  0.04156152  0.81072616  1
  O  O6  1  0.80458667  0.96605731  0.68889629  1
  O  O7  1  0.17718399  0.20168765  0.69479383  1
  O  O8  1  0.03126738  0.82682285  0.69526341  1
  O  O9  1  0.79555547  0.82682285  0.19526341  1
  O  O10  1  0.02450366  0.20168765  0.19479383  1
  O  O11  1  0.16147064  0.96605731  0.18889629  1
  O  O12  1  0.87870157  0.37577554  0.63929355  1
  O  O13  1  0.49507743  0.11382769  0.64357158  1
  O  O14  1  0.63661702  0.50414469  0.64029690  1
  O  O15  1  0.86752867  0.50414469  0.14029690  1
  O  O16  1  0.61875125  0.11382769  0.14357158  1
  O  O17  1  0.49707497  0.37577554  0.13929355  1
  O  O18  1  0.46983698  0.31077523  0.02755427  1
  O  O19  1  0.83554885  0.53517887  0.02869855  1
  O  O20  1  0.70005493  0.16346233  0.02291767  1
  O  O21  1  0.46340840  0.16346233  0.52291767  1
  O  O22  1  0.69963102  0.53517887  0.52869855  1
  O  O23  1  0.84093924  0.31077523  0.52755427  1
  O  O24  1  0.55461053  0.71290733  0.97231187  1
  O  O25  1  0.17721672  0.47137316  0.97838307  1
  O  O26  1  0.29562024  0.84675323  0.97189121  1
  O  O27  1  0.55113199  0.84675323  0.47189121  1
  O  O28  1  0.29415544  0.47137316  0.47838307  1
  O  O29  1  0.15829579  0.71290733  0.47231187  1
  O  O30  1  0.12412306  0.63843465  0.36145846  1
  O  O31  1  0.50861425  0.87887901  0.36126986  1
  O  O32  1  0.36020675  0.51055230  0.35641418  1
  O  O33  1  0.15034455  0.51055230  0.85641418  1
  O  O34  1  0.37026376  0.87887901  0.86126986  1
  O  O35  1  0.51431059  0.63843465  0.86145846  1
  O  O36  1  0.00914209  0.82360803  0.41061824  1
  O  O37  1  0.80568311  0.96446110  0.40747884  1
  O  O38  1  0.14651716  0.18417503  0.41262105  1
  O  O39  1  0.03765787  0.18417503  0.91262105  1
  O  O40  1  0.15877799  0.96446110  0.90747884  1
  O  O41  1  0.81446594  0.82360803  0.91061824  1
  O  O42  1  0.96400690  0.16607975  0.58892199  1
  O  O43  1  0.17006438  0.01752689  0.59307761  1
  O  O44  1  0.83059234  0.79966153  0.58974089  1
  O  O45  1  0.96906918  0.79966153  0.08974089  1
  O  O46  1  0.84746251  0.01752689  0.09307761  1
  O  O47  1  0.20207286  0.16607975  0.08892199  1
  O  O48  1  0.69810965  0.18546124  0.74487918  1
  O  O49  1  0.47889201  0.31890258  0.74357041  1
  O  O50  1  0.82726429  0.53098541  0.74265670  1
  O  O51  1  0.70372212  0.53098541  0.24265670  1
  O  O52  1  0.84001157  0.31890258  0.24357041  1
  O  O53  1  0.48735259  0.18546124  0.24487918  1
  O  O54  1  0.63006302  0.49407178  0.92591615  1
  O  O55  1  0.85216769  0.36871650  0.92155965  1
  O  O56  1  0.48796445  0.14436701  0.92358445  1
  O  O57  1  0.65640355  0.14436701  0.42358445  1
  O  O58  1  0.51654981  0.36871650  0.42155965  1
  O  O59  1  0.86400976  0.49407178  0.42591615  1
  O  O60  1  0.36022888  0.49779100  0.07902149  1
  O  O61  1  0.13183781  0.63278359  0.07893333  1
  O  O62  1  0.48019319  0.83453345  0.07295466  1
  O  O63  1  0.35433927  0.83453345  0.57295466  1
  O  O64  1  0.50094478  0.63278359  0.57893333  1
  O  O65  1  0.13756112  0.49779100  0.57902149  1
  O  O66  1  0.30970803  0.81697920  0.25884905  1
  O  O67  1  0.53221846  0.69143404  0.25602331  1
  O  O68  1  0.16717368  0.46770813  0.25670874  1
  O  O69  1  0.30053345  0.46770813  0.75670874  1
  O  O70  1  0.15921457  0.69143404  0.75602331  1
  O  O71  1  0.50727017  0.81697920  0.75884905  1
loop_
_geom_bond_atom_site_label_1
_geom_bond_atom_site_label_2
_geom_bond_distance
_geom_bond_site_symmetry_2
Na0 O43 2.360243 1_555
Na0 O38 2.368930 1_555
Na0 O42 2.473613 1_455
Na0 O36 2.508910 1_545
Na0 O44 2.560586 1_445
Na0 O37 2.629046 1_445
Na1 O46 2.360243 1_555
Na1 O39 2.368930 1_654
Na1 O47 2.473614 1_655
Na1 O41 2.508910 1_544
Na1 O45 2.560586 1_545
Na1 O40 2.629046 1_644
Na2 O55 2.309622 1_555
Na2 O48 2.347842 1_555
Na2 O50 2.525176 1_555
Na2 O56 2.530581 1_555
Na2 O54 2.574482 1_555
Na2 O49 2.594788 1_555
Na3 O58 2.309622 1_555
Na3 O53 2.347842 1_555
Na3 O51 2.525176 1_555
Na3 O57 2.530581 1_555
Na3 O59 2.574482 1_555
Na3 O52 2.594788 1_555
Na4 O66 2.348695 1_555
Na4 O62 2.429326 1_555
Na4 O61 2.502596 1_555
Na4 O67 2.507825 1_555
Na4 O60 2.552072 1_555
Na4 O68 2.563736 1_555
Na5 O71 2.348695 1_555
Na5 O63 2.429326 1_555
Na5 O64 2.502596 1_555
Na5 O70 2.507825 1_555
Na5 O65 2.552072 1_555
Na5 O69 2.563736 1_555
Al0 O6 1.774117 1_555
Al0 O43 1.809421 1_665
Al0 O8 1.914190 1_655
Al0 O44 1.948083 1_555
Al0 O7 1.961874 1_665
Al0 O42 2.039964 1_565
Al1 O11 1.774117 1_655
Al1 O46 1.809421 1_565
Al1 O9 1.914190 1_555
Al1 O45 1.948083 1_555
Al1 O10 1.961874 1_665
Al1 O47 2.039964 1_665
Al2 O20 1.739972 1_556
Al2 O55 1.779096 1_555
Al2 O19 1.916249 1_556
Al2 O56 1.985459 1_555
Al2 O54 2.054174 1_555
Al2 O18 2.060088 1_556
Al3 O21 1.739972 1_555
Al3 O58 1.779096 1_555
Al3 O22 1.916249 1_555
Al3 O57 1.985459 1_555
Al3 O59 2.054174 1_555
Al3 O23 2.060088 1_555
Al4 O32 1.754367 1_555
Al4 O66 1.797979 1_555
Al4 O31 1.941889 1_555
Al4 O68 1.982789 1_555
Al4 O67 1.986837 1_555
Al4 O30 2.001092 1_555
Al5 O33 1.754367 1_555
Al5 O71 1.797979 1_555
Al5 O34 1.941889 1_555
Al5 O69 1.982789 1_555
Al5 O70 1.986838 1_555
Al5 O35 2.001092 1_555
Ge0 O0 1.736276 1_555
Ge0 O38 1.785146 1_555
Ge0 O2 1.975593 1_455
Ge0 O36 2.035124 1_545
Ge0 O37 2.048584 1_445
Ge0 O1 2.062387 1_445
Ge1 O5 1.736276 1_555
Ge1 O39 1.785146 1_655
Ge1 O3 1.975593 1_655
Ge1 O41 2.035124 1_545
Ge1 O40 2.048584 1_645
Ge1 O4 2.062387 1_545
Ge2 O13 1.749554 1_555
Ge2 O48 1.775526 1_555
Ge2 O12 1.929279 1_555
Ge2 O49 2.031259 1_555
Ge2 O14 2.046603 1_555
Ge2 O50 2.117653 1_555
Ge3 O16 1.749554 1_555
Ge3 O53 1.775526 1_555
Ge3 O17 1.929279 1_555
Ge3 O52 2.031259 1_555
Ge3 O15 2.046603 1_555
Ge3 O51 2.117653 1_555
Ge4 O25 1.746770 1_554
Ge4 O62 1.769624 1_555
Ge4 O24 1.963233 1_554
Ge4 O26 1.998506 1_554
Ge4 O60 2.034085 1_555
Ge4 O61 2.079332 1_555
Ge5 O28 1.746770 1_555
Ge5 O63 1.769624 1_555
Ge5 O29 1.963233 1_555
Ge5 O27 1.998506 1_555
Ge5 O65 2.034085 1_555
Ge5 O64 2.079332 1_555
O0 Si0 1.655717 1_545
O1 S0 1.499325 1_555
O2 S1 1.510147 1_655
O3 S2 1.510147 1_555
O4 S3 1.499325 1_555
O5 Si1 1.655717 1_545
O6 Si1 1.596152 1_555
O7 S2 1.458596 1_555
O8 S3 1.466040 1_455
O9 S0 1.466040 1_555
O10 S1 1.458596 1_555
O11 Si0 1.596152 1_555
O12 S4 1.514392 1_555
O13 Si2 1.655250 1_555
O14 S5 1.497950 1_555
O15 S6 1.497950 1_555
O16 Si3 1.655250 1_555
O17 S7 1.514392 1_555
O18 S7 1.462449 1_555
O19 S6 1.470937 1_555
O20 Si3 1.590388 1_555
O21 Si2 1.590388 1_555
O22 S5 1.470937 1_555
O23 S4 1.462449 1_555
O24 S8 1.505753 1_555
O25 Si4 1.668085 1_555
O26 S9 1.496486 1_555
O27 S10 1.496486 1_555
O28 Si5 1.668085 1_555
O29 S11 1.505753 1_555
O30 S11 1.457243 1_555
O31 S10 1.463099 1_555
O32 Si5 1.589298 1_555
O33 Si4 1.589298 1_555
O34 S9 1.463099 1_555
O35 S8 1.457243 1_555
O36 S11 1.500409 1_555
O37 S10 1.491198 1_555
O38 Si5 1.673069 1_555
O39 Si4 1.673073 1_555
O40 S9 1.491190 1_555
O41 S8 1.500414 1_555
O42 S4 1.468955 1_555
O43 Si2 1.609680 1_555
O44 S5 1.470549 1_555
O45 S6 1.470553 1_555
O46 Si3 1.609672 1_555
O47 S7 1.468959 1_555
O48 Si1 1.670666 1_545
O49 S2 1.496950 1_555
O50 S3 1.492176 1_555
O51 S0 1.492180 1_555
O52 S1 1.496941 1_655
O53 Si0 1.670671 1_545
O54 S8 1.469981 1_555
O55 Si4 1.613103 1_655
O56 S9 1.476373 1_545
O57 S10 1.476367 1_545
O58 Si5 1.613119 1_555
O59 S11 1.469972 1_655
O60 S7 1.491043 1_555
O61 S6 1.489565 1_455
O62 Si3 1.673977 1_565
O63 Si2 1.673969 1_565
O64 S5 1.489582 1_555
O65 S4 1.491033 1_455
O66 Si0 1.614099 1_555
O67 S0 1.474472 1_555
O68 S1 1.465260 1_555
O69 S2 1.465264 1_555
O70 S3 1.474463 1_455
O71 Si1 1.614104 1_555
