# generated using pymatgen
data_K2Te4O9
_symmetry_space_group_name_H-M   'P 1'
_cell_length_a   17.82754693
_cell_length_b   7.56649029
_cell_length_c   7.97538777
_cell_angle_alpha   72.71514028
_cell_angle_beta   90.00000000
_cell_angle_gamma   90.00000000
_symmetry_Int_Tables_number   1
_chemical_formula_structural   K2Te4O9
_chemical_formula_sum   'K8 Te16 O36'
_cell_volume   1027.23115466
_cell_formula_units_Z   4
loop_
 _symmetry_equiv_pos_site_id
 _symmetry_equiv_pos_as_xyz
  1  'x, y, z'
loop_
 _atom_site_type_symbol
 _atom_site_label
 _atom_site_symmetry_multiplicity
 _atom_site_fract_x
 _atom_site_fract_y
 _atom_site_fract_z
 _atom_site_occupancy
  K  K0  1  0.91074603  0.87430149  0.63558472  1
  K  K1  1  0.41074603  0.12569851  0.86441528  1
  K  K2  1  0.08925397  0.12569851  0.36441528  1
  K  K3  1  0.58925397  0.87430149  0.13558472  1
  K  K4  1  0.75503448  0.15820378  0.87358249  1
  K  K5  1  0.25503448  0.84179622  0.62641751  1
  K  K6  1  0.24496552  0.84179622  0.12641751  1
  K  K7  1  0.74496552  0.15820378  0.37358249  1
  Te  Te0  1  0.74092147  0.61995808  0.95751013  1
  Te  Te1  1  0.24092147  0.38004192  0.54248987  1
  Te  Te2  1  0.25907853  0.38004192  0.04248987  1
  Te  Te3  1  0.75907853  0.61995808  0.45751013  1
  Te  Te4  1  0.92232825  0.36014730  0.64942014  1
  Te  Te5  1  0.42232825  0.63985270  0.85057986  1
  Te  Te6  1  0.07767175  0.63985270  0.35057986  1
  Te  Te7  1  0.57767175  0.36014730  0.14942014  1
  Te  Te8  1  0.90840368  0.82616282  0.17262706  1
  Te  Te9  1  0.40840368  0.17383718  0.32737294  1
  Te  Te10  1  0.09159632  0.17383718  0.82737294  1
  Te  Te11  1  0.59159632  0.82616282  0.67262706  1
  Te  Te12  1  0.91792222  0.39238387  0.09152441  1
  Te  Te13  1  0.41792222  0.60761613  0.40847559  1
  Te  Te14  1  0.08207778  0.60761613  0.90847559  1
  Te  Te15  1  0.58207778  0.39238387  0.59152441  1
  O  O0  1  0.79849460  0.79772331  0.01707712  1
  O  O1  1  0.29849460  0.20227669  0.48292288  1
  O  O2  1  0.20150540  0.20227669  0.98292288  1
  O  O3  1  0.70150540  0.79772331  0.51707712  1
  O  O4  1  0.82507901  0.55396314  0.65152644  1
  O  O5  1  0.32507901  0.44603686  0.84847356  1
  O  O6  1  0.17492099  0.44603686  0.34847356  1
  O  O7  1  0.67492099  0.55396314  0.15152644  1
  O  O8  1  0.85508778  0.21029667  0.58494018  1
  O  O9  1  0.35508778  0.78970333  0.91505982  1
  O  O10  1  0.14491222  0.78970333  0.41505982  1
  O  O11  1  0.64491222  0.21029667  0.08494018  1
  O  O12  1  0.91124627  0.56319167  0.26207992  1
  O  O13  1  0.41124627  0.43680833  0.23792008  1
  O  O14  1  0.00651405  0.16421545  0.66984778  1
  O  O15  1  0.08875373  0.43680833  0.73792008  1
  O  O16  1  0.84014004  0.87203096  0.33222035  1
  O  O17  1  0.34014004  0.12796904  0.16777965  1
  O  O18  1  0.15985996  0.12796904  0.66777965  1
  O  O19  1  0.65985996  0.87203096  0.83222035  1
  O  O20  1  0.91022760  0.25926750  0.89979099  1
  O  O21  1  0.41022760  0.74073250  0.60020901  1
  O  O22  1  0.08977240  0.74073250  0.10020901  1
  O  O23  1  0.58977240  0.25926750  0.39979099  1
  O  O24  1  0.55646082  0.60944032  0.41909083  1
  O  O25  1  0.05646082  0.39055968  0.08090917  1
  O  O26  1  0.44353918  0.39055968  0.58090917  1
  O  O27  1  0.94353918  0.60944032  0.91909083  1
  O  O28  1  0.69084006  0.40746401  0.58106788  1
  O  O29  1  0.19084006  0.59253599  0.91893212  1
  O  O30  1  0.30915994  0.59253599  0.41893212  1
  O  O31  1  0.80915994  0.40746401  0.08106788  1
  O  O32  1  0.49348595  0.16421545  0.16984778  1
  O  O33  1  0.99348595  0.83578455  0.33015222  1
  O  O34  1  0.50651405  0.83578455  0.83015222  1
  O  O35  1  0.58875373  0.56319167  0.76207992  1
loop_
_geom_bond_atom_site_label_1
_geom_bond_atom_site_label_2
_geom_bond_distance
_geom_bond_site_symmetry_2
K0 O27 2.603419 1_555
K0 O8 2.645904 1_565
K0 O16 2.731873 1_555
K0 O4 2.835571 1_555
K0 O14 2.856187 1_665
K0 O33 2.935370 1_555
K1 O26 2.603419 1_555
K1 O9 2.645904 1_545
K1 O17 2.731873 1_556
K1 O5 2.835571 1_555
K1 O34 2.856187 1_545
K1 O32 2.935370 1_556
K2 O25 2.603419 1_555
K2 O10 2.645904 1_545
K2 O18 2.731873 1_555
K2 O6 2.835571 1_555
K2 O33 2.856187 1_445
K2 O14 2.935370 1_555
K3 O24 2.603419 1_555
K3 O11 2.645904 1_565
K3 O19 2.731873 1_554
K3 O7 2.835571 1_555
K3 O32 2.856187 1_565
K3 O34 2.935370 1_554
K4 O11 2.691808 1_556
K4 O0 2.737648 1_546
K4 O28 2.773927 1_555
K4 O8 2.845545 1_555
K4 O19 2.846191 1_545
K4 O20 2.894501 1_555
K4 O31 3.013480 1_556
K4 O4 3.242123 1_555
K5 O10 2.691808 1_555
K5 O1 2.737648 1_565
K5 O29 2.773927 1_555
K5 O9 2.845545 1_555
K5 O18 2.846191 1_565
K5 O21 2.894501 1_555
K5 O30 3.013480 1_555
K5 O5 3.242123 1_555
K6 O9 2.691808 1_554
K6 O2 2.737648 1_564
K6 O30 2.773927 1_555
K6 O10 2.845545 1_555
K6 O17 2.846191 1_565
K6 O22 2.894501 1_555
K6 O29 3.013480 1_554
K6 O6 3.242123 1_555
K7 O8 2.691808 1_555
K7 O3 2.737648 1_545
K7 O31 2.773927 1_555
K7 O11 2.845545 1_555
K7 O16 2.846191 1_545
K7 O23 2.894501 1_555
K7 O28 3.013480 1_555
K7 O7 3.242123 1_555
O0 Te0 1.862275 1_554
O0 Te8 2.362889 1_555
O1 Te1 1.862275 1_555
O1 Te9 2.362889 1_555
O2 Te2 1.862275 1_556
O2 Te10 2.362889 1_555
O3 Te3 1.862275 1_555
O3 Te11 2.362889 1_555
O4 Te3 1.889167 1_555
O4 Te4 2.274056 1_555
O5 Te2 1.889167 1_556
O5 Te5 2.274056 1_555
O6 Te1 1.889167 1_555
O6 Te6 2.274056 1_555
O7 Te0 1.889167 1_554
O7 Te7 2.274056 1_555
O8 Te4 1.825790 1_555
O9 Te5 1.825790 1_555
O10 Te6 1.825790 1_555
O11 Te7 1.825790 1_555
O12 Te8 1.904511 1_555
O12 Te12 2.139967 1_555
O13 Te9 1.904511 1_555
O13 Te13 2.139967 1_555
O14 Te10 1.984618 1_555
O14 Te4 2.081670 1_455
O15 Te10 1.904511 1_555
O15 Te14 2.139967 1_555
O16 Te8 1.866560 1_555
O16 Te3 2.364771 1_555
O17 Te9 1.866560 1_555
O17 Te2 2.364771 1_555
O18 Te10 1.866560 1_555
O18 Te1 2.364771 1_555
O19 Te11 1.866560 1_555
O19 Te0 2.364771 1_555
O20 Te4 1.926310 1_555
O20 Te12 2.070475 1_556
O21 Te5 1.926310 1_555
O21 Te13 2.070475 1_555
O22 Te6 1.926310 1_555
O22 Te14 2.070475 1_554
O23 Te7 1.926310 1_555
O23 Te15 2.070475 1_555
O24 Te15 1.858755 1_555
O24 Te13 2.471433 1_555
O25 Te14 1.858755 1_554
O25 Te12 2.471433 1_455
O26 Te13 1.858755 1_555
O26 Te15 2.471433 1_555
O27 Te12 1.858755 1_556
O27 Te14 2.471433 1_655
O28 Te15 1.942654 1_555
O28 Te3 2.023512 1_555
O29 Te14 1.942654 1_555
O29 Te2 2.023512 1_556
O30 Te13 1.942654 1_555
O30 Te1 2.023512 1_555
O31 Te12 1.942654 1_555
O31 Te0 2.023512 1_554
O32 Te9 1.984618 1_555
O32 Te7 2.081670 1_555
O33 Te8 1.984618 1_555
O33 Te6 2.081670 1_655
O34 Te11 1.984618 1_555
O34 Te5 2.081670 1_555
O35 Te11 1.904511 1_555
O35 Te15 2.139967 1_555
