# generated using pymatgen
data_Na5Hf2Ga2SiP5O24
_symmetry_space_group_name_H-M   'P 1'
_cell_length_a   8.85748691
_cell_length_b   8.83931340
_cell_length_c   22.31436425
_cell_angle_alpha   90.03754422
_cell_angle_beta   89.88064671
_cell_angle_gamma   119.90247762
_symmetry_Int_Tables_number   1
_chemical_formula_structural   Na5Hf2Ga2SiP5O24
_chemical_formula_sum   'Na15 Hf6 Ga6 Si3 P15 O72'
_cell_volume   1514.49958753
_cell_formula_units_Z   3
loop_
 _symmetry_equiv_pos_site_id
 _symmetry_equiv_pos_as_xyz
  1  'x, y, z'
loop_
 _atom_site_type_symbol
 _atom_site_label
 _atom_site_symmetry_multiplicity
 _atom_site_fract_x
 _atom_site_fract_y
 _atom_site_fract_z
 _atom_site_occupancy
  Na  Na0  1  0.00373754  0.63610599  0.25277690  1
  Na  Na1  1  0.63210401  0.64201577  0.75312704  1
  Na  Na2  1  0.36490669  0.99547292  0.75361317  1
  Na  Na3  1  0.66357056  0.97010680  0.58503074  1
  Na  Na4  1  0.29588290  0.96974868  0.08441100  1
  Na  Na5  1  0.67603948  0.70020848  0.08298269  1
  Na  Na6  1  0.02761782  0.33062728  0.08568412  1
  Na  Na7  1  0.96707492  0.29922597  0.41520633  1
  Na  Na8  1  0.33697207  0.03525490  0.41762014  1
  Na  Na9  1  0.00376134  0.98911562  0.49814629  1
  Na  Na10  1  0.00020885  0.99623196  0.99887605  1
  Na  Na11  1  0.67816105  0.33045386  0.84058907  1
  Na  Na12  1  0.65670194  0.33532364  0.33698269  1
  Na  Na13  1  0.34131446  0.66722203  0.17419891  1
  Na  Na14  1  0.31659614  0.65397377  0.66980949  1
  Hf  Hf0  1  0.99671811  0.00270462  0.85624208  1
  Hf  Hf1  1  0.00491844  0.00055153  0.64648701  1
  Hf  Hf2  1  0.66902781  0.32857475  0.68620233  1
  Hf  Hf3  1  0.66533861  0.33028487  0.18937992  1
  Hf  Hf4  1  0.33056783  0.66713022  0.01620273  1
  Hf  Hf5  1  0.33188309  0.66617896  0.51821502  1
  Ga  Ga0  1  0.99484996  0.99579637  0.34998695  1
  Ga  Ga1  1  0.99775754  0.99405738  0.15282730  1
  Ga  Ga2  1  0.67237110  0.34186387  0.97933357  1
  Ga  Ga3  1  0.66188387  0.33974566  0.48203478  1
  Ga  Ga4  1  0.34108227  0.66603961  0.31560858  1
  Ga  Ga5  1  0.33418968  0.66811854  0.81843126  1
  Si  Si0  1  0.69945243  0.99487278  0.75101673  1
  Si  Si1  1  0.37398454  0.04529083  0.57898329  1
  Si  Si2  1  0.95460677  0.62787027  0.08370410  1
  P  P0  1  0.28617555  0.99467506  0.25290102  1
  P  P1  1  0.70664508  0.71631198  0.25090034  1
  P  P2  1  0.00726575  0.28933509  0.25127562  1
  P  P3  1  0.28969077  0.29877418  0.75159524  1
  P  P4  1  0.00507450  0.70680421  0.75245635  1
  P  P5  1  0.95602688  0.33436342  0.57929276  1
  P  P6  1  0.66817773  0.62227400  0.58167750  1
  P  P7  1  0.67182184  0.04687760  0.08183791  1
  P  P8  1  0.37519824  0.32818044  0.08234265  1
  P  P9  1  0.62401848  0.65673971  0.91563372  1
  P  P10  1  0.03681367  0.37918350  0.91560438  1
  P  P11  1  0.34441526  0.97060082  0.91575461  1
  P  P12  1  0.62989860  0.95953905  0.41389425  1
  P  P13  1  0.33545175  0.37349978  0.41282558  1
  P  P14  1  0.03511570  0.66532066  0.41312977  1
  O  O0  1  0.20279962  0.02311375  0.30895603  1
  O  O1  1  0.83113476  0.79829562  0.30394473  1
  O  O2  1  0.97829095  0.18010159  0.30780670  1
  O  O3  1  0.21030694  0.17507353  0.80522132  1
  O  O4  1  0.97384815  0.79499881  0.80655498  1
  O  O5  1  0.82757815  0.02352528  0.80651231  1
  O  O6  1  0.78277209  0.96081454  0.68998573  1
  O  O7  1  0.17996548  0.20999573  0.69525105  1
  O  O8  1  0.03771920  0.82442309  0.69635611  1
  O  O9  1  0.78324209  0.81757703  0.19149451  1
  O  O10  1  0.02829297  0.20605474  0.19307194  1
  O  O11  1  0.17592633  0.96359318  0.19505069  1
  O  O12  1  0.87189157  0.36194432  0.63567561  1
  O  O13  1  0.49212554  0.12849159  0.63967186  1
  O  O14  1  0.64425732  0.52112036  0.64035567  1
  O  O15  1  0.87514174  0.50615951  0.14395356  1
  O  O16  1  0.63014348  0.12382710  0.13772501  1
  O  O17  1  0.49169075  0.36310064  0.13812222  1
  O  O18  1  0.45413270  0.28912840  0.02762884  1
  O  O19  1  0.82495990  0.53802382  0.02779839  1
  O  O20  1  0.70335770  0.16233733  0.02715404  1
  O  O21  1  0.46543897  0.15651940  0.51890008  1
  O  O22  1  0.69900232  0.53876012  0.52674982  1
  O  O23  1  0.84535759  0.30393019  0.52271459  1
  O  O24  1  0.53985773  0.68425396  0.97306846  1
  O  O25  1  0.14399053  0.45941571  0.97441118  1
  O  O26  1  0.31590732  0.85554560  0.97285998  1
  O  O27  1  0.54925919  0.85232278  0.47199427  1
  O  O28  1  0.30169986  0.45636335  0.46876077  1
  O  O29  1  0.15767418  0.69842289  0.46752647  1
  O  O30  1  0.11592672  0.62894897  0.35684414  1
  O  O31  1  0.50309549  0.87091048  0.36145849  1
  O  O32  1  0.36117858  0.48754826  0.35784307  1
  O  O33  1  0.13143329  0.49460573  0.86158236  1
  O  O34  1  0.36477978  0.88152676  0.85920332  1
  O  O35  1  0.51596665  0.63842099  0.85923800  1
  O  O36  1  0.02522690  0.83480690  0.40860623  1
  O  O37  1  0.81447679  0.98212434  0.40811324  1
  O  O38  1  0.16808447  0.18840796  0.40878057  1
  O  O39  1  0.02505961  0.19818644  0.91248681  1
  O  O40  1  0.17707680  0.98395165  0.91261286  1
  O  O41  1  0.80703926  0.82296033  0.91286976  1
  O  O42  1  0.96589094  0.16519947  0.58694898  1
  O  O43  1  0.18064468  0.02110016  0.58483286  1
  O  O44  1  0.82631258  0.81020063  0.58629451  1
  O  O45  1  0.98066617  0.82532460  0.09128494  1
  O  O46  1  0.83493907  0.02759150  0.09027565  1
  O  O47  1  0.18912244  0.17098726  0.09098345  1
  O  O48  1  0.67332527  0.16586528  0.74842711  1
  O  O49  1  0.47542842  0.32126340  0.74421070  1
  O  O50  1  0.83531408  0.53094172  0.74529053  1
  O  O51  1  0.69218885  0.53160264  0.24564971  1
  O  O52  1  0.84165533  0.31179365  0.24671479  1
  O  O53  1  0.46913552  0.15790231  0.24674921  1
  O  O54  1  0.63778922  0.49120006  0.92059283  1
  O  O55  1  0.85560457  0.35898310  0.92128337  1
  O  O56  1  0.50846984  0.14883370  0.92310315  1
  O  O57  1  0.65056031  0.14530368  0.41875711  1
  O  O58  1  0.49682523  0.35004889  0.41884829  1
  O  O59  1  0.85645010  0.49802341  0.42226084  1
  O  O60  1  0.35986015  0.49629291  0.07708346  1
  O  O61  1  0.15131944  0.65000313  0.07836043  1
  O  O62  1  0.50998761  0.85987470  0.07680011  1
  O  O63  1  0.36376030  0.85357644  0.57638923  1
  O  O64  1  0.50480535  0.64331018  0.57575335  1
  O  O65  1  0.13991847  0.49329015  0.57541027  1
  O  O66  1  0.30046697  0.82631809  0.25777939  1
  O  O67  1  0.52490517  0.69602541  0.25756148  1
  O  O68  1  0.16591520  0.47756904  0.25536050  1
  O  O69  1  0.31079849  0.48022366  0.75805119  1
  O  O70  1  0.16773310  0.68943667  0.75827906  1
  O  O71  1  0.50606004  0.82039997  0.75758173  1
loop_
_geom_bond_atom_site_label_1
_geom_bond_atom_site_label_2
_geom_bond_distance
_geom_bond_site_symmetry_2
Na0 O66 2.311318 1_555
Na0 O51 2.440021 1_455
Na0 O68 2.457268 1_555
Na0 O52 2.488818 1_455
Na0 O30 2.540973 1_555
Na0 O15 2.686432 1_455
Na0 O1 2.805747 1_455
Na0 O11 2.821307 1_555
Na1 O71 2.344591 1_555
Na1 O50 2.448418 1_555
Na1 O49 2.466048 1_555
Na1 O69 2.469341 1_555
Na1 O35 2.573525 1_555
Na1 O14 2.756081 1_555
Na1 O6 2.820434 1_555
Na1 O4 2.888664 1_555
Na2 O48 2.375124 1_565
Na2 O70 2.380738 1_555
Na2 O71 2.428082 1_555
Na2 O49 2.546471 1_565
Na2 O34 2.562812 1_555
Na2 O13 2.790639 1_565
Na2 O3 2.807170 1_565
Na2 O8 2.821567 1_555
Na3 O63 2.329118 1_555
Na3 O42 2.354244 1_565
Na3 O44 2.471486 1_555
Na3 O64 2.512961 1_555
Na3 O6 2.589115 1_555
Na3 O27 2.725338 1_555
Na3 O13 2.804023 1_565
Na3 O23 2.914126 1_565
Na4 O47 2.399189 1_565
Na4 O45 2.427619 1_455
Na4 O61 2.457202 1_555
Na4 O62 2.530490 1_555
Na4 O11 2.675583 1_555
Na4 O26 2.723960 1_554
Na4 O18 2.755341 1_565
Na4 O16 2.833394 1_565
Na5 O45 2.358896 1_555
Na5 O60 2.465265 1_555
Na5 O62 2.498990 1_555
Na5 O46 2.514186 1_565
Na5 O9 2.620129 1_555
Na5 O19 2.681014 1_555
Na5 O24 2.707898 1_554
Na5 O17 2.864355 1_555
Na6 O46 2.353685 1_455
Na6 O47 2.462764 1_555
Na6 O61 2.472390 1_555
Na6 O60 2.557891 1_555
Na6 O10 2.639096 1_555
Na6 O25 2.710485 1_554
Na6 O20 2.814424 1_455
Na6 O15 2.828676 1_455
Na7 O59 2.405935 1_555
Na7 O38 2.426458 1_655
Na7 O57 2.431718 1_555
Na7 O37 2.435459 1_545
Na7 O23 2.636843 1_555
Na7 O2 2.638580 1_555
Na7 O28 2.837281 1_655
Na7 O30 2.845222 1_655
Na8 O58 2.412474 1_555
Na8 O36 2.434801 1_545
Na8 O57 2.443006 1_555
Na8 O38 2.475905 1_555
Na8 O21 2.518488 1_555
Na8 O0 2.681025 1_555
Na8 O29 2.812384 1_545
Na8 O31 2.822613 1_545
Na9 O43 2.417976 1_565
Na9 O36 2.478334 1_555
Na9 O44 2.520575 1_455
Na9 O38 2.575728 1_565
Na9 O37 2.600294 1_455
Na9 O42 2.641112 1_465
Na10 O45 2.511192 1_456
Na10 O40 2.515556 1_555
Na10 O41 2.520623 1_455
Na10 O39 2.561688 1_565
Na10 O46 2.602082 1_466
Na10 O47 2.615995 1_566
Na11 O55 2.322105 1_555
Na11 O56 2.411039 1_555
Na11 O54 2.415463 1_555
Na11 O48 2.506407 1_555
Na11 O50 2.670838 1_555
Na11 O49 2.779700 1_555
Na12 O58 2.352043 1_555
Na12 O57 2.462999 1_555
Na12 O59 2.508624 1_555
Na12 O53 2.585698 1_555
Na12 O51 2.592441 1_555
Na12 O52 2.666411 1_555
Na13 O67 2.401802 1_555
Na13 O68 2.428877 1_555
Na13 O66 2.467394 1_555
Na13 O61 2.681032 1_555
Na13 O60 2.692149 1_555
Na13 O62 2.703755 1_555
Na14 O70 2.476798 1_555
Na14 O69 2.482642 1_555
Na14 O71 2.522870 1_555
Na14 O65 2.587885 1_555
Na14 O63 2.626664 1_555
Na14 O64 2.708281 1_555
Hf0 O5 1.947267 1_555
Hf0 O39 2.046928 1_655
Hf0 O4 2.066057 1_545
Hf0 O41 2.067858 1_545
Hf0 O3 2.077512 1_655
Hf0 O40 2.105824 1_645
Hf1 O43 2.014433 1_555
Hf1 O7 2.039089 1_555
Hf1 O8 2.049664 1_545
Hf1 O6 2.059272 1_445
Hf1 O44 2.118904 1_445
Hf1 O42 2.123378 1_455
Hf2 O13 1.975479 1_555
Hf2 O12 2.012576 1_555
Hf2 O48 2.013791 1_555
Hf2 O14 2.089734 1_555
Hf2 O50 2.117951 1_555
Hf2 O49 2.121466 1_555
Hf3 O15 2.002865 1_555
Hf3 O16 2.046389 1_555
Hf3 O17 2.051994 1_555
Hf3 O53 2.081782 1_555
Hf3 O52 2.089413 1_555
Hf3 O51 2.091928 1_555
Hf4 O26 1.986027 1_554
Hf4 O25 1.987638 1_554
Hf4 O24 2.024561 1_554
Hf4 O61 2.054001 1_555
Hf4 O62 2.136127 1_555
Hf4 O60 2.141971 1_555
Hf5 O63 2.010248 1_555
Hf5 O29 2.046407 1_555
Hf5 O28 2.057448 1_555
Hf5 O65 2.063528 1_555
Hf5 O27 2.076896 1_555
Hf5 O64 2.086276 1_555
Ga0 O1 1.919857 1_555
Ga0 O2 1.949952 1_565
Ga0 O0 1.959348 1_665
Ga0 O37 2.012090 1_555
Ga0 O36 2.047948 1_655
Ga0 O38 2.091665 1_665
Ga1 O9 1.956494 1_555
Ga1 O11 1.970014 1_655
Ga1 O10 1.970946 1_665
Ga1 O45 1.976458 1_555
Ga1 O46 2.133332 1_565
Ga1 O47 2.138550 1_665
Ga2 O19 1.915670 1_556
Ga2 O54 1.990348 1_555
Ga2 O55 2.020286 1_555
Ga2 O56 2.031824 1_555
Ga2 O20 2.042038 1_556
Ga2 O18 2.051560 1_556
Ga3 O21 1.874410 1_555
Ga3 O22 1.902812 1_555
Ga3 O23 2.021069 1_555
Ga3 O58 2.067673 1_555
Ga3 O59 2.072517 1_555
Ga3 O57 2.187095 1_555
Ga4 O32 1.921405 1_555
Ga4 O31 1.948878 1_555
Ga4 O67 1.990088 1_555
Ga4 O30 2.066947 1_555
Ga4 O66 2.077088 1_555
Ga4 O68 2.102061 1_555
Ga5 O33 1.937318 1_555
Ga5 O35 1.979462 1_555
Ga5 O71 1.980843 1_555
Ga5 O34 1.987149 1_555
Ga5 O69 2.066847 1_555
Ga5 O70 2.072817 1_555
O0 P0 1.534272 1_545
O1 P1 1.532858 1_555
O2 P2 1.530554 1_655
O3 P3 1.534133 1_555
O4 P4 1.534236 1_655
O5 Si0 1.613831 1_545
O6 Si0 1.645224 1_555
O7 P3 1.544189 1_555
O8 P4 1.559517 1_555
O9 P1 1.552759 1_555
O10 P2 1.548501 1_555
O11 P0 1.559739 1_555
O12 P5 1.540966 1_555
O13 Si1 1.645327 1_555
O14 P6 1.539575 1_555
O15 Si2 1.644167 1_555
O16 P7 1.549671 1_555
O17 P8 1.548059 1_555
O18 P8 1.528109 1_555
O19 Si2 1.612775 1_555
O20 P7 1.524653 1_555
O21 Si1 1.619718 1_555
O22 P6 1.523204 1_555
O23 P5 1.539147 1_555
O24 P9 1.560056 1_555
O25 P10 1.568066 1_555
O26 P11 1.570396 1_555
O27 P12 1.553059 1_555
O28 P13 1.548981 1_555
O29 P14 1.557485 1_555
O30 P14 1.555108 1_555
O31 P12 1.539889 1_555
O32 P13 1.531309 1_555
O33 P10 1.530139 1_555
O34 P11 1.544092 1_555
O35 P9 1.541457 1_555
O36 P14 1.547049 1_555
O37 P12 1.550200 1_555
O38 P13 1.569932 1_555
O39 P10 1.552139 1_555
O40 P11 1.546156 1_555
O41 P9 1.554166 1_555
O42 P5 1.550284 1_555
O43 Si1 1.621554 1_555
O44 P6 1.553197 1_555
O45 Si2 1.651144 1_555
O46 P7 1.548786 1_555
O47 P8 1.549183 1_555
O48 Si0 1.640218 1_545
O49 P3 1.563997 1_555
O50 P4 1.540505 1_655
O51 P1 1.577090 1_555
O52 P2 1.578776 1_655
O53 P0 1.547529 1_545
O54 P9 1.531818 1_555
O55 P10 1.528915 1_655
O56 P11 1.529241 1_545
O57 P12 1.562614 1_545
O58 P13 1.549311 1_555
O59 P14 1.548697 1_655
O60 P8 1.562691 1_555
O61 Si2 1.657611 1_455
O62 P7 1.561313 1_565
O63 Si1 1.652326 1_565
O64 P6 1.554082 1_555
O65 P5 1.533681 1_455
O66 P0 1.559035 1_555
O67 P1 1.535188 1_555
O68 P2 1.555808 1_555
O69 P3 1.526105 1_555
O70 P4 1.528899 1_555
O71 Si0 1.642996 1_555
