# generated using pymatgen
data_LaAs2
_symmetry_space_group_name_H-M   'P 1'
_cell_length_a   9.15099428
_cell_length_b   9.20051534
_cell_length_c   9.74568312
_cell_angle_alpha   118.13588565
_cell_angle_beta   117.97342806
_cell_angle_gamma   90.05070667
_symmetry_Int_Tables_number   1
_chemical_formula_structural   LaAs2
_chemical_formula_sum   'La8 As16'
_cell_volume   612.49757584
_cell_formula_units_Z   8
loop_
 _symmetry_equiv_pos_site_id
 _symmetry_equiv_pos_as_xyz
  1  'x, y, z'
loop_
 _atom_site_type_symbol
 _atom_site_label
 _atom_site_symmetry_multiplicity
 _atom_site_fract_x
 _atom_site_fract_y
 _atom_site_fract_z
 _atom_site_occupancy
  La  La0  1  0.67318002  0.75017246  0.08099866  1
  La  La1  1  0.09232183  0.66918419  0.91906900  1
  La  La2  1  0.89210662  0.27313559  0.91722183  1
  La  La3  1  0.47492464  0.35598814  0.08286720  1
  La  La4  1  0.43550688  0.11456043  0.44339061  1
  La  La5  1  0.49205965  0.67113832  0.55656316  1
  La  La6  1  0.01364175  0.29703214  0.39523632  1
  La  La7  1  0.11843033  0.90194395  0.60484756  1
  As  As0  1  0.87068029  0.87408036  0.74488557  1
  As  As1  1  0.62568582  0.12923624  0.25499576  1
  As  As2  1  0.74622407  0.99759572  0.94920634  1
  As  As3  1  0.29666075  0.04835338  0.05049460  1
  As  As4  1  0.46076068  0.73177080  0.25515208  1
  As  As5  1  0.70604090  0.47690659  0.74505471  1
  As  As6  1  0.50516099  0.07006778  0.76239349  1
  As  As7  1  0.24261038  0.30747059  0.23758746  1
  As  As8  1  0.74232318  0.94827075  0.50426411  1
  As  As9  1  0.73802725  0.44400873  0.49559622  1
  As  As10  1  0.29891965  0.66217411  0.74364640  1
  As  As11  1  0.05520064  0.91850433  0.25632714  1
  As  As12  1  0.11566524  0.28947157  0.75385879  1
  As  As13  1  0.86143607  0.53553530  0.24641333  1
  As  As14  1  0.35829359  0.40279427  0.74689078  1
  As  As15  1  0.11097880  0.65573028  0.25303790  1
loop_
_geom_bond_atom_site_label_1
_geom_bond_atom_site_label_2
_geom_bond_distance
_geom_bond_site_symmetry_2
As0 As8 2.504352 1_555
As0 As2 2.559138 1_555
As0 La5 3.106502 1_555
As0 La2 3.195833 1_565
As0 La7 3.209354 1_655
As0 La1 3.216223 1_655
As1 As9 2.504200 1_555
As1 As3 2.561097 1_555
As1 La4 3.106281 1_555
As1 La3 3.194429 1_555
As1 La6 3.209905 1_655
As1 La0 3.216214 1_545
As2 As6 2.450579 1_565
As2 La2 3.071767 1_565
As2 La5 3.142016 1_555
As2 La0 3.292244 1_556
As2 La6 3.344855 1_666
As3 As7 2.449739 1_555
As3 La3 3.072235 1_555
As3 La4 3.143527 1_555
As3 La1 3.291588 1_544
As3 La7 3.342247 1_544
As4 As8 2.462170 1_555
As4 La3 3.085376 1_555
As4 La5 3.127036 1_555
As4 La0 3.170697 1_555
As4 La4 3.182460 1_565
As4 La1 3.207033 1_554
As5 As9 2.462008 1_555
As5 La2 3.085712 1_555
As5 La4 3.130482 1_555
As5 La1 3.168032 1_655
As5 La5 3.182772 1_555
As5 La0 3.208159 1_556
As6 La4 3.095293 1_555
As6 La3 3.132812 1_556
As6 La7 3.150764 1_545
As6 La5 3.215510 1_545
As6 La2 3.259268 1_555
As7 La5 3.096665 1_555
As7 La2 3.131929 1_454
As7 La6 3.149411 1_555
As7 La4 3.214103 1_555
As7 La3 3.260783 1_555
As8 La4 3.142733 1_565
As8 La7 3.196851 1_655
As8 La2 3.237624 1_565
As8 La0 3.346147 1_555
As9 La5 3.142955 1_555
As9 La6 3.196767 1_655
As9 La3 3.235889 1_555
As9 La1 3.347795 1_655
As10 As14 2.459388 1_555
As10 La1 3.070765 1_555
As10 La5 3.101528 1_555
As10 La0 3.180511 1_556
As10 La7 3.185757 1_555
As10 La6 3.246698 1_555
As11 As15 2.459892 1_555
As11 La0 3.070856 1_455
As11 La4 3.102321 1_565
As11 La1 3.180950 1_554
As11 La6 3.185112 1_565
As11 La7 3.246419 1_555
As12 As14 2.495095 1_555
As12 La3 3.117766 1_556
As12 La1 3.140361 1_555
As12 La7 3.158057 1_545
As12 La2 3.165946 1_455
As12 La6 3.203115 1_555
As13 As15 2.496325 1_655
As13 La2 3.121034 1_554
As13 La0 3.141568 1_555
As13 La6 3.157639 1_655
As13 La3 3.161835 1_555
As13 La7 3.204774 1_655
As14 La6 3.057534 1_555
As14 La3 3.177734 1_556
As14 La0 3.238370 1_556
As14 La4 3.293431 1_555
As15 La7 3.057277 1_555
As15 La2 3.175907 1_454
As15 La1 3.239847 1_554
As15 La5 3.295092 1_555
