# generated using pymatgen
data_Na2TiAl(PO4)3
_symmetry_space_group_name_H-M   'P 1'
_cell_length_a   8.61209130
_cell_length_b   8.61209103
_cell_length_c   21.97413041
_cell_angle_alpha   90.14521651
_cell_angle_beta   89.85478350
_cell_angle_gamma   120.41497666
_symmetry_Int_Tables_number   1
_chemical_formula_structural   Na2TiAl(PO4)3
_chemical_formula_sum   'Na12 Ti6 Al6 P18 O72'
_cell_volume   1405.48574785
_cell_formula_units_Z   6
loop_
 _symmetry_equiv_pos_site_id
 _symmetry_equiv_pos_as_xyz
  1  'x, y, z'
loop_
 _atom_site_type_symbol
 _atom_site_label
 _atom_site_symmetry_multiplicity
 _atom_site_fract_x
 _atom_site_fract_y
 _atom_site_fract_z
 _atom_site_occupancy
  Na  Na0  1  0.36469869  0.36364693  0.24967236  1
  Na  Na1  1  0.63635307  0.63530131  0.74967236  1
  Na  Na2  1  0.03136569  0.69697993  0.58300536  1
  Na  Na3  1  0.30302007  0.96863431  0.08300536  1
  Na  Na4  1  0.69803169  0.03031393  0.91633936  1
  Na  Na5  1  0.96968607  0.30196831  0.41633936  1
  Na  Na6  1  0.99976968  0.99951702  0.49890393  1
  Na  Na7  1  0.00048298  0.00023032  0.99890393  1
  Na  Na8  1  0.66643668  0.33285002  0.83223693  1
  Na  Na9  1  0.66714998  0.33356332  0.33223693  1
  Na  Na10  1  0.33310268  0.66618402  0.16557093  1
  Na  Na11  1  0.33381598  0.66689732  0.66557093  1
  Ti  Ti0  1  0.00138307  0.00724327  0.64732509  1
  Ti  Ti1  1  0.99275673  0.99861693  0.14732509  1
  Ti  Ti2  1  0.66805007  0.34057627  0.98065809  1
  Ti  Ti3  1  0.65942373  0.33194993  0.48065809  1
  Ti  Ti4  1  0.33471607  0.67391027  0.31399209  1
  Ti  Ti5  1  0.32608973  0.66528393  0.81399209  1
  Al  Al0  1  0.99972606  0.99463323  0.35230745  1
  Al  Al1  1  0.00536677  0.00027394  0.85230745  1
  Al  Al2  1  0.66639306  0.32796623  0.68564045  1
  Al  Al3  1  0.67203377  0.33360694  0.18564045  1
  Al  Al4  1  0.33305906  0.66130023  0.01897445  1
  Al  Al5  1  0.33869977  0.66694094  0.51897445  1
  P  P0  1  0.28934140  0.00118750  0.25042680  1
  P  P1  1  0.71537546  0.71008401  0.25145324  1
  P  P2  1  0.99116590  0.28546921  0.25142049  1
  P  P3  1  0.28991599  0.28462454  0.75145324  1
  P  P4  1  0.99881250  0.71065860  0.75042680  1
  P  P5  1  0.71453079  0.00883410  0.75142049  1
  P  P6  1  0.95600840  0.33452050  0.58375980  1
  P  P7  1  0.38204246  0.04341701  0.58478624  1
  P  P8  1  0.65783290  0.61880221  0.58475349  1
  P  P9  1  0.95658299  0.61795754  0.08478624  1
  P  P10  1  0.66547950  0.04399160  0.08375980  1
  P  P11  1  0.38119779  0.34216710  0.08475349  1
  P  P12  1  0.62267440  0.66785450  0.91709380  1
  P  P13  1  0.04870846  0.37675101  0.91812024  1
  P  P14  1  0.32449890  0.95213621  0.91808749  1
  P  P15  1  0.62324899  0.95129154  0.41812024  1
  P  P16  1  0.33214550  0.37732560  0.41709380  1
  P  P17  1  0.04786379  0.67550110  0.41808749  1
  O  O0  1  0.20245336  0.03715443  0.30568335  1
  O  O1  1  0.83189191  0.79928557  0.30697817  1
  O  O2  1  0.96754188  0.17243571  0.30842564  1
  O  O3  1  0.20071443  0.16810809  0.80697817  1
  O  O4  1  0.96284557  0.79754664  0.80568335  1
  O  O5  1  0.82756429  0.03245812  0.80842564  1
  O  O6  1  0.79831077  0.96588970  0.69496062  1
  O  O7  1  0.17025723  0.20107432  0.69385166  1
  O  O8  1  0.03227286  0.82647409  0.69219528  1
  O  O9  1  0.79892568  0.82974277  0.19385166  1
  O  O10  1  0.03411030  0.20168923  0.19496062  1
  O  O11  1  0.17352591  0.96772714  0.19219528  1
  O  O12  1  0.86912036  0.37048743  0.63901635  1
  O  O13  1  0.49855891  0.13261857  0.64031117  1
  O  O14  1  0.63420888  0.50576871  0.64175864  1
  O  O15  1  0.86738143  0.50144109  0.14031117  1
  O  O16  1  0.62951257  0.13087964  0.13901635  1
  O  O17  1  0.49423129  0.36579112  0.14175864  1
  O  O18  1  0.46497777  0.29922270  0.02829362  1
  O  O19  1  0.83692423  0.53440732  0.02718466  1
  O  O20  1  0.69893986  0.15980709  0.02552828  1
  O  O21  1  0.46559268  0.16307577  0.52718466  1
  O  O22  1  0.70077730  0.53502223  0.52829362  1
  O  O23  1  0.84019291  0.30106014  0.52552828  1
  O  O24  1  0.53578636  0.70382143  0.97235035  1
  O  O25  1  0.16522491  0.46595257  0.97364517  1
  O  O26  1  0.30087488  0.83910271  0.97509264  1
  O  O27  1  0.53404743  0.83477509  0.47364517  1
  O  O28  1  0.29617857  0.46421364  0.47235035  1
  O  O29  1  0.16089729  0.69912512  0.47509264  1
  O  O30  1  0.13164377  0.63255670  0.36162762  1
  O  O31  1  0.50359023  0.86774132  0.36051866  1
  O  O32  1  0.36560586  0.49314109  0.35886228  1
  O  O33  1  0.13225868  0.49640977  0.86051866  1
  O  O34  1  0.36744330  0.86835623  0.86162762  1
  O  O35  1  0.50685891  0.63439414  0.85886228  1
  O  O36  1  0.02612019  0.83870444  0.40825884  1
  O  O37  1  0.81330638  0.97925962  0.40866929  1
  O  O38  1  0.16194231  0.18992903  0.40838830  1
  O  O39  1  0.02074038  0.18669362  0.90866929  1
  O  O40  1  0.16129556  0.97387981  0.90825884  1
  O  O41  1  0.81007097  0.83805769  0.90838830  1
  O  O42  1  0.97464915  0.16591243  0.59061207  1
  O  O43  1  0.19062416  0.02061338  0.59014741  1
  O  O44  1  0.83398208  0.80629867  0.59032000  1
  O  O45  1  0.97938662  0.80937584  0.09014741  1
  O  O46  1  0.83408757  0.02535085  0.09061207  1
  O  O47  1  0.19370133  0.16601792  0.09032000  1
  O  O48  1  0.69278719  0.17203744  0.74159184  1
  O  O49  1  0.47997338  0.31259262  0.74200229  1
  O  O50  1  0.82860931  0.52326203  0.74172130  1
  O  O51  1  0.68740738  0.52002662  0.24200229  1
  O  O52  1  0.82796256  0.30721281  0.24159184  1
  O  O53  1  0.47673797  0.17139069  0.24172130  1
  O  O54  1  0.64131615  0.49924543  0.92394507  1
  O  O55  1  0.85729116  0.35394638  0.92348041  1
  O  O56  1  0.50064908  0.13963167  0.92365300  1
  O  O57  1  0.64605362  0.14270884  0.42348041  1
  O  O58  1  0.50075457  0.35868385  0.42394507  1
  O  O59  1  0.86036833  0.49935092  0.42365300  1
  O  O60  1  0.35945319  0.50537144  0.07492584  1
  O  O61  1  0.14663938  0.64592662  0.07533629  1
  O  O62  1  0.49527531  0.85659603  0.07505530  1
  O  O63  1  0.35407338  0.85336062  0.57533629  1
  O  O64  1  0.49462856  0.64054681  0.57492584  1
  O  O65  1  0.14340397  0.50472469  0.57505530  1
  O  O66  1  0.30798215  0.83257943  0.25727907  1
  O  O67  1  0.52395716  0.68728038  0.25681441  1
  O  O68  1  0.16731508  0.47296567  0.25698700  1
  O  O69  1  0.31271962  0.47604284  0.75681441  1
  O  O70  1  0.16742057  0.69201785  0.75727907  1
  O  O71  1  0.52703433  0.83268492  0.75698700  1
loop_
_geom_bond_atom_site_label_1
_geom_bond_atom_site_label_2
_geom_bond_distance
_geom_bond_site_symmetry_2
Na0 O53 2.306135 1_555
Na0 O68 2.328102 1_555
Na0 O51 2.403147 1_555
Na0 O67 2.408803 1_555
Na0 O17 2.614164 1_555
Na0 O32 2.641661 1_555
Na0 O0 2.721059 1_555
Na0 O10 2.735810 1_555
Na1 O50 2.306135 1_555
Na1 O71 2.328102 1_555
Na1 O49 2.403147 1_555
Na1 O69 2.408803 1_555
Na1 O14 2.614164 1_555
Na1 O35 2.641661 1_555
Na1 O4 2.721059 1_555
Na1 O6 2.735810 1_555
Na2 O65 2.306119 1_555
Na2 O44 2.328102 1_455
Na2 O63 2.403137 1_555
Na2 O43 2.408803 1_565
Na2 O29 2.614138 1_555
Na2 O8 2.641661 1_555
Na2 O12 2.721059 1_455
Na2 O22 2.735810 1_455
Na3 O62 2.306119 1_555
Na3 O47 2.328102 1_565
Na3 O61 2.403137 1_555
Na3 O45 2.408803 1_455
Na3 O26 2.614138 1_554
Na3 O11 2.641661 1_555
Na3 O16 2.721059 1_565
Na3 O18 2.735810 1_565
Na4 O41 2.306135 1_545
Na4 O56 2.328086 1_555
Na4 O39 2.403147 1_655
Na4 O55 2.408794 1_555
Na4 O5 2.614164 1_555
Na4 O20 2.641636 1_556
Na4 O24 2.721059 1_545
Na4 O34 2.735810 1_545
Na5 O38 2.306135 1_655
Na5 O59 2.328086 1_555
Na5 O37 2.403147 1_545
Na5 O57 2.408794 1_555
Na5 O2 2.614164 1_555
Na5 O23 2.641636 1_555
Na5 O28 2.721059 1_655
Na5 O30 2.735810 1_655
Na6 O36 2.497787 1_655
Na6 O37 2.504294 1_555
Na6 O38 2.505861 1_665
Na6 O44 2.537626 1_555
Na6 O42 2.541345 1_565
Na6 O43 2.543053 1_665
Na7 O40 2.497787 1_545
Na7 O39 2.504294 1_555
Na7 O41 2.505861 1_445
Na7 O47 2.537626 1_556
Na7 O46 2.541345 1_456
Na7 O45 2.543053 1_446
Na8 O48 2.497787 1_555
Na8 O49 2.504294 1_555
Na8 O50 2.505861 1_555
Na8 O56 2.537626 1_555
Na8 O54 2.541345 1_555
Na8 O55 2.543053 1_555
Na9 O52 2.497787 1_555
Na9 O51 2.504294 1_555
Na9 O53 2.505861 1_555
Na9 O59 2.537626 1_555
Na9 O58 2.541345 1_555
Na9 O57 2.543053 1_555
Na10 O60 2.497787 1_555
Na10 O61 2.504294 1_555
Na10 O62 2.505861 1_555
Na10 O68 2.537626 1_555
Na10 O66 2.541345 1_555
Na10 O67 2.543053 1_555
Na11 O64 2.497787 1_555
Na11 O63 2.504294 1_555
Na11 O65 2.505861 1_555
Na11 O71 2.537626 1_555
Na11 O70 2.541345 1_555
Na11 O69 2.543053 1_555
Al0 O1 1.856971 1_555
Al0 O0 1.891408 1_665
Al0 O36 1.919755 1_655
Al0 O2 1.946776 1_565
Al0 O37 1.975971 1_555
Al0 O38 1.979458 1_665
Al1 O3 1.856971 1_555
Al1 O4 1.891408 1_445
Al1 O40 1.919755 1_545
Al1 O5 1.946776 1_455
Al1 O39 1.975971 1_555
Al1 O41 1.979458 1_445
Al2 O13 1.856971 1_555
Al2 O12 1.891408 1_555
Al2 O48 1.919755 1_555
Al2 O14 1.946776 1_555
Al2 O49 1.975971 1_555
Al2 O50 1.979458 1_555
Al3 O15 1.856971 1_555
Al3 O16 1.891408 1_555
Al3 O52 1.919755 1_555
Al3 O17 1.946776 1_555
Al3 O51 1.975971 1_555
Al3 O53 1.979458 1_555
Al4 O25 1.856971 1_554
Al4 O24 1.891408 1_554
Al4 O60 1.919755 1_555
Al4 O26 1.946776 1_554
Al4 O61 1.975971 1_555
Al4 O62 1.979458 1_555
Al5 O27 1.856971 1_555
Al5 O28 1.891408 1_555
Al5 O64 1.919755 1_555
Al5 O29 1.946776 1_555
Al5 O63 1.975971 1_555
Al5 O65 1.979458 1_555
O0 P0 1.535698 1_555
O1 P1 1.518775 1_555
O2 P2 1.537033 1_555
O3 P3 1.518775 1_555
O4 P4 1.535698 1_555
O5 P5 1.537033 1_555
O6 P5 1.568416 1_565
O6 Ti0 1.908680 1_665
O7 P3 1.559815 1_555
O7 Ti0 1.867539 1_555
O8 P4 1.558460 1_455
O8 Ti0 1.973577 1_565
O9 P1 1.559815 1_555
O9 Ti1 1.867539 1_555
O10 P2 1.568416 1_455
O10 Ti1 1.908680 1_445
O11 P0 1.558460 1_565
O11 Ti1 1.973577 1_455
O12 P6 1.535698 1_555
O13 P7 1.518775 1_555
O14 P8 1.537033 1_555
O15 P9 1.518775 1_555
O16 P10 1.535698 1_555
O17 P11 1.537033 1_555
O18 P11 1.568416 1_555
O18 Ti2 1.908680 1_554
O19 P9 1.559815 1_555
O19 Ti2 1.867539 1_554
O20 P10 1.558460 1_555
O20 Ti2 1.973577 1_554
O21 P7 1.559815 1_555
O21 Ti3 1.867539 1_555
O22 P8 1.568416 1_555
O22 Ti3 1.908680 1_555
O23 P6 1.558460 1_555
O23 Ti3 1.973577 1_555
O24 P12 1.535698 1_555
O25 P13 1.518775 1_555
O26 P14 1.537033 1_555
O27 P15 1.518775 1_555
O28 P16 1.535698 1_555
O29 P17 1.537033 1_555
O30 P17 1.568416 1_555
O30 Ti4 1.908680 1_555
O31 P15 1.559815 1_555
O31 Ti4 1.867539 1_555
O32 P16 1.558460 1_555
O32 Ti4 1.973577 1_555
O33 P13 1.559815 1_555
O33 Ti5 1.867539 1_555
O34 P14 1.568416 1_555
O34 Ti5 1.908680 1_555
O35 P12 1.558460 1_555
O35 Ti5 1.973577 1_555
O36 P17 1.524938 1_555
O37 P15 1.542590 1_555
O38 P16 1.547382 1_555
O39 P13 1.542590 1_555
O40 P14 1.524938 1_555
O41 P12 1.547382 1_555
O42 P6 1.547321 1_555
O42 Ti0 1.949860 1_655
O43 P7 1.562489 1_555
O43 Ti0 2.012049 1_555
O44 P8 1.563126 1_555
O44 Ti0 2.028393 1_665
O45 P9 1.562489 1_555
O45 Ti1 2.012049 1_555
O46 P10 1.547321 1_555
O46 Ti1 1.949860 1_545
O47 P11 1.563126 1_555
O47 Ti1 2.028393 1_445
O48 P5 1.524938 1_555
O49 P3 1.542590 1_555
O50 P4 1.547382 1_555
O51 P1 1.542590 1_555
O52 P2 1.524938 1_555
O53 P0 1.547382 1_555
O54 P12 1.547333 1_555
O54 Ti2 1.949860 1_555
O55 P13 1.562475 1_655
O55 Ti2 2.012049 1_555
O56 P14 1.563123 1_545
O56 Ti2 2.028393 1_555
O57 P15 1.562475 1_545
O57 Ti3 2.012049 1_555
O58 P16 1.547333 1_555
O58 Ti3 1.949860 1_555
O59 P17 1.563123 1_655
O59 Ti3 2.028393 1_555
O60 P11 1.524949 1_555
O61 P9 1.542575 1_455
O62 P10 1.547378 1_565
O63 P7 1.542575 1_565
O64 P8 1.524949 1_555
O65 P6 1.547378 1_455
O66 P0 1.547321 1_565
O66 Ti4 1.949860 1_555
O67 P1 1.562489 1_555
O67 Ti4 2.012049 1_555
O68 P2 1.563126 1_455
O68 Ti4 2.028393 1_555
O69 P3 1.562489 1_555
O69 Ti5 2.012049 1_555
O70 P4 1.547321 1_455
O70 Ti5 1.949860 1_555
O71 P5 1.563126 1_565
O71 Ti5 2.028393 1_555
