# generated using pymatgen
data_Na2Mg3Sn(SO4)6
_symmetry_space_group_name_H-M   'P 1'
_cell_length_a   8.67079129
_cell_length_b   8.67079101
_cell_length_c   22.77795759
_cell_angle_alpha   90.00000000
_cell_angle_beta   90.00000000
_cell_angle_gamma   120.00000102
_symmetry_Int_Tables_number   1
_chemical_formula_structural   Na2Mg3Sn(SO4)6
_chemical_formula_sum   'Na6 Mg9 Sn3 S18 O72'
_cell_volume   1483.07412765
_cell_formula_units_Z   3
loop_
 _symmetry_equiv_pos_site_id
 _symmetry_equiv_pos_as_xyz
  1  'x, y, z'
loop_
 _atom_site_type_symbol
 _atom_site_label
 _atom_site_symmetry_multiplicity
 _atom_site_fract_x
 _atom_site_fract_y
 _atom_site_fract_z
 _atom_site_occupancy
  Na  Na0  1  -0.00000000  -0.00000000  0.50756067  1
  Na  Na1  1  -0.00000000  -0.00000000  0.00653876  1
  Na  Na2  1  0.66666700  0.33333300  0.82557936  1
  Na  Na3  1  0.66666700  0.33333300  0.33809366  1
  Na  Na4  1  0.33333300  0.66666700  0.17640996  1
  Na  Na5  1  0.33333300  0.66666700  0.65671389  1
  Mg  Mg0  1  -0.00000000  -0.00000000  0.64338425  1
  Mg  Mg1  1  -0.00000000  -0.00000000  0.15052521  1
  Mg  Mg2  1  0.66666700  0.33333300  0.67676977  1
  Mg  Mg3  1  0.66666700  0.33333300  0.18665263  1
  Mg  Mg4  1  0.66666700  0.33333300  0.98385714  1
  Mg  Mg5  1  0.66666700  0.33333300  0.48553443  1
  Mg  Mg6  1  0.33333300  0.66666700  0.51915511  1
  Mg  Mg7  1  0.33333300  0.66666700  0.31846091  1
  Mg  Mg8  1  0.33333300  0.66666700  0.81066983  1
  Sn  Sn0  1  -0.00000000  -0.00000000  0.35193346  1
  Sn  Sn1  1  -0.00000000  -0.00000000  0.84518351  1
  Sn  Sn2  1  0.33333300  0.66666700  0.01838341  1
  S  S0  1  0.29524619  0.99912504  0.24842034  1
  S  S1  1  0.70387885  0.70475381  0.24842034  1
  S  S2  1  0.00087496  0.29612115  0.24842034  1
  S  S3  1  0.29916513  0.29646100  0.74862050  1
  S  S4  1  0.99729588  0.70083487  0.74862050  1
  S  S5  1  0.70353900  0.00270412  0.74862050  1
  S  S6  1  0.96255414  0.33503315  0.58333631  1
  S  S7  1  0.37248001  0.03744586  0.58333631  1
  S  S8  1  0.66496685  0.62751999  0.58333631  1
  S  S9  1  0.95781556  0.62709750  0.08253097  1
  S  S10  1  0.66928294  0.04218444  0.08253097  1
  S  S11  1  0.37290250  0.33071706  0.08253097  1
  S  S12  1  0.62878490  0.66695685  0.91494668  1
  S  S13  1  0.03817095  0.37121510  0.91494668  1
  S  S14  1  0.33304315  0.96182905  0.91494668  1
  S  S15  1  0.62485253  0.96108273  0.41589416  1
  S  S16  1  0.33622920  0.37514747  0.41589416  1
  S  S17  1  0.03891727  0.66377080  0.41589416  1
  O  O0  1  0.21833065  0.03353208  0.30365832  1
  O  O1  1  0.81520143  0.78166935  0.30365832  1
  O  O2  1  0.96646792  0.18479857  0.30365832  1
  O  O3  1  0.23050802  0.19023964  0.80819739  1
  O  O4  1  0.95973162  0.76949198  0.80819739  1
  O  O5  1  0.80976036  0.04026838  0.80819739  1
  O  O6  1  0.79989065  0.97805686  0.70112777  1
  O  O7  1  0.17816620  0.20010935  0.70112777  1
  O  O8  1  0.02194314  0.82183380  0.70112777  1
  O  O9  1  0.79133632  0.81710162  0.19717063  1
  O  O10  1  0.02576530  0.20866368  0.19717063  1
  O  O11  1  0.18289838  0.97423470  0.19717063  1
  O  O12  1  0.88228250  0.35934672  0.63738487  1
  O  O13  1  0.47706522  0.11771750  0.63738487  1
  O  O14  1  0.64065328  0.52293478  0.63738487  1
  O  O15  1  0.87812471  0.51952097  0.13478415  1
  O  O16  1  0.64139726  0.12187529  0.13478415  1
  O  O17  1  0.48047903  0.35860274  0.13478415  1
  O  O18  1  0.45415973  0.31501444  0.02792837  1
  O  O19  1  0.86085571  0.54584027  0.02792837  1
  O  O20  1  0.68498556  0.13914429  0.02792837  1
  O  O21  1  0.45631998  0.14595446  0.53062094  1
  O  O22  1  0.68963548  0.54368002  0.53062094  1
  O  O23  1  0.85404554  0.31036452  0.53062094  1
  O  O24  1  0.55650142  0.70367978  0.97100606  1
  O  O25  1  0.14717737  0.44349858  0.97100606  1
  O  O26  1  0.29632022  0.85282263  0.97100606  1
  O  O27  1  0.54480975  0.85255599  0.46805375  1
  O  O28  1  0.30774524  0.45519025  0.46805375  1
  O  O29  1  0.14744401  0.69225476  0.46805375  1
  O  O30  1  0.12019360  0.64799699  0.36132416  1
  O  O31  1  0.52780240  0.87980640  0.36132416  1
  O  O32  1  0.35200301  0.47219760  0.36132416  1
  O  O33  1  0.12912679  0.48074799  0.86444692  1
  O  O34  1  0.35162020  0.87087321  0.86444692  1
  O  O35  1  0.51925201  0.64837980  0.86444692  1
  O  O36  1  0.02272200  0.83355123  0.41221993  1
  O  O37  1  0.81082923  0.97727800  0.41221993  1
  O  O38  1  0.16644877  0.18917077  0.41221993  1
  O  O39  1  0.02035797  0.18869032  0.91121071  1
  O  O40  1  0.16833235  0.97964203  0.91121071  1
  O  O41  1  0.81130968  0.83166765  0.91121071  1
  O  O42  1  0.98023382  0.17366791  0.58866982  1
  O  O43  1  0.19343410  0.01976618  0.58866982  1
  O  O44  1  0.82633209  0.80656590  0.58866982  1
  O  O45  1  0.98430497  0.80813322  0.08755877  1
  O  O46  1  0.82382825  0.01569503  0.08755877  1
  O  O47  1  0.19186678  0.17617175  0.08755877  1
  O  O48  1  0.68379167  0.16015357  0.74377640  1
  O  O49  1  0.47636290  0.31620833  0.74377640  1
  O  O50  1  0.83984643  0.52363710  0.74377640  1
  O  O51  1  0.68644239  0.52733480  0.24328844  1
  O  O52  1  0.84089341  0.31355761  0.24328844  1
  O  O53  1  0.47266520  0.15910659  0.24328844  1
  O  O54  1  0.64778924  0.50966246  0.92274513  1
  O  O55  1  0.86187422  0.35221076  0.92274513  1
  O  O56  1  0.49033754  0.13812578  0.92274513  1
  O  O57  1  0.65142501  0.14201156  0.42099402  1
  O  O58  1  0.49058754  0.34857499  0.42099402  1
  O  O59  1  0.85798844  0.50941246  0.42099402  1
  O  O60  1  0.35620110  0.50019659  0.07874412  1
  O  O61  1  0.14399449  0.64379890  0.07874412  1
  O  O62  1  0.49980341  0.85600551  0.07874412  1
  O  O63  1  0.35338905  0.85822533  0.57798060  1
  O  O64  1  0.50483528  0.64661095  0.57798060  1
  O  O65  1  0.14177467  0.49516472  0.57798060  1
  O  O66  1  0.30943325  0.83804403  0.25591502  1
  O  O67  1  0.52860978  0.69056675  0.25591502  1
  O  O68  1  0.16195597  0.47139022  0.25591502  1
  O  O69  1  0.30903611  0.46927334  0.75697607  1
  O  O70  1  0.16023623  0.69096389  0.75697607  1
  O  O71  1  0.53072666  0.83976377  0.75697607  1
loop_
_geom_bond_atom_site_label_1
_geom_bond_atom_site_label_2
_geom_bond_distance
_geom_bond_site_symmetry_2
Na0 O42 2.443003 1_455
Na0 O44 2.443003 1_445
Na0 O43 2.443003 1_555
Na0 O38 2.668754 1_555
Na0 O36 2.668754 1_545
Na0 O37 2.668754 1_445
Na1 O45 2.442451 1_445
Na1 O47 2.442451 1_555
Na1 O46 2.442451 1_455
Na1 O39 2.670963 1_554
Na1 O41 2.670963 1_444
Na1 O40 2.670963 1_544
Na2 O50 2.443711 1_555
Na2 O48 2.443711 1_555
Na2 O49 2.443712 1_555
Na2 O56 2.740996 1_555
Na2 O54 2.740996 1_555
Na2 O55 2.740996 1_555
Na3 O57 2.473031 1_555
Na3 O59 2.473031 1_555
Na3 O58 2.473031 1_555
Na3 O51 2.689591 1_555
Na3 O53 2.689591 1_555
Na3 O52 2.689591 1_555
Na4 O68 2.416317 1_555
Na4 O66 2.416317 1_555
Na4 O67 2.416317 1_555
Na4 O62 2.712561 1_555
Na4 O60 2.712561 1_555
Na4 O61 2.712561 1_555
Na5 O63 2.390903 1_555
Na5 O65 2.390903 1_555
Na5 O64 2.390903 1_555
Na5 O69 2.798005 1_555
Na5 O71 2.798005 1_555
Na5 O70 2.798005 1_555
Mg0 O42 2.026876 1_455
Mg0 O44 2.026876 1_445
Mg0 O43 2.026876 1_555
Mg0 O8 2.108702 1_545
Mg0 O7 2.108702 1_555
Mg0 O6 2.108702 1_445
Mg1 O10 2.011983 1_555
Mg1 O9 2.011984 1_445
Mg1 O11 2.011984 1_545
Mg1 O45 2.148690 1_445
Mg1 O47 2.148690 1_555
Mg1 O46 2.148690 1_455
Mg2 O13 1.982227 1_555
Mg2 O14 1.982228 1_555
Mg2 O12 1.982228 1_555
Mg2 O50 2.197575 1_555
Mg2 O48 2.197575 1_555
Mg2 O49 2.197575 1_555
Mg3 O51 2.057867 1_555
Mg3 O53 2.057867 1_555
Mg3 O52 2.057867 1_555
Mg3 O16 2.098537 1_555
Mg3 O15 2.098537 1_555
Mg3 O17 2.098537 1_555
Mg4 O19 2.033586 1_556
Mg4 O20 2.033586 1_556
Mg4 O18 2.033586 1_556
Mg4 O56 2.133617 1_555
Mg4 O54 2.133617 1_555
Mg4 O55 2.133617 1_555
Mg5 O22 2.014357 1_555
Mg5 O21 2.014357 1_555
Mg5 O23 2.014357 1_555
Mg5 O57 2.170574 1_555
Mg5 O59 2.170574 1_555
Mg5 O58 2.170574 1_555
Mg6 O63 2.072581 1_555
Mg6 O65 2.072581 1_555
Mg6 O64 2.072581 1_555
Mg6 O28 2.087966 1_555
Mg6 O27 2.087966 1_555
Mg6 O29 2.087966 1_555
Mg7 O31 2.023782 1_555
Mg7 O30 2.023782 1_555
Mg7 O32 2.023782 1_555
Mg7 O68 2.142120 1_555
Mg7 O66 2.142120 1_555
Mg7 O67 2.142120 1_555
Mg8 O69 2.027079 1_555
Mg8 O71 2.027079 1_555
Mg8 O70 2.027079 1_555
Mg8 O34 2.092838 1_555
Mg8 O33 2.092838 1_555
Mg8 O35 2.092838 1_555
O0 S0 1.521788 1_545
O0 Sn0 2.080164 1_555
O1 S1 1.521788 1_555
O1 Sn0 2.080164 1_665
O2 S2 1.521788 1_655
O2 Sn0 2.080164 1_655
O3 S3 1.579855 1_555
O3 Sn1 2.031885 1_555
O4 S4 1.579855 1_555
O4 Sn1 2.031885 1_665
O5 S5 1.579855 1_555
O5 Sn1 2.031885 1_655
O6 S5 1.446530 1_565
O7 S3 1.446530 1_555
O8 S4 1.446530 1_455
O9 S1 1.465617 1_555
O10 S2 1.465617 1_555
O11 S0 1.465617 1_555
O12 S6 1.480292 1_555
O13 S7 1.480292 1_555
O14 S8 1.480292 1_555
O15 S9 1.455891 1_555
O16 S10 1.455891 1_555
O17 S11 1.455891 1_555
O18 S11 1.468931 1_555
O19 S9 1.468931 1_555
O20 S10 1.468931 1_555
O21 S7 1.473605 1_555
O22 S8 1.473605 1_555
O23 S6 1.473605 1_555
O24 S12 1.524566 1_555
O24 Sn2 2.095465 1_556
O25 S13 1.524566 1_555
O25 Sn2 2.095465 1_556
O26 S14 1.524566 1_555
O26 Sn2 2.095465 1_556
O27 S15 1.457960 1_555
O28 S16 1.457960 1_555
O29 S17 1.457960 1_555
O30 S17 1.468595 1_555
O31 S15 1.468594 1_555
O32 S16 1.468594 1_555
O33 S13 1.448486 1_555
O34 S14 1.448486 1_555
O35 S12 1.448486 1_555
O36 S17 1.549393 1_555
O36 Sn0 2.071665 1_565
O37 S15 1.549401 1_555
O37 Sn0 2.071665 1_665
O38 S16 1.549397 1_555
O38 Sn0 2.071665 1_555
O39 S13 1.513733 1_555
O39 Sn1 2.163578 1_555
O40 S14 1.513724 1_555
O40 Sn1 2.163578 1_565
O41 S12 1.513729 1_555
O41 Sn1 2.163578 1_665
O42 S6 1.486744 1_555
O43 S7 1.486752 1_555
O44 S8 1.486749 1_555
O45 S9 1.472875 1_555
O46 S10 1.472866 1_555
O47 S11 1.472871 1_555
O48 S5 1.462550 1_555
O49 S3 1.462559 1_555
O50 S4 1.462555 1_555
O51 S1 1.473262 1_555
O52 S2 1.473254 1_655
O53 S0 1.473259 1_545
O54 S12 1.464097 1_555
O55 S13 1.464080 1_655
O56 S14 1.464087 1_545
O57 S15 1.471817 1_545
O58 S16 1.471834 1_555
O59 S17 1.471823 1_655
O60 S11 1.549423 1_555
O60 Sn2 2.073487 1_555
O61 S9 1.549406 1_455
O61 Sn2 2.073487 1_555
O62 S10 1.549414 1_565
O62 Sn2 2.073487 1_555
O63 S7 1.483210 1_565
O64 S8 1.483227 1_555
O65 S6 1.483217 1_455
O66 S0 1.472025 1_555
O67 S1 1.472034 1_555
O68 S2 1.472030 1_555
O69 S3 1.469885 1_555
O70 S4 1.469876 1_455
O71 S5 1.469881 1_565
