# generated using pymatgen
data_Na2YGaP2SO12
_symmetry_space_group_name_H-M   'P 1'
_cell_length_a   8.92660265
_cell_length_b   8.94883320
_cell_length_c   22.83815913
_cell_angle_alpha   90.64079877
_cell_angle_beta   89.45977043
_cell_angle_gamma   120.17968773
_symmetry_Int_Tables_number   1
_chemical_formula_structural   Na2YGaP2SO12
_chemical_formula_sum   'Na12 Y6 Ga6 P12 S6 O72'
_cell_volume   1576.97120225
_cell_formula_units_Z   6
loop_
 _symmetry_equiv_pos_site_id
 _symmetry_equiv_pos_as_xyz
  1  'x, y, z'
loop_
 _atom_site_type_symbol
 _atom_site_label
 _atom_site_symmetry_multiplicity
 _atom_site_fract_x
 _atom_site_fract_y
 _atom_site_fract_z
 _atom_site_occupancy
  Na  Na0  1  0.99593387  0.63476835  0.25666794  1
  Na  Na1  1  0.37040765  0.00912466  0.74833191  1
  Na  Na2  1  0.66367284  0.95718972  0.58770343  1
  Na  Na3  1  0.03993893  0.33773055  0.09031265  1
  Na  Na4  1  0.32631095  0.29995941  0.92024848  1
  Na  Na5  1  0.69701137  0.67027862  0.41845522  1
  Na  Na6  1  0.02901113  0.99934162  0.49880416  1
  Na  Na7  1  0.00978233  0.97703760  0.00152088  1
  Na  Na8  1  0.69152024  0.32636119  0.82948368  1
  Na  Na9  1  0.66561003  0.30853758  0.33529282  1
  Na  Na10  1  0.35638618  0.66104336  0.17462225  1
  Na  Na11  1  0.33863131  0.64295263  0.66391185  1
  Y  Y0  1  0.99385688  0.00511636  0.84533416  1
  Y  Y1  1  0.00070255  0.99815083  0.15722930  1
  Y  Y2  1  0.66847974  0.32881969  0.98235975  1
  Y  Y3  1  0.33060296  0.67687780  0.02223260  1
  Y  Y4  1  0.32633859  0.66961955  0.51653060  1
  Y  Y5  1  0.33614301  0.66383912  0.80881403  1
  Ga  Ga0  1  0.97937749  0.99682740  0.34819206  1
  Ga  Ga1  1  0.00402201  0.99677361  0.64509810  1
  Ga  Ga2  1  0.65461201  0.33242351  0.67974221  1
  Ga  Ga3  1  0.66609494  0.35129737  0.18833504  1
  Ga  Ga4  1  0.66644031  0.33154612  0.48280376  1
  Ga  Ga5  1  0.33166375  0.66719753  0.32097891  1
  P  P0  1  0.68692603  0.69485978  0.25559417  1
  P  P1  1  0.00080183  0.30515314  0.25340669  1
  P  P2  1  0.29886947  0.29006239  0.74191673  1
  P  P3  1  0.70912855  0.01467754  0.73780238  1
  P  P4  1  0.37493263  0.05584141  0.58348979  1
  P  P5  1  0.68017373  0.62491957  0.58261708  1
  P  P6  1  0.95709177  0.62569328  0.09097066  1
  P  P7  1  0.37575751  0.33553972  0.08769589  1
  P  P8  1  0.03578967  0.36668266  0.91771549  1
  P  P9  1  0.33115195  0.96888129  0.91151138  1
  P  P10  1  0.63127814  0.97002170  0.41616554  1
  P  P11  1  0.02952749  0.67022653  0.41224311  1
  S  S0  1  0.30482513  0.00022777  0.25590806  1
  S  S1  1  0.98687552  0.69587537  0.74204924  1
  S  S2  1  0.94788400  0.32561036  0.58402204  1
  S  S3  1  0.66579765  0.04462742  0.09209417  1
  S  S4  1  0.63533102  0.66914286  0.91671628  1
  S  S5  1  0.32849610  0.36189676  0.41389150  1
  O  O0  1  0.21387251  0.02553588  0.30603414  1
  O  O1  1  0.81550821  0.78132289  0.30792986  1
  O  O2  1  0.97494209  0.17658512  0.30268061  1
  O  O3  1  0.23147667  0.19378309  0.80093955  1
  O  O4  1  0.96495931  0.76816099  0.79764024  1
  O  O5  1  0.80501323  0.03011699  0.79480936  1
  O  O6  1  0.79940188  0.98778717  0.68356241  1
  O  O7  1  0.17635080  0.18197982  0.69202542  1
  O  O8  1  0.01181237  0.81007880  0.69242846  1
  O  O9  1  0.76339277  0.80234203  0.20040565  1
  O  O10  1  0.03345125  0.24247517  0.19409703  1
  O  O11  1  0.19982374  0.96304237  0.20192815  1
  O  O12  1  0.86514143  0.34569165  0.63711645  1
  O  O13  1  0.48497220  0.13028516  0.63964787  1
  O  O14  1  0.66022424  0.51487121  0.63616033  1
  O  O15  1  0.86786342  0.51947184  0.14719589  1
  O  O16  1  0.65736641  0.14113706  0.14323369  1
  O  O17  1  0.48581648  0.33877239  0.14005776  1
  O  O18  1  0.44847283  0.32107868  0.02762205  1
  O  O19  1  0.86001810  0.53356245  0.03519106  1
  O  O20  1  0.67839542  0.13217328  0.03630711  1
  O  O21  1  0.46632489  0.16775411  0.52928576  1
  O  O22  1  0.69951550  0.54345171  0.52412147  1
  O  O23  1  0.84429131  0.30258828  0.53047740  1
  O  O24  1  0.54927738  0.67997101  0.97041092  1
  O  O25  1  0.13285091  0.44930943  0.97570018  1
  O  O26  1  0.33085652  0.86866881  0.96572134  1
  O  O27  1  0.56661206  0.85891215  0.47233478  1
  O  O28  1  0.29781303  0.43349224  0.46825758  1
  O  O29  1  0.14012228  0.70029281  0.46656877  1
  O  O30  1  0.11622716  0.64173598  0.35711720  1
  O  O31  1  0.50607365  0.87256240  0.36505609  1
  O  O32  1  0.36255062  0.48180126  0.36433181  1
  O  O33  1  0.14199120  0.47254457  0.86483052  1
  O  O34  1  0.34231411  0.88448572  0.85356666  1
  O  O35  1  0.53728083  0.66019108  0.86393361  1
  O  O36  1  0.00524655  0.83094804  0.40504000  1
  O  O37  1  0.81269632  0.98662322  0.40548398  1
  O  O38  1  0.17738487  0.18747897  0.40446736  1
  O  O39  1  0.02259336  0.18765528  0.91584350  1
  O  O40  1  0.16625436  0.98370542  0.91358676  1
  O  O41  1  0.81044770  0.82018835  0.91525057  1
  O  O42  1  0.96316129  0.16705055  0.58615216  1
  O  O43  1  0.19115008  0.03299231  0.58846052  1
  O  O44  1  0.84243987  0.81296161  0.58749455  1
  O  O45  1  0.97804984  0.80569043  0.09140827  1
  O  O46  1  0.82594700  0.03316420  0.09301370  1
  O  O47  1  0.18902619  0.17789550  0.09083620  1
  O  O48  1  0.69039638  0.17834193  0.73502248  1
  O  O49  1  0.48166425  0.30883269  0.73683416  1
  O  O50  1  0.83615557  0.52062589  0.73627652  1
  O  O51  1  0.67645666  0.51494451  0.24890706  1
  O  O52  1  0.83656117  0.32579383  0.24938809  1
  O  O53  1  0.47833720  0.15548782  0.24895608  1
  O  O54  1  0.64195077  0.50731109  0.91625580  1
  O  O55  1  0.85686358  0.34883006  0.91485993  1
  O  O56  1  0.48815622  0.15563200  0.91240029  1
  O  O57  1  0.64867975  0.15036568  0.42493073  1
  O  O58  1  0.49184346  0.35461224  0.41961261  1
  O  O59  1  0.84385457  0.50666937  0.42006429  1
  O  O60  1  0.35942910  0.50004197  0.08920463  1
  O  O61  1  0.13630467  0.63691148  0.09059499  1
  O  O62  1  0.51274008  0.87052799  0.09199616  1
  O  O63  1  0.36076719  0.87576993  0.57822917  1
  O  O64  1  0.51962135  0.64959081  0.57995180  1
  O  O65  1  0.12321351  0.47906817  0.58057639  1
  O  O66  1  0.31943587  0.84242794  0.26267881  1
  O  O67  1  0.50661586  0.67323812  0.26641055  1
  O  O68  1  0.16030795  0.49004443  0.26393604  1
  O  O69  1  0.31543337  0.46855705  0.74315471  1
  O  O70  1  0.14918827  0.68753174  0.74458739  1
  O  O71  1  0.52195975  0.85582004  0.74059060  1
loop_
_geom_bond_atom_site_label_1
_geom_bond_atom_site_label_2
_geom_bond_distance
_geom_bond_site_symmetry_2
Na0 O52 2.394962 1_555
Na0 O68 2.403720 1_655
Na0 O51 2.498986 1_555
Na0 O30 2.528968 1_655
Na0 O66 2.533311 1_655
Na0 O15 2.726257 1_555
Na0 O1 2.781806 1_555
Na0 O11 2.858126 1_655
Na1 O49 2.362486 1_555
Na1 O71 2.366359 1_545
Na1 O48 2.487885 1_555
Na1 O70 2.544186 1_545
Na1 O34 2.617344 1_545
Na1 O13 2.698141 1_555
Na1 O3 2.774929 1_555
Na2 O42 2.372146 1_565
Na2 O64 2.386738 1_555
Na2 O63 2.432196 1_555
Na2 O6 2.457395 1_555
Na2 O44 2.506574 1_555
Na2 O27 2.773347 1_555
Na3 O61 2.364783 1_555
Na3 O47 2.394100 1_555
Na3 O46 2.418289 1_455
Na3 O60 2.465479 1_555
Na3 O10 2.518136 1_555
Na3 O25 2.778718 1_554
Na4 O39 2.373594 1_555
Na4 O56 2.377713 1_555
Na4 O40 2.450097 1_545
Na4 O54 2.476407 1_555
Na4 O18 2.659152 1_556
Na4 O3 2.867198 1_555
Na4 O25 2.934942 1_555
Na5 O36 2.397549 1_655
Na5 O59 2.407260 1_555
Na5 O58 2.476647 1_555
Na5 O37 2.498393 1_555
Na5 O22 2.683291 1_555
Na5 O1 2.725224 1_555
Na5 O27 2.760568 1_555
Na5 O32 2.871663 1_555
Na6 O43 2.445812 1_565
Na6 O36 2.552725 1_555
Na6 O44 2.622481 1_455
Na6 O38 2.648750 1_565
Na6 O42 2.715755 1_465
Na6 O37 2.852198 1_455
Na7 O40 2.419417 1_554
Na7 O45 2.503679 1_455
Na7 O41 2.551739 1_454
Na7 O47 2.653234 1_565
Na7 O39 2.693654 1_564
Na7 O46 2.837593 1_465
Na8 O55 2.401635 1_555
Na8 O48 2.516312 1_555
Na8 O56 2.535154 1_555
Na8 O50 2.644743 1_555
Na8 O54 2.716097 1_555
Na8 O49 2.789797 1_555
Na9 O52 2.432083 1_555
Na9 O57 2.461937 1_555
Na9 O53 2.501615 1_555
Na9 O59 2.562892 1_555
Na9 O58 2.617891 1_555
Na9 O51 2.685434 1_555
Na10 O60 2.420248 1_555
Na10 O67 2.470916 1_555
Na10 O62 2.534160 1_555
Na10 O68 2.622102 1_555
Na10 O61 2.687777 1_555
Na10 O66 2.690837 1_555
Na11 O69 2.341983 1_555
Na11 O64 2.477537 1_555
Na11 O71 2.493723 1_555
Na11 O65 2.577204 1_555
Na11 O70 2.648912 1_555
Na11 O63 2.806949 1_555
Ga0 O37 1.939987 1_555
Ga0 O2 1.942110 1_565
Ga0 O1 1.963113 1_555
Ga0 O36 2.082270 1_655
Ga0 O38 2.156062 1_665
Ga0 O0 2.191235 1_665
Ga1 O7 1.920905 1_565
Ga1 O6 1.984469 1_455
Ga1 O43 1.998192 1_565
Ga1 O44 2.029480 1_455
Ga1 O8 2.030549 1_555
Ga1 O42 2.209344 1_465
Ga2 O14 1.900540 1_555
Ga2 O13 1.907544 1_555
Ga2 O49 1.941287 1_555
Ga2 O48 2.021523 1_555
Ga2 O12 2.058480 1_555
Ga2 O50 2.091994 1_555
Ga3 O15 1.914693 1_555
Ga3 O17 1.915024 1_555
Ga3 O51 1.971737 1_555
Ga3 O16 2.101162 1_555
Ga3 O52 2.169815 1_555
Ga3 O53 2.203182 1_555
Ga4 O21 1.957773 1_555
Ga4 O22 1.993961 1_555
Ga4 O57 2.024456 1_555
Ga4 O23 2.055634 1_555
Ga4 O59 2.128195 1_555
Ga4 O58 2.219680 1_555
Ga5 O67 1.968491 1_555
Ga5 O31 1.981435 1_555
Ga5 O30 1.991276 1_555
Ga5 O68 2.025692 1_555
Ga5 O32 2.076215 1_555
Ga5 O66 2.113106 1_555
O0 S0 1.477348 1_555
O1 P0 1.567486 1_555
O2 P1 1.549324 1_655
O3 P2 1.552683 1_555
O3 Y0 2.185131 1_455
O4 S1 1.474034 1_555
O4 Y0 2.270038 1_565
O5 P3 1.531280 1_555
O5 Y0 2.155194 1_555
O6 P3 1.552813 1_565
O7 P2 1.537923 1_555
O8 S1 1.473322 1_455
O9 P0 1.526588 1_555
O9 Y1 2.190300 1_655
O10 P1 1.540844 1_555
O10 Y1 2.212614 1_545
O11 S0 1.485965 1_565
O11 Y1 2.214297 1_555
O12 S2 1.469651 1_555
O13 P4 1.549296 1_555
O14 P5 1.530806 1_555
O15 P6 1.560008 1_555
O16 S3 1.468589 1_555
O17 P7 1.545610 1_555
O18 P7 1.544049 1_555
O18 Y2 2.181019 1_554
O19 P6 1.527244 1_555
O19 Y2 2.139144 1_554
O20 S3 1.476727 1_555
O20 Y2 2.197658 1_554
O21 P4 1.545382 1_555
O22 P5 1.564113 1_555
O23 S2 1.488994 1_555
O24 S4 1.468900 1_555
O24 Y3 2.261568 1_556
O25 P8 1.551358 1_555
O25 Y3 2.182950 1_556
O26 P9 1.536036 1_555
O26 Y3 2.158003 1_556
O27 P10 1.550782 1_555
O27 Y4 2.198410 1_555
O28 S5 1.476267 1_555
O28 Y4 2.271016 1_555
O29 P11 1.528046 1_555
O29 Y4 2.154532 1_555
O30 P11 1.556223 1_555
O31 P10 1.547266 1_555
O32 S5 1.489148 1_555
O33 P8 1.534925 1_555
O33 Y5 2.143601 1_555
O34 P9 1.543501 1_555
O34 Y5 2.189289 1_555
O35 S4 1.474063 1_555
O35 Y5 2.216288 1_555
O36 P11 1.569095 1_555
O37 P10 1.567053 1_555
O38 S5 1.477565 1_555
O39 P8 1.546351 1_555
O39 Y0 2.203381 1_455
O40 P9 1.543188 1_555
O40 Y0 2.276647 1_465
O41 S4 1.465388 1_555
O41 Y0 2.292266 1_565
O42 S2 1.493498 1_555
O43 P4 1.551081 1_555
O44 P5 1.578088 1_555
O45 P6 1.525239 1_555
O45 Y1 2.205575 1_655
O46 S3 1.484167 1_555
O46 Y1 2.286343 1_645
O47 P7 1.552262 1_555
O47 Y1 2.236130 1_545
O48 P3 1.557425 1_555
O49 P2 1.557415 1_555
O50 S1 1.471158 1_555
O51 P0 1.570906 1_555
O52 P1 1.570737 1_655
O53 S0 1.480290 1_555
O54 S4 1.478713 1_555
O54 Y2 2.308155 1_555
O55 P8 1.525126 1_655
O55 Y2 2.211540 1_555
O56 P9 1.549975 1_545
O56 Y2 2.242914 1_555
O57 P10 1.552443 1_545
O58 S5 1.498945 1_555
O59 P11 1.575578 1_655
O60 P7 1.550492 1_555
O60 Y3 2.319663 1_555
O61 P6 1.551670 1_455
O61 Y3 2.216179 1_555
O62 S3 1.467595 1_565
O62 Y3 2.310695 1_555
O63 P4 1.555061 1_565
O63 Y4 2.205278 1_555
O64 P5 1.557740 1_555
O64 Y4 2.338968 1_555
O65 S2 1.476726 1_455
O65 Y4 2.287365 1_555
O66 S0 1.491796 1_565
O67 P0 1.539345 1_555
O68 P1 1.565781 1_555
O69 P2 1.528299 1_555
O69 Y5 2.226770 1_555
O70 S1 1.489531 1_455
O70 Y5 2.321748 1_555
O71 P3 1.558347 1_565
O71 Y5 2.297071 1_555
