# generated using pymatgen
data_CsBrO4
_symmetry_space_group_name_H-M   'P 1'
_cell_length_a   8.64300606
_cell_length_b   8.64300606
_cell_length_c   8.64300606
_cell_angle_alpha   140.27635094
_cell_angle_beta   140.27635094
_cell_angle_gamma   57.43393866
_symmetry_Int_Tables_number   1
_chemical_formula_structural   CsBrO4
_chemical_formula_sum   'Cs2 Br2 O8'
_cell_volume   261.44629833
_cell_formula_units_Z   2
loop_
 _symmetry_equiv_pos_site_id
 _symmetry_equiv_pos_as_xyz
  1  'x, y, z'
loop_
 _atom_site_type_symbol
 _atom_site_label
 _atom_site_symmetry_multiplicity
 _atom_site_fract_x
 _atom_site_fract_y
 _atom_site_fract_z
 _atom_site_occupancy
  Cs  Cs0  1  0.00000000  0.00000000  0.00000000  1
  Cs  Cs1  1  0.75000000  0.25000000  0.50000000  1
  Br  Br0  1  0.50000000  0.50000000  0.00000000  1
  Br  Br1  1  0.25000000  0.75000000  0.50000000  1
  O  O0  1  0.56169100  0.32984900  0.76815800  1
  O  O1  1  0.07984900  0.81169100  0.26815800  1
  O  O2  1  0.54353300  0.81169100  0.73184200  1
  O  O3  1  0.56169100  0.79353300  0.23184200  1
  O  O4  1  0.18830900  0.45646700  0.26815800  1
  O  O5  1  0.20646700  0.43830900  0.76815800  1
  O  O6  1  0.67015100  0.43830900  0.23184200  1
  O  O7  1  0.18830900  0.92015100  0.73184200  1
loop_
_geom_bond_atom_site_label_1
_geom_bond_atom_site_label_2
_geom_bond_distance
_geom_bond_site_symmetry_2
Cs0 O4 3.260343 1_555
Cs0 O7 3.260343 1_544
Cs0 O1 3.260343 1_545
Cs0 O2 3.260343 1_444
Cs0 O3 3.460906 1_545
Cs0 O3 3.460906 1_444
Cs0 O0 3.460906 1_555
Cs0 O5 3.460906 1_544
Cs0 O6 3.460906 1_444
Cs0 O0 3.460906 1_454
Cs0 O5 3.460906 1_555
Cs0 O6 3.460906 1_455
Cs1 O5 3.260343 1_655
Cs1 O6 3.260343 1_555
Cs1 O0 3.260343 1_555
Cs1 O3 3.260343 1_545
Cs1 O2 3.460906 1_544
Cs1 O2 3.460906 1_555
Cs1 O1 3.460906 1_656
Cs1 O4 3.460906 1_555
Cs1 O7 3.460906 1_544
Cs1 O1 3.460906 1_645
Cs1 O4 3.460906 1_656
Cs1 O7 3.460906 1_645
Br0 O3 1.651852 1_555
Br0 O0 1.651852 1_554
Br0 O6 1.651852 1_555
Br0 O5 1.651852 1_554
Br1 O2 1.651852 1_555
Br1 O1 1.651852 1_555
Br1 O7 1.651852 1_555
Br1 O4 1.651852 1_555
