# generated using pymatgen
data_Na3CaMgP(SO6)2
_symmetry_space_group_name_H-M   'P 1'
_cell_length_a   9.13716196
_cell_length_b   9.15614076
_cell_length_c   22.84508752
_cell_angle_alpha   89.78496748
_cell_angle_beta   89.97048332
_cell_angle_gamma   119.89116337
_symmetry_Int_Tables_number   1
_chemical_formula_structural   Na3CaMgP(SO6)2
_chemical_formula_sum   'Na18 Ca6 Mg6 P6 S12 O72'
_cell_volume   1656.98199928
_cell_formula_units_Z   6
loop_
 _symmetry_equiv_pos_site_id
 _symmetry_equiv_pos_as_xyz
  1  'x, y, z'
loop_
 _atom_site_type_symbol
 _atom_site_label
 _atom_site_symmetry_multiplicity
 _atom_site_fract_x
 _atom_site_fract_y
 _atom_site_fract_z
 _atom_site_occupancy
  Na  Na0  1  0.62581375  0.99912978  0.25412089  1
  Na  Na1  1  0.00861279  0.64401881  0.24476027  1
  Na  Na2  1  0.63896711  0.64685647  0.74168620  1
  Na  Na3  1  0.37403743  0.00169642  0.75218179  1
  Na  Na4  1  0.31355812  0.34046963  0.58690458  1
  Na  Na5  1  0.66861946  0.95902309  0.58563875  1
  Na  Na6  1  0.29027953  0.95852057  0.08599450  1
  Na  Na7  1  0.02664735  0.34017524  0.08818682  1
  Na  Na8  1  0.98165797  0.67500670  0.92341991  1
  Na  Na9  1  0.68540399  0.02690657  0.90942569  1
  Na  Na10  1  0.33824955  0.02854775  0.40724091  1
  Na  Na11  1  0.69549551  0.67589731  0.42031120  1
  Na  Na12  1  0.97998450  0.98864038  0.49956943  1
  Na  Na13  1  0.00767840  0.98856854  0.00139854  1
  Na  Na14  1  0.66058165  0.31538597  0.83213579  1
  Na  Na15  1  0.65661653  0.31743416  0.33118690  1
  Na  Na16  1  0.33540681  0.66141278  0.16938414  1
  Na  Na17  1  0.32742988  0.66344164  0.66616901  1
  Ca  Ca0  1  0.00459677  0.01090290  0.84517536  1
  Ca  Ca1  1  0.65877879  0.33713696  0.98828887  1
  Ca  Ca2  1  0.67855276  0.33674129  0.48345906  1
  Ca  Ca3  1  0.33694249  0.66810399  0.01897899  1
  Ca  Ca4  1  0.33441222  0.66885530  0.51524671  1
  Ca  Ca5  1  0.32994467  0.66383990  0.81512871  1
  Mg  Mg0  1  0.00540149  0.01004333  0.34576382  1
  Mg  Mg1  1  0.98717219  0.98905579  0.65102669  1
  Mg  Mg2  1  0.00154429  0.98713790  0.15432097  1
  Mg  Mg3  1  0.67663691  0.33734651  0.68111512  1
  Mg  Mg4  1  0.65840368  0.33657297  0.18416893  1
  Mg  Mg5  1  0.33666397  0.67287657  0.31679273  1
  P  P0  1  0.29916406  0.00027439  0.25080653  1
  P  P1  1  0.69939148  0.00861109  0.74624282  1
  P  P2  1  0.67281762  0.63576966  0.58624943  1
  P  P3  1  0.96269052  0.63635347  0.08840555  1
  P  P4  1  0.33325434  0.97223656  0.91661171  1
  P  P5  1  0.63944446  0.96442498  0.41183183  1
  S  S0  1  0.70635819  0.70645465  0.25132280  1
  S  S1  1  0.00041330  0.29577523  0.24844817  1
  S  S2  1  0.30727371  0.29729323  0.74271806  1
  S  S3  1  0.99228820  0.69865057  0.74688759  1
  S  S4  1  0.96499440  0.32472526  0.58805133  1
  S  S5  1  0.36373602  0.03976903  0.58694030  1
  S  S6  1  0.67722660  0.04035164  0.08891551  1
  S  S7  1  0.35822531  0.32275592  0.08983802  1
  S  S8  1  0.63896003  0.66743887  0.91410165  1
  S  S9  1  0.02781993  0.36173098  0.91952608  1
  S  S10  1  0.32472348  0.36504026  0.41344077  1
  S  S11  1  0.03777845  0.67527173  0.41028511  1
  O  O0  1  0.21503201  0.02075772  0.30660506  1
  O  O1  1  0.81000065  0.78294512  0.30472718  1
  O  O2  1  0.97462479  0.18444741  0.29902714  1
  O  O3  1  0.23221226  0.19880731  0.79640099  1
  O  O4  1  0.96839960  0.76505455  0.80338168  1
  O  O5  1  0.78648096  0.02493449  0.80581207  1
  O  O6  1  0.79797753  0.98746747  0.69524858  1
  O  O7  1  0.20288119  0.21063747  0.69095551  1
  O  O8  1  0.01641727  0.81733948  0.69904094  1
  O  O9  1  0.78886175  0.81942493  0.20039975  1
  O  O10  1  0.02110289  0.21992219  0.19384802  1
  O  O11  1  0.18719549  0.97235542  0.19652492  1
  O  O12  1  0.87597803  0.34306538  0.63834558  1
  O  O13  1  0.47692354  0.12950638  0.63678960  1
  O  O14  1  0.65327808  0.52015843  0.63872119  1
  O  O15  1  0.86373064  0.51846036  0.14021936  1
  O  O16  1  0.65296084  0.13134285  0.13826799  1
  O  O17  1  0.46777748  0.34139359  0.13940279  1
  O  O18  1  0.42632065  0.29670700  0.03467627  1
  O  O19  1  0.87650251  0.56390903  0.02894556  1
  O  O20  1  0.70085067  0.13411650  0.03308802  1
  O  O21  1  0.43586745  0.13550255  0.53155510  1
  O  O22  1  0.68666296  0.56012162  0.52747966  1
  O  O23  1  0.86790349  0.29826007  0.53358125  1
  O  O24  1  0.54839133  0.67828260  0.96548944  1
  O  O25  1  0.12101596  0.43839939  0.97394559  1
  O  O26  1  0.31757379  0.86751314  0.97239474  1
  O  O27  1  0.56691732  0.86446097  0.47006494  1
  O  O28  1  0.30395800  0.42962619  0.47042690  1
  O  O29  1  0.13489240  0.69321889  0.46377490  1
  O  O30  1  0.12186500  0.65431654  0.35817919  1
  O  O31  1  0.52016199  0.86755087  0.35998024  1
  O  O32  1  0.34180913  0.47935069  0.36508627  1
  O  O33  1  0.11787996  0.46308117  0.86784426  1
  O  O34  1  0.34937736  0.88399100  0.86087708  1
  O  O35  1  0.54626650  0.65135424  0.85942331  1
  O  O36  1  0.02433413  0.83191024  0.40619085  1
  O  O37  1  0.81555912  0.97888550  0.40431883  1
  O  O38  1  0.17997144  0.19061400  0.40651496  1
  O  O39  1  0.99856059  0.18683010  0.91647249  1
  O  O40  1  0.16839434  0.98106013  0.91471173  1
  O  O41  1  0.80687810  0.82602708  0.91359776  1
  O  O42  1  0.98709217  0.17326484  0.59347092  1
  O  O43  1  0.19549617  0.02543240  0.59412756  1
  O  O44  1  0.82534965  0.81822350  0.59111727  1
  O  O45  1  0.99199391  0.81855281  0.09337810  1
  O  O46  1  0.83168537  0.02704227  0.09638846  1
  O  O47  1  0.18553699  0.17138930  0.09584773  1
  O  O48  1  0.66855477  0.16030181  0.73969738  1
  O  O49  1  0.47940224  0.31669097  0.73874030  1
  O  O50  1  0.83823989  0.53136847  0.73938436  1
  O  O51  1  0.69446728  0.53873080  0.24399853  1
  O  O52  1  0.84439090  0.31293215  0.24500345  1
  O  O53  1  0.48270225  0.15343762  0.24441186  1
  O  O54  1  0.66944998  0.52242867  0.91723888  1
  O  O55  1  0.85947765  0.35215162  0.91992990  1
  O  O56  1  0.49830305  0.14522109  0.91840623  1
  O  O57  1  0.64421649  0.13684395  0.41445963  1
  O  O58  1  0.48453336  0.35444769  0.41449588  1
  O  O59  1  0.86254576  0.52820896  0.41339242  1
  O  O60  1  0.33740888  0.47443142  0.08661167  1
  O  O61  1  0.14178645  0.64864966  0.08904104  1
  O  O62  1  0.52222024  0.87123927  0.08635785  1
  O  O63  1  0.35034856  0.87085070  0.58403831  1
  O  O64  1  0.50618818  0.64844313  0.58650078  1
  O  O65  1  0.13736126  0.47602591  0.58427445  1
  O  O66  1  0.31543112  0.83533299  0.25537033  1
  O  O67  1  0.53504783  0.68782494  0.25670981  1
  O  O68  1  0.14915372  0.46865434  0.25523518  1
  O  O69  1  0.32797812  0.46962321  0.74602783  1
  O  O70  1  0.14693451  0.68363587  0.74830412  1
  O  O71  1  0.52100343  0.84223687  0.74589748  1
loop_
_geom_bond_atom_site_label_1
_geom_bond_atom_site_label_2
_geom_bond_distance
_geom_bond_site_symmetry_2
Na0 O53 2.365303 1_565
Na0 O66 2.460352 1_555
Na0 O67 2.541330 1_555
Na0 O52 2.561860 1_565
Na0 O31 2.654878 1_555
Na0 O16 2.864932 1_565
Na0 O2 2.952244 1_565
Na0 O9 2.981533 1_555
Na1 O66 2.468964 1_555
Na1 O68 2.517338 1_555
Na1 O51 2.531991 1_455
Na1 O52 2.628210 1_455
Na1 O15 2.699042 1_455
Na1 O30 2.775009 1_555
Na1 O11 2.828180 1_555
Na2 O69 2.473895 1_555
Na2 O71 2.508852 1_555
Na2 O50 2.521013 1_555
Na2 O49 2.622522 1_555
Na2 O14 2.658432 1_555
Na2 O35 2.826120 1_555
Na2 O6 2.901707 1_555
Na2 O4 2.997874 1_555
Na3 O48 2.352236 1_555
Na3 O71 2.431274 1_545
Na3 O49 2.562209 1_555
Na3 O70 2.602635 1_545
Na3 O34 2.667511 1_545
Na3 O13 2.842583 1_555
Na3 O3 2.881043 1_555
Na4 O64 2.470322 1_555
Na4 O65 2.475318 1_555
Na4 O43 2.531051 1_555
Na4 O42 2.590464 1_455
Na4 O7 2.619984 1_555
Na4 O28 2.794640 1_555
Na4 O21 2.911464 1_555
Na4 O14 2.944766 1_555
Na5 O44 2.359569 1_555
Na5 O64 2.466322 1_555
Na5 O42 2.580984 1_565
Na5 O63 2.602000 1_555
Na5 O6 2.726948 1_555
Na5 O27 2.793223 1_555
Na6 O45 2.369735 1_455
Na6 O61 2.461123 1_555
Na6 O47 2.574433 1_565
Na6 O62 2.611151 1_555
Na6 O11 2.719945 1_555
Na6 O26 2.777460 1_554
Na6 O18 2.939843 1_565
Na7 O60 2.468928 1_555
Na7 O61 2.474550 1_555
Na7 O46 2.516684 1_455
Na7 O47 2.600231 1_555
Na7 O10 2.639287 1_555
Na7 O25 2.751507 1_554
Na7 O20 2.903356 1_455
Na7 O15 2.954382 1_455
Na8 O40 2.456299 1_655
Na8 O54 2.477744 1_555
Na8 O55 2.589172 1_555
Na8 O41 2.590715 1_555
Na8 O19 2.602818 1_556
Na8 O4 2.880539 1_555
Na8 O26 2.899213 1_655
Na9 O56 2.446522 1_555
Na9 O39 2.486690 1_555
Na9 O5 2.543807 1_555
Na9 O41 2.580218 1_545
Na9 O55 2.596259 1_555
Na9 O34 2.894697 1_545
Na9 O20 2.974510 1_556
Na10 O57 2.462701 1_555
Na10 O36 2.514455 1_545
Na10 O38 2.536254 1_555
Na10 O0 2.545990 1_555
Na10 O58 2.597462 1_555
Na10 O31 2.924676 1_545
Na10 O29 2.971366 1_545
Na10 O21 2.995479 1_555
Na11 O37 2.447807 1_555
Na11 O59 2.498392 1_555
Na11 O58 2.597003 1_555
Na11 O36 2.624906 1_655
Na11 O22 2.649401 1_555
Na11 O27 2.772739 1_555
Na11 O1 2.825480 1_555
Na12 O44 2.565182 1_555
Na12 O37 2.621301 1_555
Na12 O36 2.715875 1_655
Na12 O42 2.716910 1_565
Na12 O38 2.806516 1_665
Na12 O43 2.829519 1_665
Na13 O40 2.486300 1_554
Na13 O45 2.571377 1_455
Na13 O41 2.628518 1_454
Na13 O39 2.681588 1_464
Na13 O47 2.723615 1_565
Na13 O46 2.825932 1_465
Na14 O56 2.486305 1_555
Na14 O48 2.570337 1_555
Na14 O55 2.614921 1_555
Na14 O54 2.693488 1_555
Na14 O49 2.704855 1_555
Na14 O50 2.793036 1_555
Na15 O57 2.481006 1_555
Na15 O53 2.521324 1_555
Na15 O58 2.596573 1_555
Na15 O52 2.624781 1_555
Na15 O59 2.683891 1_555
Na15 O51 2.731867 1_555
Na16 O61 2.512223 1_555
Na16 O60 2.561742 1_555
Na16 O66 2.596285 1_555
Na16 O68 2.614314 1_555
Na16 O62 2.627362 1_555
Na16 O67 2.633168 1_555
Na17 O64 2.494304 1_555
Na17 O71 2.503116 1_555
Na17 O69 2.542099 1_555
Na17 O65 2.553051 1_555
Na17 O70 2.564814 1_555
Na17 O63 2.597541 1_555
Ca0 O3 2.223473 1_555
Ca0 O5 2.247941 1_455
Ca0 O40 2.290184 1_545
Ca0 O39 2.314923 1_455
Ca0 O4 2.315707 1_445
Ca0 O41 2.345567 1_445
Ca1 O18 2.232154 1_556
Ca1 O19 2.242962 1_556
Ca1 O56 2.289519 1_555
Ca1 O54 2.310129 1_555
Ca1 O20 2.312794 1_556
Ca1 O55 2.358973 1_555
Ca2 O23 2.243929 1_555
Ca2 O22 2.250453 1_555
Ca2 O57 2.320114 1_555
Ca2 O21 2.330101 1_555
Ca2 O59 2.345312 1_555
Ca2 O58 2.436921 1_555
Ca3 O26 2.192070 1_554
Ca3 O24 2.247652 1_554
Ca3 O25 2.292794 1_554
Ca3 O61 2.334867 1_555
Ca3 O60 2.349216 1_555
Ca3 O62 2.362311 1_555
Ca4 O27 2.231104 1_555
Ca4 O29 2.271899 1_555
Ca4 O28 2.309408 1_555
Ca4 O64 2.332569 1_555
Ca4 O65 2.377710 1_555
Ca4 O63 2.380178 1_555
Ca5 O34 2.201424 1_555
Ca5 O33 2.239352 1_555
Ca5 O35 2.273823 1_555
Ca5 O71 2.313598 1_555
Ca5 O70 2.337152 1_555
Ca5 O69 2.375682 1_555
Mg0 O2 2.050403 1_455
Mg0 O0 2.071004 1_555
Mg0 O37 2.093140 1_445
Mg0 O38 2.143580 1_555
Mg0 O1 2.169408 1_445
Mg0 O36 2.204623 1_545
Mg1 O6 1.995562 1_555
Mg1 O8 2.037812 1_655
Mg1 O44 2.054026 1_555
Mg1 O42 2.135000 1_565
Mg1 O43 2.187728 1_665
Mg1 O7 2.205241 1_665
Mg2 O11 2.013697 1_555
Mg2 O45 2.051982 1_455
Mg2 O9 2.062546 1_455
Mg2 O47 2.147269 1_565
Mg2 O46 2.203986 1_465
Mg2 O10 2.241695 1_565
Mg3 O14 2.032102 1_555
Mg3 O12 2.043937 1_555
Mg3 O48 2.070902 1_555
Mg3 O50 2.124502 1_555
Mg3 O13 2.128840 1_555
Mg3 O49 2.161617 1_555
Mg4 O17 2.039550 1_555
Mg4 O15 2.042723 1_555
Mg4 O16 2.134206 1_555
Mg4 O53 2.140191 1_555
Mg4 O51 2.194182 1_555
Mg4 O52 2.287591 1_555
Mg5 O31 1.999484 1_555
Mg5 O32 2.104194 1_555
Mg5 O30 2.106956 1_555
Mg5 O66 2.119300 1_555
Mg5 O67 2.221995 1_555
Mg5 O68 2.288805 1_555
O0 P0 1.547746 1_555
O1 S0 1.490746 1_555
O2 S1 1.476882 1_655
O3 S2 1.470368 1_555
O4 S3 1.490258 1_555
O5 P1 1.546484 1_555
O6 P1 1.542884 1_565
O7 S2 1.480405 1_555
O8 S3 1.475265 1_455
O9 S0 1.484738 1_555
O10 S1 1.486973 1_555
O11 P0 1.546873 1_565
O12 S4 1.465099 1_555
O13 S5 1.484206 1_555
O14 P2 1.546360 1_555
O15 P3 1.549322 1_555
O16 S6 1.485038 1_555
O17 S7 1.464788 1_555
O18 S7 1.476962 1_555
O19 P3 1.546785 1_555
O20 S6 1.488977 1_555
O21 S5 1.489516 1_555
O22 P2 1.546763 1_555
O23 S4 1.477610 1_555
O24 S8 1.467865 1_555
O25 S9 1.474905 1_555
O26 P4 1.554886 1_555
O27 P5 1.559522 1_555
O28 S10 1.482526 1_555
O29 S11 1.471363 1_555
O30 S11 1.480468 1_555
O31 P5 1.556752 1_555
O32 S10 1.472548 1_555
O33 S9 1.470358 1_555
O34 P4 1.556250 1_555
O35 S8 1.475636 1_555
O36 S11 1.501795 1_555
O37 P5 1.556811 1_555
O38 S10 1.490552 1_555
O39 S9 1.488291 1_655
O40 P4 1.548821 1_555
O41 S8 1.497320 1_555
O42 S4 1.502370 1_555
O43 S5 1.485171 1_555
O44 P2 1.557733 1_555
O45 P3 1.556882 1_555
O46 S6 1.485704 1_555
O47 S7 1.499360 1_555
O48 P1 1.555419 1_555
O49 S2 1.494895 1_555
O50 S3 1.486609 1_555
O51 S0 1.494600 1_555
O52 S1 1.512100 1_655
O53 P0 1.566697 1_555
O54 S8 1.487821 1_555
O55 S9 1.496415 1_655
O56 P4 1.550625 1_545
O57 P5 1.558807 1_545
O58 S10 1.511083 1_555
O59 S11 1.494018 1_655
O60 S7 1.494254 1_555
O61 P3 1.583411 1_455
O62 S6 1.490603 1_565
O63 S5 1.491196 1_565
O64 P2 1.583557 1_555
O65 S4 1.493774 1_455
O66 P0 1.592581 1_565
O67 S0 1.492614 1_555
O68 S1 1.494844 1_555
O69 S2 1.494856 1_555
O70 S3 1.486684 1_455
O71 P1 1.581992 1_565
