# generated using pymatgen
data_Na6Mg3Si2Ge(SO6)4
_symmetry_space_group_name_H-M   'P 1'
_cell_length_a   8.92977540
_cell_length_b   8.95446454
_cell_length_c   22.10134302
_cell_angle_alpha   90.45851074
_cell_angle_beta   88.73262739
_cell_angle_gamma   120.33877447
_symmetry_Int_Tables_number   1
_chemical_formula_structural   Na6Mg3Si2Ge(SO6)4
_chemical_formula_sum   'Na18 Mg9 Si6 Ge3 S12 O72'
_cell_volume   1524.85154399
_cell_formula_units_Z   3
loop_
 _symmetry_equiv_pos_site_id
 _symmetry_equiv_pos_as_xyz
  1  'x, y, z'
loop_
 _atom_site_type_symbol
 _atom_site_label
 _atom_site_symmetry_multiplicity
 _atom_site_fract_x
 _atom_site_fract_y
 _atom_site_fract_z
 _atom_site_occupancy
  Na  Na0  1  0.63294974  0.99652114  0.25779214  1
  Na  Na1  1  0.36785709  0.36389872  0.24396318  1
  Na  Na2  1  0.63806440  0.64591215  0.74285224  1
  Na  Na3  1  0.31060593  0.34121458  0.58814116  1
  Na  Na4  1  0.02429957  0.69949433  0.58378329  1
  Na  Na5  1  0.66561296  0.94647932  0.58456749  1
  Na  Na6  1  0.29833384  0.97405680  0.07684450  1
  Na  Na7  1  0.05221977  0.33792185  0.07666064  1
  Na  Na8  1  0.97970927  0.67396264  0.91664141  1
  Na  Na9  1  0.70549345  0.03392555  0.90601142  1
  Na  Na10  1  0.31566764  0.28934307  0.91818927  1
  Na  Na11  1  0.69604652  0.68278810  0.42100833  1
  Na  Na12  1  0.98716850  0.99828729  0.49546564  1
  Na  Na13  1  0.01103305  0.00978003  0.99703687  1
  Na  Na14  1  0.66793621  0.30911054  0.82657722  1
  Na  Na15  1  0.67307639  0.32363129  0.33697829  1
  Na  Na16  1  0.33599647  0.65633587  0.16288895  1
  Na  Na17  1  0.34632204  0.67211514  0.67062602  1
  Mg  Mg0  1  0.99828577  0.00607072  0.35299419  1
  Mg  Mg1  1  0.99956107  0.01196824  0.84993750  1
  Mg  Mg2  1  0.97817308  0.98470592  0.65400394  1
  Mg  Mg3  1  0.00767247  0.00215099  0.14673295  1
  Mg  Mg4  1  0.66013264  0.32364085  0.68796162  1
  Mg  Mg5  1  0.66575507  0.34215044  0.18282029  1
  Mg  Mg6  1  0.33267948  0.66073368  0.01755340  1
  Mg  Mg7  1  0.34691068  0.66958239  0.51477062  1
  Mg  Mg8  1  0.34011972  0.68457367  0.32225099  1
  Si  Si0  1  0.69477707  0.99846645  0.75307495  1
  Si  Si1  1  0.66427482  0.61884808  0.58397117  1
  Si  Si2  1  0.37846508  0.34175561  0.08579224  1
  Si  Si3  1  0.04249187  0.37944213  0.91912453  1
  Si  Si4  1  0.33017548  0.95923155  0.92161138  1
  Si  Si5  1  0.63546980  0.97452254  0.41828687  1
  Ge  Ge0  1  0.65438760  0.31615129  0.97860277  1
  Ge  Ge1  1  0.67442326  0.33031156  0.48295604  1
  Ge  Ge2  1  0.32111487  0.69102945  0.81704987  1
  S  S0  1  0.29090802  0.99477863  0.24927391  1
  S  S1  1  0.70980224  0.70600497  0.25092300  1
  S  S2  1  0.00123871  0.29691966  0.24917587  1
  S  S3  1  0.29282157  0.29608545  0.74981776  1
  S  S4  1  0.00303841  0.70617864  0.75071273  1
  S  S5  1  0.95845174  0.33565948  0.58258068  1
  S  S6  1  0.37456721  0.04331058  0.58331225  1
  S  S7  1  0.95420856  0.62434026  0.08321540  1
  S  S8  1  0.66810432  0.04159348  0.08440116  1
  S  S9  1  0.62567919  0.66274237  0.91676064  1
  S  S10  1  0.33329577  0.36936634  0.41619939  1
  S  S11  1  0.03837968  0.66400055  0.41840337  1
  O  O0  1  0.20456920  0.02265558  0.30239640  1
  O  O1  1  0.80838012  0.78727063  0.30620441  1
  O  O2  1  0.97157277  0.18362136  0.30191271  1
  O  O3  1  0.21161664  0.19104243  0.80477498  1
  O  O4  1  0.98274353  0.78956515  0.80545373  1
  O  O5  1  0.80250281  0.01077449  0.81209963  1
  O  O6  1  0.76076561  0.94362034  0.69115813  1
  O  O7  1  0.19234989  0.21150376  0.69459399  1
  O  O8  1  0.03467020  0.81043167  0.69508123  1
  O  O9  1  0.79435385  0.81810752  0.19745856  1
  O  O10  1  0.02832499  0.21815628  0.19306584  1
  O  O11  1  0.19415657  0.97742764  0.19365139  1
  O  O12  1  0.87636231  0.36286975  0.63586324  1
  O  O13  1  0.48755930  0.11944931  0.63502098  1
  O  O14  1  0.63653955  0.49868316  0.64126822  1
  O  O15  1  0.87103874  0.50918186  0.13556226  1
  O  O16  1  0.64354087  0.12521941  0.13864274  1
  O  O17  1  0.48194128  0.35590383  0.14589115  1
  O  O18  1  0.47777986  0.30190443  0.02339469  1
  O  O19  1  0.85420120  0.54560878  0.02648936  1
  O  O20  1  0.70579071  0.15543840  0.02793094  1
  O  O21  1  0.45619040  0.15572393  0.52742656  1
  O  O22  1  0.69803654  0.51814921  0.52086576  1
  O  O23  1  0.84402522  0.29389041  0.52755691  1
  O  O24  1  0.54650052  0.69538667  0.97062154  1
  O  O25  1  0.15565715  0.45679509  0.97782755  1
  O  O26  1  0.30564908  0.85056826  0.98162507  1
  O  O27  1  0.54762146  0.85518164  0.47750367  1
  O  O28  1  0.30449136  0.44571032  0.47162549  1
  O  O29  1  0.13228688  0.68051135  0.47404960  1
  O  O30  1  0.11949652  0.63571519  0.36437229  1
  O  O31  1  0.52636350  0.90381638  0.35605272  1
  O  O32  1  0.36145855  0.47913408  0.36195042  1
  O  O33  1  0.13636385  0.51673109  0.85885025  1
  O  O34  1  0.38065245  0.87747656  0.86183593  1
  O  O35  1  0.51703556  0.62624056  0.86240757  1
  O  O36  1  0.01679480  0.81701988  0.41199074  1
  O  O37  1  0.82447365  0.98784789  0.41225290  1
  O  O38  1  0.18552939  0.19304634  0.40957866  1
  O  O39  1  0.00853884  0.18604948  0.91061957  1
  O  O40  1  0.16317952  0.98001056  0.91065100  1
  O  O41  1  0.80303160  0.81253599  0.91028306  1
  O  O42  1  0.98529686  0.18540394  0.58728787  1
  O  O43  1  0.20350015  0.03323615  0.58990307  1
  O  O44  1  0.84295685  0.80948596  0.58132643  1
  O  O45  1  0.97049619  0.79627948  0.08964697  1
  O  O46  1  0.82410359  0.02548616  0.08860414  1
  O  O47  1  0.18652837  0.16051081  0.08336663  1
  O  O48  1  0.67049194  0.16298291  0.74571589  1
  O  O49  1  0.47168238  0.32512325  0.74584126  1
  O  O50  1  0.84551007  0.53482269  0.74557246  1
  O  O51  1  0.68864026  0.53060737  0.24626044  1
  O  O52  1  0.84128082  0.31006489  0.24404616  1
  O  O53  1  0.47149762  0.15265956  0.24611706  1
  O  O54  1  0.64236042  0.50281993  0.92267732  1
  O  O55  1  0.84389015  0.36725333  0.92656872  1
  O  O56  1  0.51461742  0.15662157  0.92207512  1
  O  O57  1  0.65101870  0.17430500  0.42826968  1
  O  O58  1  0.50092483  0.36581032  0.42077574  1
  O  O59  1  0.85500926  0.50473553  0.42120612  1
  O  O60  1  0.35170849  0.50708774  0.08035514  1
  O  O61  1  0.13216475  0.64833385  0.07943610  1
  O  O62  1  0.50872869  0.87319720  0.07781911  1
  O  O63  1  0.34367234  0.86488979  0.57566097  1
  O  O64  1  0.49017943  0.63548242  0.57853475  1
  O  O65  1  0.12957317  0.49585095  0.57308424  1
  O  O66  1  0.31066419  0.84011730  0.25370464  1
  O  O67  1  0.52955244  0.68295744  0.25527981  1
  O  O68  1  0.15989229  0.46892861  0.25604609  1
  O  O69  1  0.30729713  0.47030609  0.75457238  1
  O  O70  1  0.16261599  0.68690132  0.75451347  1
  O  O71  1  0.49291727  0.79870036  0.76090383  1
loop_
_geom_bond_atom_site_label_1
_geom_bond_atom_site_label_2
_geom_bond_distance
_geom_bond_site_symmetry_2
Na0 O31 2.334628 1_555
Na0 O67 2.473883 1_555
Na0 O52 2.479518 1_565
Na0 O53 2.481639 1_565
Na0 O66 2.487931 1_555
Na0 O2 2.808511 1_565
Na0 O16 2.863401 1_565
Na0 O9 2.935102 1_555
Na1 O17 2.390532 1_555
Na1 O51 2.474239 1_555
Na1 O68 2.478513 1_555
Na1 O67 2.479313 1_555
Na1 O53 2.491700 1_555
Na1 O32 2.806760 1_555
Na1 O10 2.879467 1_555
Na1 O0 2.934239 1_555
Na2 O71 2.338959 1_555
Na2 O49 2.479978 1_555
Na2 O50 2.508409 1_555
Na2 O69 2.558239 1_555
Na2 O6 2.579737 1_555
Na2 O14 2.591286 1_555
Na2 O35 2.805316 1_555
Na3 O64 2.298925 1_555
Na3 O43 2.420148 1_555
Na3 O42 2.508624 1_455
Na3 O7 2.587352 1_555
Na3 O65 2.633239 1_555
Na3 O28 2.757958 1_555
Na3 O14 2.795850 1_555
Na3 O21 2.884111 1_555
Na4 O44 2.282822 1_455
Na4 O65 2.445381 1_555
Na4 O63 2.464508 1_555
Na4 O43 2.584956 1_565
Na4 O29 2.626063 1_555
Na4 O8 2.631388 1_555
Na4 O12 2.849832 1_455
Na4 O22 2.902149 1_455
Na5 O64 2.413128 1_555
Na5 O44 2.444165 1_555
Na5 O6 2.526637 1_555
Na5 O42 2.562379 1_565
Na5 O27 2.566477 1_555
Na5 O63 2.595810 1_555
Na5 O13 2.924407 1_565
Na5 O23 2.961502 1_565
Na6 O47 2.340699 1_565
Na6 O26 2.384423 1_554
Na6 O62 2.462153 1_555
Na6 O61 2.517706 1_555
Na6 O45 2.539127 1_455
Na6 O11 2.729801 1_555
Na6 O18 2.793033 1_565
Na7 O60 2.317036 1_555
Na7 O25 2.390039 1_554
Na7 O47 2.433214 1_555
Na7 O61 2.496806 1_555
Na7 O46 2.505402 1_455
Na7 O10 2.757389 1_555
Na7 O20 2.900436 1_455
Na7 O15 3.007563 1_455
Na8 O40 2.381691 1_655
Na8 O55 2.386375 1_555
Na8 O41 2.457409 1_555
Na8 O54 2.600562 1_555
Na8 O19 2.663499 1_556
Na8 O4 2.668430 1_555
Na8 O33 2.729907 1_655
Na8 O26 2.921253 1_655
Na9 O5 2.279565 1_555
Na9 O39 2.339890 1_655
Na9 O56 2.469250 1_555
Na9 O41 2.539393 1_545
Na9 O55 2.630458 1_555
Na9 O34 2.707087 1_545
Na9 O20 2.897446 1_556
Na9 O24 2.979278 1_545
Na10 O40 2.397223 1_545
Na10 O39 2.420840 1_555
Na10 O54 2.559430 1_555
Na10 O56 2.591786 1_555
Na10 O3 2.676322 1_555
Na10 O18 2.737692 1_556
Na10 O25 2.841965 1_555
Na10 O35 2.887115 1_555
Na11 O37 2.376645 1_555
Na11 O58 2.469076 1_555
Na11 O36 2.487738 1_655
Na11 O59 2.616053 1_555
Na11 O22 2.669230 1_555
Na11 O1 2.701271 1_555
Na11 O27 2.767961 1_555
Na11 O32 2.930242 1_555
Na12 O37 2.340947 1_555
Na12 O44 2.421040 1_555
Na12 O36 2.544127 1_655
Na12 O38 2.562373 1_665
Na12 O42 2.626497 1_565
Na12 O43 2.782681 1_665
Na13 O40 2.409385 1_545
Na13 O47 2.423295 1_556
Na13 O39 2.495065 1_555
Na13 O46 2.642898 1_456
Na13 O41 2.652362 1_445
Na13 O45 2.702982 1_446
Na14 O48 2.213030 1_555
Na14 O56 2.494678 1_555
Na14 O50 2.549371 1_555
Na14 O49 2.583039 1_555
Na14 O55 2.632959 1_555
Na14 O54 2.809231 1_555
Na15 O57 2.378492 1_555
Na15 O59 2.481639 1_555
Na15 O58 2.526918 1_555
Na15 O52 2.556036 1_555
Na15 O53 2.635039 1_555
Na15 O51 2.694654 1_555
Na16 O60 2.296129 1_555
Na16 O62 2.566967 1_555
Na16 O61 2.595126 1_555
Na16 O68 2.602744 1_555
Na16 O67 2.635515 1_555
Na16 O66 2.662922 1_555
Na17 O71 2.357941 1_555
Na17 O64 2.489939 1_555
Na17 O69 2.493620 1_555
Na17 O70 2.495392 1_555
Na17 O63 2.736228 1_555
Na17 O65 2.815826 1_555
Mg0 O37 1.951564 1_545
Mg0 O2 2.069524 1_555
Mg0 O0 2.073881 1_655
Mg0 O38 2.096140 1_655
Mg0 O1 2.114822 1_545
Mg0 O36 2.218273 1_645
Mg1 O5 1.960078 1_555
Mg1 O3 2.006951 1_655
Mg1 O39 2.019912 1_655
Mg1 O40 2.128955 1_645
Mg1 O4 2.151342 1_545
Mg1 O41 2.194613 1_545
Mg2 O6 1.947166 1_555
Mg2 O8 2.086214 1_655
Mg2 O44 2.152070 1_555
Mg2 O7 2.170233 1_665
Mg2 O43 2.290192 1_665
Mg2 O42 2.308838 1_565
Mg3 O47 2.041545 1_555
Mg3 O11 2.085638 1_545
Mg3 O9 2.089292 1_445
Mg3 O10 2.107154 1_555
Mg3 O45 2.112694 1_445
Mg3 O46 2.196527 1_455
Mg4 O48 1.968887 1_555
Mg4 O14 1.983750 1_555
Mg4 O13 2.070271 1_555
Mg4 O49 2.096550 1_555
Mg4 O12 2.097724 1_555
Mg4 O50 2.197684 1_555
Mg5 O17 1.908050 1_555
Mg5 O15 1.964394 1_555
Mg5 O16 2.086846 1_555
Mg5 O51 2.117040 1_555
Mg5 O53 2.191440 1_555
Mg5 O52 2.219316 1_555
Mg6 O25 1.929780 1_554
Mg6 O26 2.005725 1_554
Mg6 O60 2.031126 1_555
Mg6 O24 2.033938 1_554
Mg6 O61 2.186833 1_555
Mg6 O62 2.212610 1_555
Mg7 O27 1.897432 1_555
Mg7 O64 2.048738 1_555
Mg7 O28 2.071154 1_555
Mg7 O65 2.172353 1_555
Mg7 O29 2.181715 1_555
Mg7 O63 2.209561 1_555
Mg8 O31 1.977699 1_555
Mg8 O30 1.998513 1_555
Mg8 O32 2.139543 1_555
Mg8 O66 2.173873 1_555
Mg8 O67 2.228492 1_555
Mg8 O68 2.319335 1_555
Ge0 O18 1.792526 1_556
Ge0 O56 1.843504 1_555
Ge0 O55 1.880322 1_555
Ge0 O20 2.045691 1_556
Ge0 O54 2.133909 1_555
Ge0 O19 2.206944 1_556
Ge1 O57 1.773467 1_555
Ge1 O22 1.789555 1_555
Ge1 O23 1.985432 1_555
Ge1 O21 2.017393 1_555
Ge1 O59 2.072392 1_555
Ge1 O58 2.233536 1_555
Ge2 O34 1.774798 1_555
Ge2 O71 1.806575 1_555
Ge2 O33 1.834570 1_555
Ge2 O70 1.986902 1_555
Ge2 O35 2.348322 1_555
Ge2 O69 2.354956 1_555
O0 S0 1.478135 1_545
O1 S1 1.477644 1_555
O2 S2 1.480446 1_655
O3 S3 1.475184 1_555
O4 S4 1.471958 1_655
O5 Si0 1.607924 1_545
O6 Si0 1.645296 1_555
O7 S3 1.488431 1_555
O8 S4 1.483116 1_555
O9 S1 1.479135 1_555
O10 S2 1.496282 1_555
O11 S0 1.479919 1_555
O12 S5 1.456417 1_555
O13 S6 1.460326 1_555
O14 Si1 1.600462 1_555
O15 S7 1.469976 1_555
O16 S8 1.478490 1_555
O17 Si2 1.602340 1_555
O18 Si2 1.753117 1_555
O19 S7 1.505230 1_555
O20 S8 1.537971 1_555
O21 S6 1.519535 1_555
O22 Si1 1.756443 1_555
O23 S5 1.524623 1_555
O24 S9 1.472549 1_555
O25 Si3 1.587688 1_555
O26 Si4 1.595792 1_555
O27 Si5 1.612556 1_555
O28 S10 1.477970 1_555
O29 S11 1.468016 1_555
O30 S11 1.468705 1_555
O31 Si5 1.632229 1_555
O32 S10 1.490875 1_555
O33 Si3 1.710072 1_555
O34 Si4 1.666130 1_555
O35 S9 1.488637 1_555
O36 S11 1.485202 1_555
O37 Si5 1.633222 1_555
O38 S10 1.468174 1_555
O39 Si3 1.610290 1_555
O40 Si4 1.616815 1_555
O41 S9 1.474738 1_555
O42 S5 1.485840 1_555
O43 S6 1.487966 1_555
O44 Si1 1.645976 1_555
O45 S7 1.477495 1_555
O46 S8 1.476110 1_555
O47 Si2 1.663444 1_555
O48 Si0 1.603685 1_545
O49 S3 1.483561 1_555
O50 S4 1.473044 1_655
O51 S1 1.487120 1_555
O52 S2 1.498076 1_655
O53 S0 1.515766 1_545
O54 S9 1.519645 1_555
O55 Si3 1.725112 1_655
O56 Si4 1.701902 1_545
O57 Si5 1.735623 1_545
O58 S10 1.518823 1_555
O59 S11 1.535180 1_655
O60 Si2 1.620109 1_555
O61 S7 1.492618 1_455
O62 S8 1.469037 1_565
O63 S6 1.486505 1_565
O64 Si1 1.641946 1_555
O65 S5 1.487602 1_455
O66 S0 1.486083 1_555
O67 S1 1.516749 1_555
O68 S2 1.484556 1_555
O69 S3 1.501923 1_555
O70 S4 1.523639 1_555
O71 Si0 1.792412 1_555
