# generated using pymatgen
data_MgMn6O7F5
_symmetry_space_group_name_H-M   'P 1'
_cell_length_a   5.18249994
_cell_length_b   7.84589458
_cell_length_c   5.95797040
_cell_angle_alpha   100.42332676
_cell_angle_beta   98.11185277
_cell_angle_gamma   84.77391722
_symmetry_Int_Tables_number   1
_chemical_formula_structural   MgMn6O7F5
_chemical_formula_sum   'Mg1 Mn6 O7 F5'
_cell_volume   235.34212345
_cell_formula_units_Z   1
loop_
 _symmetry_equiv_pos_site_id
 _symmetry_equiv_pos_as_xyz
  1  'x, y, z'
loop_
 _atom_site_type_symbol
 _atom_site_label
 _atom_site_symmetry_multiplicity
 _atom_site_fract_x
 _atom_site_fract_y
 _atom_site_fract_z
 _atom_site_occupancy
  Mg  Mg0  1  0.04604409  0.34395416  0.84474055  1
  Mn  Mn0  1  0.42823232  0.96659919  0.57500216  1
  Mn  Mn1  1  0.52509907  0.65450393  0.15557003  1
  Mn  Mn2  1  0.53239312  0.37637775  0.75948174  1
  Mn  Mn3  1  0.98190345  0.66934503  0.64560408  1
  Mn  Mn4  1  0.99750814  0.31967091  0.33227093  1
  Mn  Mn5  1  0.99322581  0.98806592  0.01123646  1
  O  O0  1  0.81509982  0.44576935  0.59416653  1
  O  O1  1  0.83834627  0.11504078  0.26093305  1
  O  O2  1  0.69057341  0.76125391  0.44880810  1
  O  O3  1  0.75493375  0.45024054  0.06019556  1
  O  O4  1  0.27417191  0.55005860  0.87998758  1
  O  O5  1  0.27604654  0.22749900  0.59246255  1
  O  O6  1  0.15388916  0.88005402  0.74370197  1
  F  F0  1  0.74240366  0.79853253  0.94223671  1
  F  F1  1  0.76534486  0.14565859  0.77520955  1
  F  F2  1  0.27106783  0.85979156  0.22070413  1
  F  F3  1  0.20724202  0.52632632  0.37578992  1
  F  F4  1  0.22036578  0.20458991  0.06761139  1
loop_
_geom_bond_atom_site_label_1
_geom_bond_atom_site_label_2
_geom_bond_distance
_geom_bond_site_symmetry_2
Mg0 O0 2.013083 1_455
Mg0 O4 2.052348 1_555
Mg0 O5 2.079703 1_555
Mg0 O3 2.132923 1_456
Mn0 O6 2.078198 1_555
Mn0 O2 2.112012 1_555
Mn0 O5 2.115430 1_565
Mn1 O2 1.915158 1_555
Mn1 O3 1.955459 1_555
Mn1 O4 2.040398 1_554
Mn2 O5 1.899638 1_555
Mn2 O4 1.936022 1_555
Mn2 O3 2.009699 1_556
Mn2 O0 2.039540 1_555
Mn3 O6 1.908117 1_655
Mn3 O2 1.944819 1_555
Mn3 O0 1.981216 1_555
Mn3 O4 2.176692 1_655
Mn4 O1 1.825948 1_555
Mn4 O0 1.998631 1_555
Mn4 O5 2.143328 1_655
Mn4 O3 2.246938 1_555
Mn5 O1 1.872164 1_565
Mn5 O6 1.925982 1_654
F0 Mn5 2.012505 1_556
F0 Mn1 2.305710 1_556
F0 Mn3 2.330904 1_555
F1 Mn2 2.091516 1_555
F1 Mg0 2.171955 1_655
F1 Mn5 2.189870 1_546
F1 Mn0 2.387779 1_545
F2 Mn1 2.002444 1_555
F2 Mn5 2.080169 1_455
F2 Mn0 2.195588 1_555
F3 Mn4 1.991735 1_455
F3 Mn3 2.201251 1_455
F3 Mn1 2.614509 1_555
F4 Mg0 1.944697 1_554
F4 Mn5 2.104938 1_445
F4 Mn4 2.108176 1_455
