# generated using pymatgen
data_Na2Zr3ZnSi2(SO6)4
_symmetry_space_group_name_H-M   'P 1'
_cell_length_a   8.97410399
_cell_length_b   8.95344691
_cell_length_c   23.52367759
_cell_angle_alpha   89.82547579
_cell_angle_beta   89.93383785
_cell_angle_gamma   120.16084332
_symmetry_Int_Tables_number   1
_chemical_formula_structural   Na2Zr3ZnSi2(SO6)4
_chemical_formula_sum   'Na6 Zr9 Zn3 Si6 S12 O72'
_cell_volume   1634.20648125
_cell_formula_units_Z   3
loop_
 _symmetry_equiv_pos_site_id
 _symmetry_equiv_pos_as_xyz
  1  'x, y, z'
loop_
 _atom_site_type_symbol
 _atom_site_label
 _atom_site_symmetry_multiplicity
 _atom_site_fract_x
 _atom_site_fract_y
 _atom_site_fract_z
 _atom_site_occupancy
  Na  Na0  1  0.98419481  0.98789708  0.50907322  1
  Na  Na1  1  0.02079472  0.01608139  0.00167781  1
  Na  Na2  1  0.67118030  0.31786445  0.83546020  1
  Na  Na3  1  0.66482195  0.32054949  0.33500987  1
  Na  Na4  1  0.33494173  0.65995831  0.16634032  1
  Na  Na5  1  0.35204458  0.67404606  0.67067465  1
  Zr  Zr0  1  0.98984002  0.99907538  0.35299395  1
  Zr  Zr1  1  0.00025391  0.01589572  0.85445103  1
  Zr  Zr2  1  0.66428149  0.33417106  0.68841884  1
  Zr  Zr3  1  0.65667186  0.33482568  0.18367992  1
  Zr  Zr4  1  0.65174961  0.31864835  0.97830186  1
  Zr  Zr5  1  0.67020898  0.33630527  0.48235034  1
  Zr  Zr6  1  0.32029006  0.65345859  0.01823292  1
  Zr  Zr7  1  0.35623267  0.67573645  0.52118902  1
  Zr  Zr8  1  0.33420040  0.68040628  0.81512618  1
  Zn  Zn0  1  0.96276277  0.97074742  0.64903938  1
  Zn  Zn1  1  0.01721993  0.01480263  0.14601473  1
  Zn  Zn2  1  0.34266141  0.68199241  0.31828871  1
  Si  Si0  1  0.70783962  0.99725476  0.74788199  1
  Si  Si1  1  0.67854119  0.63222528  0.58410177  1
  Si  Si2  1  0.36427148  0.33095614  0.08304074  1
  Si  Si3  1  0.03862676  0.37760552  0.91553224  1
  Si  Si4  1  0.32536946  0.95416392  0.91795789  1
  Si  Si5  1  0.62056294  0.96095827  0.41329125  1
  S  S0  1  0.28802894  0.99452916  0.24952345  1
  S  S1  1  0.70963152  0.71174179  0.24788191  1
  S  S2  1  0.00509228  0.29710450  0.24987080  1
  S  S3  1  0.28709752  0.28925238  0.74737499  1
  S  S4  1  0.00160618  0.71266208  0.74855022  1
  S  S5  1  0.96003081  0.33327569  0.58318702  1
  S  S6  1  0.37094925  0.04305024  0.58379001  1
  S  S7  1  0.95562508  0.62735910  0.08435669  1
  S  S8  1  0.66956813  0.04119434  0.08474457  1
  S  S9  1  0.62389601  0.66689099  0.91677111  1
  S  S10  1  0.33316758  0.37650185  0.41486269  1
  S  S11  1  0.04509453  0.66650910  0.41493082  1
  O  O0  1  0.20940436  0.02363339  0.30143023  1
  O  O1  1  0.81696184  0.79394218  0.30056346  1
  O  O2  1  0.97845930  0.18432288  0.30189267  1
  O  O3  1  0.21177853  0.18424340  0.80016191  1
  O  O4  1  0.97660894  0.78874360  0.80059152  1
  O  O5  1  0.82367551  0.02444712  0.80536685  1
  O  O6  1  0.78941747  0.97136773  0.69173461  1
  O  O7  1  0.18859453  0.20891908  0.69638995  1
  O  O8  1  0.03201363  0.81471603  0.69706051  1
  O  O9  1  0.79479055  0.81644446  0.19760943  1
  O  O10  1  0.02564832  0.21377821  0.19918951  1
  O  O11  1  0.18588282  0.97632066  0.19858848  1
  O  O12  1  0.87545714  0.35719968  0.63385396  1
  O  O13  1  0.48328070  0.12005570  0.63438618  1
  O  O14  1  0.64398159  0.50442721  0.63845037  1
  O  O15  1  0.87279819  0.51444428  0.13616165  1
  O  O16  1  0.64741959  0.13074785  0.13579676  1
  O  O17  1  0.49167613  0.35652000  0.13942145  1
  O  O18  1  0.47103147  0.31297718  0.02952528  1
  O  O19  1  0.85408687  0.54146722  0.03312478  1
  O  O20  1  0.69480969  0.14894469  0.03326578  1
  O  O21  1  0.46077880  0.14659802  0.53177120  1
  O  O22  1  0.68525136  0.52661560  0.52753597  1
  O  O23  1  0.85030290  0.30989495  0.53156606  1
  O  O24  1  0.54496688  0.69293298  0.96826767  1
  O  O25  1  0.15892663  0.46107332  0.97239172  1
  O  O26  1  0.31101552  0.84192493  0.97448804  1
  O  O27  1  0.53597825  0.84130151  0.47116256  1
  O  O28  1  0.30297797  0.45282975  0.46700528  1
  O  O29  1  0.14690205  0.69042567  0.46711283  1
  O  O30  1  0.11713359  0.63578787  0.36364150  1
  O  O31  1  0.50952220  0.87696358  0.35781780  1
  O  O32  1  0.35836336  0.47846584  0.36360533  1
  O  O33  1  0.13477355  0.49041393  0.85937414  1
  O  O34  1  0.36421726  0.87202158  0.86167628  1
  O  O35  1  0.51860908  0.63939930  0.86538317  1
  O  O36  1  0.02661181  0.82381381  0.40799937  1
  O  O37  1  0.81520729  0.97951660  0.40718764  1
  O  O38  1  0.17882745  0.19866458  0.40894519  1
  O  O39  1  0.01852069  0.18582651  0.91190359  1
  O  O40  1  0.15493015  0.96938059  0.90876396  1
  O  O41  1  0.79713415  0.81990103  0.91025885  1
  O  O42  1  0.98308807  0.18449711  0.58708203  1
  O  O43  1  0.20475586  0.03077893  0.58952213  1
  O  O44  1  0.84800732  0.81887540  0.58405093  1
  O  O45  1  0.96945207  0.79532007  0.09194430  1
  O  O46  1  0.82069016  0.02211026  0.09181620  1
  O  O47  1  0.17939097  0.15884698  0.08869100  1
  O  O48  1  0.68522355  0.17036826  0.74222333  1
  O  O49  1  0.46480082  0.30816986  0.74375000  1
  O  O50  1  0.84383796  0.53486458  0.74313341  1
  O  O51  1  0.69896467  0.53673697  0.24465014  1
  O  O52  1  0.84486174  0.30991715  0.24574310  1
  O  O53  1  0.46686419  0.15513390  0.24424047  1
  O  O54  1  0.64321437  0.51280952  0.92344537  1
  O  O55  1  0.85253742  0.36276282  0.92533451  1
  O  O56  1  0.49798288  0.14692831  0.92227326  1
  O  O57  1  0.65073297  0.15485090  0.42457335  1
  O  O58  1  0.48638085  0.35502850  0.42347412  1
  O  O59  1  0.86670244  0.51449732  0.42266469  1
  O  O60  1  0.36045586  0.51195870  0.08033105  1
  O  O61  1  0.12965602  0.64337011  0.08075461  1
  O  O62  1  0.50939566  0.87236091  0.07998943  1
  O  O63  1  0.35188380  0.86701097  0.57631237  1
  O  O64  1  0.49652880  0.64021847  0.57737248  1
  O  O65  1  0.12824527  0.49599084  0.57481158  1
  O  O66  1  0.30814485  0.84161318  0.25551387  1
  O  O67  1  0.53443700  0.68419232  0.25534981  1
  O  O68  1  0.15815170  0.46893145  0.25895662  1
  O  O69  1  0.31144784  0.46437705  0.75533544  1
  O  O70  1  0.15189642  0.68419862  0.75479282  1
  O  O71  1  0.51418989  0.82616894  0.75547099  1
loop_
_geom_bond_atom_site_label_1
_geom_bond_atom_site_label_2
_geom_bond_distance
_geom_bond_site_symmetry_2
Na0 O44 2.239397 1_555
Na0 O42 2.550137 1_565
Na0 O43 2.626025 1_665
Na0 O37 2.818664 1_555
Na0 O36 2.921889 1_655
Na0 O38 2.968341 1_665
Na1 O47 2.458416 1_555
Na1 O39 2.604173 1_554
Na1 O40 2.627980 1_544
Na1 O45 2.772183 1_445
Na1 O46 2.795176 1_455
Na1 O41 2.868610 1_444
Na2 O56 2.551835 1_555
Na2 O55 2.576012 1_555
Na2 O48 2.598954 1_555
Na2 O50 2.798950 1_555
Na2 O54 2.802552 1_555
Na2 O49 2.817931 1_555
Na3 O57 2.539232 1_555
Na3 O52 2.678989 1_555
Na3 O53 2.700519 1_555
Na3 O59 2.723696 1_555
Na3 O58 2.735537 1_555
Na3 O51 2.781391 1_555
Na4 O60 2.494400 1_555
Na4 O62 2.677891 1_555
Na4 O61 2.684166 1_555
Na4 O67 2.693962 1_555
Na4 O68 2.726099 1_555
Na4 O66 2.741546 1_555
Na5 O71 2.446037 1_555
Na5 O69 2.628943 1_555
Na5 O64 2.642392 1_555
Na5 O70 2.703127 1_555
Na5 O63 2.809160 1_555
Na5 O65 2.911258 1_555
O0 S0 1.497129 1_545
O0 Zr0 2.227014 1_445
O1 S1 1.516957 1_555
O1 Zr0 2.111001 1_555
O2 S2 1.524343 1_655
O2 Zr0 2.089204 1_545
O3 S3 1.495032 1_555
O3 Zr1 2.147966 1_555
O4 S4 1.473437 1_655
O4 Zr1 2.317161 1_665
O5 Si0 1.649064 1_545
O5 Zr1 1.993921 1_655
O6 Si0 1.582500 1_555
O6 Zn0 1.853053 1_555
O7 S3 1.451209 1_555
O7 Zn0 2.360569 1_445
O8 S4 1.455469 1_555
O8 Zn0 2.116217 1_455
O9 S1 1.460355 1_555
O9 Zn1 2.242905 1_665
O10 S2 1.468061 1_555
O10 Zn1 2.150019 1_555
O11 S0 1.468349 1_555
O11 Zn1 2.113044 1_565
O12 S5 1.485030 1_555
O12 Zr2 2.209442 1_555
O13 S6 1.489138 1_555
O13 Zr2 2.195378 1_555
O14 Si1 1.635096 1_555
O14 Zr2 2.001803 1_555
O15 S7 1.514910 1_555
O15 Zr3 2.108871 1_555
O16 S8 1.513313 1_555
O16 Zr3 2.115327 1_555
O17 Si2 1.691458 1_555
O17 Zr3 1.898799 1_555
O18 Si2 1.637689 1_555
O18 Zr4 1.999265 1_554
O19 S7 1.475860 1_555
O19 Zr4 2.306787 1_554
O20 S8 1.490347 1_555
O20 Zr4 2.170004 1_554
O21 S6 1.498856 1_555
O21 Zr5 2.131666 1_555
O22 Si1 1.653184 1_555
O22 Zr5 1.957464 1_555
O23 S5 1.511690 1_555
O23 Zr5 2.096422 1_555
O24 S9 1.479608 1_555
O24 Zr6 2.201744 1_556
O25 Si3 1.646731 1_555
O25 Zr6 1.932695 1_556
O26 Si4 1.629790 1_555
O26 Zr6 2.010969 1_556
O27 Si5 1.657943 1_555
O27 Zr7 1.940742 1_555
O28 S10 1.495103 1_555
O28 Zr7 2.212378 1_555
O29 S11 1.481541 1_555
O29 Zr7 2.327487 1_555
O30 S11 1.458830 1_555
O30 Zn2 2.134605 1_555
O31 Si5 1.586621 1_555
O31 Zn2 1.881671 1_555
O32 S10 1.457280 1_555
O32 Zn2 2.173344 1_555
O33 Si3 1.619664 1_555
O33 Zr8 2.026274 1_555
O34 Si4 1.636396 1_555
O34 Zr8 1.939776 1_555
O35 S9 1.478299 1_555
O35 Zr8 2.209887 1_555
O36 S11 1.507034 1_555
O36 Zr0 2.180477 1_455
O37 Si5 1.675414 1_555
O37 Zr0 1.957077 1_555
O38 S10 1.502919 1_555
O38 Zr0 2.185436 1_445
O39 Si3 1.636405 1_555
O39 Zr1 1.982596 1_555
O40 Si4 1.617039 1_555
O40 Zr1 2.077098 1_565
O41 S9 1.474867 1_555
O41 Zr1 2.211721 1_665
O42 S5 1.449801 1_555
O42 Zn0 2.334890 1_545
O43 S6 1.445483 1_555
O43 Zn0 2.404310 1_445
O44 Si1 1.597422 1_555
O44 Zn0 1.963627 1_555
O45 S7 1.457030 1_555
O45 Zn1 2.198476 1_665
O46 S8 1.459215 1_555
O46 Zn1 2.204763 1_655
O47 Si2 1.604410 1_555
O47 Zn1 1.923147 1_555
O48 Si0 1.666196 1_545
O48 Zr2 2.013551 1_555
O49 S3 1.518978 1_555
O49 Zr2 2.127677 1_555
O50 S4 1.513869 1_655
O50 Zr2 2.142727 1_555
O51 S1 1.523197 1_555
O51 Zr3 2.190169 1_555
O52 S2 1.502075 1_655
O52 Zr3 2.327133 1_555
O53 S0 1.529156 1_545
O53 Zr3 2.178534 1_555
O54 S9 1.482216 1_555
O54 Zr4 2.193971 1_555
O55 Si3 1.623452 1_655
O55 Zr4 2.057171 1_555
O56 Si4 1.644244 1_545
O56 Zr4 1.972256 1_555
O57 Si5 1.639551 1_545
O57 Zr5 2.060559 1_555
O58 S10 1.494835 1_555
O58 Zr5 2.224754 1_555
O59 S11 1.502251 1_655
O59 Zr5 2.186267 1_555
O60 Si2 1.639118 1_555
O60 Zr6 2.077903 1_555
O61 S7 1.497167 1_455
O61 Zr6 2.221727 1_555
O62 S8 1.477061 1_565
O62 Zr6 2.347881 1_555
O63 S6 1.508398 1_565
O63 Zr7 2.167123 1_555
O64 Si1 1.678142 1_555
O64 Zr7 1.958734 1_555
O65 S5 1.492554 1_455
O65 Zr7 2.245027 1_555
O66 S0 1.474514 1_555
O66 Zn2 2.179932 1_555
O67 S1 1.474099 1_555
O67 Zn2 2.261458 1_555
O68 S2 1.475954 1_555
O68 Zn2 2.275148 1_555
O69 S3 1.482878 1_555
O69 Zr8 2.319799 1_555
O70 S4 1.500391 1_555
O70 Zr8 2.180113 1_555
O71 Si0 1.649553 1_555
O71 Zr8 2.036386 1_555
