# generated using pymatgen
data_MgTe2Mo2W2(Se2S)2
_symmetry_space_group_name_H-M   'P 1'
_cell_length_a   6.67544000
_cell_length_b   6.67469470
_cell_length_c   90.92804000
_cell_angle_alpha   90.00140564
_cell_angle_beta   90.00000000
_cell_angle_gamma   120.00369379
_symmetry_Int_Tables_number   1
_chemical_formula_structural   MgTe2Mo2W2(Se2S)2
_chemical_formula_sum   'Mg8 Te16 Mo16 W16 Se32 S16'
_cell_volume   3508.51709935
_cell_formula_units_Z   8
loop_
 _symmetry_equiv_pos_site_id
 _symmetry_equiv_pos_as_xyz
  1  'x, y, z'
loop_
 _atom_site_type_symbol
 _atom_site_label
 _atom_site_symmetry_multiplicity
 _atom_site_fract_x
 _atom_site_fract_y
 _atom_site_fract_z
 _atom_site_occupancy
  Mg  Mg0_0  1  0.49997350  0.49994750  0.18878800  1
  Mg  Mg0_1  1  0.49997350  0.49994750  0.68878800  1
  Mg  Mg0_2  1  0.49997350  0.99994750  0.18878800  1
  Mg  Mg0_3  1  0.49997350  0.99994750  0.68878800  1
  Mg  Mg0_4  1  0.99997350  0.49994750  0.18878800  1
  Mg  Mg0_5  1  0.99997350  0.49994750  0.68878800  1
  Mg  Mg0_6  1  0.99997350  0.99994750  0.18878800  1
  Mg  Mg0_7  1  0.99997350  0.99994750  0.68878800  1
  Te  Te0_0  1  0.33339300  0.16678500  0.02601700  1
  Te  Te0_1  1  0.33339300  0.16678500  0.52601700  1
  Te  Te0_2  1  0.33339300  0.66678500  0.02601700  1
  Te  Te0_3  1  0.33339300  0.66678500  0.52601700  1
  Te  Te0_4  1  0.83339300  0.16678500  0.02601700  1
  Te  Te0_5  1  0.83339300  0.16678500  0.52601700  1
  Te  Te0_6  1  0.83339300  0.66678500  0.02601700  1
  Te  Te0_7  1  0.83339300  0.66678500  0.52601700  1
  Te  Te1_0  1  0.33331750  0.16663350  0.06776100  1
  Te  Te1_1  1  0.33331750  0.16663350  0.56776100  1
  Te  Te1_2  1  0.33331750  0.66663350  0.06776100  1
  Te  Te1_3  1  0.33331750  0.66663350  0.56776100  1
  Te  Te1_4  1  0.83331750  0.16663350  0.06776100  1
  Te  Te1_5  1  0.83331750  0.16663350  0.56776100  1
  Te  Te1_6  1  0.83331750  0.66663350  0.06776100  1
  Te  Te1_7  1  0.83331750  0.66663350  0.56776100  1
  Mo  Mo0_0  1  0.16667450  0.33334950  0.04689100  1
  Mo  Mo0_1  1  0.16667450  0.33334950  0.54689100  1
  Mo  Mo0_2  1  0.16667450  0.83334950  0.04689100  1
  Mo  Mo0_3  1  0.16667450  0.83334950  0.54689100  1
  Mo  Mo0_4  1  0.66667450  0.33334950  0.04689100  1
  Mo  Mo0_5  1  0.66667450  0.33334950  0.54689100  1
  Mo  Mo0_6  1  0.66667450  0.83334950  0.04689100  1
  Mo  Mo0_7  1  0.66667450  0.83334950  0.54689100  1
  Mo  Mo1_0  1  0.16664750  0.33329500  0.23785250  1
  Mo  Mo1_1  1  0.16664750  0.33329500  0.73785250  1
  Mo  Mo1_2  1  0.16664750  0.83329500  0.23785250  1
  Mo  Mo1_3  1  0.16664750  0.83329500  0.73785250  1
  Mo  Mo1_4  1  0.66664750  0.33329500  0.23785250  1
  Mo  Mo1_5  1  0.66664750  0.33329500  0.73785250  1
  Mo  Mo1_6  1  0.66664750  0.83329500  0.23785250  1
  Mo  Mo1_7  1  0.66664750  0.83329500  0.73785250  1
  W  W0_0  1  0.33339250  0.16678500  0.13683400  1
  W  W0_1  1  0.33339250  0.16678500  0.63683400  1
  W  W0_2  1  0.33339250  0.66678500  0.13683400  1
  W  W0_3  1  0.33339250  0.66678500  0.63683400  1
  W  W0_4  1  0.83339250  0.16678500  0.13683400  1
  W  W0_5  1  0.83339250  0.16678500  0.63683400  1
  W  W0_6  1  0.83339250  0.66678500  0.13683400  1
  W  W0_7  1  0.83339250  0.66678500  0.63683400  1
  W  W1_0  1  0.33329950  0.16659800  0.32894300  1
  W  W1_1  1  0.33329950  0.16659800  0.82894300  1
  W  W1_2  1  0.33329950  0.66659800  0.32894300  1
  W  W1_3  1  0.33329950  0.66659800  0.82894300  1
  W  W1_4  1  0.83329950  0.16659800  0.32894300  1
  W  W1_5  1  0.83329950  0.16659800  0.82894300  1
  W  W1_6  1  0.83329950  0.66659800  0.32894300  1
  W  W1_7  1  0.83329950  0.66659800  0.82894300  1
  Se  Se0_0  1  0.16660600  0.33321250  0.34738600  1
  Se  Se0_1  1  0.16660600  0.33321250  0.84738600  1
  Se  Se0_2  1  0.16660600  0.83321250  0.34738600  1
  Se  Se0_3  1  0.16660600  0.83321250  0.84738600  1
  Se  Se0_4  1  0.66660600  0.33321250  0.34738600  1
  Se  Se0_5  1  0.66660600  0.33321250  0.84738600  1
  Se  Se0_6  1  0.66660600  0.83321250  0.34738600  1
  Se  Se0_7  1  0.66660600  0.83321250  0.84738600  1
  Se  Se1_0  1  0.33327450  0.16654950  0.21924300  1
  Se  Se1_1  1  0.33327450  0.16654950  0.71924300  1
  Se  Se1_2  1  0.33327450  0.66654950  0.21924300  1
  Se  Se1_3  1  0.33327450  0.66654950  0.71924300  1
  Se  Se1_4  1  0.83327450  0.16654950  0.21924300  1
  Se  Se1_5  1  0.83327450  0.16654950  0.71924300  1
  Se  Se1_6  1  0.83327450  0.66654950  0.21924300  1
  Se  Se1_7  1  0.83327450  0.66654950  0.71924300  1
  Se  Se2_0  1  0.33336650  0.16673200  0.25616800  1
  Se  Se2_1  1  0.33336650  0.16673200  0.75616800  1
  Se  Se2_2  1  0.33336650  0.66673200  0.25616800  1
  Se  Se2_3  1  0.33336650  0.66673200  0.75616800  1
  Se  Se2_4  1  0.83336650  0.16673200  0.25616800  1
  Se  Se2_5  1  0.83336650  0.16673200  0.75616800  1
  Se  Se2_6  1  0.83336650  0.66673200  0.25616800  1
  Se  Se2_7  1  0.83336650  0.66673200  0.75616800  1
  Se  Se3_0  1  0.16664250  0.33328450  0.31048250  1
  Se  Se3_1  1  0.16664250  0.33328450  0.81048250  1
  Se  Se3_2  1  0.16664250  0.83328450  0.31048250  1
  Se  Se3_3  1  0.16664250  0.83328450  0.81048250  1
  Se  Se3_4  1  0.66664250  0.33328450  0.31048250  1
  Se  Se3_5  1  0.66664250  0.33328450  0.81048250  1
  Se  Se3_6  1  0.66664250  0.83328450  0.31048250  1
  Se  Se3_7  1  0.66664250  0.83328450  0.81048250  1
  S  S0_0  1  0.16672250  0.33344600  0.15363700  1
  S  S0_1  1  0.16672250  0.33344600  0.65363700  1
  S  S0_2  1  0.16672250  0.83344600  0.15363700  1
  S  S0_3  1  0.16672250  0.83344600  0.65363700  1
  S  S0_4  1  0.66672250  0.33344600  0.15363700  1
  S  S0_5  1  0.66672250  0.33344600  0.65363700  1
  S  S0_6  1  0.66672250  0.83344600  0.15363700  1
  S  S0_7  1  0.66672250  0.83344600  0.65363700  1
  S  S1_0  1  0.16669100  0.33338350  0.12013450  1
  S  S1_1  1  0.16669100  0.33338350  0.62013450  1
  S  S1_2  1  0.16669100  0.83338350  0.12013450  1
  S  S1_3  1  0.16669100  0.83338350  0.62013450  1
  S  S1_4  1  0.66669100  0.33338350  0.12013450  1
  S  S1_5  1  0.66669100  0.33338350  0.62013450  1
  S  S1_6  1  0.66669100  0.83338350  0.12013450  1
  S  S1_7  1  0.66669100  0.83338350  0.62013450  1
loop_
_geom_bond_atom_site_label_1
_geom_bond_atom_site_label_2
_geom_bond_distance
_geom_bond_site_symmetry_2
Mg0_0 Mg0_2 3.337347 1_545
Mg0_0 Mg0_6 3.337347 1_445
Mg0_0 Mg0_6 3.337347 1_555
Mg0_0 Mg0_2 3.337347 1_555
Mg0_0 Mg0_4 3.337720 1_555
Mg0_0 Mg0_4 3.337720 1_455
Mg0_0 Se1_6 3.373552 1_555
Mg0_0 Se1_2 3.373552 1_555
Mg0_0 Se1_0 3.373817 1_555
Mg0_1 Mg0_3 3.337347 1_555
Mg0_1 Mg0_7 3.337347 1_555
Mg0_1 Mg0_7 3.337347 1_445
Mg0_1 Mg0_3 3.337347 1_545
Mg0_1 Mg0_5 3.337720 1_555
Mg0_1 Mg0_5 3.337720 1_455
Mg0_1 Se1_7 3.373552 1_555
Mg0_1 Se1_3 3.373552 1_555
Mg0_1 Se1_1 3.373817 1_555
Mg0_2 Mg0_4 3.337347 1_565
Mg0_2 Mg0_4 3.337347 1_455
Mg0_2 Mg0_6 3.337720 1_555
Mg0_2 Mg0_6 3.337720 1_455
Mg0_2 Se1_0 3.373552 1_565
Mg0_2 Se1_4 3.373552 1_565
Mg0_2 Se1_2 3.373817 1_555
Mg0_3 Mg0_5 3.337347 1_455
Mg0_3 Mg0_5 3.337347 1_565
Mg0_3 Mg0_7 3.337720 1_455
Mg0_3 Mg0_7 3.337720 1_555
Mg0_3 Se1_5 3.373552 1_565
Mg0_3 Se1_1 3.373552 1_565
Mg0_3 Se1_3 3.373817 1_555
Mg0_4 Mg0_6 3.337347 1_545
Mg0_4 Mg0_6 3.337347 1_555
Mg0_4 Se1_2 3.373552 1_655
Mg0_4 Se1_6 3.373552 1_555
Mg0_4 Se1_4 3.373817 1_555
Mg0_5 Mg0_7 3.337347 1_555
Mg0_5 Mg0_7 3.337347 1_545
Mg0_5 Se1_3 3.373552 1_655
Mg0_5 Se1_7 3.373552 1_555
Mg0_5 Se1_5 3.373817 1_555
Mg0_6 Se1_4 3.373552 1_565
Mg0_6 Se1_0 3.373552 1_665
Mg0_6 Se1_6 3.373817 1_555
Mg0_7 Se1_1 3.373552 1_665
Mg0_7 Se1_5 3.373552 1_565
Mg0_7 Se1_7 3.373817 1_555
Mo0_0 Te1_2 2.704106 1_555
Mo0_0 Te0_4 2.704524 1_455
Mo0_0 Te0_0 2.704530 1_555
Mo0_0 Te1_4 2.704618 1_455
Mo0_0 Te1_0 2.704626 1_555
Mo0_0 Te0_2 2.705062 1_555
Mo0_1 Te1_3 2.704106 1_555
Mo0_1 Te0_5 2.704524 1_455
Mo0_1 Te0_1 2.704530 1_555
Mo0_1 Te1_5 2.704618 1_455
Mo0_1 Te1_1 2.704626 1_555
Mo0_1 Te0_3 2.705062 1_555
Mo0_2 Te1_0 2.704106 1_565
Mo0_2 Te0_6 2.704524 1_455
Mo0_2 Te0_2 2.704530 1_555
Mo0_2 Te1_6 2.704618 1_455
Mo0_2 Te1_2 2.704626 1_555
Mo0_2 Te0_0 2.705062 1_565
Mo0_3 Te1_1 2.704106 1_565
Mo0_3 Te0_7 2.704524 1_455
Mo0_3 Te0_3 2.704530 1_555
Mo0_3 Te1_7 2.704618 1_455
Mo0_3 Te1_3 2.704626 1_555
Mo0_3 Te0_1 2.705062 1_565
Mo0_4 Te1_6 2.704106 1_555
Mo0_4 Te0_0 2.704524 1_555
Mo0_4 Te0_4 2.704530 1_555
Mo0_4 Te1_0 2.704618 1_555
Mo0_4 Te1_4 2.704626 1_555
Mo0_4 Te0_6 2.705062 1_555
Mo0_5 Te1_7 2.704106 1_555
Mo0_5 Te0_1 2.704524 1_555
Mo0_5 Te0_5 2.704530 1_555
Mo0_5 Te1_1 2.704618 1_555
Mo0_5 Te1_5 2.704626 1_555
Mo0_5 Te0_7 2.705062 1_555
Mo0_6 Te1_4 2.704106 1_565
Mo0_6 Te0_2 2.704524 1_555
Mo0_6 Te0_6 2.704530 1_555
Mo0_6 Te1_2 2.704618 1_555
Mo0_6 Te1_6 2.704626 1_555
Mo0_6 Te0_4 2.705062 1_565
Mo0_7 Te1_5 2.704106 1_565
Mo0_7 Te0_3 2.704524 1_555
Mo0_7 Te0_7 2.704530 1_555
Mo0_7 Te1_3 2.704618 1_555
Mo0_7 Te1_7 2.704626 1_555
Mo0_7 Te0_5 2.705062 1_565
Mo1_0 Se2_4 2.546692 1_455
Mo1_0 Se2_0 2.546696 1_555
Mo1_0 Se2_2 2.547158 1_555
Mo1_0 Se1_2 2.563995 1_555
Mo1_0 Se1_0 2.564615 1_555
Mo1_0 Se1_4 2.564617 1_455
Mo1_1 Se2_5 2.546692 1_455
Mo1_1 Se2_1 2.546696 1_555
Mo1_1 Se2_3 2.547158 1_555
Mo1_1 Se1_3 2.563995 1_555
Mo1_1 Se1_1 2.564615 1_555
Mo1_1 Se1_5 2.564617 1_455
Mo1_2 Se2_6 2.546692 1_455
Mo1_2 Se2_2 2.546696 1_555
Mo1_2 Se2_0 2.547158 1_565
Mo1_2 Se1_0 2.563995 1_565
Mo1_2 Se1_2 2.564615 1_555
Mo1_2 Se1_6 2.564617 1_455
Mo1_3 Se2_7 2.546692 1_455
Mo1_3 Se2_3 2.546696 1_555
Mo1_3 Se2_1 2.547158 1_565
Mo1_3 Se1_1 2.563995 1_565
Mo1_3 Se1_3 2.564615 1_555
Mo1_3 Se1_7 2.564617 1_455
Mo1_4 Se2_0 2.546692 1_555
Mo1_4 Se2_4 2.546696 1_555
Mo1_4 Se2_6 2.547158 1_555
Mo1_4 Se1_6 2.563995 1_555
Mo1_4 Se1_4 2.564615 1_555
Mo1_4 Se1_0 2.564617 1_555
Mo1_5 Se2_1 2.546692 1_555
Mo1_5 Se2_5 2.546696 1_555
Mo1_5 Se2_7 2.547158 1_555
Mo1_5 Se1_7 2.563995 1_555
Mo1_5 Se1_5 2.564615 1_555
Mo1_5 Se1_1 2.564617 1_555
Mo1_6 Se2_2 2.546692 1_555
Mo1_6 Se2_6 2.546696 1_555
Mo1_6 Se2_4 2.547158 1_565
Mo1_6 Se1_4 2.563995 1_565
Mo1_6 Se1_6 2.564615 1_555
Mo1_6 Se1_2 2.564617 1_555
Mo1_7 Se2_3 2.546692 1_555
Mo1_7 Se2_7 2.546696 1_555
Mo1_7 Se2_5 2.547158 1_565
Mo1_7 Se1_5 2.563995 1_565
Mo1_7 Se1_7 2.564615 1_555
Mo1_7 Se1_3 2.564617 1_555
Se0_0 W1_4 2.554364 1_455
Se0_0 W1_0 2.554370 1_555
Se0_0 W1_2 2.554600 1_555
Se0_1 W1_5 2.554364 1_455
Se0_1 W1_1 2.554370 1_555
Se0_1 W1_3 2.554600 1_555
Se0_2 W1_6 2.554364 1_455
Se0_2 W1_2 2.554370 1_555
Se0_2 W1_0 2.554600 1_565
Se0_3 W1_7 2.554364 1_455
Se0_3 W1_3 2.554370 1_555
Se0_3 W1_1 2.554600 1_565
Se0_4 W1_0 2.554364 1_555
Se0_4 W1_4 2.554370 1_555
Se0_4 W1_6 2.554600 1_555
Se0_5 W1_1 2.554364 1_555
Se0_5 W1_5 2.554370 1_555
Se0_5 W1_7 2.554600 1_555
Se0_6 W1_2 2.554364 1_555
Se0_6 W1_6 2.554370 1_555
Se0_6 W1_4 2.554600 1_565
Se0_7 W1_3 2.554364 1_555
Se0_7 W1_7 2.554370 1_555
Se0_7 W1_5 2.554600 1_565
Se3_0 W1_2 2.555259 1_555
Se3_0 W1_4 2.555604 1_455
Se3_0 W1_0 2.555606 1_555
Se3_1 W1_3 2.555259 1_555
Se3_1 W1_5 2.555604 1_455
Se3_1 W1_1 2.555606 1_555
Se3_2 W1_0 2.555259 1_565
Se3_2 W1_6 2.555604 1_455
Se3_2 W1_2 2.555606 1_555
Se3_3 W1_1 2.555259 1_565
Se3_3 W1_7 2.555604 1_455
Se3_3 W1_3 2.555606 1_555
Se3_4 W1_6 2.555259 1_555
Se3_4 W1_0 2.555604 1_555
Se3_4 W1_4 2.555606 1_555
Se3_5 W1_7 2.555259 1_555
Se3_5 W1_1 2.555604 1_555
Se3_5 W1_5 2.555606 1_555
Se3_6 W1_4 2.555259 1_565
Se3_6 W1_2 2.555604 1_555
Se3_6 W1_6 2.555606 1_555
Se3_7 W1_5 2.555259 1_565
Se3_7 W1_3 2.555604 1_555
Se3_7 W1_7 2.555606 1_555
S0_0 W0_2 2.459068 1_555
S0_0 W0_4 2.459145 1_455
S0_0 W0_0 2.459149 1_555
S0_1 W0_3 2.459068 1_555
S0_1 W0_5 2.459145 1_455
S0_1 W0_1 2.459149 1_555
S0_2 W0_0 2.459068 1_565
S0_2 W0_6 2.459145 1_455
S0_2 W0_2 2.459149 1_555
S0_3 W0_1 2.459068 1_565
S0_3 W0_7 2.459145 1_455
S0_3 W0_3 2.459149 1_555
S0_4 W0_6 2.459068 1_555
S0_4 W0_0 2.459145 1_555
S0_4 W0_4 2.459149 1_555
S0_5 W0_7 2.459068 1_555
S0_5 W0_1 2.459145 1_555
S0_5 W0_5 2.459149 1_555
S0_6 W0_4 2.459068 1_565
S0_6 W0_2 2.459145 1_555
S0_6 W0_6 2.459149 1_555
S0_7 W0_5 2.459068 1_565
S0_7 W0_3 2.459145 1_555
S0_7 W0_7 2.459149 1_555
S1_0 W0_4 2.453200 1_455
S1_0 W0_0 2.453206 1_555
S1_0 W0_2 2.453447 1_555
S1_1 W0_5 2.453200 1_455
S1_1 W0_1 2.453206 1_555
S1_1 W0_3 2.453447 1_555
S1_2 W0_6 2.453200 1_455
S1_2 W0_2 2.453206 1_555
S1_2 W0_0 2.453447 1_565
S1_3 W0_7 2.453200 1_455
S1_3 W0_3 2.453206 1_555
S1_3 W0_1 2.453447 1_565
S1_4 W0_0 2.453200 1_555
S1_4 W0_4 2.453206 1_555
S1_4 W0_6 2.453447 1_555
S1_5 W0_1 2.453200 1_555
S1_5 W0_5 2.453206 1_555
S1_5 W0_7 2.453447 1_555
S1_6 W0_2 2.453200 1_555
S1_6 W0_6 2.453206 1_555
S1_6 W0_4 2.453447 1_565
S1_7 W0_3 2.453200 1_555
S1_7 W0_7 2.453206 1_555
S1_7 W0_5 2.453447 1_565
