# generated using pymatgen
data_LiNiPO4
_symmetry_space_group_name_H-M   'P 1'
_cell_length_a   4.93206987
_cell_length_b   9.12250019
_cell_length_c   6.19438800
_cell_angle_alpha   89.99998556
_cell_angle_beta   89.99995114
_cell_angle_gamma   83.46124966
_symmetry_Int_Tables_number   1
_chemical_formula_structural   LiNiPO4
_chemical_formula_sum   'Li4 Ni4 P4 O16'
_cell_volume   276.88996797
_cell_formula_units_Z   4
loop_
 _symmetry_equiv_pos_site_id
 _symmetry_equiv_pos_as_xyz
  1  'x, y, z'
loop_
 _atom_site_type_symbol
 _atom_site_label
 _atom_site_symmetry_multiplicity
 _atom_site_fract_x
 _atom_site_fract_y
 _atom_site_fract_z
 _atom_site_occupancy
  Li  Li0  1  0.26275400  0.42119000  0.74999900  1
  Li  Li1  1  0.76275600  0.92119200  0.74999900  1
  Li  Li2  1  0.25036100  0.09198300  0.24999900  1
  Li  Li3  1  0.75036000  0.59198100  0.24999900  1
  Ni  Ni0  1  0.25710400  0.75705500  0.00006500  1
  Ni  Ni1  1  0.25708400  0.75706900  0.50010400  1
  Ni  Ni2  1  0.75708600  0.25703900  0.99996000  1
  Ni  Ni3  1  0.75717300  0.25704400  0.49989600  1
  P  P0  1  0.28166500  0.08229000  0.74999900  1
  P  P1  1  0.78166700  0.58227600  0.75000000  1
  P  P2  1  0.23259800  0.43198500  0.24999900  1
  P  P3  1  0.73259400  0.93199800  0.24999900  1
  O  O0  1  0.12488700  0.13442500  0.95442900  1
  O  O1  1  0.62488300  0.63441900  0.95442800  1
  O  O2  1  0.12488700  0.13442500  0.54556900  1
  O  O3  1  0.62488300  0.63442000  0.54557200  1
  O  O4  1  0.38920100  0.37967600  0.45442600  1
  O  O5  1  0.88920400  0.87968200  0.45442300  1
  O  O6  1  0.38920000  0.37967600  0.04557200  1
  O  O7  1  0.88920400  0.87968300  0.04557400  1
  O  O8  1  0.84338400  0.40797800  0.74999900  1
  O  O9  1  0.34336700  0.90798400  0.74999800  1
  O  O10  1  0.57364600  0.13895900  0.74999800  1
  O  O11  1  0.07364000  0.63896200  0.75000100  1
  O  O12  1  0.94024800  0.37571000  0.24999800  1
  O  O13  1  0.44025400  0.87570700  0.24999800  1
  O  O14  1  0.67166700  0.10632000  0.24999900  1
  O  O15  1  0.17168500  0.60631400  0.25000100  1
loop_
_geom_bond_atom_site_label_1
_geom_bond_atom_site_label_2
_geom_bond_distance
_geom_bond_site_symmetry_2
Li0 O6 1.957226 1_556
Li0 O4 1.957227 1_555
Li0 O8 2.085528 1_455
Li0 O11 2.096339 1_555
Li1 O7 1.957233 1_556
Li1 O5 1.957240 1_555
Li1 O9 2.085615 1_555
Li1 O10 2.096291 1_565
Li2 O2 1.957143 1_555
Li2 O0 1.957144 1_554
Li2 O13 2.085415 1_545
Li2 O14 2.096834 1_555
Li3 O1 1.957148 1_554
Li3 O3 1.957161 1_555
Li3 O12 2.085365 1_555
Li3 O15 2.096921 1_655
Ni0 O1 2.039512 1_554
Ni0 O7 2.039863 1_455
Ni0 O15 2.144143 1_555
Ni0 O11 2.144935 1_554
Ni0 O13 2.146419 1_555
Ni0 O9 2.146993 1_554
Ni1 O3 2.039502 1_555
Ni1 O5 2.039868 1_455
Ni1 O11 2.144209 1_555
Ni1 O15 2.144949 1_555
Ni1 O9 2.146162 1_555
Ni1 O13 2.147167 1_555
Ni2 O0 2.039421 1_655
Ni2 O6 2.039931 1_556
Ni2 O10 2.144357 1_555
Ni2 O14 2.144471 1_556
Ni2 O8 2.146626 1_555
Ni2 O12 2.147012 1_556
Ni3 O2 2.039209 1_655
Ni3 O4 2.040140 1_555
Ni3 O14 2.143982 1_555
Ni3 O10 2.145212 1_555
Ni3 O12 2.146155 1_555
Ni3 O8 2.147115 1_555
O0 P0 1.530981 1_555
O1 P1 1.531003 1_555
O2 P0 1.530982 1_555
O3 P1 1.531006 1_555
O4 P2 1.530964 1_555
O5 P3 1.530981 1_555
O6 P2 1.530961 1_555
O7 P3 1.530983 1_555
O8 P1 1.584497 1_555
O9 P0 1.584563 1_565
O10 P0 1.584489 1_555
O11 P1 1.584519 1_455
O12 P2 1.584671 1_655
O13 P3 1.584687 1_555
O14 P3 1.584414 1_545
O15 P2 1.584471 1_555
