# generated using pymatgen
data_Na7La4SiP5O24
_symmetry_space_group_name_H-M   'P 1'
_cell_length_a   9.68884626
_cell_length_b   9.67948386
_cell_length_c   24.34151841
_cell_angle_alpha   89.69226644
_cell_angle_beta   90.11130980
_cell_angle_gamma   120.03803335
_symmetry_Int_Tables_number   1
_chemical_formula_structural   Na7La4SiP5O24
_chemical_formula_sum   'Na21 La12 Si3 P15 O72'
_cell_volume   1976.19395408
_cell_formula_units_Z   3
loop_
 _symmetry_equiv_pos_site_id
 _symmetry_equiv_pos_as_xyz
  1  'x, y, z'
loop_
 _atom_site_type_symbol
 _atom_site_label
 _atom_site_symmetry_multiplicity
 _atom_site_fract_x
 _atom_site_fract_y
 _atom_site_fract_z
 _atom_site_occupancy
  Na  Na0  1  0.36567222  0.36400498  0.25023102  1
  Na  Na1  1  0.99988636  0.63259219  0.24787488  1
  Na  Na2  1  0.63725157  0.64156693  0.74817945  1
  Na  Na3  1  0.99056036  0.35793767  0.75268826  1
  Na  Na4  1  0.37392201  0.99957423  0.74788700  1
  Na  Na5  1  0.29984228  0.32355787  0.58174274  1
  Na  Na6  1  0.04036362  0.70701577  0.58273287  1
  Na  Na7  1  0.66120396  0.96847439  0.58653497  1
  Na  Na8  1  0.29395562  0.96080392  0.08327753  1
  Na  Na9  1  0.67408749  0.69767860  0.08271903  1
  Na  Na10  1  0.03032870  0.34024169  0.08471654  1
  Na  Na11  1  0.96591235  0.66692142  0.91956333  1
  Na  Na12  1  0.70061604  0.03483253  0.91461534  1
  Na  Na13  1  0.96800011  0.30254417  0.41563949  1
  Na  Na14  1  0.33301059  0.03376999  0.41886795  1
  Na  Na15  1  0.99765109  0.99064108  0.50065889  1
  Na  Na16  1  0.00995107  0.00332749  0.99933644  1
  Na  Na17  1  0.65695969  0.32658335  0.83348032  1
  Na  Na18  1  0.66658745  0.33327888  0.33327190  1
  Na  Na19  1  0.33617349  0.67582105  0.16672478  1
  Na  Na20  1  0.34227503  0.68110176  0.66658171  1
  La  La0  1  0.98547059  0.98972256  0.34816778  1
  La  La1  1  0.00590527  0.00971413  0.84831809  1
  La  La2  1  0.99947427  0.00017129  0.65373964  1
  La  La3  1  0.99362237  0.99602212  0.15381237  1
  La  La4  1  0.66433985  0.32550083  0.67951090  1
  La  La5  1  0.67168951  0.32608071  0.18171193  1
  La  La6  1  0.66084138  0.33796278  0.98545947  1
  La  La7  1  0.66161589  0.33985686  0.48466850  1
  La  La8  1  0.32978323  0.66064179  0.01330678  1
  La  La9  1  0.33970093  0.67033244  0.51264648  1
  La  La10  1  0.34797172  0.67693744  0.31847235  1
  La  La11  1  0.33672241  0.66519839  0.82029369  1
  Si  Si0  1  0.69353776  0.99973156  0.75038736  1
  Si  Si1  1  0.35795789  0.02480951  0.58254574  1
  Si  Si2  1  0.97272988  0.63962098  0.08335492  1
  P  P0  1  0.29915058  0.00042742  0.25094984  1
  P  P1  1  0.69233055  0.68674774  0.24720409  1
  P  P2  1  0.00592861  0.31039284  0.25117859  1
  P  P3  1  0.30646068  0.30695426  0.74755641  1
  P  P4  1  0.99942967  0.69435766  0.75112947  1
  P  P5  1  0.97213970  0.33441016  0.58204266  1
  P  P6  1  0.66698034  0.63851399  0.58594915  1
  P  P7  1  0.66629698  0.02897693  0.08012552  1
  P  P8  1  0.36258299  0.33246154  0.08675937  1
  P  P9  1  0.64523206  0.67113326  0.91642996  1
  P  P10  1  0.02071761  0.35893036  0.91700646  1
  P  P11  1  0.33373061  0.96895966  0.91667212  1
  P  P12  1  0.64124047  0.97981713  0.41937122  1
  P  P13  1  0.32720764  0.35601691  0.41546946  1
  P  P14  1  0.03416406  0.66627651  0.41570068  1
  O  O0  1  0.21202658  0.01564349  0.30205270  1
  O  O1  1  0.80022538  0.78025796  0.29597734  1
  O  O2  1  0.99154236  0.20955609  0.30260928  1
  O  O3  1  0.21918384  0.19571561  0.79641787  1
  O  O4  1  0.98301453  0.78047018  0.80195337  1
  O  O5  1  0.80456378  0.02077313  0.80436287  1
  O  O6  1  0.77734427  0.97808785  0.69473550  1
  O  O7  1  0.21185520  0.23204133  0.69391795  1
  O  O8  1  0.02229415  0.79547198  0.69846303  1
  O  O9  1  0.76682427  0.77940930  0.19303948  1
  O  O10  1  0.01839300  0.22668313  0.19848168  1
  O  O11  1  0.19998691  0.98232742  0.19810567  1
  O  O12  1  0.89456205  0.35693698  0.63452734  1
  O  O13  1  0.46435204  0.10864642  0.63815795  1
  O  O14  1  0.64858185  0.54471358  0.63980425  1
  O  O15  1  0.88600157  0.52887610  0.13804737  1
  O  O16  1  0.64067521  0.11215082  0.12980321  1
  O  O17  1  0.45967080  0.35165271  0.13961064  1
  O  O18  1  0.44581981  0.30747245  0.03709158  1
  O  O19  1  0.86305188  0.55341817  0.02874810  1
  O  O20  1  0.68563074  0.12607862  0.02728538  1
  O  O21  1  0.44796860  0.13745116  0.52862884  1
  O  O22  1  0.68846386  0.55059871  0.53705470  1
  O  O23  1  0.86905247  0.31753342  0.53112171  1
  O  O24  1  0.55830132  0.68283716  0.96838004  1
  O  O25  1  0.11901844  0.44359059  0.96920541  1
  O  O26  1  0.31796856  0.86793086  0.96897749  1
  O  O27  1  0.56630994  0.88693932  0.47331939  1
  O  O28  1  0.31462028  0.43950749  0.46813510  1
  O  O29  1  0.13313753  0.68436798  0.46851370  1
  O  O30  1  0.12148762  0.65091808  0.36453081  1
  O  O31  1  0.53308645  0.88658403  0.37041195  1
  O  O32  1  0.34166929  0.45739502  0.36402065  1
  O  O33  1  0.10735693  0.45767245  0.86494598  1
  O  O34  1  0.34908845  0.88371912  0.86489397  1
  O  O35  1  0.54767851  0.65827756  0.86425919  1
  O  O36  1  0.02517856  0.82235438  0.41256812  1
  O  O37  1  0.81317601  0.00735380  0.41465620  1
  O  O38  1  0.17071366  0.18919581  0.41340192  1
  O  O39  1  0.99406368  0.18694352  0.91601734  1
  O  O40  1  0.17711613  0.97565816  0.91443820  1
  O  O41  1  0.81185745  0.82700017  0.91520603  1
  O  O42  1  0.98556842  0.18054796  0.58559534  1
  O  O43  1  0.17848876  0.00640533  0.58459982  1
  O  O44  1  0.81642376  0.80892442  0.58647555  1
  O  O45  1  0.99178300  0.81992605  0.08632026  1
  O  O46  1  0.82092283  0.01775483  0.08630072  1
  O  O47  1  0.19045934  0.18500162  0.08891252  1
  O  O48  1  0.67745770  0.16247486  0.74898283  1
  O  O49  1  0.47736307  0.33004647  0.74618967  1
  O  O50  1  0.84608687  0.52720870  0.74770006  1
  O  O51  1  0.68157347  0.52032391  0.24760798  1
  O  O52  1  0.86128218  0.33861833  0.24978282  1
  O  O53  1  0.46337999  0.15595387  0.24816777  1
  O  O54  1  0.67187342  0.52592245  0.91767679  1
  O  O55  1  0.85478860  0.34909621  0.91844084  1
  O  O56  1  0.48944331  0.13288121  0.91888894  1
  O  O57  1  0.65244605  0.14647905  0.41891766  1
  O  O58  1  0.47182639  0.32788850  0.41671993  1
  O  O59  1  0.87015655  0.51048684  0.41841861  1
  O  O60  1  0.35079882  0.48723505  0.08070628  1
  O  O61  1  0.15261504  0.65760151  0.08049665  1
  O  O62  1  0.51848125  0.85674511  0.07821912  1
  O  O63  1  0.34125297  0.84558419  0.58003471  1
  O  O64  1  0.51293957  0.65087202  0.58027679  1
  O  O65  1  0.14282003  0.48337751  0.57812907  1
  O  O66  1  0.30801846  0.84407503  0.25394165  1
  O  O67  1  0.52022811  0.65932754  0.25183396  1
  O  O68  1  0.16251034  0.47748578  0.25309738  1
  O  O69  1  0.31763935  0.47270224  0.75333604  1
  O  O70  1  0.14904280  0.67346517  0.75474941  1
  O  O71  1  0.51358302  0.83839238  0.75300211  1
loop_
_geom_bond_atom_site_label_1
_geom_bond_atom_site_label_2
_geom_bond_distance
_geom_bond_site_symmetry_2
Na0 O67 2.476043 1_555
Na0 O53 2.619947 1_555
Na0 O51 2.650429 1_555
Na0 O68 2.692963 1_555
Na0 O17 2.866392 1_555
Na0 O32 2.963608 1_555
Na1 O52 2.464889 1_555
Na1 O66 2.647310 1_655
Na1 O68 2.668019 1_655
Na1 O51 2.708728 1_555
Na1 O15 2.877608 1_555
Na2 O49 2.611371 1_555
Na2 O69 2.684904 1_555
Na2 O71 2.714314 1_555
Na2 O50 2.749909 1_555
Na2 O14 2.825030 1_555
Na2 O35 2.986317 1_555
Na3 O50 2.636663 1_555
Na3 O70 2.644691 1_655
Na3 O48 2.654266 1_555
Na3 O69 2.784339 1_655
Na3 O33 2.932889 1_655
Na3 O12 3.019720 1_555
Na4 O71 2.528129 1_555
Na4 O48 2.548245 1_565
Na4 O70 2.801665 1_555
Na4 O49 2.833307 1_565
Na4 O13 2.840617 1_565
Na4 O34 3.020848 1_555
Na5 O42 2.641318 1_455
Na5 O65 2.658879 1_555
Na5 O43 2.682498 1_555
Na5 O64 2.784246 1_555
Na5 O7 2.862549 1_555
Na5 O28 2.955468 1_555
Na6 O43 2.511885 1_565
Na6 O63 2.527303 1_555
Na6 O44 2.798833 1_455
Na6 O65 2.799695 1_555
Na6 O29 2.966387 1_555
Na6 O8 2.979497 1_555
Na7 O44 2.640462 1_555
Na7 O64 2.668442 1_555
Na7 O63 2.712590 1_555
Na7 O42 2.762632 1_565
Na7 O6 2.845679 1_555
Na7 O27 2.889620 1_555
Na8 O45 2.537575 1_455
Na8 O61 2.543878 1_555
Na8 O47 2.813555 1_565
Na8 O62 2.821002 1_555
Na8 O26 2.973530 1_554
Na8 O11 2.981761 1_555
Na9 O62 2.641424 1_555
Na9 O46 2.686995 1_565
Na9 O45 2.690012 1_555
Na9 O60 2.752395 1_555
Na9 O9 2.818898 1_555
Na9 O24 2.975917 1_554
Na10 O47 2.647112 1_555
Na10 O61 2.684040 1_555
Na10 O60 2.692889 1_555
Na10 O46 2.742304 1_455
Na10 O10 2.954900 1_555
Na10 O25 2.960312 1_554
Na11 O54 2.467494 1_555
Na11 O41 2.636871 1_555
Na11 O40 2.647321 1_655
Na11 O55 2.703487 1_555
Na11 O19 2.854206 1_556
Na11 O4 3.035923 1_555
Na12 O39 2.462072 1_555
Na12 O55 2.635641 1_555
Na12 O56 2.653988 1_555
Na12 O41 2.716465 1_545
Na12 O5 2.895996 1_555
Na12 O20 2.911826 1_556
Na13 O37 2.474757 1_555
Na13 O59 2.620408 1_555
Na13 O57 2.647943 1_555
Na13 O38 2.687500 1_655
Na13 O2 2.943900 1_555
Na13 O23 2.999339 1_555
Na14 O58 2.466143 1_555
Na14 O36 2.645355 1_545
Na14 O38 2.668175 1_555
Na14 O57 2.718200 1_555
Na14 O21 2.878217 1_555
Na15 O43 2.643826 1_665
Na15 O44 2.724563 1_555
Na15 O38 2.785717 1_665
Na15 O36 2.792328 1_655
Na15 O37 2.806165 1_565
Na15 O42 2.815026 1_565
Na16 O45 2.704384 1_446
Na16 O40 2.723751 1_545
Na16 O39 2.744035 1_455
Na16 O41 2.744667 1_445
Na16 O47 2.802256 1_556
Na16 O46 2.851155 1_456
Na17 O48 2.673138 1_555
Na17 O56 2.719638 1_555
Na17 O55 2.751279 1_555
Na17 O49 2.754451 1_555
Na17 O54 2.776036 1_555
Na17 O50 2.810254 1_555
Na18 O51 2.710064 1_555
Na18 O57 2.710509 1_555
Na18 O58 2.757662 1_555
Na18 O52 2.758126 1_555
Na18 O53 2.784406 1_555
Na18 O59 2.786271 1_555
Na19 O61 2.697222 1_555
Na19 O68 2.770091 1_555
Na19 O62 2.775884 1_555
Na19 O66 2.778138 1_555
Na19 O67 2.786497 1_555
Na19 O60 2.835045 1_555
Na20 O63 2.636796 1_555
Na20 O71 2.643658 1_555
Na20 O64 2.781663 1_555
Na20 O70 2.826985 1_555
Na20 O69 2.838950 1_555
Na20 O65 2.891097 1_555
La0 O1 2.306876 1_555
La0 O0 2.365686 1_665
La0 O2 2.368690 1_565
La0 O37 2.394536 1_565
La0 O36 2.413353 1_655
La0 O38 2.454216 1_665
La1 O5 2.271879 1_455
La1 O3 2.317022 1_555
La1 O4 2.404148 1_445
La1 O39 2.428950 1_455
La1 O41 2.442450 1_445
La1 O40 2.445845 1_545
La2 O6 2.284486 1_545
La2 O8 2.361011 1_645
La2 O7 2.370675 1_655
La2 O43 2.397872 1_655
La2 O44 2.446927 1_545
La2 O42 2.453862 1_555
La3 O11 2.330919 1_655
La3 O9 2.347454 1_555
La3 O45 2.367329 1_555
La3 O10 2.390257 1_665
La3 O46 2.425407 1_565
La3 O47 2.442729 1_665
La4 O13 2.262062 1_555
La4 O48 2.353127 1_555
La4 O12 2.365050 1_555
La4 O14 2.400316 1_555
La4 O49 2.451554 1_555
La4 O50 2.499855 1_555
La5 O15 2.280347 1_555
La5 O16 2.319143 1_555
La5 O17 2.414427 1_555
La5 O52 2.429339 1_555
La5 O51 2.443074 1_555
La5 O53 2.461426 1_555
La6 O19 2.285394 1_556
La6 O18 2.323247 1_556
La6 O20 2.402148 1_556
La6 O54 2.411949 1_555
La6 O55 2.451788 1_555
La6 O56 2.459244 1_555
La7 O21 2.279087 1_555
La7 O22 2.313049 1_555
La7 O23 2.405821 1_555
La7 O58 2.430504 1_555
La7 O57 2.436837 1_555
La7 O59 2.460481 1_555
La8 O26 2.325831 1_554
La8 O25 2.336001 1_554
La8 O61 2.362651 1_555
La8 O24 2.382202 1_554
La8 O60 2.421085 1_555
La8 O62 2.447217 1_555
La9 O29 2.332429 1_555
La9 O27 2.347517 1_555
La9 O63 2.360670 1_555
La9 O28 2.388794 1_555
La9 O64 2.421840 1_555
La9 O65 2.445213 1_555
La10 O31 2.303942 1_555
La10 O30 2.364076 1_555
La10 O32 2.365140 1_555
La10 O67 2.396652 1_555
La10 O66 2.414910 1_555
La10 O68 2.457068 1_555
La11 O34 2.331812 1_555
La11 O35 2.335640 1_555
La11 O71 2.352690 1_555
La11 O33 2.381547 1_555
La11 O69 2.418450 1_555
La11 O70 2.447746 1_555
O0 P0 1.553096 1_555
O1 P1 1.543044 1_555
O2 P2 1.546190 1_655
O3 P3 1.538701 1_555
O4 P4 1.547615 1_555
O5 Si0 1.644042 1_545
O6 Si0 1.648006 1_555
O7 P3 1.552670 1_555
O8 P4 1.555966 1_455
O9 P1 1.551320 1_555
O10 P2 1.557635 1_555
O11 P0 1.561243 1_565
O12 P5 1.554175 1_555
O13 Si1 1.650004 1_555
O14 P6 1.549424 1_555
O15 Si2 1.647652 1_555
O16 P7 1.543933 1_555
O17 P8 1.548328 1_555
O18 P8 1.540382 1_555
O19 Si2 1.646508 1_555
O20 P7 1.544186 1_555
O21 Si1 1.645875 1_555
O22 P6 1.540504 1_555
O23 P5 1.547462 1_555
O24 P9 1.556441 1_555
O25 P10 1.555046 1_555
O26 P11 1.561573 1_555
O27 P12 1.548329 1_555
O28 P13 1.556216 1_555
O29 P14 1.559607 1_555
O30 P14 1.556063 1_555
O31 P12 1.546830 1_555
O32 P13 1.549435 1_555
O33 P10 1.553035 1_555
O34 P11 1.557634 1_555
O35 P9 1.549459 1_555
O36 P14 1.557621 1_555
O37 P12 1.554085 1_545
O38 P13 1.567910 1_555
O39 P10 1.551980 1_655
O40 P11 1.551723 1_555
O41 P9 1.563534 1_555
O42 P5 1.560451 1_555
O43 Si1 1.657695 1_555
O44 P6 1.557736 1_555
O45 Si2 1.662520 1_555
O46 P7 1.562276 1_555
O47 P8 1.561298 1_555
O48 Si0 1.658923 1_545
O49 P3 1.556435 1_555
O50 P4 1.557695 1_555
O51 P1 1.561312 1_555
O52 P2 1.556574 1_655
O53 P0 1.550459 1_555
O54 P9 1.551097 1_555
O55 P10 1.562635 1_655
O56 P11 1.549396 1_545
O57 P12 1.561664 1_545
O58 P13 1.555657 1_555
O59 P14 1.550404 1_655
O60 P8 1.564590 1_555
O61 Si2 1.664157 1_455
O62 P7 1.562935 1_565
O63 Si1 1.661171 1_565
O64 P6 1.561608 1_555
O65 P5 1.560392 1_455
O66 P0 1.559509 1_565
O67 P1 1.555939 1_555
O68 P2 1.569606 1_555
O69 P3 1.560089 1_555
O70 P4 1.562925 1_455
O71 Si0 1.660191 1_555
