# generated using pymatgen
data_Na3Hf2Mg2P3(SO8)3
_symmetry_space_group_name_H-M   'P 1'
_cell_length_a   8.82214056
_cell_length_b   8.80100402
_cell_length_c   22.86160587
_cell_angle_alpha   90.05787933
_cell_angle_beta   89.91464776
_cell_angle_gamma   119.89212095
_symmetry_Int_Tables_number   1
_chemical_formula_structural   Na3Hf2Mg2P3(SO8)3
_chemical_formula_sum   'Na9 Hf6 Mg6 P9 S9 O72'
_cell_volume   1538.91323038
_cell_formula_units_Z   3
loop_
 _symmetry_equiv_pos_site_id
 _symmetry_equiv_pos_as_xyz
  1  'x, y, z'
loop_
 _atom_site_type_symbol
 _atom_site_label
 _atom_site_symmetry_multiplicity
 _atom_site_fract_x
 _atom_site_fract_y
 _atom_site_fract_z
 _atom_site_occupancy
  Na  Na0  1  0.66309493  0.68919064  0.08221077  1
  Na  Na1  1  0.33278643  0.29924154  0.91735302  1
  Na  Na2  1  0.33292736  0.03327265  0.41745365  1
  Na  Na3  1  0.99681806  0.00018284  0.49928256  1
  Na  Na4  1  0.00308732  0.99827908  0.99905183  1
  Na  Na5  1  0.67465909  0.33419257  0.83320193  1
  Na  Na6  1  0.67399260  0.33926134  0.33288921  1
  Na  Na7  1  0.32167891  0.66099525  0.16387234  1
  Na  Na8  1  0.33422389  0.67195343  0.66342974  1
  Hf  Hf0  1  0.00612177  -0.00033511  0.64865257  1
  Hf  Hf1  1  0.01201999  0.00481428  0.14922607  1
  Hf  Hf2  1  0.66018144  0.32461076  0.68715354  1
  Hf  Hf3  1  0.67031106  0.34169226  0.18694625  1
  Hf  Hf4  1  0.33265649  0.66366162  0.31083632  1
  Hf  Hf5  1  0.33264993  0.66969860  0.81058947  1
  Mg  Mg0  1  0.99369428  0.99969459  0.34762456  1
  Mg  Mg1  1  0.99353893  0.99472224  0.84743724  1
  Mg  Mg2  1  0.67226402  0.33819470  0.98497935  1
  Mg  Mg3  1  0.66675931  0.33408458  0.48455282  1
  Mg  Mg4  1  0.31917956  0.66047989  0.02032541  1
  Mg  Mg5  1  0.33437901  0.67189056  0.52024211  1
  P  P0  1  0.29199966  0.00264494  0.25342723  1
  P  P1  1  0.71396643  0.71416385  0.25140556  1
  P  P2  1  0.99703932  0.28610378  0.25213174  1
  P  P3  1  0.28833495  0.28773416  0.75277832  1
  P  P4  1  0.99611249  0.70967100  0.75192741  1
  P  P5  1  0.71509750  0.00081181  0.75158308  1
  P  P6  1  0.37598980  0.03840976  0.58008723  1
  P  P7  1  0.96131558  0.62335697  0.08126298  1
  P  P8  1  0.37588940  0.33489848  0.08016139  1
  S  S0  1  0.95906854  0.33591078  0.58161736  1
  S  S1  1  0.66385279  0.62273307  0.58174204  1
  S  S2  1  0.66456096  0.04209964  0.08175199  1
  S  S3  1  0.62815113  0.67030302  0.91817435  1
  S  S4  1  0.03930870  0.37370725  0.91756473  1
  S  S5  1  0.33331693  0.95847348  0.91826208  1
  S  S6  1  0.62791131  0.95771155  0.41805469  1
  S  S7  1  0.33269702  0.37540144  0.41850917  1
  S  S8  1  0.03932383  0.66478468  0.41804923  1
  O  O0  1  0.21473150  0.03107059  0.30851167  1
  O  O1  1  0.82244922  0.79139926  0.30498349  1
  O  O2  1  0.96911825  0.17947393  0.30604419  1
  O  O3  1  0.21481581  0.18333407  0.80825065  1
  O  O4  1  0.96793494  0.78851452  0.80585087  1
  O  O5  1  0.82131194  0.03209660  0.80578214  1
  O  O6  1  0.79370869  0.97035634  0.69513415  1
  O  O7  1  0.17642692  0.20661848  0.69700059  1
  O  O8  1  0.02949360  0.82213864  0.69574910  1
  O  O9  1  0.78855290  0.81946503  0.19355266  1
  O  O10  1  0.02920074  0.20739288  0.19570518  1
  O  O11  1  0.17848876  0.96968690  0.19755569  1
  O  O12  1  0.87649011  0.36073296  0.63544113  1
  O  O13  1  0.48958977  0.13256934  0.63550491  1
  O  O14  1  0.64250955  0.51718111  0.63554783  1
  O  O15  1  0.87125915  0.51125490  0.13705337  1
  O  O16  1  0.63971042  0.12252043  0.13548129  1
  O  O17  1  0.49162804  0.36083327  0.13538862  1
  O  O18  1  0.45226097  0.30049020  0.02516173  1
  O  O19  1  0.84079654  0.54511071  0.02888418  1
  O  O20  1  0.69565746  0.15010778  0.03011566  1
  O  O21  1  0.45354702  0.15132740  0.52564373  1
  O  O22  1  0.69721362  0.54584297  0.53018463  1
  O  O23  1  0.85008183  0.30574420  0.53014829  1
  O  O24  1  0.54537743  0.69379591  0.97088587  1
  O  O25  1  0.15327772  0.45598704  0.96847721  1
  O  O26  1  0.30880538  0.84960361  0.96926766  1
  O  O27  1  0.54300384  0.84883736  0.46935847  1
  O  O28  1  0.30780425  0.45961691  0.46964383  1
  O  O29  1  0.15297861  0.69555786  0.46893694  1
  O  O30  1  0.12503879  0.64008262  0.36434712  1
  O  O31  1  0.51206677  0.87429246  0.36483416  1
  O  O32  1  0.35819655  0.48498116  0.36477987  1
  O  O33  1  0.12569573  0.48495634  0.86418196  1
  O  O34  1  0.35816451  0.87355471  0.86452857  1
  O  O35  1  0.51106981  0.63926791  0.86556786  1
  O  O36  1  0.02780102  0.82687740  0.41046461  1
  O  O37  1  0.80163080  0.97656107  0.41022283  1
  O  O38  1  0.17806123  0.19720314  0.41109893  1
  O  O39  1  0.02813333  0.20029644  0.91016477  1
  O  O40  1  0.17806836  0.98120021  0.91093724  1
  O  O41  1  0.80141513  0.82512666  0.91033451  1
  O  O42  1  0.97387462  0.17406731  0.58998578  1
  O  O43  1  0.19214998  0.02362721  0.59052356  1
  O  O44  1  0.82335425  0.80094107  0.58992626  1
  O  O45  1  0.96912049  0.80558910  0.09102918  1
  O  O46  1  0.82269042  0.01948863  0.08951442  1
  O  O47  1  0.19134814  0.17122385  0.08988268  1
  O  O48  1  0.68867569  0.16184456  0.74209666  1
  O  O49  1  0.47418457  0.31381231  0.74208995  1
  O  O50  1  0.83770372  0.52458644  0.74076276  1
  O  O51  1  0.68685477  0.52639030  0.24295671  1
  O  O52  1  0.83699477  0.31118363  0.24220945  1
  O  O53  1  0.47558290  0.16145171  0.24194958  1
  O  O54  1  0.63701022  0.50526619  0.92173883  1
  O  O55  1  0.86521048  0.35667599  0.92294828  1
  O  O56  1  0.49138789  0.13648557  0.92208822  1
  O  O57  1  0.63835148  0.13242475  0.42254237  1
  O  O58  1  0.49104502  0.35527545  0.42219747  1
  O  O59  1  0.86512389  0.50744551  0.42354883  1
  O  O60  1  0.36541651  0.50410802  0.07652381  1
  O  O61  1  0.14343827  0.64765321  0.07723630  1
  O  O62  1  0.51218701  0.86374468  0.07620312  1
  O  O63  1  0.35478548  0.85580275  0.57708706  1
  O  O64  1  0.50815483  0.64111520  0.57645545  1
  O  O65  1  0.13443243  0.48959220  0.57639838  1
  O  O66  1  0.31093536  0.83600253  0.25810566  1
  O  O67  1  0.52636877  0.68956753  0.25761261  1
  O  O68  1  0.16216274  0.47314163  0.25758718  1
  O  O69  1  0.31110939  0.47470193  0.75792637  1
  O  O70  1  0.16208081  0.68917114  0.75734155  1
  O  O71  1  0.52707040  0.83782727  0.75768900  1
loop_
_geom_bond_atom_site_label_1
_geom_bond_atom_site_label_2
_geom_bond_distance
_geom_bond_site_symmetry_2
Na0 O60 2.302985 1_555
Na0 O45 2.371392 1_555
Na0 O62 2.488157 1_555
Na0 O46 2.526027 1_565
Na0 O19 2.743094 1_555
Na0 O24 2.758182 1_554
Na0 O9 2.785060 1_555
Na0 O17 2.786038 1_555
Na1 O54 2.377178 1_555
Na1 O39 2.382687 1_555
Na1 O40 2.431274 1_545
Na1 O56 2.453523 1_555
Na1 O18 2.679901 1_556
Na1 O3 2.699902 1_555
Na1 O25 2.818837 1_555
Na1 O35 2.853253 1_555
Na2 O57 2.385878 1_555
Na2 O36 2.387093 1_545
Na2 O38 2.436191 1_555
Na2 O58 2.459354 1_555
Na2 O21 2.688906 1_555
Na2 O0 2.697816 1_555
Na2 O29 2.835154 1_545
Na2 O31 2.845606 1_545
Na3 O37 2.608958 1_545
Na3 O38 2.619469 1_655
Na3 O36 2.632829 1_645
Na3 O42 2.642718 1_555
Na3 O43 2.649270 1_655
Na3 O44 2.652206 1_545
Na4 O40 2.585537 1_555
Na4 O47 2.621334 1_566
Na4 O45 2.624141 1_456
Na4 O41 2.627453 1_455
Na4 O39 2.637000 1_565
Na4 O46 2.670265 1_466
Na5 O55 2.598598 1_555
Na5 O48 2.614191 1_555
Na5 O50 2.634121 1_555
Na5 O56 2.639017 1_555
Na5 O54 2.639027 1_555
Na5 O49 2.681966 1_555
Na6 O52 2.602104 1_555
Na6 O51 2.602354 1_555
Na6 O59 2.616571 1_555
Na6 O58 2.647607 1_555
Na6 O57 2.654928 1_555
Na6 O53 2.666302 1_555
Na7 O61 2.496824 1_555
Na7 O60 2.562478 1_555
Na7 O68 2.642561 1_555
Na7 O62 2.652132 1_555
Na7 O66 2.675936 1_555
Na7 O67 2.733983 1_555
Na8 O63 2.502051 1_555
Na8 O64 2.605134 1_555
Na8 O65 2.612618 1_555
Na8 O70 2.675412 1_555
Na8 O71 2.682970 1_555
Na8 O69 2.715846 1_555
Hf0 O8 1.992006 1_545
Hf0 O7 2.017381 1_555
Hf0 O43 2.037898 1_555
Hf0 O6 2.054317 1_445
Hf0 O44 2.156876 1_445
Hf0 O42 2.162476 1_455
Hf1 O11 1.982740 1_545
Hf1 O10 2.014467 1_555
Hf1 O47 2.043677 1_555
Hf1 O45 2.079207 1_445
Hf1 O9 2.089619 1_445
Hf1 O46 2.211838 1_455
Hf2 O13 1.995427 1_555
Hf2 O48 2.014082 1_555
Hf2 O49 2.029185 1_555
Hf2 O50 2.075181 1_555
Hf2 O12 2.128311 1_555
Hf2 O14 2.134608 1_555
Hf3 O15 2.007816 1_555
Hf3 O51 2.015732 1_555
Hf3 O17 2.042853 1_555
Hf3 O52 2.056807 1_555
Hf3 O53 2.080903 1_555
Hf3 O16 2.157614 1_555
Hf4 O68 2.010819 1_555
Hf4 O67 2.014713 1_555
Hf4 O66 2.021054 1_555
Hf4 O32 2.098220 1_555
Hf4 O30 2.123556 1_555
Hf4 O31 2.131253 1_555
Hf5 O70 2.009620 1_555
Hf5 O71 2.015389 1_555
Hf5 O69 2.025416 1_555
Hf5 O34 2.093812 1_555
Hf5 O33 2.125252 1_555
Hf5 O35 2.134453 1_555
Mg0 O2 1.949282 1_565
Mg0 O1 1.957966 1_555
Mg0 O0 2.033957 1_665
Mg0 O37 2.147098 1_555
Mg0 O36 2.220275 1_655
Mg0 O38 2.226374 1_665
Mg1 O5 1.956216 1_565
Mg1 O4 1.958850 1_555
Mg1 O3 2.033913 1_665
Mg1 O41 2.154950 1_555
Mg1 O39 2.206525 1_665
Mg1 O40 2.229872 1_655
Mg2 O19 1.958671 1_556
Mg2 O18 2.018522 1_556
Mg2 O20 2.047483 1_556
Mg2 O55 2.156929 1_555
Mg2 O54 2.193293 1_555
Mg2 O56 2.223326 1_555
Mg3 O21 1.997471 1_555
Mg3 O22 2.032642 1_555
Mg3 O23 2.042561 1_555
Mg3 O59 2.161281 1_555
Mg3 O58 2.182954 1_555
Mg3 O57 2.185209 1_555
Mg4 O61 1.982210 1_555
Mg4 O25 2.039994 1_554
Mg4 O60 2.067789 1_555
Mg4 O26 2.073029 1_554
Mg4 O62 2.167305 1_555
Mg4 O24 2.180924 1_554
Mg5 O63 2.011763 1_555
Mg5 O27 2.075168 1_555
Mg5 O29 2.078113 1_555
Mg5 O28 2.107885 1_555
Mg5 O64 2.120304 1_555
Mg5 O65 2.123773 1_555
O0 P0 1.509944 1_555
O1 P1 1.493890 1_555
O2 P2 1.493823 1_555
O3 P3 1.509674 1_555
O4 P4 1.494097 1_555
O5 P5 1.494916 1_555
O6 P5 1.549244 1_565
O7 P3 1.552355 1_555
O8 P4 1.557843 1_455
O9 P1 1.559875 1_555
O10 P2 1.554833 1_455
O11 P0 1.559495 1_565
O12 S0 1.499336 1_555
O13 P6 1.571662 1_555
O14 S1 1.496266 1_555
O15 P7 1.565132 1_555
O16 S2 1.486587 1_555
O17 P8 1.568357 1_555
O18 P8 1.525365 1_555
O19 P7 1.520180 1_555
O20 S2 1.453889 1_555
O21 P6 1.525509 1_555
O22 S1 1.459358 1_555
O23 S0 1.458699 1_555
O24 S3 1.474979 1_555
O25 S4 1.471782 1_555
O26 S5 1.455865 1_555
O27 S6 1.462584 1_555
O28 S7 1.457363 1_555
O29 S8 1.471163 1_555
O30 S8 1.512260 1_555
O31 S6 1.522461 1_555
O32 S7 1.508256 1_555
O33 S4 1.511545 1_555
O34 S5 1.508743 1_555
O35 S3 1.519785 1_555
O36 S8 1.490177 1_555
O37 S6 1.467719 1_555
O38 S7 1.488969 1_555
O39 S4 1.489008 1_555
O40 S5 1.489204 1_555
O41 S3 1.465933 1_555
O42 S0 1.506190 1_555
O43 P6 1.578885 1_555
O44 S1 1.508438 1_555
O45 P7 1.586221 1_555
O46 S2 1.514842 1_555
O47 P8 1.561087 1_555
O48 P5 1.562055 1_555
O49 P3 1.557075 1_555
O50 P4 1.550095 1_555
O51 P1 1.559198 1_555
O52 P2 1.550945 1_555
O53 P0 1.545514 1_555
O54 S3 1.495287 1_555
O55 S4 1.471960 1_655
O56 S5 1.493080 1_545
O57 S6 1.497307 1_545
O58 S7 1.495668 1_555
O59 S8 1.474364 1_655
O60 P8 1.539684 1_555
O61 P7 1.514225 1_455
O62 S2 1.477837 1_565
O63 P6 1.524042 1_565
O64 S1 1.466137 1_555
O65 S0 1.466695 1_455
O66 P0 1.560416 1_565
O67 P1 1.564714 1_555
O68 P2 1.567592 1_455
O69 P3 1.559503 1_555
O70 P4 1.567046 1_455
O71 P5 1.567399 1_565
