# generated using pymatgen
data_Na2Nd2MgTi2O8
_symmetry_space_group_name_H-M   'P 1'
_cell_length_a   3.64686210
_cell_length_b   3.64686210
_cell_length_c   17.08061818
_cell_angle_alpha   90.00000000
_cell_angle_beta   90.00000000
_cell_angle_gamma   90.00000000
_symmetry_Int_Tables_number   1
_chemical_formula_structural   Na2Nd2MgTi2O8
_chemical_formula_sum   'Na2 Nd2 Mg1 Ti2 O8'
_cell_volume   227.16544380
_cell_formula_units_Z   1
loop_
 _symmetry_equiv_pos_site_id
 _symmetry_equiv_pos_as_xyz
  1  'x, y, z'
loop_
 _atom_site_type_symbol
 _atom_site_label
 _atom_site_symmetry_multiplicity
 _atom_site_fract_x
 _atom_site_fract_y
 _atom_site_fract_z
 _atom_site_occupancy
  Na  Na0  1  0.25000000  0.25000000  0.56105024  1
  Na  Na1  1  0.75000000  0.75000000  0.43894976  1
  Nd  Nd0  1  0.75000000  0.75000000  0.18752348  1
  Nd  Nd1  1  0.25000000  0.25000000  0.81247652  1
  Mg  Mg0  1  0.75000000  0.25000000  0.00000000  1
  Ti  Ti0  1  0.25000000  0.25000000  0.31995606  1
  Ti  Ti1  1  0.75000000  0.75000000  0.68004394  1
  O  O0  1  0.75000000  0.75000000  0.84216111  1
  O  O1  1  0.25000000  0.25000000  0.15783889  1
  O  O2  1  0.75000000  0.75000000  0.57548607  1
  O  O3  1  0.25000000  0.25000000  0.42451393  1
  O  O4  1  0.75000000  0.25000000  0.28653256  1
  O  O5  1  0.25000000  0.75000000  0.28668527  1
  O  O6  1  0.75000000  0.25000000  0.71346744  1
  O  O7  1  0.25000000  0.75000000  0.71331473  1
loop_
_geom_bond_atom_site_label_1
_geom_bond_atom_site_label_2
_geom_bond_distance
_geom_bond_site_symmetry_2
Na0 O3 2.332125 1_555
Na0 O2 2.590483 1_445
Na0 O2 2.590483 1_545
Na0 O2 2.590483 1_455
Na0 O2 2.590483 1_555
Na1 O2 2.332125 1_555
Na1 O3 2.590483 1_555
Na1 O3 2.590483 1_565
Na1 O3 2.590483 1_655
Na1 O3 2.590483 1_665
Nd0 O4 2.486934 1_555
Nd0 O4 2.486934 1_565
Nd0 O5 2.488709 1_655
Nd0 O5 2.488709 1_555
Nd0 O1 2.628095 1_555
Nd0 O1 2.628095 1_655
Nd0 O1 2.628095 1_565
Nd0 O1 2.628095 1_665
Nd1 O6 2.486934 1_455
Nd1 O6 2.486934 1_555
Nd1 O7 2.488709 1_545
Nd1 O7 2.488709 1_555
Nd1 O0 2.628095 1_545
Nd1 O0 2.628095 1_555
Nd1 O0 2.628095 1_455
Nd1 O0 2.628095 1_445
O0 Ti1 2.769061 1_555
O1 Ti0 2.769061 1_555
O2 Ti1 1.785913 1_555
O3 Ti0 1.785913 1_555
O4 Ti0 1.910712 1_555
O4 Ti0 1.910712 1_655
O5 Ti0 1.909934 1_565
O5 Ti0 1.909934 1_555
O6 Ti1 1.910712 1_545
O6 Ti1 1.910712 1_555
O7 Ti1 1.909934 1_455
O7 Ti1 1.909934 1_555
