# generated using pymatgen
data_MgV2Te2O7F2
_symmetry_space_group_name_H-M   'P 1'
_cell_length_a   5.00136792
_cell_length_b   5.63073215
_cell_length_c   7.73730620
_cell_angle_alpha   115.08468330
_cell_angle_beta   93.89224658
_cell_angle_gamma   79.06175348
_symmetry_Int_Tables_number   1
_chemical_formula_structural   MgV2Te2O7F2
_chemical_formula_sum   'Mg1 V2 Te2 O7 F2'
_cell_volume   193.73728366
_cell_formula_units_Z   1
loop_
 _symmetry_equiv_pos_site_id
 _symmetry_equiv_pos_as_xyz
  1  'x, y, z'
loop_
 _atom_site_type_symbol
 _atom_site_label
 _atom_site_symmetry_multiplicity
 _atom_site_fract_x
 _atom_site_fract_y
 _atom_site_fract_z
 _atom_site_occupancy
  Mg  Mg0  1  0.25887798  0.06994050  0.01546691  1
  V  V0  1  0.76300779  0.35730778  0.36091071  1
  V  V1  1  0.21912754  0.63097552  0.63346373  1
  Te  Te0  1  0.75583457  0.33323572  0.80629429  1
  Te  Te1  1  0.22942007  0.69855530  0.21809115  1
  O  O0  1  0.06075573  0.98832458  0.77197229  1
  O  O1  1  0.02111281  0.62151566  0.38268459  1
  O  O2  1  0.00131611  0.03795283  0.19926102  1
  O  O3  1  0.45992129  0.67473638  0.88356358  1
  O  O4  1  0.50143500  0.33576825  0.14709006  1
  O  O5  1  0.93739517  0.41638161  0.62812018  1
  O  O6  1  0.01491165  0.46675798  0.01204113  1
  F  F0  1  0.47186747  0.25158247  0.48470908  1
  F  F1  1  0.51751681  0.71696541  0.52114629  1
loop_
_geom_bond_atom_site_label_1
_geom_bond_atom_site_label_2
_geom_bond_distance
_geom_bond_site_symmetry_2
Mg0 O0 1.981846 1_544
Mg0 O4 1.994513 1_555
Mg0 O2 2.065917 1_555
Mg0 O3 2.090214 1_544
Mg0 O6 2.343740 1_555
O0 V1 1.872583 1_555
O0 Te0 2.159088 1_465
O1 Te1 1.927548 1_555
O1 V0 2.096358 1_455
O1 V1 2.102403 1_555
O2 V0 1.923647 1_455
O2 Te1 2.088299 1_545
O3 Te0 2.076206 1_555
O3 V1 2.155827 1_555
O4 V0 2.014803 1_555
O4 Te1 2.102555 1_555
O5 Te0 1.955195 1_555
O5 V1 2.010728 1_655
O5 V0 2.104279 1_555
O6 Te0 1.962970 1_454
O6 Te1 1.982682 1_555
F0 V0 2.096175 1_555
F0 V1 2.138703 1_555
F1 V1 2.005953 1_555
F1 V0 2.068786 1_555
