# generated using pymatgen
data_Sr4MgIn2(SbO6)2
_symmetry_space_group_name_H-M   'P 1'
_cell_length_a   5.97366054
_cell_length_b   5.83224276
_cell_length_c   9.73942717
_cell_angle_alpha   91.87842991
_cell_angle_beta   99.61938707
_cell_angle_gamma   89.10340323
_symmetry_Int_Tables_number   1
_chemical_formula_structural   Sr4MgIn2(SbO6)2
_chemical_formula_sum   'Sr4 Mg1 In2 Sb2 O12'
_cell_volume   334.35148940
_cell_formula_units_Z   1
loop_
 _symmetry_equiv_pos_site_id
 _symmetry_equiv_pos_as_xyz
  1  'x, y, z'
loop_
 _atom_site_type_symbol
 _atom_site_label
 _atom_site_symmetry_multiplicity
 _atom_site_fract_x
 _atom_site_fract_y
 _atom_site_fract_z
 _atom_site_occupancy
  Sr  Sr0  1  0.95875700  0.01668800  0.78322400  1
  Sr  Sr1  1  0.46354100  0.53593300  0.78787700  1
  Sr  Sr2  1  0.09255700  0.03431600  0.17574300  1
  Sr  Sr3  1  0.54919700  0.48122300  0.18062600  1
  Mg  Mg0  1  0.69934300  0.94721300  0.37360800  1
  In  In0  1  0.95164100  0.46213600  0.53556400  1
  In  In1  1  0.51553300  0.01005000  0.97806900  1
  Sb  Sb0  1  0.33405600  0.00582300  0.55487900  1
  Sb  Sb1  1  0.00801100  0.51248200  0.97749400  1
  O  O0  1  0.68636500  0.62650400  0.41831700  1
  O  O1  1  0.75077700  0.72638900  0.01136400  1
  O  O2  1  0.87320200  0.49087800  0.76930300  1
  O  O3  1  0.20976900  0.26446000  0.65082100  1
  O  O4  1  0.26381700  0.28541800  0.95270200  1
  O  O5  1  0.54274200  0.96685600  0.74477800  1
  O  O6  1  0.12738200  0.52280100  0.17862200  1
  O  O7  1  0.51232100  0.03943300  0.20157600  1
  O  O8  1  0.21621200  0.77558000  0.94773600  1
  O  O9  1  0.15668500  0.75526600  0.60762900  1
  O  O10  1  0.80304900  0.24308800  0.00129000  1
  O  O11  1  0.97254500  0.13079500  0.41096500  1
loop_
_geom_bond_atom_site_label_1
_geom_bond_atom_site_label_2
_geom_bond_distance
_geom_bond_site_symmetry_2
Mg0 O7 1.938915 1_565
Mg0 O0 1.939955 1_555
Mg0 O11 1.942406 1_565
Mg0 Sb0 3.036431 1_565
In0 O0 2.038036 1_555
In0 O3 2.101821 1_655
In0 O9 2.148306 1_655
In0 O11 2.260971 1_555
In0 O2 2.399802 1_555
In1 O1 2.151051 1_546
In1 O4 2.174306 1_555
In1 O7 2.181221 1_556
In1 O10 2.184346 1_556
In1 O8 2.242295 1_545
In1 O5 2.310201 1_545
O0 Sr3 2.451050 1_555
O1 Sb1 2.027036 1_654
O1 Sr3 2.661577 1_555
O1 Sr1 2.751125 1_554
O1 Sr2 2.964904 1_665
O2 Sb1 2.053414 1_655
O2 Sr1 2.493021 1_555
O2 Sr0 2.808072 1_555
O2 Sr0 3.111682 1_565
O3 Sb0 1.950422 1_555
O3 Sr1 2.418061 1_555
O3 Sr0 2.614513 1_455
O4 Sb1 2.046010 1_555
O4 Sr1 2.642641 1_555
O4 Sr0 2.723297 1_455
O4 Sr3 2.787126 1_556
O4 Sr2 2.984690 1_556
O5 Sb0 2.067492 1_565
O5 Sr0 2.470837 1_565
O5 Sr1 2.624728 1_555
O6 Sb1 1.968774 1_554
O6 Sr3 2.524525 1_555
O6 Sr2 2.858674 1_555
O6 Sr2 2.987998 1_565
O7 Sr2 2.478486 1_555
O7 Sr3 2.606993 1_555
O8 Sb1 2.048105 1_555
O8 Sr0 2.483220 1_465
O8 Sr1 2.668694 1_555
O8 Sr2 2.836849 1_566
O9 Sb0 1.949775 1_565
O9 Sr1 2.660198 1_555
O9 Sr0 2.663792 1_465
O10 Sb1 2.049461 1_654
O10 Sr2 2.539294 1_655
O10 Sr0 2.749054 1_554
O10 Sr3 2.817701 1_555
O11 Sb0 2.483059 1_655
O11 Sr2 2.555521 1_655
