# generated using pymatgen
data_Na2LaGaSi(SO6)2
_symmetry_space_group_name_H-M   'P 1'
_cell_length_a   9.13465703
_cell_length_b   9.17404969
_cell_length_c   23.54059655
_cell_angle_alpha   89.15539875
_cell_angle_beta   88.87445668
_cell_angle_gamma   120.15156421
_symmetry_Int_Tables_number   1
_chemical_formula_structural   Na2LaGaSi(SO6)2
_chemical_formula_sum   'Na12 La6 Ga6 Si6 S12 O72'
_cell_volume   1704.81134774
_cell_formula_units_Z   6
loop_
 _symmetry_equiv_pos_site_id
 _symmetry_equiv_pos_as_xyz
  1  'x, y, z'
loop_
 _atom_site_type_symbol
 _atom_site_label
 _atom_site_symmetry_multiplicity
 _atom_site_fract_x
 _atom_site_fract_y
 _atom_site_fract_z
 _atom_site_occupancy
  Na  Na0  1  0.99828127  0.62922338  0.25698111  1
  Na  Na1  1  0.37967423  0.01179236  0.74144367  1
  Na  Na2  1  0.65819091  0.95984784  0.59587559  1
  Na  Na3  1  0.03409602  0.34105494  0.10267927  1
  Na  Na4  1  0.99197638  0.67818250  0.93161458  1
  Na  Na5  1  0.32399645  0.02354255  0.41565625  1
  Na  Na6  1  0.00879215  0.98434262  0.50090553  1
  Na  Na7  1  0.02299577  0.98150620  0.00335449  1
  Na  Na8  1  0.66743361  0.30045143  0.82748467  1
  Na  Na9  1  0.67783139  0.33385344  0.33780416  1
  Na  Na10  1  0.33743352  0.65535088  0.17719839  1
  Na  Na11  1  0.33269998  0.66505773  0.66266357  1
  La  La0  1  0.99403992  0.00984952  0.84257306  1
  La  La1  1  0.00066104  0.98292133  0.16224823  1
  La  La2  1  0.64579848  0.31670524  0.98294479  1
  La  La3  1  0.33620667  0.69188784  0.02390185  1
  La  La4  1  0.31342797  0.67785628  0.51327689  1
  La  La5  1  0.36288865  0.69004746  0.80746764  1
  Ga  Ga0  1  0.96320753  0.98592986  0.34868588  1
  Ga  Ga1  1  0.01577568  0.00194370  0.64611571  1
  Ga  Ga2  1  0.66447877  0.31940924  0.67685241  1
  Ga  Ga3  1  0.69786746  0.32355102  0.19240511  1
  Ga  Ga4  1  0.67365687  0.36033942  0.48861060  1
  Ga  Ga5  1  0.28020039  0.61697346  0.32226327  1
  Si  Si0  1  0.00041636  0.29320236  0.25250016  1
  Si  Si1  1  0.71609474  0.01866010  0.73309378  1
  Si  Si2  1  0.37833612  0.06728228  0.58198515  1
  Si  Si3  1  0.94985283  0.62097337  0.08787661  1
  Si  Si4  1  0.32910266  0.98012582  0.90652464  1
  Si  Si5  1  0.01146847  0.67134487  0.41231294  1
  S  S0  1  0.32537969  0.99640303  0.25797894  1
  S  S1  1  0.67488604  0.68446439  0.25953193  1
  S  S2  1  0.31449391  0.30203270  0.73691641  1
  S  S3  1  0.98531641  0.69288325  0.74010191  1
  S  S4  1  0.94399656  0.32574291  0.58212931  1
  S  S5  1  0.67988627  0.62727382  0.58632823  1
  S  S6  1  0.66467947  0.03587150  0.09558438  1
  S  S7  1  0.36978126  0.33759201  0.09428114  1
  S  S8  1  0.64476560  0.66685835  0.91773632  1
  S  S9  1  0.03874383  0.36633392  0.91838455  1
  S  S10  1  0.63309884  0.96749632  0.41323977  1
  S  S11  1  0.32510165  0.36027580  0.41308005  1
  O  O0  1  0.24413998  0.02617811  0.30772887  1
  O  O1  1  0.80897634  0.78238319  0.30222986  1
  O  O2  1  0.98144853  0.15474944  0.30135192  1
  O  O3  1  0.25050850  0.21302013  0.79311178  1
  O  O4  1  0.96283275  0.75342796  0.79594649  1
  O  O5  1  0.79402739  0.02334772  0.79494927  1
  O  O6  1  0.82934998  0.00058178  0.68031717  1
  O  O7  1  0.20313266  0.19830989  0.69157006  1
  O  O8  1  0.02128599  0.82314167  0.69437388  1
  O  O9  1  0.72987476  0.77499554  0.20339760  1
  O  O10  1  0.02597759  0.23553560  0.19022484  1
  O  O11  1  0.21414081  0.95239961  0.20763703  1
  O  O12  1  0.86508932  0.34418611  0.63488361  1
  O  O13  1  0.49236508  0.14808237  0.63764704  1
  O  O14  1  0.66715386  0.52155275  0.63597946  1
  O  O15  1  0.83980743  0.50327741  0.14550364  1
  O  O16  1  0.65329399  0.13406861  0.14316191  1
  O  O17  1  0.46094806  0.31965062  0.14159774  1
  O  O18  1  0.44644853  0.34020338  0.03787008  1
  O  O19  1  0.86969564  0.53859311  0.02666658  1
  O  O20  1  0.65839374  0.10852250  0.03972741  1
  O  O21  1  0.47472318  0.18241942  0.52209766  1
  O  O22  1  0.69653280  0.55436421  0.53186448  1
  O  O23  1  0.84903832  0.32512801  0.53105303  1
  O  O24  1  0.54186124  0.64220327  0.96958365  1
  O  O25  1  0.12292013  0.44876319  0.97128540  1
  O  O26  1  0.31960312  0.86067881  0.96143718  1
  O  O27  1  0.57933686  0.88202453  0.47079086  1
  O  O28  1  0.30417136  0.43599176  0.46539308  1
  O  O29  1  0.14791844  0.74098806  0.46349661  1
  O  O30  1  0.09846129  0.62557031  0.35756227  1
  O  O31  1  0.51516195  0.86481735  0.36962966  1
  O  O32  1  0.34697569  0.47223155  0.36261657  1
  O  O33  1  0.14683180  0.45642949  0.86731084  1
  O  O34  1  0.33190775  0.89211399  0.84584607  1
  O  O35  1  0.55659505  0.67152188  0.86625041  1
  O  O36  1  -0.00005314  0.84332240  0.39648713  1
  O  O37  1  0.80821854  0.99445725  0.40447030  1
  O  O38  1  0.17544156  0.18790215  0.40777169  1
  O  O39  1  0.99932026  0.18948801  0.92115696  1
  O  O40  1  0.14833457  0.97646080  0.91359542  1
  O  O41  1  0.80856771  0.82655715  0.92170542  1
  O  O42  1  0.94817424  0.16585088  0.58152391  1
  O  O43  1  0.18154282  0.03752085  0.58996089  1
  O  O44  1  0.83280624  0.80035244  0.58804968  1
  O  O45  1  0.97837315  0.81173363  0.08915622  1
  O  O46  1  0.82823820  0.03912603  0.09509975  1
  O  O47  1  0.19138219  0.19169729  0.09162905  1
  O  O48  1  0.68874266  0.18515292  0.73269063  1
  O  O49  1  0.48813532  0.32489044  0.73140547  1
  O  O50  1  0.83350329  0.52881365  0.73034864  1
  O  O51  1  0.67081449  0.51979454  0.25657924  1
  O  O52  1  0.83318011  0.32432600  0.25213873  1
  O  O53  1  0.49204311  0.15330033  0.24516955  1
  O  O54  1  0.68376676  0.52915697  0.91073796  1
  O  O55  1  0.87980709  0.37361504  0.91290494  1
  O  O56  1  0.49676957  0.16611696  0.90712182  1
  O  O57  1  0.64007903  0.13354140  0.41512695  1
  O  O58  1  0.48023042  0.34477827  0.41472277  1
  O  O59  1  0.82876814  0.49866335  0.43075862  1
  O  O60  1  0.35816085  0.49381548  0.09864265  1
  O  O61  1  0.13294200  0.62470337  0.09330141  1
  O  O62  1  0.52014839  0.86224832  0.10200628  1
  O  O63  1  0.37028582  0.88297729  0.57767572  1
  O  O64  1  0.52706707  0.64680424  0.58549100  1
  O  O65  1  0.11960734  0.47036663  0.58090874  1
  O  O66  1  0.34564942  0.84579138  0.26749321  1
  O  O67  1  0.50963468  0.66677585  0.27436535  1
  O  O68  1  0.16263720  0.48813778  0.26118779  1
  O  O69  1  0.32351785  0.46711139  0.73624651  1
  O  O70  1  0.14043484  0.67666585  0.74055208  1
  O  O71  1  0.52108649  0.85479332  0.72913057  1
loop_
_geom_bond_atom_site_label_1
_geom_bond_atom_site_label_2
_geom_bond_distance
_geom_bond_site_symmetry_2
Na0 O52 2.426901 1_555
Na0 O68 2.427606 1_655
Na0 O30 2.560925 1_655
Na0 O51 2.634471 1_555
Na0 O66 2.790931 1_655
Na0 O11 2.821913 1_655
Na0 O1 2.917497 1_555
Na0 O15 2.979198 1_555
Na1 O71 2.386169 1_545
Na1 O48 2.449356 1_555
Na1 O49 2.529808 1_555
Na1 O34 2.614034 1_545
Na1 O13 2.666738 1_555
Na1 O70 2.735457 1_545
Na1 O3 2.911604 1_555
Na2 O42 2.370538 1_565
Na2 O63 2.405694 1_555
Na2 O6 2.468308 1_565
Na2 O64 2.513702 1_555
Na2 O44 2.657091 1_555
Na3 O10 2.247859 1_555
Na3 O61 2.291366 1_555
Na3 O47 2.446001 1_555
Na3 O46 2.456736 1_455
Na3 O60 2.559967 1_555
Na4 O40 2.392409 1_655
Na4 O55 2.495778 1_555
Na4 O54 2.498904 1_555
Na4 O19 2.504943 1_556
Na4 O41 2.647848 1_555
Na4 O26 2.708542 1_655
Na5 O38 2.491312 1_555
Na5 O29 2.495805 1_545
Na5 O57 2.535003 1_555
Na5 O58 2.548330 1_555
Na5 O36 2.618643 1_545
Na5 O0 2.660159 1_555
Na5 O21 2.919903 1_555
Na5 O31 2.978299 1_545
Na6 O43 2.551441 1_565
Na6 O44 2.585385 1_455
Na6 O38 2.739317 1_565
Na6 O42 2.767525 1_465
Na6 O36 2.778294 1_555
Na6 O37 2.974389 1_455
Na7 O40 2.395573 1_554
Na7 O45 2.430802 1_455
Na7 O41 2.642537 1_454
Na7 O47 2.768863 1_565
Na7 O39 2.784537 1_464
Na7 O46 2.989368 1_465
Na8 O56 2.313155 1_555
Na8 O48 2.528976 1_555
Na8 O55 2.672531 1_555
Na8 O54 2.843185 1_555
Na8 O49 2.889254 1_555
Na8 O50 2.906694 1_555
Na9 O57 2.459528 1_555
Na9 O52 2.470925 1_555
Na9 O51 2.566814 1_555
Na9 O58 2.570114 1_555
Na9 O59 2.664047 1_555
Na9 O53 2.794120 1_555
Na10 O60 2.449613 1_555
Na10 O62 2.474664 1_555
Na10 O68 2.477462 1_555
Na10 O61 2.665069 1_555
Na10 O66 2.749583 1_555
Na10 O67 2.774916 1_555
Na11 O71 2.369880 1_555
Na11 O69 2.460446 1_555
Na11 O70 2.554380 1_555
Na11 O64 2.581017 1_555
Na11 O63 2.698688 1_555
Na11 O65 2.727446 1_555
La0 O5 2.216741 1_555
La0 O40 2.320942 1_645
La0 O3 2.400109 1_655
La0 O41 2.467749 1_545
La0 O39 2.480721 1_555
La0 O4 2.496933 1_545
La1 O45 2.289249 1_455
La1 O10 2.317453 1_565
La1 O11 2.375789 1_555
La1 O9 2.409739 1_455
La1 O47 2.430536 1_565
La1 O46 2.476863 1_465
La2 O56 2.286168 1_555
La2 O18 2.311783 1_556
La2 O19 2.312597 1_556
La2 O20 2.366253 1_556
La2 O54 2.451212 1_555
La2 O55 2.505069 1_555
La3 O26 2.181892 1_554
La3 O61 2.279893 1_555
La3 O25 2.472995 1_554
La3 O24 2.480902 1_554
La3 O62 2.492874 1_555
La3 O60 2.592970 1_555
La4 O29 2.218940 1_555
La4 O63 2.289608 1_555
La4 O27 2.384843 1_555
La4 O65 2.388954 1_555
La4 O28 2.467829 1_555
La4 O64 2.730200 1_555
La5 O34 2.213395 1_555
La5 O71 2.322138 1_555
La5 O35 2.337952 1_555
La5 O33 2.454710 1_555
La5 O70 2.550777 1_555
La5 O69 2.551295 1_555
Ga0 O2 1.830465 1_565
Ga0 O36 1.871627 1_655
Ga0 O37 1.943263 1_555
Ga0 O1 2.036096 1_555
Ga0 O38 2.387398 1_665
Ga0 O0 2.567457 1_665
Ga1 O6 1.863553 1_455
Ga1 O43 1.886540 1_555
Ga1 O8 2.003510 1_545
Ga1 O7 2.085864 1_555
Ga1 O44 2.267444 1_445
Ga1 O42 2.420065 1_455
Ga2 O13 1.846986 1_555
Ga2 O48 1.879341 1_555
Ga2 O12 1.972219 1_555
Ga2 O49 2.061196 1_555
Ga2 O14 2.065527 1_555
Ga2 O50 2.197358 1_555
Ga3 O15 1.833359 1_555
Ga3 O52 1.888089 1_555
Ga3 O16 1.974398 1_555
Ga3 O53 2.101972 1_555
Ga3 O51 2.469206 1_555
Ga3 O17 2.478024 1_555
Ga4 O21 1.874551 1_555
Ga4 O59 1.881381 1_555
Ga4 O22 1.984175 1_555
Ga4 O23 2.059709 1_555
Ga4 O58 2.458111 1_555
Ga5 O68 1.858237 1_555
Ga5 O30 1.879360 1_555
Ga5 O32 1.958809 1_555
Ga5 O67 2.191470 1_555
Ga5 O66 2.248451 1_555
Ga5 O31 2.507201 1_555
O0 S0 1.475068 1_545
O1 S1 1.512349 1_555
O2 Si0 1.641306 1_655
O3 S2 1.488878 1_555
O4 S3 1.484731 1_555
O5 Si1 1.625029 1_555
O6 Si1 1.664116 1_555
O7 S2 1.476473 1_555
O8 S3 1.499499 1_455
O9 S1 1.486865 1_555
O10 Si0 1.617733 1_555
O11 S0 1.499743 1_555
O12 S4 1.477818 1_555
O13 Si2 1.630327 1_555
O14 S5 1.472505 1_555
O15 Si3 1.682116 1_555
O16 S6 1.481915 1_555
O17 S7 1.459463 1_555
O18 S7 1.483293 1_555
O19 Si3 1.643533 1_555
O20 S6 1.480566 1_555
O21 Si2 1.688637 1_555
O22 S5 1.494697 1_555
O23 S4 1.494783 1_555
O24 S8 1.468882 1_555
O25 S9 1.481608 1_555
O26 Si4 1.654584 1_555
O27 S10 1.499057 1_555
O28 S11 1.478167 1_555
O29 Si5 1.641720 1_555
O30 Si5 1.667314 1_555
O31 S10 1.467774 1_555
O32 S11 1.501525 1_555
O33 S9 1.485870 1_555
O34 Si4 1.657194 1_555
O35 S8 1.480174 1_555
O36 Si5 1.670367 1_555
O37 S10 1.500250 1_555
O38 S11 1.491992 1_555
O39 S9 1.474832 1_655
O40 Si4 1.639738 1_555
O41 S8 1.483700 1_555
O42 S4 1.486660 1_555
O43 Si2 1.683292 1_555
O44 S5 1.500024 1_555
O45 Si3 1.635629 1_555
O46 S6 1.479096 1_555
O47 S7 1.505424 1_555
O48 Si1 1.666898 1_555
O49 S2 1.494546 1_555
O50 S3 1.472144 1_555
O51 S1 1.495042 1_555
O52 Si0 1.689357 1_655
O53 S0 1.499431 1_545
O54 S8 1.485223 1_555
O55 S9 1.494471 1_655
O56 Si4 1.622847 1_545
O57 S10 1.493664 1_545
O58 S11 1.494696 1_555
O59 Si5 1.666953 1_655
O60 S7 1.494194 1_555
O61 Si3 1.663015 1_455
O62 S6 1.474960 1_565
O63 Si2 1.659827 1_565
O64 S5 1.494460 1_555
O65 S4 1.481023 1_455
O66 S0 1.497700 1_555
O67 S1 1.469164 1_555
O68 Si0 1.672233 1_555
O69 S2 1.474588 1_555
O70 S3 1.497440 1_455
O71 Si1 1.662022 1_565
