# generated using pymatgen
data_MgMo3(Se2S)2
_symmetry_space_group_name_H-M   'P 1'
_cell_length_a   6.55076600
_cell_length_b   6.55075950
_cell_length_c   60.49574400
_cell_angle_alpha   90.00003226
_cell_angle_beta   90.00000000
_cell_angle_gamma   120.00000251
_symmetry_Int_Tables_number   1
_chemical_formula_structural   MgMo3(Se2S)2
_chemical_formula_sum   'Mg8 Mo24 Se32 S16'
_cell_volume   2248.22195565
_cell_formula_units_Z   8
loop_
 _symmetry_equiv_pos_site_id
 _symmetry_equiv_pos_as_xyz
  1  'x, y, z'
loop_
 _atom_site_type_symbol
 _atom_site_label
 _atom_site_symmetry_multiplicity
 _atom_site_fract_x
 _atom_site_fract_y
 _atom_site_fract_z
 _atom_site_occupancy
  Mg  Mg0_0  1  0.49999950  0.49999900  0.42299600  1
  Mg  Mg0_1  1  0.49999950  0.49999900  0.92299600  1
  Mg  Mg0_2  1  0.49999950  0.99999900  0.42299600  1
  Mg  Mg0_3  1  0.49999950  0.99999900  0.92299600  1
  Mg  Mg0_4  1  0.99999950  0.49999900  0.42299600  1
  Mg  Mg0_5  1  0.99999950  0.49999900  0.92299600  1
  Mg  Mg0_6  1  0.99999950  0.99999900  0.42299600  1
  Mg  Mg0_7  1  0.99999950  0.99999900  0.92299600  1
  Mo  Mo0_0  1  0.16665450  0.33331000  0.05779150  1
  Mo  Mo0_1  1  0.16665450  0.33331000  0.55779150  1
  Mo  Mo0_2  1  0.16665450  0.83331000  0.05779150  1
  Mo  Mo0_3  1  0.16665450  0.83331000  0.55779150  1
  Mo  Mo0_4  1  0.66665450  0.33331000  0.05779150  1
  Mo  Mo0_5  1  0.66665450  0.33331000  0.55779150  1
  Mo  Mo0_6  1  0.66665450  0.83331000  0.05779150  1
  Mo  Mo0_7  1  0.66665450  0.83331000  0.55779150  1
  Mo  Mo1_0  1  0.16665500  0.33331050  0.28920600  1
  Mo  Mo1_1  1  0.16665500  0.33331050  0.78920600  1
  Mo  Mo1_2  1  0.16665500  0.83331050  0.28920600  1
  Mo  Mo1_3  1  0.16665500  0.83331050  0.78920600  1
  Mo  Mo1_4  1  0.66665500  0.33331050  0.28920600  1
  Mo  Mo1_5  1  0.66665500  0.33331050  0.78920600  1
  Mo  Mo1_6  1  0.66665500  0.83331050  0.28920600  1
  Mo  Mo1_7  1  0.66665500  0.83331050  0.78920600  1
  Mo  Mo2_0  1  0.33334450  0.16668800  0.17350950  1
  Mo  Mo2_1  1  0.33334450  0.16668800  0.67350950  1
  Mo  Mo2_2  1  0.33334450  0.66668800  0.17350950  1
  Mo  Mo2_3  1  0.33334450  0.66668800  0.67350950  1
  Mo  Mo2_4  1  0.83334450  0.16668800  0.17350950  1
  Mo  Mo2_5  1  0.83334450  0.16668800  0.67350950  1
  Mo  Mo2_6  1  0.83334450  0.66668800  0.17350950  1
  Mo  Mo2_7  1  0.83334450  0.66668800  0.67350950  1
  Se  Se0_0  1  0.33332400  0.16664800  0.02983850  1
  Se  Se0_1  1  0.33332400  0.16664800  0.52983850  1
  Se  Se0_2  1  0.33332400  0.66664800  0.02983850  1
  Se  Se0_3  1  0.33332400  0.66664800  0.52983850  1
  Se  Se0_4  1  0.83332400  0.16664800  0.02983850  1
  Se  Se0_5  1  0.83332400  0.16664800  0.52983850  1
  Se  Se0_6  1  0.83332400  0.66664800  0.02983850  1
  Se  Se0_7  1  0.83332400  0.66664800  0.52983850  1
  Se  Se1_0  1  0.33332150  0.16664300  0.26118350  1
  Se  Se1_1  1  0.33332150  0.16664300  0.76118350  1
  Se  Se1_2  1  0.33332150  0.66664300  0.26118350  1
  Se  Se1_3  1  0.33332150  0.66664300  0.76118350  1
  Se  Se1_4  1  0.83332150  0.16664300  0.26118350  1
  Se  Se1_5  1  0.83332150  0.16664300  0.76118350  1
  Se  Se1_6  1  0.83332150  0.66664300  0.26118350  1
  Se  Se1_7  1  0.83332150  0.66664300  0.76118350  1
  Se  Se2_0  1  0.33332150  0.16664350  0.08578850  1
  Se  Se2_1  1  0.33332150  0.16664350  0.58578850  1
  Se  Se2_2  1  0.33332150  0.66664350  0.08578850  1
  Se  Se2_3  1  0.33332150  0.66664350  0.58578850  1
  Se  Se2_4  1  0.83332150  0.16664350  0.08578850  1
  Se  Se2_5  1  0.83332150  0.16664350  0.58578850  1
  Se  Se2_6  1  0.83332150  0.66664350  0.08578850  1
  Se  Se2_7  1  0.83332150  0.66664350  0.58578850  1
  Se  Se3_0  1  0.33332400  0.16664800  0.31711900  1
  Se  Se3_1  1  0.33332400  0.16664800  0.81711900  1
  Se  Se3_2  1  0.33332400  0.66664800  0.31711900  1
  Se  Se3_3  1  0.33332400  0.66664800  0.81711900  1
  Se  Se3_4  1  0.83332400  0.16664800  0.31711900  1
  Se  Se3_5  1  0.83332400  0.16664800  0.81711900  1
  Se  Se3_6  1  0.83332400  0.66664800  0.31711900  1
  Se  Se3_7  1  0.83332400  0.66664800  0.81711900  1
  S  S0_0  1  0.16667750  0.33335650  0.19884400  1
  S  S0_1  1  0.16667750  0.33335650  0.69884400  1
  S  S0_2  1  0.16667750  0.83335650  0.19884400  1
  S  S0_3  1  0.16667750  0.83335650  0.69884400  1
  S  S0_4  1  0.66667750  0.33335650  0.19884400  1
  S  S0_5  1  0.66667750  0.33335650  0.69884400  1
  S  S0_6  1  0.66667750  0.83335650  0.19884400  1
  S  S0_7  1  0.66667750  0.83335650  0.69884400  1
  S  S1_0  1  0.16667750  0.33335600  0.14813550  1
  S  S1_1  1  0.16667750  0.33335600  0.64813550  1
  S  S1_2  1  0.16667750  0.83335600  0.14813550  1
  S  S1_3  1  0.16667750  0.83335600  0.64813550  1
  S  S1_4  1  0.66667750  0.33335600  0.14813550  1
  S  S1_5  1  0.66667750  0.33335600  0.64813550  1
  S  S1_6  1  0.66667750  0.83335600  0.14813550  1
  S  S1_7  1  0.66667750  0.83335600  0.64813550  1
loop_
_geom_bond_atom_site_label_1
_geom_bond_atom_site_label_2
_geom_bond_distance
_geom_bond_site_symmetry_2
Mg0_0 Mg0_2 3.275380 1_555
Mg0_0 Mg0_2 3.275380 1_545
Mg0_0 Mg0_6 3.275381 1_555
Mg0_0 Mg0_6 3.275381 1_445
Mg0_0 Mg0_4 3.275383 1_555
Mg0_0 Mg0_4 3.275383 1_455
Mg0_1 Mg0_3 3.275380 1_555
Mg0_1 Mg0_3 3.275380 1_545
Mg0_1 Mg0_7 3.275381 1_555
Mg0_1 Mg0_7 3.275381 1_445
Mg0_1 Mg0_5 3.275383 1_555
Mg0_1 Mg0_5 3.275383 1_455
Mg0_2 Mg0_4 3.275381 1_455
Mg0_2 Mg0_4 3.275381 1_565
Mg0_2 Mg0_6 3.275383 1_455
Mg0_2 Mg0_6 3.275383 1_555
Mg0_3 Mg0_5 3.275381 1_455
Mg0_3 Mg0_5 3.275381 1_565
Mg0_3 Mg0_7 3.275383 1_555
Mg0_3 Mg0_7 3.275383 1_455
Mg0_4 Mg0_6 3.275380 1_555
Mg0_4 Mg0_6 3.275380 1_545
Mg0_5 Mg0_7 3.275380 1_555
Mg0_5 Mg0_7 3.275380 1_545
Mo0_0 Se0_4 2.536846 1_455
Mo0_0 Se0_0 2.536850 1_555
Mo0_0 Se0_2 2.536878 1_555
Mo0_0 Se2_2 2.538632 1_555
Mo0_0 Se2_4 2.538633 1_455
Mo0_0 Se2_0 2.538634 1_555
Mo0_1 Se0_5 2.536846 1_455
Mo0_1 Se0_1 2.536850 1_555
Mo0_1 Se0_3 2.536878 1_555
Mo0_1 Se2_3 2.538632 1_555
Mo0_1 Se2_5 2.538633 1_455
Mo0_1 Se2_1 2.538634 1_555
Mo0_2 Se0_6 2.536846 1_455
Mo0_2 Se0_2 2.536850 1_555
Mo0_2 Se0_0 2.536878 1_565
Mo0_2 Se2_0 2.538632 1_565
Mo0_2 Se2_6 2.538633 1_455
Mo0_2 Se2_2 2.538634 1_555
Mo0_3 Se0_7 2.536846 1_455
Mo0_3 Se0_3 2.536850 1_555
Mo0_3 Se0_1 2.536878 1_565
Mo0_3 Se2_1 2.538632 1_565
Mo0_3 Se2_7 2.538633 1_455
Mo0_3 Se2_3 2.538634 1_555
Mo0_4 Se0_0 2.536846 1_555
Mo0_4 Se0_4 2.536850 1_555
Mo0_4 Se0_6 2.536878 1_555
Mo0_4 Se2_6 2.538632 1_555
Mo0_4 Se2_0 2.538633 1_555
Mo0_4 Se2_4 2.538634 1_555
Mo0_5 Se0_1 2.536846 1_555
Mo0_5 Se0_5 2.536850 1_555
Mo0_5 Se0_7 2.536878 1_555
Mo0_5 Se2_7 2.538632 1_555
Mo0_5 Se2_1 2.538633 1_555
Mo0_5 Se2_5 2.538634 1_555
Mo0_6 Se0_2 2.536846 1_555
Mo0_6 Se0_6 2.536850 1_555
Mo0_6 Se0_4 2.536878 1_565
Mo0_6 Se2_4 2.538632 1_565
Mo0_6 Se2_2 2.538633 1_555
Mo0_6 Se2_6 2.538634 1_555
Mo0_7 Se0_3 2.536846 1_555
Mo0_7 Se0_7 2.536850 1_555
Mo0_7 Se0_5 2.536878 1_565
Mo0_7 Se2_5 2.538632 1_565
Mo0_7 Se2_3 2.538633 1_555
Mo0_7 Se2_7 2.538634 1_555
Mo1_0 Se3_4 2.535237 1_455
Mo1_0 Se3_0 2.535238 1_555
Mo1_0 Se3_2 2.535262 1_555
Mo1_0 Se1_2 2.539659 1_555
Mo1_0 Se1_4 2.539664 1_455
Mo1_0 Se1_0 2.539665 1_555
Mo1_1 Se3_5 2.535237 1_455
Mo1_1 Se3_1 2.535238 1_555
Mo1_1 Se3_3 2.535262 1_555
Mo1_1 Se1_3 2.539659 1_555
Mo1_1 Se1_5 2.539664 1_455
Mo1_1 Se1_1 2.539665 1_555
Mo1_2 Se3_6 2.535237 1_455
Mo1_2 Se3_2 2.535238 1_555
Mo1_2 Se3_0 2.535262 1_565
Mo1_2 Se1_0 2.539659 1_565
Mo1_2 Se1_6 2.539664 1_455
Mo1_2 Se1_2 2.539665 1_555
Mo1_3 Se3_7 2.535237 1_455
Mo1_3 Se3_3 2.535238 1_555
Mo1_3 Se3_1 2.535262 1_565
Mo1_3 Se1_1 2.539659 1_565
Mo1_3 Se1_7 2.539664 1_455
Mo1_3 Se1_3 2.539665 1_555
Mo1_4 Se3_0 2.535237 1_555
Mo1_4 Se3_4 2.535238 1_555
Mo1_4 Se3_6 2.535262 1_555
Mo1_4 Se1_6 2.539659 1_555
Mo1_4 Se1_0 2.539664 1_555
Mo1_4 Se1_4 2.539665 1_555
Mo1_5 Se3_1 2.535237 1_555
Mo1_5 Se3_5 2.535238 1_555
Mo1_5 Se3_7 2.535262 1_555
Mo1_5 Se1_7 2.539659 1_555
Mo1_5 Se1_1 2.539664 1_555
Mo1_5 Se1_5 2.539665 1_555
Mo1_6 Se3_2 2.535237 1_555
Mo1_6 Se3_6 2.535238 1_555
Mo1_6 Se3_4 2.535262 1_565
Mo1_6 Se1_4 2.539659 1_565
Mo1_6 Se1_2 2.539664 1_555
Mo1_6 Se1_6 2.539665 1_555
Mo1_7 Se3_3 2.535237 1_555
Mo1_7 Se3_7 2.535238 1_555
Mo1_7 Se3_5 2.535262 1_565
Mo1_7 Se1_5 2.539659 1_565
Mo1_7 Se1_3 2.539664 1_555
Mo1_7 Se1_7 2.539665 1_555
Mo2_0 S0_2 2.434123 1_545
Mo2_0 S0_4 2.434130 1_555
Mo2_0 S0_0 2.434140 1_555
Mo2_0 S1_2 2.435629 1_545
Mo2_0 S1_4 2.435636 1_555
Mo2_0 S1_0 2.435644 1_555
Mo2_1 S0_3 2.434123 1_545
Mo2_1 S0_5 2.434130 1_555
Mo2_1 S0_1 2.434140 1_555
Mo2_1 S1_3 2.435629 1_545
Mo2_1 S1_5 2.435636 1_555
Mo2_1 S1_1 2.435644 1_555
Mo2_2 S0_0 2.434123 1_555
Mo2_2 S0_6 2.434130 1_555
Mo2_2 S0_2 2.434140 1_555
Mo2_2 S1_0 2.435629 1_555
Mo2_2 S1_6 2.435636 1_555
Mo2_2 S1_2 2.435644 1_555
Mo2_3 S0_1 2.434123 1_555
Mo2_3 S0_7 2.434130 1_555
Mo2_3 S0_3 2.434140 1_555
Mo2_3 S1_1 2.435629 1_555
Mo2_3 S1_7 2.435636 1_555
Mo2_3 S1_3 2.435644 1_555
Mo2_4 S0_6 2.434123 1_545
Mo2_4 S0_0 2.434130 1_655
Mo2_4 S0_4 2.434140 1_555
Mo2_4 S1_6 2.435629 1_545
Mo2_4 S1_0 2.435636 1_655
Mo2_4 S1_4 2.435644 1_555
Mo2_5 S0_7 2.434123 1_545
Mo2_5 S0_1 2.434130 1_655
Mo2_5 S0_5 2.434140 1_555
Mo2_5 S1_7 2.435629 1_545
Mo2_5 S1_1 2.435636 1_655
Mo2_5 S1_5 2.435644 1_555
Mo2_6 S0_4 2.434123 1_555
Mo2_6 S0_2 2.434130 1_655
Mo2_6 S0_6 2.434140 1_555
Mo2_6 S1_4 2.435629 1_555
Mo2_6 S1_2 2.435636 1_655
Mo2_6 S1_6 2.435644 1_555
Mo2_7 S0_5 2.434123 1_555
Mo2_7 S0_3 2.434130 1_655
Mo2_7 S0_7 2.434140 1_555
Mo2_7 S1_5 2.435629 1_555
Mo2_7 S1_3 2.435636 1_655
Mo2_7 S1_7 2.435644 1_555
