# generated using pymatgen
data_Na10Mg2Zr6Si7S5O48
_symmetry_space_group_name_H-M   'P 1'
_cell_length_a   18.27845545
_cell_length_b   9.15980890
_cell_length_c   22.74423375
_cell_angle_alpha   89.97429366
_cell_angle_beta   90.03616483
_cell_angle_gamma   120.11117535
_symmetry_Int_Tables_number   1
_chemical_formula_structural   Na10Mg2Zr6Si7S5O48
_chemical_formula_sum   'Na30 Mg6 Zr18 Si21 S15 O144'
_cell_volume   3294.12547105
_cell_formula_units_Z   3
loop_
 _symmetry_equiv_pos_site_id
 _symmetry_equiv_pos_as_xyz
  1  'x, y, z'
loop_
 _atom_site_type_symbol
 _atom_site_label
 _atom_site_symmetry_multiplicity
 _atom_site_fract_x
 _atom_site_fract_y
 _atom_site_fract_z
 _atom_site_occupancy
  Na  Na0  1  0.81690580  0.01272235  0.24504494  1
  Na  Na1  1  0.18654912  0.37371464  0.24179979  1
  Na  Na2  1  0.69147106  0.35915186  0.25421490  1
  Na  Na3  1  0.99031840  0.60975380  0.25473632  1
  Na  Na4  1  0.49363997  0.63865069  0.23728485  1
  Na  Na5  1  0.31886556  0.62120809  0.74709865  1
  Na  Na6  1  0.99368877  0.34904688  0.74046261  1
  Na  Na7  1  0.49039847  0.37589202  0.75310431  1
  Na  Na8  1  0.19326981  0.02702440  0.74371106  1
  Na  Na9  1  0.68543002  0.99562683  0.74321274  1
  Na  Na10  1  0.14796446  0.32431769  0.57815007  1
  Na  Na11  1  0.01565325  0.69050599  0.58579642  1
  Na  Na12  1  0.49018575  0.66518637  0.92055280  1
  Na  Na13  1  0.99704522  0.67850012  0.92539442  1
  Na  Na14  1  0.84743765  0.02376887  0.91226016  1
  Na  Na15  1  0.49729904  0.31958634  0.42449098  1
  Na  Na16  1  0.16291319  0.01910662  0.42182479  1
  Na  Na17  1  0.34960122  0.66742238  0.41067189  1
  Na  Na18  1  0.99376323  0.00661729  0.49903417  1
  Na  Na19  1  0.52333396  0.01608819  0.49312219  1
  Na  Na20  1  0.02037952  0.02812765  0.99342733  1
  Na  Na21  1  0.50729090  0.02144781  -0.00022937  1
  Na  Na22  1  0.32366704  0.30534743  0.82861452  1
  Na  Na23  1  0.82991115  0.33541406  0.82848271  1
  Na  Na24  1  0.33969444  0.34361959  0.32911701  1
  Na  Na25  1  0.82964021  0.34172307  0.32907986  1
  Na  Na26  1  0.17985160  0.67440890  0.16082823  1
  Na  Na27  1  0.65940313  0.67519540  0.16312121  1
  Na  Na28  1  0.17292864  0.68172606  0.66392325  1
  Na  Na29  1  0.67731504  0.68571928  0.66083604  1
  Mg  Mg0  1  0.33097250  0.32366288  0.68884831  1
  Mg  Mg1  1  0.83649339  0.32469284  0.68091662  1
  Mg  Mg2  1  0.33845320  0.34904461  0.18020368  1
  Mg  Mg3  1  0.83415179  0.33503767  0.18901121  1
  Mg  Mg4  1  0.16180990  0.67034317  0.01603534  1
  Mg  Mg5  1  0.66004926  0.65310741  0.51579164  1
  Zr  Zr0  1  0.99387592  0.99792150  0.35402875  1
  Zr  Zr1  1  0.50458455  0.99108465  0.35419257  1
  Zr  Zr2  1  0.00258605  0.01687357  0.85457508  1
  Zr  Zr3  1  0.49772008  -0.00065395  0.85351488  1
  Zr  Zr4  1  0.99640696  0.01474250  0.64547000  1
  Zr  Zr5  1  0.49733232  0.99124478  0.64735668  1
  Zr  Zr6  1  0.99669335  0.00541192  0.14632556  1
  Zr  Zr7  1  0.49412121  0.97081609  0.14478927  1
  Zr  Zr8  1  0.33485387  0.32516655  0.98075290  1
  Zr  Zr9  1  0.83237607  0.33765665  0.97828560  1
  Zr  Zr10  1  0.33118321  0.32470289  0.48095953  1
  Zr  Zr11  1  0.83432391  0.33717238  0.47784004  1
  Zr  Zr12  1  0.66068993  0.65831454  0.01709420  1
  Zr  Zr13  1  0.16453598  0.67017189  0.51700974  1
  Zr  Zr14  1  0.16846368  0.66364783  0.31570343  1
  Zr  Zr15  1  0.66428836  0.65984403  0.31608651  1
  Zr  Zr16  1  0.16527100  0.67026117  0.81691006  1
  Zr  Zr17  1  0.67036067  0.67489913  0.81543024  1
  Si  Si0  1  0.64844575  -0.00206346  0.24750475  1
  Si  Si1  1  0.34894258  0.69385159  0.25143868  1
  Si  Si2  1  0.85091658  0.70508000  0.24834458  1
  Si  Si3  1  0.00157769  0.29940126  0.24862626  1
  Si  Si4  1  0.14851053  0.30184874  0.74719544  1
  Si  Si5  1  0.50089649  0.70271597  0.75066145  1
  Si  Si6  1  0.35085415  -0.00306705  0.74874380  1
  Si  Si7  1  0.84857387  0.00263168  0.75121394  1
  Si  Si8  1  0.98073617  0.33723245  0.58595077  1
  Si  Si9  1  0.18465172  0.03363403  0.58881467  1
  Si  Si10  1  0.48339455  0.62800604  0.08473799  1
  Si  Si11  1  0.81320869  0.67018204  0.91837957  1
  Si  Si12  1  0.02411547  0.37885552  0.92155123  1
  Si  Si13  1  0.51782331  0.36795410  0.91314113  1
  Si  Si14  1  0.16783486  0.96321782  0.91694702  1
  Si  Si15  1  0.66463209  0.96023178  0.91691618  1
  Si  Si16  1  0.31419358  0.95824537  0.41614649  1
  Si  Si17  1  0.16527453  0.36879077  0.42000032  1
  Si  Si18  1  0.66713960  0.37310009  0.41667535  1
  Si  Si19  1  0.01618336  0.66345511  0.41259115  1
  Si  Si20  1  0.52284311  0.66860800  0.42129245  1
  S  S0  1  0.14641729  0.00214954  0.24848390  1
  S  S1  1  0.49668518  0.28799695  0.24955343  1
  S  S2  1  0.64688341  0.29128172  0.74770708  1
  S  S3  1  0.99584474  0.70218521  0.75006655  1
  S  S4  1  0.48508641  0.33816265  0.58736957  1
  S  S5  1  0.68601517  0.03467766  0.58577257  1
  S  S6  1  0.33694639  0.62862721  0.58484541  1
  S  S7  1  0.82723871  0.61562058  0.58623685  1
  S  S8  1  0.98347156  0.62965219  0.08719296  1
  S  S9  1  0.33025692  0.03774852  0.08696361  1
  S  S10  1  0.83438138  0.04181992  0.08498547  1
  S  S11  1  0.18663175  0.33704804  0.08592542  1
  S  S12  1  0.68770525  0.33549304  0.08825966  1
  S  S13  1  0.31162993  0.66512202  0.91997159  1
  S  S14  1  0.80998738  0.95515543  0.41993571  1
  O  O0  1  0.10760857  0.02459283  0.30332116  1
  O  O1  1  0.60290450  0.03190976  0.30356086  1
  O  O2  1  0.40640832  0.78813713  0.30949401  1
  O  O3  1  0.91227452  0.80157959  0.30491772  1
  O  O4  1  0.49125451  0.19883851  0.30531652  1
  O  O5  1  0.99239331  0.17880388  0.30505617  1
  O  O6  1  0.09657864  0.17032169  0.80031955  1
  O  O7  1  0.60593444  0.18376956  0.80065646  1
  O  O8  1  0.49158116  0.79484850  0.81020041  1
  O  O9  1  0.99102603  0.78722429  0.80369556  1
  O  O10  1  0.41122300  0.01228261  0.80430322  1
  O  O11  1  0.90408634  0.02336352  0.81045148  1
  O  O12  1  0.40045402  0.97280454  0.69171851  1
  O  O13  1  0.90163040  0.99063543  0.69483382  1
  O  O14  1  0.09107573  0.21421881  0.68719079  1
  O  O15  1  0.59317557  0.20669237  0.69498232  1
  O  O16  1  0.00476286  0.80344445  0.69628211  1
  O  O17  1  0.51818822  0.83910188  0.69637760  1
  O  O18  1  0.39956149  0.80949093  0.19372139  1
  O  O19  1  0.90083612  0.83369711  0.19242788  1
  O  O20  1  0.01899604  0.20557290  0.19222707  1
  O  O21  1  0.50664586  0.19990534  0.19852090  1
  O  O22  1  0.09061020  0.98193096  0.19716084  1
  O  O23  1  0.58506021  0.96670119  0.19156200  1
  O  O24  1  0.44021343  0.34307904  0.64009243  1
  O  O25  1  0.94486903  0.36918589  0.64653562  1
  O  O26  1  0.23479986  0.12586916  0.64762764  1
  O  O27  1  0.72990173  0.12021036  0.64116875  1
  O  O28  1  0.33457457  0.53519489  0.63723480  1
  O  O29  1  0.81817180  0.51199889  0.63802883  1
  O  O30  1  0.44133516  0.53446202  0.14592479  1
  O  O31  1  0.93674384  0.53315330  0.13965708  1
  O  O32  1  0.32166841  0.12502442  0.13822772  1
  O  O33  1  0.83214481  0.12981514  0.13812761  1
  O  O34  1  0.22939859  0.33809940  0.14173166  1
  O  O35  1  0.73266544  0.34175872  0.14251809  1
  O  O36  1  0.23379894  0.32438203  0.03467985  1
  O  O37  1  0.73298925  0.31905183  0.03600927  1
  O  O38  1  0.42669063  0.52422478  0.02666039  1
  O  O39  1  0.93291727  0.54499946  0.03263339  1
  O  O40  1  0.33597861  0.13508988  0.03180274  1
  O  O41  1  0.83845160  0.13754504  0.03087085  1
  O  O42  1  0.23138123  0.15564596  0.53035283  1
  O  O43  1  0.73132652  0.13996372  0.53386902  1
  O  O44  1  0.34328973  0.54730685  0.52987175  1
  O  O45  1  0.83527495  0.53197191  0.53168778  1
  O  O46  1  0.43431825  0.32196443  0.53280333  1
  O  O47  1  0.92174549  0.33087536  0.53082016  1
  O  O48  1  0.27041020  0.68283416  0.97072749  1
  O  O49  1  0.77037491  0.70682956  0.97465613  1
  O  O50  1  0.08122430  0.46545448  0.97666758  1
  O  O51  1  0.57766808  0.46462118  0.96992941  1
  O  O52  1  0.15062018  0.83806054  0.97074105  1
  O  O53  1  0.64841026  0.83074761  0.97056137  1
  O  O54  1  0.27018258  0.83337766  0.47219588  1
  O  O55  1  0.76865311  0.85481287  0.47133370  1
  O  O56  1  0.15569819  0.45291776  0.48020553  1
  O  O57  1  0.65063087  0.46562872  0.47010974  1
  O  O58  1  0.07804288  0.69314065  0.46988084  1
  O  O59  1  0.58003166  0.69822299  0.47671528  1
  O  O60  1  0.05906714  0.64302026  0.35264577  1
  O  O61  1  0.56345786  0.63827095  0.35977257  1
  O  O62  1  0.25039113  0.87716853  0.36020003  1
  O  O63  1  0.76410326  0.87596284  0.36356331  1
  O  O64  1  0.18110102  0.49163749  0.36309687  1
  O  O65  1  0.68025699  0.47861587  0.35355525  1
  O  O66  1  0.06242929  0.49049375  0.86001892  1
  O  O67  1  0.55913232  0.48113281  0.85367268  1
  O  O68  1  0.18103923  0.88198019  0.85432837  1
  O  O69  1  0.68367938  0.88366478  0.85718038  1
  O  O70  1  0.26499136  0.65059797  0.86341033  1
  O  O71  1  0.75431522  0.63763260  0.86037958  1
  O  O72  1  0.01213201  0.83810357  0.41081988  1
  O  O73  1  0.50266063  0.82410383  0.41369711  1
  O  O74  1  0.40810978  0.98649048  0.40865193  1
  O  O75  1  0.89755598  0.97845194  0.41584108  1
  O  O76  1  0.08674664  0.17664559  0.41268957  1
  O  O77  1  0.57913235  0.18927374  0.40952587  1
  O  O78  1  0.00294504  0.18294743  0.91395215  1
  O  O79  1  0.50606702  0.17997990  0.91121085  1
  O  O80  1  0.08038021  0.97253780  0.90889668  1
  O  O81  1  0.57948661  0.97337148  0.91294079  1
  O  O82  1  0.39994920  0.81467706  0.91505412  1
  O  O83  1  0.90820481  0.83166588  0.91057708  1
  O  O84  1  0.49370612  0.18179307  0.58765399  1
  O  O85  1  0.98870974  0.16412505  0.58246938  1
  O  O86  1  0.08596330  0.00170130  0.58808935  1
  O  O87  1  0.59946833  0.01984566  0.58523637  1
  O  O88  1  0.41288116  0.80412692  0.58447219  1
  O  O89  1  0.91075314  0.78041868  0.58907496  1
  O  O90  1  0.49102218  0.81872202  0.08063584  1
  O  O91  1  0.99210028  0.80310759  0.08794239  1
  O  O92  1  0.41169139  0.03480744  0.08881812  1
  O  O93  1  0.91404817  0.02910928  0.08385527  1
  O  O94  1  0.10044233  0.17759469  0.08418418  1
  O  O95  1  0.59987515  0.18788432  0.08765922  1
  O  O96  1  0.34431991  0.16573320  0.74732496  1
  O  O97  1  0.83700233  0.16896989  0.74697888  1
  O  O98  1  0.24274992  0.32948929  0.74551980  1
  O  O99  1  0.73091784  0.30915811  0.74200884  1
  O  O100  1  0.41636583  0.52249144  0.74213781  1
  O  O101  1  0.92212906  0.53055639  0.74722969  1
  O  O102  1  0.33756404  0.50479403  0.24788470  1
  O  O103  1  0.84138324  0.52046530  0.24348946  1
  O  O104  1  0.42324044  0.31332186  0.24533981  1
  O  O105  1  0.91674759  0.31083937  0.24334826  1
  O  O106  1  0.23034728  0.15249546  0.24187198  1
  O  O107  1  0.74202772  0.16005330  0.24179951  1
  O  O108  1  0.32223302  0.51317608  0.92175549  1
  O  O109  1  0.82665750  0.50617792  0.92641308  1
  O  O110  1  0.42620961  0.36124679  0.92059545  1
  O  O111  1  0.92782690  0.35967687  0.92682484  1
  O  O112  1  0.24877344  0.15504128  0.92298868  1
  O  O113  1  0.75086528  0.14246818  0.92660888  1
  O  O114  1  0.32299183  0.14451111  0.42567426  1
  O  O115  1  0.81878001  0.12550057  0.42155867  1
  O  O116  1  0.25332746  0.35881328  0.42336185  1
  O  O117  1  0.74688225  0.33997003  0.42276801  1
  O  O118  1  0.42787212  0.49429033  0.42531957  1
  O  O119  1  0.92272149  0.49733921  0.42041211  1
  O  O120  1  0.17824632  0.48769609  0.08281606  1
  O  O121  1  0.68341960  0.49328118  0.08309145  1
  O  O122  1  0.06753311  0.64738228  0.08484016  1
  O  O123  1  0.57975166  0.65444839  0.08133093  1
  O  O124  1  0.25822400  0.86444027  0.08204302  1
  O  O125  1  0.75977851  0.87005895  0.08338470  1
  O  O126  1  0.17279690  0.84337077  0.58152560  1
  O  O127  1  0.67802791  0.86724303  0.58296789  1
  O  O128  1  0.25815121  0.63944827  0.58326956  1
  O  O129  1  0.75737955  0.64981157  0.58081692  1
  O  O130  1  0.07882828  0.49834797  0.58001738  1
  O  O131  1  0.56973513  0.48837428  0.58422125  1
  O  O132  1  0.14958492  0.84353214  0.25085280  1
  O  O133  1  0.65239887  0.82300907  0.25385838  1
  O  O134  1  0.25534617  0.67764453  0.25198670  1
  O  O135  1  0.75927339  0.69656950  0.25294218  1
  O  O136  1  0.08579441  0.48695064  0.25163932  1
  O  O137  1  0.57675304  0.46147453  0.25082495  1
  O  O138  1  0.15124948  0.48328396  0.75441248  1
  O  O139  1  0.64992726  0.45533511  0.75237050  1
  O  O140  1  0.07608996  0.69105274  0.75134640  1
  O  O141  1  0.58551262  0.68407203  0.75144034  1
  O  O142  1  0.25852318  0.82272082  0.75199193  1
  O  O143  1  0.75485129  0.83094946  0.75028767  1
loop_
_geom_bond_atom_site_label_1
_geom_bond_atom_site_label_2
_geom_bond_distance
_geom_bond_site_symmetry_2
Na0 O107 2.356459 1_555
Na0 O105 2.405931 1_555
Na0 O135 2.543051 1_545
Na0 O33 2.615363 1_555
Na0 O133 2.619006 1_545
Na0 O63 2.924759 1_545
Na1 O102 2.398839 1_555
Na1 O134 2.423418 1_555
Na1 O34 2.481773 1_555
Na1 O106 2.524786 1_555
Na1 O136 2.536706 1_555
Na1 O20 2.878779 1_555
Na1 O64 2.983055 1_555
Na2 O103 2.385238 1_555
Na2 O107 2.439534 1_555
Na2 O65 2.563644 1_555
Na2 O35 2.677577 1_555
Na2 O135 2.691805 1_555
Na2 O137 2.693118 1_555
Na2 O1 2.827664 1_555
Na3 O105 2.382852 1_555
Na3 O103 2.431179 1_555
Na3 O60 2.498760 1_655
Na3 O136 2.507126 1_655
Na3 O132 2.610250 1_655
Na3 O31 2.758803 1_555
Na4 O30 2.286120 1_555
Na4 O102 2.488186 1_555
Na4 O133 2.548917 1_555
Na4 O104 2.592653 1_555
Na4 O137 2.740303 1_555
Na4 O23 2.804350 1_555
Na5 O98 2.312340 1_555
Na5 O100 2.371425 1_555
Na5 O142 2.584379 1_555
Na5 O138 2.669684 1_555
Na5 O28 2.678933 1_555
Na5 O70 2.882766 1_555
Na6 O25 2.357220 1_555
Na6 O97 2.491089 1_555
Na6 O138 2.520494 1_655
Na6 O101 2.584808 1_555
Na6 O140 2.722071 1_655
Na6 O14 2.893408 1_655
Na6 O66 3.002827 1_655
Na6 O13 3.023984 1_545
Na6 O11 3.035219 1_555
Na7 O100 2.349261 1_555
Na7 O96 2.386399 1_555
Na7 O141 2.463408 1_555
Na7 O67 2.553984 1_555
Na7 O139 2.627461 1_555
Na7 O24 2.694377 1_555
Na8 O26 2.341460 1_555
Na8 O96 2.392499 1_555
Na8 O98 2.445685 1_555
Na8 O142 2.683114 1_545
Na8 O140 2.734000 1_545
Na8 O68 2.800818 1_545
Na8 O6 2.972561 1_555
Na9 O97 2.406281 1_565
Na9 O143 2.414818 1_555
Na9 O141 2.507005 1_555
Na9 O27 2.533558 1_565
Na9 O99 2.558105 1_565
Na9 O69 2.781472 1_555
Na9 O17 2.852157 1_555
Na10 O130 2.482176 1_555
Na10 O56 2.490191 1_555
Na10 O85 2.520082 1_455
Na10 O128 2.562984 1_555
Na10 O86 2.589900 1_555
Na10 O14 2.682866 1_555
Na10 O42 2.874171 1_555
Na11 O89 2.438238 1_455
Na11 O86 2.470639 1_565
Na11 O126 2.487009 1_555
Na11 O130 2.547251 1_555
Na11 O16 2.762990 1_555
Na11 O58 2.868423 1_555
Na11 O25 2.902211 1_455
Na12 O110 2.419037 1_555
Na12 O81 2.457605 1_555
Na12 O82 2.622364 1_555
Na12 O108 2.659902 1_555
Na12 O38 2.708410 1_556
Na12 O53 2.748545 1_555
Na12 O8 2.770875 1_555
Na12 O67 2.980064 1_555
Na13 O80 2.366120 1_655
Na13 O111 2.534365 1_555
Na13 O52 2.638357 1_655
Na13 O83 2.646433 1_555
Na13 O109 2.694302 1_555
Na13 O39 2.716819 1_556
Na13 O66 2.945240 1_655
Na13 O9 2.961844 1_555
Na14 O78 2.459351 1_655
Na14 O83 2.508510 1_545
Na14 O113 2.516203 1_555
Na14 O11 2.537890 1_555
Na14 O111 2.683260 1_555
Na14 O69 2.884151 1_545
Na14 O49 2.884775 1_545
Na14 O41 2.926698 1_556
Na15 O77 2.360177 1_555
Na15 O118 2.491828 1_555
Na15 O57 2.637571 1_555
Na15 O74 2.665738 1_545
Na15 O46 2.724563 1_555
Na15 O114 2.756267 1_555
Na15 O4 2.908984 1_555
Na15 O61 2.933714 1_555
Na16 O72 2.412884 1_545
Na16 O76 2.465531 1_555
Na16 O114 2.552646 1_555
Na16 O116 2.693531 1_555
Na16 O42 2.766181 1_555
Na16 O58 2.804977 1_545
Na16 O62 2.881286 1_545
Na16 O0 2.887269 1_555
Na17 O73 2.421304 1_555
Na17 O116 2.485871 1_555
Na17 O2 2.538725 1_555
Na17 O74 2.559553 1_555
Na17 O118 2.635931 1_555
Na17 O64 2.875921 1_555
Na17 O44 2.905909 1_555
Na17 O54 2.931672 1_555
Na18 O85 2.414037 1_555
Na18 O75 2.506046 1_545
Na18 O76 2.552735 1_655
Na18 O86 2.648877 1_655
Na18 O72 2.654132 1_645
Na18 O89 2.763124 1_545
Na19 O77 2.355453 1_555
Na19 O73 2.415327 1_545
Na19 O87 2.505078 1_555
Na19 O74 2.760932 1_545
Na19 O84 2.837065 1_555
Na19 O88 2.868978 1_545
Na20 O80 2.392125 1_545
Na20 O78 2.414633 1_555
Na20 O94 2.503068 1_556
Na20 O83 2.699868 1_445
Na20 O93 2.833765 1_456
Na20 O91 2.839898 1_446
Na21 O79 2.489212 1_554
Na21 O90 2.522482 1_545
Na21 O81 2.534291 1_544
Na21 O95 2.567826 1_555
Na21 O92 2.718377 1_555
Na21 O82 2.723844 1_544
Na22 O96 2.384039 1_555
Na22 O98 2.476397 1_555
Na22 O112 2.546927 1_555
Na22 O110 2.680475 1_555
Na22 O100 2.704588 1_555
Na22 O108 2.857640 1_555
Na23 O97 2.445132 1_555
Na23 O101 2.535631 1_555
Na23 O99 2.599896 1_555
Na23 O109 2.740049 1_555
Na23 O113 2.762326 1_555
Na23 O111 2.802105 1_555
Na24 O102 2.376911 1_555
Na24 O104 2.543449 1_555
Na24 O118 2.656393 1_555
Na24 O116 2.707620 1_555
Na24 O106 2.735772 1_555
Na24 O114 2.771455 1_555
Na25 O103 2.482196 1_555
Na25 O107 2.568950 1_555
Na25 O119 2.608924 1_555
Na25 O117 2.609355 1_555
Na25 O105 2.621743 1_555
Na25 O115 2.826384 1_555
Na26 O124 2.406548 1_555
Na26 O120 2.454867 1_555
Na26 O134 2.481768 1_555
Na26 O122 2.597898 1_555
Na26 O136 2.685038 1_555
Na26 O132 2.786124 1_555
Na27 O123 2.309897 1_555
Na27 O133 2.507065 1_555
Na27 O125 2.560569 1_555
Na27 O121 2.649549 1_555
Na27 O137 2.669568 1_555
Na27 O135 2.679780 1_555
Na28 O126 2.388621 1_555
Na28 O142 2.469603 1_555
Na28 O130 2.553754 1_555
Na28 O128 2.559506 1_555
Na28 O138 2.640418 1_555
Na28 O140 2.692650 1_555
Na29 O127 2.424271 1_555
Na29 O143 2.454501 1_555
Na29 O129 2.459481 1_555
Na29 O131 2.569584 1_555
Na29 O141 2.653574 1_555
Na29 O139 2.824094 1_555
Mg0 O26 2.013820 1_555
Mg0 O96 2.067144 1_555
Mg0 O98 2.086544 1_555
Mg0 O100 2.090344 1_555
Mg0 O24 2.212388 1_555
Mg0 O28 2.237570 1_555
Mg1 O25 1.973150 1_555
Mg1 O97 2.074528 1_555
Mg1 O27 2.111694 1_555
Mg1 O29 2.140519 1_555
Mg1 O101 2.306232 1_555
Mg1 O99 2.324350 1_555
Mg2 O30 1.955714 1_555
Mg2 O102 2.104858 1_555
Mg2 O34 2.132254 1_555
Mg2 O32 2.141484 1_555
Mg2 O104 2.282350 1_555
Mg2 O106 2.354768 1_555
Mg3 O107 2.034407 1_555
Mg3 O105 2.046677 1_555
Mg3 O103 2.052808 1_555
Mg3 O31 2.157797 1_555
Mg3 O35 2.162202 1_555
Mg3 O33 2.192501 1_555
Mg4 O50 1.928654 1_554
Mg4 O52 1.943395 1_554
Mg4 O48 2.188608 1_554
Mg4 O122 2.258802 1_555
Mg4 O124 2.318586 1_555
Mg4 O120 2.386980 1_555
Mg5 O59 1.924668 1_555
Mg5 O57 1.939824 1_555
Mg5 O55 2.167385 1_555
Mg5 O131 2.219493 1_555
Mg5 O129 2.324595 1_555
Mg5 O127 2.375912 1_555
O0 S0 1.499570 1_555
O0 Zr0 2.281368 1_445
O1 Si0 1.636117 1_555
O1 Zr1 2.005892 1_545
O2 Si1 1.637611 1_555
O2 Zr1 2.088495 1_555
O3 Si2 1.642954 1_555
O3 Zr0 2.003755 1_555
O4 S1 1.484337 1_555
O4 Zr1 2.319368 1_545
O5 Si3 1.645789 1_655
O5 Zr0 2.007457 1_545
O6 Si4 1.632516 1_555
O6 Zr2 2.007041 1_555
O7 S2 1.496950 1_555
O7 Zr3 2.204550 1_555
O8 Si5 1.649379 1_555
O8 Zr3 2.069412 1_565
O9 S3 1.473814 1_555
O9 Zr2 2.316160 1_665
O10 Si6 1.636132 1_555
O10 Zr3 1.987994 1_555
O11 Si7 1.638921 1_555
O11 Zr2 2.087400 1_655
O12 Si6 1.660052 1_565
O12 Zr5 1.970848 1_555
O13 Si7 1.644852 1_565
O13 Zr4 1.982127 1_565
O14 Si4 1.662124 1_555
O14 Zr4 2.015037 1_455
O15 S2 1.496086 1_555
O15 Zr5 2.160461 1_545
O16 S3 1.493592 1_455
O16 Zr4 2.323632 1_465
O17 Si5 1.669685 1_555
O17 Zr5 1.965110 1_555
O18 Si1 1.648716 1_555
O18 Zr7 1.961607 1_555
O19 Si2 1.661169 1_555
O19 Zr6 1.969534 1_565
O20 Si3 1.661788 1_555
O20 Zr6 1.966940 1_455
O21 S1 1.476470 1_555
O21 Zr7 2.338628 1_545
O22 S0 1.498858 1_565
O22 Zr6 2.167422 1_465
O23 Si0 1.645903 1_565
O23 Zr7 1.989145 1_555
O24 S4 1.466649 1_555
O25 Si8 1.615013 1_555
O26 Si9 1.601799 1_555
O27 S5 1.487879 1_555
O28 S6 1.454662 1_555
O29 S7 1.468804 1_555
O30 Si10 1.612833 1_555
O31 S8 1.475639 1_555
O32 S9 1.466353 1_555
O33 S10 1.465004 1_555
O34 S11 1.487756 1_555
O35 S12 1.467322 1_555
O36 S11 1.488955 1_555
O36 Zr8 2.214912 1_554
O37 S12 1.498853 1_555
O37 Zr9 2.178315 1_554
O38 Si10 1.653358 1_555
O38 Zr8 2.039871 1_554
O39 S8 1.508474 1_555
O39 Zr9 2.238192 1_554
O40 S9 1.511800 1_555
O40 Zr8 2.100936 1_554
O41 S10 1.490942 1_555
O41 Zr9 2.237121 1_554
O42 Si9 1.670007 1_555
O42 Zr10 2.038252 1_555
O43 S5 1.486071 1_555
O43 Zr11 2.240549 1_555
O44 S6 1.489731 1_555
O44 Zr10 2.234529 1_555
O45 S7 1.503973 1_555
O45 Zr11 2.157519 1_555
O46 S4 1.511272 1_555
O46 Zr10 2.233701 1_555
O47 Si8 1.635135 1_555
O47 Zr11 2.024525 1_555
O48 S13 1.431972 1_555
O49 Si11 1.621524 1_555
O49 Zr12 2.063194 1_556
O50 Si12 1.568043 1_555
O51 Si13 1.635923 1_555
O51 Zr12 1.974740 1_556
O52 Si14 1.596098 1_555
O53 Si15 1.621612 1_555
O53 Zr12 2.004762 1_556
O54 Si16 1.630107 1_555
O54 Zr13 2.026650 1_555
O55 S14 1.444153 1_555
O56 Si17 1.623598 1_555
O56 Zr13 2.089427 1_555
O57 Si18 1.595117 1_555
O58 Si19 1.655361 1_555
O58 Zr13 2.006012 1_555
O59 Si20 1.571430 1_555
O60 Si19 1.630073 1_555
O60 Zr14 2.088773 1_555
O61 Si20 1.671768 1_555
O61 Zr15 2.014886 1_555
O62 Si16 1.631167 1_555
O62 Zr14 2.037923 1_555
O63 S14 1.504177 1_555
O63 Zr15 2.188403 1_555
O64 Si17 1.642392 1_555
O64 Zr14 2.015210 1_555
O65 Si18 1.679076 1_555
O65 Zr15 2.012873 1_555
O66 Si12 1.666179 1_555
O66 Zr16 2.025217 1_555
O67 Si13 1.639793 1_555
O67 Zr17 2.102472 1_555
O68 Si14 1.679862 1_555
O68 Zr16 2.002152 1_555
O69 Si15 1.644826 1_555
O69 Zr17 2.037625 1_555
O70 S13 1.511401 1_555
O70 Zr16 2.190922 1_555
O71 Si11 1.632309 1_555
O71 Zr17 2.009942 1_555
O72 Si19 1.638627 1_555
O72 Zr0 2.100159 1_455
O73 Si20 1.649696 1_555
O73 Zr1 2.028924 1_555
O74 Si16 1.611696 1_555
O74 Zr1 2.138658 1_555
O75 S14 1.507864 1_555
O75 Zr0 2.189930 1_555
O76 Si17 1.628123 1_555
O76 Zr0 2.133657 1_445
O77 Si18 1.652742 1_555
O77 Zr1 2.062543 1_545
O78 Si12 1.644152 1_555
O78 Zr2 2.032175 1_555
O79 Si13 1.625283 1_555
O79 Zr3 2.057012 1_555
O80 Si14 1.653079 1_555
O80 Zr2 2.071254 1_565
O81 Si15 1.622521 1_555
O81 Zr3 2.114496 1_565
O82 S13 1.508775 1_555
O82 Zr3 2.232041 1_565
O83 Si11 1.630206 1_555
O83 Zr2 2.130926 1_665
O84 S4 1.517501 1_555
O84 Zr5 2.237961 1_545
O85 Si8 1.665454 1_555
O85 Zr4 2.033822 1_555
O86 Si9 1.676409 1_555
O86 Zr4 2.143862 1_455
O87 S5 1.518382 1_555
O87 Zr5 2.249978 1_545
O88 S6 1.507321 1_555
O88 Zr5 2.170465 1_555
O89 S7 1.516899 1_555
O89 Zr4 2.309008 1_565
O90 Si10 1.683857 1_555
O90 Zr7 1.998913 1_555
O91 S8 1.515949 1_555
O91 Zr6 2.247254 1_565
O92 S9 1.502758 1_555
O92 Zr7 2.262142 1_545
O93 S10 1.518174 1_555
O93 Zr6 2.161922 1_555
O94 S11 1.519206 1_555
O94 Zr6 2.254262 1_455
O95 S12 1.492538 1_555
O95 Zr7 2.350067 1_545
O96 Si6 1.609724 1_555
O97 Si7 1.642753 1_555
O98 Si4 1.610970 1_555
O99 S2 1.466574 1_555
O100 Si5 1.609588 1_555
O101 S3 1.471650 1_555
O102 Si1 1.639332 1_555
O103 Si2 1.614510 1_555
O104 S1 1.475622 1_555
O105 Si3 1.610089 1_655
O106 S0 1.467293 1_555
O107 Si0 1.612256 1_555
O108 S13 1.498963 1_555
O108 Zr8 2.283783 1_555
O109 Si11 1.649480 1_555
O109 Zr9 1.986386 1_555
O110 Si13 1.653416 1_555
O110 Zr8 2.053880 1_555
O111 Si12 1.683120 1_655
O111 Zr9 2.025793 1_555
O112 Si14 1.639101 1_545
O112 Zr8 2.041856 1_555
O113 Si15 1.636887 1_545
O113 Zr9 2.030944 1_555
O114 Si16 1.645838 1_545
O114 Zr10 2.020252 1_555
O115 S14 1.486691 1_545
O115 Zr11 2.219819 1_555
O116 Si17 1.658922 1_555
O116 Zr10 2.069380 1_555
O117 Si18 1.636865 1_555
O117 Zr11 2.040267 1_555
O118 Si20 1.670420 1_555
O118 Zr10 2.093898 1_555
O119 Si19 1.630128 1_655
O119 Zr11 2.022775 1_555
O120 S11 1.464496 1_555
O121 S12 1.490740 1_555
O121 Zr12 2.310470 1_555
O122 S8 1.462819 1_455
O123 Si10 1.654943 1_555
O123 Zr12 2.067520 1_555
O124 S9 1.472741 1_565
O125 S10 1.477653 1_565
O125 Zr12 2.406233 1_555
O126 Si9 1.653182 1_565
O126 Zr13 2.110519 1_555
O127 S5 1.467290 1_565
O128 S6 1.492853 1_555
O128 Zr13 2.399557 1_555
O129 S7 1.464519 1_555
O130 Si8 1.660151 1_455
O130 Zr13 2.124119 1_555
O131 S4 1.468420 1_555
O132 S0 1.483752 1_565
O132 Zr14 2.361618 1_555
O133 Si0 1.646032 1_565
O133 Zr15 2.146557 1_555
O134 Si1 1.641408 1_555
O134 Zr14 2.106425 1_555
O135 Si2 1.640778 1_555
O135 Zr15 2.146339 1_555
O136 Si3 1.634671 1_555
O136 Zr14 2.138096 1_555
O137 S1 1.527849 1_555
O137 Zr15 2.268751 1_555
O138 Si4 1.645647 1_555
O138 Zr16 2.140279 1_555
O139 S2 1.479424 1_555
O139 Zr17 2.342984 1_555
O140 S3 1.520737 1_455
O140 Zr16 2.285891 1_555
O141 Si5 1.639082 1_555
O141 Zr17 2.158310 1_555
O142 Si6 1.642561 1_565
O142 Zr16 2.156069 1_555
O143 Si7 1.644723 1_565
O143 Zr17 2.099875 1_555
