# generated using pymatgen
data_MgTiZn2WO6
_symmetry_space_group_name_H-M   'P 1'
_cell_length_a   5.28048723
_cell_length_b   5.28023627
_cell_length_c   7.99147646
_cell_angle_alpha   90.24059647
_cell_angle_beta   131.83644822
_cell_angle_gamma   119.32056695
_symmetry_Int_Tables_number   1
_chemical_formula_structural   MgTiZn2WO6
_chemical_formula_sum   'Mg1 Ti1 Zn2 W1 O6'
_cell_volume   124.56815891
_cell_formula_units_Z   1
loop_
 _symmetry_equiv_pos_site_id
 _symmetry_equiv_pos_as_xyz
  1  'x, y, z'
loop_
 _atom_site_type_symbol
 _atom_site_label
 _atom_site_symmetry_multiplicity
 _atom_site_fract_x
 _atom_site_fract_y
 _atom_site_fract_z
 _atom_site_occupancy
  Mg  Mg0  1  0.63149500  0.29460600  0.47552900  1
  Ti  Ti0  1  0.04525200  0.99784100  0.52989300  1
  Zn  Zn0  1  0.98700100  0.47086900  0.24373000  1
  Zn  Zn1  1  0.30724300  0.62509900  0.98270800  1
  W  W0  1  0.90760800  0.93332700  0.92947500  1
  O  O0  1  0.97080900  0.83247500  0.22283200  1
  O  O1  1  0.96775700  0.14552600  0.71505500  1
  O  O2  1  0.32858500  0.45680500  0.22417700  1
  O  O3  1  0.25352100  0.78079600  0.69918900  1
  O  O4  1  0.59608600  0.08930100  0.22484600  1
  O  O5  1  0.60759100  0.44329600  0.70255200  1
loop_
_geom_bond_atom_site_label_1
_geom_bond_atom_site_label_2
_geom_bond_distance
_geom_bond_site_symmetry_2
Mg0 O1 2.069785 1_555
Mg0 O5 2.077121 1_555
Mg0 O2 2.096851 1_555
Mg0 O0 2.103877 1_445
Mg0 O3 2.108340 1_655
Mg0 O4 2.122974 1_555
O0 Zn0 1.955606 1_555
O0 Zn1 2.100929 1_554
O0 W0 2.243165 1_554
O0 Ti0 2.301625 1_655
O1 Ti0 2.018845 1_645
O1 Zn1 2.143480 1_655
O1 W0 2.164744 1_545
O2 Zn0 1.946907 1_455
O2 Zn1 2.085297 1_554
O2 W0 2.252062 1_444
O2 Ti0 2.338958 1_655
O3 Ti0 1.901543 1_555
O3 W0 2.179130 1_555
O3 Zn1 2.297071 1_555
O4 Zn0 1.962586 1_555
O4 Zn1 2.107160 1_544
O4 W0 2.251755 1_444
O4 Ti0 2.284728 1_645
O5 Ti0 1.979971 1_545
O5 W0 2.146350 1_555
O5 Zn1 2.248906 1_655
