# generated using pymatgen
data_CsAuI3
_symmetry_space_group_name_H-M   'P 1'
_cell_length_a   8.39381681
_cell_length_b   8.39381588
_cell_length_c   8.52645214
_cell_angle_alpha   119.48674117
_cell_angle_beta   119.48674506
_cell_angle_gamma   89.99999580
_symmetry_Int_Tables_number   1
_chemical_formula_structural   CsAuI3
_chemical_formula_sum   'Cs2 Au2 I6'
_cell_volume   431.29469419
_cell_formula_units_Z   2
loop_
 _symmetry_equiv_pos_site_id
 _symmetry_equiv_pos_as_xyz
  1  'x, y, z'
loop_
 _atom_site_type_symbol
 _atom_site_label
 _atom_site_symmetry_multiplicity
 _atom_site_fract_x
 _atom_site_fract_y
 _atom_site_fract_z
 _atom_site_occupancy
  Cs  Cs0  1  0.25000000  0.75000000  0.50000000  1
  Cs  Cs1  1  0.75000000  0.25000000  0.50000000  1
  Au  Au0  1  0.50000000  0.50000000  -0.00000000  1
  Au  Au1  1  -0.00000000  0.00000000  -0.00000000  1
  I  I0  1  0.77428020  0.77428020  0.00000000  1
  I  I1  1  0.71246358  0.71246358  0.42492616  1
  I  I2  1  0.22571980  0.22571980  -0.00000000  1
  I  I3  1  0.28753642  0.28753642  0.57507384  1
  I  I4  1  0.22571980  0.77428020  -0.00000000  1
  I  I5  1  0.77428020  0.22571980  0.00000000  1
loop_
_geom_bond_atom_site_label_1
_geom_bond_atom_site_label_2
_geom_bond_distance
_geom_bond_site_symmetry_2
Cs0 I3 4.221990 1_565
Cs0 I1 4.221990 1_455
Cs0 I3 4.221998 1_555
Cs0 I1 4.221999 1_555
Cs0 I2 4.272957 1_555
Cs0 I0 4.272957 1_455
Cs0 I5 4.272958 1_455
Cs0 I0 4.272958 1_556
Cs0 I5 4.272958 1_566
Cs0 I2 4.272958 1_566
Cs0 I4 4.272958 1_555
Cs0 I4 4.272958 1_556
Cs1 I1 4.221990 1_545
Cs1 I3 4.221990 1_655
Cs1 I1 4.221998 1_555
Cs1 I3 4.221999 1_555
Cs1 I0 4.272957 1_556
Cs1 I2 4.272957 1_656
Cs1 I4 4.272958 1_656
Cs1 I2 4.272958 1_555
Cs1 I4 4.272958 1_545
Cs1 I0 4.272958 1_545
Cs1 I5 4.272958 1_556
Cs1 I5 4.272958 1_555
Au0 I3 2.601170 1_554
Au0 I1 2.601170 1_555
Au0 I4 3.255884 1_555
Au0 I5 3.255884 1_555
Au0 I0 3.255884 1_555
Au0 I2 3.255884 1_555
Au1 I4 2.679440 1_545
Au1 I5 2.679440 1_455
Au1 I2 2.679441 1_555
Au1 I0 2.679441 1_445
