# generated using pymatgen
data_Pu(SiRh)2
_symmetry_space_group_name_H-M   'P 1'
_cell_length_a   5.80024384
_cell_length_b   5.80024384
_cell_length_c   5.80024384
_cell_angle_alpha   139.17325023
_cell_angle_beta   139.17325023
_cell_angle_gamma   59.11077879
_symmetry_Int_Tables_number   1
_chemical_formula_structural   Pu(SiRh)2
_chemical_formula_sum   'Pu1 Si2 Rh2'
_cell_volume   82.60148237
_cell_formula_units_Z   1
loop_
 _symmetry_equiv_pos_site_id
 _symmetry_equiv_pos_as_xyz
  1  'x, y, z'
loop_
 _atom_site_type_symbol
 _atom_site_label
 _atom_site_symmetry_multiplicity
 _atom_site_fract_x
 _atom_site_fract_y
 _atom_site_fract_z
 _atom_site_occupancy
  Pu  Pu0  1  -0.00000000  -0.00000000  -0.00000000  1
  Si  Si0  1  0.62287415  0.62287415  0.00000000  1
  Si  Si1  1  0.37712585  0.37712585  -0.00000000  1
  Rh  Rh0  1  0.75000000  0.25000000  0.50000000  1
  Rh  Rh1  1  0.25000000  0.75000000  0.50000000  1
loop_
_geom_bond_atom_site_label_1
_geom_bond_atom_site_label_2
_geom_bond_distance
_geom_bond_site_symmetry_2
Pu0 Si1 3.118182 1_556
Pu0 Si0 3.118182 1_455
Pu0 Si1 3.118182 1_455
Pu0 Si0 3.118182 1_444
Pu0 Si1 3.118182 1_444
Pu0 Si0 3.118182 1_545
Pu0 Si0 3.118182 1_556
Pu0 Si1 3.118182 1_545
Pu0 Rh1 3.233747 1_544
Pu0 Rh1 3.233747 1_555
Pu0 Rh1 3.233747 1_545
Pu0 Rh0 3.233747 1_455
Pu0 Rh0 3.233747 1_555
Pu0 Rh0 3.233747 1_444
Pu0 Rh0 3.233747 1_454
Pu0 Rh1 3.233747 1_444
Si0 Si1 2.479852 1_555
Rh0 Si0 2.395511 1_556
Rh0 Si1 2.395511 1_555
Rh0 Si0 2.395511 1_545
Rh0 Si1 2.395511 1_656
Rh1 Si0 2.395511 1_556
Rh1 Si1 2.395511 1_555
Rh1 Si0 2.395511 1_455
Rh1 Si1 2.395511 1_566
