# generated using pymatgen
data_MgZn2Cr2O8
_symmetry_space_group_name_H-M   'P 1'
_cell_length_a   5.26697522
_cell_length_b   5.26697522
_cell_length_c   6.29819636
_cell_angle_alpha   86.65561676
_cell_angle_beta   86.65561676
_cell_angle_gamma   64.88313503
_symmetry_Int_Tables_number   1
_chemical_formula_structural   MgZn2Cr2O8
_chemical_formula_sum   'Mg1 Zn2 Cr2 O8'
_cell_volume   157.81933723
_cell_formula_units_Z   1
loop_
 _symmetry_equiv_pos_site_id
 _symmetry_equiv_pos_as_xyz
  1  'x, y, z'
loop_
 _atom_site_type_symbol
 _atom_site_label
 _atom_site_symmetry_multiplicity
 _atom_site_fract_x
 _atom_site_fract_y
 _atom_site_fract_z
 _atom_site_occupancy
  Mg  Mg0  1  0.50000000  0.50000000  0.50000000  1
  Zn  Zn0  1  0.00000000  0.00000000  0.00000000  1
  Zn  Zn1  1  0.00000000  0.00000000  0.50000000  1
  Cr  Cr0  1  0.32814300  0.32814300  0.20499900  1
  Cr  Cr1  1  0.67185700  0.67185700  0.79500100  1
  O  O0  1  0.29886600  0.76800000  0.74598200  1
  O  O1  1  0.23200000  0.70113400  0.25401800  1
  O  O2  1  0.76901400  0.76901400  0.55764100  1
  O  O3  1  0.23842200  0.23842200  0.98401800  1
  O  O4  1  0.76157800  0.76157800  0.01598200  1
  O  O5  1  0.23098600  0.23098600  0.44235900  1
  O  O6  1  0.70113400  0.23200000  0.25401800  1
  O  O7  1  0.76800000  0.29886600  0.74598200  1
loop_
_geom_bond_atom_site_label_1
_geom_bond_atom_site_label_2
_geom_bond_distance
_geom_bond_site_symmetry_2
Mg0 O1 2.075836 1_555
Mg0 O6 2.075836 1_555
Mg0 O0 2.075836 1_555
Mg0 O7 2.075836 1_555
Mg0 O5 2.443619 1_555
Mg0 O2 2.443619 1_555
Cr0 O3 1.651281 1_554
Cr0 O5 1.674024 1_555
Cr0 O1 1.849090 1_555
Cr0 O6 1.849090 1_555
Cr1 O4 1.651281 1_556
Cr1 O2 1.674024 1_555
Cr1 O7 1.849090 1_555
Cr1 O0 1.849090 1_555
O0 Zn1 2.191323 1_565
O0 Zn0 2.198154 1_566
O1 Zn1 2.191323 1_565
O1 Zn0 2.198154 1_565
O2 Zn1 2.060452 1_665
O3 Zn0 2.115001 1_556
O4 Zn0 2.115001 1_665
O5 Zn1 2.060452 1_555
O6 Zn1 2.191323 1_655
O6 Zn0 2.198154 1_655
O7 Zn1 2.191323 1_655
O7 Zn0 2.198154 1_656
