# generated using pymatgen
data_Na3MgGaSi(SO6)2
_symmetry_space_group_name_H-M   'P 1'
_cell_length_a   8.94716951
_cell_length_b   8.91079689
_cell_length_c   21.93829314
_cell_angle_alpha   90.55198353
_cell_angle_beta   90.00000000
_cell_angle_gamma   120.13511889
_symmetry_Int_Tables_number   1
_chemical_formula_structural   Na3MgGaSi(SO6)2
_chemical_formula_sum   'Na18 Mg6 Ga6 Si6 S12 O72'
_cell_volume   1512.57112874
_cell_formula_units_Z   6
loop_
 _symmetry_equiv_pos_site_id
 _symmetry_equiv_pos_as_xyz
  1  'x, y, z'
loop_
 _atom_site_type_symbol
 _atom_site_label
 _atom_site_symmetry_multiplicity
 _atom_site_fract_x
 _atom_site_fract_y
 _atom_site_fract_z
 _atom_site_occupancy
  Na  Na0  1  0.63493960  0.00380741  0.25388651  1
  Na  Na1  1  0.00558038  0.63792772  0.23700724  1
  Na  Na2  1  0.63234734  0.63792772  0.73700724  1
  Na  Na3  1  0.36886782  0.00380741  0.75388651  1
  Na  Na4  1  0.31530251  0.34247297  0.58753808  1
  Na  Na5  1  0.66158355  0.95214098  0.58003766  1
  Na  Na6  1  0.29055843  0.95214098  0.08003766  1
  Na  Na7  1  0.02717145  0.34247297  0.08753808  1
  Na  Na8  1  0.98533140  0.67996445  0.92759189  1
  Na  Na9  1  0.69473272  0.03500059  0.90579718  1
  Na  Na10  1  0.34026688  0.03500059  0.40579718  1
  Na  Na11  1  0.69463205  0.67996445  0.42759189  1
  Na  Na12  1  0.98191847  0.99648446  0.49826956  1
  Na  Na13  1  0.01456599  0.99648446  0.99826956  1
  Na  Na14  1  0.66514186  0.31418093  0.83306171  1
  Na  Na15  1  0.64904007  0.31418093  0.33306171  1
  Na  Na16  1  0.33134463  0.66045044  0.16548028  1
  Na  Na17  1  0.32910481  0.66045044  0.66548028  1
  Mg  Mg0  1  0.00607727  0.01085255  0.35165985  1
  Mg  Mg1  1  0.00477528  0.01085255  0.85165985  1
  Mg  Mg2  1  0.67444296  0.32981962  0.68493162  1
  Mg  Mg3  1  0.65537767  0.32981962  0.18493162  1
  Mg  Mg4  1  0.32784033  0.67398809  0.01819006  1
  Mg  Mg5  1  0.34614675  0.67398809  0.51819006  1
  Ga  Ga0  1  0.97095764  0.96887620  0.65145973  1
  Ga  Ga1  1  0.99791856  0.96887620  0.15145973  1
  Ga  Ga2  1  0.65102982  0.33681199  0.98600894  1
  Ga  Ga3  1  0.68578316  0.33681199  0.48600894  1
  Ga  Ga4  1  0.34018797  0.69651718  0.32012504  1
  Ga  Ga5  1  0.35632821  0.69651718  0.82012504  1
  Si  Si0  1  0.29838326  0.99921539  0.25311406  1
  Si  Si1  1  0.70083213  0.99921539  0.75311406  1
  Si  Si2  1  0.67069404  0.62186506  0.58434685  1
  Si  Si3  1  0.95117202  0.62186506  0.08434685  1
  Si  Si4  1  0.33847012  0.97939972  0.92100669  1
  Si  Si5  1  0.64092859  0.97939972  0.42100669  1
  S  S0  1  0.70155935  0.70633701  0.25248451  1
  S  S1  1  0.00912363  0.29346592  0.24784616  1
  S  S2  1  0.28434229  0.29346592  0.74784616  1
  S  S3  1  0.00477766  0.70633701  0.75248451  1
  S  S4  1  0.96614814  0.33321054  0.58438323  1
  S  S5  1  0.36005496  0.03501937  0.58433598  1
  S  S6  1  0.67496541  0.03501937  0.08433598  1
  S  S7  1  0.36706341  0.33321054  0.08438323  1
  S  S8  1  0.61993827  0.65828553  0.91597856  1
  S  S9  1  0.05208252  0.38292484  0.91513446  1
  S  S10  1  0.33084132  0.38292484  0.41513446  1
  S  S11  1  0.03834626  0.65828553  0.41597856  1
  O  O0  1  0.20468257  0.00964985  0.31392378  1
  O  O1  1  0.80394231  0.78987247  0.30783291  1
  O  O2  1  0.98093748  0.17989533  0.29957066  1
  O  O3  1  0.19895785  0.17989533  0.79957066  1
  O  O4  1  0.98593016  0.78987247  0.80783291  1
  O  O5  1  0.80496728  0.00964985  0.81392378  1
  O  O6  1  0.78536749  0.95957758  0.69121002  1
  O  O7  1  0.18880775  0.20955869  0.68935789  1
  O  O8  1  0.04261767  0.82348069  0.69802670  1
  O  O9  1  0.78086302  0.82348069  0.19802670  1
  O  O10  1  0.02075093  0.20955869  0.18935789  1
  O  O11  1  0.17421010  0.95957758  0.19121002  1
  O  O12  1  0.88153721  0.34845213  0.63874486  1
  O  O13  1  0.47243555  0.11486451  0.63841939  1
  O  O14  1  0.64791875  0.50813648  0.64362228  1
  O  O15  1  0.86021873  0.50813648  0.14362228  1
  O  O16  1  0.64242995  0.11486451  0.13841939  1
  O  O17  1  0.46691592  0.34845213  0.13874486  1
  O  O18  1  0.44163263  0.29459227  0.02879185  1
  O  O19  1  0.83933729  0.52525431  0.02018228  1
  O  O20  1  0.69939663  0.14167348  0.02870526  1
  O  O21  1  0.44227785  0.14167348  0.52870526  1
  O  O22  1  0.68591801  0.52525431  0.52018228  1
  O  O23  1  0.85296063  0.29459227  0.52879185  1
  O  O24  1  0.52197782  0.66828075  0.96731918  1
  O  O25  1  0.13848628  0.45845247  0.97380853  1
  O  O26  1  0.30943672  0.85945981  0.97942158  1
  O  O27  1  0.55002209  0.85945981  0.47942158  1
  O  O28  1  0.31996519  0.45845247  0.47380853  1
  O  O29  1  0.14630193  0.66828075  0.46731918  1
  O  O30  1  0.11122363  0.63873454  0.35639277  1
  O  O31  1  0.51186253  0.89423215  0.35931111  1
  O  O32  1  0.34130692  0.49499175  0.36286549  1
  O  O33  1  0.15368383  0.49499175  0.86286549  1
  O  O34  1  0.38236863  0.89423215  0.85931111  1
  O  O35  1  0.52750990  0.63873454  0.85639277  1
  O  O36  1  0.02474411  0.81871067  0.41604546  1
  O  O37  1  0.82526700  0.98978032  0.41118913  1
  O  O38  1  0.18140590  0.20495988  0.41119989  1
  O  O39  1  0.02355398  0.20495988  0.91119989  1
  O  O40  1  0.16451332  0.98978032  0.91118913  1
  O  O41  1  0.79396656  0.81871067  0.91604546  1
  O  O42  1  0.99184919  0.17883751  0.58713236  1
  O  O43  1  0.19189737  0.03188097  0.59070214  1
  O  O44  1  0.84539293  0.82126179  0.58527403  1
  O  O45  1  0.97586886  0.82126179  0.08527403  1
  O  O46  1  0.83998361  0.03188097  0.09070214  1
  O  O47  1  0.18698832  0.17883751  0.08713236  1
  O  O48  1  0.66664033  0.16066181  0.74560789  1
  O  O49  1  0.46302666  0.31887932  0.74565018  1
  O  O50  1  0.84436045  0.53820689  0.74446811  1
  O  O51  1  0.69384744  0.53820689  0.24446811  1
  O  O52  1  0.85585366  0.31887932  0.24565018  1
  O  O53  1  0.49402248  0.16066181  0.24560789  1
  O  O54  1  0.64617410  0.50556278  0.91787421  1
  O  O55  1  0.87937420  0.37191164  0.91241200  1
  O  O56  1  0.52702639  0.16865406  0.92685978  1
  O  O57  1  0.64162867  0.16865406  0.42685978  1
  O  O58  1  0.49253844  0.37191164  0.41241200  1
  O  O59  1  0.85938968  0.50556278  0.41787421  1
  O  O60  1  0.35341915  0.49032816  0.07701289  1
  O  O61  1  0.14604147  0.64515510  0.08111157  1
  O  O62  1  0.52581211  0.85717076  0.07803447  1
  O  O63  1  0.33135765  0.85717076  0.57803447  1
  O  O64  1  0.49911263  0.64515510  0.58111157  1
  O  O65  1  0.13690802  0.49032816  0.57701289  1
  O  O66  1  0.31120369  0.81373756  0.25324690  1
  O  O67  1  0.52546603  0.68417718  0.25599933  1
  O  O68  1  0.16785889  0.46664541  0.25299724  1
  O  O69  1  0.29878552  0.46664541  0.75299724  1
  O  O70  1  0.15871015  0.68417718  0.75599933  1
  O  O71  1  0.50253287  0.81373756  0.75324690  1
loop_
_geom_bond_atom_site_label_1
_geom_bond_atom_site_label_2
_geom_bond_distance
_geom_bond_site_symmetry_2
Na0 O53 2.313115 1_555
Na0 O52 2.501914 1_555
Na0 O67 2.504992 1_545
Na0 O66 2.516409 1_545
Na0 O31 2.545410 1_545
Na0 O16 2.717053 1_555
Na0 O9 2.803014 1_545
Na0 O2 2.853475 1_555
Na1 O15 2.381244 1_455
Na1 O66 2.397166 1_555
Na1 O52 2.469691 1_455
Na1 O51 2.471823 1_455
Na1 O68 2.606920 1_555
Na1 O11 2.685917 1_555
Na1 O30 2.783172 1_555
Na2 O14 2.381247 1_555
Na2 O71 2.397174 1_555
Na2 O49 2.469691 1_555
Na2 O50 2.471831 1_555
Na2 O69 2.606928 1_555
Na2 O6 2.685917 1_555
Na2 O35 2.783175 1_555
Na3 O48 2.313122 1_555
Na3 O49 2.501912 1_555
Na3 O70 2.504994 1_545
Na3 O71 2.516402 1_545
Na3 O34 2.545408 1_545
Na3 O13 2.717055 1_555
Na3 O8 2.803014 1_545
Na3 O3 2.853475 1_555
Na4 O64 2.356404 1_555
Na4 O43 2.412275 1_555
Na4 O42 2.502822 1_455
Na4 O7 2.525541 1_555
Na4 O65 2.540495 1_555
Na4 O28 2.702106 1_555
Na4 O14 2.846645 1_555
Na4 O21 2.855631 1_555
Na5 O64 2.367514 1_555
Na5 O27 2.384934 1_555
Na5 O44 2.450776 1_555
Na5 O42 2.614757 1_565
Na5 O63 2.633705 1_555
Na5 O6 2.665064 1_555
Na5 O23 2.885705 1_565
Na5 O13 3.005837 1_565
Na6 O61 2.367513 1_555
Na6 O26 2.384930 1_554
Na6 O45 2.450784 1_455
Na6 O47 2.614764 1_565
Na6 O62 2.633687 1_555
Na6 O11 2.665068 1_555
Na6 O18 2.885705 1_565
Na6 O16 3.005837 1_565
Na7 O61 2.356406 1_555
Na7 O46 2.412276 1_455
Na7 O47 2.502815 1_555
Na7 O10 2.525539 1_555
Na7 O60 2.540479 1_555
Na7 O25 2.702103 1_554
Na7 O15 2.846645 1_455
Na7 O20 2.855631 1_455
Na8 O40 2.428238 1_655
Na8 O55 2.431893 1_555
Na8 O19 2.445134 1_556
Na8 O41 2.579872 1_555
Na8 O54 2.631977 1_555
Na8 O26 2.751004 1_655
Na8 O4 2.811805 1_555
Na9 O5 2.302423 1_555
Na9 O56 2.380570 1_555
Na9 O41 2.505976 1_545
Na9 O39 2.546743 1_655
Na9 O55 2.602857 1_555
Na9 O34 2.622902 1_545
Na9 O20 2.843694 1_556
Na10 O0 2.302418 1_555
Na10 O57 2.380585 1_555
Na10 O36 2.505970 1_545
Na10 O38 2.546736 1_555
Na10 O58 2.602856 1_555
Na10 O31 2.622902 1_545
Na10 O21 2.843697 1_555
Na11 O37 2.428237 1_555
Na11 O58 2.431890 1_555
Na11 O22 2.445139 1_555
Na11 O36 2.579880 1_655
Na11 O59 2.631993 1_555
Na11 O27 2.751004 1_555
Na11 O1 2.811806 1_555
Na12 O37 2.351884 1_555
Na12 O44 2.390739 1_555
Na12 O42 2.498554 1_565
Na12 O36 2.542540 1_655
Na12 O38 2.650383 1_665
Na12 O43 2.670913 1_665
Na13 O40 2.351884 1_555
Na13 O45 2.390739 1_456
Na13 O47 2.498554 1_566
Na13 O41 2.542540 1_455
Na13 O39 2.650383 1_565
Na13 O46 2.670913 1_466
Na14 O48 2.349546 1_555
Na14 O56 2.426000 1_555
Na14 O55 2.441670 1_555
Na14 O54 2.574590 1_555
Na14 O49 2.650830 1_555
Na14 O50 2.682253 1_555
Na15 O53 2.349546 1_555
Na15 O57 2.426000 1_555
Na15 O58 2.441670 1_555
Na15 O59 2.574590 1_555
Na15 O52 2.650830 1_555
Na15 O51 2.682253 1_555
Na16 O66 2.408737 1_555
Na16 O61 2.441606 1_555
Na16 O68 2.517094 1_555
Na16 O60 2.519478 1_555
Na16 O67 2.574498 1_555
Na16 O62 2.604382 1_555
Na17 O71 2.408737 1_555
Na17 O64 2.441606 1_555
Na17 O69 2.517094 1_555
Na17 O65 2.519478 1_555
Na17 O70 2.574498 1_555
Na17 O63 2.604382 1_555
Mg0 O0 1.965196 1_555
Mg0 O2 1.999696 1_455
Mg0 O37 2.014354 1_445
Mg0 O38 2.095417 1_555
Mg0 O1 2.111973 1_445
Mg0 O36 2.299611 1_545
Mg1 O5 1.965196 1_455
Mg1 O3 1.999696 1_555
Mg1 O40 2.014354 1_545
Mg1 O39 2.095417 1_555
Mg1 O4 2.111973 1_445
Mg1 O41 2.299611 1_445
Mg2 O14 1.951598 1_555
Mg2 O48 1.995454 1_555
Mg2 O12 2.044962 1_555
Mg2 O13 2.112585 1_555
Mg2 O50 2.141036 1_555
Mg2 O49 2.275808 1_555
Mg3 O15 1.951598 1_555
Mg3 O53 1.995454 1_555
Mg3 O17 2.044963 1_555
Mg3 O16 2.112585 1_555
Mg3 O51 2.141036 1_555
Mg3 O52 2.275808 1_555
Mg4 O26 1.944797 1_554
Mg4 O25 2.050315 1_554
Mg4 O61 2.050484 1_555
Mg4 O24 2.086335 1_554
Mg4 O62 2.140366 1_555
Mg4 O60 2.193803 1_555
Mg5 O27 1.944797 1_555
Mg5 O28 2.050315 1_555
Mg5 O64 2.050484 1_555
Mg5 O29 2.086335 1_555
Mg5 O63 2.140366 1_555
Mg5 O65 2.193803 1_555
Ga0 O6 1.840616 1_555
Ga0 O44 1.892102 1_555
Ga0 O8 1.998215 1_655
Ga0 O7 2.204165 1_665
Ga0 O43 2.213509 1_665
Ga0 O42 2.286176 1_565
Ga1 O11 1.840617 1_655
Ga1 O45 1.892102 1_555
Ga1 O9 1.998215 1_555
Ga1 O10 2.204165 1_665
Ga1 O46 2.213509 1_565
Ga1 O47 2.286176 1_665
Ga2 O19 1.831771 1_556
Ga2 O56 1.858317 1_555
Ga2 O18 1.957451 1_556
Ga2 O54 2.146211 1_555
Ga2 O20 2.207972 1_556
Ga2 O55 2.499370 1_555
Ga3 O22 1.831771 1_555
Ga3 O57 1.858317 1_555
Ga3 O23 1.957451 1_555
Ga3 O59 2.146211 1_555
Ga3 O21 2.207972 1_555
Ga3 O58 2.499370 1_555
Ga4 O31 1.859011 1_555
Ga4 O66 1.900644 1_555
Ga4 O30 2.010885 1_555
Ga4 O32 2.038262 1_555
Ga4 O67 2.217941 1_555
Ga4 O68 2.347875 1_555
Ga5 O34 1.859011 1_555
Ga5 O71 1.900644 1_555
Ga5 O35 2.010885 1_555
Ga5 O33 2.038262 1_555
Ga5 O70 2.217941 1_555
Ga5 O69 2.347875 1_555
O0 Si0 1.602212 1_545
O1 S0 1.471578 1_555
O2 S1 1.463309 1_655
O3 S2 1.463309 1_555
O4 S3 1.471578 1_655
O5 Si1 1.602212 1_545
O6 Si1 1.673370 1_555
O7 S2 1.508606 1_555
O8 S3 1.516822 1_555
O9 S0 1.516822 1_555
O10 S1 1.508606 1_555
O11 Si0 1.673370 1_555
O12 S4 1.453943 1_555
O13 S5 1.480006 1_555
O14 Si2 1.605495 1_555
O15 Si3 1.605495 1_555
O16 S6 1.480006 1_555
O17 S7 1.453943 1_555
O18 S7 1.507770 1_555
O19 Si3 1.683914 1_555
O20 S6 1.501409 1_555
O21 S5 1.501409 1_555
O22 Si2 1.683914 1_555
O23 S4 1.507770 1_555
O24 S8 1.456430 1_555
O25 S9 1.472545 1_555
O26 Si4 1.612345 1_555
O27 Si5 1.612345 1_555
O28 S10 1.472545 1_555
O29 S11 1.456430 1_555
O30 S11 1.507974 1_555
O31 Si5 1.685723 1_555
O32 S10 1.499686 1_555
O33 S9 1.499686 1_555
O34 Si4 1.685723 1_555
O35 S8 1.507974 1_555
O36 S11 1.494313 1_555
O37 Si5 1.619370 1_555
O38 S10 1.475913 1_555
O39 S9 1.475916 1_555
O40 Si4 1.619361 1_555
O41 S8 1.494318 1_555
O42 S4 1.505975 1_555
O43 S5 1.497244 1_555
O44 Si2 1.676687 1_555
O45 Si3 1.676691 1_555
O46 S6 1.497235 1_555
O47 S7 1.505981 1_555
O48 Si1 1.623817 1_545
O49 S2 1.498734 1_555
O50 S3 1.473543 1_655
O51 S0 1.473547 1_555
O52 S1 1.498725 1_655
O53 Si0 1.623823 1_545
O54 S8 1.493543 1_555
O55 S9 1.499540 1_655
O56 Si4 1.686934 1_545
O57 Si5 1.686925 1_545
O58 S10 1.499558 1_555
O59 S11 1.493532 1_655
O60 S7 1.475514 1_555
O61 Si3 1.650749 1_455
O62 S6 1.477760 1_565
O63 S5 1.477753 1_565
O64 Si2 1.650767 1_555
O65 S4 1.475504 1_455
O66 Si0 1.713247 1_555
O67 S0 1.488344 1_555
O68 S1 1.485676 1_555
O69 S2 1.485679 1_555
O70 S3 1.488335 1_555
O71 Si1 1.713252 1_555
