# generated using pymatgen
data_Mg(CoO2)2
_symmetry_space_group_name_H-M   'P 1'
_cell_length_a   3.03091328
_cell_length_b   5.82618434
_cell_length_c   4.96320638
_cell_angle_alpha   118.04437999
_cell_angle_beta   89.98930788
_cell_angle_gamma   74.94514277
_symmetry_Int_Tables_number   1
_chemical_formula_structural   Mg(CoO2)2
_chemical_formula_sum   'Mg1 Co2 O4'
_cell_volume   73.92471777
_cell_formula_units_Z   1
loop_
 _symmetry_equiv_pos_site_id
 _symmetry_equiv_pos_as_xyz
  1  'x, y, z'
loop_
 _atom_site_type_symbol
 _atom_site_label
 _atom_site_symmetry_multiplicity
 _atom_site_fract_x
 _atom_site_fract_y
 _atom_site_fract_z
 _atom_site_occupancy
  Mg  Mg0  1  0.25629533  0.49106150  0.72680171  1
  Co  Co0  1  0.97173306  0.05932366  0.00710656  1
  Co  Co1  1  0.53978124  0.92281889  0.44645623  1
  O  O0  1  0.89195302  0.21952827  0.43399154  1
  O  O1  1  0.39247886  0.21797002  0.89318391  1
  O  O2  1  0.11915689  0.76415095  0.56036111  1
  O  O3  1  0.62026860  0.76264672  0.01959893  1
loop_
_geom_bond_atom_site_label_1
_geom_bond_atom_site_label_2
_geom_bond_distance
_geom_bond_site_symmetry_2
Mg0 O1 2.068398 1_555
Mg0 O2 2.068610 1_555
Mg0 O3 2.139561 1_556
Mg0 O0 2.140179 1_555
Mg0 O0 2.140207 1_455
Mg0 O3 2.141006 1_456
Co0 O0 1.855173 1_555
Co0 O1 1.975795 1_654
Co0 O1 1.976158 1_554
Co0 O2 2.021982 1_644
Co0 O3 2.276750 1_545
Co0 O3 2.278406 1_645
Co1 O3 1.855062 1_555
Co1 O2 1.975565 1_555
Co1 O2 1.976442 1_655
Co1 O1 2.021885 1_565
Co1 O0 2.277030 1_465
Co1 O0 2.278292 1_565
