# generated using pymatgen
data_Rb3IO
_symmetry_space_group_name_H-M   'P 1'
_cell_length_a   7.90128681
_cell_length_b   7.90130272
_cell_length_c   19.71391187
_cell_angle_alpha   90.00240118
_cell_angle_beta   89.99696374
_cell_angle_gamma   119.99955188
_symmetry_Int_Tables_number   1
_chemical_formula_structural   Rb3IO
_chemical_formula_sum   'Rb18 I6 O6'
_cell_volume   1065.86433420
_cell_formula_units_Z   6
loop_
 _symmetry_equiv_pos_site_id
 _symmetry_equiv_pos_as_xyz
  1  'x, y, z'
loop_
 _atom_site_type_symbol
 _atom_site_label
 _atom_site_symmetry_multiplicity
 _atom_site_fract_x
 _atom_site_fract_y
 _atom_site_fract_z
 _atom_site_occupancy
  Rb  Rb0  1  0.33175761  0.16587730  0.41879435  1
  Rb  Rb1  1  0.33180673  0.16590267  0.08116656  1
  Rb  Rb2  1  0.83409963  0.66819397  0.08116636  1
  Rb  Rb3  1  0.16587801  0.33175723  0.58121315  1
  Rb  Rb4  1  0.66824494  0.83412198  0.58121397  1
  Rb  Rb5  1  0.16590673  0.83409602  0.91883161  1
  Rb  Rb6  1  0.83412311  0.66824281  0.41879520  1
  Rb  Rb7  1  0.83409643  0.16590534  0.08116553  1
  Rb  Rb8  1  0.83412337  0.16587786  0.41879601  1
  Rb  Rb9  1  0.48169258  0.51830817  0.75002255  1
  Rb  Rb10  1  0.66819562  0.83409735  0.91882980  1
  Rb  Rb11  1  0.16590422  0.33180655  0.91882991  1
  Rb  Rb12  1  0.51831036  0.48169237  0.24998267  1
  Rb  Rb13  1  0.96337868  0.48168817  0.24998185  1
  Rb  Rb14  1  0.51831252  0.03662113  0.24998164  1
  Rb  Rb15  1  0.48168982  0.96337742  0.75002260  1
  Rb  Rb16  1  0.03662352  0.51831224  0.75002251  1
  Rb  Rb17  1  0.16587838  0.83412236  0.58121325  1
  I  I0  1  0.33332252  0.66665801  0.41233364  1
  I  I1  1  0.66665548  0.33335376  0.91231706  1
  I  I2  1  0.66665688  0.33333710  0.58758784  1
  I  I3  1  0.33333087  0.66665328  0.08771005  1
  I  I4  1  0.00004093  0.99996699  0.74994912  1
  I  I5  1  0.99996022  0.00002900  0.25006319  1
  O  O0  1  0.33333691  0.66666569  0.65923624  1
  O  O1  1  0.66666698  0.33333515  0.15917610  1
  O  O2  1  0.66666927  0.33333314  0.34076918  1
  O  O3  1  0.33333600  0.66666522  0.84082312  1
  O  O4  1  0.00000161  0.99999976  0.50000595  1
  O  O5  1  0.00000108  1.00000096  0.99999801  1
loop_
_geom_bond_atom_site_label_1
_geom_bond_atom_site_label_2
_geom_bond_distance
_geom_bond_site_symmetry_2
I0 Rb6 3.952640 1_455
I0 Rb8 3.952659 1_455
I0 Rb0 3.952710 1_555
I0 Rb0 3.952727 1_565
I0 Rb6 3.952783 1_555
I0 Rb8 3.952826 1_565
I0 Rb17 4.041665 1_555
I0 Rb3 4.041780 1_555
I0 Rb4 4.041911 1_555
I0 Rb12 4.080586 1_555
I0 Rb13 4.080749 1_455
I0 Rb14 4.080799 1_565
I1 Rb10 3.952537 1_555
I1 Rb11 3.952560 1_555
I1 Rb5 3.952750 1_655
I1 Rb5 3.952798 1_545
I1 Rb11 3.952927 1_655
I1 Rb10 3.952966 1_545
I1 Rb1 4.040985 1_556
I1 Rb2 4.040988 1_556
I1 Rb7 4.041292 1_556
I1 Rb9 4.079777 1_555
I1 Rb16 4.079820 1_655
I1 Rb15 4.079895 1_545
I2 Rb3 3.952576 1_555
I2 Rb4 3.952597 1_555
I2 Rb17 3.952662 1_545
I2 Rb17 3.952712 1_655
I2 Rb4 3.952731 1_545
I2 Rb3 3.952737 1_655
I2 Rb8 4.040306 1_555
I2 Rb6 4.040389 1_555
I2 Rb0 4.040411 1_555
I2 Rb9 4.081804 1_555
I2 Rb15 4.082065 1_545
I2 Rb16 4.082128 1_655
I3 Rb1 3.952675 1_555
I3 Rb7 3.952726 1_455
I3 Rb2 3.952744 1_555
I3 Rb2 3.952782 1_455
I3 Rb7 3.952862 1_565
I3 Rb1 3.952866 1_565
I3 Rb11 4.041514 1_554
I3 Rb10 4.041547 1_554
I3 Rb5 4.041691 1_554
I3 Rb13 4.079401 1_455
I3 Rb14 4.079506 1_565
I3 Rb12 4.079537 1_555
I4 Rb15 3.958124 1_555
I4 Rb16 3.958147 1_555
I4 Rb9 3.958616 1_565
I4 Rb9 3.958671 1_455
I4 Rb16 3.959002 1_565
I4 Rb15 3.959015 1_455
I4 Rb17 4.026848 1_555
I4 Rb3 4.027412 1_565
I4 Rb4 4.027455 1_455
I4 Rb5 4.029652 1_555
I4 Rb10 4.029876 1_455
I4 Rb11 4.029894 1_565
I5 Rb14 3.958126 1_555
I5 Rb13 3.958177 1_555
I5 Rb12 3.958590 1_545
I5 Rb12 3.958695 1_655
I5 Rb13 3.958971 1_545
I5 Rb14 3.959016 1_655
I5 Rb8 4.026812 1_555
I5 Rb6 4.027332 1_545
I5 Rb0 4.027395 1_655
I5 Rb7 4.029912 1_555
I5 Rb2 4.030138 1_545
I5 Rb1 4.030140 1_655
O0 Rb16 2.706511 1_555
O0 Rb15 2.706533 1_555
O0 Rb9 2.706625 1_555
O0 Rb4 2.759966 1_555
O0 Rb3 2.760006 1_555
O0 Rb17 2.760121 1_555
O1 Rb12 2.706745 1_555
O1 Rb14 2.706842 1_555
O1 Rb13 2.706856 1_555
O1 Rb7 2.759526 1_555
O1 Rb2 2.759622 1_555
O1 Rb1 2.759649 1_555
O2 Rb13 2.706505 1_555
O2 Rb14 2.706550 1_555
O2 Rb12 2.706653 1_555
O2 Rb0 2.760018 1_555
O2 Rb6 2.760045 1_555
O2 Rb8 2.760130 1_555
O3 Rb9 2.706666 1_555
O3 Rb15 2.706767 1_555
O3 Rb16 2.706793 1_555
O3 Rb5 2.759508 1_555
O3 Rb11 2.759589 1_555
O3 Rb10 2.759614 1_555
O4 Rb4 2.777801 1_455
O4 Rb3 2.777825 1_565
O4 Rb0 2.777837 1_565
O4 Rb6 2.777862 1_455
O4 Rb17 2.777888 1_555
O4 Rb8 2.777930 1_465
O5 Rb5 2.777595 1_555
O5 Rb7 2.777599 1_466
O5 Rb11 2.777696 1_565
O5 Rb2 2.777707 1_456
O5 Rb10 2.777718 1_455
O5 Rb1 2.777723 1_566
