# generated using pymatgen
data_MgMn3(CuO4)2
_symmetry_space_group_name_H-M   'P 1'
_cell_length_a   5.35586632
_cell_length_b   5.85377304
_cell_length_c   5.75858184
_cell_angle_alpha   58.96171237
_cell_angle_beta   84.41920888
_cell_angle_gamma   83.26256320
_symmetry_Int_Tables_number   1
_chemical_formula_structural   MgMn3(CuO4)2
_chemical_formula_sum   'Mg1 Mn3 Cu2 O8'
_cell_volume   153.48187015
_cell_formula_units_Z   1
loop_
 _symmetry_equiv_pos_site_id
 _symmetry_equiv_pos_as_xyz
  1  'x, y, z'
loop_
 _atom_site_type_symbol
 _atom_site_label
 _atom_site_symmetry_multiplicity
 _atom_site_fract_x
 _atom_site_fract_y
 _atom_site_fract_z
 _atom_site_occupancy
  Mg  Mg0  1  0.99994500  0.50003000  0.00006600  1
  Mn  Mn0  1  0.50008700  0.99991500  0.99988000  1
  Mn  Mn1  1  0.01131500  0.23719800  0.72315400  1
  Mn  Mn2  1  0.98884100  0.76292900  0.27682100  1
  Cu  Cu0  1  0.52653900  0.27156000  0.28100600  1
  Cu  Cu1  1  0.47314500  0.72819200  0.71877600  1
  O  O0  1  0.84595600  0.89454100  0.91647300  1
  O  O1  1  0.15428100  0.10543000  0.08345300  1
  O  O2  1  0.12777100  0.58333700  0.62275800  1
  O  O3  1  0.87213300  0.41686900  0.37742200  1
  O  O4  1  0.62860800  0.90697700  0.35846500  1
  O  O5  1  0.66930800  0.38338800  0.91538200  1
  O  O6  1  0.33074800  0.61630000  0.08508300  1
  O  O7  1  0.37132700  0.09333300  0.64126000  1
loop_
_geom_bond_atom_site_label_1
_geom_bond_atom_site_label_2
_geom_bond_distance
_geom_bond_site_symmetry_2
Mg0 O2 2.030706 1_654
Mg0 O3 2.031171 1_555
Mg0 O5 2.152896 1_554
Mg0 O6 2.153428 1_655
Mg0 O0 2.174644 1_554
Mg0 O1 2.175972 1_655
Mn0 O0 1.976621 1_555
Mn0 O1 1.976895 1_566
Mn0 O7 2.015780 1_565
Mn0 O4 2.015907 1_556
Mn0 O6 2.315413 1_556
Mn0 O5 2.315680 1_565
Mn1 O3 1.889711 1_455
Mn1 O2 1.961436 1_555
Mn1 O0 1.992338 1_445
Mn1 O1 2.001544 1_556
Mn1 O7 2.121595 1_555
Mn1 O5 2.351099 1_455
Mn2 O2 1.890095 1_655
Mn2 O3 1.961249 1_555
Mn2 O1 1.991854 1_665
Mn2 O0 2.001779 1_554
Mn2 O4 2.122537 1_555
Mn2 O6 2.350410 1_655
Cu0 O7 1.928578 1_555
Cu0 O5 1.956846 1_554
Cu0 O6 1.957208 1_555
Cu0 O4 1.960753 1_545
Cu0 O3 2.348225 1_555
Cu1 O4 1.929473 1_555
Cu1 O5 1.958783 1_555
Cu1 O6 1.959540 1_556
Cu1 O7 1.963486 1_565
Cu1 O2 2.344542 1_555
