# generated using pymatgen
data_KCd(NO2)3
_symmetry_space_group_name_H-M   'P 1'
_cell_length_a   5.97885300
_cell_length_b   5.97885300
_cell_length_c   5.97885300
_cell_angle_alpha   90.00000000
_cell_angle_beta   90.00000000
_cell_angle_gamma   90.00000000
_symmetry_Int_Tables_number   1
_chemical_formula_structural   KCd(NO2)3
_chemical_formula_sum   'K1 Cd1 N3 O6'
_cell_volume   213.72416406
_cell_formula_units_Z   1
loop_
 _symmetry_equiv_pos_site_id
 _symmetry_equiv_pos_as_xyz
  1  'x, y, z'
loop_
 _atom_site_type_symbol
 _atom_site_label
 _atom_site_symmetry_multiplicity
 _atom_site_fract_x
 _atom_site_fract_y
 _atom_site_fract_z
 _atom_site_occupancy
  K  K0  1  0.00000000  0.00000000  0.00000000  1
  Cd  Cd0  1  0.50000000  0.50000000  0.50000000  1
  N  N0  1  0.50000000  0.50000000  0.00000000  1
  N  N1  1  0.50000000  0.00000000  0.50000000  1
  N  N2  1  0.00000000  0.50000000  0.50000000  1
  O  O0  1  0.50000000  0.00000000  0.70827900  1
  O  O1  1  0.00000000  0.70827900  0.50000000  1
  O  O2  1  0.00000000  0.29172100  0.50000000  1
  O  O3  1  0.50000000  0.00000000  0.29172100  1
  O  O4  1  0.29172100  0.50000000  0.00000000  1
  O  O5  1  0.70827900  0.50000000  0.00000000  1
loop_
_geom_bond_atom_site_label_1
_geom_bond_atom_site_label_2
_geom_bond_distance
_geom_bond_site_symmetry_2
K0 O4 3.461034 1_555
K0 O5 3.461034 1_445
K0 O0 3.461034 1_454
K0 O5 3.461034 1_455
K0 O2 3.461034 1_555
K0 O2 3.461034 1_554
K0 O1 3.461034 1_544
K0 O1 3.461034 1_545
K0 O3 3.461034 1_455
K0 O4 3.461034 1_545
K0 O3 3.461034 1_555
K0 O0 3.461034 1_554
N0 O4 1.245270 1_555
N0 O5 1.245270 1_555
N1 O3 1.245270 1_555
N1 O0 1.245270 1_555
N2 O2 1.245270 1_555
N2 O1 1.245270 1_555
