# generated using pymatgen
data_HCl
_symmetry_space_group_name_H-M   'P 1'
_cell_length_a   3.82216359
_cell_length_b   3.82216359
_cell_length_c   3.82216359
_cell_angle_alpha   117.32383794
_cell_angle_beta   94.27382061
_cell_angle_gamma   117.80460190
_symmetry_Int_Tables_number   1
_chemical_formula_structural   HCl
_chemical_formula_sum   'H1 Cl1'
_cell_volume   40.81322901
_cell_formula_units_Z   1
loop_
 _symmetry_equiv_pos_site_id
 _symmetry_equiv_pos_as_xyz
  1  'x, y, z'
loop_
 _atom_site_type_symbol
 _atom_site_label
 _atom_site_symmetry_multiplicity
 _atom_site_fract_x
 _atom_site_fract_y
 _atom_site_fract_z
 _atom_site_occupancy
  H  H0  1  0.28932934  -0.00000000  0.28932934  1
  Cl  Cl0  1  0.04267066  0.00000000  0.04267066  1
loop_
_geom_bond_atom_site_label_1
_geom_bond_atom_site_label_2
_geom_bond_distance
_geom_bond_site_symmetry_2
Cl0 H0 1.282636 1_555
