# generated using pymatgen
data_K2TeSe3
_symmetry_space_group_name_H-M   'P 1'
_cell_length_a   6.63403038
_cell_length_b   10.27280105
_cell_length_c   13.24117583
_cell_angle_alpha   74.68760207
_cell_angle_beta   90.00000000
_cell_angle_gamma   90.00000000
_symmetry_Int_Tables_number   1
_chemical_formula_structural   K2TeSe3
_chemical_formula_sum   'K8 Te4 Se12'
_cell_volume   870.35264185
_cell_formula_units_Z   4
loop_
 _symmetry_equiv_pos_site_id
 _symmetry_equiv_pos_as_xyz
  1  'x, y, z'
loop_
 _atom_site_type_symbol
 _atom_site_label
 _atom_site_symmetry_multiplicity
 _atom_site_fract_x
 _atom_site_fract_y
 _atom_site_fract_z
 _atom_site_occupancy
  K  K0  1  0.25170212  0.49233650  0.62474804  1
  K  K1  1  0.75170212  0.50766350  0.87525196  1
  K  K2  1  0.74829788  0.50766350  0.37525196  1
  K  K3  1  0.24829788  0.49233650  0.12474804  1
  K  K4  1  0.75605645  0.83956500  0.54598991  1
  K  K5  1  0.25605645  0.16043500  0.95401009  1
  K  K6  1  0.24394355  0.16043500  0.45401009  1
  K  K7  1  0.74394355  0.83956500  0.04598991  1
  Te  Te0  1  0.78650552  0.21189018  0.66556366  1
  Te  Te1  1  0.71349448  0.21189018  0.16556366  1
  Te  Te2  1  0.21349448  0.78810982  0.33443634  1
  Te  Te3  1  0.28650552  0.78810982  0.83443634  1
  Se  Se0  1  0.34784611  0.16190230  0.20277677  1
  Se  Se1  1  0.75478958  0.46413292  0.63392962  1
  Se  Se2  1  0.84784611  0.83809770  0.29722323  1
  Se  Se3  1  0.65215389  0.83809770  0.79722323  1
  Se  Se4  1  0.75459905  0.17781108  0.98582649  1
  Se  Se5  1  0.25478958  0.53586708  0.86607038  1
  Se  Se6  1  0.24521042  0.53586708  0.36607038  1
  Se  Se7  1  0.74521042  0.46413292  0.13392962  1
  Se  Se8  1  0.74540095  0.17781108  0.48582649  1
  Se  Se9  1  0.25459905  0.82218892  0.51417351  1
  Se  Se10  1  0.24540095  0.82218892  0.01417351  1
  Se  Se11  1  0.15215389  0.16190230  0.70277677  1
loop_
_geom_bond_atom_site_label_1
_geom_bond_atom_site_label_2
_geom_bond_distance
_geom_bond_site_symmetry_2
K0 Se1 3.308663 1_455
K0 Se9 3.317485 1_555
K0 Se6 3.335389 1_555
K0 Se5 3.341500 1_555
K0 Se11 3.342723 1_555
K0 Se1 3.349479 1_555
K1 Se5 3.308663 1_555
K1 Se4 3.317485 1_555
K1 Se7 3.335389 1_556
K1 Se1 3.341500 1_555
K1 Se3 3.342723 1_555
K1 Se5 3.349479 1_655
K2 Se6 3.308663 1_655
K2 Se8 3.317485 1_555
K2 Se1 3.335389 1_555
K2 Se7 3.341500 1_555
K2 Se2 3.342723 1_555
K2 Se6 3.349479 1_555
K3 Se7 3.308663 1_555
K3 Se10 3.317485 1_555
K3 Se5 3.335389 1_554
K3 Se6 3.341500 1_555
K3 Se0 3.342723 1_555
K3 Se7 3.349479 1_455
K4 Se9 3.344788 1_655
K4 Se2 3.353721 1_555
K4 Se8 3.354310 1_565
K4 Se9 3.363909 1_555
K4 Se3 3.393420 1_555
K4 Se1 3.722697 1_555
K5 Se4 3.344788 1_555
K5 Se0 3.353721 1_556
K5 Se10 3.354310 1_546
K5 Se4 3.363909 1_455
K5 Se11 3.393420 1_555
K5 Se5 3.722697 1_555
K6 Se8 3.344788 1_455
K6 Se11 3.353721 1_555
K6 Se9 3.354310 1_545
K6 Se8 3.363909 1_555
K6 Se0 3.393420 1_555
K6 Se6 3.722697 1_555
K7 Se10 3.344788 1_555
K7 Se3 3.353721 1_554
K7 Se4 3.354310 1_564
K7 Se10 3.363909 1_655
K7 Se2 3.393420 1_555
K7 Se7 3.722697 1_555
Se0 Te1 2.501396 1_555
Se1 Te0 2.522098 1_555
Se2 Te2 2.501396 1_655
Se3 Te3 2.501396 1_555
Se4 Te1 2.510190 1_556
Se5 Te3 2.522098 1_555
Se6 Te2 2.522098 1_555
Se7 Te1 2.522098 1_555
Se8 Te0 2.510190 1_555
Se9 Te2 2.510190 1_555
Se10 Te3 2.510190 1_554
Se11 Te0 2.501396 1_455
