# generated using pymatgen
data_YbNi5
_symmetry_space_group_name_H-M   'P 1'
_cell_length_a   4.77850500
_cell_length_b   4.77850500
_cell_length_c   3.91215778
_cell_angle_alpha   90.00000000
_cell_angle_beta   90.00000000
_cell_angle_gamma   120.00001003
_symmetry_Int_Tables_number   1
_chemical_formula_structural   YbNi5
_chemical_formula_sum   'Yb1 Ni5'
_cell_volume   77.36259668
_cell_formula_units_Z   1
loop_
 _symmetry_equiv_pos_site_id
 _symmetry_equiv_pos_as_xyz
  1  'x, y, z'
loop_
 _atom_site_type_symbol
 _atom_site_label
 _atom_site_symmetry_multiplicity
 _atom_site_fract_x
 _atom_site_fract_y
 _atom_site_fract_z
 _atom_site_occupancy
  Yb  Yb0  1  0.00000000  0.00000000  0.00000000  1
  Ni  Ni0  1  0.33333300  0.66666700  0.00000000  1
  Ni  Ni1  1  0.66666700  0.33333300  0.00000000  1
  Ni  Ni2  1  0.50000000  0.00000000  0.50000000  1
  Ni  Ni3  1  0.50000000  0.50000000  0.50000000  1
  Ni  Ni4  1  0.00000000  0.50000000  0.50000000  1
loop_
_geom_bond_atom_site_label_1
_geom_bond_atom_site_label_2
_geom_bond_distance
_geom_bond_site_symmetry_2
Ni0 Ni4 2.393550 1_554
Ni0 Ni4 2.393550 1_555
Ni0 Ni2 2.393550 1_565
Ni0 Ni2 2.393550 1_564
Ni0 Ni3 2.393553 1_555
Ni0 Ni3 2.393553 1_554
Ni0 Ni1 2.758868 1_455
Ni0 Ni1 2.758868 1_565
Ni0 Yb0 2.758869 1_565
Ni0 Yb0 2.758872 1_555
Ni0 Yb0 2.758872 1_665
Ni0 Ni1 2.758877 1_555
Ni1 Ni2 2.393550 1_554
Ni1 Ni2 2.393550 1_555
Ni1 Ni4 2.393550 1_654
Ni1 Ni4 2.393550 1_655
Ni1 Ni3 2.393553 1_555
Ni1 Ni3 2.393553 1_554
Ni1 Yb0 2.758869 1_655
Ni1 Yb0 2.758872 1_555
Ni1 Yb0 2.758872 1_665
Ni2 Ni4 2.389252 1_545
Ni2 Ni4 2.389252 1_655
Ni2 Ni3 2.389252 1_555
Ni2 Ni3 2.389252 1_545
Ni2 Yb0 3.087843 1_555
Ni2 Yb0 3.087843 1_556
Ni2 Yb0 3.087843 1_655
Ni2 Yb0 3.087843 1_656
Ni3 Ni4 2.389252 1_555
Ni3 Ni4 2.389252 1_655
Ni3 Yb0 3.087842 1_666
Ni3 Yb0 3.087842 1_665
Ni3 Yb0 3.087842 1_555
Ni3 Yb0 3.087842 1_556
Ni4 Yb0 3.087843 1_555
Ni4 Yb0 3.087843 1_556
Ni4 Yb0 3.087843 1_566
Ni4 Yb0 3.087843 1_565
