# generated using pymatgen
data_TiMn5(PO4)6
_symmetry_space_group_name_H-M   'P 1'
_cell_length_a   8.72786857
_cell_length_b   8.55610572
_cell_length_c   8.65109703
_cell_angle_alpha   60.26833987
_cell_angle_beta   58.49387106
_cell_angle_gamma   60.68142223
_symmetry_Int_Tables_number   1
_chemical_formula_structural   TiMn5(PO4)6
_chemical_formula_sum   'Ti1 Mn5 P6 O24'
_cell_volume   454.51998887
_cell_formula_units_Z   1
loop_
 _symmetry_equiv_pos_site_id
 _symmetry_equiv_pos_as_xyz
  1  'x, y, z'
loop_
 _atom_site_type_symbol
 _atom_site_label
 _atom_site_symmetry_multiplicity
 _atom_site_fract_x
 _atom_site_fract_y
 _atom_site_fract_z
 _atom_site_occupancy
  Ti  Ti0  1  0.56472000  0.14615800  0.14680400  1
  Mn  Mn0  1  0.99965100  0.99869100  0.00165400  1
  Mn  Mn1  1  0.06926600  0.64683000  0.63775200  1
  Mn  Mn2  1  0.50099900  0.49678800  0.49996300  1
  Mn  Mn3  1  0.43484800  0.85181000  0.85912000  1
  Mn  Mn4  1  0.93263500  0.35712200  0.35445300  1
  P  P0  1  0.23529800  0.25527400  0.54545000  1
  P  P1  1  0.24602900  0.96164400  0.24902600  1
  P  P2  1  0.25953700  0.53777800  0.95852600  1
  P  P3  1  0.75748400  0.45512700  0.04309100  1
  P  P4  1  0.75335500  0.03893900  0.74790800  1
  P  P5  1  0.75005900  0.75037100  0.45479500  1
  O  O0  1  0.06341500  0.11877600  0.30886200  1
  O  O1  1  0.07066200  0.50297300  0.11234800  1
  O  O2  1  0.06160800  0.31760100  0.50038400  1
  O  O3  1  0.21356400  0.09862200  0.74028000  1
  O  O4  1  0.42095200  0.18450700  0.38687500  1
  O  O5  1  0.26127500  0.42376500  0.54621100  1
  O  O6  1  0.23782400  0.94094700  0.08516200  1
  O  O7  1  0.26392000  0.76960600  0.41475800  1
  O  O8  1  0.57775200  0.60953200  0.01982600  1
  O  O9  1  0.29321200  0.54275100  0.76391900  1
  O  O10  1  0.76428200  0.25690600  0.06873500  1
  O  O11  1  0.57123300  0.00598000  0.80388900  1
  O  O12  1  0.42327800  0.01067700  0.18394100  1
  O  O13  1  0.24127800  0.73388500  0.94748100  1
  O  O14  1  0.74492500  0.43754000  0.24007200  1
  O  O15  1  0.42856500  0.38109500  0.01719700  1
  O  O16  1  0.74310800  0.23273000  0.57874400  1
  O  O17  1  0.75616700  0.07058500  0.90912100  1
  O  O18  1  0.73658400  0.57792700  0.44434100  1
  O  O19  1  0.56433200  0.80643500  0.61705700  1
  O  O20  1  0.75246000  0.91155100  0.25765600  1
  O  O21  1  0.92868300  0.70518700  0.47644200  1
  O  O22  1  0.94217000  0.48610700  0.87940100  1
  O  O23  1  0.93486000  0.87777800  0.69875400  1
loop_
_geom_bond_atom_site_label_1
_geom_bond_atom_site_label_2
_geom_bond_distance
_geom_bond_site_symmetry_2
Mn0 O3 2.136119 1_664
Mn0 O10 2.240280 1_565
Mn0 O20 2.249195 1_555
Mn0 O13 2.267451 1_654
Mn0 O6 2.301512 1_655
Mn0 O17 2.354707 1_564
Mn1 O23 1.917405 1_455
Mn1 O22 1.926285 1_455
Mn1 O7 2.005896 1_555
Mn1 O5 2.014433 1_555
Mn1 O21 2.049580 1_455
Mn1 O9 2.316417 1_555
Mn2 O9 2.126483 1_555
Mn2 O14 2.217017 1_555
Mn2 O18 2.230196 1_555
Mn2 O5 2.255087 1_555
Mn2 O16 2.310111 1_555
Mn2 O7 2.330445 1_555
Mn3 O11 1.924413 1_565
Mn3 O19 1.927796 1_555
Mn3 O13 2.002798 1_555
Mn3 O6 2.010721 1_556
Mn3 O8 2.051194 1_556
Mn3 O3 2.274686 1_565
Mn4 O1 1.907348 1_655
Mn4 O2 1.914256 1_655
Mn4 O0 1.914384 1_655
Mn4 O16 1.988749 1_555
Mn4 O18 2.000599 1_555
Mn4 O14 2.012892 1_555
O0 P1 1.531414 1_545
O1 P2 1.540100 1_554
O2 P0 1.534361 1_555
O3 P0 1.532128 1_555
O4 P0 1.553673 1_555
O4 Ti0 1.882687 1_555
O5 P0 1.568695 1_555
O6 P1 1.553579 1_555
O7 P1 1.557525 1_555
O8 P3 1.511051 1_555
O9 P2 1.531863 1_555
O10 P3 1.571994 1_555
O10 Ti0 2.034645 1_555
O11 P4 1.529585 1_555
O12 P1 1.541805 1_545
O12 Ti0 1.894307 1_555
O13 P2 1.563630 1_555
O14 P3 1.582782 1_555
O15 P2 1.549859 1_554
O15 Ti0 1.878225 1_555
O16 P4 1.575980 1_555
O17 P4 1.560726 1_555
O17 Ti0 2.026767 1_556
O18 P5 1.585046 1_555
O19 P5 1.535042 1_555
O20 P5 1.571303 1_555
O20 Ti0 2.036116 1_565
O21 P5 1.502702 1_555
O22 P3 1.527819 1_556
O23 P4 1.526444 1_565
