# generated using pymatgen
data_Na6Ta2In2Si5SO24
_symmetry_space_group_name_H-M   'P 1'
_cell_length_a   9.15765365
_cell_length_b   9.14842876
_cell_length_c   22.60143338
_cell_angle_alpha   89.93081100
_cell_angle_beta   90.09937990
_cell_angle_gamma   120.06821934
_symmetry_Int_Tables_number   1
_chemical_formula_structural   Na6Ta2In2Si5SO24
_chemical_formula_sum   'Na18 Ta6 In6 Si15 S3 O72'
_cell_volume   1638.69337381
_cell_formula_units_Z   3
loop_
 _symmetry_equiv_pos_site_id
 _symmetry_equiv_pos_as_xyz
  1  'x, y, z'
loop_
 _atom_site_type_symbol
 _atom_site_label
 _atom_site_symmetry_multiplicity
 _atom_site_fract_x
 _atom_site_fract_y
 _atom_site_fract_z
 _atom_site_occupancy
  Na  Na0  1  0.64725669  0.02059960  0.24797439  1
  Na  Na1  1  0.36480839  0.34756661  0.25444438  1
  Na  Na2  1  0.98736701  0.62831841  0.24766034  1
  Na  Na3  1  0.98990083  0.35310608  0.74888038  1
  Na  Na4  1  0.29742676  0.34433605  0.57899348  1
  Na  Na5  1  0.65990690  0.95579144  0.57883423  1
  Na  Na6  1  0.67044962  0.69753144  0.07267746  1
  Na  Na7  1  0.02037945  0.33902225  0.07914625  1
  Na  Na8  1  0.95368321  0.66442044  0.91038798  1
  Na  Na9  1  0.71789160  0.03845118  0.91734877  1
  Na  Na10  1  0.32621821  0.30205540  0.91053247  1
  Na  Na11  1  0.69861098  0.67573811  0.41698045  1
  Na  Na12  1  0.01187205  0.01837393  0.49379004  1
  Na  Na13  1  0.98886841  0.99388607  0.99576719  1
  Na  Na14  1  0.66362407  0.34237801  0.83038556  1
  Na  Na15  1  0.66099991  0.31643285  0.33185779  1
  Na  Na16  1  0.32968268  0.69445596  0.16102789  1
  Na  Na17  1  0.32978535  0.67802193  0.66054655  1
  Ta  Ta0  1  0.99576686  0.99290331  0.64710937  1
  Ta  Ta1  1  0.99399432  0.99488800  0.15115315  1
  Ta  Ta2  1  0.66572769  0.33480402  0.68663370  1
  Ta  Ta3  1  0.65459272  0.32096582  0.48039830  1
  Ta  Ta4  1  0.34526273  0.67087085  0.31388705  1
  Ta  Ta5  1  0.33558299  0.65430831  0.80683559  1
  In  In0  1  0.00430899  0.01282024  0.35250564  1
  In  In1  1  0.99020605  0.99722533  0.84430176  1
  In  In2  1  0.67252002  0.32986945  0.18299487  1
  In  In3  1  0.68886293  0.34666784  0.98248832  1
  In  In4  1  0.33567785  0.67359225  0.01735412  1
  In  In5  1  0.33252935  0.66483011  0.52197623  1
  Si  Si0  1  0.29160216  0.99800601  0.25217378  1
  Si  Si1  1  0.70668849  0.70507360  0.25363528  1
  Si  Si2  1  0.00335192  0.29783754  0.25022281  1
  Si  Si3  1  0.29509912  0.28465349  0.75044634  1
  Si  Si4  1  0.00054005  0.70542574  0.75181609  1
  Si  Si5  1  0.70158932  0.99942279  0.74948103  1
  Si  Si6  1  0.95331774  0.33175584  0.58455184  1
  Si  Si7  1  0.37132796  0.04342608  0.58516326  1
  Si  Si8  1  0.67618265  0.62446783  0.58187728  1
  Si  Si9  1  0.97028556  0.64144558  0.08416270  1
  Si  Si10  1  0.66646330  0.03197017  0.08414632  1
  Si  Si11  1  0.62547947  0.66481705  0.91746139  1
  Si  Si12  1  0.04389418  0.37257228  0.91628329  1
  Si  Si13  1  0.62847922  0.96315494  0.42000642  1
  Si  Si14  1  0.33442012  0.37015313  0.42045473  1
  S  S0  1  0.36328839  0.32304538  0.08354813  1
  S  S1  1  0.33393818  0.95836704  0.91405192  1
  S  S2  1  0.03913534  0.65886342  0.41619518  1
  O  O0  1  0.21420752  0.03954251  0.30845807  1
  O  O1  1  0.82202962  0.77531634  0.31170432  1
  O  O2  1  0.94855850  0.16722896  0.30387707  1
  O  O3  1  0.22599503  0.18834356  0.81236214  1
  O  O4  1  0.96888607  0.77189066  0.81360070  1
  O  O5  1  0.81397007  0.05191463  0.80924140  1
  O  O6  1  0.80264608  0.97269500  0.69320288  1
  O  O7  1  0.16197719  0.19280834  0.69478924  1
  O  O8  1  0.02330978  0.83588508  0.69665674  1
  O  O9  1  0.80227563  0.83708807  0.19608821  1
  O  O10  1  0.03797671  0.20813425  0.19075253  1
  O  O11  1  0.16210939  0.96975752  0.19505365  1
  O  O12  1  0.85822469  0.34593120  0.64349300  1
  O  O13  1  0.49877204  0.14919846  0.63922028  1
  O  O14  1  0.65722676  0.50092503  0.63724201  1
  O  O15  1  0.88256755  0.52866091  0.14264052  1
  O  O16  1  0.64084431  0.11105705  0.14425108  1
  O  O17  1  0.46454651  0.34458475  0.13719486  1
  O  O18  1  0.44075299  0.30301891  0.02907509  1
  O  O19  1  0.84904202  0.57424260  0.02501617  1
  O  O20  1  0.70344378  0.14858206  0.02432408  1
  O  O21  1  0.46600711  0.16881027  0.52586320  1
  O  O22  1  0.69601405  0.53246367  0.52142761  1
  O  O23  1  0.82510573  0.30504210  0.52774759  1
  O  O24  1  0.55238942  0.69972463  0.97780308  1
  O  O25  1  0.14751325  0.45360691  0.97716325  1
  O  O26  1  0.30818276  0.86281264  0.96962925  1
  O  O27  1  0.54387954  0.85520569  0.47898858  1
  O  O28  1  0.31532441  0.45395016  0.48012905  1
  O  O29  1  0.13750360  0.67951537  0.46934040  1
  O  O30  1  0.12702418  0.64551985  0.36143115  1
  O  O31  1  0.50165811  0.86159909  0.36084519  1
  O  O32  1  0.35661275  0.50105427  0.36209200  1
  O  O33  1  0.14934092  0.49759341  0.85870497  1
  O  O34  1  0.35122112  0.86813800  0.86242581  1
  O  O35  1  0.49944382  0.65276788  0.86109465  1
  O  O36  1  0.01037670  0.80381323  0.41228091  1
  O  O37  1  0.80665886  0.96620297  0.41404554  1
  O  O38  1  0.17952731  0.18060120  0.41534056  1
  O  O39  1  0.02624695  0.18525772  0.91321596  1
  O  O40  1  0.18415872  0.98011221  0.91008303  1
  O  O41  1  0.81655612  0.82743080  0.91242357  1
  O  O42  1  0.96293802  0.15417984  0.58995350  1
  O  O43  1  0.19127638  0.04100898  0.59190599  1
  O  O44  1  0.84399782  0.81478273  0.59006617  1
  O  O45  1  0.98558015  0.83019173  0.09307327  1
  O  O46  1  0.84885265  0.02647300  0.09099728  1
  O  O47  1  0.19090813  0.17044646  0.08826769  1
  O  O48  1  0.68107699  0.16577648  0.73893390  1
  O  O49  1  0.48645755  0.32230233  0.73979860  1
  O  O50  1  0.84133669  0.51256602  0.74093577  1
  O  O51  1  0.65989416  0.51306249  0.24134597  1
  O  O52  1  0.84882981  0.33605485  0.24575869  1
  O  O53  1  0.48090582  0.15699399  0.24387070  1
  O  O54  1  0.62187619  0.48232117  0.91739325  1
  O  O55  1  0.85787829  0.36039497  0.91332711  1
  O  O56  1  0.49045258  0.12698092  0.91696705  1
  O  O57  1  0.64405165  0.15237951  0.42273549  1
  O  O58  1  0.52226300  0.37643282  0.42063219  1
  O  O59  1  0.86991232  0.49960824  0.41789378  1
  O  O60  1  0.34358413  0.47466376  0.08132270  1
  O  O61  1  0.14994329  0.64639714  0.07957477  1
  O  O62  1  0.51617044  0.83509987  0.08196892  1
  O  O63  1  0.36290694  0.86439013  0.58189976  1
  O  O64  1  0.50955921  0.64408146  0.58440078  1
  O  O65  1  0.14316913  0.49016937  0.58267660  1
  O  O66  1  0.29759599  0.81867231  0.25778066  1
  O  O67  1  0.52341471  0.70501529  0.25826983  1
  O  O68  1  0.18135532  0.48236486  0.25885640  1
  O  O69  1  0.30468819  0.47402663  0.75518339  1
  O  O70  1  0.17032026  0.68299610  0.75630273  1
  O  O71  1  0.51514874  0.82874938  0.75703616  1
loop_
_geom_bond_atom_site_label_1
_geom_bond_atom_site_label_2
_geom_bond_distance
_geom_bond_site_symmetry_2
Na0 O53 2.406306 1_555
Na0 O16 2.495502 1_555
Na0 O67 2.528628 1_545
Na0 O52 2.529879 1_555
Na0 O2 2.700402 1_555
Na0 O66 2.790878 1_545
Na0 O31 2.908753 1_545
Na0 O9 2.933901 1_545
Na1 O51 2.363096 1_555
Na1 O53 2.467052 1_555
Na1 O68 2.535748 1_555
Na1 O0 2.726959 1_555
Na1 O17 2.809103 1_555
Na1 O32 2.830417 1_555
Na1 O67 2.837499 1_555
Na1 O10 2.970059 1_555
Na2 O52 2.315450 1_555
Na2 O66 2.489412 1_655
Na2 O15 2.550839 1_555
Na2 O51 2.637376 1_555
Na2 O68 2.716125 1_655
Na2 O30 2.839073 1_655
Na2 O1 2.872086 1_555
Na2 O11 2.953015 1_655
Na3 O50 2.449212 1_555
Na3 O48 2.475424 1_555
Na3 O69 2.521411 1_655
Na3 O70 2.621025 1_655
Na3 O12 2.653855 1_555
Na3 O5 2.756687 1_555
Na3 O33 2.846362 1_655
Na3 O7 2.907749 1_655
Na4 O65 2.381522 1_555
Na4 O28 2.420024 1_555
Na4 O64 2.443427 1_555
Na4 O43 2.454897 1_555
Na4 O42 2.670644 1_455
Na4 O7 2.930732 1_555
Na4 O21 2.983127 1_555
Na5 O63 2.413089 1_555
Na5 O42 2.451496 1_565
Na5 O27 2.466816 1_555
Na5 O64 2.471604 1_555
Na5 O44 2.597611 1_555
Na5 O6 2.863729 1_555
Na5 O23 2.997333 1_565
Na6 O62 2.325414 1_555
Na6 O24 2.404350 1_554
Na6 O45 2.549650 1_555
Na6 O19 2.639106 1_555
Na6 O46 2.640179 1_565
Na6 O60 2.653423 1_555
Na7 O61 2.443751 1_555
Na7 O46 2.492760 1_455
Na7 O25 2.558848 1_554
Na7 O60 2.573306 1_555
Na7 O47 2.696492 1_555
Na7 O20 2.814280 1_455
Na7 O10 2.829709 1_555
Na7 O15 2.977969 1_455
Na8 O4 2.372767 1_555
Na8 O41 2.383260 1_555
Na8 O55 2.462641 1_555
Na8 O40 2.586034 1_655
Na8 O54 2.638534 1_555
Na8 O19 2.742660 1_556
Na9 O39 2.446772 1_655
Na9 O41 2.510849 1_545
Na9 O55 2.557851 1_555
Na9 O5 2.580225 1_555
Na9 O56 2.585420 1_555
Na9 O20 2.649324 1_556
Na10 O54 2.366285 1_555
Na10 O39 2.398065 1_555
Na10 O3 2.426799 1_555
Na10 O40 2.554935 1_545
Na10 O56 2.694627 1_555
Na10 O18 2.873942 1_556
Na11 O37 2.325886 1_555
Na11 O58 2.383537 1_555
Na11 O36 2.486773 1_655
Na11 O1 2.596374 1_555
Na11 O22 2.693098 1_555
Na11 O59 2.755057 1_555
Na11 O32 2.979532 1_555
Na11 O27 3.001884 1_555
Na12 O38 2.328822 1_555
Na12 O37 2.469701 1_445
Na12 O42 2.652546 1_455
Na12 O36 2.688612 1_545
Na12 O43 2.703186 1_555
Na12 O44 2.774869 1_445
Na13 O41 2.438427 1_555
Na13 O39 2.461143 1_665
Na13 O46 2.599936 1_566
Na13 O45 2.650919 1_556
Na13 O40 2.683848 1_655
Na13 O47 2.720869 1_666
Na14 O54 2.480222 1_555
Na14 O55 2.530055 1_555
Na14 O49 2.559029 1_555
Na14 O50 2.573836 1_555
Na14 O56 2.664077 1_555
Na14 O48 2.678805 1_555
Na15 O57 2.501120 1_555
Na15 O53 2.527307 1_555
Na15 O52 2.545395 1_555
Na15 O58 2.579062 1_555
Na15 O59 2.651776 1_555
Na15 O51 2.725829 1_555
Na16 O61 2.357538 1_555
Na16 O62 2.359667 1_555
Na16 O66 2.549985 1_555
Na16 O60 2.751475 1_555
Na16 O67 2.793292 1_555
Na16 O68 2.803157 1_555
Na17 O63 2.373794 1_555
Na17 O65 2.454662 1_555
Na17 O64 2.508375 1_555
Na17 O70 2.626079 1_555
Na17 O71 2.680988 1_555
Na17 O69 2.770007 1_555
In0 O2 2.044758 1_455
In0 O0 2.069010 1_555
In0 O38 2.115874 1_555
In0 O37 2.150903 1_445
In0 O1 2.173222 1_445
In0 O36 2.363122 1_545
In1 O5 2.070431 1_565
In1 O4 2.090187 1_555
In1 O3 2.111829 1_665
In1 O41 2.199930 1_555
In1 O39 2.220311 1_665
In1 O40 2.378776 1_655
In2 O16 2.068715 1_555
In2 O15 2.082295 1_555
In2 O52 2.126751 1_555
In2 O53 2.166940 1_555
In2 O51 2.182070 1_555
In2 O17 2.228611 1_555
In3 O19 2.085619 1_556
In3 O20 2.105649 1_556
In3 O55 2.160548 1_555
In3 O54 2.199159 1_555
In3 O18 2.351317 1_556
In3 O56 2.423268 1_555
In4 O24 2.079652 1_554
In4 O25 2.090114 1_554
In4 O61 2.125078 1_555
In4 O62 2.144176 1_555
In4 O26 2.157498 1_554
In4 O60 2.352195 1_555
In5 O28 2.083402 1_555
In5 O27 2.085167 1_555
In5 O65 2.160744 1_555
In5 O63 2.177258 1_555
In5 O29 2.203566 1_555
In5 O64 2.225899 1_555
O0 Si0 1.593471 1_545
O1 Si1 1.602560 1_555
O2 Si2 1.596199 1_655
O3 Si3 1.605127 1_555
O4 Si4 1.607427 1_655
O5 Si5 1.617272 1_545
O6 Si5 1.663046 1_555
O6 Ta0 1.981285 1_555
O7 Si3 1.656912 1_555
O7 Ta0 2.008068 1_445
O8 Si4 1.664349 1_555
O8 Ta0 1.933730 1_455
O9 Si1 1.690359 1_555
O9 Ta1 1.913322 1_555
O10 Si2 1.686870 1_555
O10 Ta1 1.996179 1_445
O11 Si0 1.681697 1_555
O11 Ta1 1.938132 1_455
O12 Si6 1.633218 1_555
O12 Ta2 1.973451 1_555
O13 Si7 1.630154 1_555
O13 Ta2 1.940723 1_555
O14 Si8 1.635262 1_555
O14 Ta2 1.917295 1_555
O15 Si9 1.620673 1_555
O16 Si10 1.611675 1_555
O17 S0 1.477297 1_555
O18 S0 1.478646 1_555
O19 Si9 1.646389 1_555
O20 Si10 1.648317 1_555
O21 Si7 1.693385 1_555
O21 Ta3 1.889403 1_555
O22 Si8 1.662793 1_555
O22 Ta3 2.003797 1_555
O23 Si6 1.671697 1_555
O23 Ta3 1.956149 1_555
O24 Si11 1.621227 1_555
O25 Si12 1.623680 1_555
O26 S1 1.479673 1_555
O27 Si13 1.608207 1_555
O28 Si14 1.604675 1_555
O29 S2 1.454719 1_555
O30 S2 1.515580 1_555
O30 Ta4 2.178320 1_555
O31 Si13 1.707713 1_555
O31 Ta4 1.928009 1_555
O32 Si14 1.722967 1_555
O32 Ta4 1.941308 1_555
O33 Si12 1.681719 1_555
O33 Ta5 1.972638 1_555
O34 S1 1.483841 1_555
O34 Ta5 2.269455 1_555
O35 Si11 1.683762 1_555
O35 Ta5 1.941803 1_555
O36 S2 1.478249 1_555
O37 Si13 1.623748 1_555
O38 Si14 1.602368 1_555
O39 Si12 1.640185 1_555
O40 S1 1.483894 1_555
O41 Si11 1.636989 1_555
O42 Si6 1.674724 1_555
O42 Ta0 2.091543 1_545
O43 Si7 1.645220 1_555
O43 Ta0 2.042741 1_445
O44 Si8 1.657090 1_555
O44 Ta0 1.994645 1_555
O45 Si9 1.673370 1_555
O45 Ta1 1.971638 1_555
O46 Si10 1.702799 1_555
O46 Ta1 2.018992 1_545
O47 S0 1.498057 1_555
O47 Ta1 2.225441 1_445
O48 Si5 1.641234 1_545
O48 Ta2 2.005242 1_555
O49 Si3 1.626000 1_555
O49 Ta2 1.992599 1_555
O50 Si4 1.649604 1_655
O50 Ta2 2.028412 1_555
O51 Si1 1.610246 1_555
O52 Si2 1.621727 1_655
O53 Si0 1.621681 1_545
O54 Si11 1.653267 1_555
O55 Si12 1.651709 1_655
O56 S1 1.490833 1_545
O57 Si13 1.665450 1_545
O57 Ta3 1.985379 1_555
O58 Si14 1.692145 1_555
O58 Ta3 2.039496 1_555
O59 S2 1.504422 1_655
O59 Ta3 2.308595 1_555
O60 S0 1.486492 1_555
O61 Si9 1.626508 1_455
O62 Si10 1.629885 1_565
O63 Si7 1.602435 1_565
O64 Si8 1.624329 1_555
O65 Si6 1.612472 1_455
O66 Si0 1.673446 1_555
O66 Ta4 2.052386 1_555
O67 Si1 1.681538 1_555
O67 Ta4 1.958275 1_555
O68 Si2 1.669516 1_555
O68 Ta4 2.044220 1_555
O69 Si3 1.693689 1_555
O69 Ta5 1.923276 1_555
O70 Si4 1.669986 1_555
O70 Ta5 2.013712 1_555
O71 Si5 1.646570 1_555
O71 Ta5 1.972334 1_555
