# generated using pymatgen
data_Mo4P3
_symmetry_space_group_name_H-M   'P 1'
_cell_length_a   3.16370000
_cell_length_b   12.51058000
_cell_length_c   20.56808700
_cell_angle_alpha   90.00000000
_cell_angle_beta   90.00000000
_cell_angle_gamma   90.00000000
_symmetry_Int_Tables_number   1
_chemical_formula_structural   Mo4P3
_chemical_formula_sum   'Mo32 P24'
_cell_volume   814.07916442
_cell_formula_units_Z   8
loop_
 _symmetry_equiv_pos_site_id
 _symmetry_equiv_pos_as_xyz
  1  'x, y, z'
loop_
 _atom_site_type_symbol
 _atom_site_label
 _atom_site_symmetry_multiplicity
 _atom_site_fract_x
 _atom_site_fract_y
 _atom_site_fract_z
 _atom_site_occupancy
  Mo  Mo0  1  0.75000000  0.20196600  0.11350600  1
  Mo  Mo1  1  0.25000000  0.79803400  0.88649400  1
  Mo  Mo2  1  0.75000000  0.70196600  0.38649400  1
  Mo  Mo3  1  0.25000000  0.29803400  0.61350600  1
  Mo  Mo4  1  0.75000000  0.49076500  0.67230500  1
  Mo  Mo5  1  0.25000000  0.50923500  0.32769500  1
  Mo  Mo6  1  0.75000000  0.99076500  0.82769500  1
  Mo  Mo7  1  0.25000000  0.00923500  0.17230500  1
  Mo  Mo8  1  0.25000000  0.09481800  0.53340400  1
  Mo  Mo9  1  0.75000000  0.90518200  0.46659600  1
  Mo  Mo10  1  0.25000000  0.59481800  0.96659600  1
  Mo  Mo11  1  0.75000000  0.40518200  0.03340400  1
  Mo  Mo12  1  0.25000000  0.40099400  0.47274800  1
  Mo  Mo13  1  0.75000000  0.59900600  0.52725200  1
  Mo  Mo14  1  0.25000000  0.90099400  0.02725200  1
  Mo  Mo15  1  0.75000000  0.09900600  0.97274800  1
  Mo  Mo16  1  0.25000000  0.29717100  0.91597800  1
  Mo  Mo17  1  0.75000000  0.70282900  0.08402200  1
  Mo  Mo18  1  0.25000000  0.79717100  0.58402200  1
  Mo  Mo19  1  0.75000000  0.20282900  0.41597800  1
  Mo  Mo20  1  0.25000000  0.12049400  0.31085000  1
  Mo  Mo21  1  0.75000000  0.87950600  0.68915000  1
  Mo  Mo22  1  0.25000000  0.62049400  0.18915000  1
  Mo  Mo23  1  0.75000000  0.37950600  0.81085000  1
  Mo  Mo24  1  0.25000000  0.38480300  0.14751500  1
  Mo  Mo25  1  0.75000000  0.61519700  0.85248500  1
  Mo  Mo26  1  0.25000000  0.88480300  0.35248500  1
  Mo  Mo27  1  0.75000000  0.11519700  0.64751500  1
  Mo  Mo28  1  0.25000000  0.19403200  0.77355000  1
  Mo  Mo29  1  0.75000000  0.80596800  0.22645000  1
  Mo  Mo30  1  0.25000000  0.69403200  0.72645000  1
  Mo  Mo31  1  0.75000000  0.30596800  0.27355000  1
  P  P0  1  0.25000000  0.19957400  0.20509200  1
  P  P1  1  0.75000000  0.80042600  0.79490800  1
  P  P2  1  0.25000000  0.69957400  0.29490800  1
  P  P3  1  0.75000000  0.30042600  0.70509200  1
  P  P4  1  0.25000000  0.01647800  0.72524700  1
  P  P5  1  0.75000000  0.98352200  0.27475300  1
  P  P6  1  0.25000000  0.51647800  0.77475300  1
  P  P7  1  0.75000000  0.48352200  0.22524700  1
  P  P8  1  0.25000000  0.04139900  0.41920500  1
  P  P9  1  0.75000000  0.95860100  0.58079500  1
  P  P10  1  0.25000000  0.54139900  0.08079500  1
  P  P11  1  0.75000000  0.45860100  0.91920500  1
  P  P12  1  0.25000000  0.32137700  0.36338600  1
  P  P13  1  0.75000000  0.67862300  0.63661400  1
  P  P14  1  0.25000000  0.82137700  0.13661400  1
  P  P15  1  0.75000000  0.17862300  0.86338600  1
  P  P16  1  0.25000000  0.48169800  0.58103400  1
  P  P17  1  0.75000000  0.51830200  0.41896600  1
  P  P18  1  0.25000000  0.98169800  0.91896600  1
  P  P19  1  0.75000000  0.01830200  0.08103400  1
  P  P20  1  0.25000000  0.24560300  0.02769300  1
  P  P21  1  0.75000000  0.75439700  0.97230700  1
  P  P22  1  0.25000000  0.74560300  0.47230700  1
  P  P23  1  0.75000000  0.25439700  0.52769300  1
loop_
_geom_bond_atom_site_label_1
_geom_bond_atom_site_label_2
_geom_bond_distance
_geom_bond_site_symmetry_2
Mo0 P19 2.392843 1_555
Mo0 P20 2.432188 1_555
Mo0 P20 2.432188 1_655
Mo0 P0 2.460011 1_655
Mo0 P0 2.460011 1_555
Mo1 P18 2.392843 1_555
Mo1 P21 2.432188 1_555
Mo1 P21 2.432188 1_455
Mo1 P1 2.460011 1_555
Mo1 P1 2.460011 1_455
Mo2 P17 2.392843 1_555
Mo2 P22 2.432188 1_655
Mo2 P22 2.432188 1_555
Mo2 P2 2.460011 1_655
Mo2 P2 2.460011 1_555
Mo3 P16 2.392843 1_555
Mo3 P23 2.432188 1_555
Mo3 P23 2.432188 1_455
Mo3 P3 2.460011 1_455
Mo3 P3 2.460011 1_555
Mo4 P16 2.457490 1_655
Mo4 P16 2.457490 1_555
Mo4 P13 2.462193 1_555
Mo4 P3 2.474899 1_555
Mo4 P6 2.654402 1_655
Mo4 P6 2.654402 1_555
Mo5 P17 2.457490 1_455
Mo5 P17 2.457490 1_555
Mo5 P12 2.462193 1_555
Mo5 P2 2.474899 1_555
Mo5 P7 2.654402 1_555
Mo5 P7 2.654402 1_455
Mo6 P18 2.457490 1_555
Mo6 P18 2.457490 1_655
Mo6 P15 2.462193 1_565
Mo6 P1 2.474899 1_555
Mo6 P4 2.654402 1_565
Mo6 P4 2.654402 1_665
Mo7 P19 2.457490 1_555
Mo7 P19 2.457490 1_455
Mo7 P14 2.462193 1_545
Mo7 P0 2.474899 1_555
Mo7 P5 2.654402 1_545
Mo7 P5 2.654402 1_445
Mo8 P8 2.442079 1_555
Mo8 P9 2.521212 1_445
Mo8 P9 2.521212 1_545
Mo8 P23 2.549856 1_555
Mo8 P23 2.549856 1_455
Mo9 P9 2.442079 1_555
Mo9 P8 2.521212 1_665
Mo9 P8 2.521212 1_565
Mo9 P22 2.549856 1_655
Mo9 P22 2.549856 1_555
Mo10 P10 2.442079 1_556
Mo10 P11 2.521212 1_555
Mo10 P11 2.521212 1_455
Mo10 P21 2.549856 1_555
Mo10 P21 2.549856 1_455
Mo11 P11 2.442079 1_554
Mo11 P10 2.521212 1_655
Mo11 P10 2.521212 1_555
Mo11 P20 2.549856 1_555
Mo11 P20 2.549856 1_655
Mo12 P17 2.424817 1_455
Mo12 P17 2.424817 1_555
Mo12 P16 2.445400 1_555
Mo12 P12 2.460036 1_555
Mo12 P23 2.672641 1_455
Mo12 P23 2.672641 1_555
Mo13 P16 2.424817 1_555
Mo13 P16 2.424817 1_655
Mo13 P17 2.445400 1_555
Mo13 P13 2.460036 1_555
Mo13 P22 2.672641 1_655
Mo13 P22 2.672641 1_555
Mo14 P19 2.424817 1_465
Mo14 P19 2.424817 1_565
Mo14 P18 2.445400 1_554
Mo14 P14 2.460036 1_555
Mo14 P21 2.672641 1_454
Mo14 P21 2.672641 1_554
Mo15 P18 2.424817 1_645
Mo15 P18 2.424817 1_545
Mo15 P19 2.445400 1_556
Mo15 P15 2.460036 1_555
Mo15 P20 2.672641 1_556
Mo15 P20 2.672641 1_656
Mo16 P20 2.386615 1_556
Mo16 P15 2.423213 1_555
Mo16 P15 2.423213 1_455
Mo16 P11 2.566198 1_455
Mo16 P11 2.566198 1_555
Mo17 P21 2.386615 1_554
Mo17 P14 2.423213 1_655
Mo17 P14 2.423213 1_555
Mo17 P10 2.566198 1_655
Mo17 P10 2.566198 1_555
Mo18 P22 2.386615 1_555
Mo18 P13 2.423213 1_455
Mo18 P13 2.423213 1_555
Mo18 P9 2.566198 1_555
Mo18 P9 2.566198 1_455
Mo19 P23 2.386615 1_555
Mo19 P12 2.423213 1_655
Mo19 P12 2.423213 1_555
Mo19 P8 2.566198 1_555
Mo19 P8 2.566198 1_655
Mo20 P0 2.389656 1_555
Mo20 P8 2.438455 1_555
Mo20 P5 2.447427 1_445
Mo20 P5 2.447427 1_545
Mo20 P12 2.735618 1_555
Mo21 P1 2.389656 1_555
Mo21 P9 2.438455 1_555
Mo21 P4 2.447427 1_565
Mo21 P4 2.447427 1_665
Mo21 P13 2.735618 1_555
Mo22 P2 2.389656 1_555
Mo22 P10 2.438455 1_555
Mo22 P7 2.447427 1_555
Mo22 P7 2.447427 1_455
Mo22 P14 2.735618 1_555
Mo23 P3 2.389656 1_555
Mo23 P11 2.438455 1_555
Mo23 P6 2.447427 1_555
Mo23 P6 2.447427 1_655
Mo23 P15 2.735618 1_555
Mo24 P10 2.391927 1_555
Mo24 P7 2.565874 1_555
Mo24 P7 2.565874 1_455
Mo24 P0 2.602389 1_555
Mo25 P11 2.391927 1_555
Mo25 P6 2.565874 1_555
Mo25 P6 2.565874 1_655
Mo25 P1 2.602389 1_555
Mo26 P8 2.391927 1_565
Mo26 P5 2.565874 1_555
Mo26 P5 2.565874 1_455
Mo26 P2 2.602389 1_555
Mo27 P9 2.391927 1_545
Mo27 P4 2.565874 1_655
Mo27 P4 2.565874 1_555
Mo27 P3 2.602389 1_555
Mo28 P4 2.433358 1_555
Mo28 P15 2.440002 1_555
Mo28 P15 2.440002 1_455
Mo28 P3 2.501310 1_455
Mo28 P3 2.501310 1_555
Mo29 P5 2.433358 1_555
Mo29 P14 2.440002 1_555
Mo29 P14 2.440002 1_655
Mo29 P2 2.501310 1_655
Mo29 P2 2.501310 1_555
Mo30 P6 2.433358 1_555
Mo30 P13 2.440002 1_455
Mo30 P13 2.440002 1_555
Mo30 P1 2.501310 1_555
Mo30 P1 2.501310 1_455
Mo31 P7 2.433358 1_555
Mo31 P12 2.440002 1_555
Mo31 P12 2.440002 1_655
Mo31 P0 2.501310 1_655
Mo31 P0 2.501310 1_555
