# generated using pymatgen
data_BaNd2MgMn2O7
_symmetry_space_group_name_H-M   'P 1'
_cell_length_a   5.19465579
_cell_length_b   3.96586583
_cell_length_c   10.56831884
_cell_angle_alpha   100.81508503
_cell_angle_beta   104.22624204
_cell_angle_gamma   89.99614193
_symmetry_Int_Tables_number   1
_chemical_formula_structural   BaNd2MgMn2O7
_chemical_formula_sum   'Ba1 Nd2 Mg1 Mn2 O7'
_cell_volume   207.05316390
_cell_formula_units_Z   1
loop_
 _symmetry_equiv_pos_site_id
 _symmetry_equiv_pos_as_xyz
  1  'x, y, z'
loop_
 _atom_site_type_symbol
 _atom_site_label
 _atom_site_symmetry_multiplicity
 _atom_site_fract_x
 _atom_site_fract_y
 _atom_site_fract_z
 _atom_site_occupancy
  Ba  Ba0  1  0.49999957  0.49998476  -0.00000146  1
  Nd  Nd0  1  0.32201760  0.32226588  0.64430835  1
  Nd  Nd1  1  0.67793260  0.67773432  0.35568701  1
  Mg  Mg0  1  0.00000156  0.50000450  0.00000141  1
  Mn  Mn0  1  0.88556135  0.88572197  0.77130154  1
  Mn  Mn1  1  0.11441551  0.11427816  0.22869922  1
  O  O0  1  0.90353558  0.40347756  0.80684796  1
  O  O1  1  0.38867185  0.88853665  0.77709257  1
  O  O2  1  0.09648908  0.59652399  0.19315342  1
  O  O3  1  0.61134835  0.11146634  0.22290885  1
  O  O4  1  0.78412859  0.78382875  0.56795615  1
  O  O5  1  -0.00000153  0.00000370  0.00000060  1
  O  O6  1  0.21589989  0.21617141  0.43204238  1
loop_
_geom_bond_atom_site_label_1
_geom_bond_atom_site_label_2
_geom_bond_distance
_geom_bond_site_symmetry_2
Ba0 Mg0 2.597325 1_555
Ba0 Mg0 2.597331 1_655
Ba0 O3 2.991780 1_555
Ba0 O1 2.991824 1_544
Ba0 O1 2.991829 1_554
Ba0 O3 2.991939 1_565
Nd0 O6 2.133376 1_555
Nd0 O1 2.389805 1_555
Nd0 O1 2.390588 1_545
Nd1 O4 2.133408 1_555
Nd1 O3 2.389771 1_555
Nd1 O3 2.390553 1_565
Mg0 O2 1.941272 1_555
Mg0 O0 1.941286 1_454
Mg0 O5 1.982931 1_565
Mg0 O5 1.982934 1_555
Mn0 O0 2.014793 1_565
Mn0 O0 2.014926 1_555
Mn0 O4 2.043721 1_555
Mn0 O5 2.298537 1_666
Mn0 O1 2.596862 1_555
Mn0 O1 2.599098 1_655
Mn1 O2 2.014787 1_545
Mn1 O2 2.014929 1_555
Mn1 O6 2.043698 1_555
Mn1 O5 2.298532 1_555
Mn1 O3 2.597085 1_555
Mn1 O3 2.598875 1_455
