# generated using pymatgen
data_MgTi(CoO3)2
_symmetry_space_group_name_H-M   'P 1'
_cell_length_a   6.46033923
_cell_length_b   2.97986871
_cell_length_c   6.01767528
_cell_angle_alpha   91.69648976
_cell_angle_beta   101.10467135
_cell_angle_gamma   76.95590099
_symmetry_Int_Tables_number   1
_chemical_formula_structural   MgTi(CoO3)2
_chemical_formula_sum   'Mg1 Ti1 Co2 O6'
_cell_volume   110.73215341
_cell_formula_units_Z   1
loop_
 _symmetry_equiv_pos_site_id
 _symmetry_equiv_pos_as_xyz
  1  'x, y, z'
loop_
 _atom_site_type_symbol
 _atom_site_label
 _atom_site_symmetry_multiplicity
 _atom_site_fract_x
 _atom_site_fract_y
 _atom_site_fract_z
 _atom_site_occupancy
  Mg  Mg0  1  0.33199000  0.31529000  0.83258400  1
  Ti  Ti0  1  0.33313900  0.40908900  0.33181100  1
  Co  Co0  1  0.95621100  0.02644900  0.02921300  1
  Co  Co1  1  0.70925800  0.61907000  0.64172700  1
  O  O0  1  0.02474200  0.44894000  0.24966000  1
  O  O1  1  0.33347200  0.82647400  0.57179500  1
  O  O2  1  0.66063300  0.13661200  0.86014600  1
  O  O3  1  0.33168600  0.82415100  0.09869800  1
  O  O4  1  0.64000900  0.18226800  0.42145200  1
  O  O5  1  0.00435400  0.51261800  0.80983200  1
loop_
_geom_bond_atom_site_label_1
_geom_bond_atom_site_label_2
_geom_bond_distance
_geom_bond_site_symmetry_2
Mg0 O5 2.043522 1_555
Mg0 O2 2.044026 1_555
Mg0 O1 2.109213 1_545
Mg0 O3 2.172515 1_556
Mg0 O3 2.201737 1_546
Mg0 O1 2.221974 1_555
Co0 O0 1.862069 1_655
Co0 O2 1.943613 1_554
Co0 O5 2.001873 1_644
Co0 O5 2.100751 1_654
Co0 O0 2.117152 1_645
Co0 O3 2.320859 1_645
Co1 O4 1.893058 1_555
Co1 O5 1.939469 1_655
Co1 O2 2.006241 1_565
Co1 O4 2.082816 1_565
Co1 O2 2.089958 1_555
Co1 O1 2.323228 1_555
O0 Ti0 1.935258 1_555
O1 Ti0 1.877803 1_555
O1 Ti0 2.290247 1_565
O3 Ti0 1.894755 1_555
O3 Ti0 2.205369 1_565
O4 Ti0 1.919076 1_555
