# generated using pymatgen
data_Na3Ca4Nb8P15(SO24)3
_symmetry_space_group_name_H-M   'P 1'
_cell_length_a   8.91682093
_cell_length_b   8.91075675
_cell_length_c   23.04980167
_cell_angle_alpha   90.18519555
_cell_angle_beta   89.88170953
_cell_angle_gamma   119.85207714
_symmetry_Int_Tables_number   1
_chemical_formula_structural   Na3Ca4Nb8P15(SO24)3
_chemical_formula_sum   'Na3 Ca4 Nb8 P15 S3 O72'
_cell_volume   1588.42073460
_cell_formula_units_Z   1
loop_
 _symmetry_equiv_pos_site_id
 _symmetry_equiv_pos_as_xyz
  1  'x, y, z'
loop_
 _atom_site_type_symbol
 _atom_site_label
 _atom_site_symmetry_multiplicity
 _atom_site_fract_x
 _atom_site_fract_y
 _atom_site_fract_z
 _atom_site_occupancy
  Na  Na0  1  0.99808969  0.99088344  0.99050561  1
  Na  Na1  1  0.65751625  0.33131517  0.84238929  1
  Na  Na2  1  0.65578018  0.33513746  0.34012304  1
  Ca  Ca0  1  0.99797445  0.99389153  0.85424732  1
  Ca  Ca1  1  0.66095433  0.33155514  0.97791818  1
  Ca  Ca2  1  0.66440390  0.33301827  0.48507871  1
  Ca  Ca3  1  0.33414243  0.66504600  0.30109201  1
  Nb  Nb0  1  0.00412311  0.00650434  0.35652519  1
  Nb  Nb1  1  0.00268905  0.99996994  0.65083426  1
  Nb  Nb2  1  0.00039196  0.99933819  0.14649702  1
  Nb  Nb3  1  0.66462784  0.33187493  0.68138262  1
  Nb  Nb4  1  0.66707895  0.33542518  0.18582356  1
  Nb  Nb5  1  0.34097340  0.67398923  0.02538317  1
  Nb  Nb6  1  0.33156247  0.65626611  0.52330635  1
  Nb  Nb7  1  0.34076615  0.67474333  0.80781165  1
  P  P0  1  0.29227960  0.02157695  0.24968549  1
  P  P1  1  0.73057520  0.71106260  0.25005878  1
  P  P2  1  0.97777835  0.27124980  0.24966080  1
  P  P3  1  0.29796390  0.29223608  0.75137127  1
  P  P4  1  0.99287972  0.69897128  0.75044821  1
  P  P5  1  0.71082491  0.00964402  0.75073763  1
  P  P6  1  0.96067729  0.32668186  0.58268817  1
  P  P7  1  0.36725909  0.03442868  0.58234736  1
  P  P8  1  0.67258092  0.63375742  0.58304887  1
  P  P9  1  0.95878788  0.62502880  0.08292524  1
  P  P10  1  0.67057731  0.04429450  0.08353912  1
  P  P11  1  0.37268849  0.33252409  0.08376899  1
  P  P12  1  0.61317768  0.66698200  0.91657343  1
  P  P13  1  0.33266839  0.94634861  0.91688451  1
  P  P14  1  0.33064082  0.37651556  0.41388327  1
  S  S0  1  0.05783968  0.39091153  0.91653397  1
  S  S1  1  0.62570351  0.95044966  0.41534229  1
  S  S2  1  0.04936239  0.67553228  0.41539105  1
  O  O0  1  0.20226162  0.04656261  0.30539446  1
  O  O1  1  0.84384652  0.79837668  0.30505730  1
  O  O2  1  0.95346773  0.15737652  0.30527923  1
  O  O3  1  0.24116859  0.18570805  0.80527122  1
  O  O4  1  0.94139453  0.75397233  0.80462827  1
  O  O5  1  0.81397035  0.05612894  0.80531997  1
  O  O6  1  0.80357172  0.97710086  0.69912049  1
  O  O7  1  0.17388633  0.19753350  0.69929628  1
  O  O8  1  0.02505145  0.82596838  0.69914570  1
  O  O9  1  0.83058004  0.81675007  0.19582333  1
  O  O10  1  0.98695319  0.17067084  0.19620492  1
  O  O11  1  0.18393873  0.01205797  0.19608006  1
  O  O12  1  0.86777811  0.36384291  0.63369722  1
  O  O13  1  0.49664300  0.12851604  0.63384858  1
  O  O14  1  0.63291254  0.50317843  0.63389835  1
  O  O15  1  0.86443282  0.50293791  0.13678406  1
  O  O16  1  0.63930463  0.13646191  0.13692078  1
  O  O17  1  0.49716862  0.36284345  0.13706197  1
  O  O18  1  0.43004489  0.27930483  0.03059964  1
  O  O19  1  0.84824834  0.56522101  0.02999103  1
  O  O20  1  0.71796908  0.15143876  0.03001114  1
  O  O21  1  0.42260946  0.14214011  0.52909993  1
  O  O22  1  0.72175602  0.57872254  0.52883646  1
  O  O23  1  0.85856317  0.28030105  0.52824879  1
  O  O24  1  0.50402484  0.65792478  0.97268478  1
  O  O25  1  0.15101467  0.48788884  0.97068146  1
  O  O26  1  0.33745615  0.84340213  0.97275457  1
  O  O27  1  0.54011484  0.84500640  0.46917751  1
  O  O28  1  0.31019170  0.47158636  0.47121685  1
  O  O29  1  0.15502049  0.69525172  0.46951674  1
  O  O30  1  0.13069229  0.65520196  0.36408486  1
  O  O31  1  0.52292795  0.87311330  0.36404186  1
  O  O32  1  0.34955333  0.48409035  0.36237185  1
  O  O33  1  0.15501681  0.48407232  0.86266799  1
  O  O34  1  0.32327502  0.83655759  0.86073490  1
  O  O35  1  0.50990385  0.67197406  0.86070047  1
  O  O36  1  0.04403145  0.84409198  0.41026590  1
  O  O37  1  0.79751672  0.95150591  0.40939827  1
  O  O38  1  0.15099022  0.19703969  0.40765993  1
  O  O39  1  0.04873960  0.22264089  0.91931455  1
  O  O40  1  0.16744981  0.95347469  0.92150263  1
  O  O41  1  0.78146692  0.83577786  0.92116666  1
  O  O42  1  0.99859036  0.18308826  0.60288274  1
  O  O43  1  0.18654385  0.00090558  0.60326545  1
  O  O44  1  0.81700536  0.81433277  0.60345815  1
  O  O45  1  0.99882856  0.81334343  0.09789225  1
  O  O46  1  0.81651641  0.00211541  0.09794518  1
  O  O47  1  0.18575037  0.18451705  0.09893690  1
  O  O48  1  0.67478845  0.15843920  0.73305766  1
  O  O49  1  0.48219329  0.32506520  0.73282367  1
  O  O50  1  0.84142386  0.51608626  0.73167065  1
  O  O51  1  0.71785115  0.52897368  0.24234914  1
  O  O52  1  0.80785925  0.28073302  0.24267988  1
  O  O53  1  0.47108840  0.19109483  0.24265562  1
  O  O54  1  0.61991673  0.50156422  0.91177657  1
  O  O55  1  0.89003058  0.38212185  0.91387034  1
  O  O56  1  0.50154873  0.11419591  0.91214866  1
  O  O57  1  0.66543570  0.12951474  0.42194617  1
  O  O58  1  0.47379197  0.33486523  0.42103828  1
  O  O59  1  0.87252693  0.53253492  0.42154109  1
  O  O60  1  0.35863468  0.49842001  0.07640564  1
  O  O61  1  0.13834949  0.63784978  0.07549612  1
  O  O62  1  0.50346829  0.86258545  0.07678033  1
  O  O63  1  0.35312071  0.85405510  0.57188125  1
  O  O64  1  0.50442303  0.64828732  0.57319807  1
  O  O65  1  0.14290978  0.49613585  0.57331785  1
  O  O66  1  0.30925823  0.86447556  0.25249293  1
  O  O67  1  0.55709899  0.69561792  0.25097643  1
  O  O68  1  0.13351242  0.44572042  0.25158745  1
  O  O69  1  0.31410273  0.47370554  0.75850027  1
  O  O70  1  0.15733471  0.68163880  0.75750973  1
  O  O71  1  0.52718362  0.84381218  0.75721416  1
loop_
_geom_bond_atom_site_label_1
_geom_bond_atom_site_label_2
_geom_bond_distance
_geom_bond_site_symmetry_2
Na0 O40 2.325765 1_655
Na0 O41 2.352956 1_555
Na0 O39 2.500354 1_665
Na1 O54 2.336716 1_555
Na1 O56 2.365361 1_555
Na1 O55 2.508586 1_555
Na2 O58 2.468903 1_555
Na2 O59 2.638267 1_555
Na2 O57 2.664891 1_555
Na2 O53 2.701692 1_555
Na2 O51 2.727084 1_555
Na2 O52 2.784507 1_555
Ca0 O4 2.246304 1_555
Ca0 O5 2.277927 1_565
Ca0 O3 2.282715 1_665
Ca0 O40 2.317682 1_655
Ca0 O41 2.320617 1_555
Ca0 O39 2.381921 1_665
Ca1 O18 2.229274 1_556
Ca1 O19 2.257309 1_556
Ca1 O20 2.259079 1_556
Ca1 O56 2.306317 1_555
Ca1 O54 2.306990 1_555
Ca1 O55 2.372844 1_555
Ca2 O21 2.218654 1_555
Ca2 O22 2.223857 1_555
Ca2 O23 2.242303 1_555
Ca2 O58 2.259730 1_555
Ca2 O57 2.324968 1_555
Ca2 O59 2.338934 1_555
Ca3 O67 2.194169 1_555
Ca3 O68 2.198945 1_555
Ca3 O32 2.202298 1_555
Ca3 O66 2.206466 1_555
Ca3 O30 2.288779 1_555
Ca3 O31 2.293940 1_555
Nb0 O38 1.940811 1_555
Nb0 O0 2.001040 1_555
Nb0 O2 2.005900 1_455
Nb0 O37 2.053091 1_445
Nb0 O1 2.059967 1_445
Nb0 O36 2.069199 1_545
Nb1 O43 1.966962 1_565
Nb1 O44 1.984780 1_455
Nb1 O42 1.989140 1_465
Nb1 O7 1.999055 1_565
Nb1 O8 2.000916 1_555
Nb1 O6 2.016373 1_455
Nb2 O9 1.945471 1_455
Nb2 O11 1.954448 1_565
Nb2 O10 1.956578 1_465
Nb2 O47 1.986319 1_565
Nb2 O45 1.991787 1_455
Nb2 O46 1.997351 1_465
Nb3 O50 1.985530 1_555
Nb3 O49 1.987482 1_555
Nb3 O48 1.991748 1_555
Nb3 O13 2.004883 1_555
Nb3 O14 2.012403 1_555
Nb3 O12 2.012641 1_555
Nb4 O15 1.997556 1_555
Nb4 O17 1.998914 1_555
Nb4 O16 2.006553 1_555
Nb4 O51 2.021778 1_555
Nb4 O52 2.037341 1_555
Nb4 O53 2.046486 1_555
Nb5 O24 1.951552 1_554
Nb5 O26 1.952064 1_554
Nb5 O62 1.974144 1_555
Nb5 O60 2.028142 1_555
Nb5 O61 2.029012 1_555
Nb5 O25 2.099471 1_554
Nb6 O65 1.951324 1_555
Nb6 O64 1.954558 1_555
Nb6 O28 1.965193 1_555
Nb6 O63 2.011872 1_555
Nb6 O29 2.165924 1_555
Nb6 O27 2.175730 1_555
Nb7 O34 1.950172 1_555
Nb7 O35 1.950941 1_555
Nb7 O71 1.975654 1_555
Nb7 O69 2.030144 1_555
Nb7 O70 2.032660 1_555
Nb7 O33 2.105355 1_555
O0 P0 1.585725 1_555
O1 P1 1.564976 1_555
O2 P2 1.583792 1_555
O3 P3 1.492483 1_555
O4 P4 1.492724 1_555
O5 P5 1.490795 1_555
O6 P5 1.554356 1_565
O7 P3 1.564106 1_555
O8 P4 1.563749 1_455
O9 P1 1.553012 1_555
O10 P2 1.547112 1_555
O11 P0 1.545907 1_555
O12 P6 1.563572 1_555
O13 P7 1.574611 1_555
O14 P8 1.565282 1_555
O15 P9 1.589275 1_555
O16 P10 1.576794 1_555
O17 P11 1.587109 1_555
O18 P11 1.491146 1_555
O19 P9 1.490660 1_555
O20 P10 1.488689 1_555
O21 P7 1.484819 1_555
O22 P8 1.483939 1_555
O23 P6 1.483637 1_555
O24 P12 1.594950 1_555
O25 S0 1.509075 1_555
O26 P13 1.596428 1_555
O27 S1 1.514870 1_555
O28 P14 1.625699 1_555
O29 S2 1.521050 1_555
O30 S2 1.443308 1_555
O31 S1 1.443419 1_555
O32 P14 1.484133 1_555
O33 S0 1.505873 1_555
O34 P13 1.596829 1_555
O35 P12 1.598318 1_555
O36 S2 1.531160 1_555
O37 S1 1.533217 1_555
O38 P14 1.610403 1_555
O39 S0 1.462335 1_555
O40 P13 1.509368 1_555
O41 P12 1.509307 1_555
O42 P6 1.550251 1_555
O43 P7 1.561044 1_555
O44 P8 1.550340 1_555
O45 P9 1.569265 1_555
O46 P10 1.560268 1_555
O47 P11 1.565939 1_555
O48 P5 1.566987 1_555
O49 P3 1.576847 1_555
O50 P4 1.572830 1_555
O51 P1 1.578630 1_555
O52 P2 1.567556 1_555
O53 P0 1.566201 1_555
O54 P12 1.508510 1_555
O55 S0 1.460330 1_655
O56 P13 1.508222 1_545
O57 S1 1.459633 1_545
O58 P14 1.505708 1_555
O59 S2 1.459483 1_655
O60 P11 1.554312 1_555
O61 P9 1.556551 1_455
O62 P10 1.569632 1_565
O63 P7 1.566299 1_565
O64 P8 1.584766 1_555
O65 P6 1.589056 1_455
O66 P0 1.482707 1_565
O67 P1 1.483275 1_555
O68 P2 1.482529 1_455
O69 P3 1.558595 1_555
O70 P4 1.557991 1_455
O71 P5 1.574413 1_565
