# generated using pymatgen
data_DySi3Rh5
_symmetry_space_group_name_H-M   'P 1'
_cell_length_a   15.65155008
_cell_length_b   15.65155008
_cell_length_c   3.88198600
_cell_angle_alpha   90.00000000
_cell_angle_beta   90.00000000
_cell_angle_gamma   120.00000033
_symmetry_Int_Tables_number   1
_chemical_formula_structural   DySi3Rh5
_chemical_formula_sum   'Dy6 Si18 Rh30'
_cell_volume   823.56769982
_cell_formula_units_Z   6
loop_
 _symmetry_equiv_pos_site_id
 _symmetry_equiv_pos_as_xyz
  1  'x, y, z'
loop_
 _atom_site_type_symbol
 _atom_site_label
 _atom_site_symmetry_multiplicity
 _atom_site_fract_x
 _atom_site_fract_y
 _atom_site_fract_z
 _atom_site_occupancy
  Dy  Dy0  1  0.60610700  0.89972000  0.25000000  1
  Dy  Dy1  1  0.70638700  0.60610700  0.75000000  1
  Dy  Dy2  1  0.89972000  0.29361300  0.75000000  1
  Dy  Dy3  1  0.10028000  0.70638700  0.25000000  1
  Dy  Dy4  1  0.29361300  0.39389300  0.25000000  1
  Dy  Dy5  1  0.39389300  0.10028000  0.75000000  1
  Si  Si0  1  0.44163600  0.76018300  0.75000000  1
  Si  Si1  1  0.68145300  0.44163600  0.25000000  1
  Si  Si2  1  0.76018300  0.31854700  0.25000000  1
  Si  Si3  1  0.23981700  0.68145300  0.75000000  1
  Si  Si4  1  0.31854700  0.55836400  0.75000000  1
  Si  Si5  1  0.55836400  0.23981700  0.25000000  1
  Si  Si6  1  0.88000800  0.13025000  0.25000000  1
  Si  Si7  1  0.11999200  0.86975000  0.75000000  1
  Si  Si8  1  0.13025000  0.25024300  0.75000000  1
  Si  Si9  1  0.25024300  0.11999200  0.25000000  1
  Si  Si10  1  0.37085800  0.93810600  0.25000000  1
  Si  Si11  1  0.43275200  0.37085800  0.75000000  1
  Si  Si12  1  0.93810600  0.56724800  0.75000000  1
  Si  Si13  1  0.06189400  0.43275200  0.25000000  1
  Si  Si14  1  0.56724800  0.62914200  0.25000000  1
  Si  Si15  1  0.62914200  0.06189400  0.75000000  1
  Si  Si16  1  0.74975700  0.88000800  0.75000000  1
  Si  Si17  1  0.86975000  0.74975700  0.25000000  1
  Rh  Rh0  1  0.46373300  0.92487600  0.75000000  1
  Rh  Rh1  1  0.15323100  0.41442300  0.75000000  1
  Rh  Rh2  1  0.26119100  0.84676900  0.75000000  1
  Rh  Rh3  1  0.73880900  0.15323100  0.25000000  1
  Rh  Rh4  1  0.84676900  0.58557700  0.25000000  1
  Rh  Rh5  1  0.41442300  0.26119100  0.25000000  1
  Rh  Rh6  1  0.65210200  0.22336800  0.75000000  1
  Rh  Rh7  1  0.42873400  0.65210200  0.25000000  1
  Rh  Rh8  1  0.22336800  0.57126600  0.25000000  1
  Rh  Rh9  1  0.77663200  0.42873400  0.75000000  1
  Rh  Rh10  1  0.57126600  0.34789800  0.75000000  1
  Rh  Rh11  1  0.34789800  0.77663200  0.25000000  1
  Rh  Rh12  1  0.14313700  0.02953100  0.75000000  1
  Rh  Rh13  1  0.11360600  0.14313700  0.25000000  1
  Rh  Rh14  1  0.02953100  0.88639400  0.25000000  1
  Rh  Rh15  1  0.97046900  0.11360600  0.75000000  1
  Rh  Rh16  1  0.88639400  0.85686300  0.75000000  1
  Rh  Rh17  1  0.85686300  0.97046900  0.25000000  1
  Rh  Rh18  1  0.92487600  0.46114200  0.25000000  1
  Rh  Rh19  1  0.07512400  0.53885800  0.75000000  1
  Rh  Rh20  1  0.46114200  0.53626700  0.75000000  1
  Rh  Rh21  1  0.53626700  0.07512400  0.25000000  1
  Rh  Rh22  1  0.72867000  0.77194500  0.25000000  1
  Rh  Rh23  1  0.95672500  0.72867000  0.75000000  1
  Rh  Rh24  1  0.77194500  0.04327500  0.75000000  1
  Rh  Rh25  1  0.22805500  0.95672500  0.25000000  1
  Rh  Rh26  1  0.04327500  0.27133000  0.25000000  1
  Rh  Rh27  1  0.27133000  0.22805500  0.75000000  1
  Rh  Rh28  1  0.58557700  0.73880900  0.75000000  1
  Rh  Rh29  1  0.53885800  0.46373300  0.25000000  1
loop_
_geom_bond_atom_site_label_1
_geom_bond_atom_site_label_2
_geom_bond_distance
_geom_bond_site_symmetry_2
Dy0 Rh28 3.066646 1_555
Dy0 Rh28 3.066646 1_554
Dy0 Si15 3.070040 1_565
Dy0 Si15 3.070040 1_564
Dy0 Si0 3.088978 1_554
Dy0 Si0 3.088978 1_555
Dy0 Si16 3.100220 1_555
Dy0 Si16 3.100220 1_554
Dy0 Rh24 3.117865 1_565
Dy0 Rh24 3.117865 1_564
Dy0 Rh0 3.124981 1_555
Dy0 Rh0 3.124981 1_554
Dy1 Rh4 3.066658 1_555
Dy1 Rh4 3.066658 1_556
Dy1 Si14 3.070040 1_555
Dy1 Si14 3.070040 1_556
Dy1 Si1 3.088978 1_555
Dy1 Si1 3.088978 1_556
Dy1 Si17 3.100227 1_556
Dy1 Si17 3.100227 1_555
Dy1 Rh22 3.117865 1_555
Dy1 Rh22 3.117865 1_556
Dy1 Rh29 3.124973 1_555
Dy1 Rh29 3.124973 1_556
Dy2 Rh3 3.066651 1_556
Dy2 Rh3 3.066651 1_555
Dy2 Si13 3.070040 1_656
Dy2 Si13 3.070040 1_655
Dy2 Si2 3.088978 1_555
Dy2 Si2 3.088978 1_556
Dy2 Si6 3.100232 1_555
Dy2 Si6 3.100232 1_556
Dy2 Rh26 3.117865 1_655
Dy2 Rh26 3.117865 1_656
Dy2 Rh18 3.124969 1_556
Dy2 Rh18 3.124969 1_555
Dy3 Rh2 3.066651 1_555
Dy3 Rh2 3.066651 1_554
Dy3 Si12 3.070040 1_454
Dy3 Si12 3.070040 1_455
Dy3 Si3 3.088978 1_554
Dy3 Si3 3.088978 1_555
Dy3 Si7 3.100232 1_555
Dy3 Si7 3.100232 1_554
Dy3 Rh23 3.117865 1_454
Dy3 Rh23 3.117865 1_455
Dy3 Rh19 3.124969 1_555
Dy3 Rh19 3.124969 1_554
Dy4 Rh1 3.066658 1_555
Dy4 Rh1 3.066658 1_554
Dy4 Si11 3.070040 1_555
Dy4 Si11 3.070040 1_554
Dy4 Si4 3.088978 1_554
Dy4 Si4 3.088978 1_555
Dy4 Si8 3.100227 1_555
Dy4 Si8 3.100227 1_554
Dy4 Rh27 3.117865 1_555
Dy4 Rh27 3.117865 1_554
Dy4 Rh20 3.124973 1_555
Dy4 Rh20 3.124973 1_554
Dy5 Rh5 3.066646 1_555
Dy5 Rh5 3.066646 1_556
Dy5 Si10 3.070040 1_545
Dy5 Si10 3.070040 1_546
Dy5 Si5 3.088978 1_555
Dy5 Si5 3.088978 1_556
Dy5 Si9 3.100220 1_555
Dy5 Si9 3.100220 1_556
Dy5 Rh25 3.117865 1_546
Dy5 Rh25 3.117865 1_545
Dy5 Rh21 3.124981 1_555
Dy5 Rh21 3.124981 1_556
Rh0 Si15 2.397808 1_565
Rh0 Si0 2.423355 1_555
Rh0 Si10 2.494875 1_555
Rh0 Si10 2.494875 1_556
Rh1 Si8 2.410043 1_555
Rh1 Si4 2.437456 1_555
Rh1 Si13 2.510681 1_555
Rh1 Si13 2.510681 1_556
Rh2 Si7 2.410043 1_555
Rh2 Si3 2.437463 1_555
Rh2 Si10 2.510687 1_555
Rh2 Si10 2.510687 1_556
Rh3 Si6 2.410043 1_555
Rh3 Si2 2.437463 1_555
Rh3 Si15 2.510687 1_554
Rh3 Si15 2.510687 1_555
Rh4 Si17 2.410043 1_555
Rh4 Si1 2.437456 1_555
Rh4 Si12 2.510681 1_554
Rh4 Si12 2.510681 1_555
Rh5 Si9 2.410043 1_555
Rh5 Si5 2.437447 1_555
Rh5 Si11 2.510691 1_554
Rh5 Si11 2.510691 1_555
Rh6 Si15 2.368177 1_555
Rh6 Si2 2.515603 1_556
Rh6 Si2 2.515603 1_555
Rh6 Si5 2.522691 1_555
Rh6 Si5 2.522691 1_556
Rh7 Si14 2.368177 1_555
Rh7 Si0 2.515603 1_554
Rh7 Si0 2.515603 1_555
Rh7 Si4 2.522691 1_555
Rh7 Si4 2.522691 1_554
Rh8 Si13 2.368177 1_555
Rh8 Si4 2.515603 1_554
Rh8 Si4 2.515603 1_555
Rh8 Si3 2.522691 1_554
Rh8 Si3 2.522691 1_555
Rh9 Si12 2.368177 1_555
Rh9 Si1 2.515603 1_555
Rh9 Si1 2.515603 1_556
Rh9 Si2 2.522691 1_555
Rh9 Si2 2.522691 1_556
Rh10 Si11 2.368177 1_555
Rh10 Si5 2.515603 1_555
Rh10 Si5 2.515603 1_556
Rh10 Si1 2.522691 1_555
Rh10 Si1 2.522691 1_556
Rh11 Si10 2.368177 1_555
Rh11 Si3 2.515603 1_555
Rh11 Si3 2.515603 1_554
Rh11 Si0 2.522691 1_555
Rh11 Si0 2.522691 1_554
Rh12 Si7 2.340811 1_545
Rh12 Si9 2.491752 1_556
Rh12 Si9 2.491752 1_555
Rh13 Si9 2.340827 1_555
Rh13 Si8 2.491756 1_554
Rh13 Si8 2.491756 1_555
Rh14 Si17 2.340817 1_455
Rh14 Si7 2.491746 1_555
Rh14 Si7 2.491746 1_554
Rh15 Si8 2.340817 1_655
Rh15 Si6 2.491746 1_556
Rh15 Si6 2.491746 1_555
Rh16 Si16 2.340827 1_555
Rh16 Si17 2.491756 1_555
Rh16 Si17 2.491756 1_556
Rh17 Si6 2.340811 1_565
Rh17 Si16 2.491752 1_555
Rh17 Si16 2.491752 1_554
Rh18 Si13 2.397798 1_655
Rh18 Si2 2.423349 1_555
Rh18 Si12 2.494884 1_554
Rh18 Si12 2.494884 1_555
Rh19 Si12 2.397798 1_455
Rh19 Si3 2.423349 1_555
Rh19 Si13 2.494884 1_555
Rh19 Si13 2.494884 1_556
Rh20 Si11 2.397814 1_555
Rh20 Si4 2.423340 1_555
Rh20 Si14 2.494880 1_555
Rh20 Si14 2.494880 1_556
Rh21 Si10 2.397808 1_545
Rh21 Si5 2.423355 1_555
Rh21 Si15 2.494875 1_554
Rh21 Si15 2.494875 1_555
Rh22 Si14 2.394135 1_555
Rh22 Si17 2.400672 1_555
Rh22 Si16 2.485727 1_554
Rh22 Si16 2.485727 1_555
Rh23 Si12 2.394135 1_555
Rh23 Si7 2.400663 1_655
Rh23 Si17 2.485717 1_556
Rh23 Si17 2.485717 1_555
Rh24 Si15 2.394135 1_555
Rh24 Si16 2.400657 1_545
Rh24 Si6 2.485724 1_555
Rh24 Si6 2.485724 1_556
Rh25 Si10 2.394135 1_555
Rh25 Si9 2.400657 1_565
Rh25 Si7 2.485724 1_555
Rh25 Si7 2.485724 1_554
Rh26 Si13 2.394135 1_555
Rh26 Si6 2.400663 1_455
Rh26 Si8 2.485717 1_555
Rh26 Si8 2.485717 1_554
Rh27 Si11 2.394135 1_555
Rh27 Si8 2.400672 1_555
Rh27 Si9 2.485727 1_555
Rh27 Si9 2.485727 1_556
Rh28 Si16 2.410043 1_555
Rh28 Si0 2.437447 1_555
Rh28 Si14 2.510691 1_555
Rh28 Si14 2.510691 1_556
Rh29 Si14 2.397814 1_555
Rh29 Si1 2.423340 1_555
Rh29 Si11 2.494880 1_554
Rh29 Si11 2.494880 1_555
