# generated using pymatgen
data_La4MgMnO8
_symmetry_space_group_name_H-M   'P 1'
_cell_length_a   5.27897275
_cell_length_b   8.67529162
_cell_length_c   5.19474277
_cell_angle_alpha   89.95928572
_cell_angle_beta   89.99719723
_cell_angle_gamma   107.71564244
_symmetry_Int_Tables_number   1
_chemical_formula_structural   La4MgMnO8
_chemical_formula_sum   'La4 Mg1 Mn1 O8'
_cell_volume   226.61996690
_cell_formula_units_Z   1
loop_
 _symmetry_equiv_pos_site_id
 _symmetry_equiv_pos_as_xyz
  1  'x, y, z'
loop_
 _atom_site_type_symbol
 _atom_site_label
 _atom_site_symmetry_multiplicity
 _atom_site_fract_x
 _atom_site_fract_y
 _atom_site_fract_z
 _atom_site_occupancy
  La  La0  1  0.18069339  0.36105097  0.49895006  1
  La  La1  1  0.60631768  0.21261093  -0.00030183  1
  La  La2  1  0.39374201  0.78753430  0.99954673  1
  La  La3  1  0.81929949  0.63890860  0.49911099  1
  Mg  Mg0  1  -0.00005997  -0.00002581  0.50032495  1
  Mn  Mn0  1  0.00009366  0.00014684  0.00033313  1
  O  O0  1  0.26064587  0.00003964  0.24342958  1
  O  O1  1  0.26081704  0.00065719  0.75722327  1
  O  O2  1  0.73907239  -0.00060327  0.24339574  1
  O  O3  1  0.73951774  0.00001476  0.75728478  1
  O  O4  1  0.15372247  0.30742677  0.00119569  1
  O  O5  1  0.68605383  0.37102460  0.49964447  1
  O  O6  1  0.31382084  0.62882638  0.49962108  1
  O  O7  1  0.84626155  0.69238711  0.00024137  1
loop_
_geom_bond_atom_site_label_1
_geom_bond_atom_site_label_2
_geom_bond_distance
_geom_bond_site_symmetry_2
La0 O6 2.212877 1_555
La0 O4 2.623738 1_555
La0 O5 2.638807 1_455
La0 O5 2.642744 1_555
La0 O4 2.646071 1_556
La1 O1 2.501338 1_554
La1 O3 2.504843 1_554
La1 O0 2.506429 1_555
La1 O2 2.510136 1_555
La1 O4 2.753298 1_655
La1 O4 2.753391 1_555
La1 O5 2.907988 1_554
La1 O5 2.909271 1_555
La2 O3 2.502457 1_565
La2 O2 2.504084 1_566
La2 O1 2.506349 1_565
La2 O0 2.507770 1_566
La2 O7 2.753611 1_456
La2 O7 2.754617 1_556
La2 O6 2.909178 1_556
La2 O6 2.910272 1_555
La3 O5 2.213768 1_555
La3 O7 2.628581 1_555
La3 O6 2.638497 1_655
La3 O7 2.640822 1_556
La3 O6 2.643107 1_555
Mg0 O3 1.916216 1_455
Mg0 O1 1.916450 1_555
Mg0 O2 1.916724 1_455
Mg0 O0 1.916856 1_555
Mn0 O1 1.866916 1_554
Mn0 O3 1.866951 1_454
Mn0 O2 1.867447 1_455
Mn0 O0 1.867492 1_555
Mn0 O4 2.539337 1_555
Mn0 O7 2.543295 1_445
