# generated using pymatgen
data_La2Mg(CuO3)2
_symmetry_space_group_name_H-M   'P 1'
_cell_length_a   6.17205163
_cell_length_b   6.17205100
_cell_length_c   6.17205094
_cell_angle_alpha   56.21869100
_cell_angle_beta   56.21869212
_cell_angle_gamma   56.21869568
_symmetry_Int_Tables_number   1
_chemical_formula_structural   La2Mg(CuO3)2
_chemical_formula_sum   'La2 Mg1 Cu2 O6'
_cell_volume   151.70488899
_cell_formula_units_Z   1
loop_
 _symmetry_equiv_pos_site_id
 _symmetry_equiv_pos_as_xyz
  1  'x, y, z'
loop_
 _atom_site_type_symbol
 _atom_site_label
 _atom_site_symmetry_multiplicity
 _atom_site_fract_x
 _atom_site_fract_y
 _atom_site_fract_z
 _atom_site_occupancy
  La  La0  1  0.72328117  0.72328117  0.72328117  1
  La  La1  1  0.30600938  0.30600937  0.30600937  1
  Mg  Mg0  1  0.08516630  0.08516630  0.08516630  1
  Cu  Cu0  1  0.51398295  0.51398295  0.51398295  1
  Cu  Cu1  1  0.91982836  0.91982836  0.91982836  1
  O  O0  1  0.16788046  0.73072154  0.38033219  1
  O  O1  1  0.73072154  0.38033219  0.16788046  1
  O  O2  1  0.38033219  0.16788046  0.73072154  1
  O  O3  1  0.85325781  0.29196188  0.64662597  1
  O  O4  1  0.64662597  0.85325781  0.29196188  1
  O  O5  1  0.29196188  0.64662597  0.85325781  1
loop_
_geom_bond_atom_site_label_1
_geom_bond_atom_site_label_2
_geom_bond_distance
_geom_bond_site_symmetry_2
La0 O1 2.363335 1_556
La0 O2 2.363335 1_565
La0 O0 2.363335 1_655
La0 O4 2.560851 1_555
La0 O3 2.560851 1_555
La0 O5 2.560851 1_555
La1 O5 2.402018 1_554
La1 O4 2.402018 1_545
La1 O3 2.402018 1_455
La1 O2 2.495156 1_555
La1 O0 2.495157 1_555
La1 O1 2.495157 1_555
Mg0 O0 1.930189 1_545
Mg0 O2 1.930190 1_554
Mg0 O1 1.930190 1_455
Cu0 O4 2.097809 1_555
Cu0 O5 2.097809 1_555
Cu0 O3 2.097809 1_555
Cu0 O2 2.141915 1_555
Cu0 O1 2.141915 1_555
Cu0 O0 2.141915 1_555
Cu1 O3 1.923970 1_565
Cu1 O4 1.923970 1_556
Cu1 O5 1.923970 1_655
