# generated using pymatgen
data_Be4B
_symmetry_space_group_name_H-M   'P 1'
_cell_length_a   3.35699684
_cell_length_b   3.35699684
_cell_length_c   7.00653647
_cell_angle_alpha   90.00000000
_cell_angle_beta   90.00000000
_cell_angle_gamma   90.00000000
_symmetry_Int_Tables_number   1
_chemical_formula_structural   Be4B
_chemical_formula_sum   'Be8 B2'
_cell_volume   78.95965676
_cell_formula_units_Z   2
loop_
 _symmetry_equiv_pos_site_id
 _symmetry_equiv_pos_as_xyz
  1  'x, y, z'
loop_
 _atom_site_type_symbol
 _atom_site_label
 _atom_site_symmetry_multiplicity
 _atom_site_fract_x
 _atom_site_fract_y
 _atom_site_fract_z
 _atom_site_occupancy
  Be  Be0  1  0.75000000  0.25000000  -0.00000000  1
  Be  Be1  1  0.25000000  0.75000000  0.00000000  1
  Be  Be2  1  0.25000000  0.25000000  0.48021616  1
  Be  Be3  1  0.75000000  0.75000000  0.51978384  1
  Be  Be4  1  0.25000000  0.75000000  0.30496143  1
  Be  Be5  1  0.75000000  0.25000000  0.30496143  1
  Be  Be6  1  0.75000000  0.25000000  0.69503857  1
  Be  Be7  1  0.25000000  0.75000000  0.69503857  1
  B  B0  1  0.75000000  0.75000000  0.83049113  1
  B  B1  1  0.25000000  0.25000000  0.16950887  1
loop_
_geom_bond_atom_site_label_1
_geom_bond_atom_site_label_2
_geom_bond_distance
_geom_bond_site_symmetry_2
Be2 Be5 2.079703 1_555
Be2 Be4 2.079703 1_545
Be2 Be5 2.079703 1_455
Be2 Be4 2.079703 1_555
Be2 Be7 2.254521 1_545
Be2 Be7 2.254521 1_555
Be2 Be6 2.254521 1_455
Be2 Be6 2.254521 1_555
Be2 Be3 2.389889 1_555
Be2 Be3 2.389889 1_445
Be2 Be3 2.389889 1_545
Be2 Be3 2.389889 1_455
Be3 Be7 2.079703 1_655
Be3 Be7 2.079703 1_555
Be3 Be6 2.079703 1_555
Be3 Be6 2.079703 1_565
Be3 Be4 2.254521 1_555
Be3 Be5 2.254521 1_565
Be3 Be4 2.254521 1_655
Be3 Be5 2.254521 1_555
B0 Be7 1.928227 1_555
B0 Be6 1.928227 1_565
B0 Be6 1.928227 1_555
B0 Be7 1.928227 1_655
B0 Be0 2.056190 1_556
B0 Be1 2.056190 1_556
B0 Be1 2.056190 1_656
B0 Be0 2.056190 1_566
B0 Be3 2.176982 1_555
B1 Be5 1.928227 1_555
B1 Be4 1.928227 1_545
B1 Be5 1.928227 1_455
B1 Be4 1.928227 1_555
B1 Be0 2.056190 1_555
B1 Be1 2.056190 1_555
B1 Be0 2.056190 1_455
B1 Be1 2.056190 1_545
B1 Be2 2.176982 1_555
