# generated using pymatgen
data_MgMn4CuO8
_symmetry_space_group_name_H-M   'P 1'
_cell_length_a   6.17499740
_cell_length_b   6.17473802
_cell_length_c   6.20869587
_cell_angle_alpha   84.46435156
_cell_angle_beta   56.72091503
_cell_angle_gamma   56.95503817
_symmetry_Int_Tables_number   1
_chemical_formula_structural   MgMn4CuO8
_chemical_formula_sum   'Mg1 Mn4 Cu1 O8'
_cell_volume   158.80101301
_cell_formula_units_Z   1
loop_
 _symmetry_equiv_pos_site_id
 _symmetry_equiv_pos_as_xyz
  1  'x, y, z'
loop_
 _atom_site_type_symbol
 _atom_site_label
 _atom_site_symmetry_multiplicity
 _atom_site_fract_x
 _atom_site_fract_y
 _atom_site_fract_z
 _atom_site_occupancy
  Mg  Mg0  1  0.27207621  0.86752955  0.59655941  1
  Mn  Mn0  1  0.01662723  0.48843498  0.47261008  1
  Mn  Mn1  1  0.76587844  0.10843190  0.34347544  1
  Mn  Mn2  1  0.52190402  0.98676876  0.96917574  1
  Mn  Mn3  1  0.01825618  0.49032127  0.96904713  1
  Cu  Cu0  1  0.52103772  0.48769176  0.96728958  1
  O  O0  1  0.49504051  0.24650263  0.75205977  1
  O  O1  1  0.00595746  0.27044362  0.72322230  1
  O  O2  1  0.54819914  0.72794593  0.72315002  1
  O  O3  1  0.99568507  0.73808701  0.74280786  1
  O  O4  1  0.04804796  0.24088913  0.19353521  1
  O  O5  1  0.48854829  0.25301707  0.21493087  1
  O  O6  1  0.03880462  0.70264383  0.21453277  1
  O  O7  1  0.54518716  0.73504257  0.19052081  1
loop_
_geom_bond_atom_site_label_1
_geom_bond_atom_site_label_2
_geom_bond_distance
_geom_bond_site_symmetry_2
Mg0 O2 2.001275 1_555
Mg0 O1 2.002246 1_565
Mg0 O3 2.005787 1_455
Mg0 O7 2.023900 1_555
Mn0 O2 1.953020 1_455
Mn0 O1 1.953807 1_555
Mn0 O5 1.969031 1_555
Mn0 O6 1.970668 1_555
Mn0 O4 2.279224 1_555
Mn0 O3 2.291453 1_455
Mn1 O6 2.015042 1_645
Mn1 O5 2.015380 1_555
Mn1 O0 2.040930 1_555
Mn1 O4 2.049077 1_655
Mn2 O7 1.971359 1_556
Mn2 O3 1.974055 1_555
Mn2 O4 1.976281 1_566
Mn2 O0 1.988702 1_565
Mn2 O2 2.197618 1_555
Mn2 O5 2.200703 1_566
Mn3 O7 1.971337 1_456
Mn3 O3 1.975027 1_455
Mn3 O4 1.976571 1_556
Mn3 O0 1.988463 1_555
Mn3 O1 2.194986 1_555
Mn3 O6 2.199343 1_556
Cu0 O6 2.012835 1_556
Cu0 O5 2.013131 1_556
Cu0 O2 2.021152 1_555
Cu0 O1 2.023339 1_655
Cu0 O0 2.215745 1_555
Cu0 O7 2.271454 1_556
