# generated using pymatgen
data_Cr3C2
_symmetry_space_group_name_H-M   'P 1'
_cell_length_a   2.78828942
_cell_length_b   5.44085956
_cell_length_c   11.38863471
_cell_angle_alpha   89.99875488
_cell_angle_beta   89.99999558
_cell_angle_gamma   89.99999927
_symmetry_Int_Tables_number   1
_chemical_formula_structural   Cr3C2
_chemical_formula_sum   'Cr12 C8'
_cell_volume   172.77345975
_cell_formula_units_Z   4
loop_
 _symmetry_equiv_pos_site_id
 _symmetry_equiv_pos_as_xyz
  1  'x, y, z'
loop_
 _atom_site_type_symbol
 _atom_site_label
 _atom_site_symmetry_multiplicity
 _atom_site_fract_x
 _atom_site_fract_y
 _atom_site_fract_z
 _atom_site_occupancy
  Cr  Cr0  1  0.74999817  0.01327428  0.59684625  1
  Cr  Cr1  1  0.24999938  0.98674907  0.40318263  1
  Cr  Cr2  1  0.75000111  0.51325126  0.90314946  1
  Cr  Cr3  1  0.25000061  0.48674251  0.09684232  1
  Cr  Cr4  1  0.25000028  0.81325347  0.77405059  1
  Cr  Cr5  1  0.74999918  0.18675806  0.22591728  1
  Cr  Cr6  1  0.25000048  0.31318499  0.72593390  1
  Cr  Cr7  1  0.75000021  0.68681692  0.27407881  1
  Cr  Cr8  1  0.25000119  0.13259615  0.93142690  1
  Cr  Cr9  1  0.75000085  0.86737993  0.06854778  1
  Cr  Cr10  1  0.24999958  0.63266065  0.56853701  1
  Cr  Cr11  1  0.74999807  0.36736559  0.43149129  1
  C  C0  1  0.75000027  0.59937635  0.70293891  1
  C  C1  1  0.24999938  0.40062456  0.29706495  1
  C  C2  1  0.75000106  0.09935460  0.79708076  1
  C  C3  1  0.25000034  0.90060789  0.20290456  1
  C  C4  1  0.25000116  0.76077398  0.95188833  1
  C  C5  1  0.75000146  0.23922280  0.04810544  1
  C  C6  1  0.24999858  0.26077876  0.54810002  1
  C  C7  1  0.74999864  0.73922918  0.45191381  1
loop_
_geom_bond_atom_site_label_1
_geom_bond_atom_site_label_2
_geom_bond_distance
_geom_bond_site_symmetry_2
C0 Cr4 1.988392 1_555
C0 Cr4 1.988392 1_655
C0 Cr10 2.078297 1_655
C0 Cr10 2.078300 1_555
C0 Cr6 2.106382 1_555
C0 Cr6 2.106383 1_655
C0 Cr2 2.327768 1_555
C0 Cr0 2.555597 1_565
C1 Cr5 1.988525 1_555
C1 Cr5 1.988525 1_455
C1 Cr11 2.078489 1_555
C1 Cr11 2.078494 1_455
C1 Cr7 2.106373 1_455
C1 Cr7 2.106376 1_555
C1 Cr3 2.327895 1_555
C1 Cr1 2.555624 1_545
C2 Cr6 1.988384 1_655
C2 Cr6 1.988387 1_555
C2 Cr8 2.077816 1_555
C2 Cr8 2.077817 1_655
C2 Cr4 2.106077 1_645
C2 Cr4 2.106080 1_545
C2 Cr0 2.328006 1_555
C2 Cr2 2.555508 1_555
C3 Cr7 1.988387 1_555
C3 Cr7 1.988388 1_455
C3 Cr9 2.077898 1_455
C3 Cr9 2.077900 1_555
C3 Cr5 2.106248 1_565
C3 Cr5 2.106253 1_465
C3 Cr1 2.328559 1_555
C3 Cr3 2.555324 1_555
C4 Cr9 2.011283 1_556
C4 Cr9 2.011284 1_456
C4 Cr2 2.016302 1_555
C4 Cr2 2.016302 1_455
C4 Cr8 2.036404 1_565
C4 Cr4 2.045351 1_555
C4 Cr3 2.224434 1_556
C5 Cr8 2.011459 1_654
C5 Cr8 2.011460 1_554
C5 Cr3 2.016283 1_655
C5 Cr3 2.016286 1_555
C5 Cr9 2.036491 1_545
C5 Cr5 2.045048 1_555
C5 Cr2 2.224440 1_554
C6 Cr11 2.010854 1_555
C6 Cr11 2.010856 1_455
C6 Cr0 2.016242 1_555
C6 Cr0 2.016243 1_455
C6 Cr10 2.036705 1_555
C6 Cr6 2.045264 1_555
C6 Cr1 2.224167 1_545
C7 Cr10 2.010934 1_555
C7 Cr10 2.010937 1_655
C7 Cr1 2.016250 1_555
C7 Cr1 2.016253 1_655
C7 Cr11 2.036587 1_555
C7 Cr7 2.045282 1_555
C7 Cr0 2.224350 1_565
