# generated using pymatgen
data_Na3ScAl(PO4)3
_symmetry_space_group_name_H-M   'P 1'
_cell_length_a   15.30176184
_cell_length_b   8.79478446
_cell_length_c   8.85877168
_cell_angle_alpha   90.10127945
_cell_angle_beta   124.79781841
_cell_angle_gamma   89.95672433
_symmetry_Int_Tables_number   1
_chemical_formula_structural   Na3ScAl(PO4)3
_chemical_formula_sum   'Na12 Sc4 Al4 P12 O48'
_cell_volume   978.97819700
_cell_formula_units_Z   4
loop_
 _symmetry_equiv_pos_site_id
 _symmetry_equiv_pos_as_xyz
  1  'x, y, z'
loop_
 _atom_site_type_symbol
 _atom_site_label
 _atom_site_symmetry_multiplicity
 _atom_site_fract_x
 _atom_site_fract_y
 _atom_site_fract_z
 _atom_site_occupancy
  Na  Na0  1  0.24275029  0.77166715  0.99436388  1
  Na  Na1  1  0.74871717  0.72384516  0.50261274  1
  Na  Na2  1  0.74979796  0.27221553  0.00374791  1
  Na  Na3  1  0.24278135  0.22419260  0.49429922  1
  Na  Na4  1  0.50339467  0.09998684  0.75253680  1
  Na  Na5  1  0.50329184  0.89980988  0.24805074  1
  Na  Na6  1  0.00385837  0.61327581  0.74992193  1
  Na  Na7  1  0.00215624  0.38598740  0.24797324  1
  Na  Na8  1  0.81595063  0.93325906  0.22411947  1
  Na  Na9  1  0.81247313  0.06980169  0.71711911  1
  Na  Na10  1  0.30519689  0.43324087  0.20584498  1
  Na  Na11  1  0.30958008  0.56447200  0.72074792  1
  Sc  Sc0  1  0.10447427  0.75976081  0.55750602  1
  Sc  Sc1  1  0.60391668  0.25832351  0.55972647  1
  Sc  Sc2  1  0.39531162  0.75043557  0.43796468  1
  Sc  Sc3  1  0.60623628  0.74196918  0.06003620  1
  Al  Al0  1  0.89838206  0.74882892  0.94210935  1
  Al  Al1  1  0.89898873  0.25123245  0.44314988  1
  Al  Al2  1  0.10148374  0.24506481  0.05290189  1
  Al  Al3  1  0.39595742  0.25091020  0.93958982  1
  P  P0  1  0.99829697  0.96542473  0.75093530  1
  P  P1  1  0.99873862  0.04659193  0.23911328  1
  P  P2  1  0.49442001  0.44502682  0.74905671  1
  P  P3  1  0.49578278  0.54322655  0.23766966  1
  P  P4  1  0.35690501  0.90494194  0.76518233  1
  P  P5  1  0.65626922  0.88757200  0.74837791  1
  P  P6  1  0.65157384  0.11464450  0.24551714  1
  P  P7  1  0.35052579  0.10881558  0.24455792  1
  P  P8  1  0.86316139  0.39978023  0.75628659  1
  P  P9  1  0.14599103  0.38355991  0.74826228  1
  P  P10  1  0.14258811  0.60186715  0.23594560  1
  P  P11  1  0.85937406  0.59827028  0.25481747  1
  O  O0  1  0.15487570  0.56104846  0.74263313  1
  O  O1  1  0.85864866  0.57608318  0.76668670  1
  O  O2  1  0.85698557  0.42229243  0.26596279  1
  O  O3  1  0.14881848  0.42464849  0.22301775  1
  O  O4  1  0.66460194  0.06415849  0.74265161  1
  O  O5  1  0.35155962  0.08025267  0.77194648  1
  O  O6  1  0.34612486  0.93327288  0.24456292  1
  O  O7  1  0.66181364  0.93787813  0.24044169  1
  O  O8  1  0.42600435  0.53904459  0.57008029  1
  O  O9  1  0.55541770  0.55123433  0.91436634  1
  O  O10  1  0.55515298  0.44575431  0.41220714  1
  O  O11  1  0.43180375  0.44186427  0.06386511  1
  O  O12  1  0.92743754  0.06049720  0.57200574  1
  O  O13  1  0.06067330  0.07001506  0.91793606  1
  O  O14  1  0.06850482  0.95097384  0.41351703  1
  O  O15  1  0.92719311  0.94134363  0.07113739  1
  O  O16  1  0.26339573  0.82317744  0.75093032  1
  O  O17  1  0.75326811  0.81427268  0.76462525  1
  O  O18  1  0.75009481  0.18494395  0.26268068  1
  O  O19  1  0.25133874  0.18201355  0.22335195  1
  O  O20  1  0.76685045  0.32651362  0.74349417  1
  O  O21  1  0.24515412  0.31777986  0.76441589  1
  O  O22  1  0.23736974  0.67076884  0.24179837  1
  O  O23  1  0.76394204  0.67311791  0.24207789  1
  O  O24  1  0.36025072  0.86615628  0.59762776  1
  O  O25  1  0.65529342  0.85672898  0.91859294  1
  O  O26  1  0.65285927  0.14341341  0.41911834  1
  O  O27  1  0.36271317  0.15707709  0.08946032  1
  O  O28  1  0.86502995  0.36065620  0.58749150  1
  O  O29  1  0.14391265  0.35231910  0.91823801  1
  O  O30  1  0.15172998  0.62999860  0.41688511  1
  O  O31  1  0.86447012  0.64022921  0.09034837  1
  O  O32  1  0.45942878  0.84640673  0.94132572  1
  O  O33  1  0.55212579  0.83201467  0.57048460  1
  O  O34  1  0.54577345  0.17198961  0.07151986  1
  O  O35  1  0.44973015  0.16361694  0.43145522  1
  O  O36  1  0.96438795  0.33597443  0.93233401  1
  O  O37  1  0.04308310  0.32416450  0.56997032  1
  O  O38  1  0.03826816  0.66880164  0.06947283  1
  O  O39  1  0.95842873  0.66168550  0.43460612  1
  O  O40  1  0.07575418  0.85713467  0.74374269  1
  O  O41  1  0.92072189  0.86026245  0.76637374  1
  O  O42  1  0.92101521  0.14703546  0.25985424  1
  O  O43  1  0.07240838  0.15489476  0.22132936  1
  O  O44  1  0.57533402  0.33724550  0.75212947  1
  O  O45  1  0.41302288  0.34610184  0.75900677  1
  O  O46  1  0.41142428  0.64372284  0.23664609  1
  O  O47  1  0.57747776  0.65141870  0.24554946  1
loop_
_geom_bond_atom_site_label_1
_geom_bond_atom_site_label_2
_geom_bond_distance
_geom_bond_site_symmetry_2
Na0 O6 2.329266 1_556
Na0 O40 2.356195 1_555
Na0 O16 2.395175 1_555
Na0 O22 2.410788 1_556
Na0 O46 2.493158 1_556
Na0 O0 2.603640 1_555
Na1 O1 2.346711 1_555
Na1 O47 2.375771 1_555
Na1 O17 2.415358 1_555
Na1 O23 2.488005 1_555
Na1 O41 2.608070 1_555
Na1 O7 2.681858 1_555
Na2 O2 2.339237 1_555
Na2 O44 2.373358 1_554
Na2 O18 2.417663 1_555
Na2 O20 2.510439 1_554
Na2 O42 2.538424 1_555
Na2 O4 2.635283 1_554
Na3 O5 2.399554 1_555
Na3 O43 2.411908 1_555
Na3 O19 2.504298 1_555
Na3 O21 2.509717 1_555
Na3 O45 2.541180 1_555
Na3 O3 2.649174 1_555
Na4 O44 2.360903 1_555
Na4 O5 2.431932 1_555
Na4 O35 2.533192 1_555
Na4 O4 2.537148 1_555
Na4 O45 2.585776 1_555
Na4 O34 2.590262 1_556
Na4 O24 2.734245 1_545
Na4 O25 2.871333 1_545
Na5 O6 2.405289 1_555
Na5 O32 2.443092 1_554
Na5 O47 2.467013 1_555
Na5 O7 2.487650 1_555
Na5 O33 2.577194 1_555
Na5 O46 2.626922 1_555
Na5 O26 2.856893 1_565
Na5 O27 2.876626 1_565
Na6 O1 2.333258 1_455
Na6 O0 2.392423 1_555
Na6 O40 2.426042 1_555
Na6 O39 2.500913 1_455
Na6 O41 2.562092 1_455
Na6 O38 2.612197 1_556
Na6 O28 2.833077 1_455
Na6 O29 2.905310 1_555
Na7 O2 2.337653 1_455
Na7 O43 2.372043 1_555
Na7 O3 2.401784 1_555
Na7 O42 2.474461 1_455
Na7 O36 2.549056 1_454
Na7 O37 2.605882 1_555
Na7 O31 2.834508 1_455
Na7 O30 2.858321 1_555
Na8 O42 2.375132 1_565
Na8 O7 2.444275 1_555
Na8 O23 2.457968 1_555
Na8 O25 2.494758 1_554
Na8 O18 2.533511 1_565
Na8 O15 2.715279 1_555
Na8 O12 2.765911 1_565
Na9 O41 2.345946 1_545
Na9 O4 2.399528 1_555
Na9 O20 2.412716 1_555
Na9 O26 2.449082 1_555
Na9 O17 2.547524 1_545
Na9 O12 2.708220 1_555
Na9 O15 2.814141 1_546
Na10 O46 2.374839 1_555
Na10 O19 2.394770 1_555
Na10 O29 2.430669 1_554
Na10 O22 2.431923 1_555
Na10 O3 2.484041 1_555
Na10 O8 2.806879 1_555
Na10 O11 2.850017 1_555
Na11 O45 2.386231 1_555
Na11 O16 2.441067 1_555
Na11 O30 2.448398 1_555
Na11 O0 2.483209 1_555
Na11 O21 2.504030 1_555
Na11 O11 2.723937 1_556
Na11 O8 2.778047 1_555
Al0 O38 1.895831 1_656
Al0 O31 1.920677 1_556
Al0 O17 1.936607 1_555
Al0 O15 1.945940 1_556
Al0 O1 2.001865 1_555
Al0 O41 2.028363 1_555
Al1 O28 1.893268 1_555
Al1 O37 1.925475 1_655
Al1 O12 1.935190 1_555
Al1 O18 1.981918 1_555
Al1 O2 1.998916 1_555
Al1 O42 2.051569 1_555
Al2 O13 1.825485 1_554
Al2 O29 1.903505 1_554
Al2 O36 1.903668 1_454
Al2 O43 1.953319 1_555
Al2 O19 1.973502 1_555
Al2 O3 2.009401 1_555
Al3 O27 1.864902 1_556
Al3 O11 1.907592 1_556
Al3 O5 1.939559 1_555
Al3 O45 1.951953 1_555
Al3 O21 1.998219 1_555
Al3 O34 2.011335 1_556
O0 P9 1.570332 1_555
O0 Sc0 2.214292 1_555
O1 P8 1.556935 1_555
O2 P11 1.552792 1_555
O3 P10 1.569409 1_555
O4 P5 1.561642 1_545
O4 Sc1 2.166610 1_555
O5 P4 1.546793 1_545
O6 P7 1.545380 1_565
O6 Sc2 2.150280 1_555
O7 P6 1.565519 1_565
O7 Sc3 2.165004 1_555
O8 P2 1.549953 1_555
O8 Sc2 2.103749 1_555
O9 P2 1.524679 1_555
O9 Sc3 1.983143 1_556
O10 P3 1.533350 1_555
O10 Sc1 1.968414 1_555
O11 P3 1.549134 1_555
O12 P0 1.558522 1_545
O13 P0 1.526650 1_445
O14 P1 1.534465 1_465
O14 Sc0 1.990707 1_555
O15 P1 1.551429 1_565
O16 P4 1.541246 1_555
O16 Sc0 2.098445 1_555
O17 P5 1.547370 1_555
O18 P6 1.554837 1_555
O19 P7 1.557809 1_555
O20 P8 1.552571 1_555
O20 Sc1 2.142914 1_555
O21 P9 1.552002 1_555
O22 P10 1.545551 1_555
O22 Sc2 2.134565 1_555
O23 P11 1.545696 1_555
O23 Sc3 2.085722 1_555
O24 P4 1.551491 1_555
O24 Sc2 2.045576 1_555
O25 P5 1.541008 1_555
O25 Sc3 2.057028 1_556
O26 P6 1.547135 1_555
O26 Sc1 2.047653 1_555
O27 P7 1.548346 1_555
O28 P8 1.549888 1_555
O29 P9 1.549193 1_555
O30 P10 1.546869 1_555
O30 Sc0 2.097370 1_555
O31 P11 1.548131 1_555
O32 P4 1.539034 1_555
O32 Sc3 2.073619 1_556
O33 P5 1.547204 1_555
O33 Sc2 2.105980 1_555
O34 P6 1.550659 1_555
O35 P7 1.551632 1_555
O35 Sc1 2.119217 1_555
O36 P8 1.546279 1_555
O37 P9 1.551368 1_555
O38 P10 1.544110 1_555
O39 P11 1.545295 1_555
O39 Sc0 2.036185 1_655
O40 P0 1.549243 1_455
O40 Sc0 2.114340 1_555
O41 P0 1.571802 1_555
O42 P1 1.573473 1_555
O43 P1 1.551671 1_455
O44 P2 1.546638 1_555
O44 Sc1 2.103435 1_555
O45 P2 1.563088 1_555
O46 P3 1.559634 1_555
O46 Sc2 2.148917 1_555
O47 P3 1.541082 1_555
O47 Sc3 2.087887 1_555
