# generated using pymatgen
data_Ag25(BiO6)3
_symmetry_space_group_name_H-M   'P 1'
_cell_length_a   11.74570259
_cell_length_b   11.74570259
_cell_length_c   6.41115600
_cell_angle_alpha   90.00000000
_cell_angle_beta   90.00000000
_cell_angle_gamma   120.00000333
_symmetry_Int_Tables_number   1
_chemical_formula_structural   Ag25(BiO6)3
_chemical_formula_sum   'Ag25 Bi3 O18'
_cell_volume   765.99328368
_cell_formula_units_Z   1
loop_
 _symmetry_equiv_pos_site_id
 _symmetry_equiv_pos_as_xyz
  1  'x, y, z'
loop_
 _atom_site_type_symbol
 _atom_site_label
 _atom_site_symmetry_multiplicity
 _atom_site_fract_x
 _atom_site_fract_y
 _atom_site_fract_z
 _atom_site_occupancy
  Ag  Ag0  1  0.04817000  0.30470800  0.33932200  1
  Ag  Ag1  1  0.76499100  0.24914100  0.24758000  1
  Ag  Ag2  1  0.75085900  0.51585000  0.24758000  1
  Ag  Ag3  1  0.48415000  0.23500900  0.24758000  1
  Ag  Ag4  1  0.23500900  0.75085900  0.75242000  1
  Ag  Ag5  1  0.24914100  0.48415000  0.75242000  1
  Ag  Ag6  1  0.50000000  0.00000000  0.50000000  1
  Ag  Ag7  1  0.00000000  0.50000000  0.50000000  1
  Ag  Ag8  1  0.50000000  0.50000000  0.50000000  1
  Ag  Ag9  1  0.00000000  0.00000000  0.00000000  1
  Ag  Ag10  1  0.69529200  0.74346200  0.33932200  1
  Ag  Ag11  1  0.95183000  0.69529200  0.66067800  1
  Ag  Ag12  1  0.74346200  0.04817000  0.66067800  1
  Ag  Ag13  1  0.30470800  0.25653800  0.66067800  1
  Ag  Ag14  1  0.97915900  0.25004700  0.84451100  1
  Ag  Ag15  1  0.27088800  0.02084100  0.84451100  1
  Ag  Ag16  1  0.74995300  0.72911200  0.84451100  1
  Ag  Ag17  1  0.02084100  0.74995300  0.15548900  1
  Ag  Ag18  1  0.72911200  0.97915900  0.15548900  1
  Ag  Ag19  1  0.25004700  0.27088800  0.15548900  1
  Ag  Ag20  1  0.50000000  0.50000000  0.00000000  1
  Ag  Ag21  1  0.00000000  0.50000000  0.00000000  1
  Ag  Ag22  1  0.50000000  0.00000000  0.00000000  1
  Ag  Ag23  1  0.51585000  0.76499100  0.75242000  1
  Ag  Ag24  1  0.25653800  0.95183000  0.33932200  1
  Bi  Bi0  1  0.00000000  0.00000000  0.50000000  1
  Bi  Bi1  1  0.66666700  0.33333300  0.75915900  1
  Bi  Bi2  1  0.33333300  0.66666700  0.24084100  1
  O  O0  1  0.67622300  0.18249600  0.54879100  1
  O  O1  1  0.50627300  0.32377700  0.54879100  1
  O  O2  1  0.81750400  0.49372700  0.54879100  1
  O  O3  1  0.18249600  0.50627300  0.45120900  1
  O  O4  1  0.92242700  0.09530800  0.29329400  1
  O  O5  1  0.17288200  0.07757300  0.29329400  1
  O  O6  1  0.90469200  0.82711800  0.29329400  1
  O  O7  1  0.07757300  0.90469200  0.70670600  1
  O  O8  1  0.82711800  0.92242700  0.70670600  1
  O  O9  1  0.09530800  0.17288200  0.70670600  1
  O  O10  1  0.83967400  0.31071600  0.93941500  1
  O  O11  1  0.47104200  0.16032600  0.93941500  1
  O  O12  1  0.68928400  0.52895800  0.93941500  1
  O  O13  1  0.16032600  0.68928400  0.06058500  1
  O  O14  1  0.52895800  0.83967400  0.06058500  1
  O  O15  1  0.31071600  0.47104200  0.06058500  1
  O  O16  1  0.32377700  0.81750400  0.45120900  1
  O  O17  1  0.49372700  0.67622300  0.45120900  1
loop_
_geom_bond_atom_site_label_1
_geom_bond_atom_site_label_2
_geom_bond_distance
_geom_bond_site_symmetry_2
Ag0 O4 2.164535 1_455
Ag0 O3 2.207636 1_555
Ag1 O10 2.135767 1_554
Ag1 O0 2.147762 1_555
Ag2 O12 2.135767 1_554
Ag2 O2 2.147762 1_555
Ag3 O11 2.135767 1_554
Ag3 O1 2.147762 1_555
Ag4 O13 2.135767 1_556
Ag4 O16 2.147762 1_555
Ag5 O15 2.135767 1_556
Ag5 O3 2.147762 1_555
Ag6 O0 2.130755 1_555
Ag6 O16 2.130755 1_545
Ag7 O2 2.130755 1_455
Ag7 O3 2.130755 1_555
Ag8 O1 2.130755 1_555
Ag8 O17 2.130755 1_555
Ag9 O4 2.576646 1_455
Ag9 O7 2.576646 1_544
Ag9 O9 2.576653 1_554
Ag9 O6 2.576653 1_445
Ag9 O5 2.576654 1_555
Ag9 O8 2.576654 1_444
Ag10 O6 2.164536 1_555
Ag10 O17 2.207636 1_555
Ag11 O7 2.164535 1_655
Ag11 O2 2.207636 1_555
Ag12 O8 2.164525 1_545
Ag12 O0 2.207636 1_555
Ag13 O9 2.164536 1_555
Ag13 O1 2.207636 1_555
Ag14 O9 2.167883 1_655
Ag14 O10 2.174783 1_555
Ag15 O7 2.167892 1_545
Ag15 O11 2.174783 1_555
Ag16 O8 2.167893 1_555
Ag16 O12 2.174783 1_555
Ag17 O6 2.167883 1_455
Ag17 O13 2.174783 1_555
Ag18 O4 2.167892 1_565
Ag18 O14 2.174783 1_555
Ag19 O5 2.167893 1_555
Ag19 O15 2.174783 1_555
Ag20 O15 2.110284 1_555
Ag20 O12 2.110284 1_554
Ag21 O13 2.110284 1_555
Ag21 O10 2.110284 1_454
Ag22 O14 2.110284 1_545
Ag22 O11 2.110284 1_554
Ag23 O14 2.135767 1_556
Ag23 O17 2.147762 1_555
Ag24 O5 2.164525 1_565
Ag24 O16 2.207636 1_555
Bi0 O4 2.204449 1_455
Bi0 O7 2.204449 1_545
Bi0 O9 2.204457 1_555
Bi0 O6 2.204457 1_445
Bi0 O5 2.204458 1_555
Bi0 O8 2.204458 1_445
Bi1 O0 2.273615 1_555
Bi1 O2 2.273620 1_555
Bi1 O1 2.273625 1_555
Bi1 O10 2.464815 1_555
Bi1 O11 2.464821 1_555
Bi1 O12 2.464825 1_555
Bi2 O16 2.273615 1_555
Bi2 O3 2.273620 1_555
Bi2 O17 2.273625 1_555
Bi2 O13 2.464815 1_555
Bi2 O14 2.464821 1_555
Bi2 O15 2.464825 1_555
