# generated using pymatgen
data_ZnNi10P3
_symmetry_space_group_name_H-M   'P 1'
_cell_length_a   7.64932855
_cell_length_b   7.64932855
_cell_length_c   9.34364500
_cell_angle_alpha   90.00000000
_cell_angle_beta   90.00000000
_cell_angle_gamma   120.00000472
_symmetry_Int_Tables_number   1
_chemical_formula_structural   ZnNi10P3
_chemical_formula_sum   'Zn3 Ni30 P9'
_cell_volume   473.47120309
_cell_formula_units_Z   3
loop_
 _symmetry_equiv_pos_site_id
 _symmetry_equiv_pos_as_xyz
  1  'x, y, z'
loop_
 _atom_site_type_symbol
 _atom_site_label
 _atom_site_symmetry_multiplicity
 _atom_site_fract_x
 _atom_site_fract_y
 _atom_site_fract_z
 _atom_site_occupancy
  Zn  Zn0  1  0.66666700  0.33333300  0.36017800  1
  Zn  Zn1  1  0.33333300  0.66666700  0.63982200  1
  Zn  Zn2  1  0.00000000  0.00000000  0.00000000  1
  Ni  Ni0  1  0.00000000  0.00000000  0.62123400  1
  Ni  Ni1  1  0.00000000  0.34054400  0.50000000  1
  Ni  Ni2  1  0.65945600  0.65945600  0.50000000  1
  Ni  Ni3  1  0.65945600  0.00000000  0.50000000  1
  Ni  Ni4  1  0.00000000  0.65945600  0.50000000  1
  Ni  Ni5  1  0.34054400  0.34054400  0.50000000  1
  Ni  Ni6  1  0.18266700  0.81733300  0.06639700  1
  Ni  Ni7  1  0.18266700  0.36533400  0.06639700  1
  Ni  Ni8  1  0.63466600  0.81733300  0.06639700  1
  Ni  Ni9  1  0.36533400  0.18266700  0.93360300  1
  Ni  Ni10  1  0.34054400  0.00000000  0.50000000  1
  Ni  Ni11  1  0.81733300  0.18266700  0.93360300  1
  Ni  Ni12  1  0.14001800  0.85998200  0.79484700  1
  Ni  Ni13  1  0.14001800  0.28003600  0.79484700  1
  Ni  Ni14  1  0.71996400  0.85998200  0.79484700  1
  Ni  Ni15  1  0.28003600  0.14001800  0.20515300  1
  Ni  Ni16  1  0.85998200  0.71996400  0.20515300  1
  Ni  Ni17  1  0.85998200  0.14001800  0.20515300  1
  Ni  Ni18  1  0.49135900  0.50864100  0.24050600  1
  Ni  Ni19  1  0.49135900  0.98271800  0.24050600  1
  Ni  Ni20  1  0.01728200  0.50864100  0.24050600  1
  Ni  Ni21  1  0.98271800  0.49135900  0.75949400  1
  Ni  Ni22  1  0.50864100  0.01728200  0.75949400  1
  Ni  Ni23  1  0.50864100  0.49135900  0.75949400  1
  Ni  Ni24  1  0.66666700  0.33333300  0.09748400  1
  Ni  Ni25  1  0.33333300  0.66666700  0.90251600  1
  Ni  Ni26  1  0.66666700  0.33333300  0.61409000  1
  Ni  Ni27  1  0.33333300  0.66666700  0.38591000  1
  Ni  Ni28  1  0.81733300  0.63466600  0.93360300  1
  Ni  Ni29  1  0.00000000  0.00000000  0.37876600  1
  P  P0  1  0.83483900  0.16516100  0.69105100  1
  P  P1  1  0.83483900  0.66967800  0.69105100  1
  P  P2  1  0.33032200  0.16516100  0.69105100  1
  P  P3  1  0.16516100  0.83483900  0.30894900  1
  P  P4  1  0.50000000  0.50000000  0.00000000  1
  P  P5  1  0.00000000  0.50000000  0.00000000  1
  P  P6  1  0.50000000  0.00000000  0.00000000  1
  P  P7  1  0.66967800  0.83483900  0.30894900  1
  P  P8  1  0.16516100  0.33032200  0.30894900  1
loop_
_geom_bond_atom_site_label_1
_geom_bond_atom_site_label_2
_geom_bond_distance
_geom_bond_site_symmetry_2
Ni0 Ni29 2.265535 1_555
Ni0 P2 2.283390 1_555
Ni0 P1 2.283390 1_445
Ni0 P0 2.283390 1_455
Ni1 P0 2.210799 1_455
Ni1 P8 2.210799 1_555
Ni1 Zn0 2.840871 1_455
Ni1 Zn1 2.840874 1_555
Ni2 P1 2.210799 1_555
Ni2 P7 2.210799 1_555
Ni2 Zn0 2.840878 1_555
Ni2 Zn1 2.840878 1_555
Ni3 P0 2.210799 1_555
Ni3 P7 2.210799 1_545
Ni3 Zn0 2.840871 1_555
Ni3 Zn1 2.840874 1_545
Ni4 P3 2.210799 1_555
Ni4 P1 2.210799 1_455
Ni4 Zn1 2.840871 1_555
Ni4 Zn0 2.840874 1_455
Ni5 P8 2.210799 1_555
Ni5 P2 2.210799 1_555
Ni5 Zn1 2.840878 1_555
Ni5 Zn0 2.840878 1_555
Ni6 P5 2.199485 1_555
Ni6 P6 2.199485 1_565
Ni6 P3 2.278157 1_555
Ni6 Zn2 2.498411 1_565
Ni7 P4 2.199485 1_555
Ni7 P5 2.199485 1_555
Ni7 P8 2.278157 1_555
Ni7 Zn2 2.498411 1_555
Ni8 P4 2.199485 1_555
Ni8 P6 2.199485 1_565
Ni8 P7 2.278157 1_555
Ni8 Zn2 2.498411 1_665
Ni9 P4 2.199485 1_556
Ni9 P6 2.199485 1_556
Ni9 P2 2.278157 1_555
Ni9 Zn2 2.498411 1_556
Ni10 P3 2.210799 1_545
Ni10 P2 2.210799 1_555
Ni10 Zn1 2.840871 1_545
Ni10 Zn0 2.840874 1_555
Ni11 P5 2.199485 1_656
Ni11 P6 2.199485 1_556
Ni11 P0 2.278157 1_555
Ni11 Zn2 2.498411 1_656
Ni12 P1 2.260734 1_455
Ni12 P2 2.260734 1_565
Ni12 Zn2 2.667550 1_566
Ni12 Zn1 2.942461 1_555
Ni13 P0 2.260735 1_455
Ni13 P2 2.260735 1_555
Ni13 Zn2 2.667549 1_556
Ni13 Zn1 2.942466 1_555
Ni14 P0 2.260735 1_565
Ni14 P1 2.260735 1_555
Ni14 Zn2 2.667549 1_666
Ni14 Zn1 2.942466 1_555
Ni15 P3 2.260735 1_545
Ni15 P8 2.260735 1_555
Ni15 Zn2 2.667549 1_555
Ni15 Zn0 2.942466 1_555
Ni16 P3 2.260735 1_655
Ni16 P7 2.260735 1_555
Ni16 Zn2 2.667549 1_665
Ni16 Zn0 2.942466 1_555
Ni17 P7 2.260734 1_545
Ni17 P8 2.260734 1_655
Ni17 Zn2 2.667550 1_655
Ni17 Zn0 2.942461 1_555
Ni18 P4 2.250117 1_555
Ni18 P8 2.256551 1_555
Ni18 P7 2.256551 1_555
Ni18 Zn0 2.577802 1_555
Ni19 P6 2.250117 1_565
Ni19 P3 2.256551 1_555
Ni19 P7 2.256552 1_555
Ni19 Zn0 2.577795 1_565
Ni20 P5 2.250117 1_555
Ni20 P3 2.256551 1_555
Ni20 P8 2.256552 1_555
Ni20 Zn0 2.577795 1_455
Ni21 P5 2.250117 1_656
Ni21 P0 2.256551 1_555
Ni21 P1 2.256552 1_555
Ni21 Zn1 2.577795 1_655
Ni22 P6 2.250117 1_556
Ni22 P0 2.256551 1_555
Ni22 P2 2.256552 1_555
Ni22 Zn1 2.577795 1_545
Ni23 P4 2.250117 1_556
Ni23 P2 2.256551 1_555
Ni23 P1 2.256551 1_555
Ni23 Zn1 2.577802 1_555
Ni24 P6 2.388654 1_555
Ni24 P5 2.388654 1_655
Ni24 P4 2.388660 1_555
Ni24 Zn0 2.454519 1_555
Ni25 P5 2.388654 1_556
Ni25 P6 2.388654 1_566
Ni25 P4 2.388660 1_556
Ni25 Zn1 2.454519 1_555
Ni26 P0 2.341281 1_555
Ni26 P1 2.341287 1_555
Ni26 P2 2.341287 1_555
Ni26 Zn0 2.372464 1_555
Ni27 P3 2.341281 1_555
Ni27 P7 2.341287 1_555
Ni27 P8 2.341287 1_555
Ni27 Zn1 2.372464 1_555
Ni28 P4 2.199485 1_556
Ni28 P5 2.199485 1_656
Ni28 P1 2.278157 1_555
Ni28 Zn2 2.498411 1_666
Ni29 P7 2.283390 1_445
Ni29 P8 2.283390 1_555
Ni29 P3 2.283390 1_545
