# generated using pymatgen
data_Na2PbO2
_symmetry_space_group_name_H-M   'P 1'
_cell_length_a   5.95006384
_cell_length_b   6.88611137
_cell_length_c   16.71887631
_cell_angle_alpha   90.00000000
_cell_angle_beta   90.00000000
_cell_angle_gamma   90.00000000
_symmetry_Int_Tables_number   1
_chemical_formula_structural   Na2PbO2
_chemical_formula_sum   'Na16 Pb8 O16'
_cell_volume   685.01921307
_cell_formula_units_Z   8
loop_
 _symmetry_equiv_pos_site_id
 _symmetry_equiv_pos_as_xyz
  1  'x, y, z'
loop_
 _atom_site_type_symbol
 _atom_site_label
 _atom_site_symmetry_multiplicity
 _atom_site_fract_x
 _atom_site_fract_y
 _atom_site_fract_z
 _atom_site_occupancy
  Na  Na0  1  0.91643572  0.62720140  0.36574201  1
  Na  Na1  1  0.41643572  0.87279860  0.13425799  1
  Na  Na2  1  0.58356428  0.62720140  0.63425799  1
  Na  Na3  1  0.08356428  0.87279860  0.86574201  1
  Na  Na4  1  0.08356428  0.37279860  0.63425799  1
  Na  Na5  1  0.58356428  0.12720140  0.86574201  1
  Na  Na6  1  0.41643572  0.37279860  0.36574201  1
  Na  Na7  1  0.91643572  0.12720140  0.13425799  1
  Na  Na8  1  0.25000000  0.12304842  0.50000000  1
  Na  Na9  1  0.75000000  0.37695158  0.00000000  1
  Na  Na10  1  0.75000000  0.36790718  0.50000000  1
  Na  Na11  1  0.25000000  0.13209282  0.00000000  1
  Na  Na12  1  0.25000000  0.63209282  0.50000000  1
  Na  Na13  1  0.75000000  0.86790718  0.00000000  1
  Na  Na14  1  0.75000000  0.87695158  0.50000000  1
  Na  Na15  1  0.25000000  0.62304842  0.00000000  1
  Pb  Pb0  1  0.93160934  0.13579999  0.33703773  1
  Pb  Pb1  1  0.43160934  0.36420001  0.16296227  1
  Pb  Pb2  1  0.56839066  0.13579999  0.66296227  1
  Pb  Pb3  1  0.06839066  0.36420001  0.83703773  1
  Pb  Pb4  1  0.06839066  0.86420001  0.66296227  1
  Pb  Pb5  1  0.56839066  0.63579999  0.83703773  1
  Pb  Pb6  1  0.43160934  0.86420001  0.33703773  1
  Pb  Pb7  1  0.93160934  0.63579999  0.16296227  1
  O  O0  1  0.56400244  0.14674868  0.08569333  1
  O  O1  1  0.06400244  0.35325132  0.41430667  1
  O  O2  1  0.93599756  0.14674868  0.91430667  1
  O  O3  1  0.43599756  0.35325132  0.58569333  1
  O  O4  1  0.43599756  0.85325132  0.91430667  1
  O  O5  1  0.93599756  0.64674868  0.58569333  1
  O  O6  1  0.06400244  0.85325132  0.08569333  1
  O  O7  1  0.56400244  0.64674868  0.41430667  1
  O  O8  1  0.89123838  0.10256625  0.59631798  1
  O  O9  1  0.39123838  0.39743375  0.90368202  1
  O  O10  1  0.39123838  0.89743375  0.59631798  1
  O  O11  1  0.89123838  0.60256625  0.90368202  1
  O  O12  1  0.10876162  0.89743375  0.40368202  1
  O  O13  1  0.60876162  0.60256625  0.09631798  1
  O  O14  1  0.60876162  0.10256625  0.40368202  1
  O  O15  1  0.10876162  0.39743375  0.09631798  1
loop_
_geom_bond_atom_site_label_1
_geom_bond_atom_site_label_2
_geom_bond_distance
_geom_bond_site_symmetry_2
Na0 O1 2.233583 1_655
Na0 O7 2.252729 1_555
Na0 O12 2.274787 1_655
Na1 O0 2.233583 1_565
Na1 O6 2.252729 1_555
Na1 O13 2.274787 1_555
Na2 O3 2.233583 1_555
Na2 O5 2.252729 1_555
Na2 O10 2.274787 1_555
Na3 O2 2.233583 1_465
Na3 O4 2.252729 1_555
Na3 O11 2.274787 1_455
Na4 O5 2.233583 1_455
Na4 O3 2.252729 1_555
Na4 O8 2.274787 1_455
Na5 O4 2.233583 1_545
Na5 O2 2.252729 1_555
Na5 O9 2.274787 1_555
Na6 O7 2.233583 1_555
Na6 O1 2.252729 1_555
Na6 O14 2.274787 1_555
Na7 O6 2.233583 1_645
Na7 O0 2.252729 1_555
Na7 O15 2.274787 1_655
Na8 O12 2.390207 1_545
Na8 O10 2.390207 1_545
Na8 O3 2.406297 1_555
Na8 O1 2.406297 1_555
Na8 O14 2.677648 1_555
Na8 O8 2.677648 1_455
Na9 O13 2.390207 1_555
Na9 O11 2.390207 1_554
Na9 O0 2.406297 1_555
Na9 O2 2.406297 1_554
Na9 O15 2.677648 1_655
Na9 O9 2.677648 1_554
Na10 O3 2.356582 1_555
Na10 O1 2.356582 1_655
Na10 O14 2.576418 1_555
Na10 O8 2.576418 1_555
Na10 O5 2.638998 1_555
Na10 O7 2.638998 1_555
Na11 O2 2.356582 1_454
Na11 O0 2.356582 1_555
Na11 O15 2.576418 1_555
Na11 O9 2.576418 1_554
Na11 O4 2.638998 1_544
Na11 O6 2.638998 1_545
Na12 O5 2.356582 1_455
Na12 O7 2.356582 1_555
Na12 O12 2.576418 1_555
Na12 O10 2.576418 1_555
Na12 O1 2.638998 1_555
Na12 O3 2.638998 1_555
Na13 O4 2.356582 1_554
Na13 O6 2.356582 1_655
Na13 O13 2.576418 1_555
Na13 O11 2.576418 1_554
Na13 O0 2.638998 1_565
Na13 O2 2.638998 1_564
Na14 O14 2.390207 1_565
Na14 O8 2.390207 1_565
Na14 O7 2.406297 1_555
Na14 O5 2.406297 1_555
Na14 O10 2.677648 1_555
Na14 O12 2.677648 1_655
Na15 O15 2.390207 1_555
Na15 O9 2.390207 1_554
Na15 O4 2.406297 1_554
Na15 O6 2.406297 1_555
Na15 O13 2.677648 1_555
Na15 O11 2.677648 1_454
O0 Pb1 2.128758 1_555
O1 Pb0 2.128758 1_455
O2 Pb3 2.128758 1_655
O3 Pb2 2.128758 1_555
O4 Pb5 2.128758 1_555
O5 Pb4 2.128758 1_655
O6 Pb7 2.128758 1_455
O7 Pb6 2.128758 1_555
O8 Pb2 2.232478 1_555
O8 Pb4 2.246506 1_645
O9 Pb3 2.232478 1_555
O9 Pb5 2.246506 1_555
O10 Pb4 2.232478 1_555
O10 Pb2 2.246506 1_565
O11 Pb5 2.232478 1_555
O11 Pb3 2.246506 1_655
O12 Pb6 2.232478 1_555
O12 Pb0 2.246506 1_465
O13 Pb7 2.232478 1_555
O13 Pb1 2.246506 1_555
O14 Pb0 2.232478 1_555
O14 Pb6 2.246506 1_545
O15 Pb1 2.232478 1_555
O15 Pb7 2.246506 1_455
