# generated using pymatgen
data_Li2CrCl4
_symmetry_space_group_name_H-M   'P 1'
_cell_length_a   7.17812297
_cell_length_b   7.17812297
_cell_length_c   7.57043401
_cell_angle_alpha   62.33009159
_cell_angle_beta   62.33009159
_cell_angle_gamma   89.04726047
_symmetry_Int_Tables_number   1
_chemical_formula_structural   Li2CrCl4
_chemical_formula_sum   'Li4 Cr2 Cl8'
_cell_volume   295.94027520
_cell_formula_units_Z   2
loop_
 _symmetry_equiv_pos_site_id
 _symmetry_equiv_pos_as_xyz
  1  'x, y, z'
loop_
 _atom_site_type_symbol
 _atom_site_label
 _atom_site_symmetry_multiplicity
 _atom_site_fract_x
 _atom_site_fract_y
 _atom_site_fract_z
 _atom_site_occupancy
  Li  Li0  1  0.10545200  0.89454800  0.75000000  1
  Li  Li1  1  0.89454800  0.10545200  0.25000000  1
  Li  Li2  1  0.50000000  0.50000000  0.00000000  1
  Li  Li3  1  0.50000000  0.50000000  0.50000000  1
  Cr  Cr0  1  0.00000000  0.50000000  0.50000000  1
  Cr  Cr1  1  0.50000000  0.00000000  0.00000000  1
  Cl  Cl0  1  0.74484000  0.71880100  0.52698100  1
  Cl  Cl1  1  0.77093600  0.26801100  0.49183900  1
  Cl  Cl2  1  0.73198900  0.22906400  0.00816100  1
  Cl  Cl3  1  0.22906400  0.73198900  0.50816100  1
  Cl  Cl4  1  0.26801100  0.77093600  0.99183900  1
  Cl  Cl5  1  0.25516000  0.28119900  0.47301900  1
  Cl  Cl6  1  0.71880100  0.74484000  0.02698100  1
  Cl  Cl7  1  0.28119900  0.25516000  0.97301900  1
loop_
_geom_bond_atom_site_label_1
_geom_bond_atom_site_label_2
_geom_bond_distance
_geom_bond_site_symmetry_2
Cl0 Cr0 2.391217 1_655
Cl0 Li1 2.419913 1_565
Cl0 Li3 2.514034 1_555
Cl0 Li2 2.720654 1_556
Cl1 Cr0 2.400286 1_655
Cl1 Li1 2.437571 1_555
Cl1 Li3 2.536811 1_555
Cl1 Cr1 2.930001 1_556
Cl2 Cr1 2.400286 1_555
Cl2 Li1 2.437571 1_555
Cl2 Li2 2.536811 1_555
Cl2 Cr0 2.930001 1_654
Cl3 Cr0 2.400286 1_555
Cl3 Li0 2.437571 1_555
Cl3 Li3 2.536811 1_555
Cl3 Cr1 2.930001 1_565
Cl4 Cr1 2.400286 1_566
Cl4 Li0 2.437571 1_555
Cl4 Li2 2.536811 1_556
Cl4 Cr0 2.930001 1_556
Cl5 Cr0 2.391217 1_555
Cl5 Li0 2.419913 1_545
Cl5 Li3 2.514034 1_555
Cl5 Li2 2.720654 1_555
Cl6 Cr1 2.391217 1_565
Cl6 Li0 2.419913 1_654
Cl6 Li2 2.514034 1_555
Cl6 Li3 2.720654 1_555
Cl7 Cr1 2.391217 1_556
Cl7 Li1 2.419913 1_456
Cl7 Li2 2.514034 1_556
Cl7 Li3 2.720654 1_555
