# generated using pymatgen
data_Na15Nb10Zn2Si15(PO24)3
_symmetry_space_group_name_H-M   'P 1'
_cell_length_a   9.03877494
_cell_length_b   9.04988833
_cell_length_c   22.49953690
_cell_angle_alpha   89.97646229
_cell_angle_beta   90.07998634
_cell_angle_gamma   119.95896063
_symmetry_Int_Tables_number   1
_chemical_formula_structural   Na15Nb10Zn2Si15(PO24)3
_chemical_formula_sum   'Na15 Nb10 Zn2 Si15 P3 O72'
_cell_volume   1594.54215982
_cell_formula_units_Z   1
loop_
 _symmetry_equiv_pos_site_id
 _symmetry_equiv_pos_as_xyz
  1  'x, y, z'
loop_
 _atom_site_type_symbol
 _atom_site_label
 _atom_site_symmetry_multiplicity
 _atom_site_fract_x
 _atom_site_fract_y
 _atom_site_fract_z
 _atom_site_occupancy
  Na  Na0  1  0.63282818  0.02221235  0.24285457  1
  Na  Na1  1  0.38990752  0.37166979  0.24043570  1
  Na  Na2  1  0.98120283  0.60996734  0.23901847  1
  Na  Na3  1  0.62829502  0.60928900  0.74124868  1
  Na  Na4  1  0.97575652  0.36953681  0.74210726  1
  Na  Na5  1  0.38879477  0.01874668  0.73840901  1
  Na  Na6  1  0.02354807  0.68527550  0.58475205  1
  Na  Na7  1  0.65959719  0.97718948  0.58512775  1
  Na  Na8  1  0.02182866  0.33858328  0.08684220  1
  Na  Na9  1  0.01333162  0.01421502  0.49737659  1
  Na  Na10  1  0.99947279  0.98631388  0.99860789  1
  Na  Na11  1  0.67161383  0.33155400  0.83023191  1
  Na  Na12  1  0.66816122  0.33013375  0.33086748  1
  Na  Na13  1  0.34654189  0.67901814  0.16182214  1
  Na  Na14  1  0.33155415  0.64941488  0.66308878  1
  Nb  Nb0  1  0.00417687  0.00652190  0.35851889  1
  Nb  Nb1  1  0.99426852  0.99630717  0.85916507  1
  Nb  Nb2  1  0.99867325  0.99692237  0.64318765  1
  Nb  Nb3  1  0.00883033  0.00015882  0.14250244  1
  Nb  Nb4  1  0.66398401  0.33796488  0.97878341  1
  Nb  Nb5  1  0.66574368  0.33161235  0.47896636  1
  Nb  Nb6  1  0.33246027  0.66645642  0.01998666  1
  Nb  Nb7  1  0.33465282  0.66512012  0.51913165  1
  Nb  Nb8  1  0.32884116  0.66545084  0.31357298  1
  Nb  Nb9  1  0.33257460  0.67090110  0.81404572  1
  Zn  Zn0  1  0.67232912  0.33489243  0.67925284  1
  Zn  Zn1  1  0.66564892  0.33041205  0.17998528  1
  Si  Si0  1  0.28937891  0.99768747  0.25131587  1
  Si  Si1  1  0.00252169  0.29079299  0.24933487  1
  Si  Si2  1  0.00239884  0.71166608  0.75116516  1
  Si  Si3  1  0.70733640  0.99548897  0.75056540  1
  Si  Si4  1  0.96066164  0.33627004  0.58595009  1
  Si  Si5  1  0.37834548  0.04544220  0.58578167  1
  Si  Si6  1  0.65967568  0.61665994  0.58708763  1
  Si  Si7  1  0.95593009  0.62236800  0.08634457  1
  Si  Si8  1  0.38080903  0.33816836  0.08711155  1
  Si  Si9  1  0.62056771  0.66262127  0.91612429  1
  Si  Si10  1  0.03960329  0.37595404  0.91719469  1
  Si  Si11  1  0.33651186  0.96074187  0.91737666  1
  Si  Si12  1  0.62402335  0.96073963  0.41622789  1
  Si  Si13  1  0.33935192  0.37865168  0.41522766  1
  Si  Si14  1  0.03866426  0.66448619  0.41755609  1
  P  P0  1  0.71388297  0.72142382  0.25138780  1
  P  P1  1  0.27972397  0.28645259  0.75229317  1
  P  P2  1  0.66357560  0.03952144  0.08559483  1
  O  O0  1  0.18030784  0.00553951  0.30811149  1
  O  O1  1  0.81806912  0.81521949  0.30734973  1
  O  O2  1  0.99082864  0.17189512  0.30658758  1
  O  O3  1  0.18578762  0.18397524  0.80803355  1
  O  O4  1  0.00012504  0.82591958  0.80733285  1
  O  O5  1  0.82696135  0.00784191  0.80753668  1
  O  O6  1  0.80361306  0.97437817  0.69065901  1
  O  O7  1  0.16885109  0.19303169  0.69604939  1
  O  O8  1  0.02769731  0.82819557  0.69057648  1
  O  O9  1  0.80409689  0.83244548  0.19544493  1
  O  O10  1  0.02403584  0.19604012  0.18940603  1
  O  O11  1  0.16567063  0.97245429  0.19236784  1
  O  O12  1  0.89944197  0.38465997  0.64626206  1
  O  O13  1  0.49208066  0.11079774  0.64512684  1
  O  O14  1  0.63200005  0.51979890  0.64878147  1
  O  O15  1  0.89092470  0.50935225  0.14581590  1
  O  O16  1  0.63654936  0.10331294  0.14514640  1
  O  O17  1  0.47847149  0.36219271  0.14844901  1
  O  O18  1  0.47815543  0.31327626  0.02936871  1
  O  O19  1  0.83483247  0.51849614  0.02901076  1
  O  O20  1  0.69063601  0.16175073  0.03328591  1
  O  O21  1  0.47589766  0.16525183  0.52797082  1
  O  O22  1  0.69546731  0.52314496  0.53077993  1
  O  O23  1  0.82964325  0.30240285  0.53012502  1
  O  O24  1  0.51973646  0.68324915  0.97245921  1
  O  O25  1  0.15801582  0.47085849  0.97557533  1
  O  O26  1  0.31123742  0.83431215  0.97280807  1
  O  O27  1  0.52849996  0.84522532  0.47485984  1
  O  O28  1  0.31771837  0.48187091  0.47109533  1
  O  O29  1  0.15816209  0.68965219  0.47551811  1
  O  O30  1  0.13849805  0.64310328  0.35816621  1
  O  O31  1  0.50515302  0.86025224  0.35702328  1
  O  O32  1  0.35674155  0.49063105  0.35467635  1
  O  O33  1  0.13820313  0.49642481  0.85793886  1
  O  O34  1  0.35860291  0.86512691  0.85676456  1
  O  O35  1  0.50775082  0.64261872  0.85544709  1
  O  O36  1  0.02016354  0.83383353  0.41089340  1
  O  O37  1  0.81205539  0.97737661  0.41114520  1
  O  O38  1  0.16674397  0.19048970  0.41215488  1
  O  O39  1  0.02487219  0.18916225  0.91132880  1
  O  O40  1  0.16739129  0.97984538  0.91144542  1
  O  O41  1  0.81043839  0.83259430  0.91217785  1
  O  O42  1  0.97042604  0.15883887  0.58945478  1
  O  O43  1  0.18493999  0.02261384  0.58887898  1
  O  O44  1  0.83867503  0.81080970  0.58882421  1
  O  O45  1  0.96676556  0.81009029  0.08921285  1
  O  O46  1  0.83244572  0.02872503  0.08732296  1
  O  O47  1  0.18284010  0.16447561  0.08781891  1
  O  O48  1  0.68600089  0.16114586  0.75071665  1
  O  O49  1  0.45625925  0.30599330  0.75060406  1
  O  O50  1  0.83383193  0.52741827  0.75284430  1
  O  O51  1  0.69435411  0.54483459  0.25016915  1
  O  O52  1  0.83661143  0.31252744  0.25012370  1
  O  O53  1  0.47490208  0.16452252  0.25024899  1
  O  O54  1  0.63953338  0.49344562  0.92285306  1
  O  O55  1  0.85194398  0.35660740  0.92377935  1
  O  O56  1  0.50840830  0.14460368  0.92437676  1
  O  O57  1  0.64039621  0.14724894  0.42163537  1
  O  O58  1  0.50816586  0.36186441  0.42295740  1
  O  O59  1  0.85443530  0.49247880  0.42316627  1
  O  O60  1  0.34104435  0.49681552  0.07784173  1
  O  O61  1  0.15082637  0.65323232  0.07555313  1
  O  O62  1  0.51063882  0.85695990  0.07529555  1
  O  O63  1  0.34407639  0.84863318  0.57601259  1
  O  O64  1  0.50710015  0.66334022  0.57672597  1
  O  O65  1  0.15199819  0.49986459  0.57398802  1
  O  O66  1  0.29842336  0.81874636  0.25248725  1
  O  O67  1  0.53423011  0.71010161  0.25266956  1
  O  O68  1  0.18355638  0.47786682  0.25230025  1
  O  O69  1  0.28835300  0.46442757  0.75245444  1
  O  O70  1  0.18035731  0.69912992  0.75277400  1
  O  O71  1  0.52135175  0.81365943  0.75232330  1
loop_
_geom_bond_atom_site_label_1
_geom_bond_atom_site_label_2
_geom_bond_distance
_geom_bond_site_symmetry_2
Na0 O16 2.312348 1_555
Na0 O52 2.342747 1_555
Na0 O53 2.358167 1_555
Na0 O67 2.511391 1_545
Na0 O66 2.648855 1_545
Na0 O31 2.897302 1_545
Na1 O17 2.237186 1_555
Na1 O53 2.364509 1_555
Na1 O51 2.401640 1_555
Na1 O68 2.503133 1_555
Na1 O67 2.677184 1_555
Na1 O32 2.860494 1_555
Na2 O15 2.268731 1_555
Na2 O52 2.345849 1_555
Na2 O51 2.368143 1_555
Na2 O66 2.543685 1_655
Na2 O68 2.654414 1_655
Na3 O14 2.239205 1_555
Na3 O50 2.332750 1_555
Na3 O49 2.394535 1_555
Na3 O71 2.490760 1_555
Na3 O69 2.683685 1_555
Na3 O35 2.866481 1_555
Na4 O12 2.287971 1_555
Na4 O48 2.349790 1_555
Na4 O50 2.361627 1_555
Na4 O69 2.519918 1_655
Na4 O70 2.620049 1_655
Na4 O33 2.928212 1_655
Na5 O13 2.279870 1_555
Na5 O48 2.344065 1_555
Na5 O49 2.371010 1_555
Na5 O70 2.564898 1_545
Na5 O71 2.682887 1_545
Na5 O34 2.952725 1_545
Na5 O8 3.025751 1_545
Na6 O44 2.447026 1_455
Na6 O65 2.483749 1_555
Na6 O63 2.518228 1_555
Na6 O43 2.647378 1_565
Na6 O8 2.701354 1_555
Na6 O29 2.735421 1_555
Na6 O12 2.743758 1_455
Na6 O22 2.840264 1_455
Na7 O42 2.447813 1_565
Na7 O64 2.468305 1_555
Na7 O63 2.492742 1_555
Na7 O44 2.706997 1_555
Na7 O6 2.712441 1_555
Na7 O13 2.722611 1_565
Na7 O27 2.750721 1_555
Na7 O23 2.835539 1_565
Na8 O46 2.449407 1_455
Na8 O61 2.493327 1_555
Na8 O60 2.508275 1_555
Na8 O47 2.625141 1_555
Na8 O10 2.648173 1_555
Na8 O15 2.716868 1_455
Na8 O25 2.783874 1_554
Na8 O20 2.860298 1_455
Na9 O38 2.437186 1_555
Na9 O43 2.554161 1_555
Na9 O36 2.560964 1_545
Na9 O37 2.563224 1_445
Na9 O42 2.582028 1_455
Na9 O44 2.686582 1_445
Na10 O40 2.500039 1_655
Na10 O41 2.501054 1_555
Na10 O45 2.512903 1_556
Na10 O47 2.588420 1_666
Na10 O39 2.618462 1_665
Na10 O46 2.645478 1_566
Na11 O50 2.394236 1_555
Na11 O48 2.408143 1_555
Na11 O49 2.567725 1_555
Na11 O55 2.599995 1_555
Na11 O54 2.646107 1_555
Na11 O56 2.653017 1_555
Na12 O52 2.427818 1_555
Na12 O53 2.442623 1_555
Na12 O57 2.560630 1_555
Na12 O51 2.582036 1_555
Na12 O59 2.613064 1_555
Na12 O58 2.624989 1_555
Na13 O62 2.490623 1_555
Na13 O60 2.492415 1_555
Na13 O66 2.550171 1_555
Na13 O61 2.555372 1_555
Na13 O67 2.578633 1_555
Na13 O68 2.637259 1_555
Na14 O64 2.473456 1_555
Na14 O65 2.506791 1_555
Na14 O69 2.518832 1_555
Na14 O71 2.574776 1_555
Na14 O70 2.600863 1_555
Na14 O63 2.625936 1_555
Nb0 O2 1.948882 1_455
Nb0 O0 1.959601 1_555
Nb0 O38 1.985114 1_555
Nb0 O37 2.008777 1_445
Nb0 O36 2.018773 1_545
Nb0 O1 2.059130 1_445
Nb1 O5 1.949311 1_565
Nb1 O4 1.955436 1_655
Nb1 O41 1.980915 1_555
Nb1 O39 2.004673 1_665
Nb1 O40 2.020406 1_655
Nb1 O3 2.066937 1_665
Nb2 O8 1.983743 1_655
Nb2 O6 1.984132 1_555
Nb2 O44 1.997095 1_555
Nb2 O43 1.999070 1_665
Nb2 O42 2.011296 1_565
Nb2 O7 2.049515 1_665
Nb3 O11 1.918767 1_545
Nb3 O47 1.966422 1_555
Nb3 O45 1.971829 1_445
Nb3 O10 2.008194 1_555
Nb3 O9 2.084830 1_445
Nb3 O46 2.134442 1_455
Nb4 O18 1.948556 1_556
Nb4 O19 1.951382 1_556
Nb4 O54 1.980068 1_555
Nb4 O56 2.019241 1_555
Nb4 O55 2.041032 1_555
Nb4 O20 2.118062 1_556
Nb5 O21 1.962284 1_555
Nb5 O22 1.992837 1_555
Nb5 O23 1.993890 1_555
Nb5 O58 2.018867 1_555
Nb5 O57 2.029613 1_555
Nb5 O59 2.032020 1_555
Nb6 O26 1.939152 1_554
Nb6 O24 1.944217 1_554
Nb6 O25 1.956393 1_554
Nb6 O61 2.020416 1_555
Nb6 O60 2.043149 1_555
Nb6 O62 2.082709 1_555
Nb7 O28 1.920747 1_555
Nb7 O27 1.967255 1_555
Nb7 O29 1.976421 1_555
Nb7 O65 2.005955 1_555
Nb7 O64 2.031866 1_555
Nb7 O63 2.064813 1_555
Nb8 O30 1.914344 1_555
Nb8 O31 1.947927 1_555
Nb8 O32 1.954108 1_555
Nb8 O66 2.065798 1_555
Nb8 O68 2.068157 1_555
Nb8 O67 2.178273 1_555
Nb9 O34 1.912196 1_555
Nb9 O33 1.946292 1_555
Nb9 O35 1.959787 1_555
Nb9 O70 2.050417 1_555
Nb9 O71 2.076681 1_555
Nb9 O69 2.196882 1_555
O0 Si0 1.638143 1_545
O1 P0 1.546586 1_555
O2 Si1 1.647418 1_655
O3 P1 1.539290 1_555
O4 Si2 1.639807 1_555
O5 Si3 1.643237 1_545
O6 Si3 1.667354 1_555
O7 P1 1.572133 1_555
O8 Si2 1.667821 1_555
O9 P0 1.562774 1_555
O10 Si1 1.661162 1_555
O11 Si0 1.674102 1_555
O12 Si4 1.607485 1_555
O12 Zn0 2.012079 1_555
O13 Si5 1.605945 1_555
O13 Zn0 2.013604 1_555
O14 Si6 1.593332 1_555
O14 Zn0 2.002678 1_555
O15 Si7 1.607056 1_555
O15 Zn1 2.017339 1_555
O16 P2 1.526645 1_555
O16 Zn1 2.090071 1_555
O17 Si8 1.592562 1_555
O17 Zn1 1.982682 1_555
O18 Si8 1.647496 1_555
O19 Si7 1.647788 1_555
O20 P2 1.548575 1_555
O21 Si5 1.640780 1_555
O22 Si6 1.643590 1_555
O23 Si4 1.645496 1_555
O24 Si9 1.626472 1_555
O25 Si10 1.639354 1_555
O26 Si11 1.629523 1_555
O27 Si12 1.636813 1_555
O28 Si13 1.635526 1_555
O29 Si14 1.633971 1_555
O30 Si14 1.677874 1_555
O31 Si12 1.666426 1_555
O32 Si13 1.657749 1_555
O33 Si10 1.670955 1_555
O34 Si11 1.680094 1_555
O35 Si9 1.657818 1_555
O36 Si14 1.629395 1_555
O37 Si12 1.633790 1_555
O38 Si13 1.638581 1_555
O39 Si10 1.633426 1_555
O40 Si11 1.627209 1_555
O41 Si9 1.638006 1_555
O42 Si4 1.653422 1_555
O43 Si5 1.656255 1_555
O44 Si6 1.693236 1_555
O45 Si7 1.653419 1_555
O46 P2 1.577870 1_555
O47 Si8 1.692294 1_555
O48 Si3 1.604210 1_545
O48 Zn0 2.294441 1_555
O49 P1 1.515649 1_555
O49 Zn0 2.440924 1_555
O50 Si2 1.601846 1_655
O50 Zn0 2.315954 1_555
O51 P0 1.517944 1_555
O51 Zn1 2.413493 1_555
O52 Si1 1.607034 1_655
O52 Zn1 2.268755 1_555
O53 Si0 1.601113 1_545
O53 Zn1 2.268515 1_555
O54 Si9 1.630399 1_555
O55 Si10 1.622899 1_655
O56 Si11 1.620182 1_545
O57 Si12 1.623671 1_545
O58 Si13 1.616284 1_555
O59 Si14 1.619721 1_655
O60 Si8 1.658004 1_555
O61 Si7 1.658308 1_455
O62 P2 1.553264 1_565
O63 Si5 1.663037 1_565
O64 Si6 1.647914 1_555
O65 Si4 1.642871 1_455
O66 Si0 1.661928 1_555
O67 P0 1.575481 1_555
O68 Si1 1.667691 1_555
O69 P1 1.573162 1_555
O70 Si2 1.668423 1_555
O71 Si3 1.665131 1_555
