# generated using pymatgen
data_Na4LaSi2SnPO12
_symmetry_space_group_name_H-M   'P 1'
_cell_length_a   9.52699859
_cell_length_b   9.52699823
_cell_length_c   22.61520373
_cell_angle_alpha   90.68950425
_cell_angle_beta   89.31049576
_cell_angle_gamma   120.06399762
_symmetry_Int_Tables_number   1
_chemical_formula_structural   Na4LaSi2SnPO12
_chemical_formula_sum   'Na24 La6 Si12 Sn6 P6 O72'
_cell_volume   1776.31910406
_cell_formula_units_Z   6
loop_
 _symmetry_equiv_pos_site_id
 _symmetry_equiv_pos_as_xyz
  1  'x, y, z'
loop_
 _atom_site_type_symbol
 _atom_site_label
 _atom_site_symmetry_multiplicity
 _atom_site_fract_x
 _atom_site_fract_y
 _atom_site_fract_z
 _atom_site_occupancy
  Na  Na0  1  0.64272690  0.00543928  0.25111872  1
  Na  Na1  1  0.36549163  0.36954610  0.24437844  1
  Na  Na2  1  0.99300581  0.62663757  0.24982135  1
  Na  Na3  1  0.63045390  0.63450837  0.74437844  1
  Na  Na4  1  0.99456072  0.35727310  0.75111872  1
  Na  Na5  1  0.37336243  0.00699419  0.74982135  1
  Na  Na6  1  0.30939390  0.33877228  0.58445172  1
  Na  Na7  1  0.03215863  0.70287910  0.57771144  1
  Na  Na8  1  0.65967281  0.95997057  0.58315435  1
  Na  Na9  1  0.29712090  0.96784137  0.07771144  1
  Na  Na10  1  0.66122772  0.69060610  0.08445172  1
  Na  Na11  1  0.04002943  0.34032719  0.08315435  1
  Na  Na12  1  0.97605990  0.67210628  0.91778572  1
  Na  Na13  1  0.69882463  0.03621310  0.91104544  1
  Na  Na14  1  0.32633881  0.29330457  0.91648835  1
  Na  Na15  1  0.96378690  0.30117537  0.41104544  1
  Na  Na16  1  0.32789372  0.02394010  0.41778572  1
  Na  Na17  1  0.70669543  0.67366119  0.41648835  1
  Na  Na18  1  0.99223879  0.98881482  0.50040670  1
  Na  Na19  1  0.01118518  0.00776121  0.00040670  1
  Na  Na20  1  0.65890579  0.32214782  0.83373970  1
  Na  Na21  1  0.67785218  0.34109421  0.33373970  1
  Na  Na22  1  0.32557179  0.65548182  0.16707370  1
  Na  Na23  1  0.34451818  0.67442821  0.66707370  1
  La  La0  1  0.99555643  0.99730460  0.34581235  1
  La  La1  1  0.00269540  0.00444357  0.84581235  1
  La  La2  1  0.66222343  0.33063760  0.67914535  1
  La  La3  1  0.66936240  0.33777657  0.17914535  1
  La  La4  1  0.32888943  0.66397160  0.01247935  1
  La  La5  1  0.33602840  0.67111057  0.51247935  1
  Si  Si0  1  0.68650822  0.70195286  0.25085161  1
  Si  Si1  1  0.01334589  0.31104560  0.25144612  1
  Si  Si2  1  0.29804714  0.31349178  0.75085161  1
  Si  Si3  1  0.68895440  0.98665411  0.75144612  1
  Si  Si4  1  0.35317522  0.03528586  0.58418461  1
  Si  Si5  1  0.68001289  0.64437860  0.58477912  1
  Si  Si6  1  0.96471414  0.64682478  0.08418461  1
  Si  Si7  1  0.35562140  0.31998711  0.08477912  1
  Si  Si8  1  0.01984122  0.36861986  0.91751861  1
  Si  Si9  1  0.34667889  0.97771260  0.91811312  1
  Si  Si10  1  0.63138014  0.98015878  0.41751861  1
  Si  Si11  1  0.02228740  0.65332111  0.41811312  1
  Sn  Sn0  1  0.99911929  0.00161884  0.64978284  1
  Sn  Sn1  1  0.99838116  0.00088071  0.14978284  1
  Sn  Sn2  1  0.66578629  0.33495184  0.98311584  1
  Sn  Sn3  1  0.66504816  0.33421371  0.48311584  1
  Sn  Sn4  1  0.33245229  0.66828584  0.31644984  1
  Sn  Sn5  1  0.33171416  0.66754771  0.81644984  1
  P  P0  1  0.29535031  0.98242436  0.24911418  1
  P  P1  1  0.01757564  0.70464969  0.74911418  1
  P  P2  1  0.96201731  0.31575736  0.58244718  1
  P  P3  1  0.68424264  0.03798269  0.08244718  1
  P  P4  1  0.62868331  0.64909136  0.91578118  1
  P  P5  1  0.35090864  0.37131669  0.41578118  1
  O  O0  1  0.23124247  0.01318772  0.30712981  1
  O  O1  1  0.78878262  0.76768914  0.31099709  1
  O  O2  1  0.98704137  0.21372149  0.31187403  1
  O  O3  1  0.23231086  0.21121738  0.81099709  1
  O  O4  1  0.98681228  0.76875753  0.80712981  1
  O  O5  1  0.78627851  0.01295863  0.81187403  1
  O  O6  1  0.78826884  0.96121807  0.69335174  1
  O  O7  1  0.17254148  0.21303112  0.69368333  1
  O  O8  1  0.03506330  0.81773491  0.69542356  1
  O  O9  1  0.78696888  0.82745852  0.19368333  1
  O  O10  1  0.03878193  0.21173116  0.19335174  1
  O  O11  1  0.18226509  0.96493670  0.19542356  1
  O  O12  1  0.89790947  0.34652072  0.64046281  1
  O  O13  1  0.45544962  0.10102214  0.64433009  1
  O  O14  1  0.65370837  0.54705449  0.64520703  1
  O  O15  1  0.89897786  0.54455038  0.14433009  1
  O  O16  1  0.65347928  0.10209053  0.14046281  1
  O  O17  1  0.45294551  0.34629163  0.14520703  1
  O  O18  1  0.45493584  0.29455107  0.02668474  1
  O  O19  1  0.83920848  0.54636412  0.02701633  1
  O  O20  1  0.70173030  0.15106791  0.02875656  1
  O  O21  1  0.45363588  0.16079152  0.52701633  1
  O  O22  1  0.70544893  0.54506416  0.52668474  1
  O  O23  1  0.84893209  0.29826970  0.52875656  1
  O  O24  1  0.56457547  0.67985472  0.97379681  1
  O  O25  1  0.12211562  0.43435614  0.97766409  1
  O  O26  1  0.32037437  0.88038849  0.97854103  1
  O  O27  1  0.56564386  0.87788438  0.47766409  1
  O  O28  1  0.32014528  0.43542453  0.47379681  1
  O  O29  1  0.11961151  0.67962563  0.47854103  1
  O  O30  1  0.12160184  0.62788507  0.36001874  1
  O  O31  1  0.50587448  0.87969812  0.36035033  1
  O  O32  1  0.36839630  0.48440191  0.36209056  1
  O  O33  1  0.12030188  0.49412552  0.86035033  1
  O  O34  1  0.37211493  0.87839816  0.86001874  1
  O  O35  1  0.51559809  0.63160370  0.86209056  1
  O  O36  1  0.99645724  0.80982323  0.41425613  1
  O  O37  1  0.81779088  0.01800987  0.41286150  1
  O  O38  1  0.21143885  0.19547405  0.40926065  1
  O  O39  1  0.98199013  0.18220912  0.91286150  1
  O  O40  1  0.19017677  0.00354276  0.91425613  1
  O  O41  1  0.80452595  0.78856115  0.90926065  1
  O  O42  1  0.95916238  0.14881817  0.58447055  1
  O  O43  1  0.17929974  0.03947515  0.58742255  1
  O  O44  1  0.85468269  0.82214820  0.58653675  1
  O  O45  1  0.96052485  0.82070026  0.08742255  1
  O  O46  1  0.85118183  0.04083762  0.08447055  1
  O  O47  1  0.17785180  0.14531731  0.08653675  1
  O  O48  1  0.66312424  0.14315623  0.74758913  1
  O  O49  1  0.48445788  0.35134287  0.74619450  1
  O  O50  1  0.87810585  0.52880705  0.74259365  1
  O  O51  1  0.64865713  0.51554212  0.24619450  1
  O  O52  1  0.85684377  0.33687576  0.24758913  1
  O  O53  1  0.47119295  0.12189415  0.24259365  1
  O  O54  1  0.62582938  0.48215117  0.91780355  1
  O  O55  1  0.84596674  0.37280815  0.92075555  1
  O  O56  1  0.52134969  0.15548120  0.91986975  1
  O  O57  1  0.62719185  0.15403326  0.42075555  1
  O  O58  1  0.51784883  0.37417062  0.41780355  1
  O  O59  1  0.84451880  0.47865031  0.41986975  1
  O  O60  1  0.32979024  0.47649023  0.08092313  1
  O  O61  1  0.15112388  0.68467687  0.07952850  1
  O  O62  1  0.54477185  0.86214105  0.07592765  1
  O  O63  1  0.31532313  0.84887612  0.57952850  1
  O  O64  1  0.52350977  0.67020976  0.58092313  1
  O  O65  1  0.13785895  0.45522815  0.57592765  1
  O  O66  1  0.29249538  0.81548517  0.25113755  1
  O  O67  1  0.51263274  0.70614215  0.25408955  1
  O  O68  1  0.18801569  0.48881520  0.25320375  1
  O  O69  1  0.29385785  0.48736726  0.75408955  1
  O  O70  1  0.18451483  0.70750462  0.75113755  1
  O  O71  1  0.51118480  0.81198431  0.75320375  1
loop_
_geom_bond_atom_site_label_1
_geom_bond_atom_site_label_2
_geom_bond_distance
_geom_bond_site_symmetry_2
Na0 O53 2.401673 1_555
Na0 O67 2.476463 1_545
Na0 O16 2.660015 1_555
Na0 O31 2.768774 1_545
Na0 O52 2.772449 1_555
Na0 O66 2.891062 1_545
Na0 O9 2.947773 1_545
Na1 O51 2.335754 1_555
Na1 O17 2.429267 1_555
Na1 O68 2.470056 1_555
Na1 O67 2.789813 1_555
Na1 O32 2.861140 1_555
Na1 O10 2.938729 1_555
Na1 O53 2.993266 1_555
Na2 O52 2.390871 1_555
Na2 O66 2.497241 1_655
Na2 O15 2.531851 1_555
Na2 O68 2.762523 1_655
Na2 O30 2.787476 1_655
Na2 O51 2.900828 1_555
Na3 O49 2.335754 1_555
Na3 O14 2.429267 1_555
Na3 O71 2.470056 1_555
Na3 O69 2.789814 1_555
Na3 O35 2.861140 1_555
Na3 O6 2.938729 1_555
Na3 O50 2.993266 1_555
Na4 O50 2.401673 1_555
Na4 O69 2.476463 1_655
Na4 O12 2.660015 1_555
Na4 O33 2.768774 1_655
Na4 O48 2.772449 1_555
Na4 O70 2.891062 1_655
Na4 O7 2.947773 1_655
Na5 O48 2.390871 1_555
Na5 O70 2.497241 1_545
Na5 O13 2.531851 1_555
Na5 O71 2.762523 1_545
Na5 O34 2.787476 1_545
Na5 O49 2.900828 1_555
Na6 O65 2.401688 1_555
Na6 O43 2.476463 1_555
Na6 O28 2.659998 1_555
Na6 O7 2.768774 1_555
Na6 O64 2.772454 1_555
Na6 O42 2.891062 1_455
Na6 O21 2.947773 1_555
Na7 O63 2.335747 1_555
Na7 O29 2.429241 1_555
Na7 O44 2.470056 1_455
Na7 O43 2.789813 1_565
Na7 O8 2.861140 1_555
Na7 O22 2.938729 1_455
Na7 O65 2.993250 1_555
Na8 O64 2.390862 1_555
Na8 O42 2.497241 1_565
Na8 O27 2.531831 1_555
Na8 O44 2.762523 1_555
Na8 O6 2.787476 1_555
Na8 O63 2.900838 1_555
Na9 O61 2.335747 1_555
Na9 O26 2.429241 1_554
Na9 O47 2.470056 1_565
Na9 O45 2.789814 1_455
Na9 O11 2.861140 1_555
Na9 O18 2.938729 1_565
Na9 O62 2.993250 1_555
Na10 O62 2.401688 1_555
Na10 O45 2.476463 1_555
Na10 O24 2.659998 1_554
Na10 O9 2.768774 1_555
Na10 O60 2.772454 1_555
Na10 O46 2.891062 1_565
Na10 O19 2.947773 1_555
Na11 O60 2.390862 1_555
Na11 O46 2.497241 1_455
Na11 O25 2.531831 1_554
Na11 O47 2.762523 1_555
Na11 O10 2.787476 1_555
Na11 O61 2.900838 1_555
Na12 O41 2.401673 1_555
Na12 O55 2.476471 1_555
Na12 O4 2.660015 1_555
Na12 O19 2.768753 1_556
Na12 O40 2.772449 1_665
Na12 O54 2.891055 1_555
Na12 O33 2.947773 1_655
Na13 O39 2.335754 1_555
Na13 O5 2.429267 1_555
Na13 O56 2.470038 1_555
Na13 O55 2.789803 1_555
Na13 O20 2.861114 1_556
Na13 O34 2.938729 1_545
Na13 O41 2.993266 1_545
Na14 O40 2.390871 1_555
Na14 O54 2.497247 1_555
Na14 O3 2.531851 1_555
Na14 O56 2.762539 1_555
Na14 O18 2.787462 1_556
Na14 O39 2.900828 1_455
Na15 O37 2.335754 1_555
Na15 O2 2.429267 1_555
Na15 O59 2.470038 1_555
Na15 O57 2.789803 1_555
Na15 O23 2.861114 1_555
Na15 O30 2.938729 1_655
Na15 O38 2.993266 1_655
Na16 O38 2.401673 1_555
Na16 O57 2.476471 1_555
Na16 O0 2.660015 1_555
Na16 O21 2.768753 1_555
Na16 O36 2.772449 1_445
Na16 O58 2.891055 1_555
Na16 O31 2.947773 1_545
Na17 O36 2.390871 1_555
Na17 O58 2.497247 1_555
Na17 O1 2.531851 1_555
Na17 O59 2.762539 1_555
Na17 O22 2.787462 1_555
Na17 O37 2.900828 1_565
Na18 O44 2.441486 1_555
Na18 O42 2.536597 1_565
Na18 O43 2.545828 1_665
Na18 O36 2.586937 1_555
Na18 O37 2.704609 1_565
Na18 O38 2.891516 1_665
Na19 O47 2.441486 1_555
Na19 O46 2.536597 1_455
Na19 O45 2.545828 1_445
Na19 O40 2.586937 1_554
Na19 O39 2.704609 1_454
Na19 O41 2.891516 1_444
Na20 O56 2.441486 1_555
Na20 O54 2.536597 1_555
Na20 O55 2.545828 1_555
Na20 O48 2.586937 1_555
Na20 O49 2.704609 1_555
Na20 O50 2.891516 1_555
Na21 O59 2.441486 1_555
Na21 O58 2.536597 1_555
Na21 O57 2.545828 1_555
Na21 O52 2.586937 1_555
Na21 O51 2.704609 1_555
Na21 O53 2.891516 1_555
Na22 O68 2.441486 1_555
Na22 O66 2.536597 1_555
Na22 O67 2.545828 1_555
Na22 O60 2.586937 1_555
Na22 O61 2.704609 1_555
Na22 O62 2.891516 1_555
Na23 O71 2.441486 1_555
Na23 O70 2.536597 1_555
Na23 O69 2.545828 1_555
Na23 O64 2.586937 1_555
Na23 O63 2.704609 1_555
Na23 O65 2.891516 1_555
La0 O1 2.228036 1_555
La0 O2 2.248082 1_565
La0 O0 2.333541 1_665
La0 O37 2.339245 1_565
La0 O36 2.380855 1_555
La0 O38 2.443095 1_665
La1 O3 2.228036 1_555
La1 O5 2.248082 1_455
La1 O4 2.333541 1_445
La1 O39 2.339245 1_455
La1 O40 2.380855 1_555
La1 O41 2.443095 1_445
La2 O13 2.228036 1_555
La2 O14 2.248082 1_555
La2 O12 2.333541 1_555
La2 O49 2.339245 1_555
La2 O48 2.380855 1_555
La2 O50 2.443095 1_555
La3 O15 2.228036 1_555
La3 O17 2.248082 1_555
La3 O16 2.333541 1_555
La3 O51 2.339245 1_555
La3 O52 2.380855 1_555
La3 O53 2.443095 1_555
La4 O25 2.228036 1_554
La4 O26 2.248082 1_554
La4 O24 2.333541 1_554
La4 O61 2.339245 1_555
La4 O60 2.380855 1_555
La4 O62 2.443095 1_555
La5 O27 2.228036 1_555
La5 O29 2.248082 1_555
La5 O28 2.333541 1_555
La5 O63 2.339245 1_555
La5 O64 2.380855 1_555
La5 O65 2.443095 1_555
O0 P0 1.526815 1_545
O1 Si0 1.609893 1_555
O2 Si1 1.606090 1_655
O3 Si2 1.609893 1_555
O4 P1 1.526815 1_655
O5 Si3 1.606090 1_545
O6 Si3 1.694762 1_555
O6 Sn0 2.083504 1_565
O7 Si2 1.696480 1_555
O7 Sn0 2.104595 1_455
O8 P1 1.584166 1_555
O8 Sn0 2.214669 1_465
O9 Si0 1.696480 1_555
O9 Sn1 2.104595 1_565
O10 Si1 1.694762 1_555
O10 Sn1 2.083504 1_455
O11 P0 1.584166 1_555
O11 Sn1 2.214669 1_465
O12 P2 1.526815 1_555
O13 Si4 1.609893 1_555
O14 Si5 1.606090 1_555
O15 Si6 1.609893 1_555
O16 P3 1.526815 1_555
O17 Si7 1.606090 1_555
O18 Si7 1.694762 1_555
O18 Sn2 2.083504 1_554
O19 Si6 1.696480 1_555
O19 Sn2 2.104595 1_554
O20 P3 1.584166 1_555
O20 Sn2 2.214669 1_554
O21 Si4 1.696480 1_555
O21 Sn3 2.104595 1_555
O22 Si5 1.694762 1_555
O22 Sn3 2.083504 1_555
O23 P2 1.584166 1_555
O23 Sn3 2.214669 1_555
O24 P4 1.526815 1_555
O25 Si8 1.609893 1_555
O26 Si9 1.606090 1_555
O27 Si10 1.609893 1_555
O28 P5 1.526815 1_555
O29 Si11 1.606090 1_555
O30 Si11 1.694762 1_555
O30 Sn4 2.083504 1_555
O31 Si10 1.696480 1_555
O31 Sn4 2.104595 1_555
O32 P5 1.584166 1_555
O32 Sn4 2.214669 1_555
O33 Si8 1.696480 1_555
O33 Sn5 2.104595 1_555
O34 Si9 1.694762 1_555
O34 Sn5 2.083504 1_555
O35 P4 1.584166 1_555
O35 Sn5 2.214669 1_555
O36 Si11 1.631717 1_655
O37 Si10 1.627831 1_545
O38 P5 1.536960 1_555
O39 Si8 1.627831 1_655
O40 Si9 1.631717 1_545
O41 P4 1.536960 1_555
O42 P2 1.578189 1_555
O42 Sn0 2.211669 1_555
O43 Si4 1.677569 1_555
O43 Sn0 2.097455 1_455
O44 Si5 1.677878 1_555
O44 Sn0 2.119900 1_565
O45 Si6 1.677569 1_555
O45 Sn1 2.097455 1_565
O46 P3 1.578189 1_555
O46 Sn1 2.211669 1_555
O47 Si7 1.677878 1_555
O47 Sn1 2.119900 1_455
O48 Si3 1.631717 1_545
O49 Si2 1.627831 1_555
O50 P1 1.536960 1_655
O51 Si0 1.627831 1_555
O52 Si1 1.631717 1_655
O53 P0 1.536960 1_545
O54 P4 1.578202 1_555
O54 Sn2 2.211669 1_555
O55 Si8 1.677554 1_655
O55 Sn2 2.097455 1_555
O56 Si9 1.677877 1_545
O56 Sn2 2.119900 1_555
O57 Si10 1.677554 1_545
O57 Sn3 2.097455 1_555
O58 P5 1.578202 1_555
O58 Sn3 2.211669 1_555
O59 Si11 1.677877 1_655
O59 Sn3 2.119900 1_555
O60 Si7 1.631730 1_555
O61 Si6 1.627817 1_455
O62 P3 1.536954 1_565
O63 Si4 1.627817 1_565
O64 Si5 1.631730 1_555
O65 P2 1.536954 1_455
O66 P0 1.578189 1_555
O66 Sn4 2.211669 1_555
O67 Si0 1.677569 1_555
O67 Sn4 2.097455 1_555
O68 Si1 1.677878 1_555
O68 Sn4 2.119900 1_555
O69 Si2 1.677569 1_555
O69 Sn5 2.097455 1_555
O70 P1 1.578189 1_555
O70 Sn5 2.211669 1_555
O71 Si3 1.677878 1_555
O71 Sn5 2.119900 1_555
