# generated using pymatgen
data_Ba2LaMgTa(CuO4)2
_symmetry_space_group_name_H-M   'P 1'
_cell_length_a   4.46421450
_cell_length_b   4.46086857
_cell_length_c   11.72298034
_cell_angle_alpha   90.00661483
_cell_angle_beta   90.00160308
_cell_angle_gamma   85.34463442
_symmetry_Int_Tables_number   1
_chemical_formula_structural   Ba2LaMgTa(CuO4)2
_chemical_formula_sum   'Ba2 La1 Mg1 Ta1 Cu2 O8'
_cell_volume   232.68445657
_cell_formula_units_Z   1
loop_
 _symmetry_equiv_pos_site_id
 _symmetry_equiv_pos_as_xyz
  1  'x, y, z'
loop_
 _atom_site_type_symbol
 _atom_site_label
 _atom_site_symmetry_multiplicity
 _atom_site_fract_x
 _atom_site_fract_y
 _atom_site_fract_z
 _atom_site_occupancy
  Ba  Ba0  1  0.40942562  0.40956134  0.19428385  1
  Ba  Ba1  1  0.40935948  0.40971437  0.80578418  1
  La  La0  1  0.63463608  0.63435532  0.49998963  1
  Mg  Mg0  1  0.19827078  0.19814422  0.49998986  1
  Ta  Ta0  1  0.92866216  0.92880435  -0.00002993  1
  Cu  Cu0  1  0.91535898  0.91571580  0.68580361  1
  Cu  Cu1  1  0.91526204  0.91526494  0.31399051  1
  O  O0  1  0.01520349  0.01511682  0.15764922  1
  O  O1  1  0.53312369  0.07413415  0.61696148  1
  O  O2  1  0.07404135  0.53312775  0.61695639  1
  O  O3  1  0.07428967  0.53335486  0.38311993  1
  O  O4  1  0.53346406  0.07427605  0.38310896  1
  O  O5  1  0.50808200  0.98565228  0.00001176  1
  O  O6  1  0.01522817  0.01493493  0.84237000  1
  O  O7  1  0.98559144  0.50784183  0.00001255  1
loop_
_geom_bond_atom_site_label_1
_geom_bond_atom_site_label_2
_geom_bond_distance
_geom_bond_site_symmetry_2
Ba0 O0 2.623009 1_555
Ba0 O3 2.703642 1_555
Ba0 O4 2.703680 1_555
Ba0 O5 2.969933 1_545
Ba0 O7 2.970567 1_455
Ba0 O0 3.131651 1_565
Ba0 O0 3.133904 1_655
Ba1 O6 2.623788 1_555
Ba1 O2 2.703765 1_555
Ba1 O1 2.703910 1_555
Ba1 O7 2.969934 1_456
Ba1 O5 2.970304 1_546
Ba1 O6 3.130081 1_565
Ba1 O6 3.134926 1_655
La0 O2 2.405863 1_655
La0 O3 2.405982 1_655
La0 O4 2.406086 1_565
La0 O1 2.406130 1_565
La0 O4 2.916498 1_555
La0 O1 2.918174 1_555
La0 O3 2.918940 1_555
La0 O2 2.920780 1_555
Mg0 O3 2.070148 1_555
Mg0 O2 2.070212 1_555
Mg0 O1 2.070455 1_555
Mg0 O4 2.070655 1_555
Cu0 O6 1.948140 1_665
Cu0 O1 1.966406 1_565
Cu0 O2 1.967086 1_655
Cu1 O0 1.946551 1_665
Cu1 O3 1.966505 1_655
Cu1 O4 1.966840 1_565
O0 Ta0 1.933465 1_445
O5 Ta0 1.874100 1_555
O6 Ta0 1.932533 1_446
O7 Ta0 1.874426 1_555
