# generated using pymatgen
data_MgMn6O7F5
_symmetry_space_group_name_H-M   'P 1'
_cell_length_a   5.03359048
_cell_length_b   7.79558769
_cell_length_c   5.89805370
_cell_angle_alpha   96.18940442
_cell_angle_beta   97.28492697
_cell_angle_gamma   90.22150622
_symmetry_Int_Tables_number   1
_chemical_formula_structural   MgMn6O7F5
_chemical_formula_sum   'Mg1 Mn6 O7 F5'
_cell_volume   228.19593825
_cell_formula_units_Z   1
loop_
 _symmetry_equiv_pos_site_id
 _symmetry_equiv_pos_as_xyz
  1  'x, y, z'
loop_
 _atom_site_type_symbol
 _atom_site_label
 _atom_site_symmetry_multiplicity
 _atom_site_fract_x
 _atom_site_fract_y
 _atom_site_fract_z
 _atom_site_occupancy
  Mg  Mg0  1  0.49888479  0.99887682  0.99873531  1
  Mn  Mn0  1  0.49790646  0.99520712  0.50782627  1
  Mn  Mn1  1  0.54728667  0.64752977  0.16936665  1
  Mn  Mn2  1  0.48301719  0.36807614  0.80296351  1
  Mn  Mn3  1  0.00792511  0.68014509  0.67502392  1
  Mn  Mn4  1  0.98196826  0.32399796  0.32990371  1
  Mn  Mn5  1  0.99184621  0.99007565  0.00542332  1
  O  O0  1  0.75352824  0.80480191  0.95181169  1
  O  O1  1  0.79812452  0.09815580  0.24997338  1
  O  O2  1  0.71933637  0.76208681  0.45720230  1
  O  O3  1  0.70818018  0.42926424  0.10877988  1
  O  O4  1  0.28931207  0.56830856  0.88661872  1
  O  O5  1  0.28000889  0.23819404  0.53792775  1
  O  O6  1  0.19507893  0.90609580  0.75261229  1
  F  F0  1  0.80450851  0.45165944  0.62345273  1
  F  F1  1  0.69332457  0.14095188  0.79748319  1
  F  F2  1  0.30576879  0.86774146  0.20691449  1
  F  F3  1  0.18631051  0.54618923  0.37763290  1
  F  F4  1  0.24379272  0.19097527  0.04844498  1
loop_
_geom_bond_atom_site_label_1
_geom_bond_atom_site_label_2
_geom_bond_distance
_geom_bond_site_symmetry_2
Mg0 O0 2.005780 1_555
Mg0 O6 2.042311 1_555
Mg0 O1 2.059416 1_566
Mn0 O2 2.148750 1_555
Mn0 O5 2.194431 1_565
Mn0 O6 2.378391 1_555
Mn0 O1 2.465220 1_565
Mn1 O3 1.905691 1_555
Mn1 O2 1.929728 1_555
Mn1 O4 2.017728 1_554
Mn1 O0 2.212365 1_554
Mn2 O4 1.896928 1_555
Mn2 O5 1.938700 1_555
Mn2 O3 2.014282 1_556
Mn3 O2 1.969659 1_455
Mn3 O6 1.975730 1_555
Mn3 O4 2.029683 1_555
Mn3 O0 2.333856 1_455
Mn4 O1 1.968759 1_555
Mn4 O5 1.980240 1_655
Mn4 O3 2.014274 1_555
Mn5 O0 1.848511 1_554
Mn5 O1 1.960144 1_565
Mn5 O6 1.969770 1_654
F0 Mn3 2.025738 1_655
F0 Mn2 2.177019 1_555
F0 Mn4 2.193972 1_555
F1 Mg0 2.040414 1_545
F1 Mn2 2.065773 1_555
F1 Mn0 2.079362 1_545
F1 Mn5 2.236692 1_546
F2 Mg0 2.015752 1_554
F2 Mn0 2.061460 1_555
F2 Mn1 2.115751 1_555
F2 Mn5 2.144407 1_455
F3 Mn4 1.986221 1_455
F3 Mn3 2.232728 1_555
F3 Mn1 2.489719 1_555
F4 Mn5 1.985652 1_445
F4 Mg0 1.998231 1_544
F4 Mn4 2.400471 1_455
F4 Mn2 2.512510 1_554
