# generated using pymatgen
data_DyCuGe
_symmetry_space_group_name_H-M   'P 1'
_cell_length_a   4.23208665
_cell_length_b   4.23208665
_cell_length_c   7.20324206
_cell_angle_alpha   90.00000000
_cell_angle_beta   90.00000000
_cell_angle_gamma   119.99999951
_symmetry_Int_Tables_number   1
_chemical_formula_structural   DyCuGe
_chemical_formula_sum   'Dy2 Cu2 Ge2'
_cell_volume   111.72947163
_cell_formula_units_Z   2
loop_
 _symmetry_equiv_pos_site_id
 _symmetry_equiv_pos_as_xyz
  1  'x, y, z'
loop_
 _atom_site_type_symbol
 _atom_site_label
 _atom_site_symmetry_multiplicity
 _atom_site_fract_x
 _atom_site_fract_y
 _atom_site_fract_z
 _atom_site_occupancy
  Dy  Dy0  1  -0.00000000  -0.00000000  0.76068718  1
  Dy  Dy1  1  -0.00000000  -0.00000000  0.26068718  1
  Cu  Cu0  1  0.66666700  0.33333300  0.54681912  1
  Cu  Cu1  1  0.33333300  0.66666700  0.04681912  1
  Ge  Ge0  1  0.33333300  0.66666700  0.48489370  1
  Ge  Ge1  1  0.66666700  0.33333300  0.98489370  1
loop_
_geom_bond_atom_site_label_1
_geom_bond_atom_site_label_2
_geom_bond_distance
_geom_bond_site_symmetry_2
Dy0 Ge1 2.928898 1_455
Dy0 Ge1 2.928901 1_555
Dy0 Ge1 2.928901 1_445
Dy0 Ge0 3.149092 1_545
Dy0 Ge0 3.149095 1_555
Dy0 Ge0 3.149095 1_445
Dy1 Ge0 2.928898 1_545
Dy1 Ge0 2.928901 1_555
Dy1 Ge0 2.928901 1_445
Dy1 Ge1 3.149092 1_454
Dy1 Ge1 3.149095 1_554
Dy1 Ge1 3.149095 1_444
Cu0 Ge0 2.483777 1_545
Cu0 Ge0 2.483777 1_655
Cu0 Ge0 2.483784 1_555
Cu0 Dy0 2.888503 1_655
Cu0 Dy0 2.888506 1_665
Cu0 Dy0 2.888506 1_555
Cu0 Ge1 3.155557 1_555
Cu0 Dy1 3.196594 1_655
Cu0 Dy1 3.196597 1_665
Cu0 Dy1 3.196597 1_555
Cu1 Ge1 2.483777 1_564
Cu1 Ge1 2.483777 1_454
Cu1 Ge1 2.483784 1_554
Cu1 Dy1 2.888503 1_565
Cu1 Dy1 2.888506 1_555
Cu1 Dy1 2.888506 1_665
Cu1 Ge0 3.155557 1_555
Cu1 Dy0 3.196594 1_564
Cu1 Dy0 3.196597 1_554
Cu1 Dy0 3.196597 1_664
