# generated using pymatgen
data_CsTlF3
_symmetry_space_group_name_H-M   'P 1'
_cell_length_a   4.78968856
_cell_length_b   4.78968856
_cell_length_c   4.78968825
_cell_angle_alpha   90.00414871
_cell_angle_beta   90.00414871
_cell_angle_gamma   90.00414620
_symmetry_Int_Tables_number   1
_chemical_formula_structural   CsTlF3
_chemical_formula_sum   'Cs1 Tl1 F3'
_cell_volume   109.88079514
_cell_formula_units_Z   1
loop_
 _symmetry_equiv_pos_site_id
 _symmetry_equiv_pos_as_xyz
  1  'x, y, z'
loop_
 _atom_site_type_symbol
 _atom_site_label
 _atom_site_symmetry_multiplicity
 _atom_site_fract_x
 _atom_site_fract_y
 _atom_site_fract_z
 _atom_site_occupancy
  Cs  Cs0  1  0.04722830  0.04722830  0.04722830  1
  Tl  Tl0  1  0.54688796  0.54688796  0.54688796  1
  F  F0  1  0.04687885  0.54650495  0.54650495  1
  F  F1  1  0.54650495  0.54650495  0.04687885  1
  F  F2  1  0.54650495  0.04687885  0.54650495  1
loop_
_geom_bond_atom_site_label_1
_geom_bond_atom_site_label_2
_geom_bond_distance
_geom_bond_site_symmetry_2
Cs0 F2 3.381800 1_555
Cs0 F0 3.381800 1_555
Cs0 F1 3.381800 1_555
Cs0 F0 3.386948 1_554
Cs0 F2 3.386948 1_554
Cs0 F0 3.386948 1_545
Cs0 F2 3.386948 1_455
Cs0 F1 3.386948 1_545
Cs0 F1 3.386948 1_455
Cs0 F0 3.391598 1_544
Cs0 F2 3.391598 1_454
Cs0 F1 3.391598 1_445
F0 Tl0 2.394802 1_455
F0 Tl0 2.394889 1_555
F1 Tl0 2.394802 1_554
F1 Tl0 2.394889 1_555
F2 Tl0 2.394802 1_545
F2 Tl0 2.394889 1_555
