# generated using pymatgen
data_NaInI4
_symmetry_space_group_name_H-M   'P 1'
_cell_length_a   7.82053803
_cell_length_b   8.62170242
_cell_length_c   15.72519951
_cell_angle_alpha   87.17748477
_cell_angle_beta   90.00000000
_cell_angle_gamma   90.00000000
_symmetry_Int_Tables_number   1
_chemical_formula_structural   NaInI4
_chemical_formula_sum   'Na4 In4 I16'
_cell_volume   1059.00655304
_cell_formula_units_Z   4
loop_
 _symmetry_equiv_pos_site_id
 _symmetry_equiv_pos_as_xyz
  1  'x, y, z'
loop_
 _atom_site_type_symbol
 _atom_site_label
 _atom_site_symmetry_multiplicity
 _atom_site_fract_x
 _atom_site_fract_y
 _atom_site_fract_z
 _atom_site_occupancy
  Na  Na0  1  0.99638336  0.85055891  0.37307531  1
  Na  Na1  1  0.49638336  0.14944109  0.12692469  1
  Na  Na2  1  0.00361664  0.14944109  0.62692469  1
  Na  Na3  1  0.50361664  0.85055891  0.87307531  1
  In  In0  1  0.18777126  0.70293535  0.60075321  1
  In  In1  1  0.68777126  0.29706465  0.89924679  1
  In  In2  1  0.81222874  0.29706465  0.39924679  1
  In  In3  1  0.31222874  0.70293535  0.10075321  1
  I  I0  1  0.33026692  0.68262023  0.44356075  1
  I  I1  1  0.83026692  0.31737977  0.05643925  1
  I  I2  1  0.66973308  0.31737977  0.55643925  1
  I  I3  1  0.16973308  0.68262023  0.94356075  1
  I  I4  1  0.14276111  0.19080702  0.42810593  1
  I  I5  1  0.64276111  0.80919298  0.07189407  1
  I  I6  1  0.85723889  0.80919298  0.57189407  1
  I  I7  1  0.35723889  0.19080702  0.92810593  1
  I  I8  1  0.34313804  0.94232113  0.68346837  1
  I  I9  1  0.84313804  0.05767887  0.81653163  1
  I  I10  1  0.65686196  0.05767887  0.31653163  1
  I  I11  1  0.15686196  0.94232113  0.18346837  1
  I  I12  1  0.20620293  0.43675822  0.70012103  1
  I  I13  1  0.70620293  0.56324178  0.79987897  1
  I  I14  1  0.79379707  0.56324178  0.29987897  1
  I  I15  1  0.29379707  0.43675822  0.20012103  1
loop_
_geom_bond_atom_site_label_1
_geom_bond_atom_site_label_2
_geom_bond_distance
_geom_bond_site_symmetry_2
I0 In0 2.724957 1_555
I0 Na0 3.159914 1_455
I1 In1 2.724957 1_554
I1 Na1 3.159914 1_555
I2 In2 2.724957 1_555
I2 Na2 3.159914 1_655
I3 In3 2.724957 1_556
I3 Na3 3.159914 1_555
I4 In2 2.772400 1_455
I4 Na0 3.303764 1_445
I4 Na2 3.313051 1_555
I5 In3 2.772400 1_555
I5 Na1 3.303764 1_565
I5 Na3 3.313051 1_554
I6 In0 2.772400 1_655
I6 Na2 3.303764 1_665
I6 Na0 3.313051 1_555
I7 In1 2.772400 1_555
I7 Na3 3.303764 1_545
I7 Na1 3.313051 1_556
I8 In0 2.773505 1_555
I8 Na3 3.295251 1_555
I8 Na2 3.297477 1_565
I9 In1 2.773505 1_555
I9 Na2 3.295251 1_655
I9 Na3 3.297477 1_545
I10 In2 2.773505 1_555
I10 Na1 3.295251 1_555
I10 Na0 3.297477 1_545
I11 In3 2.773505 1_555
I11 Na0 3.295251 1_455
I11 Na1 3.297477 1_565
I12 In0 2.715849 1_555
I12 Na2 3.201893 1_555
I13 In1 2.715849 1_555
I13 Na3 3.201893 1_555
I14 In2 2.715849 1_555
I14 Na0 3.201893 1_555
I15 In3 2.715849 1_555
I15 Na1 3.201893 1_555
