# generated using pymatgen
data_Cs2HgBr4
_symmetry_space_group_name_H-M   'P 1'
_cell_length_a   7.85309589
_cell_length_b   10.57975830
_cell_length_c   15.21890675
_cell_angle_alpha   67.66010666
_cell_angle_beta   90.00000000
_cell_angle_gamma   90.00000000
_symmetry_Int_Tables_number   1
_chemical_formula_structural   Cs2HgBr4
_chemical_formula_sum   'Cs8 Hg4 Br16'
_cell_volume   1169.54287644
_cell_formula_units_Z   4
loop_
 _symmetry_equiv_pos_site_id
 _symmetry_equiv_pos_as_xyz
  1  'x, y, z'
loop_
 _atom_site_type_symbol
 _atom_site_label
 _atom_site_symmetry_multiplicity
 _atom_site_fract_x
 _atom_site_fract_y
 _atom_site_fract_z
 _atom_site_occupancy
  Cs  Cs0  1  0.24918103  0.41510568  0.39545310  1
  Cs  Cs1  1  0.74918103  0.58489432  0.10454690  1
  Cs  Cs2  1  0.75081897  0.58489432  0.60454690  1
  Cs  Cs3  1  0.25081897  0.41510568  0.89545310  1
  Cs  Cs4  1  0.25021804  0.96062185  0.16947052  1
  Cs  Cs5  1  0.75021804  0.03937815  0.33052948  1
  Cs  Cs6  1  0.74978196  0.03937815  0.83052948  1
  Cs  Cs7  1  0.24978196  0.96062185  0.66947052  1
  Hg  Hg0  1  0.24920957  0.78270644  0.96024980  1
  Hg  Hg1  1  0.74920957  0.21729356  0.53975020  1
  Hg  Hg2  1  0.75079043  0.21729356  0.03975020  1
  Hg  Hg3  1  0.25079043  0.78270644  0.46024980  1
  Br  Br0  1  0.98658106  0.71954663  0.87516537  1
  Br  Br1  1  0.48658106  0.28045337  0.62483463  1
  Br  Br2  1  0.01341894  0.28045337  0.12483463  1
  Br  Br3  1  0.51341894  0.71954663  0.37516537  1
  Br  Br4  1  0.51114834  0.72175136  0.87322979  1
  Br  Br5  1  0.01114834  0.27824864  0.62677021  1
  Br  Br6  1  0.48885166  0.27824864  0.12677021  1
  Br  Br7  1  0.98885166  0.72175136  0.37322979  1
  Br  Br8  1  0.24964978  0.63627875  0.14280886  1
  Br  Br9  1  0.74964978  0.36372125  0.35719114  1
  Br  Br10  1  0.75035022  0.36372125  0.85719114  1
  Br  Br11  1  0.25035022  0.63627875  0.64280886  1
  Br  Br12  1  0.25098961  0.05372511  0.90633864  1
  Br  Br13  1  0.75098961  0.94627489  0.59366136  1
  Br  Br14  1  0.74901039  0.94627489  0.09366136  1
  Br  Br15  1  0.24901039  0.05372511  0.40633864  1
loop_
_geom_bond_atom_site_label_1
_geom_bond_atom_site_label_2
_geom_bond_distance
_geom_bond_site_symmetry_2
Br0 Hg0 2.652305 1_655
Br0 Cs6 3.690785 1_565
Br0 Cs1 3.729773 1_556
Br0 Cs3 3.744273 1_655
Br0 Cs7 3.808867 1_655
Br1 Hg1 2.652305 1_555
Br1 Cs7 3.690785 1_545
Br1 Cs0 3.729773 1_555
Br1 Cs2 3.744273 1_555
Br1 Cs6 3.808867 1_555
Br2 Hg2 2.652305 1_455
Br2 Cs4 3.690785 1_545
Br2 Cs3 3.729773 1_554
Br2 Cs1 3.744273 1_455
Br2 Cs5 3.808867 1_455
Br3 Hg3 2.652305 1_555
Br3 Cs5 3.690785 1_565
Br3 Cs2 3.729773 1_555
Br3 Cs0 3.744273 1_555
Br3 Cs4 3.808867 1_555
Br4 Hg0 2.655262 1_555
Br4 Cs6 3.683275 1_565
Br4 Cs3 3.739635 1_555
Br4 Cs1 3.756191 1_556
Br4 Cs7 3.776005 1_555
Br5 Hg1 2.655262 1_455
Br5 Cs7 3.683275 1_545
Br5 Cs2 3.739635 1_455
Br5 Cs0 3.756191 1_555
Br5 Cs6 3.776005 1_455
Br6 Hg2 2.655262 1_555
Br6 Cs4 3.683275 1_545
Br6 Cs1 3.739635 1_555
Br6 Cs3 3.756191 1_554
Br6 Cs5 3.776005 1_555
Br7 Hg3 2.655262 1_655
Br7 Cs5 3.683275 1_565
Br7 Cs0 3.739635 1_655
Br7 Cs2 3.756191 1_555
Br7 Cs4 3.776005 1_655
Br8 Hg0 2.616707 1_554
Br8 Cs4 3.605292 1_555
Br8 Cs0 3.663281 1_555
Br8 Cs1 4.032884 1_555
Br8 Cs1 4.040046 1_455
Br9 Hg1 2.616707 1_555
Br9 Cs5 3.605292 1_555
Br9 Cs1 3.663281 1_555
Br9 Cs0 4.032884 1_655
Br9 Cs0 4.040046 1_555
Br10 Hg2 2.616707 1_556
Br10 Cs6 3.605292 1_555
Br10 Cs2 3.663281 1_555
Br10 Cs3 4.032884 1_555
Br10 Cs3 4.040046 1_655
Br11 Hg3 2.616707 1_555
Br11 Cs7 3.605292 1_555
Br11 Cs3 3.663281 1_555
Br11 Cs2 4.032884 1_455
Br11 Cs2 4.040046 1_555
Br12 Hg0 2.665791 1_545
Br12 Cs4 3.742765 1_546
Br12 Cs3 3.763470 1_555
Br12 Cs7 4.082254 1_545
Br12 Cs6 4.102518 1_555
Br12 Cs6 4.120632 1_455
Br13 Hg1 2.665791 1_565
Br13 Cs5 3.742765 1_565
Br13 Cs2 3.763470 1_555
Br13 Cs6 4.082254 1_565
Br13 Cs7 4.102518 1_655
Br13 Cs7 4.120632 1_555
Br14 Hg2 2.665791 1_565
Br14 Cs6 3.742765 1_564
Br14 Cs1 3.763470 1_555
Br14 Cs5 4.082254 1_565
Br14 Cs4 4.102518 1_555
Br14 Cs4 4.120632 1_655
Br15 Hg3 2.665791 1_545
Br15 Cs7 3.742765 1_545
Br15 Cs0 3.763470 1_555
Br15 Cs4 4.082254 1_545
Br15 Cs5 4.102518 1_455
Br15 Cs5 4.120632 1_555
