# generated using pymatgen
data_Eu2ReO5
_symmetry_space_group_name_H-M   'P 1'
_cell_length_a   8.77962600
_cell_length_b   8.77962600
_cell_length_c   5.98027900
_cell_angle_alpha   90.00000000
_cell_angle_beta   90.00000000
_cell_angle_gamma   90.00000000
_symmetry_Int_Tables_number   1
_chemical_formula_structural   Eu2ReO5
_chemical_formula_sum   'Eu8 Re4 O20'
_cell_volume   460.97086538
_cell_formula_units_Z   4
loop_
 _symmetry_equiv_pos_site_id
 _symmetry_equiv_pos_as_xyz
  1  'x, y, z'
loop_
 _atom_site_type_symbol
 _atom_site_label
 _atom_site_symmetry_multiplicity
 _atom_site_fract_x
 _atom_site_fract_y
 _atom_site_fract_z
 _atom_site_occupancy
  Eu  Eu0  1  0.85348000  0.13989700  0.24836100  1
  Eu  Eu1  1  0.63989700  0.64652000  0.24836100  1
  Eu  Eu2  1  0.36010300  0.35348000  0.24836100  1
  Eu  Eu3  1  0.14652000  0.86010300  0.24836100  1
  Eu  Eu4  1  0.35348000  0.63989700  0.75163900  1
  Eu  Eu5  1  0.13989700  0.14652000  0.75163900  1
  Eu  Eu6  1  0.86010300  0.85348000  0.75163900  1
  Eu  Eu7  1  0.64652000  0.36010300  0.75163900  1
  Re  Re0  1  0.00000000  0.50000000  0.54772800  1
  Re  Re1  1  0.50000000  0.00000000  0.45227200  1
  Re  Re2  1  0.00000000  0.50000000  0.14546800  1
  Re  Re3  1  0.50000000  0.00000000  0.85453200  1
  O  O0  1  0.00000000  0.00000000  0.50000000  1
  O  O1  1  0.50000000  0.50000000  0.50000000  1
  O  O2  1  0.00000000  0.00000000  0.00000000  1
  O  O3  1  0.50000000  0.50000000  0.00000000  1
  O  O4  1  0.30705500  0.91103700  0.90791300  1
  O  O5  1  0.41103700  0.19294500  0.90791300  1
  O  O6  1  0.58896300  0.80705500  0.90791300  1
  O  O7  1  0.69294500  0.08896300  0.90791300  1
  O  O8  1  0.19294500  0.58896300  0.09208700  1
  O  O9  1  0.08896300  0.30705500  0.09208700  1
  O  O10  1  0.91103700  0.69294500  0.09208700  1
  O  O11  1  0.80705500  0.41103700  0.09208700  1
  O  O12  1  0.80694600  0.58841900  0.60684600  1
  O  O13  1  0.08841900  0.69305400  0.60684600  1
  O  O14  1  0.91158100  0.30694600  0.60684600  1
  O  O15  1  0.19305400  0.41158100  0.60684600  1
  O  O16  1  0.69305400  0.91158100  0.39315400  1
  O  O17  1  0.41158100  0.80694600  0.39315400  1
  O  O18  1  0.58841900  0.19305400  0.39315400  1
  O  O19  1  0.30694600  0.08841900  0.39315400  1
loop_
_geom_bond_atom_site_label_1
_geom_bond_atom_site_label_2
_geom_bond_distance
_geom_bond_site_symmetry_2
Eu0 O2 2.317197 1_655
Eu0 O0 2.329811 1_655
Eu0 O7 2.516282 1_554
Eu0 O18 2.526491 1_555
Eu0 O11 2.589663 1_555
Eu0 O16 2.598411 1_545
Eu0 O14 2.647122 1_555
Eu0 O9 2.702142 1_655
Eu1 O3 2.317197 1_555
Eu1 O1 2.329811 1_555
Eu1 O6 2.516282 1_554
Eu1 O16 2.526491 1_555
Eu1 O10 2.589663 1_555
Eu1 O17 2.598411 1_555
Eu1 O12 2.647122 1_555
Eu1 O11 2.702142 1_555
Eu2 O3 2.317197 1_555
Eu2 O1 2.329811 1_555
Eu2 O5 2.516282 1_554
Eu2 O19 2.526491 1_555
Eu2 O9 2.589663 1_555
Eu2 O18 2.598411 1_555
Eu2 O15 2.647122 1_555
Eu2 O8 2.702142 1_555
Eu3 O2 2.317197 1_565
Eu3 O0 2.329811 1_565
Eu3 O4 2.516282 1_554
Eu3 O17 2.526491 1_555
Eu3 O8 2.589663 1_555
Eu3 O19 2.598411 1_565
Eu3 O13 2.647122 1_555
Eu3 O10 2.702142 1_455
Eu4 O3 2.317197 1_556
Eu4 O1 2.329811 1_555
Eu4 O8 2.516282 1_556
Eu4 O13 2.526491 1_555
Eu4 O4 2.589663 1_555
Eu4 O15 2.598411 1_555
Eu4 O17 2.647122 1_555
Eu4 O6 2.702142 1_555
Eu5 O2 2.317197 1_556
Eu5 O0 2.329811 1_555
Eu5 O9 2.516282 1_556
Eu5 O15 2.526491 1_555
Eu5 O5 2.589663 1_555
Eu5 O14 2.598411 1_455
Eu5 O19 2.647122 1_555
Eu5 O4 2.702142 1_545
Eu6 O2 2.317197 1_666
Eu6 O0 2.329811 1_665
Eu6 O10 2.516282 1_556
Eu6 O12 2.526491 1_555
Eu6 O6 2.589663 1_555
Eu6 O13 2.598411 1_655
Eu6 O16 2.647122 1_555
Eu6 O7 2.702142 1_565
Eu7 O3 2.317197 1_556
Eu7 O1 2.329811 1_555
Eu7 O11 2.516282 1_556
Eu7 O14 2.526491 1_555
Eu7 O7 2.589663 1_555
Eu7 O12 2.598411 1_555
Eu7 O18 2.647122 1_555
Eu7 O5 2.702142 1_555
O4 Re3 1.892499 1_565
O5 Re3 1.892499 1_555
O6 Re3 1.892499 1_565
O7 Re3 1.892499 1_555
O8 Re2 1.892499 1_555
O9 Re2 1.892499 1_555
O10 Re2 1.892499 1_655
O11 Re2 1.892499 1_655
O12 Re0 1.897482 1_655
O13 Re0 1.897482 1_555
O14 Re0 1.897482 1_655
O15 Re0 1.897482 1_555
O16 Re1 1.897482 1_565
O17 Re1 1.897482 1_565
O18 Re1 1.897482 1_555
O19 Re1 1.897482 1_555
