# generated using pymatgen
data_TiCoSi
_symmetry_space_group_name_H-M   'P 1'
_cell_length_a   3.69018195
_cell_length_b   6.09899008
_cell_length_c   6.82397860
_cell_angle_alpha   90.00061520
_cell_angle_beta   90.00000000
_cell_angle_gamma   90.00000000
_symmetry_Int_Tables_number   1
_chemical_formula_structural   TiCoSi
_chemical_formula_sum   'Ti4 Co4 Si4'
_cell_volume   153.58307668
_cell_formula_units_Z   4
loop_
 _symmetry_equiv_pos_site_id
 _symmetry_equiv_pos_as_xyz
  1  'x, y, z'
loop_
 _atom_site_type_symbol
 _atom_site_label
 _atom_site_symmetry_multiplicity
 _atom_site_fract_x
 _atom_site_fract_y
 _atom_site_fract_z
 _atom_site_occupancy
  Ti  Ti0  1  0.25000000  0.01309761  0.19350552  1
  Ti  Ti1  1  0.75000000  0.48691527  0.69352076  1
  Ti  Ti2  1  0.25000000  0.51314387  0.30647371  1
  Ti  Ti3  1  0.75000000  0.98685160  0.80649308  1
  Co  Co0  1  0.25000000  0.64391896  0.93275768  1
  Co  Co1  1  0.75000000  0.35609312  0.06725260  1
  Co  Co2  1  0.25000000  0.14395988  0.56724813  1
  Co  Co3  1  0.75000000  0.85601962  0.43275367  1
  Si  Si0  1  0.75000000  0.72646422  0.11142810  1
  Si  Si1  1  0.25000000  0.77351230  0.61142497  1
  Si  Si2  1  0.75000000  0.22648778  0.38856609  1
  Si  Si3  1  0.25000000  0.27353476  0.88857669  1
loop_
_geom_bond_atom_site_label_1
_geom_bond_atom_site_label_2
_geom_bond_distance
_geom_bond_site_symmetry_2
Co0 Si0 2.268117 1_556
Co0 Si0 2.268117 1_456
Co0 Si3 2.278997 1_555
Co0 Si1 2.330876 1_555
Co0 Ti1 2.643193 1_555
Co0 Ti1 2.643193 1_455
Co0 Ti2 2.672055 1_556
Co0 Co1 2.707089 1_456
Co0 Co1 2.707089 1_556
Co0 Ti0 2.869797 1_566
Co0 Ti3 2.919135 1_555
Co0 Ti3 2.919135 1_455
Co1 Si3 2.268155 1_554
Co1 Si3 2.268155 1_654
Co1 Si0 2.278912 1_555
Co1 Si2 2.330777 1_555
Co1 Ti2 2.643230 1_655
Co1 Ti2 2.643230 1_555
Co1 Ti1 2.672243 1_554
Co1 Ti3 2.870147 1_544
Co1 Ti0 2.919387 1_555
Co1 Ti0 2.919387 1_655
Co2 Si2 2.268142 1_455
Co2 Si2 2.268142 1_555
Co2 Si1 2.279382 1_545
Co2 Si3 2.330795 1_555
Co2 Ti3 2.643470 1_445
Co2 Ti3 2.643470 1_545
Co2 Ti0 2.672370 1_555
Co2 Co3 2.707527 1_445
Co2 Co3 2.707527 1_545
Co2 Ti2 2.869965 1_555
Co2 Ti1 2.919238 1_455
Co2 Ti1 2.919238 1_555
Co3 Si1 2.268075 1_655
Co3 Si1 2.268075 1_555
Co3 Si2 2.279516 1_565
Co3 Si0 2.330735 1_555
Co3 Ti0 2.643417 1_665
Co3 Ti0 2.643417 1_565
Co3 Ti3 2.672294 1_555
Co3 Ti1 2.869553 1_555
Co3 Ti2 2.918904 1_655
Co3 Ti2 2.918904 1_555
Si0 Ti0 2.602721 1_565
Si0 Ti0 2.602721 1_665
Si0 Ti3 2.617662 1_554
Si0 Ti2 2.620806 1_555
Si0 Ti2 2.620806 1_655
Si1 Ti1 2.602608 1_455
Si1 Ti1 2.602608 1_555
Si1 Ti2 2.617653 1_555
Si1 Ti3 2.620928 1_455
Si1 Ti3 2.620928 1_555
Si2 Ti2 2.602844 1_555
Si2 Ti2 2.602844 1_655
Si2 Ti1 2.617890 1_555
Si2 Ti0 2.621055 1_655
Si2 Ti0 2.621055 1_555
Si3 Ti3 2.602934 1_545
Si3 Ti3 2.602934 1_445
Si3 Ti0 2.617812 1_556
Si3 Ti1 2.621024 1_555
Si3 Ti1 2.621024 1_455
