# generated using pymatgen
data_LiNiP2O7
_symmetry_space_group_name_H-M   'P 1'
_cell_length_a   8.30619300
_cell_length_b   7.06205700
_cell_length_c   9.16169022
_cell_angle_alpha   66.25965673
_cell_angle_beta   90.00000000
_cell_angle_gamma   90.00000000
_symmetry_Int_Tables_number   1
_chemical_formula_structural   LiNiP2O7
_chemical_formula_sum   'Li4 Ni4 P8 O28'
_cell_volume   491.93752142
_cell_formula_units_Z   4
loop_
 _symmetry_equiv_pos_site_id
 _symmetry_equiv_pos_as_xyz
  1  'x, y, z'
loop_
 _atom_site_type_symbol
 _atom_site_label
 _atom_site_symmetry_multiplicity
 _atom_site_fract_x
 _atom_site_fract_y
 _atom_site_fract_z
 _atom_site_occupancy
  Li  Li0  1  0.44144900  0.30283500  0.32510700  1
  Li  Li1  1  0.94144900  0.69716500  0.17489300  1
  Li  Li2  1  0.55855100  0.69716500  0.67489300  1
  Li  Li3  1  0.05855100  0.30283500  0.82510700  1
  Ni  Ni0  1  0.57613200  0.76164000  0.11485300  1
  Ni  Ni1  1  0.92386800  0.76164000  0.61485300  1
  Ni  Ni2  1  0.42386800  0.23836000  0.88514700  1
  Ni  Ni3  1  0.07613200  0.23836000  0.38514700  1
  P  P0  1  0.76819400  0.05867300  0.25441700  1
  P  P1  1  0.73180600  0.05867300  0.75441700  1
  P  P2  1  0.26845900  0.53056600  0.53183300  1
  P  P3  1  0.73154100  0.46943400  0.46816700  1
  P  P4  1  0.26819400  0.94132700  0.24558300  1
  P  P5  1  0.23180600  0.94132700  0.74558300  1
  P  P6  1  0.23154100  0.53056600  0.03183300  1
  P  P7  1  0.76845900  0.46943400  0.96816700  1
  O  O0  1  0.11117200  0.88991800  0.18466500  1
  O  O1  1  0.89428300  0.43819700  0.40134400  1
  O  O2  1  0.74296600  0.88202600  0.70106200  1
  O  O3  1  0.09649000  0.48049800  0.15719300  1
  O  O4  1  0.39428300  0.56180300  0.09865600  1
  O  O5  1  0.40592500  0.97628100  0.12138600  1
  O  O6  1  0.60571700  0.43819700  0.90134400  1
  O  O7  1  0.66909000  0.25331300  0.60107700  1
  O  O8  1  0.90351000  0.51950200  0.84280700  1
  O  O9  1  0.24296600  0.11797400  0.79893800  1
  O  O10  1  0.25874900  0.37733400  0.45378500  1
  O  O11  1  0.38882800  0.88991800  0.68466500  1
  O  O12  1  0.61117200  0.11008200  0.31533500  1
  O  O13  1  0.16909000  0.74668700  0.89892300  1
  O  O14  1  0.24125100  0.37733400  0.95378500  1
  O  O15  1  0.59649000  0.51950200  0.34280700  1
  O  O16  1  0.75874900  0.62266600  0.04621500  1
  O  O17  1  0.25703400  0.11797400  0.29893800  1
  O  O18  1  0.83091000  0.25331300  0.10107700  1
  O  O19  1  0.74125100  0.62266600  0.54621500  1
  O  O20  1  0.88882800  0.11008200  0.81533500  1
  O  O21  1  0.09407500  0.97628100  0.62138600  1
  O  O22  1  0.10571700  0.56180300  0.59865600  1
  O  O23  1  0.33091000  0.74668700  0.39892300  1
  O  O24  1  0.90592500  0.02371900  0.37861400  1
  O  O25  1  0.75703400  0.88202600  0.20106200  1
  O  O26  1  0.59407500  0.02371900  0.87861400  1
  O  O27  1  0.40351000  0.48049800  0.65719300  1
loop_
_geom_bond_atom_site_label_1
_geom_bond_atom_site_label_2
_geom_bond_distance
_geom_bond_site_symmetry_2
Li0 O12 1.986579 1_555
Li0 O15 2.055667 1_555
Li0 O17 2.088109 1_555
Li0 O10 2.113992 1_555
Li0 O4 2.178843 1_555
Li1 O0 1.986579 1_655
Li1 O3 2.055667 1_655
Li1 O25 2.088109 1_555
Li1 O16 2.113992 1_555
Li1 O1 2.178843 1_555
Li2 O11 1.986579 1_555
Li2 O27 2.055667 1_555
Li2 O2 2.088109 1_555
Li2 O19 2.113992 1_555
Li2 O6 2.178843 1_555
Li3 O20 1.986579 1_455
Li3 O8 2.055667 1_455
Li3 O9 2.088109 1_555
Li3 O14 2.113992 1_555
Li3 O22 2.178843 1_555
Ni0 O25 2.035953 1_555
Ni0 O16 2.038736 1_555
Ni0 O5 2.091185 1_555
Ni0 O15 2.106839 1_555
Ni0 O4 2.112777 1_555
Ni0 O26 2.215112 1_564
Ni1 O2 2.035953 1_555
Ni1 O19 2.038736 1_555
Ni1 O21 2.091185 1_655
Ni1 O8 2.106839 1_555
Ni1 O22 2.112777 1_655
Ni1 O24 2.215112 1_565
Ni2 O9 2.035953 1_555
Ni2 O14 2.038736 1_555
Ni2 O26 2.091185 1_555
Ni2 O27 2.106839 1_555
Ni2 O6 2.112777 1_555
Ni2 O5 2.215112 1_546
Ni3 O17 2.035953 1_555
Ni3 O10 2.038736 1_555
Ni3 O24 2.091185 1_455
Ni3 O3 2.106839 1_555
Ni3 O1 2.112777 1_455
Ni3 O21 2.215112 1_545
O0 P4 1.519055 1_555
O1 P3 1.536060 1_555
O2 P1 1.514852 1_565
O3 P6 1.541253 1_555
O4 P6 1.536060 1_555
O5 P4 1.561497 1_555
O6 P7 1.536060 1_555
O7 P1 1.606094 1_555
O7 P3 1.607750 1_555
O8 P7 1.541253 1_555
O9 P5 1.514852 1_545
O10 P2 1.520478 1_555
O11 P5 1.519055 1_555
O12 P0 1.519055 1_555
O13 P5 1.606094 1_555
O13 P6 1.607750 1_556
O14 P6 1.520478 1_556
O15 P3 1.541253 1_555
O16 P7 1.520478 1_554
O17 P4 1.514852 1_545
O18 P0 1.606094 1_555
O18 P7 1.607750 1_554
O19 P3 1.520478 1_555
O20 P1 1.519055 1_555
O21 P5 1.561497 1_555
O22 P2 1.536060 1_555
O23 P4 1.606094 1_555
O23 P2 1.607750 1_555
O24 P0 1.561497 1_555
O25 P0 1.514852 1_565
O26 P1 1.561497 1_555
O27 P2 1.541253 1_555
