# generated using pymatgen
data_Na3Mg8Ta4P3(S5O24)3
_symmetry_space_group_name_H-M   'P 1'
_cell_length_a   8.68807494
_cell_length_b   8.68078956
_cell_length_c   22.61833505
_cell_angle_alpha   90.05016060
_cell_angle_beta   89.92885809
_cell_angle_gamma   120.01672705
_symmetry_Int_Tables_number   1
_chemical_formula_structural   Na3Mg8Ta4P3(S5O24)3
_chemical_formula_sum   'Na3 Mg8 Ta4 P3 S15 O72'
_cell_volume   1477.06793896
_cell_formula_units_Z   1
loop_
 _symmetry_equiv_pos_site_id
 _symmetry_equiv_pos_as_xyz
  1  'x, y, z'
loop_
 _atom_site_type_symbol
 _atom_site_label
 _atom_site_symmetry_multiplicity
 _atom_site_fract_x
 _atom_site_fract_y
 _atom_site_fract_z
 _atom_site_occupancy
  Na  Na0  1  0.99324523  0.99491163  0.00243363  1
  Na  Na1  1  0.66759828  0.33316065  0.83366487  1
  Na  Na2  1  0.66441119  0.33360387  0.33761044  1
  Mg  Mg0  1  0.00138820  -0.00003665  0.35505472  1
  Mg  Mg1  1  0.99791540  0.00006750  0.85390802  1
  Mg  Mg2  1  0.99529237  0.99431629  0.14804673  1
  Mg  Mg3  1  0.66208991  0.32602006  0.68525024  1
  Mg  Mg4  1  0.67244286  0.33519381  0.98081128  1
  Mg  Mg5  1  0.65923464  0.32870084  0.48162708  1
  Mg  Mg6  1  0.33431648  0.66708246  0.31097968  1
  Mg  Mg7  1  0.33439421  0.66698862  0.81033211  1
  Ta  Ta0  1  0.00492714  0.00009468  0.64687142  1
  Ta  Ta1  1  0.67303116  0.33140135  0.18642510  1
  Ta  Ta2  1  0.33259499  0.67092961  0.02406197  1
  Ta  Ta3  1  0.33346513  0.67165843  0.51943456  1
  P  P0  1  0.38415458  0.05054562  0.58336232  1
  P  P1  1  0.95134515  0.62754611  0.08064800  1
  P  P2  1  0.67654877  0.04891896  0.08056377  1
  S  S0  1  0.28656993  0.99696083  0.25018802  1
  S  S1  1  0.70853295  0.71202130  0.25058076  1
  S  S2  1  0.00640987  0.28997845  0.25055336  1
  S  S3  1  0.29320117  0.29159515  0.75241226  1
  S  S4  1  0.99699833  0.70559167  0.75213042  1
  S  S5  1  0.71003808  0.00203973  0.75184859  1
  S  S6  1  0.95429952  0.33331858  0.58327957  1
  S  S7  1  0.66637106  0.62085630  0.58339743  1
  S  S8  1  0.37576423  0.32886468  0.08183578  1
  S  S9  1  0.62233643  0.66434696  0.91553046  1
  S  S10  1  0.04338352  0.37706622  0.91519666  1
  S  S11  1  0.33437916  0.95877064  0.91522370  1
  S  S12  1  0.62548076  0.95958964  0.41410607  1
  S  S13  1  0.33466692  0.37663149  0.41458317  1
  S  S14  1  0.03924252  0.66393956  0.41439157  1
  O  O0  1  0.21711771  0.03884142  0.30325778  1
  O  O1  1  0.82065245  0.78090223  0.30344714  1
  O  O2  1  0.96171778  0.17796917  0.30335521  1
  O  O3  1  0.20785160  0.17582941  0.80310890  1
  O  O4  1  0.96761406  0.79107535  0.80303423  1
  O  O5  1  0.82365551  0.03071057  0.80311375  1
  O  O6  1  0.80383003  0.97984907  0.69656047  1
  O  O7  1  0.17566854  0.19683391  0.69674489  1
  O  O8  1  0.01990180  0.82347097  0.69647475  1
  O  O9  1  0.78865057  0.81351450  0.19702020  1
  O  O10  1  0.02520599  0.21004075  0.19648479  1
  O  O11  1  0.18611222  0.97724185  0.19647496  1
  O  O12  1  0.88477299  0.37018426  0.63653936  1
  O  O13  1  0.48977836  0.11862812  0.63923157  1
  O  O14  1  0.63323145  0.51583949  0.63671113  1
  O  O15  1  0.86459699  0.50327133  0.13740707  1
  O  O16  1  0.63601700  0.13270390  0.13762472  1
  O  O17  1  0.49076964  0.36510671  0.13622892  1
  O  O18  1  0.45632148  0.30404064  0.02914515  1
  O  O19  1  0.84080102  0.54086546  0.02709343  1
  O  O20  1  0.69364684  0.15633738  0.02680659  1
  O  O21  1  0.45204552  0.15661670  0.52755230  1
  O  O22  1  0.70350481  0.55144442  0.53023470  1
  O  O23  1  0.84925694  0.29986246  0.53007503  1
  O  O24  1  0.53088354  0.68811705  0.97062151  1
  O  O25  1  0.15786359  0.46822924  0.97021140  1
  O  O26  1  0.31036922  0.84225017  0.97062508  1
  O  O27  1  0.53074344  0.84280237  0.47004569  1
  O  O28  1  0.31332197  0.47031865  0.47021307  1
  O  O29  1  0.15648135  0.68648767  0.47028658  1
  O  O30  1  0.12489580  0.63455398  0.36379470  1
  O  O31  1  0.50952900  0.87400564  0.36380644  1
  O  O32  1  0.36305072  0.49063185  0.36362988  1
  O  O33  1  0.12837251  0.48656906  0.86308028  1
  O  O34  1  0.35997856  0.87377996  0.86347830  1
  O  O35  1  0.51399092  0.64059827  0.86328166  1
  O  O36  1  0.03078747  0.82666423  0.41151018  1
  O  O37  1  0.79647114  0.96771293  0.41121510  1
  O  O38  1  0.17297736  0.20408165  0.41124536  1
  O  O39  1  0.03140678  0.20112417  0.91308534  1
  O  O40  1  0.16988272  0.96873161  0.91327768  1
  O  O41  1  0.79827562  0.82811254  0.91323979  1
  O  O42  1  0.98066823  0.17530909  0.59377996  1
  O  O43  1  0.18833586  0.01575636  0.59610939  1
  O  O44  1  0.82233809  0.80679978  0.59387810  1
  O  O45  1  0.98786214  0.81360353  0.09153829  1
  O  O46  1  0.83080631  0.02016661  0.09159530  1
  O  O47  1  0.19846587  0.17923495  0.09162092  1
  O  O48  1  0.69679335  0.16287505  0.74283669  1
  O  O49  1  0.46758907  0.30775954  0.74239547  1
  O  O50  1  0.83768210  0.53241589  0.74107480  1
  O  O51  1  0.68725049  0.52301914  0.24084653  1
  O  O52  1  0.83500581  0.30940539  0.24211054  1
  O  O53  1  0.47464051  0.16690569  0.24093876  1
  O  O54  1  0.63791049  0.50470135  0.92354251  1
  O  O55  1  0.86729679  0.35969587  0.92242958  1
  O  O56  1  0.49219808  0.13435505  0.92392423  1
  O  O57  1  0.64161081  0.13434555  0.42426942  1
  O  O58  1  0.49554892  0.36322704  0.42379861  1
  O  O59  1  0.86583561  0.50452465  0.42559542  1
  O  O60  1  0.36339234  0.49666534  0.07463081  1
  O  O61  1  0.13751250  0.63458065  0.07307823  1
  O  O62  1  0.50002690  0.86028651  0.07315972  1
  O  O63  1  0.34906536  0.85468948  0.57061212  1
  O  O64  1  0.50871640  0.64743990  0.57301178  1
  O  O65  1  0.14020235  0.48901443  0.57289541  1
  O  O66  1  0.31722523  0.84819053  0.25808878  1
  O  O67  1  0.52985624  0.68288762  0.25852969  1
  O  O68  1  0.15298590  0.46997793  0.25808146  1
  O  O69  1  0.30097556  0.46254756  0.75515803  1
  O  O70  1  0.15973320  0.69743710  0.75512202  1
  O  O71  1  0.53773032  0.84022225  0.75529461  1
loop_
_geom_bond_atom_site_label_1
_geom_bond_atom_site_label_2
_geom_bond_distance
_geom_bond_site_symmetry_2
Na0 O46 2.531507 1_565
Na0 O45 2.544179 1_555
Na0 O41 2.566182 1_554
Na0 O39 2.609460 1_664
Na0 O40 2.610313 1_654
Na0 O47 2.637716 1_665
Na1 O55 2.588852 1_555
Na1 O54 2.606580 1_555
Na1 O56 2.614494 1_555
Na1 O48 2.615046 1_555
Na1 O49 2.637148 1_555
Na1 O50 2.646251 1_555
Na2 O58 2.527497 1_555
Na2 O57 2.556413 1_555
Na2 O59 2.574872 1_555
Na2 O52 2.685037 1_555
Na2 O53 2.685095 1_555
Na2 O51 2.685505 1_555
Mg0 O38 2.082131 1_555
Mg0 O36 2.085077 1_545
Mg0 O37 2.087546 1_445
Mg0 O0 2.088474 1_555
Mg0 O2 2.100223 1_455
Mg0 O1 2.111284 1_445
Mg1 O5 2.022528 1_555
Mg1 O3 2.046568 1_655
Mg1 O4 2.050365 1_545
Mg1 O39 2.100281 1_655
Mg1 O41 2.108288 1_545
Mg1 O40 2.126428 1_645
Mg2 O45 1.998515 1_555
Mg2 O46 2.012159 1_565
Mg2 O9 2.022975 1_555
Mg2 O11 2.054490 1_655
Mg2 O10 2.069997 1_665
Mg2 O47 2.117670 1_665
Mg3 O13 1.967178 1_555
Mg3 O48 2.055373 1_555
Mg3 O49 2.068392 1_555
Mg3 O12 2.087395 1_555
Mg3 O50 2.097112 1_555
Mg3 O14 2.097755 1_555
Mg4 O19 1.952098 1_556
Mg4 O20 1.953542 1_556
Mg4 O18 2.069141 1_556
Mg4 O55 2.071126 1_555
Mg4 O54 2.092621 1_555
Mg4 O56 2.101654 1_555
Mg5 O21 1.964308 1_555
Mg5 O58 2.062718 1_555
Mg5 O57 2.071526 1_555
Mg5 O22 2.085351 1_555
Mg5 O23 2.099408 1_555
Mg5 O59 2.101031 1_555
Mg6 O67 2.018520 1_555
Mg6 O68 2.035984 1_555
Mg6 O66 2.040144 1_555
Mg6 O32 2.052604 1_555
Mg6 O31 2.058275 1_555
Mg6 O30 2.073255 1_555
Mg7 O71 2.066839 1_555
Mg7 O69 2.067063 1_555
Mg7 O33 2.067222 1_555
Mg7 O35 2.069844 1_555
Mg7 O34 2.077136 1_555
Mg7 O70 2.082919 1_555
O0 S0 1.467662 1_545
O1 S1 1.468031 1_555
O2 S2 1.464809 1_655
O3 S3 1.459096 1_555
O4 S4 1.459033 1_555
O5 S5 1.461983 1_555
O6 S5 1.555324 1_565
O6 Ta0 2.008676 1_665
O7 S3 1.570253 1_555
O7 Ta0 1.963627 1_555
O8 S4 1.571399 1_455
O8 Ta0 1.956896 1_565
O9 S1 1.454152 1_555
O10 S2 1.454364 1_555
O11 S0 1.455963 1_555
O12 S6 1.452376 1_555
O13 P0 1.499071 1_555
O14 S7 1.451391 1_555
O15 P1 1.602035 1_555
O15 Ta1 1.933685 1_555
O16 P2 1.603803 1_555
O16 Ta1 1.933766 1_555
O17 S8 1.516177 1_555
O17 Ta1 2.085836 1_555
O18 S8 1.450855 1_555
O19 P1 1.494701 1_555
O20 P2 1.494301 1_555
O21 P0 1.498674 1_555
O22 S7 1.450967 1_555
O23 S6 1.449938 1_555
O24 S9 1.545217 1_555
O24 Ta2 2.046737 1_556
O25 S10 1.541995 1_555
O25 Ta2 2.052457 1_556
O26 S11 1.557986 1_555
O26 Ta2 2.000234 1_556
O27 S12 1.571924 1_555
O27 Ta3 1.960425 1_555
O28 S13 1.558058 1_555
O28 Ta3 2.003970 1_555
O29 S14 1.573989 1_555
O29 Ta3 1.954284 1_555
O30 S14 1.454592 1_555
O31 S12 1.453859 1_555
O32 S13 1.457903 1_555
O33 S10 1.461470 1_555
O34 S11 1.457955 1_555
O35 S9 1.460602 1_555
O36 S14 1.452244 1_555
O37 S12 1.452978 1_555
O38 S13 1.455174 1_555
O39 S10 1.478743 1_555
O40 S11 1.475028 1_555
O41 S9 1.478513 1_555
O42 S6 1.518356 1_555
O42 Ta0 2.030871 1_655
O43 P0 1.597998 1_555
O43 Ta0 1.911769 1_555
O44 S7 1.519731 1_555
O44 Ta0 2.026512 1_665
O45 P1 1.502258 1_555
O46 P2 1.502101 1_555
O47 S8 1.451464 1_555
O48 S5 1.471530 1_555
O49 S3 1.467321 1_555
O50 S4 1.468562 1_555
O51 S1 1.571772 1_555
O51 Ta1 2.022005 1_555
O52 S2 1.592031 1_655
O52 Ta1 1.968969 1_555
O53 S0 1.574152 1_545
O53 Ta1 2.016324 1_555
O54 S9 1.469640 1_555
O55 S10 1.469210 1_655
O56 S11 1.466682 1_545
O57 S12 1.469897 1_545
O58 S13 1.474516 1_555
O59 S14 1.470631 1_655
O60 S8 1.522178 1_555
O60 Ta2 2.019161 1_555
O61 P1 1.596764 1_455
O61 Ta2 1.913697 1_555
O62 P2 1.596562 1_565
O62 Ta2 1.913040 1_555
O63 P0 1.596096 1_565
O63 Ta3 1.914279 1_555
O64 S7 1.517133 1_555
O64 Ta3 2.038705 1_555
O65 S6 1.518587 1_455
O65 Ta3 2.032254 1_555
O66 S0 1.454424 1_555
O67 S1 1.453509 1_555
O68 S2 1.449641 1_555
O69 S3 1.452668 1_555
O70 S4 1.452222 1_455
O71 S5 1.454754 1_565
