# generated using pymatgen
data_HoAsS
_symmetry_space_group_name_H-M   'P 1'
_cell_length_a   3.79912892
_cell_length_b   3.83285108
_cell_length_c   16.88672857
_cell_angle_alpha   90.00000000
_cell_angle_beta   90.00000000
_cell_angle_gamma   90.00000000
_symmetry_Int_Tables_number   1
_chemical_formula_structural   HoAsS
_chemical_formula_sum   'Ho4 As4 S4'
_cell_volume   245.89602012
_cell_formula_units_Z   4
loop_
 _symmetry_equiv_pos_site_id
 _symmetry_equiv_pos_as_xyz
  1  'x, y, z'
loop_
 _atom_site_type_symbol
 _atom_site_label
 _atom_site_symmetry_multiplicity
 _atom_site_fract_x
 _atom_site_fract_y
 _atom_site_fract_z
 _atom_site_occupancy
  Ho  Ho0  1  0.25000000  0.23549266  0.85404055  1
  Ho  Ho1  1  0.25000000  0.26450734  0.35404055  1
  Ho  Ho2  1  0.75000000  0.76450734  0.14595945  1
  Ho  Ho3  1  0.75000000  0.73549266  0.64595945  1
  As  As0  1  0.75000000  0.21493244  0.50177586  1
  As  As1  1  0.75000000  0.28506756  0.00177586  1
  As  As2  1  0.25000000  0.78506756  0.49822414  1
  As  As3  1  0.25000000  0.71493244  0.99822414  1
  S  S0  1  0.25000000  0.23892748  0.68718296  1
  S  S1  1  0.25000000  0.26107252  0.18718296  1
  S  S2  1  0.75000000  0.76107252  0.31281704  1
  S  S3  1  0.75000000  0.73892748  0.81281704  1
loop_
_geom_bond_atom_site_label_1
_geom_bond_atom_site_label_2
_geom_bond_distance
_geom_bond_site_symmetry_2
Ho0 S3 2.777651 1_445
Ho0 S3 2.777651 1_545
Ho0 S3 2.795758 1_455
Ho0 S3 2.795758 1_555
Ho0 S0 2.817710 1_555
Ho1 S2 2.777651 1_555
Ho1 S2 2.777651 1_455
Ho1 S2 2.795758 1_545
Ho1 S2 2.795758 1_445
Ho1 S1 2.817710 1_555
Ho2 S1 2.777651 1_665
Ho2 S1 2.777651 1_565
Ho2 S1 2.795758 1_655
Ho2 S1 2.795758 1_555
Ho2 S2 2.817710 1_555
Ho3 S0 2.777651 1_655
Ho3 S0 2.777651 1_555
Ho3 S0 2.795758 1_565
Ho3 S0 2.795758 1_665
Ho3 S3 2.817710 1_555
As0 As2 2.515264 1_545
As0 As2 2.515264 1_645
As0 As2 2.896071 1_655
As0 As2 2.896071 1_555
As0 Ho3 3.050418 1_545
As0 Ho1 3.141386 1_655
As0 Ho1 3.141386 1_555
As0 Ho3 3.147879 1_555
As1 As3 2.515264 1_554
As1 As3 2.515264 1_654
As1 As3 2.896071 1_644
As1 As3 2.896071 1_544
As1 Ho2 3.050418 1_555
As1 Ho0 3.141386 1_654
As1 Ho0 3.141386 1_554
As1 Ho2 3.147879 1_545
As2 Ho1 3.050418 1_565
As2 Ho3 3.141386 1_555
As2 Ho3 3.141386 1_455
As2 Ho1 3.147879 1_555
As3 Ho0 3.050418 1_555
As3 Ho2 3.141386 1_456
As3 Ho2 3.141386 1_556
As3 Ho0 3.147879 1_565
