# generated using pymatgen
data_Li(CoO2)4
_symmetry_space_group_name_H-M   'P 1'
_cell_length_a   5.56859535
_cell_length_b   5.78269016
_cell_length_c   9.60388423
_cell_angle_alpha   106.30064992
_cell_angle_beta   90.00926330
_cell_angle_gamma   118.76365952
_symmetry_Int_Tables_number   1
_chemical_formula_structural   Li(CoO2)4
_chemical_formula_sum   'Li2 Co8 O16'
_cell_volume   256.82011052
_cell_formula_units_Z   2
loop_
 _symmetry_equiv_pos_site_id
 _symmetry_equiv_pos_as_xyz
  1  'x, y, z'
loop_
 _atom_site_type_symbol
 _atom_site_label
 _atom_site_symmetry_multiplicity
 _atom_site_fract_x
 _atom_site_fract_y
 _atom_site_fract_z
 _atom_site_occupancy
  Li  Li0  1  0.75407036  0.00072696  0.25116720  1
  Li  Li1  1  0.24774184  0.00053590  0.74873583  1
  Co  Co0  1  0.49496541  0.49996661  0.00040160  1
  Co  Co1  1  0.74760104  0.50228483  0.75107863  1
  Co  Co2  1  0.75398571  0.50096055  0.25075532  1
  Co  Co3  1  0.50470085  0.50046833  0.50011169  1
  Co  Co4  1  -0.00432054  0.50061637  0.00017732  1
  Co  Co5  1  0.00465475  0.49970569  0.50030168  1
  Co  Co6  1  0.25233138  0.49742506  0.24854357  1
  Co  Co7  1  0.24568853  0.49850786  0.74887182  1
  O  O0  1  0.89824174  0.30334850  0.63348403  1
  O  O1  1  0.40469613  0.30242623  0.13307886  1
  O  O2  1  0.59139137  0.69701985  0.86691894  1
  O  O3  1  0.10493904  0.69601182  0.36658900  1
  O  O4  1  0.09477288  0.70101499  0.86542645  1
  O  O5  1  0.60577232  0.70012270  0.36512797  1
  O  O6  1  0.15399972  0.29807034  0.38055162  1
  O  O7  1  0.64002985  0.29875572  0.88368372  1
  O  O8  1  0.35299530  0.70227585  0.61664541  1
  O  O9  1  0.84516434  0.70199591  0.11913147  1
  O  O10  1  0.14429787  0.29863812  0.88056516  1
  O  O11  1  0.65823839  0.29805787  0.38380912  1
  O  O12  1  0.34880852  0.70197006  0.11680684  1
  O  O13  1  0.85678620  0.70242441  0.61899085  1
  O  O14  1  0.39892863  0.29872543  0.63469353  1
  O  O15  1  0.89952037  0.29794504  0.13435240  1
loop_
_geom_bond_atom_site_label_1
_geom_bond_atom_site_label_2
_geom_bond_distance
_geom_bond_site_symmetry_2
Li0 O9 2.112655 1_545
Li0 O11 2.125447 1_555
Li0 O6 2.138856 1_655
Li0 O5 2.142023 1_545
Li0 O15 2.147461 1_555
Li0 O12 2.176714 1_545
Li1 O13 2.108433 1_445
Li1 O7 2.131797 1_555
Li1 O14 2.131910 1_555
Li1 O10 2.153391 1_555
Li1 O4 2.156736 1_545
Li1 O8 2.161588 1_545
Co0 O7 1.853537 1_554
Co0 O1 1.856304 1_555
Co0 O12 1.859816 1_555
Co0 O2 1.860529 1_554
Co0 O9 1.878006 1_555
Co0 O10 1.884757 1_554
Co1 O4 1.848478 1_655
Co1 O13 1.861598 1_555
Co1 O14 1.861716 1_555
Co1 O2 1.871420 1_555
Co1 O0 1.871430 1_555
Co1 O7 1.878572 1_555
Co2 O5 1.849071 1_555
Co2 O15 1.861170 1_555
Co2 O9 1.861262 1_555
Co2 O1 1.870932 1_555
Co2 O3 1.871529 1_655
Co2 O11 1.879794 1_555
Co3 O8 1.882554 1_555
Co3 O5 1.882912 1_555
Co3 O6 1.883426 1_555
Co3 O13 1.886421 1_555
Co3 O14 1.887826 1_555
Co3 O11 1.891596 1_555
Co4 O12 1.881713 1_555
Co4 O10 1.883107 1_554
Co4 O4 1.883844 1_554
Co4 O9 1.885889 1_455
Co4 O15 1.888069 1_455
Co4 O7 1.891519 1_454
Co5 O11 1.853317 1_455
Co5 O0 1.855919 1_455
Co5 O3 1.859573 1_555
Co5 O8 1.860407 1_555
Co5 O13 1.879016 1_455
Co5 O6 1.885364 1_555
Co6 O1 1.854781 1_555
Co6 O6 1.857212 1_555
Co6 O3 1.858559 1_555
Co6 O15 1.871181 1_455
Co6 O12 1.875393 1_555
Co6 O5 1.882444 1_555
Co7 O0 1.854979 1_455
Co7 O10 1.856624 1_555
Co7 O2 1.857674 1_555
Co7 O14 1.871686 1_555
Co7 O8 1.876360 1_555
Co7 O4 1.882063 1_555
