# generated using pymatgen
data_Na5Ti2Si3Sn2(PO8)3
_symmetry_space_group_name_H-M   'P 1'
_cell_length_a   8.86631263
_cell_length_b   8.86305274
_cell_length_c   22.41907225
_cell_angle_alpha   90.01427435
_cell_angle_beta   90.05204494
_cell_angle_gamma   119.91474778
_symmetry_Int_Tables_number   1
_chemical_formula_structural   Na5Ti2Si3Sn2(PO8)3
_chemical_formula_sum   'Na15 Ti6 Si9 Sn6 P9 O72'
_cell_volume   1527.02717018
_cell_formula_units_Z   3
loop_
 _symmetry_equiv_pos_site_id
 _symmetry_equiv_pos_as_xyz
  1  'x, y, z'
loop_
 _atom_site_type_symbol
 _atom_site_label
 _atom_site_symmetry_multiplicity
 _atom_site_fract_x
 _atom_site_fract_y
 _atom_site_fract_z
 _atom_site_occupancy
  Na  Na0  1  0.00117903  0.63194246  0.25004767  1
  Na  Na1  1  0.36928871  0.00257625  0.74981703  1
  Na  Na2  1  0.03299197  0.70065191  0.58265697  1
  Na  Na3  1  0.66368431  0.96593921  0.58415112  1
  Na  Na4  1  0.29779539  0.96979961  0.08232485  1
  Na  Na5  1  0.03304688  0.33605230  0.08548237  1
  Na  Na6  1  0.97134775  0.66875470  0.91819687  1
  Na  Na7  1  0.96607529  0.30252014  0.41616711  1
  Na  Na8  1  0.33656850  0.03318971  0.41666728  1
  Na  Na9  1  0.00106239  0.99821536  0.50009996  1
  Na  Na10  1  0.99687233  0.99903215  0.00008497  1
  Na  Na11  1  0.66551217  0.32863130  0.83171010  1
  Na  Na12  1  0.66312010  0.33322914  0.33435721  1
  Na  Na13  1  0.34421263  0.66280487  0.16733184  1
  Na  Na14  1  0.33448387  0.65328422  0.66577915  1
  Ti  Ti0  1  0.98717223  0.99444852  0.35357686  1
  Ti  Ti1  1  0.99590527  0.00019293  0.64708931  1
  Ti  Ti2  1  0.00266118  0.00313346  0.14697903  1
  Ti  Ti3  1  0.66548536  0.33214247  0.68450416  1
  Ti  Ti4  1  0.66573801  0.34072663  0.48178597  1
  Ti  Ti5  1  0.34222378  0.67655911  0.51890180  1
  Si  Si0  1  0.00027254  0.28761399  0.25032461  1
  Si  Si1  1  0.71180160  0.00364019  0.74858265  1
  Si  Si2  1  0.37541413  0.04858175  0.58302088  1
  Si  Si3  1  0.66086257  0.61796459  0.58425404  1
  Si  Si4  1  0.95494576  0.62750262  0.08338702  1
  Si  Si5  1  0.37652922  0.33610527  0.08510895  1
  Si  Si6  1  0.33636728  0.96431477  0.91551604  1
  Si  Si7  1  0.62455976  0.95678111  0.41688062  1
  Si  Si8  1  0.03972449  0.66687699  0.41726097  1
  Sn  Sn0  1  0.00084105  0.00561711  0.85152123  1
  Sn  Sn1  1  0.66349072  0.33083961  0.18720776  1
  Sn  Sn2  1  0.65827314  0.32833806  0.98092264  1
  Sn  Sn3  1  0.33635256  0.66648937  0.01803447  1
  Sn  Sn4  1  0.33573859  0.66388881  0.31396474  1
  Sn  Sn5  1  0.33832237  0.66543509  0.81257437  1
  P  P0  1  0.28886693  0.00296967  0.25086957  1
  P  P1  1  0.71165234  0.71569806  0.24960568  1
  P  P2  1  0.29004663  0.29016688  0.74831054  1
  P  P3  1  0.99428984  0.70496595  0.74923976  1
  P  P4  1  0.95639247  0.33406655  0.58316924  1
  P  P5  1  0.66851388  0.04052765  0.08414752  1
  P  P6  1  0.62577752  0.66708647  0.91618043  1
  P  P7  1  0.04109827  0.37308575  0.91651380  1
  P  P8  1  0.33633750  0.37954813  0.41751081  1
  O  O0  1  0.20025948  0.02326407  0.30706915  1
  O  O1  1  0.82900656  0.80184916  0.30552394  1
  O  O2  1  0.97659531  0.16710434  0.30952352  1
  O  O3  1  0.21869257  0.17650076  0.80493004  1
  O  O4  1  0.96776510  0.78335917  0.80730947  1
  O  O5  1  0.82715050  0.03808775  0.80790068  1
  O  O6  1  0.80864883  0.97553238  0.68988783  1
  O  O7  1  0.17107741  0.19638715  0.69435975  1
  O  O8  1  0.03024302  0.82817144  0.69476027  1
  O  O9  1  0.80350544  0.82640382  0.19449183  1
  O  O10  1  0.02254328  0.19195266  0.19101328  1
  O  O11  1  0.17490694  0.97279331  0.19441564  1
  O  O12  1  0.86858243  0.36582217  0.63755454  1
  O  O13  1  0.50216291  0.13357557  0.64148759  1
  O  O14  1  0.63925849  0.49609579  0.64138384  1
  O  O15  1  0.88072699  0.50201420  0.14204445  1
  O  O16  1  0.62549366  0.11715383  0.13853827  1
  O  O17  1  0.49354748  0.36968790  0.14345084  1
  O  O18  1  0.44682239  0.27945242  0.02707831  1
  O  O19  1  0.84318390  0.54410201  0.02225631  1
  O  O20  1  0.71137415  0.15962452  0.02836912  1
  O  O21  1  0.46977972  0.16548987  0.52395235  1
  O  O22  1  0.70307453  0.52965819  0.52694190  1
  O  O23  1  0.84100808  0.29740372  0.52686637  1
  O  O24  1  0.54604575  0.69848213  0.97254076  1
  O  O25  1  0.14840333  0.44966510  0.97433506  1
  O  O26  1  0.29313324  0.84124200  0.97505001  1
  O  O27  1  0.53327124  0.83407983  0.47629529  1
  O  O28  1  0.30079671  0.46620224  0.47132677  1
  O  O29  1  0.16920757  0.70020045  0.47530560  1
  O  O30  1  0.11439103  0.61961811  0.35732267  1
  O  O31  1  0.49822805  0.87753280  0.35957823  1
  O  O32  1  0.37173393  0.48737052  0.36038110  1
  O  O33  1  0.12546903  0.49269957  0.86198134  1
  O  O34  1  0.36304713  0.87587553  0.85541124  1
  O  O35  1  0.51141928  0.63102293  0.86025429  1
  O  O36  1  0.03279199  0.84669435  0.40904734  1
  O  O37  1  0.82031843  0.98188444  0.41007610  1
  O  O38  1  0.17196980  0.19598569  0.41152470  1
  O  O39  1  0.02247910  0.19161506  0.91204989  1
  O  O40  1  0.15357765  0.97041573  0.91093034  1
  O  O41  1  0.80880906  0.82779419  0.91127652  1
  O  O42  1  0.97062310  0.16717911  0.59059746  1
  O  O43  1  0.17980556  0.01804283  0.59141644  1
  O  O44  1  0.83732583  0.81349363  0.59128483  1
  O  O45  1  0.98259485  0.82260340  0.09244430  1
  O  O46  1  0.83296653  0.02474632  0.09168347  1
  O  O47  1  0.18016960  0.16152529  0.09269833  1
  O  O48  1  0.68359372  0.17154062  0.74080549  1
  O  O49  1  0.47068787  0.30676076  0.74115564  1
  O  O50  1  0.83404033  0.52375195  0.74152979  1
  O  O51  1  0.70139130  0.53565684  0.24705054  1
  O  O52  1  0.82833672  0.31248285  0.24746205  1
  O  O53  1  0.47173586  0.16618074  0.24635444  1
  O  O54  1  0.65286170  0.50831577  0.92043578  1
  O  O55  1  0.86301512  0.36433391  0.92163124  1
  O  O56  1  0.51196512  0.15321545  0.91951110  1
  O  O57  1  0.64690334  0.14980486  0.42526672  1
  O  O58  1  0.49424786  0.35162903  0.42507018  1
  O  O59  1  0.85039222  0.49113036  0.42633552  1
  O  O60  1  0.34608418  0.50137063  0.07817784  1
  O  O61  1  0.15153559  0.64979465  0.07896041  1
  O  O62  1  0.50318968  0.86237682  0.07707471  1
  O  O63  1  0.35546520  0.85203856  0.57638494  1
  O  O64  1  0.49369032  0.64498461  0.57649256  1
  O  O65  1  0.13545494  0.49879744  0.57655190  1
  O  O66  1  0.30058094  0.83364183  0.25363259  1
  O  O67  1  0.53039703  0.69727432  0.25454292  1
  O  O68  1  0.17183848  0.48401641  0.25314187  1
  O  O69  1  0.30300458  0.47028584  0.75407012  1
  O  O70  1  0.16429319  0.69343617  0.75319045  1
  O  O71  1  0.51507641  0.83052428  0.75076284  1
loop_
_geom_bond_atom_site_label_1
_geom_bond_atom_site_label_2
_geom_bond_distance
_geom_bond_site_symmetry_2
Na0 O66 2.348472 1_555
Na0 O51 2.352657 1_455
Na0 O68 2.447820 1_555
Na0 O52 2.457744 1_455
Na0 O30 2.628431 1_555
Na0 O15 2.663972 1_455
Na0 O11 2.901473 1_555
Na0 O1 2.905213 1_455
Na1 O49 2.386929 1_555
Na1 O70 2.418603 1_545
Na1 O48 2.426517 1_555
Na1 O71 2.441839 1_545
Na1 O34 2.609194 1_545
Na1 O13 2.697514 1_555
Na1 O3 2.782219 1_555
Na1 O8 2.882199 1_545
Na2 O65 2.380324 1_555
Na2 O44 2.403832 1_455
Na2 O43 2.448102 1_565
Na2 O63 2.483797 1_555
Na2 O29 2.694627 1_555
Na2 O8 2.760540 1_555
Na2 O22 2.825639 1_455
Na2 O12 2.852493 1_455
Na3 O63 2.401010 1_555
Na3 O42 2.401244 1_565
Na3 O64 2.473055 1_555
Na3 O44 2.509150 1_555
Na3 O6 2.676556 1_555
Na3 O27 2.682411 1_555
Na3 O13 2.834683 1_565
Na3 O23 2.854896 1_565
Na4 O47 2.407724 1_565
Na4 O45 2.434828 1_455
Na4 O62 2.442625 1_555
Na4 O61 2.462259 1_555
Na4 O26 2.652449 1_554
Na4 O18 2.683237 1_565
Na4 O11 2.745298 1_555
Na4 O16 2.818407 1_565
Na5 O60 2.412829 1_555
Na5 O46 2.428520 1_455
Na5 O61 2.438060 1_555
Na5 O47 2.476437 1_555
Na5 O10 2.668445 1_555
Na5 O25 2.692184 1_554
Na5 O15 2.753016 1_455
Na5 O20 2.786208 1_455
Na6 O40 2.340386 1_655
Na6 O55 2.371415 1_555
Na6 O54 2.448191 1_555
Na6 O41 2.472575 1_555
Na6 O19 2.590031 1_556
Na6 O4 2.691877 1_555
Na6 O26 2.782739 1_655
Na6 O33 2.831845 1_655
Na7 O59 2.368302 1_555
Na7 O38 2.440180 1_655
Na7 O57 2.462237 1_555
Na7 O37 2.470031 1_545
Na7 O2 2.697401 1_555
Na7 O23 2.710312 1_555
Na7 O30 2.772553 1_655
Na7 O28 2.852984 1_655
Na8 O36 2.360969 1_545
Na8 O57 2.416342 1_555
Na8 O58 2.453429 1_555
Na8 O38 2.514958 1_555
Na8 O21 2.677153 1_555
Na8 O0 2.719207 1_555
Na8 O31 2.751466 1_545
Na8 O29 2.877097 1_545
Na9 O37 2.534763 1_455
Na9 O36 2.534976 1_555
Na9 O43 2.539636 1_565
Na9 O44 2.569718 1_455
Na9 O38 2.582614 1_565
Na9 O42 2.614261 1_465
Na10 O40 2.519144 1_654
Na10 O39 2.544854 1_664
Na10 O41 2.552674 1_554
Na10 O45 2.559933 1_555
Na10 O47 2.585387 1_665
Na10 O46 2.591615 1_565
Na11 O56 2.457739 1_555
Na11 O48 2.517827 1_555
Na11 O55 2.582865 1_555
Na11 O54 2.585054 1_555
Na11 O50 2.596295 1_555
Na11 O49 2.608132 1_555
Na12 O52 2.499685 1_555
Na12 O53 2.539792 1_555
Na12 O51 2.561431 1_555
Na12 O57 2.566416 1_555
Na12 O59 2.577260 1_555
Na12 O58 2.579394 1_555
Na13 O60 2.462678 1_555
Na13 O67 2.476281 1_555
Na13 O68 2.477702 1_555
Na13 O61 2.579561 1_555
Na13 O62 2.594257 1_555
Na13 O66 2.601881 1_555
Na14 O64 2.472544 1_555
Na14 O71 2.479044 1_555
Na14 O69 2.485488 1_555
Na14 O65 2.563706 1_555
Na14 O70 2.604725 1_555
Na14 O63 2.613403 1_555
O0 P0 1.542608 1_555
O0 Ti0 2.060159 1_445
O1 P1 1.562685 1_555
O1 Ti0 1.910431 1_555
O2 Si0 1.650412 1_655
O2 Ti0 1.862693 1_545
O3 P2 1.546872 1_555
O3 Sn0 2.049960 1_555
O4 P3 1.547904 1_555
O4 Sn0 2.090740 1_665
O5 Si1 1.610456 1_555
O5 Sn0 1.962196 1_655
O6 Si1 1.657163 1_565
O6 Ti1 1.834661 1_565
O7 P2 1.545688 1_555
O7 Ti1 1.965033 1_455
O8 P3 1.562042 1_455
O8 Ti1 2.005643 1_465
O9 P1 1.535612 1_555
O9 Ti2 1.987871 1_665
O10 Si0 1.640993 1_555
O10 Ti2 1.873744 1_555
O11 P0 1.556366 1_565
O11 Ti2 1.985549 1_565
O12 P4 1.546637 1_555
O12 Ti3 1.976629 1_555
O13 Si2 1.643458 1_555
O13 Ti3 1.891812 1_555
O14 Si3 1.624372 1_555
O14 Ti3 1.854054 1_555
O15 Si4 1.634528 1_555
O15 Sn1 2.031355 1_555
O16 P5 1.533768 1_555
O16 Sn1 2.062242 1_555
O17 Si5 1.601610 1_555
O17 Sn1 1.966265 1_555
O18 Si5 1.626781 1_555
O18 Sn2 1.991694 1_554
O19 Si4 1.634934 1_555
O19 Sn2 2.018120 1_554
O20 P5 1.556855 1_555
O20 Sn2 2.071517 1_554
O21 Si2 1.632583 1_555
O21 Ti4 1.907025 1_555
O22 Si3 1.641983 1_555
O22 Ti4 1.839587 1_555
O23 P4 1.552856 1_555
O23 Ti4 2.043595 1_555
O24 P6 1.539927 1_555
O24 Sn3 2.013718 1_556
O25 P7 1.549022 1_555
O25 Sn3 2.057120 1_556
O26 Si6 1.644019 1_555
O26 Sn3 2.016548 1_556
O27 Si7 1.654328 1_555
O27 Ti5 1.837290 1_555
O28 P8 1.544806 1_555
O28 Ti5 2.015883 1_555
O29 Si8 1.660578 1_555
O29 Ti5 1.915821 1_555
O30 Si8 1.642350 1_555
O30 Sn4 2.045965 1_555
O31 Si7 1.615721 1_555
O31 Sn4 1.995543 1_555
O32 P8 1.534395 1_555
O32 Sn4 2.032383 1_555
O33 P7 1.545791 1_555
O33 Sn5 2.062812 1_555
O34 Si6 1.634349 1_555
O34 Sn5 2.009981 1_555
O35 P6 1.541595 1_555
O35 Sn5 2.013732 1_555
O36 Si8 1.635695 1_555
O36 Ti0 1.988287 1_455
O37 Si7 1.643352 1_555
O37 Ti0 1.909070 1_555
O38 P8 1.556725 1_555
O38 Ti0 2.153790 1_445
O39 P7 1.535977 1_555
O39 Sn0 2.068524 1_555
O40 Si6 1.651416 1_555
O40 Sn0 2.030645 1_565
O41 P6 1.539255 1_555
O41 Sn0 2.122788 1_665
O42 P4 1.554900 1_555
O42 Ti1 2.043526 1_555
O43 Si2 1.627569 1_555
O43 Ti1 1.996988 1_455
O44 Si3 1.664633 1_555
O44 Ti1 1.988821 1_565
O45 Si4 1.633507 1_555
O45 Ti2 1.949690 1_665
O46 P5 1.541789 1_555
O46 Ti2 2.030124 1_655
O47 Si5 1.663707 1_555
O47 Ti2 1.931127 1_555
O48 Si1 1.636670 1_555
O48 Ti3 1.968144 1_555
O49 P2 1.542104 1_555
O49 Ti3 2.064772 1_555
O50 P3 1.533461 1_555
O50 Ti3 2.053276 1_555
O51 P1 1.553386 1_555
O51 Sn1 2.144231 1_555
O52 Si0 1.646687 1_655
O52 Sn1 2.054547 1_555
O53 P0 1.546811 1_555
O53 Sn1 2.075794 1_555
O54 P6 1.544031 1_555
O54 Sn2 2.112583 1_555
O55 P7 1.546094 1_655
O55 Sn2 2.142660 1_555
O56 Si6 1.623210 1_545
O56 Sn2 1.993700 1_555
O57 Si7 1.631898 1_545
O57 Ti4 2.052686 1_555
O58 P8 1.547685 1_555
O58 Ti4 2.020162 1_555
O59 Si8 1.636568 1_655
O59 Ti4 1.957175 1_555
O60 Si5 1.623862 1_555
O60 Sn3 2.023348 1_555
O61 Si4 1.656460 1_455
O61 Sn3 2.082083 1_555
O62 P5 1.535523 1_565
O62 Sn3 2.094780 1_555
O63 Si2 1.667452 1_565
O63 Ti5 1.977395 1_555
O64 Si3 1.624236 1_555
O64 Ti5 1.980083 1_555
O65 P4 1.537129 1_455
O65 Ti5 2.153605 1_555
O66 P0 1.556410 1_565
O66 Sn4 2.158312 1_555
O67 P1 1.536284 1_555
O67 Sn4 2.082307 1_555
O68 Si0 1.645209 1_555
O68 Sn4 2.048723 1_555
O69 P2 1.547679 1_555
O69 Sn5 2.065882 1_555
O70 P3 1.563216 1_455
O70 Sn5 2.143188 1_555
O71 Si1 1.652200 1_565
O71 Sn5 2.057925 1_555
