# generated using pymatgen
data_MgFe2(ClO)2
_symmetry_space_group_name_H-M   'P 1'
_cell_length_a   3.70765800
_cell_length_b   4.04642000
_cell_length_c   7.68215900
_cell_angle_alpha   90.00000000
_cell_angle_beta   90.00000000
_cell_angle_gamma   90.00000000
_symmetry_Int_Tables_number   1
_chemical_formula_structural   MgFe2(ClO)2
_chemical_formula_sum   'Mg1 Fe2 Cl2 O2'
_cell_volume   115.25344552
_cell_formula_units_Z   1
loop_
 _symmetry_equiv_pos_site_id
 _symmetry_equiv_pos_as_xyz
  1  'x, y, z'
loop_
 _atom_site_type_symbol
 _atom_site_label
 _atom_site_symmetry_multiplicity
 _atom_site_fract_x
 _atom_site_fract_y
 _atom_site_fract_z
 _atom_site_occupancy
  Mg  Mg0  1  0.50000000  0.50000000  0.35811800  1
  Fe  Fe0  1  0.50000000  0.00000000  0.04494500  1
  Fe  Fe1  1  0.00000000  0.50000000  0.90398700  1
  Cl  Cl0  1  0.00000000  0.00000000  0.36785600  1
  Cl  Cl1  1  0.50000000  0.50000000  0.66724500  1
  O  O0  1  0.00000000  0.00000000  0.93566400  1
  O  O1  1  0.50000000  0.50000000  0.10499800  1
loop_
_geom_bond_atom_site_label_1
_geom_bond_atom_site_label_2
_geom_bond_distance
_geom_bond_site_symmetry_2
Mg0 O1 1.944508 1_555
Fe0 O0 2.035059 1_554
Fe0 O0 2.035059 1_654
Fe0 O1 2.075141 1_545
Fe0 O1 2.075141 1_555
Fe1 O0 2.037792 1_565
Fe1 O0 2.037792 1_555
Fe1 O1 2.412723 1_556
Fe1 O1 2.412723 1_456
Cl0 Mg0 2.745115 1_555
Cl0 Mg0 2.745115 1_445
Cl0 Mg0 2.745115 1_545
Cl0 Mg0 2.745115 1_455
Cl1 Mg0 2.374763 1_555
Cl1 Fe1 2.596982 1_555
Cl1 Fe1 2.596982 1_655
