# generated using pymatgen
data_SmFeB4
_symmetry_space_group_name_H-M   'P 1'
_cell_length_a   3.49028581
_cell_length_b   5.96401693
_cell_length_c   11.55680883
_cell_angle_alpha   90.00000000
_cell_angle_beta   90.00000000
_cell_angle_gamma   90.00000000
_symmetry_Int_Tables_number   1
_chemical_formula_structural   SmFeB4
_chemical_formula_sum   'Sm4 Fe4 B16'
_cell_volume   240.56796174
_cell_formula_units_Z   4
loop_
 _symmetry_equiv_pos_site_id
 _symmetry_equiv_pos_as_xyz
  1  'x, y, z'
loop_
 _atom_site_type_symbol
 _atom_site_label
 _atom_site_symmetry_multiplicity
 _atom_site_fract_x
 _atom_site_fract_y
 _atom_site_fract_z
 _atom_site_occupancy
  Sm  Sm0  1  0.00000000  0.37379536  0.65052048  1
  Sm  Sm1  1  0.00000000  0.62620464  0.34947952  1
  Sm  Sm2  1  0.00000000  0.87379536  0.84947952  1
  Sm  Sm3  1  -0.00000000  0.12620464  0.15052048  1
  Fe  Fe0  1  -0.00000000  0.37320545  0.91731044  1
  Fe  Fe1  1  -0.00000000  0.62679455  0.08268956  1
  Fe  Fe2  1  0.00000000  0.87320545  0.58268956  1
  Fe  Fe3  1  0.00000000  0.12679455  0.41731044  1
  B  B0  1  0.50000000  0.02195112  0.68866798  1
  B  B1  1  0.50000000  0.97804888  0.31133202  1
  B  B2  1  0.50000000  0.52195112  0.81133202  1
  B  B3  1  0.50000000  0.47804888  0.18866798  1
  B  B4  1  0.50000000  0.11135360  0.54582808  1
  B  B5  1  0.50000000  0.88864640  0.45417192  1
  B  B6  1  0.50000000  0.61135360  0.95417192  1
  B  B7  1  0.50000000  0.38864640  0.04582808  1
  B  B8  1  0.50000000  0.27793471  0.31785391  1
  B  B9  1  0.50000000  0.72206529  0.68214609  1
  B  B10  1  0.50000000  0.77793471  0.18214609  1
  B  B11  1  0.50000000  0.22206529  0.81785391  1
  B  B12  1  0.50000000  0.35885606  0.46672490  1
  B  B13  1  0.50000000  0.64114394  0.53327510  1
  B  B14  1  0.50000000  0.85885606  0.03327510  1
  B  B15  1  0.50000000  0.14114394  0.96672490  1
loop_
_geom_bond_atom_site_label_1
_geom_bond_atom_site_label_2
_geom_bond_distance
_geom_bond_site_symmetry_2
B0 B4 1.734749 1_555
B0 B9 1.790112 1_545
B0 B11 1.911383 1_555
B0 Fe2 2.309237 1_545
B0 Fe2 2.309237 1_645
B0 Sm2 2.698181 1_545
B0 Sm2 2.698181 1_645
B0 Sm0 2.764632 1_555
B0 Sm0 2.764632 1_655
B1 B5 1.734749 1_555
B1 B8 1.790112 1_565
B1 B10 1.911383 1_555
B1 Fe3 2.309237 1_665
B1 Fe3 2.309237 1_565
B1 Sm3 2.698181 1_565
B1 Sm3 2.698181 1_665
B1 Sm1 2.764632 1_655
B1 Sm1 2.764632 1_555
B2 B6 1.734749 1_555
B2 B9 1.911383 1_555
B2 Fe0 2.309237 1_655
B2 Fe0 2.309237 1_555
B2 Sm0 2.698181 1_655
B2 Sm0 2.698181 1_555
B2 Sm2 2.764632 1_555
B2 Sm2 2.764632 1_655
B3 B7 1.734749 1_555
B3 B8 1.911383 1_555
B3 Fe1 2.309237 1_655
B3 Fe1 2.309237 1_555
B3 Sm1 2.698181 1_655
B3 Sm1 2.698181 1_555
B3 Sm3 2.764632 1_555
B3 Sm3 2.764632 1_655
B4 B5 1.698885 1_545
B4 Fe2 2.290046 1_645
B4 Fe2 2.290046 1_545
B4 Fe3 2.293465 1_655
B4 Fe3 2.293465 1_555
B4 Sm0 2.638045 1_555
B4 Sm0 2.638045 1_655
B5 Fe3 2.290046 1_565
B5 Fe3 2.290046 1_665
B5 Fe2 2.293465 1_555
B5 Fe2 2.293465 1_655
B5 Sm1 2.638045 1_655
B5 Sm1 2.638045 1_555
B6 B7 1.698885 1_556
B6 Fe0 2.290046 1_655
B6 Fe0 2.290046 1_555
B6 Fe1 2.293465 1_556
B6 Fe1 2.293465 1_656
B6 Sm2 2.638045 1_555
B6 Sm2 2.638045 1_655
B7 Fe1 2.290046 1_555
B7 Fe1 2.290046 1_655
B7 Fe0 2.293465 1_554
B7 Fe0 2.293465 1_654
B7 Sm3 2.638045 1_555
B7 Sm3 2.638045 1_655
B8 Fe3 2.275779 1_555
B8 Fe3 2.275779 1_655
B8 Sm1 2.737408 1_655
B8 Sm1 2.737408 1_555
B8 Sm3 2.757561 1_555
B8 Sm3 2.757561 1_655
B9 Fe2 2.275779 1_655
B9 Fe2 2.275779 1_555
B9 Sm0 2.737408 1_655
B9 Sm0 2.737408 1_555
B9 Sm2 2.757561 1_655
B9 Sm2 2.757561 1_555
B10 B14 1.786882 1_555
B10 B3 1.790112 1_555
B10 Fe1 2.275779 1_555
B10 Fe1 2.275779 1_655
B10 Sm3 2.737408 1_565
B10 Sm3 2.737408 1_665
B10 Sm1 2.757561 1_655
B10 Sm1 2.757561 1_555
B11 B15 1.786882 1_555
B11 B2 1.790112 1_555
B11 Fe0 2.275779 1_655
B11 Fe0 2.275779 1_555
B11 Sm2 2.737408 1_545
B11 Sm2 2.737408 1_645
B11 Sm0 2.757561 1_555
B11 Sm0 2.757561 1_655
B12 B4 1.736267 1_555
B12 B8 1.786882 1_555
B12 B13 1.850928 1_555
B12 Fe3 2.299382 1_555
B12 Fe3 2.299382 1_655
B12 Sm1 2.724673 1_655
B12 Sm1 2.724673 1_555
B12 Sm0 2.750495 1_655
B12 Sm0 2.750495 1_555
B13 B5 1.736267 1_555
B13 B9 1.786882 1_555
B13 Fe2 2.299382 1_555
B13 Fe2 2.299382 1_655
B13 Sm0 2.724673 1_555
B13 Sm0 2.724673 1_655
B13 Sm1 2.750495 1_555
B13 Sm1 2.750495 1_655
B14 B6 1.736267 1_554
B14 B15 1.850928 1_564
B14 Fe1 2.299382 1_655
B14 Fe1 2.299382 1_555
B14 Sm3 2.724673 1_565
B14 Sm3 2.724673 1_665
B14 Sm2 2.750495 1_654
B14 Sm2 2.750495 1_554
B15 B7 1.736267 1_556
B15 Fe0 2.299382 1_655
B15 Fe0 2.299382 1_555
B15 Sm2 2.724673 1_645
B15 Sm2 2.724673 1_545
B15 Sm3 2.750495 1_656
B15 Sm3 2.750495 1_556
