# generated using pymatgen
data_HgPd
_symmetry_space_group_name_H-M   'P 1'
_cell_length_a   3.77477032
_cell_length_b   4.32946195
_cell_length_c   4.32946195
_cell_angle_alpha   90.00000000
_cell_angle_beta   90.00000000
_cell_angle_gamma   90.00000000
_symmetry_Int_Tables_number   1
_chemical_formula_structural   HgPd
_chemical_formula_sum   'Hg2 Pd2'
_cell_volume   70.75520375
_cell_formula_units_Z   2
loop_
 _symmetry_equiv_pos_site_id
 _symmetry_equiv_pos_as_xyz
  1  'x, y, z'
loop_
 _atom_site_type_symbol
 _atom_site_label
 _atom_site_symmetry_multiplicity
 _atom_site_fract_x
 _atom_site_fract_y
 _atom_site_fract_z
 _atom_site_occupancy
  Hg  Hg0  1  -0.00000000  -0.00000000  -0.00000000  1
  Hg  Hg1  1  -0.00000000  0.50000000  0.50000000  1
  Pd  Pd0  1  0.50000000  0.00000000  0.50000000  1
  Pd  Pd1  1  0.50000000  0.50000000  -0.00000000  1
loop_
_geom_bond_atom_site_label_1
_geom_bond_atom_site_label_2
_geom_bond_distance
_geom_bond_site_symmetry_2
Hg0 Pd1 2.871982 1_455
Hg0 Pd0 2.871982 1_555
Hg0 Pd1 2.871982 1_555
Hg0 Pd1 2.871982 1_545
Hg0 Pd0 2.871982 1_455
Hg0 Pd1 2.871982 1_445
Hg0 Pd0 2.871982 1_454
Hg0 Pd0 2.871982 1_554
Hg0 Hg1 3.061392 1_554
Hg0 Hg1 3.061392 1_555
Hg0 Hg1 3.061392 1_544
Hg0 Hg1 3.061392 1_545
Hg1 Pd0 2.871982 1_565
Hg1 Pd1 2.871982 1_456
Hg1 Pd1 2.871982 1_455
Hg1 Pd0 2.871982 1_555
Hg1 Pd1 2.871982 1_555
Hg1 Pd1 2.871982 1_556
Hg1 Pd0 2.871982 1_455
Hg1 Pd0 2.871982 1_465
Pd0 Pd1 3.061392 1_556
Pd0 Pd1 3.061392 1_555
Pd0 Pd1 3.061392 1_546
Pd0 Pd1 3.061392 1_545
