# generated using pymatgen
data_P3RuO9
_symmetry_space_group_name_H-M   'P 1'
_cell_length_a   6.30275173
_cell_length_b   8.36967190
_cell_length_c   15.38793292
_cell_angle_alpha   90.00000000
_cell_angle_beta   90.00000000
_cell_angle_gamma   106.74625288
_symmetry_Int_Tables_number   1
_chemical_formula_structural   P3RuO9
_chemical_formula_sum   'P12 Ru4 O36'
_cell_volume   777.31780257
_cell_formula_units_Z   4
loop_
 _symmetry_equiv_pos_site_id
 _symmetry_equiv_pos_as_xyz
  1  'x, y, z'
loop_
 _atom_site_type_symbol
 _atom_site_label
 _atom_site_symmetry_multiplicity
 _atom_site_fract_x
 _atom_site_fract_y
 _atom_site_fract_z
 _atom_site_occupancy
  P  P0  1  0.15060838  0.22158422  0.45516449  1
  P  P1  1  0.84942652  0.27841669  0.95521130  1
  P  P2  1  0.84942652  0.77841669  0.54478870  1
  P  P3  1  0.15060838  0.72158422  0.04483551  1
  P  P4  1  0.40766058  0.20349186  0.61389997  1
  P  P5  1  0.59234239  0.29652082  0.11394824  1
  P  P6  1  0.59234239  0.79652082  0.38605176  1
  P  P7  1  0.40766058  0.70349186  0.88610003  1
  P  P8  1  0.78988123  0.48385691  0.65955413  1
  P  P9  1  0.21010715  0.01614364  0.15955581  1
  P  P10  1  0.21010715  0.51614364  0.34044419  1
  P  P11  1  0.78988123  0.98385691  0.84044587  1
  Ru  Ru0  1  0.87972064  0.12142751  0.63584142  1
  Ru  Ru1  1  0.12027201  0.37857362  0.13590273  1
  Ru  Ru2  1  0.12027201  0.87857362  0.36409727  1
  Ru  Ru3  1  0.87972064  0.62142751  0.86415858  1
  O  O0  1  0.18696892  0.12694073  0.37681472  1
  O  O1  1  0.81305377  0.37308026  0.87687692  1
  O  O2  1  0.81305377  0.87308026  0.62312308  1
  O  O3  1  0.18696892  0.62694073  0.12318528  1
  O  O4  1  0.93971831  0.15536403  0.50376395  1
  O  O5  1  0.06027605  0.34459872  0.00382368  1
  O  O6  1  0.06027605  0.84459872  0.49617632  1
  O  O7  1  0.93971831  0.65536403  0.99623605  1
  O  O8  1  0.55562056  0.09468356  0.61146069  1
  O  O9  1  0.44437245  0.40533512  0.11152276  1
  O  O10  1  0.44437245  0.90533512  0.38847724  1
  O  O11  1  0.55562056  0.59468356  0.88853931  1
  O  O12  1  0.19736910  0.13973627  0.66341466  1
  O  O13  1  0.80263090  0.36027396  0.16347708  1
  O  O14  1  0.80263090  0.86027396  0.33652292  1
  O  O15  1  0.19736910  0.63973627  0.83658534  1
  O  O16  1  0.53490512  0.88037819  0.84732004  1
  O  O17  1  0.46508535  0.61962490  0.34728261  1
  O  O18  1  0.46508535  0.11962490  0.15271739  1
  O  O19  1  0.53490512  0.38037819  0.65267996  1
  O  O20  1  0.82404839  0.09291719  0.92674969  1
  O  O21  1  0.17596835  0.40712767  0.42674612  1
  O  O22  1  0.17596835  0.90712767  0.07325388  1
  O  O23  1  0.82404839  0.59291719  0.57325031  1
  O  O24  1  0.35911687  0.75058130  0.98254369  1
  O  O25  1  0.64089770  0.74943292  0.48249121  1
  O  O26  1  0.64089770  0.24943292  0.01750879  1
  O  O27  1  0.35911687  0.25058130  0.51745631  1
  O  O28  1  0.81531660  0.09742864  0.76596053  1
  O  O29  1  0.18464120  0.40249078  0.26599890  1
  O  O30  1  0.18464120  0.90249078  0.23400110  1
  O  O31  1  0.81531660  0.59742864  0.73403947  1
  O  O32  1  0.93194108  0.87049624  0.85081622  1
  O  O33  1  0.06804939  0.62949726  0.35077877  1
  O  O34  1  0.06804939  0.12949726  0.14922123  1
  O  O35  1  0.93194108  0.37049624  0.64918378  1
loop_
_geom_bond_atom_site_label_1
_geom_bond_atom_site_label_2
_geom_bond_distance
_geom_bond_site_symmetry_2
O0 P0 1.496055 1_555
O0 Ru2 2.008145 1_545
O1 P1 1.495984 1_555
O1 Ru3 2.008001 1_555
O2 P2 1.495984 1_555
O2 Ru0 2.008001 1_565
O3 P3 1.496055 1_555
O3 Ru1 2.008145 1_555
O4 P0 1.486158 1_655
O4 Ru0 2.071817 1_555
O5 P1 1.486020 1_454
O5 Ru1 2.071866 1_555
O6 P2 1.486020 1_455
O6 Ru2 2.071866 1_555
O7 P3 1.486158 1_656
O7 Ru3 2.071817 1_555
O8 P4 1.479807 1_555
O8 Ru0 2.024865 1_555
O9 P5 1.479892 1_555
O9 Ru1 2.024839 1_555
O10 P6 1.479892 1_555
O10 Ru2 2.024839 1_555
O11 P7 1.479807 1_555
O11 Ru3 2.024865 1_555
O12 P4 1.488097 1_555
O12 Ru0 2.008720 1_455
O13 P5 1.488192 1_555
O13 Ru1 2.008694 1_655
O14 P6 1.488192 1_555
O14 Ru2 2.008694 1_655
O15 P7 1.488097 1_555
O15 Ru3 2.008720 1_455
O16 P7 1.583318 1_555
O16 P11 1.594312 1_555
O17 P6 1.583337 1_555
O17 P10 1.594292 1_555
O18 P5 1.583337 1_555
O18 P9 1.594292 1_555
O19 P4 1.583318 1_555
O19 P8 1.594312 1_555
O20 P1 1.576313 1_555
O20 P11 1.590592 1_545
O21 P0 1.576501 1_555
O21 P10 1.590375 1_555
O22 P3 1.576501 1_555
O22 P9 1.590375 1_565
O23 P2 1.576313 1_555
O23 P8 1.590592 1_555
O24 P7 1.587732 1_555
O24 P3 1.587756 1_556
O25 P6 1.587687 1_555
O25 P2 1.587919 1_555
O26 P5 1.587687 1_555
O26 P1 1.587919 1_554
O27 P4 1.587732 1_555
O27 P0 1.587756 1_555
O28 P11 1.468048 1_545
O28 Ru0 2.041371 1_555
O29 P10 1.467970 1_555
O29 Ru1 2.040959 1_555
O30 P9 1.467970 1_565
O30 Ru2 2.040959 1_555
O31 P8 1.468048 1_555
O31 Ru3 2.041371 1_555
O32 P11 1.488927 1_555
O32 Ru3 2.025031 1_555
O33 P10 1.488810 1_555
O33 Ru2 2.025054 1_555
O34 P9 1.488810 1_555
O34 Ru1 2.025054 1_555
O35 P8 1.488927 1_555
O35 Ru0 2.025031 1_555
