# generated using pymatgen
data_CeSnPt
_symmetry_space_group_name_H-M   'P 1'
_cell_length_a   7.51362862
_cell_length_b   7.51354242
_cell_length_c   4.13930909
_cell_angle_alpha   90.00000000
_cell_angle_beta   90.00000000
_cell_angle_gamma   119.99986462
_symmetry_Int_Tables_number   1
_chemical_formula_structural   CeSnPt
_chemical_formula_sum   'Ce3 Sn3 Pt3'
_cell_volume   202.37345641
_cell_formula_units_Z   3
loop_
 _symmetry_equiv_pos_site_id
 _symmetry_equiv_pos_as_xyz
  1  'x, y, z'
loop_
 _atom_site_type_symbol
 _atom_site_label
 _atom_site_symmetry_multiplicity
 _atom_site_fract_x
 _atom_site_fract_y
 _atom_site_fract_z
 _atom_site_occupancy
  Ce  Ce0  1  0.41210307  0.41209925  -0.00000000  1
  Ce  Ce1  1  0.58789811  0.99999637  0.00000000  1
  Ce  Ce2  1  0.99999979  0.58789927  -0.00000000  1
  Sn  Sn0  1  0.00001163  0.25211392  0.50000000  1
  Sn  Sn1  1  0.74778608  0.74784504  0.50000000  1
  Sn  Sn2  1  0.25220728  0.00007030  0.50000000  1
  Pt  Pt0  1  0.33337494  0.66666728  0.50000000  1
  Pt  Pt1  1  0.00000044  0.00001208  0.00000000  1
  Pt  Pt2  1  0.66661964  0.33329749  0.50000000  1
loop_
_geom_bond_atom_site_label_1
_geom_bond_atom_site_label_2
_geom_bond_distance
_geom_bond_site_symmetry_2
Ce0 Pt0 3.069733 1_554
Ce0 Pt0 3.069733 1_555
Ce0 Pt2 3.069746 1_555
Ce0 Pt2 3.069746 1_554
Ce0 Pt1 3.096317 1_555
Ce0 Sn1 3.262835 1_554
Ce0 Sn1 3.262835 1_555
Ce0 Sn2 3.404632 1_555
Ce0 Sn2 3.404632 1_554
Ce0 Sn0 3.404935 1_555
Ce0 Sn0 3.404935 1_554
Ce1 Pt2 3.069767 1_565
Ce1 Pt2 3.069767 1_564
Ce1 Pt0 3.069790 1_554
Ce1 Pt0 3.069790 1_555
Ce1 Pt1 3.096325 1_665
Ce1 Sn2 3.262920 1_564
Ce1 Sn2 3.262920 1_565
Ce1 Sn1 3.404701 1_555
Ce1 Sn1 3.404701 1_554
Ce1 Sn0 3.405046 1_664
Ce1 Sn0 3.405046 1_665
Ce2 Pt0 3.070114 1_655
Ce2 Pt0 3.070114 1_654
Ce2 Pt2 3.070121 1_555
Ce2 Pt2 3.070121 1_554
Ce2 Pt1 3.096425 1_665
Ce2 Sn0 3.263266 1_655
Ce2 Sn0 3.263266 1_654
Ce2 Sn1 3.405326 1_554
Ce2 Sn1 3.405326 1_555
Ce2 Sn2 3.405367 1_664
Ce2 Sn2 3.405367 1_665
Pt0 Sn1 2.858003 1_555
Pt0 Sn0 2.859001 1_555
Pt0 Sn2 2.859173 1_565
Pt1 Sn0 2.805570 1_555
Pt1 Sn0 2.805570 1_554
Pt1 Sn2 2.805998 1_555
Pt1 Sn2 2.805998 1_554
Pt1 Sn1 2.806059 1_444
Pt1 Sn1 2.806059 1_445
Pt2 Sn2 2.857986 1_555
Pt2 Sn1 2.859001 1_555
Pt2 Sn0 2.859194 1_655
