# generated using pymatgen
data_Na3MgSbS4
_symmetry_space_group_name_H-M   'P 1'
_cell_length_a   7.08456807
_cell_length_b   7.08456799
_cell_length_c   7.08456809
_cell_angle_alpha   122.11123654
_cell_angle_beta   122.11123653
_cell_angle_gamma   86.38054155
_symmetry_Int_Tables_number   1
_chemical_formula_structural   Na3MgSbS4
_chemical_formula_sum   'Na3 Mg1 Sb1 S4'
_cell_volume   242.88338986
_cell_formula_units_Z   1
loop_
 _symmetry_equiv_pos_site_id
 _symmetry_equiv_pos_as_xyz
  1  'x, y, z'
loop_
 _atom_site_type_symbol
 _atom_site_label
 _atom_site_symmetry_multiplicity
 _atom_site_fract_x
 _atom_site_fract_y
 _atom_site_fract_z
 _atom_site_occupancy
  Na  Na0  1  0.50000000  0.50000000  -0.00000000  1
  Na  Na1  1  0.92039913  0.42039913  0.50000000  1
  Na  Na2  1  0.57960087  0.07960087  0.50000000  1
  Mg  Mg0  1  0.25000000  0.75000000  0.50000000  1
  Sb  Sb0  1  -0.00000000  0.00000000  -0.00000000  1
  S  S0  1  0.91272224  0.83856897  0.51729610  1
  S  S1  1  0.32127287  0.39542614  0.48270390  1
  S  S2  1  0.60457386  0.08727776  0.92584673  1
  S  S3  1  0.16143103  0.67872713  0.07415327  1
loop_
_geom_bond_atom_site_label_1
_geom_bond_atom_site_label_2
_geom_bond_distance
_geom_bond_site_symmetry_2
Na0 S2 2.807420 1_554
Na0 S3 2.807420 1_555
Na0 S1 2.807420 1_554
Na0 S0 2.807421 1_555
Na1 S3 2.811907 1_656
Na1 S2 2.811908 1_554
Na1 S0 2.897499 1_555
Na1 S1 2.897499 1_655
Na2 S1 2.811907 1_555
Na2 S0 2.811907 1_545
Na2 S2 2.897499 1_555
Na2 S3 2.897499 1_545
Mg0 S1 2.481637 1_555
Mg0 S0 2.481637 1_455
Mg0 S3 2.481637 1_555
Mg0 S2 2.481638 1_565
S0 Sb0 2.658628 1_666
S1 Sb0 2.658628 1_555
S2 Sb0 2.658628 1_656
S3 Sb0 2.658628 1_565
