# generated using pymatgen
data_Sr5Bi3
_symmetry_space_group_name_H-M   'P 1'
_cell_length_a   9.73430164
_cell_length_b   9.73428413
_cell_length_c   7.57238436
_cell_angle_alpha   90.00000000
_cell_angle_beta   90.00000000
_cell_angle_gamma   120.00044926
_symmetry_Int_Tables_number   1
_chemical_formula_structural   Sr5Bi3
_chemical_formula_sum   'Sr10 Bi6'
_cell_volume   621.39840429
_cell_formula_units_Z   2
loop_
 _symmetry_equiv_pos_site_id
 _symmetry_equiv_pos_as_xyz
  1  'x, y, z'
loop_
 _atom_site_type_symbol
 _atom_site_label
 _atom_site_symmetry_multiplicity
 _atom_site_fract_x
 _atom_site_fract_y
 _atom_site_fract_z
 _atom_site_occupancy
  Sr  Sr0  1  0.33333300  0.66666700  0.00000000  1
  Sr  Sr1  1  0.66666700  0.33333300  0.50000000  1
  Sr  Sr2  1  0.66666700  0.33333300  0.00000000  1
  Sr  Sr3  1  0.33333300  0.66666700  0.50000000  1
  Sr  Sr4  1  0.74775881  -0.00000000  0.25000000  1
  Sr  Sr5  1  0.74775981  0.74775981  0.75000000  1
  Sr  Sr6  1  0.00000000  0.25224019  0.75000000  1
  Sr  Sr7  1  -0.00000000  0.74775881  0.25000000  1
  Sr  Sr8  1  0.25224119  0.25224119  0.25000000  1
  Sr  Sr9  1  0.25224019  0.00000000  0.75000000  1
  Bi  Bi0  1  0.38986107  0.00000000  0.25000000  1
  Bi  Bi1  1  0.38986307  0.38986207  0.75000000  1
  Bi  Bi2  1  -0.00000000  0.61013793  0.75000000  1
  Bi  Bi3  1  0.00000000  0.38986107  0.25000000  1
  Bi  Bi4  1  0.61013893  0.61013893  0.25000000  1
  Bi  Bi5  1  0.61013793  -0.00000000  0.75000000  1
loop_
_geom_bond_atom_site_label_1
_geom_bond_atom_site_label_2
_geom_bond_distance
_geom_bond_site_symmetry_2
Sr0 Sr3 3.786192 1_554
Sr0 Sr3 3.786192 1_555
Sr0 Sr4 4.158918 1_565
Sr0 Sr6 4.158921 1_554
Sr0 Sr8 4.158932 1_555
Sr0 Sr7 4.158938 1_555
Sr0 Sr9 4.158940 1_564
Sr0 Sr5 4.158944 1_554
Sr1 Sr2 3.786192 1_556
Sr1 Sr2 3.786192 1_555
Sr1 Sr7 4.158915 1_655
Sr1 Sr9 4.158923 1_555
Sr1 Sr4 4.158934 1_555
Sr1 Sr5 4.158938 1_555
Sr1 Sr8 4.158939 1_555
Sr1 Sr6 4.158944 1_655
Sr2 Sr7 4.158915 1_655
Sr2 Sr9 4.158923 1_554
Sr2 Sr4 4.158934 1_555
Sr2 Sr5 4.158938 1_554
Sr2 Sr8 4.158939 1_555
Sr2 Sr6 4.158944 1_654
Sr3 Sr4 4.158918 1_565
Sr3 Sr6 4.158921 1_555
Sr3 Sr8 4.158932 1_555
Sr3 Sr7 4.158938 1_555
Sr3 Sr9 4.158940 1_565
Sr3 Sr5 4.158944 1_555
Bi0 Sr7 3.333581 1_545
Bi0 Sr8 3.333603 1_555
Bi0 Sr4 3.483885 1_555
Bi0 Sr1 3.553802 1_555
Bi0 Sr2 3.553802 1_555
Bi0 Sr3 3.553810 1_545
Bi0 Sr0 3.553810 1_545
Bi0 Sr9 4.016204 1_555
Bi0 Sr9 4.016204 1_554
Bi1 Sr9 3.333588 1_555
Bi1 Sr6 3.333605 1_555
Bi1 Sr5 3.483853 1_555
Bi1 Sr1 3.553818 1_555
Bi1 Sr2 3.553818 1_556
Bi1 Sr0 3.553828 1_556
Bi1 Sr3 3.553828 1_555
Bi1 Sr8 4.016202 1_555
Bi1 Sr8 4.016202 1_556
Bi2 Sr9 3.333582 1_565
Bi2 Sr5 3.333611 1_455
Bi2 Sr6 3.483878 1_555
Bi2 Sr2 3.553800 1_456
Bi2 Sr1 3.553800 1_455
Bi2 Sr3 3.553812 1_555
Bi2 Sr0 3.553812 1_556
Bi2 Sr7 4.016203 1_556
Bi2 Sr7 4.016203 1_555
Bi3 Sr4 3.333576 1_455
Bi3 Sr8 3.333605 1_555
Bi3 Sr7 3.483878 1_555
Bi3 Sr3 3.553803 1_555
Bi3 Sr0 3.553803 1_555
Bi3 Sr2 3.553815 1_455
Bi3 Sr1 3.553815 1_455
Bi3 Sr6 4.016203 1_554
Bi3 Sr6 4.016203 1_555
Bi4 Sr4 3.333584 1_565
Bi4 Sr7 3.333590 1_655
Bi4 Sr8 3.483858 1_555
Bi4 Sr1 3.553825 1_555
Bi4 Sr2 3.553825 1_555
Bi4 Sr3 3.553829 1_555
Bi4 Sr0 3.553829 1_555
Bi4 Sr5 4.016201 1_554
Bi4 Sr5 4.016201 1_555
Bi5 Sr6 3.333587 1_655
Bi5 Sr5 3.333609 1_545
Bi5 Sr9 3.483885 1_555
Bi5 Sr0 3.553799 1_546
Bi5 Sr3 3.553799 1_545
Bi5 Sr1 3.553807 1_555
Bi5 Sr2 3.553807 1_556
Bi5 Sr4 4.016204 1_556
Bi5 Sr4 4.016204 1_555
