# generated using pymatgen
data_Na6Ca3TiP4(SO12)2
_symmetry_space_group_name_H-M   'P 1'
_cell_length_a   9.25312658
_cell_length_b   9.26669347
_cell_length_c   22.83230307
_cell_angle_alpha   90.52701639
_cell_angle_beta   89.84189630
_cell_angle_gamma   119.82566033
_symmetry_Int_Tables_number   1
_chemical_formula_structural   Na6Ca3TiP4(SO12)2
_chemical_formula_sum   'Na18 Ca9 Ti3 P12 S6 O72'
_cell_volume   1698.37897307
_cell_formula_units_Z   3
loop_
 _symmetry_equiv_pos_site_id
 _symmetry_equiv_pos_as_xyz
  1  'x, y, z'
loop_
 _atom_site_type_symbol
 _atom_site_label
 _atom_site_symmetry_multiplicity
 _atom_site_fract_x
 _atom_site_fract_y
 _atom_site_fract_z
 _atom_site_occupancy
  Na  Na0  1  0.36348109  0.36350963  0.25461805  1
  Na  Na1  1  0.64593543  0.64982541  0.74607023  1
  Na  Na2  1  0.99719351  0.34798538  0.75176287  1
  Na  Na3  1  0.29784501  0.34658275  0.58074456  1
  Na  Na4  1  0.02790742  0.69020141  0.57778866  1
  Na  Na5  1  0.66996647  0.95718360  0.57886743  1
  Na  Na6  1  0.29355209  0.96245084  0.07547457  1
  Na  Na7  1  0.65565594  0.68737292  0.07847739  1
  Na  Na8  1  0.04716604  0.34479700  0.07697848  1
  Na  Na9  1  0.31948108  0.29803939  0.91015391  1
  Na  Na10  1  0.98746514  0.31083872  0.41599255  1
  Na  Na11  1  0.68007923  0.67067367  0.41587279  1
  Na  Na12  1  0.00650944  0.00015202  0.49414445  1
  Na  Na13  1  0.99112139  0.98348511  0.99033132  1
  Na  Na14  1  0.65179453  0.30150991  0.83178483  1
  Na  Na15  1  0.66043510  0.31031581  0.33408462  1
  Na  Na16  1  0.32390511  0.67168529  0.17253220  1
  Na  Na17  1  0.33688736  0.66972430  0.67063935  1
  Ca  Ca0  1  0.00266752  0.99423778  0.35010433  1
  Ca  Ca1  1  -0.00001597  0.99871446  0.85049536  1
  Ca  Ca2  1  0.99470713  0.00593629  0.65495492  1
  Ca  Ca3  1  0.99931087  0.99355153  0.14832720  1
  Ca  Ca4  1  0.65689926  0.32593716  0.68589376  1
  Ca  Ca5  1  0.67570157  0.33752937  0.18427500  1
  Ca  Ca6  1  0.33299334  0.66985013  0.01030512  1
  Ca  Ca7  1  0.33340180  0.66918337  0.51037679  1
  Ca  Ca8  1  0.33565072  0.68068682  0.32421395  1
  Ti  Ti0  1  0.67399937  0.35067436  0.97378944  1
  Ti  Ti1  1  0.67474050  0.34092026  0.48066017  1
  Ti  Ti2  1  0.34496143  0.67620242  0.82560927  1
  P  P0  1  0.30663451  0.32444828  0.75580354  1
  P  P1  1  0.68191987  0.98649713  0.75241246  1
  P  P2  1  0.95781774  0.33256986  0.58263247  1
  P  P3  1  0.66821939  0.62630679  0.58261354  1
  P  P4  1  0.95356506  0.62218823  0.07763800  1
  P  P5  1  0.37750639  0.33133394  0.07934194  1
  P  P6  1  0.63110227  0.66001966  0.91998597  1
  P  P7  1  0.02980116  0.37568903  0.91839739  1
  P  P8  1  0.34922006  0.97664874  0.92114434  1
  P  P9  1  0.64428236  0.98568166  0.42317682  1
  P  P10  1  0.34474454  0.35865513  0.41944997  1
  P  P11  1  0.01585653  0.65836231  0.42329049  1
  S  S0  1  0.30605320  0.99888167  0.24626179  1
  S  S1  1  0.68584179  0.69193448  0.24957235  1
  S  S2  1  0.00712961  0.30751709  0.25046094  1
  S  S3  1  0.01375214  0.69624709  0.75022831  1
  S  S4  1  0.37206040  0.04263340  0.58036530  1
  S  S5  1  0.66985734  0.04622950  0.07890958  1
  O  O0  1  0.20825092  0.00794729  0.29573683  1
  O  O1  1  0.77922830  0.78274972  0.30244999  1
  O  O2  1  0.00189018  0.21261898  0.30316076  1
  O  O3  1  0.22141088  0.21637267  0.80869626  1
  O  O4  1  0.98900959  0.78521121  0.79853743  1
  O  O5  1  0.80923090  0.01128494  0.79892804  1
  O  O6  1  0.73111753  0.93771918  0.69294230  1
  O  O7  1  0.20215987  0.25282958  0.69859073  1
  O  O8  1  0.03283414  0.78406041  0.69369941  1
  O  O9  1  0.77294216  0.78077044  0.19536608  1
  O  O10  1  0.01313390  0.21971460  0.19592645  1
  O  O11  1  0.22051221  0.98952437  0.18978501  1
  O  O12  1  0.87956874  0.34360659  0.64021738  1
  O  O13  1  0.46298230  0.11573458  0.63491858  1
  O  O14  1  0.65226981  0.53495301  0.63971283  1
  O  O15  1  0.87454866  0.51991105  0.13172185  1
  O  O16  1  0.65186518  0.11938669  0.13385110  1
  O  O17  1  0.46964020  0.34412647  0.13629024  1
  O  O18  1  0.48550855  0.32488317  0.02524894  1
  O  O19  1  0.83798069  0.51376083  0.02338350  1
  O  O20  1  0.68066512  0.14945971  0.02795378  1
  O  O21  1  0.46726047  0.14580760  0.52942665  1
  O  O22  1  0.67179280  0.51539928  0.52930928  1
  O  O23  1  0.84280760  0.32718419  0.52988139  1
  O  O24  1  0.56216098  0.67718333  0.97808712  1
  O  O25  1  0.12191989  0.44398299  0.97627855  1
  O  O26  1  0.32773539  0.89214846  0.97982340  1
  O  O27  1  0.57382520  0.88209063  0.47883830  1
  O  O28  1  0.31791572  0.44188807  0.47383701  1
  O  O29  1  0.10907945  0.68401057  0.48102165  1
  O  O30  1  0.09608956  0.61593435  0.37224283  1
  O  O31  1  0.53344311  0.90501914  0.36977609  1
  O  O32  1  0.38687806  0.47181269  0.36481083  1
  O  O33  1  0.13397395  0.49894821  0.86688355  1
  O  O34  1  0.36111696  0.85889640  0.87144630  1
  O  O35  1  0.50221292  0.63612093  0.86867641  1
  O  O36  1  0.97150636  0.79560961  0.41434269  1
  O  O37  1  0.82383084  0.01586179  0.41493041  1
  O  O38  1  0.18837839  0.18805499  0.41232692  1
  O  O39  1  0.01167208  0.20405455  0.90891952  1
  O  O40  1  0.20559132  0.00895249  0.90958553  1
  O  O41  1  0.80569271  0.79831047  0.90883996  1
  O  O42  1  0.96952960  0.17062240  0.57849870  1
  O  O43  1  0.20550591  0.03249047  0.58130895  1
  O  O44  1  0.83358227  0.79580514  0.57930019  1
  O  O45  1  0.95301321  0.78919566  0.07581855  1
  O  O46  1  0.82540576  0.03302407  0.07985936  1
  O  O47  1  0.20352628  0.16946889  0.07587700  1
  O  O48  1  0.66511236  0.14250103  0.74981615  1
  O  O49  1  0.48842083  0.36282327  0.75154146  1
  O  O50  1  0.86578290  0.52433686  0.74822061  1
  O  O51  1  0.66530812  0.52124575  0.25134239  1
  O  O52  1  0.85969236  0.32908624  0.25109153  1
  O  O53  1  0.47059512  0.15629903  0.24855271  1
  O  O54  1  0.62682928  0.48455851  0.91989539  1
  O  O55  1  0.85207757  0.36229607  0.92179207  1
  O  O56  1  0.51517261  0.15109801  0.92147265  1
  O  O57  1  0.66416754  0.16485856  0.43099283  1
  O  O58  1  0.50558501  0.34306899  0.42954778  1
  O  O59  1  0.83688655  0.49188700  0.42871350  1
  O  O60  1  0.35430258  0.48607352  0.07658150  1
  O  O61  1  0.13360636  0.65421452  0.07441593  1
  O  O62  1  0.52330333  0.87350265  0.07604954  1
  O  O63  1  0.34767215  0.87082965  0.57664039  1
  O  O64  1  0.51560943  0.65211552  0.57790582  1
  O  O65  1  0.13436446  0.48766965  0.57820059  1
  O  O66  1  0.32710248  0.85153399  0.24999530  1
  O  O67  1  0.51514845  0.67118841  0.24922099  1
  O  O68  1  0.16557941  0.47162321  0.25122708  1
  O  O69  1  0.31514903  0.50126268  0.76524913  1
  O  O70  1  0.16586710  0.67906537  0.75872572  1
  O  O71  1  0.50770605  0.82545657  0.76873458  1
loop_
_geom_bond_atom_site_label_1
_geom_bond_atom_site_label_2
_geom_bond_distance
_geom_bond_site_symmetry_2
Na0 O51 2.425330 1_555
Na0 O67 2.477731 1_555
Na0 O68 2.488006 1_555
Na0 O53 2.564370 1_555
Na0 O32 2.669187 1_555
Na0 O17 2.906593 1_555
Na1 O49 2.315690 1_555
Na1 O71 2.569853 1_555
Na1 O14 2.654683 1_555
Na1 O6 2.678163 1_555
Na1 O69 2.695870 1_555
Na1 O50 2.801366 1_555
Na2 O50 2.476953 1_555
Na2 O69 2.570655 1_655
Na2 O70 2.665181 1_655
Na2 O48 2.692362 1_555
Na2 O7 2.734884 1_655
Na2 O12 2.764438 1_555
Na2 O5 2.927997 1_555
Na2 O33 2.942316 1_655
Na3 O65 2.443389 1_555
Na3 O64 2.531460 1_555
Na3 O28 2.578117 1_555
Na3 O43 2.593963 1_555
Na3 O42 2.638629 1_455
Na3 O7 2.836064 1_555
Na4 O29 2.341007 1_555
Na4 O44 2.437508 1_455
Na4 O65 2.516385 1_555
Na4 O63 2.575066 1_555
Na4 O43 2.752988 1_565
Na4 O8 2.771544 1_555
Na5 O27 2.420331 1_555
Na5 O64 2.452521 1_555
Na5 O42 2.478325 1_565
Na5 O44 2.604030 1_555
Na5 O63 2.676355 1_555
Na5 O6 2.693493 1_555
Na6 O26 2.338595 1_554
Na6 O47 2.442009 1_565
Na6 O61 2.478602 1_555
Na6 O62 2.634863 1_555
Na6 O45 2.733967 1_455
Na6 O11 2.734692 1_555
Na7 O45 2.425344 1_555
Na7 O24 2.436589 1_554
Na7 O60 2.466193 1_555
Na7 O62 2.565382 1_555
Na7 O46 2.778761 1_565
Na7 O9 2.844069 1_555
Na8 O25 2.450982 1_554
Na8 O60 2.467772 1_555
Na8 O61 2.566321 1_555
Na8 O46 2.582151 1_455
Na8 O47 2.659122 1_555
Na8 O10 2.916961 1_555
Na9 O40 2.340590 1_555
Na9 O3 2.461432 1_555
Na9 O54 2.496335 1_555
Na9 O39 2.530619 1_555
Na9 O56 2.767931 1_555
Na9 O35 2.889170 1_555
Na9 O18 2.992977 1_556
Na10 O37 2.376339 1_555
Na10 O38 2.619015 1_655
Na10 O57 2.621799 1_555
Na10 O59 2.674794 1_555
Na10 O30 2.687192 1_655
Na10 O2 2.749345 1_655
Na10 O23 2.958315 1_555
Na10 O28 2.977870 1_655
Na11 O36 2.346916 1_555
Na11 O58 2.656966 1_555
Na11 O32 2.668405 1_555
Na11 O59 2.708983 1_555
Na11 O1 2.777672 1_555
Na11 O37 2.787563 1_565
Na11 O27 2.954337 1_555
Na11 O22 2.956714 1_555
Na12 O36 2.519229 1_445
Na12 O37 2.533010 1_455
Na12 O38 2.545848 1_555
Na12 O42 2.607699 1_455
Na12 O43 2.627064 1_555
Na12 O44 2.638752 1_445
Na13 O41 2.525987 1_555
Na13 O45 2.570017 1_556
Na13 O40 2.629610 1_665
Na13 O47 2.690348 1_666
Na13 O39 2.711165 1_665
Na13 O46 2.721422 1_566
Na14 O48 2.411971 1_555
Na14 O56 2.453520 1_555
Na14 O49 2.617952 1_555
Na14 O55 2.633714 1_555
Na14 O54 2.702275 1_555
Na14 O50 2.794508 1_555
Na15 O53 2.531846 1_555
Na15 O52 2.586153 1_555
Na15 O57 2.610633 1_555
Na15 O58 2.701705 1_555
Na15 O51 2.715039 1_555
Na15 O59 2.717519 1_555
Na16 O66 2.409070 1_555
Na16 O68 2.481282 1_555
Na16 O67 2.494552 1_555
Na16 O61 2.806590 1_555
Na16 O60 2.871507 1_555
Na16 O62 2.894070 1_555
Na17 O70 2.583057 1_555
Na17 O69 2.625074 1_555
Na17 O71 2.699714 1_555
Na17 O64 2.736287 1_555
Na17 O65 2.761160 1_555
Na17 O63 2.824275 1_555
Ca0 O0 2.219286 1_565
Ca0 O38 2.256883 1_565
Ca0 O36 2.267529 1_455
Ca0 O1 2.289527 1_455
Ca0 O37 2.297861 1_465
Ca0 O2 2.301856 1_565
Ca1 O5 2.175730 1_465
Ca1 O4 2.256024 1_455
Ca1 O3 2.256283 1_565
Ca1 O39 2.271844 1_565
Ca1 O41 2.273035 1_455
Ca1 O40 2.298055 1_565
Ca2 O7 2.347733 1_655
Ca2 O6 2.359124 1_545
Ca2 O42 2.415683 1_555
Ca2 O8 2.427161 1_645
Ca2 O44 2.462278 1_545
Ca2 O43 2.490929 1_655
Ca3 O11 2.274672 1_655
Ca3 O10 2.298265 1_665
Ca3 O9 2.312364 1_555
Ca3 O45 2.376912 1_555
Ca3 O46 2.403528 1_565
Ca3 O47 2.435722 1_665
Ca4 O13 2.204906 1_555
Ca4 O14 2.232825 1_555
Ca4 O12 2.239497 1_555
Ca4 O48 2.280380 1_555
Ca4 O49 2.302514 1_555
Ca4 O50 2.360789 1_555
Ca5 O15 2.147892 1_555
Ca5 O17 2.228978 1_555
Ca5 O16 2.230586 1_555
Ca5 O51 2.316580 1_555
Ca5 O52 2.319699 1_555
Ca5 O53 2.331456 1_555
Ca6 O25 2.170504 1_554
Ca6 O26 2.203740 1_554
Ca6 O24 2.211630 1_554
Ca6 O61 2.300139 1_555
Ca6 O62 2.360612 1_555
Ca6 O60 2.368981 1_555
Ca7 O28 2.195694 1_555
Ca7 O27 2.238638 1_555
Ca7 O29 2.251584 1_555
Ca7 O63 2.345583 1_555
Ca7 O64 2.351371 1_555
Ca7 O65 2.360069 1_555
Ca8 O31 2.222489 1_555
Ca8 O30 2.269783 1_555
Ca8 O66 2.357756 1_555
Ca8 O32 2.403828 1_555
Ca8 O67 2.413541 1_555
Ca8 O68 2.435002 1_555
O0 S0 1.473207 1_545
O1 S1 1.475206 1_555
O2 S2 1.483322 1_555
O3 P0 1.521418 1_555
O4 S3 1.455442 1_655
O5 P1 1.517143 1_545
O6 P1 1.563734 1_555
O7 P0 1.560206 1_555
O8 S3 1.494776 1_555
O9 S1 1.487378 1_555
O10 S2 1.497142 1_555
O11 S0 1.494030 1_555
O12 P2 1.526213 1_555
O13 S4 1.463388 1_555
O14 P3 1.527430 1_555
O15 P4 1.511610 1_555
O16 S5 1.468467 1_555
O17 P5 1.527836 1_555
O18 P5 1.605906 1_555
O18 Ti0 2.014646 1_554
O19 P4 1.613506 1_555
O19 Ti0 1.888242 1_554
O20 S5 1.484368 1_555
O20 Ti0 2.273142 1_554
O21 S4 1.489895 1_555
O21 Ti1 2.183342 1_555
O22 P3 1.596608 1_555
O22 Ti1 1.964536 1_555
O23 P2 1.593363 1_555
O23 Ti1 1.976580 1_555
O24 P6 1.511436 1_555
O25 P7 1.525723 1_555
O26 P8 1.520085 1_555
O27 P9 1.535254 1_555
O28 P10 1.539379 1_555
O29 P11 1.527949 1_555
O30 P11 1.530152 1_555
O31 P9 1.524715 1_555
O32 P10 1.556478 1_555
O33 P7 1.593878 1_555
O33 Ti2 2.055730 1_555
O34 P8 1.608226 1_555
O34 Ti2 1.923620 1_555
O35 P6 1.607504 1_555
O35 Ti2 1.942758 1_555
O36 P11 1.533661 1_655
O37 P9 1.552714 1_545
O38 P10 1.529840 1_555
O39 P7 1.527443 1_555
O40 P8 1.524687 1_545
O41 P6 1.503745 1_555
O42 P2 1.559462 1_555
O43 S4 1.496731 1_555
O44 P3 1.557223 1_555
O45 P4 1.551091 1_555
O46 S5 1.504153 1_555
O47 P5 1.563429 1_555
O48 P1 1.530636 1_545
O49 P0 1.539507 1_555
O50 S3 1.497958 1_655
O51 S1 1.497252 1_555
O52 S2 1.473917 1_655
O53 S0 1.496170 1_545
O54 P6 1.606628 1_555
O54 Ti0 1.952857 1_555
O55 P7 1.588156 1_655
O55 Ti0 1.987788 1_555
O56 P8 1.581746 1_545
O56 Ti0 2.066990 1_555
O57 P9 1.585367 1_545
O57 Ti1 1.940412 1_555
O58 P10 1.582818 1_555
O58 Ti1 1.963092 1_555
O59 P11 1.612067 1_655
O59 Ti1 1.883545 1_555
O60 P5 1.553769 1_555
O61 P4 1.541681 1_455
O62 S5 1.498208 1_565
O63 S4 1.494331 1_565
O64 P3 1.549221 1_555
O65 P2 1.552696 1_455
O66 S0 1.475251 1_555
O67 S1 1.493210 1_555
O68 S2 1.498102 1_555
O69 P0 1.613238 1_555
O69 Ti2 2.029678 1_555
O70 S3 1.506372 1_555
O70 Ti2 2.266595 1_555
O71 P1 1.605759 1_555
O71 Ti2 1.953822 1_555
