# generated using pymatgen
data_Li7Mo4P9O32
_symmetry_space_group_name_H-M   'P 1'
_cell_length_a   14.05315900
_cell_length_b   14.05315900
_cell_length_c   6.55375700
_cell_angle_alpha   90.00000000
_cell_angle_beta   90.00000000
_cell_angle_gamma   90.00000000
_symmetry_Int_Tables_number   1
_chemical_formula_structural   Li7Mo4P9O32
_chemical_formula_sum   'Li14 Mo8 P18 O64'
_cell_volume   1294.30984484
_cell_formula_units_Z   2
loop_
 _symmetry_equiv_pos_site_id
 _symmetry_equiv_pos_as_xyz
  1  'x, y, z'
loop_
 _atom_site_type_symbol
 _atom_site_label
 _atom_site_symmetry_multiplicity
 _atom_site_fract_x
 _atom_site_fract_y
 _atom_site_fract_z
 _atom_site_occupancy
  Li  Li0  1  0.00000000  0.00000000  0.00000000  1
  Li  Li1  1  0.00000000  0.50000000  0.13352800  1
  Li  Li2  1  0.00000000  0.50000000  0.63352800  1
  Li  Li3  1  0.10998600  0.74577100  0.80240400  1
  Li  Li4  1  0.24577100  0.60998600  0.30240400  1
  Li  Li5  1  0.25422900  0.10998600  0.19759600  1
  Li  Li6  1  0.39001400  0.24577100  0.69759600  1
  Li  Li7  1  0.50000000  0.00000000  0.36647200  1
  Li  Li8  1  0.50000000  0.00000000  0.86647200  1
  Li  Li9  1  0.50000000  0.50000000  0.50000000  1
  Li  Li10  1  0.60998600  0.75422900  0.69759600  1
  Li  Li11  1  0.74577100  0.89001400  0.19759600  1
  Li  Li12  1  0.75422900  0.39001400  0.30240400  1
  Li  Li13  1  0.89001400  0.25422900  0.80240400  1
  Mo  Mo0  1  0.12104800  0.19855700  0.61769900  1
  Mo  Mo1  1  0.19855700  0.87895200  0.38230100  1
  Mo  Mo2  1  0.30144300  0.37895200  0.11769900  1
  Mo  Mo3  1  0.37895200  0.69855700  0.88230100  1
  Mo  Mo4  1  0.62104800  0.30144300  0.88230100  1
  Mo  Mo5  1  0.69855700  0.62104800  0.11769900  1
  Mo  Mo6  1  0.80144300  0.12104800  0.38230100  1
  Mo  Mo7  1  0.87895200  0.80144300  0.61769900  1
  P  P0  1  0.93947500  0.30911500  0.38395800  1
  P  P1  1  0.89721200  0.75219500  0.12746000  1
  P  P2  1  0.80911500  0.43947500  0.88395800  1
  P  P3  1  0.75219500  0.10278800  0.87254000  1
  P  P4  1  0.74780500  0.60278800  0.62746000  1
  P  P5  1  0.69088500  0.93947500  0.61604200  1
  P  P6  1  0.60278800  0.25219500  0.37254000  1
  P  P7  1  0.56052500  0.80911500  0.11604200  1
  P  P8  1  0.00000000  0.00000000  0.50000000  1
  P  P9  1  0.06052500  0.69088500  0.38395800  1
  P  P10  1  0.10278800  0.24780500  0.12746000  1
  P  P11  1  0.19088500  0.56052500  0.88395800  1
  P  P12  1  0.24780500  0.89721200  0.87254000  1
  P  P13  1  0.50000000  0.50000000  0.00000000  1
  P  P14  1  0.30911500  0.06052500  0.61604200  1
  P  P15  1  0.39721200  0.74780500  0.37254000  1
  P  P16  1  0.43947500  0.19088500  0.11604200  1
  P  P17  1  0.25219500  0.39721200  0.62746000  1
  O  O0  1  0.55532200  0.91650400  0.11302800  1
  O  O1  1  0.98268000  0.25864800  0.57209600  1
  O  O2  1  0.93915600  0.06255600  0.35368500  1
  O  O3  1  0.94467800  0.41650400  0.38697200  1
  O  O4  1  0.93744400  0.93915600  0.64631500  1
  O  O5  1  0.91650400  0.44467800  0.88697200  1
  O  O6  1  0.90377600  0.81102100  0.93287300  1
  O  O7  1  0.84550600  0.65761600  0.10901900  1
  O  O8  1  0.00720300  0.72896300  0.17918000  1
  O  O9  1  0.01732000  0.74135200  0.57209600  1
  O  O10  1  0.06084400  0.93744400  0.35368500  1
  O  O11  1  0.05532200  0.58349600  0.38697200  1
  O  O12  1  0.06255600  0.06084400  0.64631500  1
  O  O13  1  0.08349600  0.55532200  0.88697200  1
  O  O14  1  0.09622400  0.18897900  0.93287300  1
  O  O15  1  0.14150500  0.18297400  0.29809100  1
  O  O16  1  0.15449400  0.34238400  0.10901900  1
  O  O17  1  0.15761600  0.34550600  0.60901900  1
  O  O18  1  0.16354300  0.72745900  0.35269900  1
  O  O19  1  0.18297400  0.85849500  0.70190900  1
  O  O20  1  0.18897900  0.90377600  0.06712700  1
  O  O21  1  0.22745900  0.66354300  0.85269900  1
  O  O22  1  0.22896300  0.50720300  0.67918000  1
  O  O23  1  0.24135200  0.51732000  0.07209600  1
  O  O24  1  0.25864800  0.01732000  0.42790400  1
  O  O25  1  0.27103700  0.00720300  0.82082000  1
  O  O26  1  0.27254100  0.16354300  0.64730100  1
  O  O27  1  0.31102100  0.40377600  0.43287300  1
  O  O28  1  0.31702600  0.35849500  0.79809100  1
  O  O29  1  0.33645700  0.22745900  0.14730100  1
  O  O30  1  0.34238400  0.84550600  0.89098100  1
  O  O31  1  0.34550600  0.84238400  0.39098100  1
  O  O32  1  0.35849500  0.68297400  0.20190900  1
  O  O33  1  0.40377600  0.68897900  0.56712700  1
  O  O34  1  0.41650400  0.05532200  0.61302800  1
  O  O35  1  0.43744400  0.56084400  0.85368500  1
  O  O36  1  0.44467800  0.08349600  0.11302800  1
  O  O37  1  0.43915600  0.43744400  0.14631500  1
  O  O38  1  0.48268000  0.24135200  0.92790400  1
  O  O39  1  0.49279700  0.22896300  0.32082000  1
  O  O40  1  0.50720300  0.77103700  0.32082000  1
  O  O41  1  0.51732000  0.75864800  0.92790400  1
  O  O42  1  0.56084400  0.56255600  0.14631500  1
  O  O43  1  0.99279700  0.27103700  0.17918000  1
  O  O44  1  0.56255600  0.43915600  0.85368500  1
  O  O45  1  0.58349600  0.94467800  0.61302800  1
  O  O46  1  0.59622400  0.31102100  0.56712700  1
  O  O47  1  0.64150500  0.31702600  0.20190900  1
  O  O48  1  0.65449400  0.15761600  0.39098100  1
  O  O49  1  0.65761600  0.15449400  0.89098100  1
  O  O50  1  0.66354300  0.77254100  0.14730100  1
  O  O51  1  0.68297400  0.64150500  0.79809100  1
  O  O52  1  0.68897900  0.59622400  0.43287300  1
  O  O53  1  0.72745900  0.83645700  0.64730100  1
  O  O54  1  0.72896300  0.99279700  0.82082000  1
  O  O55  1  0.74135200  0.98268000  0.42790400  1
  O  O56  1  0.75864800  0.48268000  0.07209600  1
  O  O57  1  0.77103700  0.49279700  0.67918000  1
  O  O58  1  0.77254100  0.33645700  0.85269900  1
  O  O59  1  0.81102100  0.09622400  0.06712700  1
  O  O60  1  0.81702600  0.14150500  0.70190900  1
  O  O61  1  0.83645700  0.27254100  0.35269900  1
  O  O62  1  0.84238400  0.65449400  0.60901900  1
  O  O63  1  0.85849500  0.81702600  0.29809100  1
loop_
_geom_bond_atom_site_label_1
_geom_bond_atom_site_label_2
_geom_bond_distance
_geom_bond_site_symmetry_2
Li0 O10 2.622386 1_545
Li0 O2 2.622386 1_455
Li0 O12 2.622386 1_554
Li0 O4 2.622386 1_444
Li1 O13 2.142961 1_554
Li1 O5 2.142961 1_454
Li1 O11 2.177202 1_555
Li1 O3 2.177202 1_455
Li2 O11 2.142961 1_555
Li2 O3 2.142961 1_455
Li2 O13 2.177202 1_555
Li2 O5 2.177202 1_455
Li3 O9 1.994479 1_555
Li3 O19 1.998832 1_555
Li3 O21 2.041896 1_555
Li4 O23 1.994479 1_555
Li4 O32 1.998832 1_555
Li4 O18 2.041896 1_555
Li5 O24 1.994479 1_555
Li5 O15 1.998832 1_555
Li5 O29 2.041896 1_555
Li6 O38 1.994479 1_555
Li6 O28 1.998832 1_555
Li6 O26 2.041896 1_555
Li7 O34 2.142961 1_555
Li7 O45 2.142961 1_545
Li7 O0 2.177202 1_545
Li7 O36 2.177202 1_555
Li8 O0 2.142961 1_546
Li8 O36 2.142961 1_556
Li8 O34 2.177202 1_555
Li8 O45 2.177202 1_545
Li9 O44 2.622386 1_555
Li9 O35 2.622386 1_555
Li9 O42 2.622386 1_555
Li9 O37 2.622386 1_555
Li10 O41 1.994479 1_555
Li10 O51 1.998832 1_555
Li10 O53 2.041896 1_555
Li11 O55 1.994479 1_555
Li11 O63 1.998832 1_555
Li11 O50 2.041896 1_555
Li12 O56 1.994479 1_555
Li12 O47 1.998832 1_555
Li12 O61 2.041896 1_555
Li13 O1 1.994479 1_555
Li13 O60 1.998832 1_555
Li13 O58 2.041896 1_555
Mo0 O14 2.099146 1_555
Mo0 O12 2.110983 1_555
Mo0 O15 2.125581 1_555
Mo0 O17 2.128839 1_555
Mo0 O1 2.140925 1_455
Mo0 O26 2.193675 1_555
Mo1 O20 2.099146 1_555
Mo1 O10 2.110983 1_555
Mo1 O19 2.125581 1_555
Mo1 O31 2.128839 1_555
Mo1 O24 2.140925 1_565
Mo1 O18 2.193675 1_555
Mo2 O27 2.099146 1_555
Mo2 O37 2.110983 1_555
Mo2 O28 2.125581 1_554
Mo2 O16 2.128839 1_555
Mo2 O23 2.140925 1_555
Mo2 O29 2.193675 1_555
Mo3 O33 2.099146 1_555
Mo3 O35 2.110983 1_555
Mo3 O32 2.125581 1_556
Mo3 O30 2.128839 1_555
Mo3 O41 2.140925 1_555
Mo3 O21 2.193675 1_555
Mo4 O46 2.099146 1_555
Mo4 O44 2.110983 1_555
Mo4 O47 2.125581 1_556
Mo4 O49 2.128839 1_555
Mo4 O38 2.140925 1_555
Mo4 O58 2.193675 1_555
Mo5 O52 2.099146 1_555
Mo5 O42 2.110983 1_555
Mo5 O51 2.125581 1_554
Mo5 O7 2.128839 1_555
Mo5 O56 2.140925 1_555
Mo5 O50 2.193675 1_555
Mo6 O59 2.099146 1_555
Mo6 O2 2.110983 1_555
Mo6 O60 2.125581 1_555
Mo6 O48 2.128839 1_555
Mo6 O55 2.140925 1_545
Mo6 O61 2.193675 1_555
Mo7 O6 2.099146 1_555
Mo7 O4 2.110983 1_555
Mo7 O63 2.125581 1_555
Mo7 O62 2.128839 1_555
Mo7 O9 2.140925 1_655
Mo7 O53 2.193675 1_555
O0 P7 1.511054 1_555
O1 P0 1.546597 1_555
O2 P8 1.556746 1_655
O3 P0 1.511054 1_555
O4 P8 1.556746 1_665
O5 P2 1.511054 1_555
O6 P1 1.522582 1_556
O7 P1 1.519605 1_555
O8 P1 1.615778 1_455
O8 P9 1.627576 1_555
O9 P9 1.546597 1_555
O10 P8 1.556746 1_565
O11 P9 1.511054 1_555
O12 P8 1.556746 1_555
O13 P11 1.511054 1_555
O14 P10 1.522582 1_556
O15 P10 1.541637 1_555
O16 P10 1.519605 1_555
O17 P17 1.519605 1_555
O18 P9 1.549859 1_555
O19 P12 1.541637 1_555
O20 P12 1.522582 1_554
O21 P11 1.549859 1_555
O22 P17 1.615778 1_555
O22 P11 1.627576 1_555
O23 P11 1.546597 1_554
O24 P14 1.546597 1_555
O25 P12 1.615778 1_545
O25 P14 1.627576 1_555
O26 P14 1.549859 1_555
O27 P17 1.522582 1_555
O28 P17 1.541637 1_555
O29 P16 1.549859 1_555
O30 P12 1.519605 1_555
O31 P15 1.519605 1_555
O32 P15 1.541637 1_555
O33 P15 1.522582 1_555
O34 P14 1.511054 1_555
O35 P13 1.556746 1_556
O36 P16 1.511054 1_555
O37 P13 1.556746 1_555
O38 P16 1.546597 1_556
O39 P6 1.615778 1_555
O39 P16 1.627576 1_555
O40 P15 1.615778 1_555
O40 P7 1.627576 1_555
O41 P7 1.546597 1_556
O42 P13 1.556746 1_555
O43 P10 1.615778 1_655
O43 P0 1.627576 1_555
O44 P13 1.556746 1_556
O45 P5 1.511054 1_555
O46 P6 1.522582 1_555
O47 P6 1.541637 1_555
O48 P6 1.519605 1_555
O49 P3 1.519605 1_555
O50 P7 1.549859 1_555
O51 P4 1.541637 1_555
O52 P4 1.522582 1_555
O53 P5 1.549859 1_555
O54 P3 1.615778 1_565
O54 P5 1.627576 1_555
O55 P5 1.546597 1_555
O56 P2 1.546597 1_554
O57 P4 1.615778 1_555
O57 P2 1.627576 1_555
O58 P2 1.549859 1_555
O59 P3 1.522582 1_554
O60 P3 1.541637 1_555
O61 P0 1.549859 1_555
O62 P4 1.519605 1_555
O63 P1 1.541637 1_555
