# generated using pymatgen
data_MgCo6O7F5
_symmetry_space_group_name_H-M   'P 1'
_cell_length_a   5.18122938
_cell_length_b   7.65448282
_cell_length_c   5.73692125
_cell_angle_alpha   99.93803895
_cell_angle_beta   99.91203384
_cell_angle_gamma   83.67026471
_symmetry_Int_Tables_number   1
_chemical_formula_structural   MgCo6O7F5
_chemical_formula_sum   'Mg1 Co6 O7 F5'
_cell_volume   220.00303113
_cell_formula_units_Z   1
loop_
 _symmetry_equiv_pos_site_id
 _symmetry_equiv_pos_as_xyz
  1  'x, y, z'
loop_
 _atom_site_type_symbol
 _atom_site_label
 _atom_site_symmetry_multiplicity
 _atom_site_fract_x
 _atom_site_fract_y
 _atom_site_fract_z
 _atom_site_occupancy
  Mg  Mg0  1  0.02659442  0.48584539  0.01921962  1
  Co  Co0  1  0.56880626  0.02415623  0.45916113  1
  Co  Co1  1  0.49293538  0.32097890  0.83725944  1
  Co  Co2  1  0.56629798  0.68208837  0.11084194  1
  Co  Co3  1  -0.02217286  0.68455424  0.65446225  1
  Co  Co4  1  0.98097062  0.30072767  0.36860055  1
  Co  Co5  1  0.95508489  0.98612150  0.99391843  1
  O  O0  1  0.83221589  0.73638258  0.95664500  1
  O  O1  1  0.79463693  0.08901690  0.28623889  1
  O  O2  1  0.68725118  0.77854409  0.44363121  1
  O  O3  1  0.68103406  0.09700815  0.78383857  1
  O  O4  1  0.69845118  0.42772648  0.12300819  1
  O  O5  1  0.30767926  0.55544436  0.87136791  1
  O  O6  1  0.32390322  0.22131538  0.53653098  1
  F  F0  1  0.83832116  0.43337053  0.66472001  1
  F  F1  1  0.30671808  0.90302089  0.18563422  1
  F  F2  1  0.16627353  0.23708955  0.03612032  1
  F  F3  1  0.15616738  0.89479526  0.71047684  1
  F  F4  1  0.13882845  0.55014354  0.37499351  1
loop_
_geom_bond_atom_site_label_1
_geom_bond_atom_site_label_2
_geom_bond_distance
_geom_bond_site_symmetry_2
Mg0 O5 1.968913 1_554
Mg0 O4 2.012412 1_455
Mg0 O0 2.123239 1_454
Co0 O1 1.815884 1_555
Co0 O3 1.859743 1_555
Co0 O6 1.903969 1_555
Co0 O2 1.904123 1_545
Co0 F1 2.051331 1_545
Co1 O6 1.870386 1_555
Co1 O3 1.880398 1_555
Co1 O4 1.901950 1_556
Co1 O5 1.934993 1_555
Co1 F2 2.394935 1_556
Co1 F0 2.483047 1_555
Co2 O0 1.877845 1_554
Co2 O2 1.945871 1_555
Co2 O5 1.953364 1_554
Co2 O4 2.000261 1_555
Co2 F1 2.073541 1_555
Co3 F3 1.895797 1_555
Co3 O2 1.918802 1_455
Co3 O0 1.969474 1_455
Co3 F4 2.006679 1_555
Co3 F0 2.140738 1_455
Co3 O5 2.183082 1_555
Co4 O1 1.924864 1_555
Co4 O6 1.956876 1_655
Co4 F0 2.033358 1_555
Co4 O4 2.126449 1_555
Co4 F4 2.150574 1_655
Co4 F2 2.236947 1_655
Co5 O3 1.920241 1_565
Co5 O1 2.000873 1_566
Co5 O0 2.045894 1_555
Co5 F1 2.056618 1_656
Co5 F3 2.061207 1_655
Co5 F2 2.271132 1_666
F0 Mg0 2.090559 1_656
F2 Mg0 1.973438 1_555
F4 Mg0 2.013459 1_555
