# generated using pymatgen
data_Li2NbS3
_symmetry_space_group_name_H-M   'P 1'
_cell_length_a   6.25475400
_cell_length_b   6.20834565
_cell_length_c   6.47947459
_cell_angle_alpha   81.67100180
_cell_angle_beta   79.29060757
_cell_angle_gamma   120.28791559
_symmetry_Int_Tables_number   1
_chemical_formula_structural   Li2NbS3
_chemical_formula_sum   'Li4 Nb2 S6'
_cell_volume   204.86704790
_cell_formula_units_Z   2
loop_
 _symmetry_equiv_pos_site_id
 _symmetry_equiv_pos_as_xyz
  1  'x, y, z'
loop_
 _atom_site_type_symbol
 _atom_site_label
 _atom_site_symmetry_multiplicity
 _atom_site_fract_x
 _atom_site_fract_y
 _atom_site_fract_z
 _atom_site_occupancy
  Li  Li0  1  0.13580500  0.82126352  0.49660121  1
  Li  Li1  1  0.86419500  0.17873648  0.50339879  1
  Li  Li2  1  0.50000000  0.50000000  0.50000000  1
  Li  Li3  1  0.00000000  0.00000000  0.00000000  1
  Nb  Nb0  1  0.64092735  0.28040616  0.99814646  1
  Nb  Nb1  1  0.35907265  0.71959384  0.00185354  1
  S  S0  1  0.72376645  0.72647281  0.77110789  1
  S  S1  1  0.57516467  0.91544784  0.26043708  1
  S  S2  1  0.92582201  0.57302550  0.22894012  1
  S  S3  1  0.42483533  0.08455216  0.73956292  1
  S  S4  1  0.07417799  0.42697450  0.77105988  1
  S  S5  1  0.27623355  0.27352719  0.22889211  1
loop_
_geom_bond_atom_site_label_1
_geom_bond_atom_site_label_2
_geom_bond_distance
_geom_bond_site_symmetry_2
Li0 S0 2.571995 1_455
Li0 S2 2.585950 1_455
Li0 S1 2.606244 1_555
Li0 S4 2.614483 1_555
Li0 S5 2.683135 1_565
Li0 S3 2.690891 1_565
Li1 S5 2.571995 1_655
Li1 S4 2.585950 1_655
Li1 S3 2.606244 1_555
Li1 S2 2.614483 1_555
Li1 S0 2.683135 1_545
Li1 S1 2.690891 1_545
Li2 S1 2.574631 1_555
Li2 S3 2.574631 1_555
Li2 S5 2.581839 1_555
Li2 S0 2.581839 1_555
Li2 S4 2.682678 1_555
Li2 S2 2.682678 1_555
Li3 S5 2.605953 1_555
Li3 S0 2.605953 1_444
Li3 S4 2.609014 1_554
Li3 S2 2.609014 1_445
Li3 S1 2.618008 1_445
Li3 S3 2.618008 1_554
Nb0 S1 2.424006 1_546
Nb0 S3 2.426253 1_555
Nb0 S4 2.445276 1_655
Nb0 S5 2.460932 1_556
Nb0 S0 2.681578 1_555
Nb0 S2 2.687755 1_556
Nb1 S3 2.424006 1_564
Nb1 S1 2.426253 1_555
Nb1 S2 2.445276 1_455
Nb1 S0 2.460932 1_554
Nb1 S5 2.681578 1_555
Nb1 S4 2.687755 1_554
