# generated using pymatgen
data_Na2LaZr(PO4)3
_symmetry_space_group_name_H-M   'P 1'
_cell_length_a   9.36161772
_cell_length_b   9.36161737
_cell_length_c   23.38284228
_cell_angle_alpha   89.90991883
_cell_angle_beta   90.09008117
_cell_angle_gamma   120.18304521
_symmetry_Int_Tables_number   1
_chemical_formula_structural   Na2LaZr(PO4)3
_chemical_formula_sum   'Na12 La6 Zr6 P18 O72'
_cell_volume   1771.43409313
_cell_formula_units_Z   6
loop_
 _symmetry_equiv_pos_site_id
 _symmetry_equiv_pos_as_xyz
  1  'x, y, z'
loop_
 _atom_site_type_symbol
 _atom_site_label
 _atom_site_symmetry_multiplicity
 _atom_site_fract_x
 _atom_site_fract_y
 _atom_site_fract_z
 _atom_site_occupancy
  Na  Na0  1  0.35769753  0.34783791  0.24837832  1
  Na  Na1  1  0.65216209  0.64230247  0.74837832  1
  Na  Na2  1  0.02436453  0.68117091  0.58171132  1
  Na  Na3  1  0.31882909  0.97563547  0.08171132  1
  Na  Na4  1  0.69103053  0.01450491  0.91504532  1
  Na  Na5  1  0.98549509  0.30896947  0.41504532  1
  Na  Na6  1  0.99975575  0.99876560  0.50287022  1
  Na  Na7  1  0.00123440  0.00024425  0.00287022  1
  Na  Na8  1  0.66642275  0.33209860  0.83620322  1
  Na  Na9  1  0.66790140  0.33357725  0.33620322  1
  Na  Na10  1  0.33308875  0.66543260  0.16953722  1
  Na  Na11  1  0.33456740  0.66691125  0.66953722  1
  La  La0  1  0.99298596  0.98085751  0.35234343  1
  La  La1  1  0.01914249  0.00701404  0.85234343  1
  La  La2  1  0.65965296  0.31419051  0.68567643  1
  La  La3  1  0.68580949  0.34034704  0.18567643  1
  La  La4  1  0.32631896  0.64752451  0.01901043  1
  La  La5  1  0.35247549  0.67368104  0.51901043  1
  Zr  Zr0  1  0.00511771  0.01082946  0.64925490  1
  Zr  Zr1  1  0.98917054  0.99488229  0.14925490  1
  Zr  Zr2  1  0.67178471  0.34416246  0.98258790  1
  Zr  Zr3  1  0.65583754  0.32821529  0.48258790  1
  Zr  Zr4  1  0.33845071  0.67749646  0.31592190  1
  Zr  Zr5  1  0.32250354  0.66154929  0.81592190  1
  P  P0  1  0.28776577  0.98588383  0.24700457  1
  P  P1  1  0.68593931  0.70664429  0.24868250  1
  P  P2  1  0.02030140  0.30452293  0.25354174  1
  P  P3  1  0.29335571  0.31406069  0.74868250  1
  P  P4  1  0.01411617  0.71223423  0.74700457  1
  P  P5  1  0.69547707  0.97969860  0.75354174  1
  P  P6  1  0.95443277  0.31921683  0.58033757  1
  P  P7  1  0.35260631  0.03997729  0.58201550  1
  P  P8  1  0.68696840  0.63785593  0.58687474  1
  P  P9  1  0.96002271  0.64739369  0.08201550  1
  P  P10  1  0.68078317  0.04556723  0.08033757  1
  P  P11  1  0.36214407  0.31303160  0.08687474  1
  P  P12  1  0.62109877  0.65255083  0.91367157  1
  P  P13  1  0.01927231  0.37331129  0.91534950  1
  P  P14  1  0.35363440  0.97118993  0.92020874  1
  P  P15  1  0.62668871  0.98072769  0.41534950  1
  P  P16  1  0.34744917  0.37890123  0.41367157  1
  P  P17  1  0.02881007  0.64636560  0.42020874  1
  O  O0  1  0.20968585  0.01653737  0.29913361  1
  O  O1  1  0.78170787  0.77412738  0.30356812  1
  O  O2  1  0.00447454  0.21538880  0.30975337  1
  O  O3  1  0.22587262  0.21829213  0.80356812  1
  O  O4  1  0.98346263  0.79031415  0.79913361  1
  O  O5  1  0.78461120  0.99552546  0.80975337  1
  O  O6  1  0.80157316  0.96891530  0.70218618  1
  O  O7  1  0.18229142  0.21216117  0.69614285  1
  O  O8  1  0.03456288  0.82315531  0.69275404  1
  O  O9  1  0.78783883  0.81770858  0.19614285  1
  O  O10  1  0.03108470  0.19842684  0.20218618  1
  O  O11  1  0.17684469  0.96543712  0.19275404  1
  O  O12  1  0.87635285  0.34987037  0.63246661  1
  O  O13  1  0.44837487  0.10746038  0.63690112  1
  O  O14  1  0.67114154  0.54872180  0.64308637  1
  O  O15  1  0.89253962  0.55162513  0.13690112  1
  O  O16  1  0.65012963  0.12364715  0.13246661  1
  O  O17  1  0.45127820  0.32885846  0.14308637  1
  O  O18  1  0.46824016  0.30224830  0.03551918  1
  O  O19  1  0.84895842  0.54549417  0.02947585  1
  O  O20  1  0.70122988  0.15648831  0.02608704  1
  O  O21  1  0.45450583  0.15104158  0.52947585  1
  O  O22  1  0.69775170  0.53175984  0.53551918  1
  O  O23  1  0.84351169  0.29877012  0.52608704  1
  O  O24  1  0.54301885  0.68320437  0.96580061  1
  O  O25  1  0.11504087  0.44079438  0.97023512  1
  O  O26  1  0.33780754  0.88205580  0.97642037  1
  O  O27  1  0.55920562  0.88495913  0.47023512  1
  O  O28  1  0.31679563  0.45698115  0.46580061  1
  O  O29  1  0.11794420  0.66219246  0.47642037  1
  O  O30  1  0.13490616  0.63558230  0.36885318  1
  O  O31  1  0.51562442  0.87882817  0.36280985  1
  O  O32  1  0.36789588  0.48982231  0.35942104  1
  O  O33  1  0.12117183  0.48437558  0.86280985  1
  O  O34  1  0.36441770  0.86509384  0.86885318  1
  O  O35  1  0.51017769  0.63210412  0.85942104  1
  O  O36  1  0.99744807  0.79086116  0.41547216  1
  O  O37  1  0.80751650  0.02161365  0.40999998  1
  O  O38  1  0.19469435  0.20531221  0.40904175  1
  O  O39  1  0.97838635  0.19248350  0.90999998  1
  O  O40  1  0.20913884  0.00255193  0.91547216  1
  O  O41  1  0.79468779  0.80530565  0.90904175  1
  O  O42  1  0.96431245  0.15794539  0.58792879  1
  O  O43  1  0.18393766  0.03772569  0.58503911  1
  O  O44  1  0.85505411  0.80773733  0.58690436  1
  O  O45  1  0.96227431  0.81606234  0.08503911  1
  O  O46  1  0.84205461  0.03568755  0.08792879  1
  O  O47  1  0.19226267  0.14494589  0.08690436  1
  O  O48  1  0.66411507  0.12419416  0.74880516  1
  O  O49  1  0.47418350  0.35494665  0.74333298  1
  O  O50  1  0.86136135  0.53864521  0.74237475  1
  O  O51  1  0.64505335  0.52581650  0.24333298  1
  O  O52  1  0.87580584  0.33588493  0.24880516  1
  O  O53  1  0.46135479  0.13863865  0.24237475  1
  O  O54  1  0.63097945  0.49127839  0.92126179  1
  O  O55  1  0.85060466  0.37105869  0.91837211  1
  O  O56  1  0.52172111  0.14107033  0.92023736  1
  O  O57  1  0.62894131  0.14939534  0.41837211  1
  O  O58  1  0.50872161  0.36902055  0.42126179  1
  O  O59  1  0.85892967  0.47827889  0.42023736  1
  O  O60  1  0.33078107  0.45752816  0.08213916  1
  O  O61  1  0.14084950  0.68828065  0.07666698  1
  O  O62  1  0.52802735  0.87197921  0.07570875  1
  O  O63  1  0.31171935  0.85915050  0.57666698  1
  O  O64  1  0.54247184  0.66921893  0.58213916  1
  O  O65  1  0.12802079  0.47197265  0.57570875  1
  O  O66  1  0.29764545  0.82461239  0.25459579  1
  O  O67  1  0.51727066  0.70439269  0.25170611  1
  O  O68  1  0.18838711  0.47440433  0.25357136  1
  O  O69  1  0.29560731  0.48272934  0.75170611  1
  O  O70  1  0.17538761  0.70235455  0.75459579  1
  O  O71  1  0.52559567  0.81161289  0.75357136  1
loop_
_geom_bond_atom_site_label_1
_geom_bond_atom_site_label_2
_geom_bond_distance
_geom_bond_site_symmetry_2
Na0 O51 2.349504 1_555
Na0 O68 2.412554 1_555
Na0 O53 2.590204 1_555
Na0 O17 2.650529 1_555
Na0 O10 2.857633 1_555
Na0 O67 2.892392 1_555
Na0 O32 2.898301 1_555
Na0 O0 2.936005 1_555
Na1 O49 2.349504 1_555
Na1 O71 2.412554 1_555
Na1 O50 2.590204 1_555
Na1 O14 2.650529 1_555
Na1 O6 2.857633 1_555
Na1 O69 2.892392 1_555
Na1 O35 2.898301 1_555
Na1 O4 2.936005 1_555
Na2 O63 2.349497 1_555
Na2 O44 2.412554 1_455
Na2 O65 2.590186 1_555
Na2 O29 2.650502 1_555
Na2 O22 2.857633 1_455
Na2 O43 2.892392 1_565
Na2 O8 2.898301 1_555
Na2 O12 2.936005 1_455
Na3 O61 2.349497 1_555
Na3 O47 2.412554 1_565
Na3 O62 2.590186 1_555
Na3 O26 2.650502 1_554
Na3 O18 2.857633 1_565
Na3 O45 2.892392 1_455
Na3 O11 2.898301 1_555
Na3 O16 2.936005 1_565
Na4 O39 2.349504 1_555
Na4 O56 2.412536 1_555
Na4 O41 2.590204 1_545
Na4 O5 2.650529 1_545
Na4 O34 2.857633 1_545
Na4 O55 2.892382 1_555
Na4 O20 2.898274 1_556
Na4 O24 2.936005 1_545
Na5 O37 2.349504 1_555
Na5 O59 2.412536 1_555
Na5 O38 2.590204 1_655
Na5 O2 2.650529 1_655
Na5 O30 2.857633 1_655
Na5 O57 2.892382 1_555
Na5 O23 2.898274 1_555
Na5 O28 2.936005 1_655
Na6 O43 2.481334 1_665
Na6 O44 2.540792 1_555
Na6 O42 2.606737 1_565
Na6 O36 2.816928 1_555
Na6 O38 2.886833 1_665
Na6 O37 2.893717 1_565
Na7 O45 2.481334 1_445
Na7 O47 2.540792 1_555
Na7 O46 2.606738 1_455
Na7 O40 2.816929 1_554
Na7 O41 2.886833 1_444
Na7 O39 2.893717 1_454
Na8 O55 2.481334 1_555
Na8 O56 2.540792 1_555
Na8 O54 2.606737 1_555
Na8 O48 2.816928 1_555
Na8 O50 2.886833 1_555
Na8 O49 2.893717 1_555
Na9 O57 2.481334 1_555
Na9 O59 2.540792 1_555
Na9 O58 2.606738 1_555
Na9 O52 2.816929 1_555
Na9 O53 2.886833 1_555
Na9 O51 2.893717 1_555
Na10 O67 2.481334 1_555
Na10 O68 2.540792 1_555
Na10 O66 2.606737 1_555
Na10 O60 2.816928 1_555
Na10 O62 2.886833 1_555
Na10 O61 2.893717 1_555
Na11 O69 2.481334 1_555
Na11 O71 2.540792 1_555
Na11 O70 2.606738 1_555
Na11 O64 2.816929 1_555
Na11 O65 2.886833 1_555
Na11 O63 2.893717 1_555
La0 O0 2.258391 1_665
La0 O1 2.260342 1_555
La0 O36 2.326078 1_555
La0 O2 2.362198 1_665
La0 O37 2.377599 1_565
La0 O38 2.397874 1_665
La1 O4 2.258391 1_445
La1 O3 2.260342 1_555
La1 O40 2.326079 1_555
La1 O5 2.362198 1_445
La1 O39 2.377599 1_455
La1 O41 2.397874 1_445
La2 O12 2.258391 1_555
La2 O13 2.260342 1_555
La2 O48 2.326078 1_555
La2 O14 2.362198 1_555
La2 O49 2.377599 1_555
La2 O50 2.397874 1_555
La3 O16 2.258391 1_555
La3 O15 2.260342 1_555
La3 O52 2.326079 1_555
La3 O17 2.362198 1_555
La3 O51 2.377599 1_555
La3 O53 2.397874 1_555
La4 O24 2.258391 1_554
La4 O25 2.260342 1_554
La4 O60 2.326078 1_555
La4 O26 2.362198 1_554
La4 O61 2.377599 1_555
La4 O62 2.397874 1_555
La5 O28 2.258391 1_555
La5 O27 2.260342 1_555
La5 O64 2.326079 1_555
La5 O29 2.362198 1_555
La5 O63 2.377599 1_555
La5 O65 2.397874 1_555
O0 P0 1.522249 1_545
O1 P1 1.509762 1_555
O2 P2 1.522729 1_555
O3 P3 1.509762 1_555
O4 P4 1.522249 1_655
O5 P5 1.522729 1_555
O6 P5 1.594887 1_555
O6 Zr0 2.137954 1_665
O7 P3 1.581986 1_555
O7 Zr0 2.088745 1_555
O8 P4 1.587717 1_555
O8 Zr0 2.162833 1_565
O9 P1 1.581986 1_555
O9 Zr1 2.088745 1_555
O10 P2 1.594887 1_555
O10 Zr1 2.137953 1_445
O11 P0 1.587717 1_555
O11 Zr1 2.162833 1_455
O12 P6 1.522249 1_555
O13 P7 1.509762 1_555
O14 P8 1.522729 1_555
O15 P9 1.509762 1_555
O16 P10 1.522249 1_555
O17 P11 1.522729 1_555
O18 P11 1.594887 1_555
O18 Zr2 2.137954 1_554
O19 P9 1.581986 1_555
O19 Zr2 2.088745 1_554
O20 P10 1.587717 1_555
O20 Zr2 2.162833 1_554
O21 P7 1.581986 1_555
O21 Zr3 2.088745 1_555
O22 P8 1.594887 1_555
O22 Zr3 2.137953 1_555
O23 P6 1.587717 1_555
O23 Zr3 2.162833 1_555
O24 P12 1.522249 1_555
O25 P13 1.509762 1_555
O26 P14 1.522729 1_555
O27 P15 1.509762 1_555
O28 P16 1.522249 1_555
O29 P17 1.522729 1_555
O30 P17 1.594887 1_555
O30 Zr4 2.137954 1_555
O31 P15 1.581986 1_555
O31 Zr4 2.088745 1_555
O32 P16 1.587717 1_555
O32 Zr4 2.162833 1_555
O33 P13 1.581986 1_555
O33 Zr5 2.088745 1_555
O34 P14 1.594887 1_555
O34 Zr5 2.137953 1_555
O35 P12 1.587717 1_555
O35 Zr5 2.162833 1_555
O36 P17 1.525475 1_655
O37 P15 1.541702 1_545
O38 P16 1.536518 1_555
O39 P13 1.541702 1_655
O40 P14 1.525475 1_545
O41 P12 1.536518 1_555
O42 P6 1.568106 1_555
O42 Zr0 2.149443 1_655
O43 P7 1.570223 1_555
O43 Zr0 2.168719 1_555
O44 P8 1.577648 1_555
O44 Zr0 2.242878 1_665
O45 P9 1.570223 1_555
O45 Zr1 2.168719 1_555
O46 P10 1.568106 1_555
O46 Zr1 2.149444 1_545
O47 P11 1.577648 1_555
O47 Zr1 2.242878 1_445
O48 P5 1.525475 1_545
O49 P3 1.541702 1_555
O50 P4 1.536518 1_655
O51 P1 1.541702 1_555
O52 P2 1.525475 1_655
O53 P0 1.536518 1_545
O54 P12 1.568118 1_555
O54 Zr2 2.149443 1_555
O55 P13 1.570208 1_655
O55 Zr2 2.168719 1_555
O56 P14 1.577648 1_545
O56 Zr2 2.242878 1_555
O57 P15 1.570207 1_545
O57 Zr3 2.168719 1_555
O58 P16 1.568118 1_555
O58 Zr3 2.149444 1_555
O59 P17 1.577648 1_655
O59 Zr3 2.242878 1_555
O60 P11 1.525489 1_555
O61 P9 1.541688 1_455
O62 P10 1.536515 1_565
O63 P7 1.541688 1_565
O64 P8 1.525489 1_555
O65 P6 1.536515 1_455
O66 P0 1.568106 1_555
O66 Zr4 2.149443 1_555
O67 P1 1.570223 1_555
O67 Zr4 2.168719 1_555
O68 P2 1.577648 1_555
O68 Zr4 2.242878 1_555
O69 P3 1.570223 1_555
O69 Zr5 2.168719 1_555
O70 P4 1.568106 1_555
O70 Zr5 2.149444 1_555
O71 P5 1.577648 1_555
O71 Zr5 2.242878 1_555
