# generated using pymatgen
data_Na6MgTi3Si4(SO12)2
_symmetry_space_group_name_H-M   'P 1'
_cell_length_a   8.95763370
_cell_length_b   8.93906042
_cell_length_c   22.17402978
_cell_angle_alpha   90.38958117
_cell_angle_beta   89.99391626
_cell_angle_gamma   120.08432109
_symmetry_Int_Tables_number   1
_chemical_formula_structural   Na6MgTi3Si4(SO12)2
_chemical_formula_sum   'Na18 Mg3 Ti9 Si12 S6 O72'
_cell_volume   1536.30552035
_cell_formula_units_Z   3
loop_
 _symmetry_equiv_pos_site_id
 _symmetry_equiv_pos_as_xyz
  1  'x, y, z'
loop_
 _atom_site_type_symbol
 _atom_site_label
 _atom_site_symmetry_multiplicity
 _atom_site_fract_x
 _atom_site_fract_y
 _atom_site_fract_z
 _atom_site_occupancy
  Na  Na0  1  0.99478287  0.36097076  0.75331739  1
  Na  Na1  1  0.38711982  0.01255164  0.74818158  1
  Na  Na2  1  0.31729011  0.33710722  0.58515078  1
  Na  Na3  1  0.03213942  0.70423114  0.57833946  1
  Na  Na4  1  0.65623619  0.96485967  0.58809980  1
  Na  Na5  1  0.31810322  0.97831773  0.08607512  1
  Na  Na6  1  0.65551926  0.68324053  0.08672741  1
  Na  Na7  1  0.02699253  0.34000161  0.08679516  1
  Na  Na8  1  0.33579348  0.29819961  0.92255807  1
  Na  Na9  1  0.96188280  0.28942665  0.41277035  1
  Na  Na10  1  0.32373513  0.03250100  0.41330313  1
  Na  Na11  1  0.71314499  0.67831426  0.41297337  1
  Na  Na12  1  0.00157674  0.99504247  0.49350904  1
  Na  Na13  1  0.99383498  0.98988562  0.99593341  1
  Na  Na14  1  0.66631255  0.32843386  0.83406323  1
  Na  Na15  1  0.66928144  0.33352167  0.32599026  1
  Na  Na16  1  0.33583707  0.66596262  0.16925807  1
  Na  Na17  1  0.36087935  0.67136083  0.66924995  1
  Mg  Mg0  1  0.00073660  0.99889130  0.35297317  1
  Mg  Mg1  1  0.64688782  0.32620664  0.68797242  1
  Mg  Mg2  1  0.66527384  0.33340728  0.18106030  1
  Ti  Ti0  1  0.01010457  0.02344774  0.85520520  1
  Ti  Ti1  1  0.99552141  0.99970959  0.64902228  1
  Ti  Ti2  1  0.00354669  0.00174802  0.14171521  1
  Ti  Ti3  1  0.67297919  0.31861144  0.98295509  1
  Ti  Ti4  1  0.65025137  0.33930443  0.47686515  1
  Ti  Ti5  1  0.31721708  0.66678531  0.02101120  1
  Ti  Ti6  1  0.34650338  0.67911413  0.51605241  1
  Ti  Ti7  1  0.33168200  0.66696929  0.31871273  1
  Ti  Ti8  1  0.34004852  0.67148767  0.81534386  1
  Si  Si0  1  0.29462938  0.29843705  0.75076826  1
  Si  Si1  1  0.70925484  0.99604398  0.75156976  1
  Si  Si2  1  0.37340291  0.03871100  0.58468808  1
  Si  Si3  1  0.66571854  0.62551813  0.58445499  1
  Si  Si4  1  0.94961367  0.61651542  0.08471666  1
  Si  Si5  1  0.66255740  0.03730981  0.08623716  1
  Si  Si6  1  0.38176613  0.33901259  0.08274823  1
  Si  Si7  1  0.03821472  0.38420336  0.91563523  1
  Si  Si8  1  0.33166923  0.95795559  0.91602987  1
  Si  Si9  1  0.62516532  0.96273165  0.41561538  1
  Si  Si10  1  0.33059092  0.38017581  0.41723723  1
  Si  Si11  1  0.04098510  0.66049324  0.41798475  1
  S  S0  1  0.29212002  0.99779290  0.25060417  1
  S  S1  1  0.70587769  0.70813917  0.25033458  1
  S  S2  1  0.00220840  0.29386806  0.25086391  1
  S  S3  1  -0.00022201  0.71250845  0.75025301  1
  S  S4  1  0.95719766  0.33315084  0.58461745  1
  S  S5  1  0.62664594  0.67030046  0.91636251  1
  O  O0  1  0.20601701  0.01141487  0.30580818  1
  O  O1  1  0.80542504  0.79490071  0.30575904  1
  O  O2  1  0.98938817  0.19490945  0.30588408  1
  O  O3  1  0.19084348  0.17448945  0.80943897  1
  O  O4  1  0.98059391  0.79691637  0.80351050  1
  O  O5  1  0.83753049  0.01216299  0.80693452  1
  O  O6  1  0.80180767  0.96948399  0.68939832  1
  O  O7  1  0.16418090  0.19225738  0.69174001  1
  O  O8  1  0.02352264  0.81803222  0.69385306  1
  O  O9  1  0.79630730  0.81377598  0.19574443  1
  O  O10  1  0.01749710  0.20236959  0.19593964  1
  O  O11  1  0.18576238  0.98235675  0.19571850  1
  O  O12  1  0.87962785  0.35670116  0.63928018  1
  O  O13  1  0.49394528  0.10707551  0.64325629  1
  O  O14  1  0.62903222  0.49949479  0.63931653  1
  O  O15  1  0.88507229  0.49539323  0.14171176  1
  O  O16  1  0.60858504  0.11085804  0.14179253  1
  O  O17  1  0.50391319  0.38754670  0.13978559  1
  O  O18  1  0.45795333  0.28997449  0.02232565  1
  O  O19  1  0.82071497  0.53017986  0.02599009  1
  O  O20  1  0.71066550  0.16890230  0.02708537  1
  O  O21  1  0.46872277  0.16787725  0.52532753  1
  O  O22  1  0.69948906  0.53771663  0.52235062  1
  O  O23  1  0.85203024  0.30809161  0.52971873  1
  O  O24  1  0.54898174  0.69334363  0.97197417  1
  O  O25  1  0.16448484  0.46985581  0.97414305  1
  O  O26  1  0.31232267  0.83905987  0.97451449  1
  O  O27  1  0.53430124  0.84062777  0.47558851  1
  O  O28  1  0.30524413  0.46996816  0.47790431  1
  O  O29  1  0.16296026  0.68911555  0.47713563  1
  O  O30  1  0.13861443  0.62700583  0.36002786  1
  O  O31  1  0.48889548  0.86450895  0.35940551  1
  O  O32  1  0.37141570  0.51294328  0.36025202  1
  O  O33  1  0.14183725  0.49848669  0.85585696  1
  O  O34  1  0.35574259  0.85973503  0.85610903  1
  O  O35  1  0.51184500  0.64735534  0.86289803  1
  O  O36  1  0.02199975  0.82925207  0.41191300  1
  O  O37  1  0.81109516  0.97915059  0.41089793  1
  O  O38  1  0.16707393  0.18980511  0.41141180  1
  O  O39  1  0.02537045  0.19133748  0.91063610  1
  O  O40  1  0.15800776  0.97633460  0.90989057  1
  O  O41  1  0.79933714  0.82256303  0.90955849  1
  O  O42  1  0.97418475  0.17315820  0.58712842  1
  O  O43  1  0.18130127  0.02329431  0.58922799  1
  O  O44  1  0.84032235  0.82122322  0.58806197  1
  O  O45  1  0.97671124  0.81564324  0.09276823  1
  O  O46  1  0.83987798  0.02122432  0.09355153  1
  O  O47  1  0.18353327  0.16189560  0.09311560  1
  O  O48  1  0.70408950  0.17366800  0.74901757  1
  O  O49  1  0.47482548  0.30340749  0.75074356  1
  O  O50  1  0.85341544  0.53607244  0.74367794  1
  O  O51  1  0.68762635  0.53485759  0.24705684  1
  O  O52  1  0.84799727  0.31213203  0.24742161  1
  O  O53  1  0.46473285  0.15268730  0.24755003  1
  O  O54  1  0.63330790  0.50883945  0.91746245  1
  O  O55  1  0.84890591  0.36418497  0.92151691  1
  O  O56  1  0.50010435  0.15298747  0.92098849  1
  O  O57  1  0.63674364  0.14967299  0.42350651  1
  O  O58  1  0.50938125  0.36870244  0.42083266  1
  O  O59  1  0.85356280  0.48273903  0.42347899  1
  O  O60  1  0.34430048  0.49916289  0.07205546  1
  O  O61  1  0.15000084  0.65642963  0.07392346  1
  O  O62  1  0.50491555  0.84152240  0.07193085  1
  O  O63  1  0.34053869  0.84032852  0.57514065  1
  O  O64  1  0.49528559  0.65027577  0.57684889  1
  O  O65  1  0.13427181  0.48580915  0.58012729  1
  O  O66  1  0.30255464  0.83552561  0.25199711  1
  O  O67  1  0.53259998  0.69617437  0.25234370  1
  O  O68  1  0.16439874  0.46739041  0.25259047  1
  O  O69  1  0.29493033  0.48142104  0.75446119  1
  O  O70  1  0.16321067  0.70350861  0.75190587  1
  O  O71  1  0.51423545  0.82691819  0.75654043  1
loop_
_geom_bond_atom_site_label_1
_geom_bond_atom_site_label_2
_geom_bond_distance
_geom_bond_site_symmetry_2
Na0 O48 2.284694 1_555
Na0 O69 2.342219 1_655
Na0 O50 2.467994 1_555
Na0 O33 2.599093 1_655
Na0 O70 2.650043 1_655
Na0 O12 2.723857 1_555
Na0 O7 2.950799 1_655
Na0 O5 2.960826 1_555
Na1 O49 2.308787 1_555
Na1 O71 2.446012 1_545
Na1 O48 2.456869 1_555
Na1 O70 2.471730 1_545
Na1 O13 2.501683 1_555
Na1 O34 2.707727 1_545
Na2 O43 2.436954 1_555
Na2 O64 2.438234 1_555
Na2 O65 2.579496 1_555
Na2 O42 2.660968 1_455
Na2 O28 2.691542 1_555
Na2 O14 2.694576 1_555
Na2 O7 2.721088 1_555
Na2 O21 2.813842 1_555
Na3 O63 2.397580 1_555
Na3 O44 2.427104 1_455
Na3 O43 2.479584 1_565
Na3 O65 2.538233 1_555
Na3 O29 2.565445 1_555
Na3 O8 2.764928 1_555
Na3 O22 2.857429 1_455
Na4 O64 2.444296 1_555
Na4 O63 2.481654 1_555
Na4 O42 2.502580 1_565
Na4 O44 2.547614 1_555
Na4 O6 2.587041 1_555
Na4 O13 2.656433 1_565
Na4 O27 2.719793 1_555
Na5 O47 2.479919 1_565
Na5 O61 2.503015 1_555
Na5 O62 2.537729 1_555
Na5 O16 2.567248 1_565
Na5 O45 2.651973 1_455
Na5 O11 2.712680 1_555
Na5 O26 2.750501 1_554
Na5 O18 2.807699 1_565
Na6 O62 2.418583 1_555
Na6 O60 2.445234 1_555
Na6 O45 2.506109 1_555
Na6 O17 2.580367 1_555
Na6 O46 2.621038 1_565
Na6 O9 2.698621 1_555
Na6 O24 2.735623 1_554
Na6 O19 2.807113 1_555
Na7 O60 2.482292 1_555
Na7 O46 2.483792 1_455
Na7 O61 2.486492 1_555
Na7 O47 2.600375 1_555
Na7 O15 2.602975 1_455
Na7 O10 2.704376 1_555
Na7 O25 2.776604 1_554
Na7 O20 2.783816 1_455
Na8 O54 2.373295 1_555
Na8 O56 2.401510 1_555
Na8 O39 2.459303 1_555
Na8 O18 2.486011 1_556
Na8 O40 2.507711 1_545
Na8 O3 2.779180 1_555
Na8 O25 2.890338 1_555
Na9 O59 2.378923 1_555
Na9 O37 2.400307 1_545
Na9 O38 2.410992 1_655
Na9 O57 2.540872 1_555
Na9 O2 2.563838 1_555
Na9 O23 2.806970 1_555
Na9 O30 2.870248 1_655
Na10 O36 2.383970 1_545
Na10 O38 2.434630 1_555
Na10 O57 2.462179 1_555
Na10 O0 2.573740 1_555
Na10 O58 2.609225 1_555
Na10 O21 2.775920 1_555
Na10 O31 2.841604 1_545
Na11 O37 2.374842 1_555
Na11 O36 2.394412 1_655
Na11 O58 2.442071 1_555
Na11 O1 2.567280 1_555
Na11 O59 2.627346 1_555
Na11 O22 2.713677 1_555
Na11 O32 2.891853 1_555
Na11 O27 2.983599 1_555
Na12 O36 2.395561 1_555
Na12 O38 2.449021 1_565
Na12 O37 2.457886 1_455
Na12 O44 2.586518 1_455
Na12 O43 2.597365 1_565
Na12 O42 2.692827 1_465
Na13 O40 2.447925 1_655
Na13 O41 2.508001 1_555
Na13 O39 2.536966 1_665
Na13 O45 2.620299 1_556
Na13 O46 2.654100 1_566
Na13 O47 2.689173 1_666
Na14 O55 2.450722 1_555
Na14 O49 2.452739 1_555
Na14 O48 2.453256 1_555
Na14 O56 2.468002 1_555
Na14 O54 2.558374 1_555
Na14 O50 2.683661 1_555
Na15 O52 2.436452 1_555
Na15 O53 2.447160 1_555
Na15 O51 2.464923 1_555
Na15 O59 2.632718 1_555
Na15 O58 2.648620 1_555
Na15 O57 2.651313 1_555
Na16 O67 2.467871 1_555
Na16 O66 2.483427 1_555
Na16 O68 2.496935 1_555
Na16 O60 2.635176 1_555
Na16 O62 2.660206 1_555
Na16 O61 2.665184 1_555
Na17 O71 2.369820 1_555
Na17 O69 2.416552 1_555
Na17 O64 2.429976 1_555
Na17 O63 2.643492 1_555
Na17 O70 2.660686 1_555
Na17 O65 2.712517 1_555
Mg0 O38 2.057358 1_565
Mg0 O1 2.063508 1_455
Mg0 O37 2.066081 1_455
Mg0 O0 2.069395 1_565
Mg0 O36 2.088166 1_555
Mg0 O2 2.091492 1_465
Mg1 O14 1.964754 1_555
Mg1 O13 1.995118 1_555
Mg1 O49 2.010695 1_555
Mg1 O48 2.163284 1_555
Mg1 O50 2.226470 1_555
Mg1 O12 2.240587 1_555
Mg2 O17 1.966892 1_555
Mg2 O15 1.973088 1_555
Mg2 O16 1.984293 1_555
Mg2 O51 2.242141 1_555
Mg2 O53 2.265576 1_555
Mg2 O52 2.279667 1_555
O0 S0 1.483252 1_545
O1 S1 1.483569 1_555
O2 S2 1.482210 1_655
O3 Si0 1.664657 1_555
O3 Ti0 1.816799 1_555
O4 S3 1.453023 1_655
O4 Ti0 2.217253 1_665
O5 Si1 1.637109 1_545
O5 Ti0 1.840666 1_655
O6 Si1 1.684297 1_555
O6 Ti1 1.848910 1_555
O7 Si0 1.688495 1_555
O7 Ti1 1.874401 1_445
O8 S3 1.521151 1_555
O8 Ti1 2.029521 1_455
O9 S1 1.503860 1_555
O9 Ti2 2.145816 1_665
O10 S2 1.506556 1_555
O10 Ti2 2.103217 1_555
O11 S0 1.507994 1_555
O11 Ti2 2.101194 1_565
O12 S4 1.462632 1_555
O13 Si2 1.598104 1_555
O14 Si3 1.582512 1_555
O15 Si4 1.579442 1_555
O16 Si5 1.578306 1_555
O17 Si6 1.581740 1_555
O18 Si6 1.656725 1_555
O18 Ti3 2.011461 1_554
O19 Si4 1.648576 1_555
O19 Ti3 1.924889 1_554
O20 Si5 1.674054 1_555
O20 Ti3 1.825719 1_554
O21 Si2 1.681309 1_555
O21 Ti4 1.915987 1_555
O22 Si3 1.681421 1_555
O22 Ti4 1.883887 1_555
O23 S4 1.484754 1_555
O23 Ti4 2.286653 1_555
O24 S5 1.478872 1_555
O24 Ti5 2.248918 1_556
O25 Si7 1.633180 1_555
O25 Ti5 1.900417 1_556
O26 Si8 1.635679 1_555
O26 Ti5 1.877692 1_556
O27 Si9 1.658667 1_555
O27 Ti6 1.817080 1_555
O28 Si10 1.635061 1_555
O28 Ti6 1.906110 1_555
O29 Si11 1.641665 1_555
O29 Ti6 1.898547 1_555
O30 Si11 1.662218 1_555
O30 Ti7 1.828264 1_555
O31 Si9 1.650872 1_555
O31 Ti7 1.844189 1_555
O32 Si10 1.650487 1_555
O32 Ti7 1.838318 1_555
O33 Si7 1.652187 1_555
O33 Ti8 1.901785 1_555
O34 Si8 1.660326 1_555
O34 Ti8 1.846804 1_555
O35 S5 1.513446 1_555
O35 Ti8 1.965419 1_555
O36 Si11 1.607086 1_555
O37 Si9 1.600453 1_555
O38 Si10 1.598791 1_555
O39 Si7 1.672238 1_555
O39 Ti0 1.884405 1_555
O40 Si8 1.649840 1_555
O40 Ti0 1.992406 1_565
O41 S5 1.469741 1_555
O41 Ti0 2.207189 1_665
O42 S4 1.513586 1_555
O42 Ti1 2.156419 1_545
O43 Si2 1.659097 1_555
O43 Ti1 2.055089 1_445
O44 Si3 1.663753 1_555
O44 Ti1 2.013167 1_555
O45 Si4 1.679813 1_555
O45 Ti2 1.891541 1_665
O46 Si5 1.673097 1_555
O46 Ti2 1.891840 1_655
O47 Si6 1.702636 1_555
O47 Ti2 1.875302 1_555
O48 Si1 1.612855 1_545
O49 Si0 1.592323 1_555
O50 S3 1.466795 1_655
O51 S1 1.475100 1_555
O52 S2 1.472056 1_655
O53 S0 1.472204 1_545
O54 S5 1.474492 1_555
O54 Ti3 2.401321 1_555
O55 Si7 1.618851 1_655
O55 Ti3 1.966925 1_555
O56 Si8 1.639595 1_545
O56 Ti3 2.037706 1_555
O57 Si9 1.629771 1_545
O57 Ti4 2.013735 1_555
O58 Si10 1.657291 1_555
O58 Ti4 1.882101 1_555
O59 Si11 1.639009 1_655
O59 Ti4 2.010274 1_555
O60 Si6 1.644570 1_555
O60 Ti5 1.993159 1_555
O61 Si4 1.663003 1_455
O61 Ti5 1.868377 1_555
O62 Si5 1.634795 1_565
O62 Ti5 1.971052 1_555
O63 Si2 1.657646 1_565
O63 Ti6 1.961588 1_555
O64 Si3 1.657545 1_555
O64 Ti6 2.002391 1_555
O65 S4 1.489903 1_455
O65 Ti6 2.314758 1_555
O66 S0 1.500075 1_555
O66 Ti7 2.225160 1_555
O67 S1 1.502077 1_555
O67 Ti7 2.237560 1_555
O68 S2 1.502707 1_555
O68 Ti7 2.205154 1_555
O69 Si0 1.635849 1_555
O69 Ti8 2.037903 1_555
O70 S3 1.506370 1_555
O70 Ti8 2.242855 1_555
O71 Si1 1.644365 1_555
O71 Ti8 1.978877 1_555
