# generated using pymatgen
data_LaFe5H2
_symmetry_space_group_name_H-M   'P 1'
_cell_length_a   4.15046300
_cell_length_b   5.16482236
_cell_length_c   5.19007607
_cell_angle_alpha   119.83916244
_cell_angle_beta   90.00000000
_cell_angle_gamma   90.00000000
_symmetry_Int_Tables_number   1
_chemical_formula_structural   LaFe5H2
_chemical_formula_sum   'La1 Fe5 H2'
_cell_volume   96.50679111
_cell_formula_units_Z   1
loop_
 _symmetry_equiv_pos_site_id
 _symmetry_equiv_pos_as_xyz
  1  'x, y, z'
loop_
 _atom_site_type_symbol
 _atom_site_label
 _atom_site_symmetry_multiplicity
 _atom_site_fract_x
 _atom_site_fract_y
 _atom_site_fract_z
 _atom_site_occupancy
  La  La0  1  0.00000000  0.00000000  0.00000000  1
  Fe  Fe0  1  0.50000000  0.00000000  0.50000000  1
  Fe  Fe1  1  0.50000000  0.50000000  0.50000000  1
  Fe  Fe2  1  0.00000000  0.33674600  0.67349200  1
  Fe  Fe3  1  0.00000000  0.66325400  0.32650800  1
  Fe  Fe4  1  0.50000000  0.50000000  0.00000000  1
  H  H0  1  0.50000000  0.86652200  0.73304400  1
  H  H1  1  0.50000000  0.13347800  0.26695600  1
loop_
_geom_bond_atom_site_label_1
_geom_bond_atom_site_label_2
_geom_bond_distance
_geom_bond_site_symmetry_2
Fe0 H0 1.663718 1_545
Fe0 H1 1.663718 1_555
Fe0 Fe2 2.565902 1_655
Fe0 Fe3 2.565902 1_545
Fe0 Fe3 2.565902 1_645
Fe0 Fe2 2.565902 1_555
Fe0 Fe4 2.595038 1_545
Fe0 Fe4 2.595038 1_556
Fe1 H0 1.663719 1_555
Fe1 H1 1.663719 1_555
Fe1 Fe2 2.565902 1_555
Fe1 Fe2 2.565902 1_655
Fe1 Fe3 2.565902 1_555
Fe1 Fe3 2.565902 1_655
Fe1 Fe4 2.595038 1_555
Fe1 Fe4 2.595038 1_556
Fe2 Fe4 2.543091 1_456
Fe2 Fe4 2.543091 1_556
Fe2 Fe3 2.939881 1_556
Fe2 La0 2.971459 1_556
Fe2 La0 2.971460 1_566
Fe2 Fe3 3.018125 1_555
Fe2 Fe3 3.018125 1_545
Fe2 La0 3.032064 1_555
Fe3 Fe4 2.543091 1_555
Fe3 Fe4 2.543091 1_455
Fe3 La0 2.971459 1_565
Fe3 La0 2.971460 1_555
Fe3 La0 3.032064 1_566
Fe4 La0 3.312919 1_555
Fe4 La0 3.312919 1_655
Fe4 La0 3.312919 1_565
Fe4 La0 3.312919 1_665
H0 La0 2.398124 1_566
H0 La0 2.398124 1_666
H1 La0 2.398124 1_555
H1 La0 2.398124 1_655
