# generated using pymatgen
data_Nd4Mg(Cu2O5)2
_symmetry_space_group_name_H-M   'P 1'
_cell_length_a   3.71771529
_cell_length_b   6.60570433
_cell_length_c   9.83230044
_cell_angle_alpha   88.50937207
_cell_angle_beta   90.00000000
_cell_angle_gamma   90.00000000
_symmetry_Int_Tables_number   1
_chemical_formula_structural   Nd4Mg(Cu2O5)2
_chemical_formula_sum   'Nd4 Mg1 Cu4 O10'
_cell_volume   241.38118019
_cell_formula_units_Z   1
loop_
 _symmetry_equiv_pos_site_id
 _symmetry_equiv_pos_as_xyz
  1  'x, y, z'
loop_
 _atom_site_type_symbol
 _atom_site_label
 _atom_site_symmetry_multiplicity
 _atom_site_fract_x
 _atom_site_fract_y
 _atom_site_fract_z
 _atom_site_occupancy
  Nd  Nd0  1  0.50000000  0.12072658  0.84189576  1
  Nd  Nd1  1  0.50000000  0.86339292  0.12805448  1
  Nd  Nd2  1  0.50000000  0.61127790  0.66998650  1
  Nd  Nd3  1  0.50000000  0.40959449  0.32920281  1
  Mg  Mg0  1  0.50000000  0.01395737  0.48927417  1
  Cu  Cu0  1  0.00000000  0.24174563  0.60009139  1
  Cu  Cu1  1  0.00000000  0.78795592  0.38097153  1
  Cu  Cu2  1  0.00000000  0.64751179  0.92048752  1
  Cu  Cu3  1  0.00000000  0.30036991  0.08465812  1
  O  O0  1  0.00000000  0.52712026  0.50491851  1
  O  O1  1  0.00000000  0.00783983  0.99781384  1
  O  O2  1  0.00000000  0.90868523  0.65641623  1
  O  O3  1  0.00000000  0.13475892  0.37280794  1
  O  O4  1  0.00000000  0.38325124  0.80590225  1
  O  O5  1  0.00000000  0.58876264  0.18687659  1
  O  O6  1  0.50000000  0.25448422  0.60338462  1
  O  O7  1  0.50000000  0.77512360  0.37269709  1
  O  O8  1  0.50000000  0.24431797  0.10762422  1
  O  O9  1  0.50000000  0.74162356  0.89693643  1
loop_
_geom_bond_atom_site_label_1
_geom_bond_atom_site_label_2
_geom_bond_distance
_geom_bond_site_symmetry_2
Nd0 O6 2.484439 1_555
Nd0 O1 2.510404 1_655
Nd0 O1 2.510404 1_555
Nd0 O9 2.548253 1_545
Nd0 O4 2.560464 1_655
Nd0 O4 2.560464 1_555
Nd0 O8 2.757502 1_556
Nd0 O2 2.979263 1_645
Nd0 O2 2.979263 1_545
Nd1 O9 2.430230 1_554
Nd1 O1 2.437637 1_564
Nd1 O1 2.437637 1_664
Nd1 O7 2.460277 1_555
Nd1 O8 2.519069 1_565
Nd1 O5 2.650720 1_555
Nd1 O5 2.650720 1_655
Nd2 O9 2.412602 1_555
Nd2 O6 2.462515 1_555
Nd2 O0 2.538792 1_555
Nd2 O0 2.538792 1_655
Nd2 O2 2.705385 1_555
Nd2 O2 2.705385 1_655
Nd2 O4 2.721280 1_655
Nd2 O4 2.721280 1_555
Nd3 O8 2.462138 1_555
Nd3 O7 2.463085 1_555
Nd3 O5 2.593884 1_555
Nd3 O5 2.593884 1_655
Nd3 O3 2.625766 1_555
Nd3 O3 2.625766 1_655
Nd3 O0 2.666974 1_555
Nd3 O0 2.666974 1_655
Nd3 O6 2.858962 1_555
Mg0 O6 1.968756 1_555
Mg0 O7 1.974065 1_545
Mg0 O3 2.314283 1_655
Mg0 O3 2.314283 1_555
Mg0 O2 2.565191 1_645
Mg0 O2 2.565191 1_545
Cu0 O6 1.861081 1_455
Cu0 O6 1.861081 1_555
Cu0 O0 2.082664 1_555
Cu0 O4 2.251020 1_555
Cu0 O2 2.254715 1_545
Cu0 O3 2.361270 1_555
Cu1 O7 1.862663 1_455
Cu1 O7 1.862663 1_555
Cu1 O0 2.084391 1_555
Cu1 O3 2.290196 1_565
Cu1 O5 2.346059 1_555
Cu2 O9 1.971792 1_555
Cu2 O9 1.971792 1_455
Cu2 O4 2.102105 1_555
Cu2 O1 2.517469 1_565
Cu2 O5 2.637806 1_556
Cu3 O8 1.907639 1_455
Cu3 O8 1.907639 1_555
Cu3 O1 2.132838 1_554
Cu3 O5 2.176899 1_555
