# generated using pymatgen
data_SrIn4Ni
_symmetry_space_group_name_H-M   'P 1'
_cell_length_a   4.50243477
_cell_length_b   7.32647958
_cell_length_c   8.86068452
_cell_angle_alpha   90.00000000
_cell_angle_beta   104.71837667
_cell_angle_gamma   90.00000000
_symmetry_Int_Tables_number   1
_chemical_formula_structural   SrIn4Ni
_chemical_formula_sum   'Sr2 In8 Ni2'
_cell_volume   282.69634235
_cell_formula_units_Z   2
loop_
 _symmetry_equiv_pos_site_id
 _symmetry_equiv_pos_as_xyz
  1  'x, y, z'
loop_
 _atom_site_type_symbol
 _atom_site_label
 _atom_site_symmetry_multiplicity
 _atom_site_fract_x
 _atom_site_fract_y
 _atom_site_fract_z
 _atom_site_occupancy
  Sr  Sr0  1  0.12120883  0.75000000  0.24241866  1
  Sr  Sr1  1  0.87879117  0.25000000  0.75758134  1
  In  In0  1  0.69012946  0.05017331  0.38025792  1
  In  In1  1  0.30987054  0.94982669  0.61974208  1
  In  In2  1  0.30987054  0.55017331  0.61974208  1
  In  In3  1  0.69012946  0.44982669  0.38025792  1
  In  In4  1  0.07607358  0.25000000  0.15214715  1
  In  In5  1  0.92392642  0.75000000  0.84785285  1
  In  In6  1  0.50000000  0.00000000  0.00000000  1
  In  In7  1  0.50000000  0.50000000  0.00000000  1
  Ni  Ni0  1  0.77509693  0.75000000  0.55019287  1
  Ni  Ni1  1  0.22490307  0.25000000  0.44980713  1
loop_
_geom_bond_atom_site_label_1
_geom_bond_atom_site_label_2
_geom_bond_distance
_geom_bond_site_symmetry_2
In0 Ni0 2.637696 1_545
In0 Ni1 2.750743 1_655
In0 Ni1 2.750750 1_555
In0 In6 3.279452 1_555
In0 Sr0 3.361533 1_645
In0 Sr0 3.361539 1_545
In0 Sr1 3.549616 1_555
In1 Ni1 2.637696 1_565
In1 Ni0 2.750743 1_455
In1 Ni0 2.750750 1_555
In1 In6 3.279452 1_566
In1 Sr1 3.361533 1_465
In1 Sr1 3.361539 1_565
In1 Sr0 3.549616 1_555
In2 Ni1 2.637696 1_555
In2 Ni0 2.750743 1_455
In2 Ni0 2.750750 1_555
In2 In7 3.279452 1_556
In2 Sr1 3.361533 1_455
In2 Sr1 3.361539 1_555
In2 Sr0 3.549616 1_555
In3 Ni0 2.637696 1_555
In3 Ni1 2.750743 1_655
In3 Ni1 2.750750 1_555
In3 In7 3.279452 1_555
In3 Sr0 3.361533 1_655
In3 Sr0 3.361539 1_555
In3 Sr1 3.549616 1_555
In4 Ni1 2.550926 1_555
In4 In6 3.181657 1_455
In4 In7 3.181657 1_455
In4 In6 3.181657 1_555
In4 In7 3.181657 1_555
In4 Sr1 3.381402 1_454
In4 Sr0 3.744037 1_545
In4 Sr0 3.744037 1_555
In5 Ni0 2.550926 1_555
In5 In7 3.181657 1_656
In5 In6 3.181657 1_666
In5 In7 3.181657 1_556
In5 In6 3.181657 1_566
In5 Sr0 3.381402 1_656
In5 Sr1 3.744037 1_555
In5 Sr1 3.744037 1_565
In6 Sr0 3.569153 1_645
In6 Sr1 3.569153 1_454
In6 Sr1 3.569156 1_554
In6 Sr0 3.569156 1_545
In7 Sr1 3.569153 1_454
In7 Sr0 3.569153 1_655
In7 Sr0 3.569156 1_555
In7 Sr1 3.569156 1_554
Ni0 Sr0 3.467696 1_655
Ni0 Sr0 3.467702 1_555
Ni1 Sr1 3.467696 1_455
Ni1 Sr1 3.467702 1_555
