# generated using pymatgen
data_CeP
_symmetry_space_group_name_H-M   'P 1'
_cell_length_a   3.50334000
_cell_length_b   3.50334000
_cell_length_c   3.50334000
_cell_angle_alpha   90.00000000
_cell_angle_beta   90.00000000
_cell_angle_gamma   90.00000000
_symmetry_Int_Tables_number   1
_chemical_formula_structural   CeP
_chemical_formula_sum   'Ce1 P1'
_cell_volume   42.99786217
_cell_formula_units_Z   1
loop_
 _symmetry_equiv_pos_site_id
 _symmetry_equiv_pos_as_xyz
  1  'x, y, z'
loop_
 _atom_site_type_symbol
 _atom_site_label
 _atom_site_symmetry_multiplicity
 _atom_site_fract_x
 _atom_site_fract_y
 _atom_site_fract_z
 _atom_site_occupancy
  Ce  Ce0  1  0.00000000  0.00000000  0.00000000  1
  P  P0  1  0.50000000  0.50000000  0.50000000  1
loop_
_geom_bond_atom_site_label_1
_geom_bond_atom_site_label_2
_geom_bond_distance
_geom_bond_site_symmetry_2
Ce0 P0 3.033981 1_445
Ce0 P0 3.033981 1_454
Ce0 P0 3.033981 1_545
Ce0 P0 3.033981 1_555
Ce0 P0 3.033981 1_554
Ce0 P0 3.033981 1_444
Ce0 P0 3.033981 1_455
Ce0 P0 3.033981 1_544
