# generated using pymatgen
data_MgMoW2(SeS2)2
_symmetry_space_group_name_H-M   'P 1'
_cell_length_a   6.45124600
_cell_length_b   6.45126190
_cell_length_c   59.65609000
_cell_angle_alpha   90.00088361
_cell_angle_beta   90.00003697
_cell_angle_gamma   120.00040303
_symmetry_Int_Tables_number   1
_chemical_formula_structural   MgMoW2(SeS2)2
_chemical_formula_sum   'Mg8 Mo8 W16 Se16 S32'
_cell_volume   2150.16569696
_cell_formula_units_Z   8
loop_
 _symmetry_equiv_pos_site_id
 _symmetry_equiv_pos_as_xyz
  1  'x, y, z'
loop_
 _atom_site_type_symbol
 _atom_site_label
 _atom_site_symmetry_multiplicity
 _atom_site_fract_x
 _atom_site_fract_y
 _atom_site_fract_z
 _atom_site_occupancy
  Mg  Mg0_0  1  0.36304500  0.16230400  0.42118850  1
  Mg  Mg0_1  1  0.36304500  0.16230400  0.92118850  1
  Mg  Mg0_2  1  0.36304500  0.66230400  0.42118850  1
  Mg  Mg0_3  1  0.36304500  0.66230400  0.92118850  1
  Mg  Mg0_4  1  0.86304500  0.16230400  0.42118850  1
  Mg  Mg0_5  1  0.86304500  0.16230400  0.92118850  1
  Mg  Mg0_6  1  0.86304500  0.66230400  0.42118850  1
  Mg  Mg0_7  1  0.86304500  0.66230400  0.92118850  1
  Mo  Mo0_0  1  0.33334750  0.16669550  0.17349050  1
  Mo  Mo0_1  1  0.33334750  0.16669550  0.67349050  1
  Mo  Mo0_2  1  0.33334750  0.66669550  0.17349050  1
  Mo  Mo0_3  1  0.33334750  0.66669550  0.67349050  1
  Mo  Mo0_4  1  0.83334750  0.16669550  0.17349050  1
  Mo  Mo0_5  1  0.83334750  0.16669550  0.67349050  1
  Mo  Mo0_6  1  0.83334750  0.66669550  0.17349050  1
  Mo  Mo0_7  1  0.83334750  0.66669550  0.67349050  1
  W  W0_0  1  0.16664950  0.33329750  0.05777050  1
  W  W0_1  1  0.16664950  0.33329750  0.55777050  1
  W  W0_2  1  0.16664950  0.83329750  0.05777050  1
  W  W0_3  1  0.16664950  0.83329750  0.55777050  1
  W  W0_4  1  0.66664950  0.33329750  0.05777050  1
  W  W0_5  1  0.66664950  0.33329750  0.55777050  1
  W  W0_6  1  0.66664950  0.83329750  0.05777050  1
  W  W0_7  1  0.66664950  0.83329750  0.55777050  1
  W  W1_0  1  0.16665250  0.33330400  0.28921100  1
  W  W1_1  1  0.16665250  0.33330400  0.78921100  1
  W  W1_2  1  0.16665250  0.83330400  0.28921100  1
  W  W1_3  1  0.16665250  0.83330400  0.78921100  1
  W  W1_4  1  0.66665250  0.33330400  0.28921100  1
  W  W1_5  1  0.66665250  0.33330400  0.78921100  1
  W  W1_6  1  0.66665250  0.83330400  0.28921100  1
  W  W1_7  1  0.66665250  0.83330400  0.78921100  1
  Se  Se0_0  1  0.16668300  0.33336700  0.20212100  1
  Se  Se0_1  1  0.16668300  0.33336700  0.70212100  1
  Se  Se0_2  1  0.16668300  0.83336700  0.20212100  1
  Se  Se0_3  1  0.16668300  0.83336700  0.70212100  1
  Se  Se0_4  1  0.66668300  0.33336700  0.20212100  1
  Se  Se0_5  1  0.66668300  0.33336700  0.70212100  1
  Se  Se0_6  1  0.66668300  0.83336700  0.20212100  1
  Se  Se0_7  1  0.66668300  0.83336700  0.70212100  1
  Se  Se1_0  1  0.16667650  0.33335400  0.14486400  1
  Se  Se1_1  1  0.16667650  0.33335400  0.64486400  1
  Se  Se1_2  1  0.16667650  0.83335400  0.14486400  1
  Se  Se1_3  1  0.16667650  0.83335400  0.64486400  1
  Se  Se1_4  1  0.66667650  0.33335400  0.14486400  1
  Se  Se1_5  1  0.66667650  0.33335400  0.64486400  1
  Se  Se1_6  1  0.66667650  0.83335400  0.14486400  1
  Se  Se1_7  1  0.66667650  0.83335400  0.64486400  1
  S  S0_0  1  0.33331800  0.16663400  0.03164450  1
  S  S0_1  1  0.33331800  0.16663400  0.53164450  1
  S  S0_2  1  0.33331800  0.66663400  0.03164450  1
  S  S0_3  1  0.33331800  0.66663400  0.53164450  1
  S  S0_4  1  0.83331800  0.16663400  0.03164450  1
  S  S0_5  1  0.83331800  0.16663400  0.53164450  1
  S  S0_6  1  0.83331800  0.66663400  0.03164450  1
  S  S0_7  1  0.83331800  0.66663400  0.53164450  1
  S  S1_0  1  0.33331850  0.16663600  0.26308150  1
  S  S1_1  1  0.33331850  0.16663600  0.76308150  1
  S  S1_2  1  0.33331850  0.66663600  0.26308150  1
  S  S1_3  1  0.33331850  0.66663600  0.76308150  1
  S  S1_4  1  0.83331850  0.16663600  0.26308150  1
  S  S1_5  1  0.83331850  0.16663600  0.76308150  1
  S  S1_6  1  0.83331850  0.66663600  0.26308150  1
  S  S1_7  1  0.83331850  0.66663600  0.76308150  1
  S  S2_0  1  0.33331500  0.16662450  0.08391800  1
  S  S2_1  1  0.33331500  0.16662450  0.58391800  1
  S  S2_2  1  0.33331500  0.66662450  0.08391800  1
  S  S2_3  1  0.33331500  0.66662450  0.58391800  1
  S  S2_4  1  0.83331500  0.16662450  0.08391800  1
  S  S2_5  1  0.83331500  0.16662450  0.58391800  1
  S  S2_6  1  0.83331500  0.66662450  0.08391800  1
  S  S2_7  1  0.83331500  0.66662450  0.58391800  1
  S  S3_0  1  0.33332000  0.16663900  0.31532250  1
  S  S3_1  1  0.33332000  0.16663900  0.81532250  1
  S  S3_2  1  0.33332000  0.66663900  0.31532250  1
  S  S3_3  1  0.33332000  0.66663900  0.81532250  1
  S  S3_4  1  0.83332000  0.16663900  0.31532250  1
  S  S3_5  1  0.83332000  0.16663900  0.81532250  1
  S  S3_6  1  0.83332000  0.66663900  0.31532250  1
  S  S3_7  1  0.83332000  0.66663900  0.81532250  1
loop_
_geom_bond_atom_site_label_1
_geom_bond_atom_site_label_2
_geom_bond_distance
_geom_bond_site_symmetry_2
Mg0_0 Mg0_6 3.225607 1_445
Mg0_0 Mg0_6 3.225607 1_555
Mg0_0 Mg0_4 3.225623 1_455
Mg0_0 Mg0_4 3.225623 1_555
Mg0_0 Mg0_2 3.225631 1_545
Mg0_0 Mg0_2 3.225631 1_555
Mg0_1 Mg0_7 3.225607 1_445
Mg0_1 Mg0_7 3.225607 1_555
Mg0_1 Mg0_5 3.225623 1_455
Mg0_1 Mg0_5 3.225623 1_555
Mg0_1 Mg0_3 3.225631 1_555
Mg0_1 Mg0_3 3.225631 1_545
Mg0_2 Mg0_4 3.225607 1_565
Mg0_2 Mg0_4 3.225607 1_455
Mg0_2 Mg0_6 3.225623 1_455
Mg0_2 Mg0_6 3.225623 1_555
Mg0_3 Mg0_5 3.225607 1_565
Mg0_3 Mg0_5 3.225607 1_455
Mg0_3 Mg0_7 3.225623 1_555
Mg0_3 Mg0_7 3.225623 1_455
Mg0_4 Mg0_6 3.225631 1_555
Mg0_4 Mg0_6 3.225631 1_545
Mg0_5 Mg0_7 3.225631 1_545
Mg0_5 Mg0_7 3.225631 1_555
Mo0_0 Se1_4 2.526767 1_555
Mo0_0 Se1_0 2.526778 1_555
Mo0_0 Se1_2 2.526787 1_545
Mo0_0 Se0_4 2.526931 1_555
Mo0_0 Se0_2 2.526940 1_545
Mo0_0 Se0_0 2.526944 1_555
Mo0_1 Se1_5 2.526767 1_555
Mo0_1 Se1_1 2.526778 1_555
Mo0_1 Se1_3 2.526787 1_545
Mo0_1 Se0_5 2.526931 1_555
Mo0_1 Se0_3 2.526940 1_545
Mo0_1 Se0_1 2.526944 1_555
Mo0_2 Se1_6 2.526767 1_555
Mo0_2 Se1_2 2.526778 1_555
Mo0_2 Se1_0 2.526787 1_555
Mo0_2 Se0_6 2.526931 1_555
Mo0_2 Se0_0 2.526940 1_555
Mo0_2 Se0_2 2.526944 1_555
Mo0_3 Se1_7 2.526767 1_555
Mo0_3 Se1_3 2.526778 1_555
Mo0_3 Se1_1 2.526787 1_555
Mo0_3 Se0_7 2.526931 1_555
Mo0_3 Se0_1 2.526940 1_555
Mo0_3 Se0_3 2.526944 1_555
Mo0_4 Se1_0 2.526767 1_655
Mo0_4 Se1_4 2.526778 1_555
Mo0_4 Se1_6 2.526787 1_545
Mo0_4 Se0_0 2.526931 1_655
Mo0_4 Se0_6 2.526940 1_545
Mo0_4 Se0_4 2.526944 1_555
Mo0_5 Se1_1 2.526767 1_655
Mo0_5 Se1_5 2.526778 1_555
Mo0_5 Se1_7 2.526787 1_545
Mo0_5 Se0_1 2.526931 1_655
Mo0_5 Se0_7 2.526940 1_545
Mo0_5 Se0_5 2.526944 1_555
Mo0_6 Se1_2 2.526767 1_655
Mo0_6 Se1_6 2.526778 1_555
Mo0_6 Se1_4 2.526787 1_555
Mo0_6 Se0_2 2.526931 1_655
Mo0_6 Se0_4 2.526940 1_555
Mo0_6 Se0_6 2.526944 1_555
Mo0_7 Se1_3 2.526767 1_655
Mo0_7 Se1_7 2.526778 1_555
Mo0_7 Se1_5 2.526787 1_555
Mo0_7 Se0_3 2.526931 1_655
Mo0_7 Se0_5 2.526940 1_555
Mo0_7 Se0_7 2.526944 1_555
S0_0 W0_4 2.428425 1_555
S0_0 W0_0 2.428439 1_555
S0_0 W0_2 2.428483 1_545
S0_1 W0_5 2.428425 1_555
S0_1 W0_1 2.428439 1_555
S0_1 W0_3 2.428483 1_545
S0_2 W0_6 2.428425 1_555
S0_2 W0_2 2.428439 1_555
S0_2 W0_0 2.428483 1_555
S0_3 W0_7 2.428425 1_555
S0_3 W0_3 2.428439 1_555
S0_3 W0_1 2.428483 1_555
S0_4 W0_0 2.428425 1_655
S0_4 W0_4 2.428439 1_555
S0_4 W0_6 2.428483 1_545
S0_5 W0_1 2.428425 1_655
S0_5 W0_5 2.428439 1_555
S0_5 W0_7 2.428483 1_545
S0_6 W0_2 2.428425 1_655
S0_6 W0_6 2.428439 1_555
S0_6 W0_4 2.428483 1_555
S0_7 W0_3 2.428425 1_655
S0_7 W0_7 2.428439 1_555
S0_7 W0_5 2.428483 1_555
S1_0 W1_4 2.428570 1_555
S1_0 W1_0 2.428582 1_555
S1_0 W1_2 2.428598 1_545
S1_1 W1_5 2.428570 1_555
S1_1 W1_1 2.428582 1_555
S1_1 W1_3 2.428598 1_545
S1_2 W1_6 2.428570 1_555
S1_2 W1_2 2.428582 1_555
S1_2 W1_0 2.428598 1_555
S1_3 W1_7 2.428570 1_555
S1_3 W1_3 2.428582 1_555
S1_3 W1_1 2.428598 1_555
S1_4 W1_0 2.428570 1_655
S1_4 W1_4 2.428582 1_555
S1_4 W1_6 2.428598 1_545
S1_5 W1_1 2.428570 1_655
S1_5 W1_5 2.428582 1_555
S1_5 W1_7 2.428598 1_545
S1_6 W1_2 2.428570 1_655
S1_6 W1_6 2.428582 1_555
S1_6 W1_4 2.428598 1_555
S1_7 W1_3 2.428570 1_655
S1_7 W1_7 2.428582 1_555
S1_7 W1_5 2.428598 1_555
S2_0 W0_2 2.429222 1_545
S2_0 W0_4 2.429284 1_555
S2_0 W0_0 2.429311 1_555
S2_1 W0_3 2.429222 1_545
S2_1 W0_5 2.429284 1_555
S2_1 W0_1 2.429311 1_555
S2_2 W0_0 2.429222 1_555
S2_2 W0_6 2.429284 1_555
S2_2 W0_2 2.429311 1_555
S2_3 W0_1 2.429222 1_555
S2_3 W0_7 2.429284 1_555
S2_3 W0_3 2.429311 1_555
S2_4 W0_6 2.429222 1_545
S2_4 W0_0 2.429284 1_655
S2_4 W0_4 2.429311 1_555
S2_5 W0_7 2.429222 1_545
S2_5 W0_1 2.429284 1_655
S2_5 W0_5 2.429311 1_555
S2_6 W0_4 2.429222 1_555
S2_6 W0_2 2.429284 1_655
S2_6 W0_6 2.429311 1_555
S2_7 W0_5 2.429222 1_555
S2_7 W0_3 2.429284 1_655
S2_7 W0_7 2.429311 1_555
S3_0 W1_2 2.427878 1_545
S3_0 W1_4 2.427897 1_555
S3_0 W1_0 2.427906 1_555
S3_1 W1_3 2.427878 1_545
S3_1 W1_5 2.427897 1_555
S3_1 W1_1 2.427906 1_555
S3_2 W1_0 2.427878 1_555
S3_2 W1_6 2.427897 1_555
S3_2 W1_2 2.427906 1_555
S3_3 W1_1 2.427878 1_555
S3_3 W1_7 2.427897 1_555
S3_3 W1_3 2.427906 1_555
S3_4 W1_6 2.427878 1_545
S3_4 W1_0 2.427897 1_655
S3_4 W1_4 2.427906 1_555
S3_5 W1_7 2.427878 1_545
S3_5 W1_1 2.427897 1_655
S3_5 W1_5 2.427906 1_555
S3_6 W1_4 2.427878 1_555
S3_6 W1_2 2.427897 1_655
S3_6 W1_6 2.427906 1_555
S3_7 W1_5 2.427878 1_555
S3_7 W1_3 2.427897 1_655
S3_7 W1_7 2.427906 1_555
