# generated using pymatgen
data_MgMn4(O3F)2
_symmetry_space_group_name_H-M   'P 1'
_cell_length_a   5.36977299
_cell_length_b   5.80705118
_cell_length_c   5.80706895
_cell_angle_alpha   118.51564266
_cell_angle_beta   100.13517258
_cell_angle_gamma   79.86509380
_symmetry_Int_Tables_number   1
_chemical_formula_structural   MgMn4(O3F)2
_chemical_formula_sum   'Mg1 Mn4 O6 F2'
_cell_volume   155.74135359
_cell_formula_units_Z   1
loop_
 _symmetry_equiv_pos_site_id
 _symmetry_equiv_pos_as_xyz
  1  'x, y, z'
loop_
 _atom_site_type_symbol
 _atom_site_label
 _atom_site_symmetry_multiplicity
 _atom_site_fract_x
 _atom_site_fract_y
 _atom_site_fract_z
 _atom_site_occupancy
  Mg  Mg0  1  0.00000003  0.76381885  0.26381884  1
  Mn  Mn0  1  0.50000000  0.98887844  0.48887844  1
  Mn  Mn1  1  0.50000000  0.48292893  0.98292893  1
  Mn  Mn2  1  0.98938412  0.46702604  0.51230885  1
  Mn  Mn3  1  0.01061587  0.01230884  0.96702604  1
  O  O0  1  0.86989173  0.13147507  0.30167081  1
  O  O1  1  0.69339543  0.14091628  0.82551799  1
  O  O2  1  0.70039029  0.64139838  0.33191629  1
  O  O3  1  0.30660556  0.32551699  0.64091628  1
  O  O4  1  0.29960871  0.83191630  0.14139739  1
  O  O5  1  0.13010825  0.80167283  0.63147709  1
  F  F0  1  0.82590095  0.63859820  0.88068884  1
  F  F1  1  0.17409906  0.38068785  0.13859721  1
loop_
_geom_bond_atom_site_label_1
_geom_bond_atom_site_label_2
_geom_bond_distance
_geom_bond_site_symmetry_2
Mg0 O2 2.035916 1_455
Mg0 O4 2.035916 1_555
Mg0 O0 2.043445 1_465
Mg0 O5 2.043455 1_555
Mn0 O3 1.907823 1_565
Mn0 O1 1.907826 1_565
Mn0 O2 1.971115 1_555
Mn0 O4 1.971119 1_555
Mn1 O3 1.932190 1_555
Mn1 O1 1.932195 1_555
Mn1 O2 1.977919 1_556
Mn1 O4 1.977924 1_556
Mn2 O0 1.895486 1_555
Mn2 O3 1.944285 1_655
Mn2 O5 1.968530 1_655
Mn2 O2 2.102030 1_555
Mn3 O5 1.895485 1_545
Mn3 O1 1.944278 1_455
Mn3 O0 1.968532 1_456
Mn3 O4 2.102024 1_546
F0 Mg0 2.077325 1_656
F0 Mn2 2.158155 1_555
F0 Mn3 2.342741 1_665
F0 Mn1 2.380566 1_555
F1 Mg0 2.077329 1_555
F1 Mn3 2.158139 1_554
F1 Mn2 2.342756 1_455
F1 Mn1 2.380567 1_554
