# generated using pymatgen
data_USiRh
_symmetry_space_group_name_H-M   'P 1'
_cell_length_a   3.91736569
_cell_length_b   6.96775961
_cell_length_c   7.41739683
_cell_angle_alpha   89.98596304
_cell_angle_beta   90.00000000
_cell_angle_gamma   90.00000000
_symmetry_Int_Tables_number   1
_chemical_formula_structural   USiRh
_chemical_formula_sum   'U4 Si4 Rh4'
_cell_volume   202.45978691
_cell_formula_units_Z   4
loop_
 _symmetry_equiv_pos_site_id
 _symmetry_equiv_pos_as_xyz
  1  'x, y, z'
loop_
 _atom_site_type_symbol
 _atom_site_label
 _atom_site_symmetry_multiplicity
 _atom_site_fract_x
 _atom_site_fract_y
 _atom_site_fract_z
 _atom_site_occupancy
  U  U0  1  0.75000000  0.63761878  0.49899184  1
  U  U1  1  0.25000000  0.36238122  0.50100816  1
  U  U2  1  0.75000000  0.86197490  -0.00094118  1
  U  U3  1  0.25000000  0.13802510  0.00094118  1
  Si  Si0  1  0.75000000  0.12839083  0.69824100  1
  Si  Si1  1  0.25000000  0.87160917  0.30175900  1
  Si  Si2  1  0.75000000  0.37144051  0.19831045  1
  Si  Si3  1  0.25000000  0.62855949  0.80168955  1
  Rh  Rh0  1  0.25000000  0.56207800  0.13103644  1
  Rh  Rh1  1  0.75000000  0.43792200  0.86896356  1
  Rh  Rh2  1  0.25000000  0.93791992  0.63094458  1
  Rh  Rh3  1  0.75000000  0.06208008  0.36905542  1
loop_
_geom_bond_atom_site_label_1
_geom_bond_atom_site_label_2
_geom_bond_distance
_geom_bond_site_symmetry_2
U0 U1 2.741270 1_655
U0 U1 2.741270 1_555
U2 U3 2.745234 1_565
U2 U3 2.745234 1_665
Si0 U2 2.902161 1_546
Si0 U1 2.938311 1_555
Si0 U1 2.938311 1_655
Si0 U3 2.980294 1_656
Si0 U3 2.980294 1_556
Si1 U3 2.902161 1_565
Si1 U0 2.938311 1_555
Si1 U0 2.938311 1_455
Si1 U2 2.980294 1_555
Si1 U2 2.980294 1_455
Si2 U0 2.901023 1_555
Si2 U3 2.936992 1_655
Si2 U3 2.936992 1_555
Si2 U1 2.980169 1_655
Si2 U1 2.980169 1_555
Si3 U1 2.901023 1_555
Si3 U2 2.936992 1_556
Si3 U2 2.936992 1_456
Si3 U0 2.980169 1_555
Si3 U0 2.980169 1_455
Rh0 Si2 2.418582 1_555
Rh0 Si2 2.418582 1_455
Rh0 Si3 2.486316 1_554
Rh0 Si1 2.501283 1_555
Rh0 U2 3.026584 1_555
Rh0 U2 3.026584 1_455
Rh0 U1 3.076526 1_555
Rh0 U3 3.108505 1_555
Rh0 U0 3.400457 1_455
Rh0 U0 3.400457 1_555
Rh1 Si3 2.418582 1_655
Rh1 Si3 2.418582 1_555
Rh1 Si2 2.486316 1_556
Rh1 Si0 2.501283 1_555
Rh1 U3 3.026584 1_556
Rh1 U3 3.026584 1_656
Rh1 U0 3.076526 1_555
Rh1 U2 3.108505 1_556
Rh1 U1 3.400457 1_655
Rh1 U1 3.400457 1_555
Rh2 Si0 2.418113 1_465
Rh2 Si0 2.418113 1_565
Rh2 Si1 2.485142 1_555
Rh2 Si3 2.499807 1_555
Rh2 U0 3.028801 1_555
Rh2 U0 3.028801 1_455
Rh2 U3 3.078587 1_566
Rh2 U1 3.110396 1_565
Rh2 U2 3.401632 1_556
Rh2 U2 3.401632 1_456
Rh3 Si1 2.418113 1_545
Rh3 Si1 2.418113 1_645
Rh3 Si0 2.485142 1_555
Rh3 Si2 2.499807 1_555
Rh3 U1 3.028801 1_555
Rh3 U1 3.028801 1_655
Rh3 U2 3.078587 1_545
Rh3 U0 3.110396 1_545
Rh3 U3 3.401632 1_555
Rh3 U3 3.401632 1_655
