# generated using pymatgen
data_Na2Ca2Ti6Si3(S3O16)3
_symmetry_space_group_name_H-M   'P 1'
_cell_length_a   17.57506670
_cell_length_b   8.76504262
_cell_length_c   22.88366571
_cell_angle_alpha   90.04509163
_cell_angle_beta   89.73931996
_cell_angle_gamma   119.92077766
_symmetry_Int_Tables_number   1
_chemical_formula_structural   Na2Ca2Ti6Si3(S3O16)3
_chemical_formula_sum   'Na6 Ca6 Ti18 Si9 S27 O144'
_cell_volume   3055.26055617
_cell_formula_units_Z   3
loop_
 _symmetry_equiv_pos_site_id
 _symmetry_equiv_pos_as_xyz
  1  'x, y, z'
loop_
 _atom_site_type_symbol
 _atom_site_label
 _atom_site_symmetry_multiplicity
 _atom_site_fract_x
 _atom_site_fract_y
 _atom_site_fract_z
 _atom_site_occupancy
  Na  Na0  1  0.00127725  0.99443085  0.49668991  1
  Na  Na1  1  0.50018319  0.00677268  0.99837201  1
  Na  Na2  1  0.33403996  0.33139701  0.83678178  1
  Na  Na3  1  0.83449676  0.33432837  0.83366703  1
  Na  Na4  1  0.32925971  0.32863249  0.33234493  1
  Na  Na5  1  0.83497494  0.33799993  0.33469477  1
  Ca  Ca0  1  0.00320141  0.99660521  0.35339167  1
  Ca  Ca1  1  0.49957216  0.00546729  0.85434155  1
  Ca  Ca2  1  0.99886435  0.00348464  0.65043823  1
  Ca  Ca3  1  0.49887809  0.99289586  0.15026392  1
  Ca  Ca4  1  0.83720274  0.33554204  0.97936159  1
  Ca  Ca5  1  0.33752486  0.33807237  0.47912140  1
  Ti  Ti0  1  0.51373881  0.01454256  0.35543651  1
  Ti  Ti1  1  0.01477889  0.01335670  0.85643756  1
  Ti  Ti2  1  0.50543502  0.00176149  0.64201639  1
  Ti  Ti3  1  0.01332570  0.00696720  0.14498991  1
  Ti  Ti4  1  0.32298053  0.32546150  0.68721590  1
  Ti  Ti5  1  0.83130557  0.31746435  0.68163748  1
  Ti  Ti6  1  0.32538966  0.33978869  0.18596369  1
  Ti  Ti7  1  0.82559551  0.31519642  0.18752504  1
  Ti  Ti8  1  0.32442701  0.31886567  0.97583885  1
  Ti  Ti9  1  0.82467640  0.33137205  0.47445981  1
  Ti  Ti10  1  0.16450376  0.67194616  0.02515639  1
  Ti  Ti11  1  0.66147968  0.65408349  0.02373338  1
  Ti  Ti12  1  0.16457729  0.67019310  0.51764473  1
  Ti  Ti13  1  0.66429519  0.66064322  0.52210804  1
  Ti  Ti14  1  0.15663889  0.66949032  0.31020525  1
  Ti  Ti15  1  0.66985228  0.66102070  0.30922885  1
  Ti  Ti16  1  0.16847144  0.67486683  0.81107626  1
  Ti  Ti17  1  0.65942385  0.65599493  0.81584047  1
  Si  Si0  1  0.14881641  0.00335840  0.24954737  1
  Si  Si1  1  0.64653085  0.99314087  0.25046491  1
  Si  Si2  1  0.14617861  0.29963080  0.75065565  1
  Si  Si3  1  0.69060202  0.04148064  0.58061620  1
  Si  Si4  1  0.19025873  0.33943194  0.08109813  1
  Si  Si5  1  0.51962772  0.38058634  0.92076719  1
  Si  Si6  1  0.16649795  0.94546541  0.91743760  1
  Si  Si7  1  0.66525274  0.38574199  0.41663291  1
  Si  Si8  1  0.01919437  0.66000972  0.41899205  1
  S  S0  1  0.35094445  0.70439615  0.25396463  1
  S  S1  1  0.85270212  0.70199851  0.24651021  1
  S  S2  1  0.99870688  0.29414832  0.24732835  1
  S  S3  1  0.49916292  0.29534913  0.25303693  1
  S  S4  1  0.64984493  0.29748323  0.74733933  1
  S  S5  1  0.99834433  0.70110034  0.75308933  1
  S  S6  1  0.49958999  0.70214027  0.74709216  1
  S  S7  1  0.35323695  0.00230598  0.74649395  1
  S  S8  1  0.84972945  0.99813174  0.75345703  1
  S  S9  1  0.48013144  0.33229226  0.58650769  1
  S  S10  1  0.97689334  0.34035402  0.57930613  1
  S  S11  1  0.18866520  0.03594211  0.58223041  1
  S  S12  1  0.33339922  0.62925036  0.58634937  1
  S  S13  1  0.83007001  0.61279436  0.58028382  1
  S  S14  1  0.47596857  0.61303454  0.07974348  1
  S  S15  1  0.97917119  0.62693275  0.08572421  1
  S  S16  1  0.33094710  0.04825301  0.08021973  1
  S  S17  1  0.83390765  0.03556141  0.08553059  1
  S  S18  1  0.68880694  0.33901083  0.08261384  1
  S  S19  1  0.30535390  0.66137308  0.91952661  1
  S  S20  1  0.80970980  0.67574694  0.91400160  1
  S  S21  1  0.02753793  0.38208472  0.91398528  1
  S  S22  1  0.66725773  0.94405193  0.91741854  1
  S  S23  1  0.30975619  0.94373810  0.41322997  1
  S  S24  1  0.80567098  0.95002670  0.41946690  1
  S  S25  1  0.16699189  0.38946842  0.41656347  1
  S  S26  1  0.52792856  0.67318520  0.41372250  1
  O  O0  1  0.12053739  0.05945409  0.30665786  1
  O  O1  1  0.59942118  0.03432587  0.30796212  1
  O  O2  1  0.41051064  0.79072831  0.30382847  1
  O  O3  1  0.90187774  0.76196660  0.30057452  1
  O  O4  1  0.48425765  0.17785958  0.30433346  1
  O  O5  1  0.97614004  0.19260597  0.30074252  1
  O  O6  1  0.09952706  0.16465616  0.80807477  1
  O  O7  1  0.61821690  0.19238876  0.80019694  1
  O  O8  1  0.47969803  0.76587151  0.80038735  1
  O  O9  1  0.98302269  0.78839636  0.80426549  1
  O  O10  1  0.40357203  0.04344920  0.80020830  1
  O  O11  1  0.90852070  0.03263846  0.80341686  1
  O  O12  1  0.39768298  0.97566486  0.69620195  1
  O  O13  1  0.88022903  0.96239759  0.69911818  1
  O  O14  1  0.09428748  0.23335493  0.69253519  1
  O  O15  1  0.59158322  0.20929176  0.69669437  1
  O  O16  1  0.01705857  0.80111675  0.69963215  1
  O  O17  1  0.51344190  0.81997324  0.69627858  1
  O  O18  1  0.38108489  0.80041891  0.19969834  1
  O  O19  1  0.89453076  0.81725968  0.19603957  1
  O  O20  1  0.01170072  0.20594721  0.19613018  1
  O  O21  1  0.51834164  0.23273717  0.19972340  1
  O  O22  1  0.08359523  0.97284081  0.19282380  1
  O  O23  1  0.59439818  0.95491797  0.19259557  1
  O  O24  1  0.43651465  0.36033726  0.63706531  1
  O  O25  1  0.93526398  0.36376047  0.63541579  1
  O  O26  1  0.24418316  0.12947612  0.63583479  1
  O  O27  1  0.75351128  0.14141927  0.63940375  1
  O  O28  1  0.32007179  0.51033692  0.63762672  1
  O  O29  1  0.81937639  0.50655444  0.63433149  1
  O  O30  1  0.43958722  0.51075660  0.13434287  1
  O  O31  1  0.93646501  0.51220253  0.13642096  1
  O  O32  1  0.31919477  0.12880720  0.13357966  1
  O  O33  1  0.81822968  0.12942612  0.13689350  1
  O  O34  1  0.25299847  0.36908248  0.13914796  1
  O  O35  1  0.74366715  0.36130251  0.13538128  1
  O  O36  1  0.23904656  0.30530378  0.02623743  1
  O  O37  1  0.72717907  0.31269274  0.03016515  1
  O  O38  1  0.42185473  0.52061162  0.02866118  1
  O  O39  1  0.93024880  0.56377960  0.03197193  1
  O  O40  1  0.34204895  0.15632072  0.02726716  1
  O  O41  1  0.85318570  0.14289027  0.03366054  1
  O  O42  1  0.22824458  0.14357306  0.53114074  1
  O  O43  1  0.73801075  0.17336523  0.52676565  1
  O  O44  1  0.35589560  0.56718874  0.53421003  1
  O  O45  1  0.84226833  0.52715943  0.52806250  1
  O  O46  1  0.42983901  0.29002659  0.53322540  1
  O  O47  1  0.92070415  0.32139955  0.52968948  1
  O  O48  1  0.26037105  0.68091094  0.97147058  1
  O  O49  1  0.76985008  0.69696284  0.96806633  1
  O  O50  1  0.07658757  0.45564306  0.96859467  1
  O  O51  1  0.58797338  0.49545568  0.97508829  1
  O  O52  1  0.15235910  0.82378519  0.97450841  1
  O  O53  1  0.66270796  0.84404786  0.97070277  1
  O  O54  1  0.26902087  0.84228906  0.46889518  1
  O  O55  1  0.75924228  0.83987025  0.47188877  1
  O  O56  1  0.16408092  0.48522380  0.47181018  1
  O  O57  1  0.65230049  0.48067215  0.47450143  1
  O  O58  1  0.08707161  0.68118733  0.47459003  1
  O  O59  1  0.57736600  0.69730065  0.46913511  1
  O  O60  1  0.06901998  0.63572999  0.36035441  1
  O  O61  1  0.57312252  0.65129710  0.36307949  1
  O  O62  1  0.25215256  0.85351756  0.36245438  1
  O  O63  1  0.75574987  0.87352621  0.36557944  1
  O  O64  1  0.17492934  0.49196607  0.36375862  1
  O  O65  1  0.68181483  0.50773377  0.35952149  1
  O  O66  1  0.07279184  0.49398704  0.86275789  1
  O  O67  1  0.57128274  0.50395997  0.86071820  1
  O  O68  1  0.18181816  0.85635457  0.85934174  1
  O  O69  1  0.67480476  0.85609498  0.86262552  1
  O  O70  1  0.25582170  0.63906197  0.86501076  1
  O  O71  1  0.75111232  0.65027695  0.86181103  1
  O  O72  1  0.01135921  0.83072988  0.42276085  1
  O  O73  1  0.51828250  0.83240010  0.40678032  1
  O  O74  1  0.39590746  0.95581347  0.40612324  1
  O  O75  1  0.89298109  0.97142088  0.41817069  1
  O  O76  1  0.08577722  0.22063672  0.41892276  1
  O  O77  1  0.57805873  0.19107819  0.40529065  1
  O  O78  1  0.01745412  0.20295374  0.90586791  1
  O  O79  1  0.51524808  0.19662227  0.92066845  1
  O  O80  1  0.07898623  0.96562723  0.90527860  1
  O  O81  1  0.58713743  0.95478711  0.91527840  1
  O  O82  1  0.39322551  0.81493435  0.91688535  1
  O  O83  1  0.89562572  0.83469703  0.90436605  1
  O  O84  1  0.49298123  0.17699039  0.59964896  1
  O  O85  1  0.98475689  0.18310573  0.58362989  1
  O  O86  1  0.09988604  0.00659918  0.58920178  1
  O  O87  1  0.59441602  0.02268753  0.59887967  1
  O  O88  1  0.41136829  0.80728627  0.60071229  1
  O  O89  1  0.90688279  0.78774891  0.58442169  1
  O  O90  1  0.48683684  0.78921482  0.08160610  1
  O  O91  1  0.99025539  0.80548870  0.09631499  1
  O  O92  1  0.40720916  0.02462878  0.08284516  1
  O  O93  1  0.90906336  0.01243750  0.10046139  1
  O  O94  1  0.09355033  0.16775734  0.09584864  1
  O  O95  1  0.59921435  0.19315756  0.08857840  1
  O  O96  1  0.34104644  0.15903835  0.73523719  1
  O  O97  1  0.84268103  0.16562482  0.74494433  1
  O  O98  1  0.24645053  0.31641313  0.74107947  1
  O  O99  1  0.74035062  0.32424331  0.73546134  1
  O  O100  1  0.42344296  0.52212353  0.73494238  1
  O  O101  1  0.91911904  0.52239493  0.74681554  1
  O  O102  1  0.34537071  0.52491419  0.24650784  1
  O  O103  1  0.83980424  0.52062722  0.23505294  1
  O  O104  1  0.42142004  0.31807408  0.24741476  1
  O  O105  1  0.92284172  0.32584844  0.23488083  1
  O  O106  1  0.24865658  0.16745177  0.23210146  1
  O  O107  1  0.74659613  0.17603280  0.24153859  1
  O  O108  1  0.31279831  0.49885987  0.92459238  1
  O  O109  1  0.81730985  0.51627403  0.91508482  1
  O  O110  1  0.42591780  0.37523488  0.92649951  1
  O  O111  1  0.93980659  0.36233923  0.91552220  1
  O  O112  1  0.25120133  0.14390729  0.92466452  1
  O  O113  1  0.74653499  0.11825562  0.91678149  1
  O  O114  1  0.31863604  0.11873050  0.41708544  1
  O  O115  1  0.81222206  0.12664844  0.42556291  1
  O  O116  1  0.24568901  0.37238193  0.41932129  1
  O  O117  1  0.75048978  0.35804514  0.42473347  1
  O  O118  1  0.44052585  0.51765885  0.41668788  1
  O  O119  1  0.92520643  0.47638713  0.42776579  1
  O  O120  1  0.17751893  0.50795400  0.06824805  1
  O  O121  1  0.68628587  0.50879619  0.07683945  1
  O  O122  1  0.06820514  0.64477756  0.07835284  1
  O  O123  1  0.56707456  0.63513871  0.07262844  1
  O  O124  1  0.24979599  0.87100502  0.07322756  1
  O  O125  1  0.75320848  0.86340805  0.07807166  1
  O  O126  1  0.18716811  0.86447889  0.57736623  1
  O  O127  1  0.67623260  0.84663346  0.56966378  1
  O  O128  1  0.25570808  0.64750740  0.57961106  1
  O  O129  1  0.74923585  0.62627758  0.57415257  1
  O  O130  1  0.06520218  0.50005029  0.57454055  1
  O  O131  1  0.56831043  0.49061562  0.57871927  1
  O  O132  1  0.15854246  0.82621925  0.25866908  1
  O  O133  1  0.66500968  0.83665909  0.27100841  1
  O  O134  1  0.26144083  0.67125315  0.26661502  1
  O  O135  1  0.76376648  0.68282733  0.25466355  1
  O  O136  1  0.07927351  0.46921579  0.25408721  1
  O  O137  1  0.57747931  0.47409919  0.26481942  1
  O  O138  1  0.16536888  0.49390927  0.77070416  1
  O  O139  1  0.65831873  0.47396321  0.75560305  1
  O  O140  1  0.07583096  0.67727682  0.76484310  1
  O  O141  1  0.58039196  0.68846196  0.75460596  1
  O  O142  1  0.26504390  0.84466280  0.75388714  1
  O  O143  1  0.76039865  0.84929351  0.76576658  1
loop_
_geom_bond_atom_site_label_1
_geom_bond_atom_site_label_2
_geom_bond_distance
_geom_bond_site_symmetry_2
Na0 O72 2.280207 1_555
Na0 O76 2.519453 1_565
Na0 O75 2.557224 1_455
Na0 O89 2.653647 1_455
Na0 O85 2.691816 1_465
Na0 O86 2.710208 1_565
Na1 O79 2.358340 1_555
Na1 O92 2.580144 1_556
Na1 O82 2.590720 1_545
Na1 O81 2.612589 1_545
Na1 O90 2.621950 1_546
Na1 O95 2.673970 1_556
Na2 O110 2.525894 1_555
Na2 O112 2.540950 1_555
Na2 O108 2.620469 1_555
Na2 O98 2.647960 1_555
Na2 O96 2.806166 1_555
Na2 O100 2.836716 1_555
Na3 O101 2.532148 1_555
Na3 O97 2.556198 1_555
Na3 O111 2.563595 1_555
Na3 O109 2.564478 1_555
Na3 O113 2.579203 1_555
Na3 O99 2.771929 1_555
Na4 O102 2.532320 1_555
Na4 O104 2.555372 1_555
Na4 O116 2.607646 1_555
Na4 O114 2.615292 1_555
Na4 O118 2.662971 1_555
Na4 O106 2.700509 1_555
Na5 O119 2.574865 1_555
Na5 O117 2.590899 1_555
Na5 O107 2.607292 1_555
Na5 O115 2.678629 1_555
Na5 O103 2.763545 1_555
Na5 O105 2.782958 1_555
Ca0 O0 2.132454 1_565
Ca0 O72 2.206344 1_555
Ca0 O3 2.285549 1_455
Ca0 O76 2.320148 1_565
Ca0 O5 2.335104 1_465
Ca0 O75 2.355092 1_455
Ca1 O79 2.173976 1_555
Ca1 O10 2.252124 1_555
Ca1 O7 2.266941 1_555
Ca1 O82 2.279539 1_545
Ca1 O81 2.283145 1_545
Ca1 O8 2.307545 1_545
Ca2 O14 2.107326 1_655
Ca2 O13 2.224494 1_545
Ca2 O86 2.246278 1_655
Ca2 O16 2.255663 1_645
Ca2 O85 2.296543 1_555
Ca2 O89 2.332248 1_545
Ca3 O23 2.107193 1_555
Ca3 O18 2.215668 1_555
Ca3 O95 2.253142 1_565
Ca3 O21 2.258258 1_565
Ca3 O90 2.306985 1_555
Ca3 O92 2.350210 1_565
Ca4 O37 2.173556 1_556
Ca4 O39 2.208208 1_556
Ca4 O41 2.225737 1_556
Ca4 O111 2.234984 1_555
Ca4 O113 2.281695 1_555
Ca4 O109 2.314315 1_555
Ca5 O42 2.174417 1_555
Ca5 O118 2.221102 1_555
Ca5 O46 2.245708 1_555
Ca5 O116 2.252355 1_555
Ca5 O44 2.253718 1_555
Ca5 O114 2.277049 1_555
O0 Si0 1.560002 1_555
O1 Si1 1.683603 1_545
O1 Ti0 1.789658 1_555
O2 S0 1.479805 1_555
O2 Ti0 2.236051 1_565
O3 S1 1.452373 1_555
O4 S3 1.495669 1_555
O4 Ti0 2.105522 1_555
O5 S2 1.445213 1_555
O6 Si2 1.680278 1_555
O6 Ti1 1.794094 1_555
O7 S4 1.451004 1_555
O8 S6 1.453111 1_555
O9 S5 1.493555 1_555
O9 Ti1 2.128218 1_665
O10 S7 1.454121 1_555
O11 S8 1.471257 1_545
O11 Ti1 2.307383 1_655
O12 S7 1.470566 1_565
O12 Ti2 2.173261 1_565
O13 S8 1.446536 1_555
O14 Si2 1.555446 1_555
O15 S4 1.486246 1_555
O15 Ti2 2.105452 1_555
O16 S5 1.443443 1_455
O17 S6 1.492164 1_555
O17 Ti2 2.080606 1_565
O18 S0 1.442898 1_555
O19 S1 1.465671 1_555
O19 Ti3 2.237446 1_665
O20 S2 1.481462 1_455
O20 Ti3 2.111471 1_555
O21 S3 1.443245 1_555
O22 Si0 1.666586 1_565
O22 Ti3 1.787232 1_565
O23 Si1 1.552262 1_555
O24 S9 1.471746 1_555
O24 Ti4 2.182479 1_555
O25 S10 1.538443 1_555
O25 Ti5 1.965988 1_555
O26 S11 1.529762 1_555
O26 Ti4 1.972214 1_555
O27 Si3 1.686716 1_555
O27 Ti5 1.757668 1_555
O28 S12 1.507975 1_555
O28 Ti4 2.000559 1_555
O29 S13 1.502416 1_555
O29 Ti5 2.077087 1_555
O30 S14 1.481973 1_555
O30 Ti6 2.156387 1_555
O31 S15 1.470186 1_555
O31 Ti7 2.184484 1_555
O32 S16 1.474460 1_555
O32 Ti6 2.159963 1_555
O33 S17 1.534922 1_555
O33 Ti7 1.949004 1_555
O34 Si4 1.665810 1_555
O34 Ti6 1.780748 1_555
O35 S18 1.499392 1_555
O35 Ti7 2.063330 1_555
O36 Si4 1.626732 1_555
O36 Ti8 1.844577 1_554
O37 S18 1.447735 1_555
O38 S14 1.472151 1_555
O38 Ti8 2.124820 1_554
O39 S15 1.446533 1_555
O40 S16 1.489600 1_555
O40 Ti8 1.989193 1_554
O41 S17 1.445279 1_555
O42 S11 1.442350 1_555
O43 Si3 1.606584 1_555
O43 Ti9 1.884765 1_555
O44 S12 1.443971 1_555
O45 S13 1.481284 1_555
O45 Ti9 2.003991 1_555
O46 S9 1.444859 1_555
O47 S10 1.462261 1_555
O47 Ti9 2.149427 1_555
O48 S19 1.481034 1_555
O48 Ti10 2.050244 1_556
O49 S20 1.475705 1_555
O49 Ti11 2.157804 1_556
O50 S21 1.474635 1_555
O50 Ti10 2.179252 1_556
O51 Si5 1.675376 1_555
O51 Ti11 1.749292 1_556
O52 Si6 1.624715 1_555
O52 Ti10 1.856922 1_556
O53 S22 1.480667 1_555
O53 Ti11 2.052461 1_556
O54 S23 1.511380 1_555
O54 Ti12 2.027575 1_555
O55 S24 1.498023 1_555
O55 Ti13 1.985777 1_555
O56 S25 1.531646 1_555
O56 Ti12 1.926650 1_555
O57 Si7 1.637759 1_555
O57 Ti13 1.840453 1_555
O58 Si8 1.693759 1_555
O58 Ti12 1.725924 1_555
O59 S26 1.494634 1_555
O59 Ti13 2.100953 1_555
O60 Si8 1.669561 1_555
O60 Ti14 1.818166 1_555
O61 S26 1.467663 1_555
O61 Ti15 2.062158 1_555
O62 S23 1.486927 1_555
O62 Ti14 2.040416 1_555
O63 S24 1.470264 1_555
O63 Ti15 2.149419 1_555
O64 S25 1.470333 1_555
O64 Ti14 2.128829 1_555
O65 Si7 1.619978 1_555
O65 Ti15 1.860197 1_555
O66 S21 1.477806 1_555
O66 Ti16 2.016231 1_555
O67 Si5 1.701009 1_555
O67 Ti17 1.777204 1_555
O68 Si6 1.629383 1_555
O68 Ti16 1.852767 1_555
O69 S22 1.510996 1_555
O69 Ti17 1.955020 1_555
O70 S19 1.480556 1_555
O70 Ti16 2.115909 1_555
O71 S20 1.522574 1_555
O71 Ti17 1.949859 1_555
O72 Si8 1.571869 1_555
O73 S26 1.496021 1_555
O73 Ti0 2.016583 1_565
O74 S23 1.472449 1_555
O74 Ti0 2.194211 1_565
O75 S24 1.450246 1_555
O76 S25 1.456837 1_555
O77 Si7 1.649686 1_555
O77 Ti0 1.799347 1_555
O78 S21 1.501116 1_555
O78 Ti1 1.990716 1_555
O79 Si5 1.575472 1_555
O80 Si6 1.658097 1_555
O80 Ti1 1.783466 1_565
O81 S22 1.458378 1_555
O82 S19 1.458052 1_555
O83 S20 1.472568 1_555
O83 Ti1 2.179647 1_665
O84 S9 1.517338 1_555
O84 Ti2 1.920019 1_555
O85 S10 1.455655 1_555
O86 S11 1.457257 1_555
O87 Si3 1.665952 1_555
O87 Ti2 1.775885 1_555
O88 S12 1.513596 1_555
O88 Ti2 1.931974 1_565
O89 S13 1.455582 1_555
O90 S14 1.458991 1_555
O91 S15 1.497248 1_555
O91 Ti3 1.952030 1_665
O92 S16 1.456208 1_555
O93 S17 1.474381 1_555
O93 Ti3 2.122046 1_655
O94 Si4 1.646563 1_555
O94 Ti3 1.801248 1_555
O95 S18 1.456872 1_555
O96 S7 1.514653 1_555
O96 Ti4 1.975845 1_555
O97 S8 1.546176 1_545
O97 Ti5 2.044757 1_555
O98 Si2 1.706821 1_555
O98 Ti4 1.792571 1_555
O99 S4 1.510964 1_555
O99 Ti5 2.037802 1_555
O100 S6 1.501357 1_555
O100 Ti4 2.063964 1_555
O101 S5 1.496179 1_555
O101 Ti5 2.254796 1_555
O102 S0 1.536086 1_555
O102 Ti6 2.026876 1_555
O103 S1 1.512529 1_555
O103 Ti7 2.009546 1_555
O104 S3 1.481973 1_555
O104 Ti6 2.281368 1_555
O105 S2 1.519633 1_555
O105 Ti7 1.990383 1_555
O106 Si0 1.668481 1_555
O106 Ti6 1.781145 1_555
O107 Si1 1.699752 1_545
O107 Ti7 1.800161 1_555
O108 S19 1.498630 1_555
O108 Ti8 2.057369 1_555
O109 S20 1.469219 1_555
O110 Si5 1.628759 1_555
O110 Ti8 1.950355 1_555
O111 S21 1.463523 1_655
O112 Si6 1.639360 1_545
O112 Ti8 1.849687 1_555
O113 S22 1.466440 1_545
O114 S23 1.464870 1_545
O115 S24 1.500438 1_545
O115 Ti9 2.031524 1_555
O116 S25 1.465213 1_555
O117 Si7 1.644031 1_555
O117 Ti9 1.835081 1_555
O118 S26 1.460388 1_555
O119 Si8 1.644550 1_655
O119 Ti9 1.903580 1_555
O120 Si4 1.627776 1_555
O120 Ti10 1.850165 1_555
O121 S18 1.516652 1_555
O121 Ti11 1.962070 1_555
O122 S15 1.501641 1_455
O122 Ti10 1.995657 1_555
O123 S14 1.521863 1_555
O123 Ti11 1.934147 1_555
O124 S16 1.504857 1_565
O124 Ti10 1.975895 1_555
O125 S17 1.477965 1_565
O125 Ti11 2.139003 1_555
O126 S11 1.494006 1_565
O126 Ti12 2.062058 1_555
O127 Si3 1.616464 1_565
O127 Ti13 1.882546 1_555
O128 S12 1.460721 1_555
O128 Ti12 2.225836 1_555
O129 S13 1.490395 1_555
O129 Ti13 2.050131 1_555
O130 S10 1.487091 1_455
O130 Ti12 2.086507 1_555
O131 S9 1.487164 1_555
O131 Ti13 2.054297 1_555
O132 Si0 1.658028 1_565
O132 Ti14 1.798735 1_555
O133 Si1 1.629250 1_555
O133 Ti15 1.809892 1_555
O134 S0 1.477410 1_555
O134 Ti14 2.083931 1_555
O135 S1 1.497180 1_555
O135 Ti15 1.996717 1_555
O136 S2 1.489144 1_455
O136 Ti14 2.051980 1_555
O137 S3 1.507749 1_555
O137 Ti15 1.926549 1_555
O138 Si2 1.628248 1_555
O138 Ti16 1.812204 1_555
O139 S4 1.490194 1_555
O139 Ti17 2.100487 1_555
O140 S5 1.502547 1_455
O140 Ti16 1.954664 1_555
O141 S6 1.494231 1_555
O141 Ti17 2.094397 1_555
O142 S7 1.483831 1_565
O142 Ti16 2.066704 1_555
O143 S8 1.483048 1_555
O143 Ti17 2.077970 1_555
