# generated using pymatgen
data_Na10Mg3Si6Sn5(SO8)6
_symmetry_space_group_name_H-M   'P 1'
_cell_length_a   17.95828370
_cell_length_b   9.01026956
_cell_length_c   22.50058527
_cell_angle_alpha   89.70903527
_cell_angle_beta   89.71813892
_cell_angle_gamma   119.89612512
_symmetry_Int_Tables_number   1
_chemical_formula_structural   Na10Mg3Si6Sn5(SO8)6
_chemical_formula_sum   'Na30 Mg9 Si18 Sn15 S18 O144'
_cell_volume   3156.16027758
_cell_formula_units_Z   3
loop_
 _symmetry_equiv_pos_site_id
 _symmetry_equiv_pos_as_xyz
  1  'x, y, z'
loop_
 _atom_site_type_symbol
 _atom_site_label
 _atom_site_symmetry_multiplicity
 _atom_site_fract_x
 _atom_site_fract_y
 _atom_site_fract_z
 _atom_site_occupancy
  Na  Na0  1  0.31923760  0.99967784  0.24275402  1
  Na  Na1  1  0.19630757  0.37195500  0.24432924  1
  Na  Na2  1  0.69080854  0.37216810  0.24238349  1
  Na  Na3  1  0.99928946  0.64393347  0.25046174  1
  Na  Na4  1  0.31632037  0.61833947  0.75781860  1
  Na  Na5  1  0.81762288  0.62603328  0.74787320  1
  Na  Na6  1  0.99280350  0.35527084  0.75277811  1
  Na  Na7  1  0.49795849  0.37832944  0.73961991  1
  Na  Na8  1  0.18177135  0.01194809  0.74828960  1
  Na  Na9  1  0.68710481  0.01444128  0.74973404  1
  Na  Na10  1  0.64675383  0.34311258  0.57440929  1
  Na  Na11  1  0.32473997  0.68983102  0.07620791  1
  Na  Na12  1  0.82559545  0.68744809  0.08893012  1
  Na  Na13  1  0.16424218  0.31999784  0.92495566  1
  Na  Na14  1  0.99390278  0.31043825  0.42132657  1
  Na  Na15  1  0.16408123  0.02515388  0.42043914  1
  Na  Na16  1  0.66564803  0.03074337  0.41165783  1
  Na  Na17  1  0.84115406  0.66650851  0.41844925  1
  Na  Na18  1  0.00127647  0.00026864  0.49957088  1
  Na  Na19  1  0.49093438  0.01931933  0.49446308  1
  Na  Na20  1  0.00685533  0.02642778  0.00104157  1
  Na  Na21  1  0.50396400  0.03153628  0.99631278  1
  Na  Na22  1  0.34760018  0.36392909  0.83520067  1
  Na  Na23  1  0.83866329  0.33269074  0.82885888  1
  Na  Na24  1  0.34002208  0.36959578  0.32719112  1
  Na  Na25  1  0.83195695  0.33354124  0.33182697  1
  Na  Na26  1  0.16814507  0.66214890  0.15842594  1
  Na  Na27  1  0.66214929  0.66288937  0.15996233  1
  Na  Na28  1  0.16065010  0.65619606  0.66238909  1
  Na  Na29  1  0.65556941  0.66399334  0.66106571  1
  Mg  Mg0  1  0.49847489  0.00091767  0.35322647  1
  Mg  Mg1  1  0.33817973  0.34944652  0.68441437  1
  Mg  Mg2  1  0.83645119  0.33648353  0.68997709  1
  Mg  Mg3  1  0.33185038  0.34336764  0.18664861  1
  Mg  Mg4  1  0.83087666  0.33524398  0.18354207  1
  Mg  Mg5  1  0.16254320  0.63926722  0.01547244  1
  Mg  Mg6  1  0.65766341  0.63965261  0.01872433  1
  Mg  Mg7  1  0.16445263  0.65856300  0.51586849  1
  Mg  Mg8  1  0.66188955  0.65153593  0.51635429  1
  Si  Si0  1  0.15087217  0.99856152  0.25256178  1
  Si  Si1  1  0.35868242  0.71293731  0.25213639  1
  Si  Si2  1  0.85242078  0.70633386  0.24851575  1
  Si  Si3  1  0.14840076  0.29746527  0.74972991  1
  Si  Si4  1  0.64596465  0.29216211  0.74971582  1
  Si  Si5  1  0.00392135  0.71248816  0.75225118  1
  Si  Si6  1  0.49848841  0.71451588  0.74898667  1
  Si  Si7  1  0.85148706  0.99445349  0.75000614  1
  Si  Si8  1  0.48137162  0.33639216  0.58751920  1
  Si  Si9  1  0.18396463  0.33062143  0.08632682  1
  Si  Si10  1  0.68407902  0.33260892  0.08767363  1
  Si  Si11  1  0.31571071  0.67338683  0.92002443  1
  Si  Si12  1  0.01052865  0.35811700  0.91783026  1
  Si  Si13  1  0.51636341  0.36838511  0.91695327  1
  Si  Si14  1  0.81095840  0.95588803  0.41965522  1
  Si  Si15  1  0.17109871  0.37454173  0.41813996  1
  Si  Si16  1  0.66051852  0.36041788  0.41965605  1
  Si  Si17  1  0.02541487  0.66893275  0.41842773  1
  Sn  Sn0  1  0.00150819  0.99620779  0.35342375  1
  Sn  Sn1  1  0.99885072  0.00606121  0.84986938  1
  Sn  Sn2  1  0.50106508  0.99865612  0.85554741  1
  Sn  Sn3  1  0.00116365  0.00109243  0.65374140  1
  Sn  Sn4  1  0.50061191  0.00981565  0.64747469  1
  Sn  Sn5  1  0.00564962  0.99515143  0.14867802  1
  Sn  Sn6  1  0.50112486  0.00387345  0.14829137  1
  Sn  Sn7  1  0.33358616  0.34011048  0.98012705  1
  Sn  Sn8  1  0.82777414  0.32243240  0.98282652  1
  Sn  Sn9  1  0.33668468  0.33894897  0.48571388  1
  Sn  Sn10  1  0.83474225  0.33626693  0.47956698  1
  Sn  Sn11  1  0.17298759  0.66493570  0.31790962  1
  Sn  Sn12  1  0.67532962  0.67423903  0.31853029  1
  Sn  Sn13  1  0.15621450  0.64314648  0.82116218  1
  Sn  Sn14  1  0.65841964  0.65731001  0.81423986  1
  S  S0  1  0.64701666  0.99186505  0.25185821  1
  S  S1  1  0.99806850  0.29227103  0.24968525  1
  S  S2  1  0.50433902  0.30127179  0.25196184  1
  S  S3  1  0.35033278  0.99723555  0.75059547  1
  S  S4  1  0.98067136  0.32790717  0.58472532  1
  S  S5  1  0.18185770  0.03444539  0.58524094  1
  S  S6  1  0.68769641  0.04010512  0.58411161  1
  S  S7  1  0.33199101  0.63487423  0.58456992  1
  S  S8  1  0.83958979  0.63389648  0.58506864  1
  S  S9  1  0.48095434  0.62818232  0.08532832  1
  S  S10  1  0.98067213  0.62567446  0.08344102  1
  S  S11  1  0.33432478  0.04452330  0.08583548  1
  S  S12  1  0.83459494  0.04027291  0.08543568  1
  S  S13  1  0.81422011  0.66652601  0.91904872  1
  S  S14  1  0.16478003  0.95379547  0.91805405  1
  S  S15  1  0.66902472  0.95639307  0.91900568  1
  S  S16  1  0.31555745  0.96399351  0.41988132  1
  S  S17  1  0.51996283  0.66184374  0.41620794  1
  O  O0  1  0.10949288  0.04466661  0.31030715  1
  O  O1  1  0.60856104  0.01920949  0.30551094  1
  O  O2  1  0.41374167  0.82186213  0.30654415  1
  O  O3  1  0.91064319  0.79941148  0.30703236  1
  O  O4  1  0.49449988  0.19844486  0.30457245  1
  O  O5  1  0.98617373  0.19836590  0.30660516  1
  O  O6  1  0.11038709  0.17993622  0.81058949  1
  O  O7  1  0.60259374  0.15712453  0.80468383  1
  O  O8  1  0.47556705  0.79781493  0.80513927  1
  O  O9  1  0.97971384  0.79450939  0.80888437  1
  O  O10  1  0.40649004  0.03317323  0.80235256  1
  O  O11  1  0.91713710  0.05110427  0.80592783  1
  O  O12  1  0.38656350  0.95796437  0.69652334  1
  O  O13  1  0.88899327  0.93284572  0.69333077  1
  O  O14  1  0.07797661  0.21922527  0.69508133  1
  O  O15  1  0.58470707  0.22219985  0.68985592  1
  O  O16  1  0.03281338  0.84416268  0.69429227  1
  O  O17  1  0.51814515  0.83678049  0.68898777  1
  O  O18  1  0.39433366  0.83631722  0.18885019  1
  O  O19  1  0.89471038  0.82080786  0.18716743  1
  O  O20  1  0.01145610  0.20422877  0.19883893  1
  O  O21  1  0.52687806  0.22973037  0.19787746  1
  O  O22  1  0.08143816  0.94371519  0.19764579  1
  O  O23  1  0.59459428  0.97165590  0.19754589  1
  O  O24  1  0.43341939  0.33780827  0.64716484  1
  O  O25  1  0.93396370  0.33603503  0.63659465  1
  O  O26  1  0.23095113  0.12660509  0.63741509  1
  O  O27  1  0.73691055  0.12784582  0.63670894  1
  O  O28  1  0.32229910  0.53349530  0.63800579  1
  O  O29  1  0.83396983  0.52777177  0.63634667  1
  O  O30  1  0.44066198  0.52229130  0.13758493  1
  O  O31  1  0.94317434  0.52969352  0.13914438  1
  O  O32  1  0.33529434  0.13198925  0.14092083  1
  O  O33  1  0.83108655  0.13303187  0.13721740  1
  O  O34  1  0.23864249  0.34646123  0.14430714  1
  O  O35  1  0.73908685  0.35377224  0.14663763  1
  O  O36  1  0.22738624  0.30082749  0.02361213  1
  O  O37  1  0.72913340  0.29771591  0.02767820  1
  O  O38  1  0.42757093  0.55298055  0.03046353  1
  O  O39  1  0.92323727  0.53787018  0.03159851  1
  O  O40  1  0.34648107  0.15097312  0.03183965  1
  O  O41  1  0.84992671  0.14303152  0.02924949  1
  O  O42  1  0.22182068  0.13520620  0.52813800  1
  O  O43  1  0.72869452  0.15171335  0.52852037  1
  O  O44  1  0.34420262  0.55278302  0.52975410  1
  O  O45  1  0.84898615  0.55427480  0.52763177  1
  O  O46  1  0.42120922  0.30419367  0.52681282  1
  O  O47  1  0.93102781  0.30897191  0.52777717  1
  O  O48  1  0.27284141  0.69361256  0.97903193  1
  O  O49  1  0.77280703  0.68503807  0.97214166  1
  O  O50  1  0.07821232  0.45564238  0.96824903  1
  O  O51  1  0.57476245  0.46281772  0.97171406  1
  O  O52  1  0.15805398  0.84911000  0.96848856  1
  O  O53  1  0.66748195  0.85630765  0.96974245  1
  O  O54  1  0.27286264  0.85821496  0.47112187  1
  O  O55  1  0.76648197  0.82409207  0.47270998  1
  O  O56  1  0.15066230  0.46311404  0.47126446  1
  O  O57  1  0.65220040  0.44464002  0.47929350  1
  O  O58  1  0.09027239  0.71867870  0.47177295  1
  O  O59  1  0.57273375  0.68304152  0.46785257  1
  O  O60  1  0.06082671  0.62060242  0.35674479  1
  O  O61  1  0.55715501  0.63181279  0.36009193  1
  O  O62  1  0.26268358  0.89321913  0.36339280  1
  O  O63  1  0.74901215  0.89420927  0.35936855  1
  O  O64  1  0.18723088  0.47477066  0.35292461  1
  O  O65  1  0.68351871  0.48533463  0.35860086  1
  O  O66  1  0.04392338  0.45586122  0.85197913  1
  O  O67  1  0.55145441  0.47866457  0.85276666  1
  O  O68  1  0.17420114  0.88046128  0.85990361  1
  O  O69  1  0.67993786  0.88624431  0.86071881  1
  O  O70  1  0.25650244  0.64320589  0.85833485  1
  O  O71  1  0.76567125  0.65023929  0.86304420  1
  O  O72  1  0.00601169  0.82825935  0.41161680  1
  O  O73  1  0.51249779  0.81679251  0.40985515  1
  O  O74  1  0.40178449  0.98782369  0.41251078  1
  O  O75  1  0.90863758  0.98573736  0.40962695  1
  O  O76  1  0.08348262  0.18114993  0.41242196  1
  O  O77  1  0.58427265  0.16587121  0.41027074  1
  O  O78  1  0.00795639  0.16942608  0.91473212  1
  O  O79  1  0.51086625  0.18105721  0.90987430  1
  O  O80  1  0.08588137  0.97251267  0.91553109  1
  O  O81  1  0.58969535  0.96872385  0.91743204  1
  O  O82  1  0.41300762  0.83469979  0.91367005  1
  O  O83  1  0.90214889  0.81985051  0.91530190  1
  O  O84  1  0.49241405  0.15816358  0.58411568  1
  O  O85  1  0.98742986  0.16657804  0.58537165  1
  O  O86  1  0.09366018  0.02125001  0.58508023  1
  O  O87  1  0.60117874  0.03052334  0.58402718  1
  O  O88  1  0.41247395  0.80752332  0.58625755  1
  O  O89  1  0.91947278  0.80673198  0.58572564  1
  O  O90  1  0.48204152  0.79859776  0.08926071  1
  O  O91  1  0.97946035  0.79426885  0.08437804  1
  O  O92  1  0.41186511  0.01650969  0.08441702  1
  O  O93  1  0.91125151  0.01230048  0.08720950  1
  O  O94  1  0.08547186  0.15325356  0.08747092  1
  O  O95  1  0.58659580  0.15541954  0.08921030  1
  O  O96  1  0.33815644  0.14567974  0.74289216  1
  O  O97  1  0.83928462  0.15748059  0.74002154  1
  O  O98  1  0.24039298  0.31169419  0.73968577  1
  O  O99  1  0.74116192  0.31975184  0.74157019  1
  O  O100  1  0.41756291  0.52276267  0.74497498  1
  O  O101  1  0.92304779  0.52380700  0.74336145  1
  O  O102  1  0.34614311  0.52459962  0.24536001  1
  O  O103  1  0.84589783  0.51865460  0.24662682  1
  O  O104  1  0.42599765  0.30916006  0.24219977  1
  O  O105  1  0.92349921  0.31637461  0.24213965  1
  O  O106  1  0.24666404  0.15753163  0.24532688  1
  O  O107  1  0.73440594  0.14165467  0.24521890  1
  O  O108  1  0.31660078  0.48810445  0.91907886  1
  O  O109  1  0.82223327  0.50774207  0.92128827  1
  O  O110  1  0.41642948  0.33563604  0.92218076  1
  O  O111  1  0.91393946  0.33793715  0.92405188  1
  O  O112  1  0.24116838  0.13078834  0.91927907  1
  O  O113  1  0.74561807  0.13519457  0.91943922  1
  O  O114  1  0.32012161  0.13662172  0.42311522  1
  O  O115  1  0.82584242  0.15141453  0.42569945  1
  O  O116  1  0.25399781  0.33908196  0.42558907  1
  O  O117  1  0.75393755  0.35439445  0.42144768  1
  O  O118  1  0.43153934  0.50573802  0.42025164  1
  O  O119  1  0.92933122  0.49518876  0.42431906  1
  O  O120  1  0.17586122  0.50187858  0.08131375  1
  O  O121  1  0.67981781  0.50773720  0.08064981  1
  O  O122  1  0.06755006  0.65814329  0.07519623  1
  O  O123  1  0.56898156  0.66201950  0.07808049  1
  O  O124  1  0.25626698  0.87582629  0.08262414  1
  O  O125  1  0.75679167  0.87054771  0.08076270  1
  O  O126  1  0.17348321  0.86422375  0.58197740  1
  O  O127  1  0.67891191  0.87196933  0.57725335  1
  O  O128  1  0.25651022  0.65658065  0.57810070  1
  O  O129  1  0.76158717  0.64712453  0.58247259  1
  O  O130  1  0.06581072  0.48172443  0.58113130  1
  O  O131  1  0.57725490  0.50134328  0.58127319  1
  O  O132  1  0.15274051  0.81749776  0.25975368  1
  O  O133  1  0.64988405  0.82819093  0.25439535  1
  O  O134  1  0.25860232  0.69187005  0.25292518  1
  O  O135  1  0.75437382  0.68163552  0.25201519  1
  O  O136  1  0.07849016  0.46430952  0.25126338  1
  O  O137  1  0.58147605  0.47891831  0.25576675  1
  O  O138  1  0.16010170  0.49152282  0.75458451  1
  O  O139  1  0.65415150  0.48168553  0.75634473  1
  O  O140  1  0.09440175  0.70641068  0.75905598  1
  O  O141  1  0.58959859  0.71174091  0.75388170  1
  O  O142  1  0.26452622  0.84014702  0.75792136  1
  O  O143  1  0.75826623  0.82075538  0.76135656  1
loop_
_geom_bond_atom_site_label_1
_geom_bond_atom_site_label_2
_geom_bond_distance
_geom_bond_site_symmetry_2
Na0 O106 2.360687 1_565
Na0 O134 2.431172 1_555
Na0 O104 2.474214 1_565
Na0 O32 2.525382 1_565
Na0 O132 2.621191 1_555
Na0 O18 2.727114 1_555
Na0 O62 2.880117 1_555
Na1 O102 2.333294 1_555
Na1 O34 2.420386 1_555
Na1 O106 2.508462 1_555
Na1 O134 2.528056 1_555
Na1 O136 2.635636 1_555
Na1 O64 2.650448 1_555
Na2 O35 2.355596 1_555
Na2 O103 2.418179 1_555
Na2 O135 2.441454 1_555
Na2 O107 2.559515 1_555
Na2 O137 2.598186 1_555
Na2 O21 2.755406 1_555
Na2 O65 2.837541 1_555
Na3 O103 2.402787 1_555
Na3 O132 2.407555 1_655
Na3 O105 2.569434 1_555
Na3 O22 2.619637 1_655
Na3 O136 2.633890 1_655
Na3 O60 2.690142 1_655
Na3 O31 2.713961 1_555
Na3 O3 2.887609 1_555
Na4 O100 2.385152 1_555
Na4 O98 2.433309 1_555
Na4 O138 2.447168 1_555
Na4 O70 2.557441 1_555
Na4 O142 2.590838 1_555
Na4 O8 2.713768 1_555
Na4 O28 2.821967 1_555
Na5 O99 2.397879 1_555
Na5 O143 2.484570 1_555
Na5 O101 2.486067 1_555
Na5 O139 2.555752 1_555
Na5 O13 2.684978 1_555
Na5 O29 2.727931 1_555
Na5 O71 2.796107 1_555
Na5 O9 2.884046 1_555
Na6 O101 2.411596 1_555
Na6 O66 2.420267 1_655
Na6 O97 2.444234 1_555
Na6 O138 2.619175 1_655
Na6 O11 2.650659 1_555
Na6 O14 2.719045 1_655
Na6 O140 2.758903 1_655
Na6 O25 2.798180 1_555
Na7 O24 2.326765 1_555
Na7 O100 2.380220 1_555
Na7 O139 2.507320 1_555
Na7 O96 2.575800 1_555
Na7 O141 2.631105 1_555
Na7 O67 2.720907 1_555
Na7 O15 2.800568 1_555
Na8 O98 2.366095 1_555
Na8 O140 2.404778 1_545
Na8 O96 2.444505 1_555
Na8 O16 2.633762 1_545
Na8 O142 2.635303 1_545
Na8 O26 2.667139 1_555
Na8 O68 2.744990 1_545
Na8 O6 2.799562 1_555
Na9 O97 2.378575 1_555
Na9 O141 2.397631 1_545
Na9 O99 2.423785 1_555
Na9 O143 2.639878 1_545
Na9 O27 2.711414 1_555
Na9 O69 2.721444 1_545
Na9 O7 2.725349 1_555
Na10 O57 2.305549 1_555
Na10 O131 2.321276 1_555
Na10 O84 2.427538 1_555
Na10 O129 2.483267 1_555
Na10 O87 2.518645 1_555
Na10 O15 2.812250 1_555
Na10 O43 2.956086 1_555
Na11 O120 2.347507 1_555
Na11 O48 2.387803 1_554
Na11 O90 2.505579 1_555
Na11 O124 2.529113 1_555
Na11 O92 2.561945 1_565
Na11 O18 2.854572 1_555
Na11 O38 2.872997 1_555
Na12 O121 2.300497 1_555
Na12 O91 2.432477 1_555
Na12 O125 2.512658 1_555
Na12 O19 2.537222 1_555
Na12 O93 2.538705 1_565
Na12 O49 2.794477 1_554
Na12 O35 2.902242 1_555
Na12 O39 2.984356 1_555
Na13 O108 2.379305 1_555
Na13 O78 2.446310 1_555
Na13 O36 2.541547 1_556
Na13 O50 2.590198 1_555
Na13 O112 2.679445 1_555
Na13 O80 2.728662 1_545
Na13 O6 2.826778 1_555
Na13 O70 2.931612 1_555
Na14 O76 2.419179 1_655
Na14 O119 2.458635 1_555
Na14 O75 2.553307 1_545
Na14 O115 2.618455 1_555
Na14 O47 2.640130 1_555
Na14 O56 2.695604 1_655
Na14 O5 2.755422 1_555
Na14 O60 2.821263 1_655
Na15 O114 2.462006 1_555
Na15 O116 2.464501 1_555
Na15 O76 2.476126 1_555
Na15 O72 2.496733 1_545
Na15 O42 2.637219 1_555
Na15 O58 2.649586 1_545
Na15 O0 2.706264 1_555
Na15 O62 2.878841 1_545
Na16 O77 2.322217 1_555
Na16 O73 2.449231 1_545
Na16 O115 2.540162 1_555
Na16 O117 2.543097 1_555
Na16 O1 2.585828 1_555
Na16 O63 2.640492 1_545
Na16 O43 2.865707 1_555
Na17 O117 2.443881 1_555
Na17 O75 2.509658 1_555
Na17 O72 2.569951 1_655
Na17 O45 2.682836 1_555
Na17 O55 2.684101 1_555
Na17 O119 2.710062 1_555
Na17 O3 2.779406 1_555
Na17 O65 2.818716 1_555
Na18 O86 2.492480 1_555
Na18 O76 2.494263 1_555
Na18 O89 2.518107 1_445
Na18 O85 2.535845 1_455
Na18 O72 2.546891 1_545
Na18 O75 2.588288 1_445
Na19 O74 2.371785 1_545
Na19 O84 2.372347 1_555
Na19 O77 2.424640 1_555
Na19 O88 2.672823 1_545
Na19 O87 2.798766 1_555
Na19 O73 2.799387 1_545
Na20 O78 2.319640 1_554
Na20 O94 2.349956 1_555
Na20 O93 2.543585 1_455
Na20 O80 2.573293 1_544
Na20 O91 2.656879 1_445
Na20 O83 2.702818 1_444
Na21 O79 2.327579 1_555
Na21 O95 2.494024 1_556
Na21 O92 2.534862 1_556
Na21 O82 2.539064 1_545
Na21 O81 2.587025 1_545
Na21 O90 2.838595 1_546
Na22 O108 2.399102 1_555
Na22 O110 2.399151 1_555
Na22 O100 2.429217 1_555
Na22 O112 2.750734 1_555
Na22 O98 2.773922 1_555
Na22 O96 2.814646 1_555
Na23 O101 2.509756 1_555
Na23 O111 2.526504 1_555
Na23 O97 2.556824 1_555
Na23 O99 2.601844 1_555
Na23 O113 2.660469 1_555
Na23 O109 2.718679 1_555
Na24 O102 2.274136 1_555
Na24 O118 2.576924 1_555
Na24 O106 2.593735 1_555
Na24 O116 2.626929 1_555
Na24 O104 2.675281 1_555
Na24 O114 2.896759 1_555
Na25 O103 2.462981 1_555
Na25 O117 2.510617 1_555
Na25 O107 2.627597 1_555
Na25 O115 2.636131 1_555
Na25 O105 2.650070 1_555
Na25 O119 2.652918 1_555
Na26 O120 2.310322 1_555
Na26 O124 2.454177 1_555
Na26 O122 2.596313 1_555
Na26 O134 2.614916 1_555
Na26 O136 2.683546 1_555
Na26 O132 2.765158 1_555
Na27 O121 2.387810 1_555
Na27 O123 2.492235 1_555
Na27 O125 2.516238 1_555
Na27 O135 2.611512 1_555
Na27 O137 2.651886 1_555
Na27 O133 2.671366 1_555
Na28 O130 2.470973 1_555
Na28 O126 2.524059 1_555
Na28 O138 2.541442 1_555
Na28 O128 2.553867 1_555
Na28 O140 2.621474 1_555
Na28 O142 2.800172 1_555
Na29 O131 2.312147 1_555
Na29 O127 2.533162 1_555
Na29 O141 2.538307 1_555
Na29 O129 2.652019 1_555
Na29 O139 2.686437 1_555
Na29 O143 2.822261 1_555
Mg0 O2 1.899292 1_545
Mg0 O77 1.996615 1_555
Mg0 O4 2.116313 1_555
Mg0 O74 2.140036 1_545
Mg0 O1 2.177319 1_555
Mg0 O73 2.199420 1_545
Mg1 O24 1.950465 1_555
Mg1 O98 2.030989 1_555
Mg1 O100 2.036976 1_555
Mg1 O28 2.092505 1_555
Mg1 O26 2.246166 1_555
Mg1 O96 2.253188 1_555
Mg2 O97 1.983883 1_555
Mg2 O99 2.005039 1_555
Mg2 O101 2.032844 1_555
Mg2 O29 2.117728 1_555
Mg2 O25 2.120308 1_555
Mg2 O27 2.204549 1_555
Mg3 O34 1.942201 1_555
Mg3 O102 2.021134 1_555
Mg3 O106 2.071562 1_555
Mg3 O30 2.111040 1_555
Mg3 O32 2.196947 1_555
Mg3 O104 2.247718 1_555
Mg4 O35 1.928977 1_555
Mg4 O103 2.098049 1_555
Mg4 O33 2.105279 1_555
Mg4 O31 2.138874 1_555
Mg4 O105 2.198912 1_555
Mg4 O107 2.215667 1_555
Mg5 O50 1.922460 1_554
Mg5 O48 1.961779 1_554
Mg5 O120 2.016027 1_555
Mg5 O52 2.198063 1_554
Mg5 O122 2.239177 1_555
Mg5 O124 2.478001 1_555
Mg6 O51 1.882003 1_554
Mg6 O121 1.993121 1_555
Mg6 O123 2.159247 1_555
Mg6 O49 2.161697 1_554
Mg6 O53 2.165559 1_554
Mg6 O125 2.409935 1_555
Mg7 O56 1.937913 1_555
Mg7 O58 1.944037 1_555
Mg7 O54 2.123945 1_555
Mg7 O128 2.178547 1_555
Mg7 O130 2.229376 1_555
Mg7 O126 2.324553 1_555
Mg8 O57 1.973502 1_555
Mg8 O55 1.991204 1_555
Mg8 O131 2.045195 1_555
Mg8 O59 2.074163 1_555
Mg8 O127 2.311371 1_555
Mg8 O129 2.348809 1_555
O0 Si0 1.648234 1_545
O0 Sn0 2.006374 1_545
O1 S0 1.469502 1_545
O2 Si1 1.579974 1_555
O3 Si2 1.637313 1_555
O3 Sn0 2.011886 1_655
O4 S2 1.454146 1_555
O5 S1 1.485913 1_555
O5 Sn0 2.233122 1_645
O6 Si3 1.648654 1_555
O6 Sn1 2.021864 1_455
O7 Si4 1.627055 1_555
O7 Sn2 2.010117 1_545
O8 Si6 1.625299 1_555
O8 Sn2 1.992689 1_555
O9 Si5 1.638087 1_655
O9 Sn1 1.992450 1_565
O10 S3 1.472401 1_545
O10 Sn2 2.226363 1_545
O11 Si7 1.629407 1_545
O11 Sn1 1.974720 1_555
O12 S3 1.501624 1_555
O12 Sn4 2.156314 1_565
O13 Si7 1.661164 1_555
O13 Sn3 1.992828 1_665
O14 Si3 1.656427 1_555
O14 Sn3 1.989853 1_555
O15 Si4 1.659386 1_555
O15 Sn4 2.000971 1_555
O16 Si5 1.655745 1_555
O16 Sn3 1.986967 1_565
O17 Si6 1.659304 1_555
O17 Sn4 1.969737 1_565
O18 Si1 1.714323 1_555
O18 Sn6 1.967883 1_565
O19 Si2 1.655422 1_555
O19 Sn5 2.009046 1_655
O20 S1 1.480755 1_455
O20 Sn5 2.158824 1_545
O21 S2 1.524298 1_555
O21 Sn6 2.165639 1_555
O22 Si0 1.653154 1_555
O22 Sn5 1.979781 1_555
O23 S0 1.501847 1_555
O23 Sn6 2.151929 1_565
O24 Si8 1.594557 1_555
O25 S4 1.457224 1_555
O26 S5 1.461253 1_555
O27 S6 1.459448 1_555
O28 S7 1.462397 1_555
O29 S8 1.465331 1_555
O30 S9 1.452045 1_555
O31 S10 1.473915 1_555
O32 S11 1.467682 1_555
O33 S12 1.456594 1_555
O34 Si9 1.600403 1_555
O35 Si10 1.612478 1_555
O36 Si9 1.695012 1_555
O36 Sn7 2.006269 1_554
O37 Si10 1.680162 1_555
O37 Sn8 1.947524 1_554
O38 S9 1.508225 1_555
O38 Sn7 2.150363 1_554
O39 S10 1.502735 1_555
O39 Sn8 2.152706 1_554
O40 S11 1.490138 1_555
O40 Sn7 2.165096 1_554
O41 S12 1.503957 1_555
O41 Sn8 2.119015 1_554
O42 S5 1.523058 1_555
O42 Sn9 2.173526 1_555
O43 S6 1.535588 1_555
O43 Sn10 2.099800 1_555
O44 S7 1.511537 1_555
O44 Sn9 2.115125 1_555
O45 S8 1.530133 1_555
O45 Sn10 2.148714 1_555
O46 Si8 1.680270 1_555
O46 Sn9 1.934429 1_555
O47 S4 1.525660 1_555
O47 Sn10 2.160257 1_555
O48 Si11 1.587750 1_555
O49 S13 1.457734 1_555
O50 Si12 1.579719 1_555
O51 Si13 1.573485 1_555
O52 S14 1.437459 1_555
O53 S15 1.442774 1_555
O54 S16 1.441252 1_555
O55 Si14 1.582381 1_555
O56 Si15 1.580428 1_555
O57 Si16 1.587513 1_555
O58 Si17 1.580195 1_555
O59 S17 1.455179 1_555
O60 Si17 1.671477 1_555
O60 Sn11 2.038937 1_555
O61 S17 1.512917 1_555
O61 Sn12 2.166236 1_555
O62 S16 1.529790 1_555
O62 Sn11 2.146528 1_555
O63 Si14 1.671124 1_555
O63 Sn12 1.984851 1_555
O64 Si15 1.665612 1_555
O64 Sn11 2.011761 1_555
O65 Si16 1.685222 1_555
O65 Sn12 1.991695 1_555
O66 Si12 1.667989 1_555
O66 Sn13 1.994256 1_555
O67 Si13 1.680042 1_555
O67 Sn14 1.979774 1_555
O68 S14 1.515003 1_555
O68 Sn13 2.183940 1_555
O69 S15 1.512377 1_555
O69 Sn14 2.174693 1_555
O70 Si11 1.691543 1_555
O70 Sn13 1.989231 1_555
O71 S13 1.501583 1_555
O71 Sn14 2.249900 1_555
O72 Si17 1.643996 1_555
O72 Sn0 2.028272 1_555
O73 S17 1.473880 1_555
O74 S16 1.461881 1_555
O75 Si14 1.650904 1_555
O75 Sn0 2.052038 1_655
O76 Si15 1.673246 1_555
O76 Sn0 2.074244 1_545
O77 Si16 1.614348 1_555
O78 Si12 1.679426 1_555
O78 Sn1 2.026728 1_455
O79 Si13 1.649491 1_555
O79 Sn2 1.990076 1_545
O80 S14 1.509345 1_555
O80 Sn1 2.281672 1_465
O81 S15 1.483704 1_555
O81 Sn2 2.234027 1_555
O82 Si11 1.627824 1_555
O82 Sn2 2.006154 1_555
O83 S13 1.493970 1_555
O83 Sn1 2.245802 1_565
O84 Si8 1.715405 1_555
O84 Sn4 2.004887 1_555
O85 S4 1.517770 1_555
O85 Sn3 2.235553 1_655
O86 S5 1.528120 1_555
O86 Sn3 2.202293 1_555
O87 S6 1.512542 1_555
O87 Sn4 2.229474 1_555
O88 S7 1.506716 1_555
O88 Sn4 2.212657 1_565
O89 S8 1.502258 1_555
O89 Sn3 2.247083 1_665
O90 S9 1.528872 1_555
O90 Sn6 2.167987 1_565
O91 S10 1.530294 1_555
O91 Sn5 2.185224 1_655
O92 S11 1.534204 1_555
O92 Sn6 2.202482 1_555
O93 S12 1.518720 1_555
O93 Sn5 2.256678 1_645
O94 Si9 1.692485 1_555
O94 Sn5 1.976323 1_545
O95 Si10 1.681516 1_555
O95 Sn6 1.964651 1_555
O96 S3 1.468466 1_545
O97 Si7 1.604439 1_545
O98 Si3 1.606732 1_555
O99 Si4 1.609613 1_555
O100 Si6 1.614048 1_555
O101 Si5 1.607650 1_655
O102 Si1 1.604901 1_555
O103 Si2 1.636600 1_555
O104 S2 1.461220 1_555
O105 S1 1.470055 1_555
O106 Si0 1.605003 1_545
O107 S0 1.480194 1_545
O108 Si11 1.677710 1_555
O108 Sn7 2.036907 1_555
O109 S13 1.508205 1_555
O109 Sn8 2.204202 1_555
O110 Si13 1.670725 1_555
O110 Sn7 1.989007 1_555
O111 Si12 1.656612 1_655
O111 Sn8 1.981240 1_555
O112 S14 1.498615 1_545
O112 Sn7 2.261493 1_555
O113 S15 1.509574 1_545
O113 Sn8 2.149657 1_555
O114 S16 1.518382 1_545
O114 Sn9 2.210302 1_555
O115 Si14 1.651382 1_545
O115 Sn10 2.006435 1_555
O116 Si15 1.680043 1_555
O116 Sn9 2.014120 1_555
O117 Si16 1.706011 1_555
O117 Sn10 2.023687 1_555
O118 S17 1.509632 1_555
O118 Sn9 2.174995 1_555
O119 Si17 1.657871 1_655
O119 Sn10 2.004397 1_555
O120 Si9 1.623951 1_555
O121 Si10 1.624416 1_555
O122 S10 1.447674 1_455
O123 S9 1.461179 1_555
O124 S11 1.469259 1_565
O125 S12 1.474789 1_565
O126 S5 1.466865 1_565
O127 S6 1.451945 1_565
O128 S7 1.470634 1_555
O129 S8 1.465267 1_555
O130 S4 1.466401 1_455
O131 Si8 1.624191 1_555
O132 Si0 1.655544 1_555
O132 Sn11 2.053958 1_555
O133 S0 1.501888 1_555
O133 Sn12 2.198519 1_555
O134 Si1 1.710579 1_555
O134 Sn11 2.040367 1_555
O135 Si2 1.662479 1_555
O135 Sn12 2.035459 1_555
O136 S1 1.503095 1_455
O136 Sn11 2.321827 1_555
O137 S2 1.510145 1_555
O137 Sn12 2.241447 1_555
O138 Si3 1.658096 1_555
O138 Sn13 2.056753 1_555
O139 Si4 1.646962 1_555
O139 Sn14 2.026798 1_555
O140 Si5 1.660637 1_555
O140 Sn13 2.036636 1_555
O141 Si6 1.652990 1_555
O141 Sn14 2.055820 1_555
O142 S3 1.491969 1_555
O142 Sn13 2.337580 1_555
O143 Si7 1.642295 1_555
O143 Sn14 2.031911 1_555
