# generated using pymatgen
data_MgFe4(PO3)12
_symmetry_space_group_name_H-M   'P 1'
_cell_length_a   8.72430229
_cell_length_b   8.72254740
_cell_length_c   8.75925078
_cell_angle_alpha   91.55498355
_cell_angle_beta   89.70739674
_cell_angle_gamma   89.36051953
_symmetry_Int_Tables_number   1
_chemical_formula_structural   MgFe4(PO3)12
_chemical_formula_sum   'Mg1 Fe4 P12 O36'
_cell_volume   666.26596961
_cell_formula_units_Z   1
loop_
 _symmetry_equiv_pos_site_id
 _symmetry_equiv_pos_as_xyz
  1  'x, y, z'
loop_
 _atom_site_type_symbol
 _atom_site_label
 _atom_site_symmetry_multiplicity
 _atom_site_fract_x
 _atom_site_fract_y
 _atom_site_fract_z
 _atom_site_occupancy
  Mg  Mg0  1  0.01912900  0.82428800  0.22133100  1
  Fe  Fe0  1  0.83135900  0.62391800  0.39188100  1
  Fe  Fe1  1  0.63565100  0.36063000  0.85422600  1
  Fe  Fe2  1  0.36501200  0.85496300  0.64224900  1
  Fe  Fe3  1  0.13785700  0.15577600  0.14258400  1
  P  P0  1  0.67977600  0.99070800  0.79631700  1
  P  P1  1  0.69369600  0.30701500  0.44984200  1
  P  P2  1  0.80439500  0.70742100  0.94472300  1
  P  P3  1  0.80071900  0.00382100  0.33152900  1
  P  P4  1  0.04577200  0.67089900  0.69692100  1
  P  P5  1  0.19534700  0.52278900  0.17847900  1
  P  P6  1  0.20037400  0.18858400  0.55456300  1
  P  P7  1  0.31339400  0.80200100  0.03640200  1
  P  P8  1  0.32422400  0.48493500  0.69017500  1
  P  P9  1  0.46788900  0.32267700  0.18856000  1
  P  P10  1  0.52218500  0.81766800  0.30861100  1
  P  P11  1  0.95833400  0.17369200  0.80494000  1
  O  O0  1  0.61243800  0.67968700  0.35182600  1
  O  O1  1  0.96432600  0.72722400  0.85358300  1
  O  O2  1  0.87699100  0.86716400  0.40724500  1
  O  O3  1  0.92771700  0.60182700  0.59497200  1
  O  O4  1  0.04312300  0.21848300  0.65019900  1
  O  O5  1  0.10540300  0.39264300  0.11495600  1
  O  O6  1  0.06887300  0.11386900  0.91841900  1
  O  O7  1  0.11795900  0.63009800  0.29543800  1
  O  O8  1  0.13984200  0.80266900  0.64156600  1
  O  O9  1  0.15722500  0.53619300  0.75615300  1
  O  O10  1  0.15809700  0.15741800  0.39209400  1
  O  O11  1  0.19668700  0.90589600  0.11782200  1
  O  O12  1  0.24864400  0.63096500  0.03835300  1
  O  O13  1  0.27806800  0.35742500  0.56309800  1
  O  O14  1  0.30201700  0.07758200  0.63795100  1
  O  O15  1  0.35918700  0.83689500  0.87723200  1
  O  O16  1  0.35890600  0.46839400  0.24303000  1
  O  O17  1  0.37212400  0.19054800  0.13811900  1
  O  O18  1  0.41221000  0.41159900  0.81723800  1
  O  O19  1  0.39190400  0.86831700  0.41214500  1
  O  O20  1  0.39590800  0.62035300  0.61531100  1
  O  O21  1  0.46430900  0.79134500  0.13678600  1
  O  O22  1  0.53990200  0.28307800  0.35230300  1
  O  O23  1  0.85774300  0.30852000  0.85328500  1
  O  O24  1  0.59142600  0.37676500  0.08223100  1
  O  O25  1  0.59525500  0.90738300  0.66918100  1
  O  O26  1  0.90016700  0.04905600  0.19881100  1
  O  O27  1  0.63253100  0.96082300  0.27525800  1
  O  O28  1  0.64925700  0.34758400  0.61129000  1
  O  O29  1  0.70524100  0.58507200  0.87666300  1
  O  O30  1  0.72048500  0.87165900  0.92798300  1
  O  O31  1  0.76488000  0.13410200  0.45448400  1
  O  O32  1  0.80636500  0.39787000  0.36158800  1
  O  O33  1  0.85390300  0.70354900  0.10966200  1
  O  O34  1  0.84924200  0.03536600  0.73970400  1
  O  O35  1  0.60215800  0.12984800  0.86817500  1
loop_
_geom_bond_atom_site_label_1
_geom_bond_atom_site_label_2
_geom_bond_distance
_geom_bond_site_symmetry_2
Mg0 O11 1.942588 1_555
Mg0 O7 2.016592 1_555
Mg0 O33 2.033748 1_455
Mg0 O2 2.065303 1_455
Mg0 O26 2.222044 1_465
Fe0 O3 1.984608 1_555
Fe0 O32 1.996849 1_555
Fe0 O0 2.000735 1_555
Fe0 O2 2.163844 1_555
Fe0 O33 2.592937 1_555
Fe0 O7 2.636735 1_655
Fe1 O23 1.985177 1_555
Fe1 O18 2.024246 1_555
Fe1 O24 2.032967 1_556
Fe1 O35 2.044168 1_555
Fe1 O29 2.060754 1_555
Fe1 O28 2.130524 1_555
Fe2 O14 2.013561 1_565
Fe2 O8 2.021667 1_555
Fe2 O19 2.034583 1_555
Fe2 O20 2.068067 1_555
Fe2 O15 2.068969 1_555
Fe2 O25 2.078248 1_555
Fe3 O17 2.069872 1_555
Fe3 O6 2.080686 1_554
Fe3 O5 2.102905 1_555
Fe3 O10 2.193213 1_555
Fe3 O11 2.238151 1_545
Fe3 O26 2.338112 1_455
O0 P10 1.489434 1_555
O1 P4 1.604673 1_655
O1 P2 1.617238 1_555
O2 P3 1.527483 1_565
O3 P4 1.488378 1_655
O4 P11 1.600604 1_455
O4 P6 1.618733 1_555
O5 P5 1.484621 1_555
O6 P11 1.488970 1_455
O7 P5 1.519302 1_555
O8 P4 1.508949 1_555
O9 P4 1.614918 1_555
O9 P8 1.618464 1_555
O10 P6 1.490563 1_555
O11 P7 1.517725 1_555
O12 P7 1.601616 1_555
O12 P5 1.637027 1_555
O13 P8 1.607962 1_555
O13 P6 1.628121 1_555
O14 P6 1.511007 1_555
O15 P7 1.488665 1_556
O16 P5 1.608929 1_555
O16 P9 1.637877 1_555
O17 P9 1.489674 1_555
O18 P8 1.507827 1_555
O19 P10 1.505328 1_555
O20 P8 1.506876 1_555
O21 P7 1.590228 1_555
O21 P10 1.601395 1_555
O22 P1 1.606892 1_555
O22 P9 1.613191 1_555
O23 P11 1.509536 1_555
O24 P9 1.508827 1_555
O25 P0 1.512796 1_555
O26 P3 1.510662 1_555
O27 P3 1.595707 1_565
O27 P10 1.617120 1_555
O28 P1 1.496519 1_555
O29 P2 1.494644 1_555
O30 P0 1.611047 1_555
O30 P2 1.612068 1_555
O31 P3 1.572021 1_555
O31 P1 1.626285 1_555
O32 P1 1.494894 1_555
O33 P2 1.511183 1_554
O34 P0 1.612256 1_545
O34 P11 1.637649 1_555
O35 P0 1.504501 1_545
