# generated using pymatgen
data_BeH12(N2Cl)2
_symmetry_space_group_name_H-M   'P 1'
_cell_length_a   6.66170023
_cell_length_b   9.45183496
_cell_length_c   11.82816897
_cell_angle_alpha   90.00000000
_cell_angle_beta   90.00000000
_cell_angle_gamma   90.00000000
_symmetry_Int_Tables_number   1
_chemical_formula_structural   BeH12(N2Cl)2
_chemical_formula_sum   'Be4 H48 N16 Cl8'
_cell_volume   744.76410269
_cell_formula_units_Z   4
loop_
 _symmetry_equiv_pos_site_id
 _symmetry_equiv_pos_as_xyz
  1  'x, y, z'
loop_
 _atom_site_type_symbol
 _atom_site_label
 _atom_site_symmetry_multiplicity
 _atom_site_fract_x
 _atom_site_fract_y
 _atom_site_fract_z
 _atom_site_occupancy
  Be  Be0  1  0.55796361  0.74551484  0.57438737  1
  Be  Be1  1  0.05796261  0.25448516  0.42561263  1
  Be  Be2  1  0.05796261  0.75448516  0.07438737  1
  Be  Be3  1  0.55796361  0.24551484  0.92561263  1
  H  H0  1  0.51542103  0.86135608  0.39957054  1
  H  H1  1  0.01542103  0.13864392  0.60042946  1
  H  H2  1  0.01542103  0.63864392  0.89957054  1
  H  H3  1  0.51542103  0.36135608  0.10042946  1
  H  H4  1  0.57136751  0.69453330  0.38474770  1
  H  H5  1  0.07136751  0.30546670  0.61525230  1
  H  H6  1  0.07136751  0.80546670  0.88474770  1
  H  H7  1  0.57136751  0.19453330  0.11525230  1
  H  H8  1  0.74750361  0.80835360  0.41679293  1
  H  H9  1  0.24750361  0.19164640  0.58320707  1
  H  H10  1  0.24750361  0.69164640  0.91679293  1
  H  H11  1  0.74750361  0.30835360  0.08320707  1
  H  H12  1  0.77077462  0.91354118  0.65420949  1
  H  H13  1  0.27077462  0.08645882  0.34579051  1
  H  H14  1  0.27077462  0.58645882  0.15420949  1
  H  H15  1  0.77077462  0.41354118  0.84579051  1
  H  H16  1  0.88508129  0.75839960  0.64130906  1
  H  H17  1  0.38508129  0.24160040  0.35869094  1
  H  H18  1  0.38508129  0.74160040  0.14130906  1
  H  H19  1  0.88508129  0.25839960  0.85869094  1
  H  H20  1  0.72001914  0.78088385  0.74037801  1
  H  H21  1  0.22001914  0.21911615  0.25962199  1
  H  H22  1  0.22001914  0.71911615  0.24037801  1
  H  H23  1  0.72001914  0.28088385  0.75962199  1
  H  H24  1  0.66134408  0.52632307  0.63918153  1
  H  H25  1  0.16134408  0.47367693  0.36081847  1
  H  H26  1  0.16134408  0.97367693  0.13918153  1
  H  H27  1  0.66134408  0.02632307  0.86081847  1
  H  H28  1  0.41371066  0.53482392  0.63442778  1
  H  H29  1  0.91371066  0.46517608  0.36557222  1
  H  H30  1  0.91371066  0.96517608  0.13442778  1
  H  H31  1  0.41371066  0.03482392  0.86557222  1
  H  H32  1  0.54373661  0.50853745  0.51785708  1
  H  H33  1  0.04373661  0.49146255  0.48214292  1
  H  H34  1  0.04373661  0.99146255  0.01785708  1
  H  H35  1  0.54373661  0.00853745  0.98214292  1
  H  H36  1  0.23458517  0.82786648  0.55470117  1
  H  H37  1  0.73458517  0.17213352  0.44529883  1
  H  H38  1  0.73458517  0.67213352  0.05470117  1
  H  H39  1  0.23458517  0.32786648  0.94529883  1
  H  H40  1  0.36604051  0.92990469  0.63923168  1
  H  H41  1  0.86604051  0.07009531  0.36076832  1
  H  H42  1  0.86604051  0.57009531  0.13923168  1
  H  H43  1  0.36604051  0.42990469  0.86076832  1
  H  H44  1  0.27446997  0.77862486  0.68624814  1
  H  H45  1  0.77446997  0.22137514  0.31375186  1
  H  H46  1  0.77446997  0.72137514  0.18624814  1
  H  H47  1  0.27446997  0.27862486  0.81375186  1
  N  N0  1  0.60045347  0.78230373  0.43340105  1
  N  N1  1  0.10045347  0.21769627  0.56659895  1
  N  N2  1  0.10045347  0.71769627  0.93340105  1
  N  N3  1  0.60045347  0.28230373  0.06659895  1
  N  N4  1  0.75100649  0.80656203  0.65787016  1
  N  N5  1  0.25100649  0.19343797  0.34212984  1
  N  N6  1  0.25100649  0.69343797  0.15787016  1
  N  N7  1  0.75100649  0.30656203  0.84212984  1
  N  N8  1  0.54271420  0.56286118  0.59295839  1
  N  N9  1  0.04271420  0.43713882  0.40704161  1
  N  N10  1  0.04271420  0.93713882  0.09295839  1
  N  N11  1  0.54271420  0.06286118  0.90704161  1
  N  N12  1  0.33963835  0.82650934  0.61839098  1
  N  N13  1  0.83963835  0.17349066  0.38160902  1
  N  N14  1  0.83963835  0.67349066  0.11839098  1
  N  N15  1  0.33963835  0.32650934  0.88160902  1
  Cl  Cl0  1  0.57600729  0.64586710  0.88635849  1
  Cl  Cl1  1  0.07600729  0.35413290  0.11364151  1
  Cl  Cl2  1  0.07600729  0.85413290  0.38635849  1
  Cl  Cl3  1  0.57600729  0.14586710  0.61364151  1
  Cl  Cl4  1  0.05756341  0.03244200  0.81987391  1
  Cl  Cl5  1  0.55756341  0.96755800  0.18012609  1
  Cl  Cl6  1  0.55756341  0.46755800  0.31987391  1
  Cl  Cl7  1  0.05756341  0.53244200  0.68012609  1
loop_
_geom_bond_atom_site_label_1
_geom_bond_atom_site_label_2
_geom_bond_distance
_geom_bond_site_symmetry_2
Be0 N4 1.720980 1_555
Be0 N12 1.724034 1_555
Be0 N0 1.726834 1_555
Be0 N8 1.743293 1_555
Be1 N5 1.720985 1_555
Be1 N13 1.724028 1_455
Be1 N1 1.726835 1_555
Be1 N9 1.743293 1_555
Be2 N6 1.720985 1_555
Be2 N14 1.724028 1_455
Be2 N2 1.726835 1_554
Be2 N10 1.743293 1_555
Be3 N7 1.720980 1_555
Be3 N15 1.724034 1_555
Be3 N3 1.726834 1_556
Be3 N11 1.743293 1_555
H0 N0 1.019457 1_555
H1 N1 1.019457 1_555
H2 N2 1.019457 1_555
H3 N3 1.019457 1_555
H4 N0 1.028077 1_555
H5 N1 1.028077 1_555
H6 N2 1.028077 1_555
H7 N3 1.028077 1_555
H8 N0 1.028998 1_555
H9 N1 1.028998 1_555
H10 N2 1.028998 1_555
H11 N3 1.028998 1_555
H12 N4 1.020608 1_555
H13 N5 1.020608 1_555
H14 N6 1.020608 1_555
H15 N7 1.020608 1_555
H16 N4 1.021443 1_555
H17 N5 1.021443 1_555
H18 N6 1.021443 1_555
H19 N7 1.021443 1_555
H20 N4 1.026612 1_555
H21 N5 1.026612 1_555
H22 N6 1.026612 1_555
H23 N7 1.026612 1_555
H24 N8 1.021139 1_555
H25 N9 1.021139 1_555
H26 N10 1.021139 1_555
H27 N11 1.021139 1_555
H28 N8 1.024384 1_555
H29 N9 1.024384 1_655
H30 N10 1.024384 1_655
H31 N11 1.024384 1_555
H32 N8 1.026052 1_555
H33 N9 1.026052 1_555
H34 N10 1.026052 1_555
H35 N11 1.026052 1_555
H36 N12 1.028320 1_555
H37 N13 1.028320 1_555
H38 N14 1.028320 1_555
H39 N15 1.028320 1_555
H40 N12 1.023117 1_555
H41 N13 1.023117 1_555
H42 N14 1.023117 1_555
H43 N15 1.023117 1_555
H44 N12 1.018588 1_555
H45 N13 1.018588 1_555
H46 N14 1.018588 1_555
H47 N15 1.018588 1_555
