# generated using pymatgen
data_NbIn3SiS5O24
_symmetry_space_group_name_H-M   'P 1'
_cell_length_a   8.89921747
_cell_length_b   8.94845575
_cell_length_c   23.18799576
_cell_angle_alpha   90.16255522
_cell_angle_beta   90.15450586
_cell_angle_gamma   119.98562132
_symmetry_Int_Tables_number   1
_chemical_formula_structural   NbIn3SiS5O24
_chemical_formula_sum   'Nb3 In9 Si3 S15 O72'
_cell_volume   1599.37394433
_cell_formula_units_Z   3
loop_
 _symmetry_equiv_pos_site_id
 _symmetry_equiv_pos_as_xyz
  1  'x, y, z'
loop_
 _atom_site_type_symbol
 _atom_site_label
 _atom_site_symmetry_multiplicity
 _atom_site_fract_x
 _atom_site_fract_y
 _atom_site_fract_z
 _atom_site_occupancy
  Nb  Nb0  1  0.67095469  0.33747238  0.97417450  1
  Nb  Nb1  1  0.33227529  0.67429031  0.30950456  1
  Nb  Nb2  1  0.32998340  0.65640229  0.81744493  1
  In  In0  1  0.00892122  0.00401559  0.35185799  1
  In  In1  1  0.99325540  0.99785977  0.85569958  1
  In  In2  1  0.99738546  0.99892976  0.64853980  1
  In  In3  1  0.00680574  0.99683584  0.14344568  1
  In  In4  1  0.66864348  0.33480253  0.68551654  1
  In  In5  1  0.65816888  0.32467628  0.18688438  1
  In  In6  1  0.66513196  0.33201547  0.47812821  1
  In  In7  1  0.33691490  0.66462787  0.02125134  1
  In  In8  1  0.33505362  0.66741896  0.52066757  1
  Si  Si0  1  0.29015215  0.00992312  0.24941988  1
  Si  Si1  1  0.62445639  0.66968222  0.92011639  1
  Si  Si2  1  0.04808392  0.37752840  0.91959039  1
  S  S0  1  0.70548142  0.70909523  0.25109804  1
  S  S1  1  0.00121435  0.29587394  0.25138333  1
  S  S2  1  0.29262155  0.29421788  0.74978713  1
  S  S3  1  0.00530737  0.70953813  0.74944148  1
  S  S4  1  0.70034104  0.99714505  0.74899665  1
  S  S5  1  0.95911526  0.33208327  0.58282765  1
  S  S6  1  0.37326680  0.04110061  0.58290968  1
  S  S7  1  0.66795116  0.62586835  0.58302356  1
  S  S8  1  0.94952696  0.61687658  0.08293564  1
  S  S9  1  0.66906077  0.04428523  0.08247795  1
  S  S10  1  0.37912533  0.33381280  0.08252729  1
  S  S11  1  0.33823048  0.95538695  0.91718835  1
  S  S12  1  0.62400115  0.95445095  0.41562443  1
  S  S13  1  0.33332750  0.38038477  0.41695086  1
  S  S14  1  0.04403751  0.66412711  0.41683860  1
  O  O0  1  0.21338401  0.03255728  0.30915681  1
  O  O1  1  0.80782329  0.78637353  0.30387340  1
  O  O2  1  0.96458533  0.18840725  0.30310466  1
  O  O3  1  0.21463185  0.18464088  0.79990680  1
  O  O4  1  0.97570846  0.79012542  0.79971716  1
  O  O5  1  0.81479730  0.03150360  0.79870710  1
  O  O6  1  0.77048719  0.95983885  0.69584161  1
  O  O7  1  0.18557718  0.22359556  0.69665294  1
  O  O8  1  0.03780342  0.81450896  0.69627354  1
  O  O9  1  0.76928526  0.82053800  0.20026043  1
  O  O10  1  0.04181169  0.22649772  0.20011903  1
  O  O11  1  0.16412823  0.94929830  0.19371266  1
  O  O12  1  0.88110841  0.36261625  0.63472454  1
  O  O13  1  0.48229327  0.11963351  0.63494383  1
  O  O14  1  0.63776766  0.51808528  0.63489063  1
  O  O15  1  0.87317363  0.51485513  0.13566842  1
  O  O16  1  0.64630885  0.12103315  0.13576248  1
  O  O17  1  0.48098319  0.36009219  0.13586891  1
  O  O18  1  0.47197070  0.31372286  0.03181908  1
  O  O19  1  0.83745249  0.51862842  0.03128423  1
  O  O20  1  0.68866520  0.15469903  0.03126302  1
  O  O21  1  0.45161871  0.14820373  0.53064834  1
  O  O22  1  0.69774238  0.54773896  0.53071828  1
  O  O23  1  0.84969579  0.30143747  0.53046888  1
  O  O24  1  0.54765974  0.70956869  0.97501054  1
  O  O25  1  0.15077865  0.46598449  0.97626426  1
  O  O26  1  0.30418844  0.85441469  0.96932640  1
  O  O27  1  0.54933500  0.85105363  0.46813492  1
  O  O28  1  0.30969182  0.45773812  0.47047259  1
  O  O29  1  0.15084464  0.69461495  0.46927592  1
  O  O30  1  0.13786052  0.64418170  0.36578374  1
  O  O31  1  0.50775490  0.86038588  0.36475130  1
  O  O32  1  0.35479293  0.49061508  0.36616799  1
  O  O33  1  0.13882719  0.51006561  0.86133496  1
  O  O34  1  0.37148203  0.87276071  0.86541113  1
  O  O35  1  0.49125602  0.63589197  0.86216391  1
  O  O36  1  0.01946368  0.81245533  0.40942722  1
  O  O37  1  0.79509384  0.97316053  0.40559905  1
  O  O38  1  0.17674374  0.20952435  0.41143400  1
  O  O39  1  0.02479900  0.19777605  0.90269235  1
  O  O40  1  0.19535008  0.98558312  0.90417115  1
  O  O41  1  0.81479792  0.80560529  0.90279521  1
  O  O42  1  0.97653779  0.17737839  0.59049879  1
  O  O43  1  0.20007982  0.02294328  0.59064889  1
  O  O44  1  0.82314803  0.79824115  0.59057180  1
  O  O45  1  0.94883324  0.78168467  0.08402197  1
  O  O46  1  0.82947098  0.03188853  0.08725142  1
  O  O47  1  0.20789235  0.17344803  0.08462755  1
  O  O48  1  0.67868765  0.14969250  0.74071753  1
  O  O49  1  0.46995430  0.32304983  0.74157939  1
  O  O50  1  0.85335239  0.53407566  0.74167115  1
  O  O51  1  0.68244700  0.53762362  0.24247768  1
  O  O52  1  0.86272736  0.33572997  0.24282281  1
  O  O53  1  0.48722730  0.15810163  0.24319105  1
  O  O54  1  0.62297249  0.48238071  0.93053373  1
  O  O55  1  0.85313752  0.36090355  0.92895569  1
  O  O56  1  0.50063734  0.12675490  0.92518458  1
  O  O57  1  0.63195501  0.12291348  0.41992607  1
  O  O58  1  0.49334369  0.36778627  0.42144459  1
  O  O59  1  0.87658916  0.50049080  0.42045692  1
  O  O60  1  0.36037701  0.48684906  0.07811618  1
  O  O61  1  0.12443894  0.64304590  0.07622128  1
  O  O62  1  0.51259085  0.87435161  0.07617741  1
  O  O63  1  0.35624908  0.86848156  0.57569146  1
  O  O64  1  0.51197045  0.64370122  0.57640103  1
  O  O65  1  0.13208277  0.48750366  0.57594564  1
  O  O66  1  0.30933701  0.82959002  0.26622782  1
  O  O67  1  0.52397821  0.68373765  0.26391285  1
  O  O68  1  0.16444996  0.47061258  0.26475133  1
  O  O69  1  0.30809032  0.46910824  0.75937920  1
  O  O70  1  0.16331060  0.69379838  0.75903554  1
  O  O71  1  0.52581263  0.84339403  0.75970288  1
loop_
_geom_bond_atom_site_label_1
_geom_bond_atom_site_label_2
_geom_bond_distance
_geom_bond_site_symmetry_2
Nb0 O55 1.855417 1_555
Nb0 O54 1.856442 1_555
Nb0 O19 2.037966 1_556
Nb0 O56 2.065202 1_555
Nb0 O18 2.146108 1_556
Nb0 O20 2.172790 1_556
Nb1 O66 1.808396 1_555
Nb1 O68 1.972149 1_555
Nb1 O67 1.975172 1_555
Nb1 O31 2.056849 1_555
Nb1 O30 2.077795 1_555
Nb1 O32 2.192721 1_555
Nb2 O35 1.850699 1_555
Nb2 O33 1.853278 1_555
Nb2 O69 2.078260 1_555
Nb2 O34 2.095882 1_555
Nb2 O70 2.152742 1_555
Nb2 O71 2.177196 1_555
In0 O0 1.975617 1_555
In0 O1 2.174129 1_445
In0 O37 2.177086 1_445
In0 O38 2.179432 1_555
In0 O2 2.194350 1_455
In0 O36 2.214099 1_545
In1 O39 1.987918 1_665
In1 O41 1.990845 1_555
In1 O40 2.167299 1_655
In1 O5 2.197304 1_565
In1 O4 2.204559 1_555
In1 O3 2.254587 1_665
In2 O44 2.151235 1_555
In2 O8 2.163208 1_655
In2 O42 2.168552 1_565
In2 O7 2.168628 1_665
In2 O6 2.170425 1_555
In2 O43 2.174665 1_665
In3 O11 2.022128 1_555
In3 O47 2.181436 1_565
In3 O46 2.184681 1_465
In3 O45 2.204487 1_455
In3 O9 2.320765 1_455
In3 O10 2.321649 1_565
In4 O48 2.132985 1_555
In4 O12 2.137142 1_555
In4 O14 2.145491 1_555
In4 O13 2.148875 1_555
In4 O50 2.150031 1_555
In4 O49 2.157492 1_555
In5 O53 1.998980 1_555
In5 O17 2.116060 1_555
In5 O16 2.128829 1_555
In5 O15 2.176345 1_555
In5 O52 2.193786 1_555
In5 O51 2.216440 1_555
In6 O58 2.155902 1_555
In6 O23 2.164708 1_555
In6 O21 2.167680 1_555
In6 O22 2.173126 1_555
In6 O59 2.188971 1_555
In6 O57 2.200237 1_555
In7 O25 2.007172 1_554
In7 O24 2.021923 1_554
In7 O62 2.152038 1_555
In7 O60 2.157655 1_555
In7 O61 2.210606 1_555
In7 O26 2.218750 1_554
In8 O28 2.118754 1_555
In8 O64 2.125699 1_555
In8 O63 2.132383 1_555
In8 O29 2.134606 1_555
In8 O65 2.148262 1_555
In8 O27 2.170756 1_555
O0 Si0 1.602591 1_555
O1 S0 1.471365 1_555
O2 S1 1.471298 1_655
O3 S2 1.457528 1_555
O4 S3 1.461246 1_655
O5 S4 1.462644 1_545
O6 S4 1.493468 1_555
O7 S2 1.487398 1_555
O8 S3 1.490930 1_555
O9 S0 1.466561 1_555
O10 S1 1.466731 1_555
O11 Si0 1.612682 1_565
O12 S5 1.482204 1_555
O13 S6 1.482692 1_555
O14 S7 1.482644 1_555
O15 S8 1.476844 1_555
O16 S9 1.474719 1_555
O17 S10 1.478540 1_555
O18 S10 1.500027 1_555
O19 S8 1.520942 1_555
O20 S9 1.500816 1_555
O21 S6 1.488773 1_555
O22 S7 1.487378 1_555
O23 S5 1.490715 1_555
O24 Si1 1.568645 1_555
O25 Si2 1.566302 1_555
O26 S11 1.450642 1_555
O27 S12 1.475265 1_555
O28 S13 1.485151 1_555
O29 S14 1.479532 1_555
O30 S14 1.511163 1_555
O31 S12 1.512502 1_555
O32 S13 1.488472 1_555
O33 Si2 1.714965 1_555
O34 S11 1.513698 1_555
O35 Si1 1.712656 1_555
O36 S14 1.459568 1_555
O37 S12 1.465497 1_555
O38 S13 1.471089 1_555
O39 Si2 1.564156 1_555
O40 S11 1.456954 1_555
O41 Si1 1.567491 1_555
O42 S5 1.479175 1_555
O43 S6 1.478289 1_555
O44 S7 1.478211 1_555
O45 S8 1.478017 1_555
O46 S9 1.489930 1_555
O47 S10 1.482816 1_555
O48 S4 1.483781 1_545
O49 S2 1.479248 1_555
O50 S3 1.483631 1_655
O51 S0 1.456028 1_555
O52 S1 1.457364 1_655
O53 Si0 1.591503 1_555
O54 Si1 1.687569 1_555
O55 Si2 1.680269 1_655
O56 S11 1.502128 1_545
O57 S12 1.476450 1_545
O58 S13 1.486988 1_555
O59 S14 1.480560 1_655
O60 S10 1.463813 1_555
O61 S8 1.462593 1_455
O62 S9 1.467574 1_565
O63 S6 1.483757 1_565
O64 S7 1.481988 1_555
O65 S5 1.480478 1_455
O66 Si0 1.750338 1_565
O67 S0 1.544471 1_555
O68 S1 1.541318 1_555
O69 S2 1.516627 1_555
O70 S3 1.497635 1_555
O71 S4 1.494966 1_555
