# generated using pymatgen
data_Sr2MgMnO4
_symmetry_space_group_name_H-M   'P 1'
_cell_length_a   3.95901139
_cell_length_b   3.95901152
_cell_length_c   9.62533474
_cell_angle_alpha   101.86788716
_cell_angle_beta   101.86789784
_cell_angle_gamma   89.99999031
_symmetry_Int_Tables_number   1
_chemical_formula_structural   Sr2MgMnO4
_chemical_formula_sum   'Sr2 Mg1 Mn1 O4'
_cell_volume   144.34359367
_cell_formula_units_Z   1
loop_
 _symmetry_equiv_pos_site_id
 _symmetry_equiv_pos_as_xyz
  1  'x, y, z'
loop_
 _atom_site_type_symbol
 _atom_site_label
 _atom_site_symmetry_multiplicity
 _atom_site_fract_x
 _atom_site_fract_y
 _atom_site_fract_z
 _atom_site_occupancy
  Sr  Sr0  1  0.68496458  0.68496358  0.36992715  1
  Sr  Sr1  1  0.31503542  0.31503642  0.63007285  1
  Mg  Mg0  1  0.50000000  0.50000000  -0.00000000  1
  Mn  Mn0  1  0.00000000  -0.00000000  -0.00000000  1
  O  O0  1  0.81113691  0.81113691  0.62227482  1
  O  O1  1  0.18886309  0.18886309  0.37772518  1
  O  O2  1  0.00000100  0.50000100  0.00000100  1
  O  O3  1  0.49999900  -0.00000000  0.00000000  1
loop_
_geom_bond_atom_site_label_1
_geom_bond_atom_site_label_2
_geom_bond_distance
_geom_bond_site_symmetry_2
Mg0 O2 1.979504 1_555
Mg0 O3 1.979506 1_565
Mg0 O3 1.979506 1_555
Mg0 O2 1.979508 1_655
Mn0 O3 1.979502 1_555
Mn0 O2 1.979504 1_545
Mn0 O2 1.979508 1_555
Mn0 O3 1.979510 1_455
O0 Sr0 2.323931 1_555
O0 Sr1 2.800362 1_655
O0 Sr1 2.800365 1_665
O0 Sr1 2.800365 1_555
O0 Sr1 2.800367 1_565
O1 Sr1 2.323931 1_555
O1 Sr0 2.800362 1_455
O1 Sr0 2.800365 1_445
O1 Sr0 2.800365 1_555
O1 Sr0 2.800367 1_545
