# generated using pymatgen
data_TiSi
_symmetry_space_group_name_H-M   'P 1'
_cell_length_a   5.57954619
_cell_length_b   5.57954619
_cell_length_c   7.60786800
_cell_angle_alpha   90.00000000
_cell_angle_beta   90.00000000
_cell_angle_gamma   98.76398725
_symmetry_Int_Tables_number   1
_chemical_formula_structural   TiSi
_chemical_formula_sum   'Ti8 Si8'
_cell_volume   234.07779446
_cell_formula_units_Z   8
loop_
 _symmetry_equiv_pos_site_id
 _symmetry_equiv_pos_as_xyz
  1  'x, y, z'
loop_
 _atom_site_type_symbol
 _atom_site_label
 _atom_site_symmetry_multiplicity
 _atom_site_fract_x
 _atom_site_fract_y
 _atom_site_fract_z
 _atom_site_occupancy
  Ti  Ti0_0  1  0.25000000  0.25000000  0.00000000  1
  Ti  Ti0_1  1  0.25000000  0.25000000  0.50000000  1
  Ti  Ti0_2  1  0.25000000  0.75000000  0.00000000  1
  Ti  Ti0_3  1  0.25000000  0.75000000  0.50000000  1
  Ti  Ti0_4  1  0.75000000  0.25000000  0.00000000  1
  Ti  Ti0_5  1  0.75000000  0.25000000  0.50000000  1
  Ti  Ti0_6  1  0.75000000  0.75000000  0.00000000  1
  Ti  Ti0_7  1  0.75000000  0.75000000  0.50000000  1
  Si  Si0_0  1  0.00000000  0.00000000  0.25000000  1
  Si  Si0_1  1  0.00000000  0.00000000  0.75000000  1
  Si  Si0_2  1  0.00000000  0.50000000  0.25000000  1
  Si  Si0_3  1  0.00000000  0.50000000  0.75000000  1
  Si  Si0_4  1  0.50000000  0.00000000  0.25000000  1
  Si  Si0_5  1  0.50000000  0.00000000  0.75000000  1
  Si  Si0_6  1  0.50000000  0.50000000  0.25000000  1
  Si  Si0_7  1  0.50000000  0.50000000  0.75000000  1
loop_
_geom_bond_atom_site_label_1
_geom_bond_atom_site_label_2
_geom_bond_distance
_geom_bond_site_symmetry_2
Ti0_0 Ti0_4 2.789773 1_555
Ti0_0 Ti0_2 2.789773 1_555
Ti0_0 Ti0_2 2.789773 1_545
Ti0_0 Ti0_4 2.789773 1_455
Ti0_1 Ti0_5 2.789773 1_555
Ti0_1 Ti0_3 2.789773 1_545
Ti0_1 Ti0_3 2.789773 1_555
Ti0_1 Ti0_5 2.789773 1_455
Ti0_2 Ti0_6 2.789773 1_555
Ti0_2 Ti0_6 2.789773 1_455
Ti0_3 Ti0_7 2.789773 1_555
Ti0_3 Ti0_7 2.789773 1_455
Ti0_4 Ti0_6 2.789773 1_545
Ti0_4 Ti0_6 2.789773 1_555
Ti0_5 Ti0_7 2.789773 1_555
Ti0_5 Ti0_7 2.789773 1_545
Si0_0 Ti0_0 2.629825 1_555
Si0_0 Ti0_1 2.629825 1_555
Si0_0 Ti0_7 2.629825 1_445
Si0_0 Ti0_6 2.629825 1_445
Si0_0 Si0_4 2.789773 1_555
Si0_0 Si0_2 2.789773 1_545
Si0_0 Si0_4 2.789773 1_455
Si0_0 Si0_2 2.789773 1_555
Si0_0 Ti0_2 2.846368 1_545
Si0_0 Ti0_4 2.846368 1_455
Si0_0 Ti0_3 2.846368 1_545
Si0_0 Ti0_5 2.846368 1_455
Si0_1 Ti0_0 2.629825 1_556
Si0_1 Ti0_1 2.629825 1_555
Si0_1 Ti0_6 2.629825 1_446
Si0_1 Ti0_7 2.629825 1_445
Si0_1 Si0_5 2.789773 1_555
Si0_1 Si0_3 2.789773 1_555
Si0_1 Si0_3 2.789773 1_545
Si0_1 Si0_5 2.789773 1_455
Si0_1 Ti0_3 2.846368 1_545
Si0_1 Ti0_5 2.846368 1_455
Si0_1 Ti0_2 2.846368 1_546
Si0_1 Ti0_4 2.846368 1_456
Si0_2 Ti0_2 2.629825 1_555
Si0_2 Ti0_3 2.629825 1_555
Si0_2 Ti0_5 2.629825 1_455
Si0_2 Ti0_4 2.629825 1_455
Si0_2 Si0_6 2.789773 1_555
Si0_2 Si0_6 2.789773 1_455
Si0_2 Ti0_1 2.846368 1_555
Si0_2 Ti0_6 2.846368 1_455
Si0_2 Ti0_7 2.846368 1_455
Si0_2 Ti0_0 2.846368 1_555
Si0_3 Ti0_2 2.629825 1_556
Si0_3 Ti0_3 2.629825 1_555
Si0_3 Ti0_4 2.629825 1_456
Si0_3 Ti0_5 2.629825 1_455
Si0_3 Si0_7 2.789773 1_455
Si0_3 Si0_7 2.789773 1_555
Si0_3 Ti0_1 2.846368 1_555
Si0_3 Ti0_6 2.846368 1_456
Si0_3 Ti0_7 2.846368 1_455
Si0_3 Ti0_0 2.846368 1_556
Si0_4 Ti0_5 2.629825 1_555
Si0_4 Ti0_4 2.629825 1_555
Si0_4 Ti0_2 2.629825 1_545
Si0_4 Ti0_3 2.629825 1_545
Si0_4 Si0_6 2.789773 1_555
Si0_4 Si0_6 2.789773 1_545
Si0_4 Ti0_1 2.846368 1_555
Si0_4 Ti0_0 2.846368 1_555
Si0_4 Ti0_6 2.846368 1_545
Si0_4 Ti0_7 2.846368 1_545
Si0_5 Ti0_5 2.629825 1_555
Si0_5 Ti0_4 2.629825 1_556
Si0_5 Ti0_2 2.629825 1_546
Si0_5 Ti0_3 2.629825 1_545
Si0_5 Si0_7 2.789773 1_555
Si0_5 Si0_7 2.789773 1_545
Si0_5 Ti0_1 2.846368 1_555
Si0_5 Ti0_0 2.846368 1_556
Si0_5 Ti0_6 2.846368 1_546
Si0_5 Ti0_7 2.846368 1_545
Si0_6 Ti0_0 2.629825 1_555
Si0_6 Ti0_1 2.629825 1_555
Si0_6 Ti0_6 2.629825 1_555
Si0_6 Ti0_7 2.629825 1_555
Si0_6 Ti0_4 2.846368 1_555
Si0_6 Ti0_3 2.846368 1_555
Si0_6 Ti0_2 2.846368 1_555
Si0_6 Ti0_5 2.846368 1_555
Si0_7 Ti0_0 2.629825 1_556
Si0_7 Ti0_1 2.629825 1_555
Si0_7 Ti0_6 2.629825 1_556
Si0_7 Ti0_7 2.629825 1_555
Si0_7 Ti0_4 2.846368 1_556
Si0_7 Ti0_3 2.846368 1_555
Si0_7 Ti0_5 2.846368 1_555
Si0_7 Ti0_2 2.846368 1_556
