# generated using pymatgen
data_Mn3IrN
_symmetry_space_group_name_H-M   'P 1'
_cell_length_a   3.90704200
_cell_length_b   3.90704200
_cell_length_c   3.90704200
_cell_angle_alpha   90.00000000
_cell_angle_beta   90.00000000
_cell_angle_gamma   90.00000000
_symmetry_Int_Tables_number   1
_chemical_formula_structural   Mn3IrN
_chemical_formula_sum   'Mn3 Ir1 N1'
_cell_volume   59.64090701
_cell_formula_units_Z   1
loop_
 _symmetry_equiv_pos_site_id
 _symmetry_equiv_pos_as_xyz
  1  'x, y, z'
loop_
 _atom_site_type_symbol
 _atom_site_label
 _atom_site_symmetry_multiplicity
 _atom_site_fract_x
 _atom_site_fract_y
 _atom_site_fract_z
 _atom_site_occupancy
  Mn  Mn0  1  0.00000000  0.50000000  0.50000000  1
  Mn  Mn1  1  0.50000000  0.50000000  0.00000000  1
  Mn  Mn2  1  0.50000000  0.00000000  0.50000000  1
  Ir  Ir0  1  0.00000000  0.00000000  0.00000000  1
  N  N0  1  0.50000000  0.50000000  0.50000000  1
loop_
_geom_bond_atom_site_label_1
_geom_bond_atom_site_label_2
_geom_bond_distance
_geom_bond_site_symmetry_2
Mn0 N0 1.953521 1_555
Mn0 N0 1.953521 1_455
Mn1 N0 1.953521 1_555
Mn1 N0 1.953521 1_554
Mn2 N0 1.953521 1_555
Mn2 N0 1.953521 1_545
Ir0 Mn2 2.762696 1_454
Ir0 Mn1 2.762696 1_555
Ir0 Mn1 2.762696 1_445
Ir0 Mn0 2.762696 1_544
Ir0 Mn0 2.762696 1_555
Ir0 Mn1 2.762696 1_455
Ir0 Mn0 2.762696 1_554
Ir0 Mn2 2.762696 1_555
Ir0 Mn2 2.762696 1_554
Ir0 Mn1 2.762696 1_545
Ir0 Mn0 2.762696 1_545
Ir0 Mn2 2.762696 1_455
