# generated using pymatgen
data_MgFe6(O2F)4
_symmetry_space_group_name_H-M   'P 1'
_cell_length_a   4.87094606
_cell_length_b   4.87849607
_cell_length_c   9.09890600
_cell_angle_alpha   90.00068736
_cell_angle_beta   90.00087799
_cell_angle_gamma   89.89449920
_symmetry_Int_Tables_number   1
_chemical_formula_structural   MgFe6(O2F)4
_chemical_formula_sum   'Mg1 Fe6 O8 F4'
_cell_volume   216.21594694
_cell_formula_units_Z   1
loop_
 _symmetry_equiv_pos_site_id
 _symmetry_equiv_pos_as_xyz
  1  'x, y, z'
loop_
 _atom_site_type_symbol
 _atom_site_label
 _atom_site_symmetry_multiplicity
 _atom_site_fract_x
 _atom_site_fract_y
 _atom_site_fract_z
 _atom_site_occupancy
  Mg  Mg0  1  0.00000000  0.49999800  0.58527700  1
  Fe  Fe0  1  0.99998900  0.99998000  0.02088700  1
  Fe  Fe1  1  0.00000000  0.00000400  0.32259600  1
  Fe  Fe2  1  0.00000300  0.00000400  0.65928100  1
  Fe  Fe3  1  0.50002300  0.49999000  0.15115300  1
  Fe  Fe4  1  0.50000300  0.50000200  0.84732200  1
  Fe  Fe5  1  0.49999500  0.49999900  0.50501600  1
  O  O0  1  0.20015800  0.80038400  0.17149500  1
  O  O1  1  0.19256400  0.79807100  0.49858700  1
  O  O2  1  0.30664600  0.30425200  0.99862500  1
  O  O3  1  0.30108200  0.30487800  0.66618300  1
  O  O4  1  0.69336900  0.69577600  0.99862500  1
  O  O5  1  0.69892100  0.69512500  0.66618200  1
  O  O6  1  0.79983800  0.19961400  0.17149600  1
  O  O7  1  0.80742800  0.20192600  0.49858600  1
  F  F0  1  0.18477300  0.80485400  0.82853500  1
  F  F1  1  0.30658000  0.31403000  0.33367000  1
  F  F2  1  0.69339500  0.68596000  0.33366300  1
  F  F3  1  0.81523100  0.19515500  0.82853500  1
loop_
_geom_bond_atom_site_label_1
_geom_bond_atom_site_label_2
_geom_bond_distance
_geom_bond_site_symmetry_2
Mg0 O3 1.895692 1_555
Mg0 O5 1.895703 1_455
Mg0 O7 1.903039 1_455
Mg0 O1 1.903046 1_555
Fe0 O0 1.942472 1_655
Fe0 O6 1.942532 1_565
Fe0 O4 2.117129 1_554
Fe0 O2 2.117497 1_664
Fe1 O6 1.945650 1_455
Fe1 O0 1.945676 1_545
Fe1 O7 2.100251 1_455
Fe1 O1 2.100261 1_545
Fe2 O1 1.996170 1_545
Fe2 O7 1.996179 1_455
Fe2 O3 2.091614 1_555
Fe2 O5 2.091644 1_445
Fe3 O2 1.930910 1_554
Fe3 O4 1.930989 1_554
Fe3 O6 2.075197 1_555
Fe3 O0 2.075430 1_555
Fe4 O2 1.922933 1_555
Fe4 O4 1.922975 1_555
Fe4 O3 2.136523 1_555
Fe4 O5 2.136562 1_555
Fe5 O5 1.999696 1_555
Fe5 O3 1.999699 1_555
Fe5 O1 2.086236 1_555
Fe5 O7 2.086247 1_555
F0 Fe2 2.021115 1_565
F0 Fe4 2.142497 1_555
F0 Fe0 2.185478 1_456
F1 Fe5 2.035785 1_555
F1 Fe3 2.114718 1_555
F1 Fe1 2.143727 1_555
F2 Fe5 2.035821 1_555
F2 Fe3 2.114494 1_555
F2 Fe1 2.143875 1_665
F3 Fe2 2.021125 1_655
F3 Fe4 2.142474 1_555
F3 Fe0 2.185526 1_546
