# generated using pymatgen
data_NaZrGaSi(SO6)2
_symmetry_space_group_name_H-M   'P 1'
_cell_length_a   8.75763668
_cell_length_b   8.80747828
_cell_length_c   23.03962263
_cell_angle_alpha   89.04347901
_cell_angle_beta   90.00000000
_cell_angle_gamma   119.81297737
_symmetry_Int_Tables_number   1
_chemical_formula_structural   NaZrGaSi(SO6)2
_chemical_formula_sum   'Na6 Zr6 Ga6 Si6 S12 O72'
_cell_volume   1541.62759211
_cell_formula_units_Z   6
loop_
 _symmetry_equiv_pos_site_id
 _symmetry_equiv_pos_as_xyz
  1  'x, y, z'
loop_
 _atom_site_type_symbol
 _atom_site_label
 _atom_site_symmetry_multiplicity
 _atom_site_fract_x
 _atom_site_fract_y
 _atom_site_fract_z
 _atom_site_occupancy
  Na  Na0  1  0.01634897  0.01192528  0.50497866  1
  Na  Na1  1  0.99557631  0.01192528  0.00497866  1
  Na  Na2  1  0.67906042  0.32970462  0.83729889  1
  Na  Na3  1  0.65064520  0.32970462  0.33729889  1
  Na  Na4  1  0.34165149  0.68394853  0.17084544  1
  Na  Na5  1  0.34229604  0.68394853  0.67084544  1
  Zr  Zr0  1  0.01892892  0.01270588  0.35530776  1
  Zr  Zr1  1  0.99377696  0.01270588  0.85530776  1
  Zr  Zr2  1  0.65902437  0.31174437  0.68751505  1
  Zr  Zr3  1  0.65272100  0.31174437  0.18751505  1
  Zr  Zr4  1  0.33443880  0.66597126  0.02089561  1
  Zr  Zr5  1  0.33153146  0.66597126  0.52089561  1
  Ga  Ga0  1  0.99553539  0.99351298  0.65005068  1
  Ga  Ga1  1  0.99797758  0.99351298  0.15005068  1
  Ga  Ga2  1  0.70016102  0.32386824  0.98149201  1
  Ga  Ga3  1  0.62370822  0.32386824  0.48149201  1
  Ga  Ga4  1  0.34019154  0.67235626  0.31455136  1
  Ga  Ga5  1  0.33216372  0.67235626  0.81455136  1
  Si  Si0  1  0.27984456  0.97974134  0.24788184  1
  Si  Si1  1  0.69989677  0.97974134  0.74788184  1
  Si  Si2  1  0.35780887  0.03863892  0.58422500  1
  Si  Si3  1  0.68083105  0.03863892  0.08422500  1
  Si  Si4  1  0.04680942  0.39102823  0.91420051  1
  Si  Si5  1  0.34421781  0.39102823  0.41420051  1
  S  S0  1  0.70755931  0.71230582  0.24985497  1
  S  S1  1  0.00849664  0.29648695  0.24870597  1
  S  S2  1  0.28799031  0.29648695  0.74870597  1
  S  S3  1  0.00474651  0.71230582  0.74985497  1
  S  S4  1  0.94922893  0.32601011  0.58078640  1
  S  S5  1  0.67561208  0.62652247  0.58227605  1
  S  S6  1  0.95091139  0.62652247  0.08227605  1
  S  S7  1  0.37678218  0.32601011  0.08078640  1
  S  S8  1  0.62131678  0.65387832  0.91673476  1
  S  S9  1  0.34140166  0.96427091  0.91551368  1
  S  S10  1  0.62286824  0.96427091  0.41551368  1
  S  S11  1  0.03256055  0.65387832  0.41673476  1
  O  O0  1  0.19609783  0.01733660  0.30553789  1
  O  O1  1  0.81203001  0.79387866  0.30205826  1
  O  O2  1  0.97192639  0.18473637  0.30185537  1
  O  O3  1  0.21280997  0.18473637  0.80185537  1
  O  O4  1  0.98184865  0.79387866  0.80205826  1
  O  O5  1  0.82123877  0.01733660  0.80553789  1
  O  O6  1  0.79897794  0.96267098  0.69070205  1
  O  O7  1  0.18427681  0.21269190  0.69695176  1
  O  O8  1  0.03297946  0.81934738  0.69646937  1
  O  O9  1  0.78636792  0.81934738  0.19646937  1
  O  O10  1  0.02841509  0.21269190  0.19695176  1
  O  O11  1  0.16369305  0.96267098  0.19070205  1
  O  O12  1  0.87342748  0.35681600  0.63427712  1
  O  O13  1  0.48525794  0.12848091  0.64038611  1
  O  O14  1  0.64946910  0.52073614  0.63543854  1
  O  O15  1  0.87126804  0.52073614  0.13543854  1
  O  O16  1  0.64322397  0.12848091  0.14038611  1
  O  O17  1  0.48338952  0.35681600  0.13427712  1
  O  O18  1  0.46478137  0.31135884  0.02902472  1
  O  O19  1  0.84529294  0.54638915  0.02981645  1
  O  O20  1  0.70717936  0.15756010  0.02635685  1
  O  O21  1  0.45038174  0.15756010  0.52635685  1
  O  O22  1  0.70109720  0.54638915  0.52981645  1
  O  O23  1  0.84657847  0.31135884  0.52902472  1
  O  O24  1  0.54537358  0.69195106  0.96862376  1
  O  O25  1  0.16040729  0.47368299  0.97271104  1
  O  O26  1  0.31571274  0.85551453  0.96850901  1
  O  O27  1  0.53980079  0.85551453  0.46850901  1
  O  O28  1  0.31327471  0.47368299  0.47271104  1
  O  O29  1  0.14657648  0.69195106  0.46862376  1
  O  O30  1  0.11703752  0.63694321  0.36409056  1
  O  O31  1  0.51538625  0.88730589  0.36354458  1
  O  O32  1  0.36340256  0.50726737  0.35648303  1
  O  O33  1  0.14386381  0.50726737  0.85648303  1
  O  O34  1  0.37191865  0.88730589  0.86354458  1
  O  O35  1  0.51990469  0.63694321  0.86409056  1
  O  O36  1  0.00751678  0.81038223  0.41141919  1
  O  O37  1  0.79559769  0.97214394  0.41024085  1
  O  O38  1  0.16818979  0.19260837  0.41135005  1
  O  O39  1  0.02441857  0.19260837  0.91135005  1
  O  O40  1  0.17654625  0.97214394  0.91024085  1
  O  O41  1  0.80286544  0.81038223  0.91141919  1
  O  O42  1  0.96851182  0.17019724  0.58800469  1
  O  O43  1  0.16585717  0.02289428  0.59475495  1
  O  O44  1  0.82928311  0.80308012  0.58666055  1
  O  O45  1  0.97379701  0.80308012  0.08666055  1
  O  O46  1  0.85703711  0.02289428  0.09475495  1
  O  O47  1  0.20168541  0.17019724  0.08800469  1
  O  O48  1  0.68630676  0.16028765  0.74495245  1
  O  O49  1  0.46941455  0.32040384  0.74417567  1
  O  O50  1  0.84380511  0.53777889  0.74406074  1
  O  O51  1  0.69397478  0.53777889  0.24406074  1
  O  O52  1  0.85099029  0.32040384  0.24417567  1
  O  O53  1  0.47398189  0.16028765  0.24495245  1
  O  O54  1  0.63313720  0.49530970  0.92601389  1
  O  O55  1  0.84997208  0.36947129  0.91886552  1
  O  O56  1  0.49252375  0.14181574  0.92258109  1
  O  O57  1  0.64929299  0.14181574  0.42258109  1
  O  O58  1  0.51950022  0.36947129  0.41886552  1
  O  O59  1  0.86217350  0.49530970  0.42601389  1
  O  O60  1  0.35637325  0.48510792  0.07734183  1
  O  O61  1  0.12911161  0.64248211  0.07739227  1
  O  O62  1  0.50380382  0.84628409  0.07770483  1
  O  O63  1  0.34247927  0.84628409  0.57770483  1
  O  O64  1  0.51336950  0.64248211  0.57739227  1
  O  O65  1  0.12873366  0.48510792  0.57734183  1
  O  O66  1  0.30662248  0.81084923  0.25899894  1
  O  O67  1  0.52946340  0.69136868  0.25460486  1
  O  O68  1  0.16585907  0.46824611  0.25492651  1
  O  O69  1  0.30238604  0.46824611  0.75492651  1
  O  O70  1  0.16190428  0.69136868  0.75460486  1
  O  O71  1  0.50422575  0.81084923  0.75899894  1
loop_
_geom_bond_atom_site_label_1
_geom_bond_atom_site_label_2
_geom_bond_distance
_geom_bond_site_symmetry_2
Na0 O43 2.425473 1_555
Na0 O42 2.539201 1_455
Na0 O44 2.548915 1_445
Na0 O38 2.595247 1_555
Na0 O36 2.791889 1_545
Na0 O37 2.824277 1_445
Na1 O46 2.425473 1_555
Na1 O47 2.539201 1_655
Na1 O45 2.548915 1_545
Na1 O39 2.595247 1_654
Na1 O41 2.791889 1_544
Na1 O40 2.824277 1_644
Na2 O55 2.322793 1_555
Na2 O56 2.543867 1_555
Na2 O48 2.637697 1_555
Na2 O54 2.673901 1_555
Na2 O50 2.700774 1_555
Na2 O49 2.799501 1_555
Na3 O58 2.322793 1_555
Na3 O57 2.543867 1_555
Na3 O53 2.637697 1_555
Na3 O59 2.673901 1_555
Na3 O51 2.700774 1_555
Na3 O52 2.799501 1_555
Na4 O66 2.425919 1_555
Na4 O67 2.516148 1_555
Na4 O62 2.558224 1_555
Na4 O68 2.588626 1_555
Na4 O61 2.753953 1_555
Na4 O60 2.841663 1_555
Na5 O71 2.425919 1_555
Na5 O70 2.516148 1_555
Na5 O63 2.558224 1_555
Na5 O69 2.588626 1_555
Na5 O64 2.753953 1_555
Na5 O65 2.841663 1_555
Ga0 O6 1.854911 1_555
Ga0 O43 1.876200 1_665
Ga0 O8 2.012394 1_655
Ga0 O7 2.126781 1_665
Ga0 O44 2.172461 1_555
Ga0 O42 2.193862 1_565
Ga1 O11 1.854911 1_655
Ga1 O46 1.876200 1_565
Ga1 O9 2.012394 1_555
Ga1 O10 2.126781 1_665
Ga1 O45 2.172461 1_555
Ga1 O47 2.193862 1_665
Ga2 O20 1.804640 1_556
Ga2 O55 1.849662 1_555
Ga2 O19 2.071725 1_556
Ga2 O56 2.212078 1_555
Ga2 O54 2.252813 1_555
Ga2 O18 2.287105 1_556
Ga3 O21 1.804640 1_555
Ga3 O58 1.849662 1_555
Ga3 O22 2.071725 1_555
Ga3 O57 2.212078 1_555
Ga3 O59 2.252813 1_555
Ga3 O23 2.287105 1_555
Ga4 O32 1.826419 1_555
Ga4 O66 1.875335 1_555
Ga4 O31 2.096520 1_555
Ga4 O67 2.097484 1_555
Ga4 O30 2.145066 1_555
Ga4 O68 2.191611 1_555
Ga5 O33 1.826419 1_555
Ga5 O71 1.875335 1_555
Ga5 O34 2.096520 1_555
Ga5 O70 2.097484 1_555
Ga5 O35 2.145066 1_555
Ga5 O69 2.191611 1_555
O0 Si0 1.633490 1_545
O0 Zr0 1.912970 1_555
O1 S0 1.474817 1_555
O1 Zr0 2.260391 1_665
O2 S1 1.489002 1_655
O2 Zr0 2.130643 1_655
O3 S2 1.489002 1_555
O3 Zr1 2.130643 1_455
O4 S3 1.474817 1_655
O4 Zr1 2.260391 1_565
O5 Si1 1.633490 1_545
O5 Zr1 1.912970 1_555
O6 Si1 1.627088 1_555
O7 S2 1.467757 1_555
O8 S3 1.480643 1_555
O9 S0 1.480643 1_555
O10 S1 1.467757 1_555
O11 Si0 1.627088 1_555
O12 S4 1.491102 1_555
O12 Zr2 2.104828 1_555
O13 Si2 1.643828 1_555
O13 Zr2 1.927761 1_555
O14 S5 1.473274 1_555
O14 Zr2 2.216787 1_555
O15 S6 1.473274 1_555
O15 Zr3 2.216787 1_555
O16 Si3 1.643828 1_555
O16 Zr3 1.927761 1_555
O17 S7 1.491102 1_555
O17 Zr3 2.104828 1_555
O18 S7 1.461787 1_555
O19 S6 1.481172 1_555
O20 Si3 1.625092 1_555
O21 Si2 1.625092 1_555
O22 S5 1.481172 1_555
O23 S4 1.461787 1_555
O24 S8 1.489680 1_555
O24 Zr4 2.117955 1_556
O25 Si4 1.627753 1_555
O25 Zr4 1.979830 1_556
O26 S9 1.485135 1_555
O26 Zr4 2.115540 1_556
O27 S10 1.485135 1_555
O27 Zr5 2.115540 1_555
O28 Si5 1.627753 1_555
O28 Zr5 1.979830 1_555
O29 S11 1.489680 1_555
O29 Zr5 2.117955 1_555
O30 S11 1.468494 1_555
O31 S10 1.473707 1_555
O32 Si5 1.621170 1_555
O33 Si4 1.621170 1_555
O34 S9 1.473707 1_555
O35 S8 1.468494 1_555
O36 S11 1.502688 1_555
O36 Zr0 2.145383 1_565
O37 S10 1.484336 1_555
O37 Zr0 2.201127 1_665
O38 Si5 1.661286 1_555
O38 Zr0 1.973654 1_555
O39 Si4 1.661289 1_555
O39 Zr1 1.973654 1_455
O40 S9 1.484327 1_555
O40 Zr1 2.201127 1_465
O41 S8 1.502693 1_555
O41 Zr1 2.145383 1_565
O42 S4 1.470459 1_555
O43 Si2 1.634343 1_555
O44 S5 1.470992 1_555
O45 S6 1.470996 1_555
O46 Si3 1.634335 1_555
O47 S7 1.470464 1_555
O48 Si1 1.652853 1_545
O48 Zr2 1.961049 1_555
O49 S2 1.498725 1_555
O49 Zr2 2.143972 1_555
O50 S3 1.489894 1_655
O50 Zr2 2.272107 1_555
O51 S0 1.489898 1_555
O51 Zr3 2.272107 1_555
O52 S1 1.498716 1_655
O52 Zr3 2.143972 1_555
O53 Si0 1.652858 1_545
O53 Zr3 1.961049 1_555
O54 S8 1.463103 1_555
O55 Si4 1.641058 1_655
O56 S9 1.474446 1_545
O57 S10 1.474439 1_545
O58 Si5 1.641075 1_555
O59 S11 1.463094 1_655
O60 S7 1.499022 1_555
O60 Zr4 2.121506 1_555
O61 S6 1.499759 1_455
O61 Zr4 2.142821 1_555
O62 Si3 1.641078 1_565
O62 Zr4 2.040191 1_555
O63 Si2 1.641071 1_565
O63 Zr5 2.040191 1_555
O64 S5 1.499777 1_555
O64 Zr5 2.142821 1_555
O65 S4 1.499012 1_455
O65 Zr5 2.121506 1_555
O66 Si0 1.633230 1_555
O67 S0 1.480535 1_555
O68 S1 1.463722 1_555
O69 S2 1.463726 1_555
O70 S3 1.480526 1_555
O71 Si1 1.633235 1_555
