# generated using pymatgen
data_Na2Ga4SiS5O24
_symmetry_space_group_name_H-M   'P 1'
_cell_length_a   8.53510282
_cell_length_b   8.52481523
_cell_length_c   22.23112087
_cell_angle_alpha   89.10499426
_cell_angle_beta   90.46855183
_cell_angle_gamma   119.70151028
_symmetry_Int_Tables_number   1
_chemical_formula_structural   Na2Ga4SiS5O24
_chemical_formula_sum   'Na6 Ga12 Si3 S15 O72'
_cell_volume   1404.85370212
_cell_formula_units_Z   3
loop_
 _symmetry_equiv_pos_site_id
 _symmetry_equiv_pos_as_xyz
  1  'x, y, z'
loop_
 _atom_site_type_symbol
 _atom_site_label
 _atom_site_symmetry_multiplicity
 _atom_site_fract_x
 _atom_site_fract_y
 _atom_site_fract_z
 _atom_site_occupancy
  Na  Na0  1  0.99362446  0.99151374  0.50362224  1
  Na  Na1  1  0.00001369  0.99990581  0.99884236  1
  Na  Na2  1  0.66812327  0.32623181  0.82734018  1
  Na  Na3  1  0.65769220  0.32631708  0.33380065  1
  Na  Na4  1  0.33143594  0.67393614  0.17076988  1
  Na  Na5  1  0.34901525  0.67218016  0.66547327  1
  Ga  Ga0  1  0.01310321  0.00297553  0.35150479  1
  Ga  Ga1  1  0.99295291  0.00293969  0.84230341  1
  Ga  Ga2  1  0.97173990  0.98080581  0.64587133  1
  Ga  Ga3  1  0.00550048  0.99705588  0.15421274  1
  Ga  Ga4  1  0.66360731  0.32895804  0.68396738  1
  Ga  Ga5  1  0.65672189  0.32496660  0.18924508  1
  Ga  Ga6  1  0.66790812  0.33323765  0.98138484  1
  Ga  Ga7  1  0.66809094  0.34219758  0.48731841  1
  Ga  Ga8  1  0.33222426  0.66627805  0.01621567  1
  Ga  Ga9  1  0.34367875  0.66522056  0.52248056  1
  Ga  Ga10  1  0.33276550  0.67862439  0.31577682  1
  Ga  Ga11  1  0.34268456  0.67268533  0.80875262  1
  Si  Si0  1  0.29141197  0.99822837  0.25038813  1
  Si  Si1  1  0.70785499  0.00698427  0.74970640  1
  Si  Si2  1  0.66808389  0.62158517  0.58405468  1
  S  S0  1  0.70966510  0.71006998  0.25016716  1
  S  S1  1  0.00114080  0.29054435  0.24980339  1
  S  S2  1  0.28781209  0.28777179  0.74994522  1
  S  S3  1  0.00037923  0.71002054  0.75103920  1
  S  S4  1  0.95901056  0.33440098  0.58241805  1
  S  S5  1  0.37297815  0.04157228  0.58290403  1
  S  S6  1  0.95483916  0.62192429  0.08320449  1
  S  S7  1  0.66817611  0.04115355  0.08331664  1
  S  S8  1  0.37538584  0.33463024  0.08220001  1
  S  S9  1  0.62486373  0.66598243  0.91778377  1
  S  S10  1  0.04473548  0.37729566  0.91700439  1
  S  S11  1  0.33157002  0.95876175  0.91684886  1
  S  S12  1  0.62842304  0.96157198  0.41650806  1
  S  S13  1  0.33177790  0.37757773  0.41573229  1
  S  S14  1  0.04216684  0.66336725  0.41764794  1
  O  O0  1  0.20612344  0.03909608  0.30891592  1
  O  O1  1  0.81956749  0.78981424  0.30426212  1
  O  O2  1  0.96036787  0.17520321  0.30415058  1
  O  O3  1  0.21531924  0.17795904  0.80743407  1
  O  O4  1  0.97300616  0.78856118  0.80753826  1
  O  O5  1  0.82266070  0.04422646  0.81288103  1
  O  O6  1  0.79654485  0.96617460  0.69282011  1
  O  O7  1  0.17865211  0.20679481  0.69658106  1
  O  O8  1  0.04123305  0.82564208  0.69740543  1
  O  O9  1  0.78155014  0.82269803  0.19404549  1
  O  O10  1  0.02878873  0.21205970  0.19401134  1
  O  O11  1  0.17220691  0.95846704  0.18856551  1
  O  O12  1  0.88062745  0.36396733  0.63643180  1
  O  O13  1  0.48688689  0.11381918  0.63660607  1
  O  O14  1  0.63087042  0.49625442  0.64350706  1
  O  O15  1  0.87397358  0.50846464  0.13746260  1
  O  O16  1  0.63590472  0.12153781  0.13640972  1
  O  O17  1  0.48875097  0.36847109  0.13611022  1
  O  O18  1  0.45582243  0.30248791  0.02778509  1
  O  O19  1  0.84490723  0.54124820  0.02792798  1
  O  O20  1  0.70059590  0.15305283  0.02748930  1
  O  O21  1  0.45228180  0.14955533  0.52646977  1
  O  O22  1  0.70486298  0.54384073  0.52222613  1
  O  O23  1  0.84535723  0.29468961  0.52702049  1
  O  O24  1  0.54542388  0.69758435  0.97312612  1
  O  O25  1  0.15354630  0.45727514  0.97307736  1
  O  O26  1  0.29983133  0.84808781  0.97359745  1
  O  O27  1  0.54770690  0.84793924  0.47035129  1
  O  O28  1  0.30142632  0.45806289  0.46927227  1
  O  O29  1  0.15701287  0.69546599  0.47108195  1
  O  O30  1  0.12142927  0.63455724  0.36237721  1
  O  O31  1  0.51815030  0.88378813  0.36143745  1
  O  O32  1  0.36263309  0.49030263  0.36012275  1
  O  O33  1  0.12594413  0.49177956  0.86353616  1
  O  O34  1  0.36432365  0.87768763  0.86456932  1
  O  O35  1  0.51019499  0.63174288  0.86469068  1
  O  O36  1  0.02033316  0.82657575  0.41156492  1
  O  O37  1  0.81005300  0.97777007  0.40875999  1
  O  O38  1  0.16471707  0.19715473  0.41091476  1
  O  O39  1  0.02876144  0.19700386  0.91340517  1
  O  O40  1  0.16906963  0.97862943  0.91072469  1
  O  O41  1  0.80721048  0.82539855  0.91250064  1
  O  O42  1  0.98850157  0.17817927  0.58828070  1
  O  O43  1  0.19718299  0.03226054  0.59022342  1
  O  O44  1  0.84956844  0.81898248  0.58660336  1
  O  O45  1  0.97002694  0.80263631  0.08735351  1
  O  O46  1  0.83194693  0.02219645  0.09012578  1
  O  O47  1  0.19270773  0.17434292  0.08791612  1
  O  O48  1  0.68700724  0.18517242  0.74196201  1
  O  O49  1  0.47002778  0.31163613  0.74671576  1
  O  O50  1  0.83776509  0.53319833  0.74620065  1
  O  O51  1  0.70117001  0.53306599  0.24232071  1
  O  O52  1  0.84171455  0.31591135  0.24207359  1
  O  O53  1  0.49014236  0.17856354  0.24358837  1
  O  O54  1  0.64067028  0.49869572  0.92522187  1
  O  O55  1  0.86161082  0.36008393  0.92400336  1
  O  O56  1  0.49689534  0.14043272  0.92469099  1
  O  O57  1  0.64645083  0.14335408  0.42309305  1
  O  O58  1  0.49252615  0.35400372  0.42067235  1
  O  O59  1  0.86208101  0.49832486  0.42187994  1
  O  O60  1  0.35854626  0.50113283  0.07515338  1
  O  O61  1  0.13814275  0.64045813  0.07663946  1
  O  O62  1  0.50401178  0.85955231  0.07593581  1
  O  O63  1  0.34897624  0.85772234  0.57531800  1
  O  O64  1  0.48812903  0.64182634  0.57799288  1
  O  O65  1  0.13523796  0.50258751  0.57438076  1
  O  O66  1  0.31200550  0.81842713  0.25658517  1
  O  O67  1  0.52610935  0.68371512  0.25652725  1
  O  O68  1  0.16615692  0.46689065  0.25648885  1
  O  O69  1  0.29658742  0.46575353  0.75782532  1
  O  O70  1  0.16106404  0.68632342  0.75878384  1
  O  O71  1  0.51124905  0.82420605  0.75672150  1
loop_
_geom_bond_atom_site_label_1
_geom_bond_atom_site_label_2
_geom_bond_distance
_geom_bond_site_symmetry_2
Na0 O44 2.288762 1_555
Na0 O43 2.492767 1_665
Na0 O42 2.498017 1_565
Na0 O36 2.575357 1_655
Na0 O37 2.586077 1_555
Na0 O38 2.617794 1_665
Na1 O39 2.447514 1_565
Na1 O41 2.493402 1_455
Na1 O45 2.498753 1_456
Na1 O40 2.503810 1_555
Na1 O47 2.540195 1_566
Na1 O46 2.557689 1_466
Na2 O48 2.311487 1_555
Na2 O49 2.415718 1_555
Na2 O50 2.423822 1_555
Na2 O55 2.630112 1_555
Na2 O56 2.641815 1_555
Na2 O54 2.720512 1_555
Na3 O53 2.429140 1_555
Na3 O57 2.478013 1_555
Na3 O58 2.482180 1_555
Na3 O59 2.554694 1_555
Na3 O51 2.575321 1_555
Na3 O52 2.613280 1_555
Na4 O66 2.337806 1_555
Na4 O68 2.491636 1_555
Na4 O67 2.493650 1_555
Na4 O61 2.584164 1_555
Na4 O62 2.599059 1_555
Na4 O60 2.680616 1_555
Na5 O64 2.370001 1_555
Na5 O71 2.443323 1_555
Na5 O63 2.533835 1_555
Na5 O69 2.575646 1_555
Na5 O65 2.633879 1_555
Na5 O70 2.673009 1_555
Ga0 O0 1.794165 1_555
Ga0 O2 2.016264 1_455
Ga0 O36 2.018862 1_545
Ga0 O38 2.019085 1_555
Ga0 O1 2.047050 1_445
Ga0 O37 2.080457 1_445
Ga1 O5 1.774391 1_555
Ga1 O3 1.900238 1_655
Ga1 O4 1.923500 1_545
Ga1 O41 2.197335 1_545
Ga1 O40 2.208536 1_645
Ga1 O39 2.213952 1_655
Ga2 O6 1.782554 1_555
Ga2 O44 1.826269 1_555
Ga2 O8 2.032979 1_655
Ga2 O42 2.046425 1_565
Ga2 O43 2.147303 1_665
Ga2 O7 2.182872 1_665
Ga3 O11 1.776004 1_555
Ga3 O9 1.954018 1_455
Ga3 O10 1.966847 1_565
Ga3 O46 2.130859 1_465
Ga3 O47 2.141338 1_565
Ga3 O45 2.149463 1_455
Ga4 O14 1.808811 1_555
Ga4 O48 1.842176 1_555
Ga4 O13 2.010053 1_555
Ga4 O12 2.027598 1_555
Ga4 O49 2.118268 1_555
Ga4 O50 2.152220 1_555
Ga5 O53 1.805878 1_555
Ga5 O52 1.991459 1_555
Ga5 O17 2.018352 1_555
Ga5 O51 2.018518 1_555
Ga5 O16 2.042923 1_555
Ga5 O15 2.077205 1_555
Ga6 O20 1.964333 1_556
Ga6 O54 1.966635 1_555
Ga6 O19 1.968342 1_556
Ga6 O18 1.990318 1_556
Ga6 O55 2.015789 1_555
Ga6 O56 2.019345 1_555
Ga7 O22 1.777262 1_555
Ga7 O23 1.950994 1_555
Ga7 O21 1.957364 1_555
Ga7 O59 2.103414 1_555
Ga7 O58 2.135226 1_555
Ga7 O57 2.169597 1_555
Ga8 O26 1.936686 1_554
Ga8 O25 1.938240 1_554
Ga8 O24 1.959430 1_554
Ga8 O60 2.000052 1_555
Ga8 O61 2.064636 1_555
Ga8 O62 2.066318 1_555
Ga9 O64 1.814910 1_555
Ga9 O65 1.989431 1_555
Ga9 O63 2.015107 1_555
Ga9 O28 2.018693 1_555
Ga9 O27 2.022475 1_555
Ga9 O29 2.068466 1_555
Ga10 O66 1.827514 1_555
Ga10 O30 1.953177 1_555
Ga10 O31 1.969714 1_555
Ga10 O32 1.991543 1_555
Ga10 O67 2.103057 1_555
Ga10 O68 2.125438 1_555
Ga11 O71 1.793126 1_555
Ga11 O70 1.948562 1_555
Ga11 O69 1.978844 1_555
Ga11 O35 2.040645 1_555
Ga11 O34 2.090966 1_555
Ga11 O33 2.105901 1_555
O0 Si0 1.620251 1_545
O1 S0 1.470862 1_555
O2 S1 1.475918 1_655
O3 S2 1.514642 1_555
O4 S3 1.505519 1_655
O5 Si1 1.648198 1_555
O6 Si1 1.607403 1_565
O7 S2 1.456762 1_555
O8 S3 1.464333 1_555
O9 S0 1.498751 1_555
O10 S1 1.492950 1_555
O11 Si0 1.639794 1_555
O12 S4 1.463789 1_555
O13 S5 1.469846 1_555
O14 Si2 1.617326 1_555
O15 S6 1.477322 1_555
O16 S7 1.468410 1_555
O17 S8 1.473441 1_555
O18 S8 1.490016 1_555
O19 S6 1.493833 1_555
O20 S7 1.494634 1_555
O21 S5 1.496632 1_555
O22 Si2 1.633638 1_555
O23 S4 1.496785 1_555
O24 S9 1.500333 1_555
O25 S10 1.503805 1_555
O26 S11 1.506738 1_555
O27 S12 1.470280 1_555
O28 S13 1.470125 1_555
O29 S14 1.473813 1_555
O30 S14 1.488436 1_555
O31 S12 1.487432 1_555
O32 S13 1.496185 1_555
O33 S10 1.467210 1_555
O34 S11 1.458934 1_555
O35 S9 1.464582 1_555
O36 S14 1.496475 1_555
O37 S12 1.497814 1_555
O38 S13 1.496541 1_555
O39 S10 1.477575 1_555
O40 S11 1.483188 1_555
O41 S9 1.478150 1_555
O42 S4 1.476536 1_555
O43 S5 1.472966 1_555
O44 Si2 1.628745 1_555
O45 S6 1.484895 1_555
O46 S7 1.490807 1_555
O47 S8 1.483530 1_555
O48 Si1 1.621082 1_555
O49 S2 1.467350 1_555
O50 S3 1.462703 1_655
O51 S0 1.487327 1_555
O52 S1 1.488106 1_655
O53 Si0 1.635901 1_545
O54 S9 1.504060 1_555
O55 S10 1.504883 1_655
O56 S11 1.502943 1_545
O57 S12 1.488952 1_545
O58 S13 1.484896 1_555
O59 S14 1.485299 1_655
O60 S8 1.501584 1_555
O61 S6 1.500676 1_455
O62 S7 1.497150 1_565
O63 S5 1.488730 1_565
O64 Si2 1.632650 1_555
O65 S4 1.486372 1_455
O66 Si0 1.630721 1_555
O67 S0 1.476056 1_555
O68 S1 1.473467 1_555
O69 S2 1.494609 1_555
O70 S3 1.490289 1_555
O71 Si1 1.635137 1_565
