# generated using pymatgen
data_Na5Y3Si3Ge(SO8)3
_symmetry_space_group_name_H-M   'P 1'
_cell_length_a   9.31893665
_cell_length_b   9.18363368
_cell_length_c   23.16880128
_cell_angle_alpha   92.69613924
_cell_angle_beta   89.27169328
_cell_angle_gamma   119.83850053
_symmetry_Int_Tables_number   1
_chemical_formula_structural   Na5Y3Si3Ge(SO8)3
_chemical_formula_sum   'Na15 Y9 Si9 Ge3 S9 O72'
_cell_volume   1717.93007583
_cell_formula_units_Z   3
loop_
 _symmetry_equiv_pos_site_id
 _symmetry_equiv_pos_as_xyz
  1  'x, y, z'
loop_
 _atom_site_type_symbol
 _atom_site_label
 _atom_site_symmetry_multiplicity
 _atom_site_fract_x
 _atom_site_fract_y
 _atom_site_fract_z
 _atom_site_occupancy
  Na  Na0  1  0.65749659  0.01577936  0.26150429  1
  Na  Na1  1  -0.00164457  0.62223955  0.24744633  1
  Na  Na2  1  0.64977504  0.65605849  0.74174891  1
  Na  Na3  1  0.35800169  0.00850456  0.76583236  1
  Na  Na4  1  0.66417164  0.94097907  0.58369887  1
  Na  Na5  1  0.98226893  0.68140454  0.92330620  1
  Na  Na6  1  0.70085575  0.02418011  0.91616517  1
  Na  Na7  1  0.97368686  0.31972952  0.40647495  1
  Na  Na8  1  0.69484133  0.68329745  0.43522907  1
  Na  Na9  1  0.00768396  0.96461095  0.50359665  1
  Na  Na10  1  0.00766415  0.97547913  0.99673804  1
  Na  Na11  1  0.64741279  0.31970331  0.83451895  1
  Na  Na12  1  0.66394633  0.31287860  0.34037525  1
  Na  Na13  1  0.27148116  0.60933915  0.15910456  1
  Na  Na14  1  0.32361181  0.61418726  0.67530042  1
  Y  Y0  1  0.99543439  0.00555946  0.35407220  1
  Y  Y1  1  0.01264675  0.01604583  0.85078254  1
  Y  Y2  1  0.00051825  0.00995535  0.65245174  1
  Y  Y3  1  -0.00017375  -0.00488871  0.14032119  1
  Y  Y4  1  0.65891832  0.33763122  0.68794175  1
  Y  Y5  1  0.67593375  0.33548068  0.18092695  1
  Y  Y6  1  0.32938903  0.67036308  0.01835422  1
  Y  Y7  1  0.33365625  0.67073084  0.51716809  1
  Y  Y8  1  0.32175862  0.67067375  0.32241020  1
  Si  Si0  1  0.00120186  0.30425940  0.25256162  1
  Si  Si1  1  0.30014533  0.32204306  0.75510474  1
  Si  Si2  1  0.69195563  0.99915357  0.75434787  1
  Si  Si3  1  0.67328253  0.62920020  0.58221216  1
  Si  Si4  1  0.94429038  0.61494499  0.07775399  1
  Si  Si5  1  0.63787465  0.66613176  0.91829663  1
  Si  Si6  1  0.35078411  0.96817892  0.91845586  1
  Si  Si7  1  0.63538884  0.98733269  0.42161475  1
  Si  Si8  1  0.01847369  0.66190950  0.41896064  1
  Ge  Ge0  1  0.64328016  0.35319977  0.97490494  1
  Ge  Ge1  1  0.70252606  0.35640705  0.48256369  1
  Ge  Ge2  1  0.40339193  0.69509588  0.81913176  1
  S  S0  1  0.29791945  -0.00302831  0.24908768  1
  S  S1  1  0.69556916  0.70341007  0.25006331  1
  S  S2  1  0.01615598  0.70639515  0.75069627  1
  S  S3  1  0.95369569  0.32903020  0.57875452  1
  S  S4  1  0.37311585  0.04925789  0.58088262  1
  S  S5  1  0.66977977  0.03022804  0.08046952  1
  S  S6  1  0.37531053  0.32587824  0.07700319  1
  S  S7  1  0.02678757  0.37877375  0.91547779  1
  S  S8  1  0.35093452  0.36945371  0.41623364  1
  O  O0  1  0.21410374  0.00876959  0.30203258  1
  O  O1  1  0.79368632  0.78074649  0.30449259  1
  O  O2  1  0.98826412  0.21272758  0.31347400  1
  O  O3  1  0.22485869  0.18107590  0.80318229  1
  O  O4  1  0.98659660  0.77633249  0.80589573  1
  O  O5  1  0.79390797  0.01077105  0.81202976  1
  O  O6  1  0.77244992  0.96326731  0.69518279  1
  O  O7  1  0.19092810  0.24425087  0.69516339  1
  O  O8  1  0.02634232  0.81487045  0.70274801  1
  O  O9  1  0.79127796  0.80126844  0.20070574  1
  O  O10  1  -0.00121542  0.18465923  0.19791027  1
  O  O11  1  0.19728676  0.97631947  0.19719795  1
  O  O12  1  0.86314946  0.34063242  0.62890348  1
  O  O13  1  0.45770744  0.12683263  0.63701300  1
  O  O14  1  0.67421781  0.54148788  0.64064530  1
  O  O15  1  0.86346953  0.54028526  0.14041166  1
  O  O16  1  0.66479786  0.11511928  0.13664028  1
  O  O17  1  0.46977419  0.33153106  0.12804873  1
  O  O18  1  0.45439305  0.30664199  0.02143878  1
  O  O19  1  0.81075553  0.49024421  0.02105212  1
  O  O20  1  0.66760764  0.12094763  0.03050136  1
  O  O21  1  0.46828097  0.14729964  0.53180014  1
  O  O22  1  0.67561914  0.50993012  0.52198052  1
  O  O23  1  0.86051556  0.31665794  0.52305928  1
  O  O24  1  0.53884836  0.69004690  0.97063079  1
  O  O25  1  0.11330952  0.45367438  0.97087640  1
  O  O26  1  0.31033745  0.84998946  0.97142117  1
  O  O27  1  0.55037277  0.85188676  0.47170749  1
  O  O28  1  0.32694474  0.44614850  0.47022873  1
  O  O29  1  0.13401223  0.67020079  0.47149764  1
  O  O30  1  0.08691639  0.62321004  0.35776110  1
  O  O31  1  0.53554534  0.91729735  0.35948993  1
  O  O32  1  0.36501776  0.47578496  0.36713854  1
  O  O33  1  0.12146123  0.47596897  0.86645867  1
  O  O34  1  0.39798993  0.87520395  0.85924138  1
  O  O35  1  0.54140166  0.64815592  0.85554712  1
  O  O36  1  0.97796812  0.81473632  0.41686366  1
  O  O37  1  0.82847959  0.02820979  0.41715410  1
  O  O38  1  0.20530506  0.19972461  0.40963438  1
  O  O39  1  -0.00728402  0.20114400  0.91353447  1
  O  O40  1  0.19370724  0.99062805  0.90647425  1
  O  O41  1  0.82862675  0.82000988  0.91557884  1
  O  O42  1  0.95635138  0.16809602  0.57799410  1
  O  O43  1  0.20466551  0.02820649  0.58128817  1
  O  O44  1  0.83643844  0.81747859  0.57738543  1
  O  O45  1  0.96439905  0.80048849  0.07154036  1
  O  O46  1  0.82436270  0.01950401  0.07949966  1
  O  O47  1  0.20832315  0.17498505  0.07685314  1
  O  O48  1  0.64418911  0.14712495  0.75042363  1
  O  O49  1  0.49579419  0.36962010  0.74871333  1
  O  O50  1  0.87147259  0.53547203  0.74280549  1
  O  O51  1  0.66495283  0.52920809  0.24597066  1
  O  O52  1  0.82911714  0.32138839  0.25143712  1
  O  O53  1  0.46620457  0.14588744  0.24699640  1
  O  O54  1  0.64233336  0.48444153  0.91956025  1
  O  O55  1  0.86114901  0.37085601  0.91434824  1
  O  O56  1  0.53392244  0.15676141  0.92906388  1
  O  O57  1  0.64402194  0.17354501  0.43633081  1
  O  O58  1  0.50493061  0.36095510  0.41785922  1
  O  O59  1  0.83241856  0.48423356  0.42514303  1
  O  O60  1  0.36439392  0.48033702  0.07731265  1
  O  O61  1  0.12077930  0.61990649  0.07621358  1
  O  O62  1  0.52341517  0.85860648  0.08244934  1
  O  O63  1  0.36171054  0.88034747  0.57850443  1
  O  O64  1  0.50813027  0.64913973  0.57772755  1
  O  O65  1  0.12136317  0.47411594  0.57778318  1
  O  O66  1  0.31622345  0.84370824  0.25030830  1
  O  O67  1  0.53813644  0.70593809  0.25349892  1
  O  O68  1  0.16216735  0.49556563  0.25021802  1
  O  O69  1  0.30513097  0.50688818  0.77051870  1
  O  O70  1  0.17183536  0.70377240  0.75257249  1
  O  O71  1  0.50743229  0.81565541  0.75688642  1
loop_
_geom_bond_atom_site_label_1
_geom_bond_atom_site_label_2
_geom_bond_distance
_geom_bond_site_symmetry_2
Na0 O52 2.464674 1_555
Na0 O67 2.484822 1_545
Na0 O31 2.523515 1_545
Na0 O53 2.625092 1_555
Na0 O66 2.767687 1_545
Na0 O2 2.926425 1_555
Na1 O68 2.337636 1_555
Na1 O52 2.411160 1_455
Na1 O66 2.629193 1_555
Na1 O30 2.694026 1_555
Na1 O15 2.694149 1_455
Na1 O51 2.782578 1_455
Na2 O49 2.298406 1_555
Na2 O71 2.430080 1_555
Na2 O14 2.576642 1_555
Na2 O6 2.734236 1_555
Na2 O50 2.788522 1_555
Na2 O35 2.802513 1_555
Na2 O69 2.879113 1_555
Na3 O48 2.345370 1_555
Na3 O70 2.457092 1_545
Na3 O3 2.569134 1_555
Na3 O34 2.654215 1_545
Na3 O71 2.744282 1_545
Na4 O64 2.325685 1_555
Na4 O44 2.382263 1_555
Na4 O42 2.479303 1_565
Na4 O63 2.590300 1_555
Na4 O27 2.744695 1_555
Na4 O6 2.746392 1_555
Na5 O41 2.354548 1_555
Na5 O55 2.489522 1_555
Na5 O40 2.572049 1_655
Na5 O54 2.757669 1_555
Na5 O26 2.863663 1_655
Na5 O19 2.873157 1_556
Na5 O4 2.889079 1_555
Na6 O39 2.376736 1_655
Na6 O56 2.414670 1_555
Na6 O5 2.571637 1_555
Na6 O41 2.674416 1_545
Na6 O55 2.765469 1_555
Na6 O34 2.767559 1_545
Na6 O20 2.816874 1_556
Na6 O24 2.998921 1_545
Na7 O37 2.347026 1_555
Na7 O2 2.356503 1_555
Na7 O59 2.470971 1_555
Na7 O30 2.737533 1_655
Na7 O57 2.765486 1_555
Na7 O38 2.873593 1_655
Na7 O23 2.883443 1_555
Na8 O36 2.334523 1_555
Na8 O22 2.571947 1_555
Na8 O58 2.598054 1_555
Na8 O27 2.616509 1_555
Na8 O59 2.706458 1_555
Na8 O37 2.818816 1_565
Na9 O44 2.301599 1_455
Na9 O36 2.320319 1_455
Na9 O43 2.422613 1_565
Na9 O42 2.694012 1_465
Na9 O37 2.882153 1_465
Na9 O38 3.029241 1_565
Na10 O45 2.312622 1_456
Na10 O41 2.411358 1_455
Na10 O47 2.580288 1_566
Na10 O40 2.663434 1_555
Na10 O46 2.699840 1_466
Na10 O39 2.949649 1_565
Na11 O54 2.441649 1_555
Na11 O48 2.443892 1_555
Na11 O55 2.586419 1_555
Na11 O56 2.613544 1_555
Na11 O49 2.638255 1_555
Na11 O50 2.994578 1_555
Na12 O58 2.474367 1_555
Na12 O59 2.475379 1_555
Na12 O52 2.536955 1_555
Na12 O57 2.575857 1_555
Na12 O53 2.721255 1_555
Na13 O68 2.383145 1_555
Na13 O61 2.427280 1_555
Na13 O60 2.551896 1_555
Na13 O66 2.823666 1_555
Na13 O62 2.972343 1_555
Na14 O69 2.427651 1_555
Na14 O71 2.555401 1_555
Na14 O70 2.614876 1_555
Na14 O64 2.755084 1_555
Na14 O65 2.780988 1_555
Ge0 O19 1.767505 1_556
Ge0 O54 1.803677 1_555
Ge0 O56 1.854409 1_555
Ge0 O18 1.920877 1_556
Ge1 O22 1.763389 1_555
Ge1 O57 1.788664 1_555
Ge1 O59 1.817998 1_555
Ge1 O23 1.945083 1_555
Ge1 O21 2.392803 1_555
Ge1 O58 2.406741 1_555
Ge2 O35 1.779109 1_555
Ge2 O71 1.814417 1_555
Ge2 O69 1.833746 1_555
Ge2 O34 1.881236 1_555
O0 S0 1.474411 1_555
O0 Y0 2.342683 1_455
O1 S1 1.493172 1_555
O1 Y0 2.255198 1_565
O2 Si0 1.649011 1_655
O2 Y0 2.192122 1_555
O3 Si1 1.618928 1_555
O3 Y1 2.131513 1_555
O4 S2 1.487893 1_655
O4 Y1 2.290423 1_665
O5 Si2 1.618043 1_545
O5 Y1 2.215354 1_655
O6 Si2 1.651578 1_555
O6 Y2 2.181912 1_665
O7 Si1 1.641336 1_555
O7 Y2 2.191474 1_555
O8 S2 1.497617 1_555
O8 Y2 2.293081 1_565
O9 S1 1.477832 1_555
O9 Y3 2.371865 1_665
O10 Si0 1.629556 1_555
O10 Y3 2.146747 1_555
O11 S0 1.480195 1_565
O11 Y3 2.356139 1_565
O12 S3 1.458160 1_555
O12 Y4 2.319302 1_555
O13 S4 1.483319 1_555
O13 Y4 2.210210 1_555
O14 Si3 1.609864 1_555
O14 Y4 2.156258 1_555
O15 Si4 1.642186 1_555
O15 Y5 2.079995 1_555
O16 S5 1.497546 1_555
O16 Y5 2.181145 1_555
O17 S6 1.466811 1_555
O17 Y5 2.275856 1_555
O18 S6 1.521731 1_555
O19 Si4 1.751504 1_555
O20 S5 1.463871 1_555
O21 S4 1.471886 1_555
O22 Si3 1.739768 1_555
O23 S3 1.532497 1_555
O24 Si5 1.586891 1_555
O24 Y6 2.162894 1_556
O25 S7 1.470382 1_555
O25 Y6 2.255576 1_556
O26 Si6 1.591382 1_555
O26 Y6 2.097685 1_556
O27 Si7 1.629008 1_555
O27 Y7 2.173274 1_555
O28 S8 1.475724 1_555
O28 Y7 2.258939 1_555
O29 Si8 1.609258 1_555
O29 Y7 2.149781 1_555
O30 Si8 1.642798 1_555
O30 Y8 2.165413 1_555
O31 Si7 1.643952 1_555
O31 Y8 2.281920 1_555
O32 S8 1.495931 1_555
O32 Y8 2.311466 1_555
O33 S7 1.466700 1_555
O34 Si6 1.747282 1_555
O35 Si5 1.676927 1_555
O36 Si8 1.627496 1_655
O36 Y0 2.272445 1_565
O37 Si7 1.648082 1_545
O37 Y0 2.199007 1_555
O38 S8 1.473970 1_555
O38 Y0 2.244878 1_455
O39 S7 1.497321 1_555
O39 Y1 2.261120 1_555
O40 Si6 1.605698 1_555
O40 Y1 2.245431 1_565
O41 Si5 1.632982 1_555
O41 Y1 2.356329 1_665
O42 S3 1.489707 1_555
O42 Y2 2.470451 1_655
O43 S4 1.483059 1_555
O43 Y2 2.448419 1_555
O44 Si3 1.646728 1_555
O44 Y2 2.361381 1_665
O45 Si4 1.632169 1_555
O45 Y3 2.236353 1_665
O46 S5 1.491822 1_555
O46 Y3 2.272083 1_655
O47 S6 1.481787 1_555
O47 Y3 2.372380 1_555
O48 Si2 1.633296 1_545
O48 Y4 2.273678 1_555
O49 Si1 1.656359 1_555
O49 Y4 2.175014 1_555
O50 S2 1.479346 1_655
O50 Y4 2.259605 1_555
O51 S1 1.477153 1_555
O51 Y5 2.317706 1_555
O52 Si0 1.688072 1_655
O52 Y5 2.233004 1_555
O53 S0 1.483945 1_555
O53 Y5 2.446019 1_555
O54 Si5 1.691257 1_555
O55 S7 1.509223 1_655
O56 Si6 1.732573 1_545
O57 Si7 1.690006 1_545
O58 S8 1.476507 1_555
O59 Si8 1.699872 1_655
O60 S6 1.471444 1_555
O60 Y6 2.412452 1_555
O61 Si4 1.622479 1_455
O61 Y6 2.210597 1_555
O62 S5 1.487474 1_565
O62 Y6 2.275820 1_555
O63 S4 1.499544 1_565
O63 Y7 2.246084 1_555
O64 Si3 1.642950 1_555
O64 Y7 2.248679 1_555
O65 S3 1.465405 1_455
O65 Y7 2.399932 1_555
O66 S0 1.501258 1_565
O66 Y8 2.377387 1_555
O67 S1 1.479873 1_555
O67 Y8 2.457004 1_555
O68 Si0 1.650480 1_555
O68 Y8 2.241818 1_555
O69 Si1 1.695958 1_555
O70 S2 1.464127 1_555
O71 Si2 1.709773 1_555
