# generated using pymatgen
data_Y4OsBr4
_symmetry_space_group_name_H-M   'P 1'
_cell_length_a   6.60046621
_cell_length_b   8.87511133
_cell_length_c   8.87511215
_cell_angle_alpha   89.31910341
_cell_angle_beta   89.37313266
_cell_angle_gamma   89.37313984
_symmetry_Int_Tables_number   1
_chemical_formula_structural   Y4OsBr4
_chemical_formula_sum   'Y8 Os2 Br8'
_cell_volume   519.80472653
_cell_formula_units_Z   2
loop_
 _symmetry_equiv_pos_site_id
 _symmetry_equiv_pos_as_xyz
  1  'x, y, z'
loop_
 _atom_site_type_symbol
 _atom_site_label
 _atom_site_symmetry_multiplicity
 _atom_site_fract_x
 _atom_site_fract_y
 _atom_site_fract_z
 _atom_site_occupancy
  Y  Y0  1  0.01029536  0.25115047  0.89992413  1
  Y  Y1  1  0.51029536  0.89992413  0.25115047  1
  Y  Y2  1  0.01074567  0.90176797  0.75017055  1
  Y  Y3  1  0.51074567  0.75017055  0.90176797  1
  Y  Y4  1  0.98925433  0.09823203  0.24982945  1
  Y  Y5  1  0.48970464  0.10007587  0.74884953  1
  Y  Y6  1  0.98970464  0.74884953  0.10007587  1
  Y  Y7  1  0.48925433  0.24982945  0.09823203  1
  Os  Os0  1  0.75000000  0.00555055  0.99444945  1
  Os  Os1  1  0.25000000  0.99444945  0.00555055  1
  Br  Br0  1  0.40516633  0.42237499  0.81558785  1
  Br  Br1  1  0.59605506  0.19259123  0.41706749  1
  Br  Br2  1  0.90394494  0.58293251  0.80740877  1
  Br  Br3  1  0.40394494  0.80740877  0.58293251  1
  Br  Br4  1  0.09605506  0.41706749  0.19259123  1
  Br  Br5  1  0.59483367  0.57762501  0.18441215  1
  Br  Br6  1  0.90516633  0.81558785  0.42237499  1
  Br  Br7  1  0.09483367  0.18441215  0.57762501  1
loop_
_geom_bond_atom_site_label_1
_geom_bond_atom_site_label_2
_geom_bond_distance
_geom_bond_site_symmetry_2
Os0 Y0 2.900640 1_655
Os0 Y5 2.900640 1_555
Os0 Y7 2.905468 1_556
Os0 Y2 2.905468 1_645
Os0 Y3 2.908373 1_545
Os0 Y4 2.908374 1_556
Os0 Y1 2.911235 1_546
Os0 Y6 2.911235 1_546
Os1 Y6 2.900640 1_455
Os1 Y1 2.900640 1_555
Os1 Y3 2.905468 1_554
Os1 Y4 2.905468 1_465
Os1 Y7 2.908373 1_565
Os1 Y2 2.908374 1_554
Os1 Y5 2.911235 1_564
Os1 Y0 2.911235 1_564
Br0 Y5 2.973620 1_555
Br0 Y7 2.977624 1_556
Br0 Y3 3.105338 1_555
Br0 Y0 3.111182 1_555
Br1 Y7 2.960379 1_555
Br1 Y1 3.062164 1_545
Br1 Y4 3.088302 1_555
Br1 Y5 3.122104 1_555
Br2 Y2 2.960379 1_655
Br2 Y6 3.062164 1_556
Br2 Y3 3.088302 1_555
Br2 Y0 3.122104 1_655
Br3 Y3 2.960379 1_555
Br3 Y5 3.062164 1_565
Br3 Y2 3.088302 1_555
Br3 Y1 3.122104 1_555
Br4 Y4 2.960379 1_455
Br4 Y0 3.062164 1_554
Br4 Y7 3.088302 1_555
Br4 Y6 3.122104 1_455
Br5 Y1 2.973620 1_555
Br5 Y3 2.977624 1_554
Br5 Y7 3.105338 1_555
Br5 Y6 3.111182 1_555
Br6 Y6 2.973621 1_555
Br6 Y4 2.977624 1_565
Br6 Y2 3.105338 1_655
Br6 Y1 3.111182 1_555
Br7 Y0 2.973621 1_555
Br7 Y2 2.977624 1_545
Br7 Y4 3.105338 1_455
Br7 Y5 3.111182 1_555
