# generated using pymatgen
data_MgCo7O12
_symmetry_space_group_name_H-M   'P 1'
_cell_length_a   5.06726360
_cell_length_b   5.03202535
_cell_length_c   9.50171385
_cell_angle_alpha   86.08593095
_cell_angle_beta   96.49530322
_cell_angle_gamma   63.48674422
_symmetry_Int_Tables_number   1
_chemical_formula_structural   MgCo7O12
_chemical_formula_sum   'Mg1 Co7 O12'
_cell_volume   213.47812878
_cell_formula_units_Z   1
loop_
 _symmetry_equiv_pos_site_id
 _symmetry_equiv_pos_as_xyz
  1  'x, y, z'
loop_
 _atom_site_type_symbol
 _atom_site_label
 _atom_site_symmetry_multiplicity
 _atom_site_fract_x
 _atom_site_fract_y
 _atom_site_fract_z
 _atom_site_occupancy
  Mg  Mg0  1  0.66907100  0.14972000  0.98410200  1
  Co  Co0  1  0.10990300  0.05114300  0.25155500  1
  Co  Co1  1  0.00399700  0.51848900  0.99002800  1
  Co  Co2  1  0.18096800  0.32369000  0.72630500  1
  Co  Co3  1  0.53645000  0.01056600  0.51914100  1
  Co  Co4  1  0.45272000  0.37777300  0.25661300  1
  Co  Co5  1  0.55758700  0.60755500  0.74696600  1
  Co  Co6  1  0.79227600  0.69979100  0.27041900  1
  O  O0  1  0.91577500  0.28239600  0.85684800  1
  O  O1  1  0.27232500  0.97680900  0.63868200  1
  O  O2  1  0.19304900  0.31358700  0.36560300  1
  O  O3  1  0.34353400  0.19065700  0.11181300  1
  O  O4  1  0.30777900  0.50460700  0.86330500  1
  O  O5  1  0.46815400  0.36083200  0.63641000  1
  O  O6  1  0.46225100  0.70823000  0.34098400  1
  O  O7  1  0.76297800  0.39663900  0.15563100  1
  O  O8  1  0.66024300  0.80612200  0.89036600  1
  O  O9  1  0.80549300  0.65147200  0.63028900  1
  O  O10  1  0.78695600  0.00361600  0.37222100  1
  O  O11  1  0.99707500  0.79488500  0.13577500  1
loop_
_geom_bond_atom_site_label_1
_geom_bond_atom_site_label_2
_geom_bond_distance
_geom_bond_site_symmetry_2
Mg0 O8 2.013692 1_545
Mg0 O4 2.045484 1_555
Mg0 O3 2.102306 1_556
Mg0 O0 2.108894 1_555
Mg0 O11 2.117726 1_546
Mg0 O7 2.248428 1_556
Co0 O6 1.895603 1_545
Co0 O7 1.906874 1_455
Co0 O2 1.919560 1_555
Co0 O11 1.977245 1_445
Co0 O3 2.151242 1_555
Co0 O10 2.187740 1_455
Co1 O8 1.792927 1_455
Co1 O0 1.940107 1_455
Co1 O3 1.943071 1_556
Co1 O11 2.020848 1_456
Co1 O4 2.039388 1_555
Co1 O7 2.305457 1_456
Co2 O5 1.839706 1_555
Co2 O4 1.852309 1_555
Co2 O1 1.875755 1_545
Co2 O9 1.942394 1_455
Co2 O0 1.994682 1_455
Co3 O9 1.858340 1_545
Co3 O1 1.905482 1_545
Co3 O10 1.982242 1_555
Co3 O2 2.057759 1_555
Co3 O5 2.068497 1_555
Co3 O6 2.457592 1_545
Co4 O2 1.884203 1_555
Co4 O3 1.885569 1_555
Co4 O6 1.911824 1_555
Co4 O7 1.965565 1_555
Co4 O10 2.017355 1_555
Co4 O11 2.408152 1_455
Co5 O9 1.839957 1_555
Co5 O5 1.850106 1_555
Co5 O1 1.898719 1_555
Co5 O8 1.901335 1_555
Co5 O0 1.936028 1_555
Co5 O4 1.979025 1_555
Co6 O6 1.855314 1_555
Co6 O10 1.856011 1_565
Co6 O11 1.898114 1_555
Co6 O7 1.982773 1_555
Co6 O2 2.130689 1_655
