# generated using pymatgen
data_Li2MnF6
_symmetry_space_group_name_H-M   'P 1'
_cell_length_a   4.45145266
_cell_length_b   4.87131184
_cell_length_c   16.33962575
_cell_angle_alpha   90.01391822
_cell_angle_beta   90.00000000
_cell_angle_gamma   90.00000000
_symmetry_Int_Tables_number   1
_chemical_formula_structural   Li2MnF6
_chemical_formula_sum   'Li8 Mn4 F24'
_cell_volume   354.31519956
_cell_formula_units_Z   4
loop_
 _symmetry_equiv_pos_site_id
 _symmetry_equiv_pos_as_xyz
  1  'x, y, z'
loop_
 _atom_site_type_symbol
 _atom_site_label
 _atom_site_symmetry_multiplicity
 _atom_site_fract_x
 _atom_site_fract_y
 _atom_site_fract_z
 _atom_site_occupancy
  Li  Li0  1  0.50620706  0.25048303  0.77944525  1
  Li  Li1  1  0.00508738  0.24887544  0.95020719  1
  Li  Li2  1  0.99379294  0.25048303  0.27944525  1
  Li  Li3  1  0.49491262  0.24887544  0.45020719  1
  Li  Li4  1  0.50508738  0.75112456  0.54979281  1
  Li  Li5  1  0.00620706  0.74951697  0.72055475  1
  Li  Li6  1  0.99491262  0.75112456  0.04979281  1
  Li  Li7  1  0.49379294  0.74951697  0.22055475  1
  Mn  Mn0  1  0.00462708  0.25006335  0.62030659  1
  Mn  Mn1  1  0.49537292  0.25006335  0.12030659  1
  Mn  Mn2  1  0.50462708  0.74993665  0.87969341  1
  Mn  Mn3  1  0.99537292  0.74993665  0.37969341  1
  F  F0  1  0.73152133  0.05860302  0.87520173  1
  F  F1  1  0.28124581  0.90786885  0.79882399  1
  F  F2  1  0.74165519  0.09941711  0.04447186  1
  F  F3  1  0.76847867  0.05860302  0.37520173  1
  F  F4  1  0.21875419  0.90786885  0.29882399  1
  F  F5  1  0.75834481  0.09941711  0.54447186  1
  F  F6  1  0.24767014  0.40111628  0.54385579  1
  F  F7  1  0.77824325  0.55888615  0.62551738  1
  F  F8  1  0.23173663  0.40808244  0.70050265  1
  F  F9  1  0.73173663  0.59191756  0.79949735  1
  F  F10  1  0.25232986  0.40111628  0.04385579  1
  F  F11  1  0.27824325  0.44111385  0.87448262  1
  F  F12  1  0.72175675  0.55888615  0.12551738  1
  F  F13  1  0.74767014  0.59888372  0.95614421  1
  F  F14  1  0.26826337  0.40808244  0.20050265  1
  F  F15  1  0.76826337  0.59191756  0.29949735  1
  F  F16  1  0.22175675  0.44111385  0.37448262  1
  F  F17  1  0.75232986  0.59888372  0.45614421  1
  F  F18  1  0.24165519  0.90058289  0.45552814  1
  F  F19  1  0.78124581  0.09213115  0.70117601  1
  F  F20  1  0.23152133  0.94139698  0.62479827  1
  F  F21  1  0.25834481  0.90058289  0.95552814  1
  F  F22  1  0.71875419  0.09213115  0.20117601  1
  F  F23  1  0.26847867  0.94139698  0.12479827  1
loop_
_geom_bond_atom_site_label_1
_geom_bond_atom_site_label_2
_geom_bond_distance
_geom_bond_site_symmetry_2
F0 Mn2 1.812844 1_545
F0 Li1 1.960485 1_655
F0 Li0 2.080481 1_555
F1 Mn2 1.824056 1_555
F1 Li5 1.931081 1_555
F1 Li0 1.972010 1_565
F2 Mn1 1.809803 1_555
F2 Li6 2.038914 1_545
F2 Li1 2.068358 1_654
F3 Mn3 1.812844 1_545
F3 Li3 1.960485 1_555
F3 Li2 2.080481 1_555
F4 Mn3 1.824056 1_455
F4 Li7 1.931081 1_555
F4 Li2 1.972010 1_465
F5 Mn0 1.809803 1_655
F5 Li4 2.038914 1_545
F5 Li3 2.068358 1_555
F6 Mn0 1.809096 1_555
F6 Li3 2.025387 1_555
F6 Li4 2.056550 1_555
F7 Mn0 1.812693 1_655
F7 Li4 1.971537 1_555
F7 Li5 2.074323 1_655
F8 Mn0 1.825151 1_555
F8 Li0 1.935579 1_555
F8 Li5 1.970106 1_555
F9 Mn2 1.825151 1_555
F9 Li5 1.935579 1_655
F9 Li0 1.970106 1_555
F10 Mn1 1.809096 1_555
F10 Li1 2.025387 1_554
F10 Li6 2.056550 1_455
F11 Mn2 1.812693 1_555
F11 Li1 1.971537 1_555
F11 Li0 2.074323 1_555
F12 Mn1 1.812693 1_555
F12 Li6 1.971537 1_555
F12 Li7 2.074323 1_555
F13 Mn2 1.809096 1_555
F13 Li6 2.025387 1_556
F13 Li1 2.056550 1_655
F14 Mn1 1.825151 1_555
F14 Li2 1.935579 1_455
F14 Li7 1.970106 1_555
F15 Mn3 1.825151 1_555
F15 Li7 1.935579 1_555
F15 Li2 1.970106 1_555
F16 Mn3 1.812693 1_455
F16 Li3 1.971537 1_555
F16 Li2 2.074323 1_455
F17 Mn3 1.809096 1_555
F17 Li4 2.025387 1_555
F17 Li3 2.056550 1_555
F18 Mn3 1.809803 1_455
F18 Li3 2.038914 1_565
F18 Li4 2.068358 1_555
F19 Mn0 1.824056 1_655
F19 Li0 1.931081 1_555
F19 Li5 1.972010 1_645
F20 Mn0 1.812844 1_565
F20 Li4 1.960485 1_555
F20 Li5 2.080481 1_555
F21 Mn2 1.809803 1_555
F21 Li1 2.038914 1_565
F21 Li6 2.068358 1_456
F22 Mn1 1.824056 1_555
F22 Li2 1.931081 1_555
F22 Li7 1.972010 1_545
F23 Mn1 1.812844 1_565
F23 Li6 1.960485 1_455
F23 Li7 2.080481 1_555
