# generated using pymatgen
data_Yb2Cu2O5
_symmetry_space_group_name_H-M   'P 1'
_cell_length_a   3.49334800
_cell_length_b   10.48215300
_cell_length_c   12.57077600
_cell_angle_alpha   90.00000000
_cell_angle_beta   90.00000000
_cell_angle_gamma   90.00000000
_symmetry_Int_Tables_number   1
_chemical_formula_structural   Yb2Cu2O5
_chemical_formula_sum   'Yb8 Cu8 O20'
_cell_volume   460.31426472
_cell_formula_units_Z   4
loop_
 _symmetry_equiv_pos_site_id
 _symmetry_equiv_pos_as_xyz
  1  'x, y, z'
loop_
 _atom_site_type_symbol
 _atom_site_label
 _atom_site_symmetry_multiplicity
 _atom_site_fract_x
 _atom_site_fract_y
 _atom_site_fract_z
 _atom_site_occupancy
  Yb  Yb0  1  0.31833800  0.54645500  0.83245800  1
  Yb  Yb1  1  0.68166200  0.45354500  0.33245800  1
  Yb  Yb2  1  0.18166200  0.04645500  0.83245800  1
  Yb  Yb3  1  0.81833800  0.95354500  0.33245800  1
  Yb  Yb4  1  0.32308000  0.70392100  0.50010000  1
  Yb  Yb5  1  0.67692000  0.29607900  0.00010000  1
  Yb  Yb6  1  0.17692000  0.20392100  0.50010000  1
  Yb  Yb7  1  0.82308000  0.79607900  0.00010000  1
  Cu  Cu0  1  0.86065200  0.76178900  0.71363600  1
  Cu  Cu1  1  0.13934800  0.23821100  0.21363600  1
  Cu  Cu2  1  0.63934800  0.26178900  0.71363600  1
  Cu  Cu3  1  0.36065200  0.73821100  0.21363600  1
  Cu  Cu4  1  0.85671500  0.48829500  0.61573800  1
  Cu  Cu5  1  0.14328500  0.51170500  0.11573800  1
  Cu  Cu6  1  0.64328500  0.98829500  0.61573800  1
  Cu  Cu7  1  0.35671500  0.01170500  0.11573800  1
  O  O0  1  0.32343700  0.93891500  0.98320200  1
  O  O1  1  0.67656300  0.06108500  0.48320200  1
  O  O2  1  0.17656300  0.43891500  0.98320200  1
  O  O3  1  0.82343700  0.56108500  0.48320200  1
  O  O4  1  0.66689600  0.91926000  0.75344100  1
  O  O5  1  0.33310400  0.08074000  0.25344100  1
  O  O6  1  0.83310400  0.41926000  0.75344100  1
  O  O7  1  0.16689600  0.58074000  0.25344100  1
  O  O8  1  0.14059100  0.62412000  0.66569600  1
  O  O9  1  0.85940900  0.37588000  0.16569600  1
  O  O10  1  0.35940900  0.12412000  0.66569600  1
  O  O11  1  0.64059100  0.87588000  0.16569600  1
  O  O12  1  0.84115600  0.83142300  0.57543000  1
  O  O13  1  0.15884400  0.16857700  0.07543000  1
  O  O14  1  0.65884400  0.33142300  0.57543000  1
  O  O15  1  0.34115600  0.66857700  0.07543000  1
  O  O16  1  0.32092800  0.81076400  0.34569900  1
  O  O17  1  0.67907200  0.18923600  0.84569900  1
  O  O18  1  0.17907200  0.31076400  0.34569900  1
  O  O19  1  0.82092800  0.68923600  0.84569900  1
loop_
_geom_bond_atom_site_label_1
_geom_bond_atom_site_label_2
_geom_bond_distance
_geom_bond_site_symmetry_2
Cu0 O19 1.831306 1_555
Cu0 O8 1.844440 1_655
Cu0 O4 1.852866 1_555
Cu0 O12 1.885689 1_555
Cu1 O18 1.831306 1_555
Cu1 O9 1.844440 1_455
Cu1 O5 1.852866 1_555
Cu1 O13 1.885689 1_555
Cu2 O17 1.831306 1_555
Cu2 O10 1.844440 1_555
Cu2 O6 1.852866 1_555
Cu2 O14 1.885689 1_555
Cu3 O16 1.831306 1_555
Cu3 O11 1.844440 1_555
Cu3 O7 1.852866 1_555
Cu3 O15 1.885689 1_555
Cu4 O3 1.836165 1_555
Cu4 O8 1.845224 1_655
Cu4 O14 1.854308 1_555
Cu4 O6 1.878012 1_555
Cu5 O2 1.836165 1_554
Cu5 O9 1.845224 1_455
Cu5 O15 1.854308 1_555
Cu5 O7 1.878012 1_555
Cu6 O1 1.836165 1_565
Cu6 O10 1.845224 1_565
Cu6 O12 1.854308 1_555
Cu6 O4 1.878012 1_555
Cu7 O0 1.836165 1_544
Cu7 O11 1.845224 1_545
Cu7 O13 1.854308 1_555
Cu7 O5 1.878012 1_555
O0 Yb2 2.259844 1_565
O0 Yb7 2.309401 1_556
O0 Yb7 2.311286 1_456
O1 Yb3 2.259844 1_545
O1 Yb6 2.309401 1_555
O1 Yb6 2.311286 1_655
O2 Yb0 2.259844 1_555
O2 Yb5 2.309401 1_456
O2 Yb5 2.311286 1_556
O3 Yb1 2.259844 1_555
O3 Yb4 2.309401 1_655
O3 Yb4 2.311286 1_555
O4 Yb2 2.374367 1_565
O4 Yb2 2.449084 1_665
O5 Yb3 2.374367 1_545
O5 Yb3 2.449084 1_445
O6 Yb0 2.374367 1_655
O6 Yb0 2.449084 1_555
O7 Yb1 2.374367 1_455
O7 Yb1 2.449084 1_555
O8 Yb4 2.332266 1_555
O8 Yb0 2.333002 1_555
O9 Yb5 2.332266 1_555
O9 Yb1 2.333002 1_555
O10 Yb6 2.332266 1_555
O10 Yb2 2.333002 1_555
O11 Yb7 2.332266 1_555
O11 Yb3 2.333002 1_555
O12 Yb4 2.348875 1_655
O12 Yb4 2.440982 1_555
O13 Yb5 2.348875 1_455
O13 Yb5 2.440982 1_555
O14 Yb6 2.348875 1_555
O14 Yb6 2.440982 1_655
O15 Yb7 2.348875 1_555
O15 Yb7 2.440982 1_455
O16 Yb4 2.240889 1_555
O16 Yb3 2.299352 1_555
O16 Yb3 2.313057 1_455
O17 Yb5 2.240889 1_556
O17 Yb2 2.299352 1_555
O17 Yb2 2.313057 1_655
O18 Yb6 2.240889 1_555
O18 Yb1 2.299352 1_455
O18 Yb1 2.313057 1_555
O19 Yb7 2.240889 1_556
O19 Yb0 2.299352 1_655
O19 Yb0 2.313057 1_555
