# generated using pymatgen
data_NbN
_symmetry_space_group_name_H-M   'P 1'
_cell_length_a   2.99142413
_cell_length_b   2.99142473
_cell_length_c   5.62946641
_cell_angle_alpha   90.00000000
_cell_angle_beta   90.00000000
_cell_angle_gamma   120.00000455
_symmetry_Int_Tables_number   1
_chemical_formula_structural   NbN
_chemical_formula_sum   'Nb2 N2'
_cell_volume   43.62685595
_cell_formula_units_Z   2
loop_
 _symmetry_equiv_pos_site_id
 _symmetry_equiv_pos_as_xyz
  1  'x, y, z'
loop_
 _atom_site_type_symbol
 _atom_site_label
 _atom_site_symmetry_multiplicity
 _atom_site_fract_x
 _atom_site_fract_y
 _atom_site_fract_z
 _atom_site_occupancy
  Nb  Nb0  1  0.66666700  0.33333300  0.75000000  1
  Nb  Nb1  1  0.33333300  0.66666700  0.25000000  1
  N  N0  1  -0.00000000  0.00000000  0.50000000  1
  N  N1  1  -0.00000000  0.00000000  0.00000000  1
loop_
_geom_bond_atom_site_label_1
_geom_bond_atom_site_label_2
_geom_bond_distance
_geom_bond_site_symmetry_2
N0 Nb1 2.227902 1_545
N0 Nb0 2.227902 1_455
N0 Nb1 2.227904 1_445
N0 Nb0 2.227904 1_555
N0 Nb1 2.227904 1_555
N0 Nb0 2.227904 1_445
N1 Nb1 2.227902 1_545
N1 Nb0 2.227902 1_454
N1 Nb1 2.227904 1_445
N1 Nb0 2.227904 1_554
N1 Nb1 2.227904 1_555
N1 Nb0 2.227904 1_444
