# generated using pymatgen
data_KAlCl4
_symmetry_space_group_name_H-M   'P 1'
_cell_length_a   10.22587122
_cell_length_b   7.25809582
_cell_length_c   9.37891829
_cell_angle_alpha   87.45463309
_cell_angle_beta   90.00000000
_cell_angle_gamma   90.00000000
_symmetry_Int_Tables_number   1
_chemical_formula_structural   KAlCl4
_chemical_formula_sum   'K4 Al4 Cl16'
_cell_volume   695.41982870
_cell_formula_units_Z   4
loop_
 _symmetry_equiv_pos_site_id
 _symmetry_equiv_pos_as_xyz
  1  'x, y, z'
loop_
 _atom_site_type_symbol
 _atom_site_label
 _atom_site_symmetry_multiplicity
 _atom_site_fract_x
 _atom_site_fract_y
 _atom_site_fract_z
 _atom_site_occupancy
  K  K0  1  0.90720922  0.56946298  0.95922548  1
  K  K1  1  0.40720922  0.43053702  0.04077452  1
  K  K2  1  0.31357671  0.93148812  0.54073146  1
  K  K3  1  0.81357671  0.06851188  0.45926854  1
  Al  Al0  1  0.65396117  0.99673190  0.93251890  1
  Al  Al1  1  0.15396117  0.00326810  0.06748110  1
  Al  Al2  1  0.06684629  0.49666517  0.43280057  1
  Al  Al3  1  0.56684629  0.50333483  0.56719943  1
  Cl  Cl0  1  0.48155577  0.06452199  0.81195825  1
  Cl  Cl1  1  0.98155577  0.93547801  0.18804175  1
  Cl  Cl2  1  0.68714311  0.21725441  0.07349218  1
  Cl  Cl3  1  0.18714311  0.78274559  0.92650782  1
  Cl  Cl4  1  0.62968071  0.74071278  0.05383702  1
  Cl  Cl5  1  0.12968071  0.25928722  0.94616298  1
  Cl  Cl6  1  0.32170785  0.04126878  0.20069298  1
  Cl  Cl7  1  0.82170785  0.95873122  0.79930702  1
  Cl  Cl8  1  0.39935921  0.54144389  0.70060494  1
  Cl  Cl9  1  0.89935921  0.45855611  0.29939506  1
  Cl  Cl10  1  0.73949159  0.43611967  0.68749096  1
  Cl  Cl11  1  0.23949159  0.56388033  0.31250904  1
  Cl  Cl12  1  0.53347334  0.28291357  0.42642920  1
  Cl  Cl13  1  0.03347334  0.71708643  0.57357080  1
  Cl  Cl14  1  0.59079705  0.75961684  0.44570334  1
  Cl  Cl15  1  0.09079705  0.24038316  0.55429666  1
loop_
_geom_bond_atom_site_label_1
_geom_bond_atom_site_label_2
_geom_bond_distance
_geom_bond_site_symmetry_2
Al0 Cl0 2.139947 1_565
Al0 Cl7 2.147111 1_555
Al0 Cl2 2.147810 1_566
Al0 Cl4 2.149759 1_556
Al1 Cl1 2.139947 1_445
Al1 Cl6 2.147111 1_555
Al1 Cl3 2.147810 1_544
Al1 Cl5 2.149759 1_554
Al2 Cl11 2.139806 1_555
Al2 Cl9 2.146181 1_455
Al2 Cl13 2.146317 1_555
Al2 Cl15 2.151796 1_555
Al3 Cl10 2.139806 1_555
Al3 Cl8 2.146181 1_555
Al3 Cl12 2.146317 1_555
Al3 Cl14 2.151796 1_555
Cl0 K2 3.251475 1_545
Cl0 K1 3.570333 1_556
Cl1 K3 3.251475 1_565
Cl1 K0 3.570333 1_554
Cl2 K1 3.262307 1_555
Cl2 K0 3.536149 1_554
Cl3 K0 3.262307 1_455
Cl3 K1 3.536149 1_556
Cl4 K1 3.206752 1_555
Cl4 K0 3.237956 1_554
Cl5 K0 3.206752 1_455
Cl5 K1 3.237956 1_556
Cl6 K2 3.253774 1_545
Cl6 K1 3.258868 1_555
Cl7 K3 3.253774 1_565
Cl7 K0 3.258868 1_555
Cl8 K1 3.256549 1_556
Cl8 K2 3.264231 1_555
Cl9 K0 3.256549 1_554
Cl9 K3 3.264231 1_555
Cl10 K0 3.254600 1_555
Cl10 K3 3.575162 1_555
Cl11 K1 3.254600 1_555
Cl11 K2 3.575162 1_555
Cl12 K3 3.267737 1_555
Cl12 K2 3.531105 1_545
Cl13 K2 3.267737 1_555
Cl13 K3 3.531105 1_465
Cl14 K3 3.202788 1_565
Cl14 K2 3.238125 1_555
Cl15 K2 3.202788 1_545
Cl15 K3 3.238125 1_455
