# generated using pymatgen
data_ScNiB4
_symmetry_space_group_name_H-M   'P 1'
_cell_length_a   3.24320881
_cell_length_b   5.78015494
_cell_length_c   11.20653220
_cell_angle_alpha   90.00000000
_cell_angle_beta   90.00000000
_cell_angle_gamma   90.00000000
_symmetry_Int_Tables_number   1
_chemical_formula_structural   ScNiB4
_chemical_formula_sum   'Sc4 Ni4 B16'
_cell_volume   210.08044781
_cell_formula_units_Z   4
loop_
 _symmetry_equiv_pos_site_id
 _symmetry_equiv_pos_as_xyz
  1  'x, y, z'
loop_
 _atom_site_type_symbol
 _atom_site_label
 _atom_site_symmetry_multiplicity
 _atom_site_fract_x
 _atom_site_fract_y
 _atom_site_fract_z
 _atom_site_occupancy
  Sc  Sc0  1  -0.00000000  0.62700707  0.34959734  1
  Sc  Sc1  1  -0.00000000  0.37299293  0.65040266  1
  Sc  Sc2  1  0.00000000  0.12700707  0.15040266  1
  Sc  Sc3  1  0.00000000  0.87299293  0.84959734  1
  Ni  Ni0  1  0.00000000  0.63448059  0.08843587  1
  Ni  Ni1  1  -0.00000000  0.36551941  0.91156413  1
  Ni  Ni2  1  0.00000000  0.13448059  0.41156413  1
  Ni  Ni3  1  -0.00000000  0.86551941  0.58843587  1
  B  B0  1  0.50000000  0.78882582  0.18646039  1
  B  B1  1  0.50000000  0.21117418  0.81353961  1
  B  B2  1  0.50000000  0.28882582  0.31353961  1
  B  B3  1  0.50000000  0.71117418  0.68646039  1
  B  B4  1  0.50000000  0.86572024  0.03244221  1
  B  B5  1  0.50000000  0.13427976  0.96755779  1
  B  B6  1  0.50000000  0.36572024  0.46755779  1
  B  B7  1  0.50000000  0.63427976  0.53244221  1
  B  B8  1  0.50000000  0.88415637  0.45116179  1
  B  B9  1  0.50000000  0.11584363  0.54883821  1
  B  B10  1  0.50000000  0.38415637  0.04883821  1
  B  B11  1  0.50000000  0.61584363  0.95116179  1
  B  B12  1  0.50000000  0.97923297  0.30632559  1
  B  B13  1  0.50000000  0.02076703  0.69367441  1
  B  B14  1  0.50000000  0.47923297  0.19367441  1
  B  B15  1  0.50000000  0.52076703  0.80632559  1
loop_
_geom_bond_atom_site_label_1
_geom_bond_atom_site_label_2
_geom_bond_distance
_geom_bond_site_symmetry_2
B0 B12 1.736567 1_555
B0 B4 1.782317 1_555
B0 B14 1.791320 1_555
B0 Ni0 2.152266 1_555
B0 Ni0 2.152266 1_655
B0 Sc2 2.571749 1_565
B0 Sc2 2.571749 1_665
B0 Sc0 2.616633 1_655
B0 Sc0 2.616633 1_555
B1 B13 1.736567 1_555
B1 B5 1.782317 1_555
B1 B15 1.791320 1_555
B1 Ni1 2.152266 1_555
B1 Ni1 2.152266 1_655
B1 Sc3 2.571749 1_545
B1 Sc3 2.571749 1_645
B1 Sc1 2.616633 1_555
B1 Sc1 2.616633 1_655
B2 B6 1.782317 1_555
B2 Ni2 2.152266 1_655
B2 Ni2 2.152266 1_555
B2 Sc0 2.571749 1_655
B2 Sc0 2.571749 1_555
B2 Sc2 2.616633 1_555
B2 Sc2 2.616633 1_655
B3 B7 1.782317 1_555
B3 Ni3 2.152266 1_655
B3 Ni3 2.152266 1_555
B3 Sc1 2.571749 1_555
B3 Sc1 2.571749 1_655
B3 Sc3 2.616633 1_555
B3 Sc3 2.616633 1_655
B4 B5 1.714176 1_564
B4 Ni0 2.193138 1_655
B4 Ni0 2.193138 1_555
B4 Sc2 2.580317 1_565
B4 Sc2 2.580317 1_665
B4 Sc3 2.613427 1_554
B4 Sc3 2.613427 1_654
B5 Ni1 2.193138 1_555
B5 Ni1 2.193138 1_655
B5 Sc3 2.580317 1_545
B5 Sc3 2.580317 1_645
B5 Sc2 2.613427 1_556
B5 Sc2 2.613427 1_656
B6 B9 1.707561 1_555
B6 B7 1.714176 1_555
B6 Ni2 2.193138 1_555
B6 Ni2 2.193138 1_655
B6 Sc0 2.580317 1_655
B6 Sc0 2.580317 1_555
B6 Sc1 2.613427 1_555
B6 Sc1 2.613427 1_655
B7 B8 1.707561 1_555
B7 Ni3 2.193138 1_655
B7 Ni3 2.193138 1_555
B7 Sc1 2.580317 1_655
B7 Sc1 2.580317 1_555
B7 Sc0 2.613427 1_655
B7 Sc0 2.613427 1_555
B8 B9 1.729626 1_565
B8 Ni2 2.218124 1_565
B8 Ni2 2.218124 1_665
B8 Ni3 2.237806 1_555
B8 Ni3 2.237806 1_655
B8 Sc0 2.476760 1_555
B8 Sc0 2.476760 1_655
B9 Ni3 2.218124 1_645
B9 Ni3 2.218124 1_545
B9 Ni2 2.237806 1_655
B9 Ni2 2.237806 1_555
B9 Sc1 2.476760 1_655
B9 Sc1 2.476760 1_555
B10 B5 1.707561 1_554
B10 B14 1.713623 1_555
B10 B11 1.729626 1_554
B10 Ni0 2.218124 1_655
B10 Ni0 2.218124 1_555
B10 Ni1 2.237806 1_554
B10 Ni1 2.237806 1_654
B10 Sc2 2.476760 1_555
B10 Sc2 2.476760 1_655
B11 B4 1.707561 1_556
B11 B15 1.713623 1_555
B11 Ni1 2.218124 1_655
B11 Ni1 2.218124 1_555
B11 Ni0 2.237806 1_556
B11 Ni0 2.237806 1_656
B11 Sc3 2.476760 1_655
B11 Sc3 2.476760 1_555
B12 B8 1.713623 1_555
B12 B2 1.791320 1_565
B12 Ni2 2.196756 1_565
B12 Ni2 2.196756 1_665
B12 Sc2 2.532279 1_665
B12 Sc2 2.532279 1_565
B12 Sc0 2.647589 1_655
B12 Sc0 2.647589 1_555
B13 B9 1.713623 1_555
B13 B3 1.791320 1_545
B13 Ni3 2.196756 1_545
B13 Ni3 2.196756 1_645
B13 Sc3 2.532279 1_645
B13 Sc3 2.532279 1_545
B13 Sc1 2.647589 1_555
B13 Sc1 2.647589 1_655
B14 B2 1.736567 1_555
B14 Ni0 2.196756 1_655
B14 Ni0 2.196756 1_555
B14 Sc0 2.532279 1_555
B14 Sc0 2.532279 1_655
B14 Sc2 2.647589 1_555
B14 Sc2 2.647589 1_655
B15 B3 1.736567 1_555
B15 Ni1 2.196756 1_555
B15 Ni1 2.196756 1_655
B15 Sc1 2.532279 1_555
B15 Sc1 2.532279 1_655
B15 Sc3 2.647589 1_555
B15 Sc3 2.647589 1_655
