# generated using pymatgen
data_MgMn6(O2F)4
_symmetry_space_group_name_H-M   'P 1'
_cell_length_a   5.11682027
_cell_length_b   14.16967522
_cell_length_c   3.04501144
_cell_angle_alpha   89.79239583
_cell_angle_beta   89.75416213
_cell_angle_gamma   92.05231678
_symmetry_Int_Tables_number   1
_chemical_formula_structural   MgMn6(O2F)4
_chemical_formula_sum   'Mg1 Mn6 O8 F4'
_cell_volume   220.62931550
_cell_formula_units_Z   1
loop_
 _symmetry_equiv_pos_site_id
 _symmetry_equiv_pos_as_xyz
  1  'x, y, z'
loop_
 _atom_site_type_symbol
 _atom_site_label
 _atom_site_symmetry_multiplicity
 _atom_site_fract_x
 _atom_site_fract_y
 _atom_site_fract_z
 _atom_site_occupancy
  Mg  Mg0  1  0.37989900  0.98786200  0.99713000  1
  Mn  Mn0  1  0.87004900  0.03426900  0.99780800  1
  Mn  Mn1  1  0.00685100  0.34406900  0.00118600  1
  Mn  Mn2  1  0.11040500  0.64575900  0.00065700  1
  Mn  Mn3  1  0.39440000  0.17761600  0.50077100  1
  Mn  Mn4  1  0.59596300  0.50586000  0.50114500  1
  Mn  Mn5  1  0.56256300  0.80473400  0.49911200  1
  O  O0  1  0.17153800  0.28161400  0.50164600  1
  O  O1  1  0.27981000  0.58762200  0.50115500  1
  O  O2  1  0.20041000  0.11422800  0.98835100  1
  O  O3  1  0.37730600  0.74728900  0.00026700  1
  O  O4  1  0.77861800  0.56596300  0.00091800  1
  O  O5  1  0.65757100  0.89261600  0.99806800  1
  O  O6  1  0.60447000  0.06091500  0.49841300  1
  O  O7  1  0.83407600  0.40276800  0.50152000  1
  F  F0  1  0.14640500  0.94748800  0.49773500  1
  F  F1  1  0.39123100  0.43864700  0.00066700  1
  F  F2  1  0.63599900  0.22982300  0.01432500  1
  F  F3  1  0.91632600  0.72159300  0.49912100  1
loop_
_geom_bond_atom_site_label_1
_geom_bond_atom_site_label_2
_geom_bond_distance
_geom_bond_site_symmetry_2
Mg0 O5 1.994356 1_555
Mg0 O2 2.041560 1_565
Mg0 O6 2.141611 1_565
Mg0 O6 2.159435 1_566
Mn0 O2 2.001029 1_655
Mn0 O6 2.082306 1_556
Mn0 O6 2.086135 1_555
Mn0 O5 2.248215 1_545
Mn1 O7 1.960440 1_454
Mn1 O7 1.960809 1_455
Mn1 O0 1.964483 1_554
Mn1 O0 1.967287 1_555
Mn2 O1 1.947384 1_554
Mn2 O3 1.947833 1_555
Mn2 O1 1.950900 1_555
Mn2 O4 2.005769 1_455
Mn3 O0 1.895338 1_555
Mn3 O2 1.977409 1_555
Mn3 O6 2.004299 1_555
Mn3 O2 2.046026 1_554
Mn4 O7 1.935409 1_555
Mn4 O4 1.959667 1_555
Mn4 O4 1.969594 1_556
Mn4 O1 2.023215 1_555
Mn5 O3 1.952739 1_556
Mn5 O3 1.958189 1_555
Mn5 O5 2.012765 1_554
Mn5 O5 2.017931 1_555
F0 Mg0 2.001858 1_554
F0 Mg0 2.009990 1_555
F0 Mn0 2.439256 1_465
F0 Mn0 2.440990 1_464
F1 Mn4 2.054853 1_554
F1 Mn4 2.068737 1_555
F1 Mn1 2.339971 1_555
F2 Mn3 2.044596 1_555
F2 Mn3 2.116683 1_554
F2 Mn1 2.449875 1_655
F3 Mn2 2.126016 1_655
F3 Mn2 2.133229 1_656
F3 Mn5 2.194818 1_555
