# generated using pymatgen
data_LiVP2O7
_symmetry_space_group_name_H-M   'P 1'
_cell_length_a   6.39692359
_cell_length_b   6.39692359
_cell_length_c   13.34890624
_cell_angle_alpha   74.86142607
_cell_angle_beta   74.86142607
_cell_angle_gamma   80.65864345
_symmetry_Int_Tables_number   1
_chemical_formula_structural   LiVP2O7
_chemical_formula_sum   'Li4 V4 P8 O28'
_cell_volume   506.38789998
_cell_formula_units_Z   4
loop_
 _symmetry_equiv_pos_site_id
 _symmetry_equiv_pos_as_xyz
  1  'x, y, z'
loop_
 _atom_site_type_symbol
 _atom_site_label
 _atom_site_symmetry_multiplicity
 _atom_site_fract_x
 _atom_site_fract_y
 _atom_site_fract_z
 _atom_site_occupancy
  Li  Li0  1  0.23565500  0.01753200  0.84990700  1
  Li  Li1  1  0.01753200  0.23565500  0.34990700  1
  Li  Li2  1  0.98246800  0.76434500  0.65009300  1
  Li  Li3  1  0.76434500  0.98246800  0.15009300  1
  V  V0  1  0.12752700  0.59810900  0.14052900  1
  V  V1  1  0.40189100  0.87247300  0.35947100  1
  V  V2  1  0.59810900  0.12752700  0.64052900  1
  V  V3  1  0.87247300  0.40189100  0.85947100  1
  P  P0  1  0.90815000  0.75397500  0.36244300  1
  P  P1  1  0.58764000  0.66889400  0.57044800  1
  P  P2  1  0.33110600  0.41236000  0.92955200  1
  P  P3  1  0.75397500  0.90815000  0.86244300  1
  P  P4  1  0.24602500  0.09185000  0.13755700  1
  P  P5  1  0.66889400  0.58764000  0.07044800  1
  P  P6  1  0.41236000  0.33110600  0.42955200  1
  P  P7  1  0.09185000  0.24602500  0.63755700  1
  O  O0  1  0.06619500  0.88902000  0.38068100  1
  O  O1  1  0.11098000  0.93380500  0.11931900  1
  O  O2  1  0.66933400  0.81338600  0.62508000  1
  O  O3  1  0.73121500  0.90488700  0.31293400  1
  O  O4  1  0.55382900  0.45838500  0.85868600  1
  O  O5  1  0.01879600  0.57630300  0.30148700  1
  O  O6  1  0.79422600  0.61514200  0.47671300  1
  O  O7  1  0.21449600  0.60074600  0.98169100  1
  O  O8  1  0.39925400  0.78550400  0.51830900  1
  O  O9  1  0.54161500  0.44617100  0.64131400  1
  O  O10  1  0.38485800  0.20577400  0.02328700  1
  O  O11  1  0.81338600  0.66933400  0.12508000  1
  O  O12  1  0.42369700  0.98120400  0.19851300  1
  O  O13  1  0.09511300  0.26878500  0.18706600  1
  O  O14  1  0.90488700  0.73121500  0.81293400  1
  O  O15  1  0.57630300  0.01879600  0.80148700  1
  O  O16  1  0.18661400  0.33066600  0.87492000  1
  O  O17  1  0.61514200  0.79422600  0.97671300  1
  O  O18  1  0.45838500  0.55382900  0.35868600  1
  O  O19  1  0.60074600  0.21449600  0.48169100  1
  O  O20  1  0.78550400  0.39925400  0.01830900  1
  O  O21  1  0.20577400  0.38485800  0.52328700  1
  O  O22  1  0.98120400  0.42369700  0.69851300  1
  O  O23  1  0.44617100  0.54161500  0.14131400  1
  O  O24  1  0.26878500  0.09511300  0.68706600  1
  O  O25  1  0.33066600  0.18661400  0.37492000  1
  O  O26  1  0.88902000  0.06619500  0.88068100  1
  O  O27  1  0.93380500  0.11098000  0.61931900  1
loop_
_geom_bond_atom_site_label_1
_geom_bond_atom_site_label_2
_geom_bond_distance
_geom_bond_site_symmetry_2
Li0 O24 2.060694 1_555
Li0 O16 2.076756 1_555
Li0 O15 2.105623 1_555
Li0 O26 2.132944 1_455
Li1 O13 2.060694 1_555
Li1 O25 2.076756 1_555
Li1 O5 2.105623 1_555
Li1 O0 2.132944 1_545
Li2 O14 2.060694 1_555
Li2 O2 2.076756 1_555
Li2 O22 2.105623 1_555
Li2 O27 2.132944 1_565
Li3 O3 2.060694 1_555
Li3 O11 2.076756 1_555
Li3 O12 2.105623 1_555
Li3 O1 2.132944 1_655
O0 P0 1.532843 1_455
O0 V1 2.080165 1_555
O1 P4 1.532843 1_565
O1 V0 2.080165 1_555
O2 P1 1.538579 1_555
O2 V2 2.039241 1_565
O3 P0 1.533798 1_555
O3 V1 2.063470 1_555
O4 P2 1.515982 1_555
O4 V3 2.013850 1_555
O5 P0 1.541396 1_455
O5 V0 2.052843 1_555
O6 P0 1.602662 1_555
O6 P1 1.625983 1_555
O7 P2 1.538890 1_555
O7 V0 2.042981 1_556
O8 P1 1.538890 1_555
O8 V1 2.042981 1_555
O9 P1 1.515982 1_555
O9 V2 2.013850 1_555
O10 P4 1.602662 1_555
O10 P2 1.625983 1_554
O11 P5 1.538579 1_555
O11 V0 2.039241 1_655
O12 P4 1.541396 1_565
O12 V1 2.052843 1_555
O13 P4 1.533798 1_555
O13 V0 2.063470 1_555
O14 P3 1.533798 1_555
O14 V3 2.063470 1_555
O15 P3 1.541396 1_545
O15 V2 2.052843 1_555
O16 P2 1.538579 1_555
O16 V3 2.039241 1_455
O17 P3 1.602662 1_555
O17 P5 1.625983 1_556
O18 P6 1.515982 1_555
O18 V1 2.013850 1_555
O19 P6 1.538890 1_555
O19 V2 2.042981 1_555
O20 P5 1.538890 1_555
O20 V3 2.042981 1_554
O21 P7 1.602662 1_555
O21 P6 1.625983 1_555
O22 P7 1.541396 1_655
O22 V3 2.052843 1_555
O23 P5 1.515982 1_555
O23 V0 2.013850 1_555
O24 P7 1.533798 1_555
O24 V2 2.063470 1_555
O25 P6 1.538579 1_555
O25 V1 2.039241 1_545
O26 P3 1.532843 1_545
O26 V3 2.080165 1_555
O27 P7 1.532843 1_655
O27 V2 2.080165 1_555
