# generated using pymatgen
data_MgV2(PO5)2
_symmetry_space_group_name_H-M   'P 1'
_cell_length_a   5.41712600
_cell_length_b   6.30089460
_cell_length_c   6.30476064
_cell_angle_alpha   88.66713251
_cell_angle_beta   90.08447911
_cell_angle_gamma   89.66647772
_symmetry_Int_Tables_number   1
_chemical_formula_structural   MgV2(PO5)2
_chemical_formula_sum   'Mg1 V2 P2 O10'
_cell_volume   215.13660529
_cell_formula_units_Z   1
loop_
 _symmetry_equiv_pos_site_id
 _symmetry_equiv_pos_as_xyz
  1  'x, y, z'
loop_
 _atom_site_type_symbol
 _atom_site_label
 _atom_site_symmetry_multiplicity
 _atom_site_fract_x
 _atom_site_fract_y
 _atom_site_fract_z
 _atom_site_occupancy
  Mg  Mg0  1  0.31288700  0.56212700  0.94373500  1
  V  V0  1  0.24073200  0.23322700  0.27589600  1
  V  V1  1  0.76466900  0.76233000  0.73910000  1
  P  P0  1  0.50083000  0.24084400  0.74927700  1
  P  P1  1  0.50803900  0.75553200  0.26499100  1
  O  O0  1  0.06428700  0.72281000  0.78509200  1
  O  O1  1  0.30014100  0.23023400  0.58092500  1
  O  O2  1  0.36184500  0.24113600  0.96678000  1
  O  O3  1  0.35707900  0.54378500  0.26298500  1
  O  O4  1  0.32080100  0.93232600  0.29533600  1
  O  O5  1  0.70050800  0.07063000  0.73054900  1
  O  O6  1  0.60820300  0.47415500  0.74211300  1
  O  O7  1  0.71640500  0.75604400  0.42827700  1
  O  O8  1  0.60380000  0.76697900  0.02829600  1
  O  O9  1  0.94533100  0.25992400  0.24073400  1
loop_
_geom_bond_atom_site_label_1
_geom_bond_atom_site_label_2
_geom_bond_distance
_geom_bond_site_symmetry_2
Mg0 O0 1.942189 1_555
Mg0 O3 2.027176 1_556
Mg0 O2 2.040110 1_555
Mg0 O8 2.118252 1_556
Mg0 O6 2.123875 1_555
O0 V1 1.664628 1_455
O1 P0 1.521097 1_555
O1 V0 1.949049 1_555
O2 P0 1.565402 1_555
O2 V0 2.056887 1_556
O3 P1 1.569217 1_555
O3 V0 2.059126 1_555
O4 P1 1.517772 1_555
O4 V0 1.943508 1_565
O5 P0 1.525449 1_555
O5 V1 1.970910 1_545
O6 P0 1.583794 1_555
O6 V1 2.008015 1_555
O7 P1 1.526654 1_555
O7 V1 1.977987 1_555
O8 P1 1.580819 1_555
O8 V1 2.022775 1_554
O9 V0 1.622420 1_655
