# generated using pymatgen
data_MgCo5O8
_symmetry_space_group_name_H-M   'P 1'
_cell_length_a   5.96284502
_cell_length_b   5.75048059
_cell_length_c   5.72377028
_cell_angle_alpha   89.99999553
_cell_angle_beta   61.31767661
_cell_angle_gamma   60.97974149
_symmetry_Int_Tables_number   1
_chemical_formula_structural   MgCo5O8
_chemical_formula_sum   'Mg1 Co5 O8'
_cell_volume   143.46120658
_cell_formula_units_Z   1
loop_
 _symmetry_equiv_pos_site_id
 _symmetry_equiv_pos_as_xyz
  1  'x, y, z'
loop_
 _atom_site_type_symbol
 _atom_site_label
 _atom_site_symmetry_multiplicity
 _atom_site_fract_x
 _atom_site_fract_y
 _atom_site_fract_z
 _atom_site_occupancy
  Mg  Mg0  1  0.74665400  0.11050900  0.87667400  1
  Co  Co0  1  0.48607900  0.49268700  0.50696100  1
  Co  Co1  1  0.48373700  0.99492000  0.50813100  1
  Co  Co2  1  0.22812800  0.87512100  0.13593600  1
  Co  Co3  1  0.99011700  0.49140700  0.50507700  1
  Co  Co4  1  0.99011700  0.49140700  0.00480600  1
  O  O0  1  0.98406100  0.71078700  0.25797000  1
  O  O1  1  0.93171100  0.28917200  0.28414400  1
  O  O2  1  0.49511300  0.74227200  0.72633500  1
  O  O3  1  0.49511300  0.74227200  0.27855300  1
  O  O4  1  0.47708900  0.24435800  0.73444400  1
  O  O5  1  0.47708900  0.24435800  0.28846700  1
  O  O6  1  0.04478500  0.69471900  0.72760600  1
  O  O7  1  0.99163500  0.27482100  0.75418100  1
loop_
_geom_bond_atom_site_label_1
_geom_bond_atom_site_label_2
_geom_bond_distance
_geom_bond_site_symmetry_2
Mg0 O7 1.968324 1_555
Mg0 O5 1.973452 1_556
Mg0 O4 1.973461 1_555
Mg0 O6 2.006273 1_645
Co0 O6 1.926849 1_555
Co0 O4 1.935128 1_555
Co0 O5 1.935132 1_555
Co0 O3 1.944064 1_555
Co0 O2 1.944064 1_555
Co0 O1 1.945964 1_555
Co1 O5 1.905921 1_565
Co1 O4 1.905925 1_565
Co1 O3 1.913353 1_555
Co1 O2 1.913360 1_555
Co1 O7 2.152937 1_465
Co1 O0 2.188688 1_555
Co2 O2 1.962610 1_554
Co2 O3 1.962614 1_555
Co2 O0 1.964049 1_455
Co2 O1 1.997594 1_465
Co3 O7 1.893590 1_555
Co3 O0 1.896865 1_555
Co3 O6 1.965655 1_655
Co3 O1 1.971950 1_555
Co3 O5 2.128123 1_655
Co3 O2 2.162779 1_555
Co4 O7 1.893603 1_554
Co4 O0 1.896869 1_555
Co4 O6 1.965667 1_654
Co4 O1 1.971945 1_555
Co4 O4 2.128123 1_654
Co4 O3 2.162780 1_555
