# generated using pymatgen
data_K4MgV4O10
_symmetry_space_group_name_H-M   'P 1'
_cell_length_a   6.22729797
_cell_length_b   6.48597323
_cell_length_c   8.61301899
_cell_angle_alpha   113.06997659
_cell_angle_beta   112.22428299
_cell_angle_gamma   87.50578584
_symmetry_Int_Tables_number   1
_chemical_formula_structural   K4MgV4O10
_chemical_formula_sum   'K4 Mg1 V4 O10'
_cell_volume   294.03533874
_cell_formula_units_Z   1
loop_
 _symmetry_equiv_pos_site_id
 _symmetry_equiv_pos_as_xyz
  1  'x, y, z'
loop_
 _atom_site_type_symbol
 _atom_site_label
 _atom_site_symmetry_multiplicity
 _atom_site_fract_x
 _atom_site_fract_y
 _atom_site_fract_z
 _atom_site_occupancy
  K  K0  1  0.57327600  0.13933400  0.24255300  1
  K  K1  1  0.41515700  0.90622200  0.80540100  1
  K  K2  1  0.11021700  0.60068500  0.19452100  1
  K  K3  1  0.83063200  0.39777100  0.75729400  1
  Mg  Mg0  1  0.10910900  0.49499200  0.50000400  1
  V  V0  1  0.94773400  0.01353200  0.00491300  1
  V  V1  1  0.44307600  0.50759500  0.99502400  1
  V  V2  1  0.22314600  0.10809300  0.49992100  1
  V  V3  1  0.78541600  0.79831600  0.50002500  1
  O  O0  1  0.27038900  0.28114000  0.96812400  1
  O  O1  1  0.28723300  0.74225600  0.00408700  1
  O  O2  1  0.78228000  0.23895300  0.99585300  1
  O  O3  1  0.80281800  0.81372500  0.03213000  1
  O  O4  1  0.14254200  0.20707600  0.30645200  1
  O  O5  1  0.86088300  0.84509200  0.73775700  1
  O  O6  1  0.62338600  0.60704700  0.26253900  1
  O  O7  1  0.33599200  0.40029700  0.69350500  1
  O  O8  1  0.93768300  0.04624500  0.50000100  1
  O  O9  1  0.45119600  0.94537800  0.49989400  1
loop_
_geom_bond_atom_site_label_1
_geom_bond_atom_site_label_2
_geom_bond_distance
_geom_bond_site_symmetry_2
K0 O1 2.740521 1_545
K0 O8 2.748553 1_555
K0 O0 2.858447 1_554
K0 O3 2.912966 1_545
K0 O4 2.918111 1_555
K0 O6 2.993674 1_555
K0 O2 3.141267 1_554
K0 O9 3.258287 1_545
K1 O0 2.604658 1_565
K1 O1 2.688004 1_556
K1 O3 2.688334 1_556
K1 O2 2.718995 1_565
K1 O9 2.830939 1_555
K2 O3 2.605576 1_455
K2 O0 2.686414 1_554
K2 O2 2.688919 1_454
K2 O1 2.717486 1_555
K2 O9 2.829282 1_555
K3 O2 2.743602 1_555
K3 O8 2.753032 1_555
K3 O3 2.859448 1_556
K3 O0 2.916082 1_655
K3 O7 2.917645 1_555
K3 O5 2.989244 1_555
K3 O1 3.139128 1_656
K3 O9 3.263488 1_545
Mg0 O7 2.023981 1_555
Mg0 O4 2.024510 1_555
O0 V1 1.746346 1_555
O1 V1 1.760699 1_554
O2 V0 1.761481 1_556
O3 V0 1.746058 1_565
O4 V2 1.902232 1_555
O4 V0 2.233115 1_455
O5 V3 1.817459 1_555
O5 V0 1.980057 1_566
O6 V3 1.816600 1_555
O6 V1 1.981651 1_554
O7 V2 1.902315 1_555
O7 V1 2.233223 1_555
O8 V2 1.839623 1_655
O8 V3 1.902127 1_545
O9 V2 1.732106 1_565
O9 V3 2.251189 1_555
