# generated using pymatgen
data_CsSO4
_symmetry_space_group_name_H-M   'P 1'
_cell_length_a   7.95658980
_cell_length_b   7.83475791
_cell_length_c   8.09150720
_cell_angle_alpha   90.00000000
_cell_angle_beta   90.00000000
_cell_angle_gamma   117.51088091
_symmetry_Int_Tables_number   1
_chemical_formula_structural   CsSO4
_chemical_formula_sum   'Cs4 S4 O16'
_cell_volume   447.37112999
_cell_formula_units_Z   4
loop_
 _symmetry_equiv_pos_site_id
 _symmetry_equiv_pos_as_xyz
  1  'x, y, z'
loop_
 _atom_site_type_symbol
 _atom_site_label
 _atom_site_symmetry_multiplicity
 _atom_site_fract_x
 _atom_site_fract_y
 _atom_site_fract_z
 _atom_site_occupancy
  Cs  Cs0  1  0.24979926  0.75024946  0.36924318  1
  Cs  Cs1  1  0.25020074  0.24975054  0.86924318  1
  Cs  Cs2  1  0.75020074  0.24975054  0.63075682  1
  Cs  Cs3  1  0.74979926  0.75024946  0.13075682  1
  S  S0  1  0.24978044  0.25025597  0.34530477  1
  S  S1  1  0.25021956  0.74974403  0.84530477  1
  S  S2  1  0.75021956  0.74974403  0.65469523  1
  S  S3  1  0.74978044  0.25025597  0.15469523  1
  O  O0  1  0.13104121  0.28740746  0.46961363  1
  O  O1  1  0.36895879  0.71259254  0.96961363  1
  O  O2  1  0.86895879  0.71259254  0.53038637  1
  O  O3  1  0.63104121  0.28740746  0.03038637  1
  O  O4  1  0.36099640  0.42004032  0.24709014  1
  O  O5  1  0.13900360  0.57995968  0.74709014  1
  O  O6  1  0.63900360  0.57995968  0.75290986  1
  O  O7  1  0.86099640  0.42004032  0.25290986  1
  O  O8  1  0.63070256  0.78893137  0.53244365  1
  O  O9  1  0.86929744  0.21106863  0.03244365  1
  O  O10  1  0.36929744  0.21106863  0.46755635  1
  O  O11  1  0.13070256  0.78893137  0.96755635  1
  O  O12  1  0.13805226  0.08178594  0.24577255  1
  O  O13  1  0.36194774  0.91821406  0.74577255  1
  O  O14  1  0.86194774  0.91821406  0.75422745  1
  O  O15  1  0.63805226  0.08178594  0.25422745  1
loop_
_geom_bond_atom_site_label_1
_geom_bond_atom_site_label_2
_geom_bond_distance
_geom_bond_site_symmetry_2
Cs0 O15 3.121402 1_565
Cs0 O7 3.123374 1_455
Cs0 O2 3.184858 1_455
Cs0 O8 3.189392 1_555
Cs0 O4 3.250763 1_555
Cs0 O12 3.266393 1_565
Cs0 O13 3.274979 1_555
Cs0 O5 3.289073 1_555
Cs0 O10 3.376473 1_565
Cs0 O0 3.396566 1_555
Cs0 O1 3.420609 1_554
Cs0 O11 3.437913 1_554
Cs1 O14 3.121402 1_445
Cs1 O6 3.123374 1_555
Cs1 O3 3.184858 1_556
Cs1 O9 3.189392 1_456
Cs1 O5 3.250763 1_555
Cs1 O13 3.266393 1_545
Cs1 O12 3.274979 1_556
Cs1 O4 3.289073 1_556
Cs1 O11 3.376473 1_545
Cs1 O1 3.396566 1_555
Cs1 O0 3.420609 1_555
Cs1 O10 3.437913 1_555
Cs2 O13 3.121402 1_545
Cs2 O5 3.123374 1_655
Cs2 O0 3.184858 1_655
Cs2 O10 3.189392 1_555
Cs2 O6 3.250763 1_555
Cs2 O14 3.266393 1_545
Cs2 O15 3.274979 1_555
Cs2 O7 3.289073 1_555
Cs2 O8 3.376473 1_545
Cs2 O2 3.396566 1_555
Cs2 O3 3.420609 1_556
Cs2 O9 3.437913 1_556
Cs3 O12 3.121402 1_665
Cs3 O4 3.123374 1_555
Cs3 O1 3.184858 1_554
Cs3 O11 3.189392 1_654
Cs3 O7 3.250763 1_555
Cs3 O15 3.266393 1_565
Cs3 O14 3.274979 1_554
Cs3 O6 3.289073 1_554
Cs3 O9 3.376473 1_565
Cs3 O3 3.396566 1_555
Cs3 O2 3.420609 1_555
Cs3 O8 3.437913 1_555
O0 S0 1.497688 1_555
O1 S1 1.497688 1_555
O2 S2 1.497688 1_555
O3 S3 1.497688 1_555
O4 S0 1.447975 1_555
O5 S1 1.447975 1_555
O6 S2 1.447975 1_555
O7 S3 1.447975 1_555
O8 S2 1.498935 1_555
O9 S3 1.498935 1_555
O10 S0 1.498935 1_555
O11 S1 1.498935 1_555
O12 S0 1.448129 1_555
O13 S1 1.448129 1_555
O14 S2 1.448129 1_555
O15 S3 1.448129 1_555
