# generated using pymatgen
data_Ta2NiS5
_symmetry_space_group_name_H-M   'P 1'
_cell_length_a   3.42960010
_cell_length_b   6.56311149
_cell_length_c   15.16226375
_cell_angle_alpha   90.00000000
_cell_angle_beta   90.00000000
_cell_angle_gamma   105.14594307
_symmetry_Int_Tables_number   1
_chemical_formula_structural   Ta2NiS5
_chemical_formula_sum   'Ta4 Ni2 S10'
_cell_volume   329.43001519
_cell_formula_units_Z   2
loop_
 _symmetry_equiv_pos_site_id
 _symmetry_equiv_pos_as_xyz
  1  'x, y, z'
loop_
 _atom_site_type_symbol
 _atom_site_label
 _atom_site_symmetry_multiplicity
 _atom_site_fract_x
 _atom_site_fract_y
 _atom_site_fract_z
 _atom_site_occupancy
  Ta  Ta0  1  0.22176043  0.44352086  0.60897353  1
  Ta  Ta1  1  0.77823957  0.55647914  0.39102647  1
  Ta  Ta2  1  0.77823957  0.55647914  0.10897353  1
  Ta  Ta3  1  0.22176043  0.44352086  0.89102647  1
  Ni  Ni0  1  0.30084061  0.60168021  0.25000000  1
  Ni  Ni1  1  0.69915939  0.39831979  0.75000000  1
  S  S0  1  0.68615525  0.37230949  0.25000000  1
  S  S1  1  0.31384475  0.62769051  0.75000000  1
  S  S2  1  0.15330358  0.30660716  0.44992218  1
  S  S3  1  0.84669642  0.69339284  0.55007782  1
  S  S4  1  0.84669642  0.69339284  0.94992218  1
  S  S5  1  0.15330358  0.30660716  0.05007782  1
  S  S6  1  0.59038296  0.18076392  0.86386690  1
  S  S7  1  0.40961704  0.81923608  0.13613310  1
  S  S8  1  0.40961704  0.81923608  0.36386690  1
  S  S9  1  0.59038296  0.18076392  0.63613310  1
loop_
_geom_bond_atom_site_label_1
_geom_bond_atom_site_label_2
_geom_bond_distance
_geom_bond_site_symmetry_2
Ni0 S7 2.209138 1_555
Ni0 S8 2.209138 1_555
Ni0 S0 2.247670 1_455
Ni0 S0 2.247670 1_555
Ni1 S9 2.209138 1_555
Ni1 S6 2.209138 1_555
Ni1 S1 2.247670 1_655
Ni1 S1 2.247670 1_555
S0 Ta2 2.435882 1_555
S0 Ta1 2.435882 1_555
S1 Ta3 2.435882 1_555
S1 Ta0 2.435882 1_555
S2 Ta1 2.498754 1_555
S2 Ta1 2.498755 1_455
S2 Ta0 2.562818 1_555
S3 Ta0 2.498754 1_555
S3 Ta0 2.498755 1_655
S3 Ta1 2.562818 1_555
S4 Ta3 2.498754 1_555
S4 Ta3 2.498755 1_655
S4 Ta2 2.562818 1_556
S5 Ta2 2.498754 1_555
S5 Ta2 2.498755 1_455
S5 Ta3 2.562818 1_554
S6 Ta3 2.425077 1_655
S6 Ta3 2.425082 1_555
S7 Ta2 2.425077 1_455
S7 Ta2 2.425082 1_555
S8 Ta1 2.425077 1_455
S8 Ta1 2.425082 1_555
S9 Ta0 2.425077 1_655
S9 Ta0 2.425082 1_555
