# generated using pymatgen
data_MgCo4(P2O7)4
_symmetry_space_group_name_H-M   'P 1'
_cell_length_a   7.00860202
_cell_length_b   8.32359102
_cell_length_c   9.83525551
_cell_angle_alpha   95.70215719
_cell_angle_beta   109.71742644
_cell_angle_gamma   90.95703533
_symmetry_Int_Tables_number   1
_chemical_formula_structural   MgCo4(P2O7)4
_chemical_formula_sum   'Mg1 Co4 P8 O28'
_cell_volume   536.67052316
_cell_formula_units_Z   1
loop_
 _symmetry_equiv_pos_site_id
 _symmetry_equiv_pos_as_xyz
  1  'x, y, z'
loop_
 _atom_site_type_symbol
 _atom_site_label
 _atom_site_symmetry_multiplicity
 _atom_site_fract_x
 _atom_site_fract_y
 _atom_site_fract_z
 _atom_site_occupancy
  Mg  Mg0  1  0.18200300  0.20351300  0.71509400  1
  Co  Co0  1  0.72158800  0.77620200  0.01391400  1
  Co  Co1  1  0.72358100  0.73244900  0.50384600  1
  Co  Co2  1  0.26860800  0.32212200  0.44930100  1
  Co  Co3  1  0.31833300  0.18390700  0.03706600  1
  P  P0  1  0.53561000  0.06588300  0.81517500  1
  P  P1  1  0.48552300  0.89981300  0.22679600  1
  P  P2  1  0.53776000  0.42269500  0.29045800  1
  P  P3  1  0.92392400  0.95544300  0.80566500  1
  P  P4  1  0.06447900  0.49981500  0.67340900  1
  P  P5  1  0.09193700  0.02284600  0.21842000  1
  P  P6  1  0.46929700  0.60586800  0.69335500  1
  P  P7  1  0.91819300  0.55175700  0.28405100  1
  O  O0  1  0.52483500  0.59497500  0.35852200  1
  O  O1  1  0.86837800  0.60363100  0.13298900  1
  O  O2  1  0.88507900  0.93260600  0.17094700  1
  O  O3  1  0.91508600  0.68828800  0.40363700  1
  O  O4  1  0.11423800  0.42041500  0.81257800  1
  O  O5  1  0.12391000  0.06606700  0.85271000  1
  O  O6  1  0.07291800  0.35439100  0.55912400  1
  O  O7  1  0.23431600  0.63762800  0.68046700  1
  O  O8  1  0.14007500  0.11447400  0.37183000  1
  O  O9  1  0.12539100  0.47492300  0.32430000  1
  O  O10  1  0.10577500  0.14332700  0.11353100  1
  O  O11  1  0.48253700  0.21333300  0.90545100  1
  O  O12  1  0.38296100  0.06697600  0.66253500  1
  O  O13  1  0.53179400  0.91677600  0.89343600  1
  O  O14  1  0.25257900  0.88437000  0.22413100  1
  O  O15  1  0.46279900  0.43047600  0.62293700  1
  O  O16  1  0.59371600  0.60941100  0.85493000  1
  O  O17  1  0.89727500  0.89877600  0.64562300  1
  O  O18  1  0.49798600  0.29476500  0.38093700  1
  O  O19  1  0.39228100  0.39335300  0.13201200  1
  O  O20  1  0.76225600  0.40534400  0.28456700  1
  O  O21  1  0.75972300  0.09125800  0.80874500  1
  O  O22  1  0.51005400  0.06307700  0.17045600  1
  O  O23  1  0.61876300  0.90546000  0.38976400  1
  O  O24  1  0.51917400  0.76096800  0.12608900  1
  O  O25  1  0.92286700  0.82934500  0.90470700  1
  O  O26  1  0.85856700  0.57643200  0.63142700  1
  O  O27  1  0.52790200  0.73684600  0.61220900  1
loop_
_geom_bond_atom_site_label_1
_geom_bond_atom_site_label_2
_geom_bond_distance
_geom_bond_site_symmetry_2
Mg0 O12 1.992608 1_555
Mg0 O5 1.992617 1_555
Mg0 O6 2.034297 1_555
Mg0 O4 2.096721 1_555
Mg0 O11 2.291587 1_555
Co0 O2 1.936388 1_555
Co0 O16 1.938309 1_554
Co0 O13 1.951028 1_554
Co0 O1 2.015912 1_555
Co0 O24 2.079353 1_555
Co0 O25 2.106015 1_554
Co1 O0 1.889678 1_555
Co1 O23 1.916420 1_555
Co1 O26 1.928674 1_555
Co1 O3 1.935207 1_555
Co1 O17 1.938475 1_555
Co1 O27 1.999562 1_555
Co2 O8 1.898026 1_555
Co2 O9 1.912401 1_555
Co2 O15 1.914885 1_555
Co2 O18 1.949245 1_555
Co2 O6 2.018453 1_555
Co3 O19 1.870726 1_555
Co3 O22 1.912074 1_555
Co3 O10 1.920580 1_555
Co3 O5 2.010297 1_554
Co3 O11 2.029500 1_554
O0 P2 1.538558 1_555
O1 P7 1.515991 1_555
O2 P5 1.523561 1_665
O3 P7 1.558139 1_555
O4 P4 1.515676 1_555
O5 P3 1.568792 1_445
O6 P4 1.583982 1_555
O7 P4 1.618742 1_555
O7 P6 1.636623 1_555
O8 P5 1.546384 1_555
O9 P7 1.538812 1_455
O10 P5 1.532691 1_555
O11 P0 1.566704 1_555
O12 P0 1.522407 1_555
O13 P0 1.528443 1_565
O14 P5 1.616423 1_565
O14 P1 1.626677 1_555
O15 P6 1.545510 1_555
O16 P6 1.530160 1_555
O17 P3 1.544719 1_555
O18 P2 1.532725 1_555
O19 P2 1.540011 1_555
O20 P2 1.602265 1_555
O20 P7 1.624845 1_555
O21 P0 1.604483 1_555
O21 P3 1.632005 1_545
O22 P1 1.545783 1_545
O23 P1 1.554642 1_555
O24 P1 1.520380 1_555
O25 P3 1.502779 1_555
O26 P4 1.529991 1_655
O27 P6 1.540565 1_555
