# generated using pymatgen
data_MgV4(CuS4)2
_symmetry_space_group_name_H-M   'P 1'
_cell_length_a   7.31194627
_cell_length_b   7.31194617
_cell_length_c   7.31194513
_cell_angle_alpha   56.77657730
_cell_angle_beta   56.77657968
_cell_angle_gamma   56.77657180
_symmetry_Int_Tables_number   1
_chemical_formula_structural   MgV4(CuS4)2
_chemical_formula_sum   'Mg1 V4 Cu2 S8'
_cell_volume   255.86115662
_cell_formula_units_Z   1
loop_
 _symmetry_equiv_pos_site_id
 _symmetry_equiv_pos_as_xyz
  1  'x, y, z'
loop_
 _atom_site_type_symbol
 _atom_site_label
 _atom_site_symmetry_multiplicity
 _atom_site_fract_x
 _atom_site_fract_y
 _atom_site_fract_z
 _atom_site_occupancy
  Mg  Mg0  1  0.00000000  0.00000000  0.00000000  1
  V  V0  1  0.50000000  0.50000000  0.00000000  1
  V  V1  1  0.00000000  0.50000000  0.50000000  1
  V  V2  1  0.50000000  0.50000000  0.50000000  1
  V  V3  1  0.50000000  0.00000000  0.50000000  1
  Cu  Cu0  1  0.14066200  0.14066200  0.14066200  1
  Cu  Cu1  1  0.85933800  0.85933800  0.85933800  1
  S  S0  1  0.25674900  0.73269900  0.25674900  1
  S  S1  1  0.73897200  0.73897200  0.73897200  1
  S  S2  1  0.26102800  0.26102800  0.26102800  1
  S  S3  1  0.74325100  0.74325100  0.26730100  1
  S  S4  1  0.26730100  0.74325100  0.74325100  1
  S  S5  1  0.25674900  0.25674900  0.73269900  1
  S  S6  1  0.73269900  0.25674900  0.25674900  1
  S  S7  1  0.74325100  0.26730100  0.74325100  1
loop_
_geom_bond_atom_site_label_1
_geom_bond_atom_site_label_2
_geom_bond_distance
_geom_bond_site_symmetry_2
Mg0 S0 2.586367 1_545
Mg0 S7 2.586367 1_454
Mg0 S6 2.586367 1_455
Mg0 S4 2.586367 1_544
Mg0 S5 2.586368 1_554
Mg0 S3 2.586368 1_445
Cu0 S2 2.206853 1_555
Cu0 S5 2.362111 1_554
Cu0 S0 2.362111 1_545
Cu0 S6 2.362111 1_455
Cu0 Mg0 2.578971 1_555
Cu1 S1 2.206853 1_555
Cu1 S3 2.362111 1_556
Cu1 S7 2.362111 1_565
Cu1 S4 2.362111 1_655
Cu1 Mg0 2.578971 1_666
S0 V2 2.460946 1_555
S0 V0 2.471433 1_555
S0 V1 2.471434 1_555
S1 V3 2.405399 1_565
S1 V1 2.405399 1_655
S1 V0 2.405399 1_556
S2 V3 2.405399 1_555
S2 V1 2.405399 1_555
S2 V0 2.405399 1_555
S3 V2 2.460946 1_555
S3 V1 2.471433 1_655
S3 V3 2.471433 1_565
S4 V2 2.460946 1_555
S4 V0 2.471433 1_556
S4 V3 2.471434 1_565
S5 V2 2.460946 1_555
S5 V1 2.471433 1_555
S5 V3 2.471433 1_555
S6 V2 2.460946 1_555
S6 V0 2.471433 1_555
S6 V3 2.471434 1_555
S7 V2 2.460946 1_555
S7 V0 2.471433 1_556
S7 V1 2.471434 1_655
