# generated using pymatgen
data_Li2PbO3
_symmetry_space_group_name_H-M   'P 1'
_cell_length_a   5.35890965
_cell_length_b   5.35891111
_cell_length_c   5.45622338
_cell_angle_alpha   100.03192364
_cell_angle_beta   100.03192922
_cell_angle_gamma   119.85316593
_symmetry_Int_Tables_number   1
_chemical_formula_structural   Li2PbO3
_chemical_formula_sum   'Li4 Pb2 O6'
_cell_volume   127.42365027
_cell_formula_units_Z   2
loop_
 _symmetry_equiv_pos_site_id
 _symmetry_equiv_pos_as_xyz
  1  'x, y, z'
loop_
 _atom_site_type_symbol
 _atom_site_label
 _atom_site_symmetry_multiplicity
 _atom_site_fract_x
 _atom_site_fract_y
 _atom_site_fract_z
 _atom_site_occupancy
  Li  Li0  1  0.25653064  0.74346936  0.75000000  1
  Li  Li1  1  0.74346936  0.25653064  0.25000000  1
  Li  Li2  1  0.58142485  0.41857515  0.75000000  1
  Li  Li3  1  0.41857515  0.58142485  0.25000000  1
  Pb  Pb0  1  0.08933085  0.91066915  0.25000000  1
  Pb  Pb1  1  0.91066915  0.08933085  0.75000000  1
  O  O0  1  -0.00000000  0.50000000  -0.00000000  1
  O  O1  1  0.50000000  -0.00000000  0.50000000  1
  O  O2  1  0.67527593  0.83579295  0.99178768  1
  O  O3  1  0.16420705  0.32472407  0.50821232  1
  O  O4  1  0.32472407  0.16420705  0.00821232  1
  O  O5  1  0.83579295  0.67527593  0.49178768  1
loop_
_geom_bond_atom_site_label_1
_geom_bond_atom_site_label_2
_geom_bond_distance
_geom_bond_site_symmetry_2
Li0 O2 2.157943 1_555
Li0 O3 2.157944 1_555
Li0 O0 2.222727 1_556
Li0 O1 2.222727 1_565
Li0 O5 2.257372 1_455
Li0 O4 2.257373 1_566
Li1 O4 2.157943 1_555
Li1 O5 2.157944 1_555
Li1 O0 2.222727 1_655
Li1 O1 2.222727 1_555
Li1 O3 2.257372 1_655
Li1 O2 2.257373 1_544
Li2 O3 2.148029 1_555
Li2 O2 2.148029 1_555
Li2 O0 2.198816 1_656
Li2 O1 2.198817 1_555
Li2 O4 2.283169 1_556
Li2 O5 2.283169 1_555
Li3 O5 2.148029 1_555
Li3 O4 2.148029 1_555
Li3 O0 2.198816 1_555
Li3 O1 2.198817 1_565
Li3 O2 2.283169 1_554
Li3 O3 2.283169 1_555
O0 Pb1 2.147293 1_454
O0 Pb0 2.147293 1_555
O1 Pb1 2.147293 1_555
O1 Pb0 2.147293 1_545
O2 Pb1 2.162328 1_565
O2 Pb0 2.212893 1_656
O3 Pb1 2.162328 1_455
O3 Pb0 2.212893 1_545
O4 Pb0 2.162328 1_545
O4 Pb1 2.212893 1_454
O5 Pb0 2.162328 1_655
O5 Pb1 2.212893 1_565
