# generated using pymatgen
data_MgCu6(OF5)2
_symmetry_space_group_name_H-M   'P 1'
_cell_length_a   8.21508535
_cell_length_b   6.01631070
_cell_length_c   5.55747386
_cell_angle_alpha   68.00114265
_cell_angle_beta   109.86243225
_cell_angle_gamma   109.76011129
_symmetry_Int_Tables_number   1
_chemical_formula_structural   MgCu6(OF5)2
_chemical_formula_sum   'Mg1 Cu6 O2 F10'
_cell_volume   232.42169664
_cell_formula_units_Z   1
loop_
 _symmetry_equiv_pos_site_id
 _symmetry_equiv_pos_as_xyz
  1  'x, y, z'
loop_
 _atom_site_type_symbol
 _atom_site_label
 _atom_site_symmetry_multiplicity
 _atom_site_fract_x
 _atom_site_fract_y
 _atom_site_fract_z
 _atom_site_occupancy
  Mg  Mg0  1  0.83573500  0.80709900  0.35420600  1
  Cu  Cu0  1  0.60564500  0.59912400  0.75852700  1
  Cu  Cu1  1  0.80940600  0.30614700  0.31564500  1
  Cu  Cu2  1  0.19352500  0.67561400  0.67405000  1
  Cu  Cu3  1  0.33464000  0.39129800  0.29849600  1
  Cu  Cu4  1  0.46994500  0.00294700  0.00096500  1
  Cu  Cu5  1  0.02885700  0.00863300  0.95390600  1
  O  O0  1  0.63429200  0.30143200  0.99826100  1
  O  O1  1  0.34508800  0.67943800  0.01058600  1
  F  F0  1  0.99309200  0.76988900  0.72175200  1
  F  F1  1  0.75168100  0.85076400  0.95791400  1
  F  F2  1  0.64102700  0.88008400  0.42157000  1
  F  F3  1  0.98599000  0.28758100  0.65347200  1
  F  F4  1  0.69129500  0.46471300  0.42387300  1
  F  F5  1  0.34475200  0.56011100  0.55095800  1
  F  F6  1  0.04116300  0.73254100  0.29505800  1
  F  F7  1  0.35214200  0.10294500  0.60400500  1
  F  F8  1  0.27969700  0.17638500  0.07657700  1
  F  F9  1  0.95369400  0.16516000  0.23018100  1
loop_
_geom_bond_atom_site_label_1
_geom_bond_atom_site_label_2
_geom_bond_distance
_geom_bond_site_symmetry_2
Cu0 O0 1.822750 1_555
Cu0 F1 2.021020 1_555
Cu0 F2 2.028475 1_555
Cu0 F5 2.040098 1_555
Cu1 O0 1.862021 1_554
Cu1 F4 1.914590 1_555
Cu1 F9 1.927259 1_555
Cu1 F3 1.934806 1_555
Cu1 F2 2.419899 1_545
Cu2 O1 1.865274 1_556
Cu2 F5 2.002910 1_555
Cu2 F6 2.019455 1_555
Cu2 F0 2.035667 1_455
Cu2 F3 2.397103 1_455
Cu2 F7 2.406031 1_565
Cu3 O1 1.867452 1_555
Cu3 F7 1.925900 1_555
Cu3 F8 1.954066 1_555
Cu3 F5 1.984509 1_555
Cu4 O0 1.844471 1_554
Cu4 O1 1.858109 1_545
Cu4 F7 2.028286 1_554
Cu4 F2 2.271826 1_545
Cu4 F8 2.363372 1_555
Cu5 F3 1.905009 1_455
Cu5 F8 1.970868 1_556
Cu5 F6 1.996965 1_546
Cu5 F1 2.154928 1_445
Cu5 F0 2.158576 1_445
Cu5 F9 2.397116 1_456
F0 Mg0 1.988045 1_555
F1 Mg0 2.012985 1_556
F2 Mg0 1.973952 1_555
F4 Mg0 1.965465 1_555
F6 Mg0 2.038766 1_455
F9 Mg0 1.996174 1_545
