# generated using pymatgen
data_MgV4(CoO6)2
_symmetry_space_group_name_H-M   'P 1'
_cell_length_a   6.89776842
_cell_length_b   6.89776768
_cell_length_c   5.75939284
_cell_angle_alpha   73.44212236
_cell_angle_beta   106.55787982
_cell_angle_gamma   99.93215699
_symmetry_Int_Tables_number   1
_chemical_formula_structural   MgV4(CoO6)2
_chemical_formula_sum   'Mg1 V4 Co2 O12'
_cell_volume   250.52677280
_cell_formula_units_Z   1
loop_
 _symmetry_equiv_pos_site_id
 _symmetry_equiv_pos_as_xyz
  1  'x, y, z'
loop_
 _atom_site_type_symbol
 _atom_site_label
 _atom_site_symmetry_multiplicity
 _atom_site_fract_x
 _atom_site_fract_y
 _atom_site_fract_z
 _atom_site_occupancy
  Mg  Mg0  1  0.27923100  0.27923100  0.25000000  1
  V  V0  1  0.19689900  0.61683200  0.75845100  1
  V  V1  1  0.39090900  0.81868200  0.24894000  1
  V  V2  1  0.61683200  0.19689900  0.74154900  1
  V  V3  1  0.81868200  0.39090900  0.25106000  1
  Co  Co0  1  0.07928200  0.07928200  0.75000000  1
  Co  Co1  1  0.91987700  0.91987700  0.25000000  1
  O  O0  1  0.03128500  0.80285500  0.64970600  1
  O  O1  1  0.08256600  0.37228100  0.77844800  1
  O  O2  1  0.20720800  0.00535000  0.15404000  1
  O  O3  1  0.36483300  0.66105000  0.56876200  1
  O  O4  1  0.37228100  0.08256600  0.72155200  1
  O  O5  1  0.31639100  0.59406900  0.08857600  1
  O  O6  1  0.66105000  0.36483300  0.93123800  1
  O  O7  1  0.63710000  0.91033700  0.27680500  1
  O  O8  1  0.59406900  0.31639100  0.41142400  1
  O  O9  1  0.80285500  0.03128500  0.85029400  1
  O  O10  1  0.91033700  0.63710000  0.22319500  1
  O  O11  1  0.00535000  0.20720800  0.34596000  1
loop_
_geom_bond_atom_site_label_1
_geom_bond_atom_site_label_2
_geom_bond_distance
_geom_bond_site_symmetry_2
Mg0 O2 2.058167 1_555
Mg0 O11 2.058167 1_555
Mg0 O5 2.106957 1_555
Mg0 O8 2.106957 1_555
Mg0 O4 2.614382 1_555
Mg0 O1 2.614382 1_554
Co0 O1 2.069489 1_555
Co0 O4 2.069489 1_555
Co0 O0 2.092816 1_545
Co0 O9 2.092816 1_455
Co0 O2 2.182256 1_556
Co0 O11 2.182256 1_555
Co1 O10 1.988541 1_555
Co1 O7 1.988541 1_555
Co1 O11 2.148639 1_665
Co1 O2 2.148639 1_665
Co1 O0 2.165215 1_655
Co1 O9 2.165215 1_564
O0 V0 1.727290 1_555
O1 V0 1.721287 1_555
O2 V1 1.824611 1_545
O3 V0 1.742954 1_555
O3 V1 1.894023 1_555
O4 V2 1.721287 1_555
O5 V0 1.816673 1_554
O5 V1 1.946267 1_555
O6 V2 1.742954 1_555
O6 V3 1.894023 1_556
O7 V1 1.685636 1_555
O8 V2 1.816673 1_555
O8 V3 1.946267 1_555
O9 V2 1.727290 1_555
O10 V3 1.685635 1_555
O11 V3 1.824611 1_455
