# generated using pymatgen
data_MgTiZn(BiO3)2
_symmetry_space_group_name_H-M   'P 1'
_cell_length_a   3.78585426
_cell_length_b   3.78585028
_cell_length_c   11.31644707
_cell_angle_alpha   90.00000000
_cell_angle_beta   90.00000000
_cell_angle_gamma   90.00000000
_symmetry_Int_Tables_number   1
_chemical_formula_structural   MgTiZn(BiO3)2
_chemical_formula_sum   'Mg1 Ti1 Zn1 Bi2 O6'
_cell_volume   162.19498528
_cell_formula_units_Z   1
loop_
 _symmetry_equiv_pos_site_id
 _symmetry_equiv_pos_as_xyz
  1  'x, y, z'
loop_
 _atom_site_type_symbol
 _atom_site_label
 _atom_site_symmetry_multiplicity
 _atom_site_fract_x
 _atom_site_fract_y
 _atom_site_fract_z
 _atom_site_occupancy
  Mg  Mg0  1  -0.00000000  -0.00000000  0.31417458  1
  Ti  Ti0  1  0.50000000  0.50000000  0.80856935  1
  Zn  Zn0  1  0.50000000  0.50000000  0.20738997  1
  Bi  Bi0  1  -0.00000000  0.00000000  0.59775153  1
  Bi  Bi1  1  -0.00000000  -0.00000000  0.99355884  1
  O  O0  1  0.50000000  0.50000000  0.64314653  1
  O  O1  1  -0.00000000  0.50000000  0.25916978  1
  O  O2  1  0.50000000  0.00000000  0.85462635  1
  O  O3  1  0.50000000  -0.00000000  0.25916978  1
  O  O4  1  0.50000000  0.50000000  0.02351595  1
  O  O5  1  0.00000000  0.50000000  0.85462735  1
loop_
_geom_bond_atom_site_label_1
_geom_bond_atom_site_label_2
_geom_bond_distance
_geom_bond_site_symmetry_2
Mg0 O1 1.992642 1_545
Mg0 O1 1.992642 1_555
Mg0 O3 1.992644 1_455
Mg0 O3 1.992644 1_555
Bi0 O0 2.725846 1_445
Bi0 O0 2.725846 1_545
Bi0 O0 2.725846 1_455
Bi0 O0 2.725846 1_555
Bi0 Mg0 3.209084 1_555
Bi1 O5 2.460694 1_555
Bi1 O5 2.460694 1_545
Bi1 O2 2.460702 1_455
Bi1 O2 2.460702 1_555
Bi1 O4 2.698382 1_546
Bi1 O4 2.698382 1_456
Bi1 O4 2.698382 1_446
Bi1 O4 2.698382 1_556
O0 Ti0 1.871999 1_555
O1 Zn0 1.981546 1_555
O1 Zn0 1.981546 1_455
O2 Ti0 1.963369 1_545
O2 Ti0 1.963369 1_555
O3 Zn0 1.981545 1_545
O3 Zn0 1.981545 1_555
O4 Zn0 2.080801 1_555
O4 Ti0 2.432432 1_554
O5 Ti0 1.963374 1_555
O5 Ti0 1.963374 1_455
