# generated using pymatgen
data_Na3Li3Co2F12
_symmetry_space_group_name_H-M   'P 1'
_cell_length_a   10.84209592
_cell_length_b   10.84209592
_cell_length_c   10.84209592
_cell_angle_alpha   109.47122063
_cell_angle_beta   109.47122063
_cell_angle_gamma   109.47122063
_symmetry_Int_Tables_number   1
_chemical_formula_structural   Na3Li3Co2F12
_chemical_formula_sum   'Na12 Li12 Co8 F48'
_cell_volume   981.11032273
_cell_formula_units_Z   4
loop_
 _symmetry_equiv_pos_site_id
 _symmetry_equiv_pos_as_xyz
  1  'x, y, z'
loop_
 _atom_site_type_symbol
 _atom_site_label
 _atom_site_symmetry_multiplicity
 _atom_site_fract_x
 _atom_site_fract_y
 _atom_site_fract_z
 _atom_site_occupancy
  Na  Na0  1  0.87500000  0.75000000  0.62500000  1
  Na  Na1  1  0.62500000  0.25000000  0.87500000  1
  Na  Na2  1  0.25000000  0.87500000  0.62500000  1
  Na  Na3  1  0.87500000  0.62500000  0.25000000  1
  Na  Na4  1  0.62500000  0.87500000  0.75000000  1
  Na  Na5  1  0.75000000  0.62500000  0.87500000  1
  Na  Na6  1  0.12500000  0.25000000  0.37500000  1
  Na  Na7  1  0.37500000  0.75000000  0.12500000  1
  Na  Na8  1  0.75000000  0.12500000  0.37500000  1
  Na  Na9  1  0.12500000  0.37500000  0.75000000  1
  Na  Na10  1  0.25000000  0.37500000  0.12500000  1
  Na  Na11  1  0.37500000  0.12500000  0.25000000  1
  Li  Li0  1  0.62500000  0.37500000  0.25000000  1
  Li  Li1  1  0.25000000  0.12500000  0.87500000  1
  Li  Li2  1  0.75000000  0.87500000  0.12500000  1
  Li  Li3  1  0.12500000  0.75000000  0.87500000  1
  Li  Li4  1  0.37500000  0.25000000  0.62500000  1
  Li  Li5  1  0.87500000  0.12500000  0.75000000  1
  Li  Li6  1  0.87500000  0.25000000  0.12500000  1
  Li  Li7  1  0.62500000  0.75000000  0.37500000  1
  Li  Li8  1  0.75000000  0.37500000  0.62500000  1
  Li  Li9  1  0.37500000  0.62500000  0.75000000  1
  Li  Li10  1  0.12500000  0.87500000  0.25000000  1
  Li  Li11  1  0.25000000  0.62500000  0.37500000  1
  Co  Co0  1  0.50000000  0.50000000  0.50000000  1
  Co  Co1  1  0.50000000  0.00000000  0.50000000  1
  Co  Co2  1  0.00000000  0.50000000  0.50000000  1
  Co  Co3  1  0.50000000  0.50000000  0.00000000  1
  Co  Co4  1  0.00000000  0.00000000  0.50000000  1
  Co  Co5  1  0.00000000  0.50000000  0.00000000  1
  Co  Co6  1  0.50000000  0.00000000  0.00000000  1
  Co  Co7  1  0.00000000  0.00000000  0.00000000  1
  F  F0  1  0.42236700  0.82545900  0.80869300  1
  F  F1  1  0.40309200  0.82545900  0.51676700  1
  F  F2  1  0.07763300  0.69130700  0.67454100  1
  F  F3  1  0.09690800  0.61367500  0.42236700  1
  F  F4  1  0.51676700  0.40309200  0.82545900  1
  F  F5  1  0.07763300  0.88632500  0.40309200  1
  F  F6  1  0.98323300  0.67454100  0.09690800  1
  F  F7  1  0.82545900  0.80869300  0.42236700  1
  F  F8  1  0.69130700  0.67454100  0.07763300  1
  F  F9  1  0.80869300  0.88632500  0.98323300  1
  F  F10  1  0.98323300  0.80869300  0.88632500  1
  F  F11  1  0.82545900  0.51676700  0.40309200  1
  F  F12  1  0.69130700  0.51676700  0.61367500  1
  F  F13  1  0.61367500  0.42236700  0.09690800  1
  F  F14  1  0.61367500  0.69130700  0.51676700  1
  F  F15  1  0.67454100  0.07763300  0.69130700  1
  F  F16  1  0.51676700  0.61367500  0.69130700  1
  F  F17  1  0.42236700  0.09690800  0.61367500  1
  F  F18  1  0.09690800  0.98323300  0.67454100  1
  F  F19  1  0.88632500  0.40309200  0.07763300  1
  F  F20  1  0.11367500  0.01676700  0.19130700  1
  F  F21  1  0.59690800  0.92236700  0.11367500  1
  F  F22  1  0.19130700  0.57763300  0.17454100  1
  F  F23  1  0.17454100  0.19130700  0.57763300  1
  F  F24  1  0.32545900  0.90309200  0.01676700  1
  F  F25  1  0.01676700  0.32545900  0.90309200  1
  F  F26  1  0.92236700  0.11367500  0.59690800  1
  F  F27  1  0.48323300  0.59690800  0.17454100  1
  F  F28  1  0.90309200  0.38632500  0.57763300  1
  F  F29  1  0.92236700  0.30869300  0.32545900  1
  F  F30  1  0.59690800  0.17454100  0.48323300  1
  F  F31  1  0.57763300  0.90309200  0.38632500  1
  F  F32  1  0.30869300  0.32545900  0.92236700  1
  F  F33  1  0.19130700  0.11367500  0.01676700  1
  F  F34  1  0.01676700  0.19130700  0.11367500  1
  F  F35  1  0.17454100  0.48323300  0.59690800  1
  F  F36  1  0.30869300  0.48323300  0.38632500  1
  F  F37  1  0.38632500  0.57763300  0.90309200  1
  F  F38  1  0.38632500  0.30869300  0.48323300  1
  F  F39  1  0.32545900  0.92236700  0.30869300  1
  F  F40  1  0.48323300  0.38632500  0.30869300  1
  F  F41  1  0.90309200  0.01676700  0.32545900  1
  F  F42  1  0.11367500  0.59690800  0.92236700  1
  F  F43  1  0.57763300  0.17454100  0.19130700  1
  F  F44  1  0.88632500  0.98323300  0.80869300  1
  F  F45  1  0.40309200  0.07763300  0.88632500  1
  F  F46  1  0.80869300  0.42236700  0.82545900  1
  F  F47  1  0.67454100  0.09690800  0.98323300  1
loop_
_geom_bond_atom_site_label_1
_geom_bond_atom_site_label_2
_geom_bond_distance
_geom_bond_site_symmetry_2
Co0 F36 1.936294 1_555
Co0 F40 1.936294 1_555
Co0 F38 1.936294 1_555
Co0 F12 1.936294 1_555
Co0 F16 1.936294 1_555
Co0 F14 1.936294 1_555
Co1 F39 1.936297 1_545
Co1 F15 1.936297 1_555
Co1 F31 1.936303 1_545
Co1 F17 1.936303 1_555
Co1 F30 1.936303 1_555
Co1 F1 1.936303 1_545
Co2 F29 1.936297 1_455
Co2 F2 1.936297 1_555
Co2 F3 1.936303 1_555
Co2 F28 1.936303 1_455
Co2 F35 1.936303 1_555
Co2 F11 1.936303 1_455
Co3 F32 1.936297 1_554
Co3 F8 1.936297 1_555
Co3 F13 1.936303 1_555
Co3 F37 1.936303 1_554
Co3 F27 1.936303 1_555
Co3 F4 1.936303 1_554
Co4 F23 1.936297 1_555
Co4 F7 1.936297 1_445
Co4 F41 1.936303 1_455
Co4 F18 1.936303 1_545
Co4 F5 1.936303 1_545
Co4 F26 1.936303 1_455
Co5 F22 1.936297 1_555
Co5 F46 1.936297 1_454
Co5 F25 1.936303 1_554
Co5 F6 1.936303 1_455
Co5 F19 1.936303 1_455
Co5 F42 1.936303 1_554
Co6 F43 1.936297 1_555
Co6 F0 1.936297 1_544
Co6 F24 1.936303 1_545
Co6 F47 1.936303 1_554
Co6 F45 1.936303 1_554
Co6 F21 1.936303 1_545
Co7 F9 1.936294 1_444
Co7 F44 1.936294 1_444
Co7 F10 1.936294 1_444
Co7 F33 1.936294 1_555
Co7 F34 1.936294 1_555
Co7 F20 1.936294 1_555
F0 Li9 1.873052 1_555
F0 Na4 2.427616 1_555
F0 Na2 2.578485 1_555
F1 Li11 1.873054 1_555
F1 Na2 2.427609 1_555
F1 Na4 2.578478 1_555
F2 Li3 1.873052 1_555
F2 Na0 2.427616 1_455
F2 Na2 2.578485 1_555
F3 Li11 1.873054 1_555
F3 Na2 2.427609 1_555
F3 Na3 2.578478 1_455
F4 Li4 1.873054 1_555
F4 Na1 2.427609 1_555
F4 Na5 2.578478 1_555
F5 Li10 1.873054 1_555
F5 Na3 2.427609 1_455
F5 Na2 2.578478 1_555
F6 Li10 1.873054 1_655
F6 Na3 2.427609 1_555
F6 Na5 2.578478 1_554
F7 Li7 1.873052 1_555
F7 Na0 2.427616 1_555
F7 Na3 2.578485 1_555
F8 Li2 1.873052 1_555
F8 Na5 2.427616 1_554
F8 Na3 2.578485 1_555
F9 Li2 1.873060 1_556
F9 Na5 2.427606 1_555
F9 Na4 2.578483 1_555
F10 Li3 1.873060 1_655
F10 Na0 2.427606 1_555
F10 Na5 2.578483 1_555
F11 Li0 1.873054 1_555
F11 Na3 2.427609 1_555
F11 Na0 2.578478 1_555
F12 Li8 1.873060 1_555
F12 Na5 2.427606 1_555
F12 Na0 2.578483 1_555
F13 Li0 1.873054 1_555
F13 Na3 2.427609 1_555
F13 Na1 2.578478 1_554
F14 Li7 1.873060 1_555
F14 Na0 2.427606 1_555
F14 Na4 2.578483 1_555
F15 Li5 1.873052 1_555
F15 Na4 2.427616 1_545
F15 Na1 2.578485 1_555
F16 Li9 1.873060 1_555
F16 Na4 2.427606 1_555
F16 Na5 2.578483 1_555
F17 Li4 1.873054 1_555
F17 Na1 2.427609 1_555
F17 Na2 2.578478 1_545
F18 Li1 1.873054 1_565
F18 Na2 2.427609 1_555
F18 Na0 2.578478 1_455
F19 Li6 1.873054 1_555
F19 Na1 2.427609 1_554
F19 Na3 2.578478 1_555
F20 Li10 1.873060 1_545
F20 Na11 2.427606 1_555
F20 Na6 2.578483 1_555
F21 Li2 1.873054 1_555
F21 Na8 2.427609 1_565
F21 Na7 2.578478 1_555
F22 Li11 1.873052 1_555
F22 Na10 2.427616 1_555
F22 Na7 2.578485 1_555
F23 Li4 1.873052 1_555
F23 Na6 2.427616 1_555
F23 Na9 2.578485 1_555
F24 Li3 1.873054 1_554
F24 Na7 2.427609 1_555
F24 Na11 2.578478 1_565
F25 Li5 1.873054 1_455
F25 Na9 2.427609 1_555
F25 Na10 2.578478 1_556
F26 Li5 1.873054 1_555
F26 Na9 2.427609 1_655
F26 Na8 2.578478 1_555
F27 Li7 1.873054 1_555
F27 Na7 2.427609 1_555
F27 Na10 2.578478 1_555
F28 Li8 1.873054 1_555
F28 Na8 2.427609 1_555
F28 Na9 2.578478 1_655
F29 Li6 1.873052 1_555
F29 Na6 2.427616 1_655
F29 Na8 2.578485 1_555
F30 Li8 1.873054 1_555
F30 Na8 2.427609 1_555
F30 Na11 2.578478 1_555
F31 Li7 1.873054 1_555
F31 Na7 2.427609 1_555
F31 Na8 2.578478 1_565
F32 Li1 1.873052 1_555
F32 Na10 2.427616 1_556
F32 Na9 2.578485 1_555
F33 Li1 1.873060 1_554
F33 Na10 2.427606 1_555
F33 Na11 2.578483 1_555
F34 Li6 1.873060 1_455
F34 Na6 2.427606 1_555
F34 Na10 2.578483 1_555
F35 Li9 1.873054 1_555
F35 Na9 2.427609 1_555
F35 Na6 2.578478 1_555
F36 Li11 1.873060 1_555
F36 Na10 2.427606 1_555
F36 Na6 2.578483 1_555
F37 Li9 1.873054 1_555
F37 Na9 2.427609 1_555
F37 Na7 2.578478 1_556
F38 Li4 1.873060 1_555
F38 Na6 2.427606 1_555
F38 Na11 2.578483 1_555
F39 Li10 1.873052 1_555
F39 Na11 2.427616 1_565
F39 Na7 2.578485 1_555
F40 Li0 1.873060 1_555
F40 Na11 2.427606 1_555
F40 Na10 2.578483 1_555
F41 Li2 1.873054 1_545
F41 Na8 2.427609 1_555
F41 Na6 2.578478 1_655
F42 Li3 1.873054 1_555
F42 Na7 2.427609 1_556
F42 Na9 2.578478 1_555
F43 Li0 1.873052 1_555
F43 Na11 2.427616 1_555
F43 Na8 2.578485 1_555
F44 Li5 1.873060 1_565
F44 Na4 2.427606 1_555
F44 Na0 2.578483 1_555
F45 Li1 1.873054 1_555
F45 Na2 2.427609 1_545
F45 Na1 2.578478 1_555
F46 Li8 1.873052 1_555
F46 Na5 2.427616 1_555
F46 Na1 2.578485 1_555
F47 Li6 1.873054 1_556
F47 Na1 2.427609 1_555
F47 Na4 2.578478 1_545
