# generated using pymatgen
data_CsCu2I3
_symmetry_space_group_name_H-M   'P 1'
_cell_length_a   6.08358900
_cell_length_b   8.68275689
_cell_length_c   8.68275689
_cell_angle_alpha   105.61393589
_cell_angle_beta   90.00000000
_cell_angle_gamma   90.00000000
_symmetry_Int_Tables_number   1
_chemical_formula_structural   CsCu2I3
_chemical_formula_sum   'Cs2 Cu4 I6'
_cell_volume   441.71814193
_cell_formula_units_Z   2
loop_
 _symmetry_equiv_pos_site_id
 _symmetry_equiv_pos_as_xyz
  1  'x, y, z'
loop_
 _atom_site_type_symbol
 _atom_site_label
 _atom_site_symmetry_multiplicity
 _atom_site_fract_x
 _atom_site_fract_y
 _atom_site_fract_z
 _atom_site_occupancy
  Cs  Cs0  1  0.25000000  0.67224300  0.32775700  1
  Cs  Cs1  1  0.75000000  0.32775700  0.67224300  1
  Cu  Cu0  1  0.00000000  0.86249400  0.86249400  1
  Cu  Cu1  1  0.50000000  0.13750600  0.13750600  1
  Cu  Cu2  1  0.00000000  0.13750600  0.13750600  1
  Cu  Cu3  1  0.50000000  0.86249400  0.86249400  1
  I  I0  1  0.25000000  0.12049700  0.87950300  1
  I  I1  1  0.75000000  0.87950300  0.12049700  1
  I  I2  1  0.75000000  0.39191300  0.16082300  1
  I  I3  1  0.25000000  0.60808700  0.83917700  1
  I  I4  1  0.25000000  0.16082300  0.39191300  1
  I  I5  1  0.75000000  0.83917700  0.60808700  1
loop_
_geom_bond_atom_site_label_1
_geom_bond_atom_site_label_2
_geom_bond_distance
_geom_bond_site_symmetry_2
Cs0 I2 3.921580 1_555
Cs0 I2 3.921580 1_455
Cs0 I5 3.921580 1_455
Cs0 I5 3.921580 1_555
Cs0 I3 4.127306 1_554
Cs0 I4 4.127306 1_565
Cs0 I1 4.180056 1_455
Cs0 I1 4.180056 1_555
Cs1 I4 3.921580 1_655
Cs1 I4 3.921580 1_555
Cs1 I3 3.921580 1_555
Cs1 I3 3.921580 1_655
Cs1 I5 4.127306 1_545
Cs1 I2 4.127306 1_556
Cs1 I0 4.180056 1_555
Cs1 I0 4.180056 1_655
Cu0 I3 2.644401 1_555
Cu0 I5 2.644401 1_455
Cu0 I1 2.678664 1_456
Cu0 I0 2.678664 1_565
Cu1 I2 2.644401 1_555
Cu1 I4 2.644401 1_555
Cu1 I0 2.678664 1_554
Cu1 I1 2.678664 1_545
Cu2 I2 2.644401 1_455
Cu2 I4 2.644401 1_555
Cu2 I1 2.678664 1_445
Cu2 I0 2.678664 1_554
Cu3 I5 2.644401 1_555
Cu3 I3 2.644401 1_555
Cu3 I1 2.678664 1_556
Cu3 I0 2.678664 1_565
