# generated using pymatgen
data_Na2Ca2Zr6Si3(S3O16)3
_symmetry_space_group_name_H-M   'P 1'
_cell_length_a   18.14197207
_cell_length_b   9.07096471
_cell_length_c   23.72253254
_cell_angle_alpha   90.04455510
_cell_angle_beta   89.92641087
_cell_angle_gamma   120.00139430
_symmetry_Int_Tables_number   1
_chemical_formula_structural   Na2Ca2Zr6Si3(S3O16)3
_chemical_formula_sum   'Na6 Ca6 Zr18 Si9 S27 O144'
_cell_volume   3380.82887104
_cell_formula_units_Z   3
loop_
 _symmetry_equiv_pos_site_id
 _symmetry_equiv_pos_as_xyz
  1  'x, y, z'
loop_
 _atom_site_type_symbol
 _atom_site_label
 _atom_site_symmetry_multiplicity
 _atom_site_fract_x
 _atom_site_fract_y
 _atom_site_fract_z
 _atom_site_occupancy
  Na  Na0  1  0.00247106  0.98843385  0.49271498  1
  Na  Na1  1  0.50033367  0.01432102  0.99736694  1
  Na  Na2  1  0.32995489  0.32329085  0.83954839  1
  Na  Na3  1  0.83558283  0.33423177  0.83669423  1
  Na  Na4  1  0.32429803  0.32177589  0.33218945  1
  Na  Na5  1  0.83207670  0.33899234  0.33635067  1
  Ca  Ca0  1  0.00532244  0.99554268  0.35370033  1
  Ca  Ca1  1  0.49980319  0.00787979  0.85574118  1
  Ca  Ca2  1  0.00147680  0.00753132  0.65084403  1
  Ca  Ca3  1  0.50100074  0.99346726  0.15129689  1
  Ca  Ca4  1  0.83575288  0.33408057  0.98063117  1
  Ca  Ca5  1  0.33559445  0.33523723  0.47912347  1
  Zr  Zr0  1  0.51014004  0.01138887  0.35454212  1
  Zr  Zr1  1  0.01126138  0.00989044  0.85563547  1
  Zr  Zr2  1  0.50513486  0.00198628  0.64382041  1
  Zr  Zr3  1  0.01132204  0.00787645  0.14627600  1
  Zr  Zr4  1  0.32377023  0.32712476  0.68608924  1
  Zr  Zr5  1  0.83378745  0.32480042  0.68171442  1
  Zr  Zr6  1  0.32832797  0.33727260  0.18531518  1
  Zr  Zr7  1  0.82555500  0.31907231  0.18660906  1
  Zr  Zr8  1  0.32679890  0.32143997  0.97687649  1
  Zr  Zr9  1  0.82614555  0.33181015  0.47502181  1
  Zr  Zr10  1  0.16365530  0.67022031  0.02456125  1
  Zr  Zr11  1  0.66416316  0.65900084  0.02254887  1
  Zr  Zr12  1  0.16503435  0.67003647  0.51866065  1
  Zr  Zr13  1  0.66371278  0.66055425  0.52188219  1
  Zr  Zr14  1  0.15696477  0.66821507  0.31042056  1
  Zr  Zr15  1  0.67055724  0.66520383  0.31003730  1
  Zr  Zr16  1  0.16990082  0.67385015  0.81133013  1
  Zr  Zr17  1  0.65881655  0.65564676  0.81427295  1
  Si  Si0  1  0.14944130  0.00580346  0.25092571  1
  Si  Si1  1  0.64692661  0.99847422  0.25006802  1
  Si  Si2  1  0.14674411  0.29550058  0.75014988  1
  Si  Si3  1  0.69047026  0.04161499  0.58164647  1
  Si  Si4  1  0.18955309  0.33782717  0.08149427  1
  Si  Si5  1  0.51939563  0.37486836  0.91973450  1
  Si  Si6  1  0.16724828  0.95060402  0.91661826  1
  Si  Si7  1  0.66542009  0.38206254  0.41626674  1
  Si  Si8  1  0.01868508  0.66493372  0.41876222  1
  S  S0  1  0.35251391  0.70463429  0.25357701  1
  S  S1  1  0.85428233  0.70450567  0.24730177  1
  S  S2  1  0.99733781  0.29037829  0.24839088  1
  S  S3  1  0.49811593  0.29347134  0.25191452  1
  S  S4  1  0.64950496  0.29499037  0.74876964  1
  S  S5  1  0.99672407  0.70059106  0.75219742  1
  S  S6  1  0.49889552  0.70458647  0.74837507  1
  S  S7  1  0.35508062  0.00419541  0.74752733  1
  S  S8  1  0.85130143  0.00109990  0.75287754  1
  S  S9  1  0.47808955  0.33161344  0.58566248  1
  S  S10  1  0.97799742  0.33616205  0.57991403  1
  S  S11  1  0.18765808  0.03794983  0.58157514  1
  S  S12  1  0.33351554  0.62702227  0.58481215  1
  S  S13  1  0.83281542  0.61966139  0.58147142  1
  S  S14  1  0.47745473  0.62012758  0.08007367  1
  S  S15  1  0.97718429  0.62403803  0.08488489  1
  S  S16  1  0.33396028  0.04692869  0.08122508  1
  S  S17  1  0.83376846  0.03857005  0.08445455  1
  S  S18  1  0.68760161  0.33498945  0.08187110  1
  S  S19  1  0.30793717  0.66418686  0.91873824  1
  S  S20  1  0.80984859  0.67070171  0.91391260  1
  S  S21  1  0.02416379  0.38140342  0.91447213  1
  S  S22  1  0.66802996  0.95046363  0.91681300  1
  S  S23  1  0.31030569  0.94880485  0.41404074  1
  S  S24  1  0.80832863  0.95192838  0.41876726  1
  S  S25  1  0.16749938  0.38461433  0.41709247  1
  S  S26  1  0.52444327  0.66744722  0.41449797  1
  O  O0  1  0.11700649  0.05369618  0.30621856  1
  O  O1  1  0.60127095  0.03336265  0.30549243  1
  O  O2  1  0.40940756  0.79241719  0.30222224  1
  O  O3  1  0.90271092  0.76860983  0.29913772  1
  O  O4  1  0.48355636  0.18029396  0.30159086  1
  O  O5  1  0.97714332  0.18954888  0.29958185  1
  O  O6  1  0.10109525  0.16940503  0.80553315  1
  O  O7  1  0.61557323  0.19163959  0.79930744  1
  O  O8  1  0.48185139  0.77170672  0.79931820  1
  O  O9  1  0.98197123  0.78441902  0.80172623  1
  O  O10  1  0.40501753  0.03837736  0.79891833  1
  O  O11  1  0.90731975  0.02940932  0.80191339  1
  O  O12  1  0.39818607  0.98026034  0.69812992  1
  O  O13  1  0.88325894  0.96947837  0.70063410  1
  O  O14  1  0.09573912  0.22456805  0.69357426  1
  O  O15  1  0.59411204  0.21033921  0.69891603  1
  O  O16  1  0.01124151  0.79703454  0.70041965  1
  O  O17  1  0.51097335  0.81594018  0.69865200  1
  O  O18  1  0.38413445  0.80059232  0.20121613  1
  O  O19  1  0.89492436  0.81321640  0.19772694  1
  O  O20  1  0.00775473  0.20357631  0.19846529  1
  O  O21  1  0.51304701  0.22536472  0.20033154  1
  O  O22  1  0.08831890  0.97738444  0.19530321  1
  O  O23  1  0.59605647  0.96675545  0.19335835  1
  O  O24  1  0.43567551  0.35814341  0.63513552  1
  O  O25  1  0.93836204  0.36016950  0.63345718  1
  O  O26  1  0.24083922  0.12639189  0.63366285  1
  O  O27  1  0.75001539  0.13663697  0.63832960  1
  O  O28  1  0.32057660  0.51405302  0.63492437  1
  O  O29  1  0.82294882  0.51460544  0.63334268  1
  O  O30  1  0.44138328  0.52050531  0.13253250  1
  O  O31  1  0.93489422  0.51258900  0.13409621  1
  O  O32  1  0.32390176  0.12957799  0.13242693  1
  O  O33  1  0.81827906  0.12499606  0.13383952  1
  O  O34  1  0.24993481  0.36669417  0.13717779  1
  O  O35  1  0.74060144  0.35480167  0.13298476  1
  O  O36  1  0.23659144  0.30741906  0.02803441  1
  O  O37  1  0.72749186  0.31262947  0.03151234  1
  O  O38  1  0.42503533  0.52695533  0.03082976  1
  O  O39  1  0.92863200  0.55446840  0.03307680  1
  O  O40  1  0.34403457  0.15201793  0.03038464  1
  O  O41  1  0.85092958  0.14316398  0.03401351  1
  O  O42  1  0.22846025  0.14348217  0.53237797  1
  O  O43  1  0.73625263  0.16716748  0.52932769  1
  O  O44  1  0.35289680  0.56044456  0.53497299  1
  O  O45  1  0.84365114  0.53448856  0.53145757  1
  O  O46  1  0.42823946  0.29596327  0.53466414  1
  O  O47  1  0.92406037  0.32202432  0.53178364  1
  O  O48  1  0.26332138  0.67918825  0.96875406  1
  O  O49  1  0.77038511  0.69103374  0.96626704  1
  O  O50  1  0.07283977  0.45651522  0.96694517  1
  O  O51  1  0.58335590  0.48875549  0.97232540  1
  O  O52  1  0.15635518  0.83542000  0.97173184  1
  O  O53  1  0.66505169  0.85265494  0.96814052  1
  O  O54  1  0.27054339  0.85000965  0.46733015  1
  O  O55  1  0.76221714  0.84774743  0.46928122  1
  O  O56  1  0.16662814  0.48135545  0.46948818  1
  O  O57  1  0.65578487  0.47567240  0.47252475  1
  O  O58  1  0.08188356  0.67874706  0.47276826  1
  O  O59  1  0.57388694  0.69020712  0.46747592  1
  O  O60  1  0.06689348  0.64370867  0.36254180  1
  O  O61  1  0.56958867  0.64991122  0.36534120  1
  O  O62  1  0.25491854  0.85895766  0.36508122  1
  O  O63  1  0.75891477  0.87319348  0.36679813  1
  O  O64  1  0.17479036  0.48481364  0.36621869  1
  O  O65  1  0.68008487  0.50101806  0.36174411  1
  O  O66  1  0.06916737  0.48831483  0.86488058  1
  O  O67  1  0.56901994  0.49168276  0.86199623  1
  O  O68  1  0.18057968  0.86138522  0.86087783  1
  O  O69  1  0.67476716  0.86181060  0.86492273  1
  O  O70  1  0.25896061  0.64487430  0.86631544  1
  O  O71  1  0.75380824  0.64983865  0.86409591  1
  O  O72  1  0.00899465  0.82968998  0.42185858  1
  O  O73  1  0.51538866  0.82086671  0.40759031  1
  O  O74  1  0.39380101  0.96001008  0.40668066  1
  O  O75  1  0.89315411  0.97258301  0.41661726  1
  O  O76  1  0.08794086  0.22090759  0.41857729  1
  O  O77  1  0.58019603  0.19607300  0.40703683  1
  O  O78  1  0.01438163  0.20901161  0.90683230  1
  O  O79  1  0.51321505  0.19290398  0.91950056  1
  O  O80  1  0.08123743  0.96517894  0.90683420  1
  O  O81  1  0.58956145  0.95893643  0.91435050  1
  O  O82  1  0.39349112  0.81421494  0.91543346  1
  O  O83  1  0.89292873  0.82539150  0.90490287  1
  O  O84  1  0.49050857  0.18275824  0.59850039  1
  O  O85  1  0.98503547  0.18307495  0.58458371  1
  O  O86  1  0.10120169  0.00829238  0.58848642  1
  O  O87  1  0.59717186  0.02267674  0.59789173  1
  O  O88  1  0.40791324  0.79877039  0.59898703  1
  O  O89  1  0.90711961  0.78958466  0.58685315  1
  O  O90  1  0.48624656  0.78962549  0.08238450  1
  O  O91  1  0.98734947  0.79490340  0.09489736  1
  O  O92  1  0.40835263  0.02447512  0.08483324  1
  O  O93  1  0.90560832  0.01334249  0.09829985  1
  O  O94  1  0.09553153  0.17361973  0.09405865  1
  O  O95  1  0.60077070  0.19265982  0.08793349  1
  O  O96  1  0.34330645  0.15496368  0.73676700  1
  O  O97  1  0.84361093  0.16113256  0.74627686  1
  O  O98  1  0.24473138  0.31588719  0.74392691  1
  O  O99  1  0.73701012  0.32238256  0.73775402  1
  O  O100  1  0.42628885  0.52987456  0.73619443  1
  O  O101  1  0.91952301  0.52540907  0.74668932  1
  O  O102  1  0.34769879  0.53282150  0.24753700  1
  O  O103  1  0.84187928  0.52901872  0.23642045  1
  O  O104  1  0.42272144  0.31692864  0.24655676  1
  O  O105  1  0.92506214  0.32380480  0.23613892  1
  O  O106  1  0.24698426  0.16539038  0.23662521  1
  O  O107  1  0.74457108  0.17326826  0.24395261  1
  O  O108  1  0.31505751  0.50721925  0.92310164  1
  O  O109  1  0.81790503  0.51698436  0.91642930  1
  O  O110  1  0.42911910  0.37249064  0.92379455  1
  O  O111  1  0.93864209  0.36341125  0.91686055  1
  O  O112  1  0.25011359  0.14272175  0.92141420  1
  O  O113  1  0.74505978  0.12046682  0.91758815  1
  O  O114  1  0.31952075  0.11926437  0.41830767  1
  O  O115  1  0.81414342  0.12211341  0.42407752  1
  O  O116  1  0.24386638  0.36642202  0.42037333  1
  O  O117  1  0.74877062  0.35676055  0.42165788  1
  O  O118  1  0.43964655  0.51502982  0.41829558  1
  O  O119  1  0.92807319  0.48511128  0.42543733  1
  O  O120  1  0.17843447  0.50197323  0.06939541  1
  O  O121  1  0.68592601  0.49961640  0.07686801  1
  O  O122  1  0.06356802  0.64271323  0.07858676  1
  O  O123  1  0.56521749  0.64087837  0.07292301  1
  O  O124  1  0.25506008  0.87776973  0.07443711  1
  O  O125  1  0.75552646  0.86983215  0.07639971  1
  O  O126  1  0.18663329  0.87221319  0.57707833  1
  O  O127  1  0.67673012  0.85354060  0.57156743  1
  O  O128  1  0.25762005  0.64459286  0.57835279  1
  O  O129  1  0.75373417  0.62972971  0.57550777  1
  O  O130  1  0.06385732  0.49099802  0.57482112  1
  O  O131  1  0.56404458  0.48455708  0.57891973  1
  O  O132  1  0.15908916  0.83495059  0.25772523  1
  O  O133  1  0.66412691  0.84548264  0.26835085  1
  O  O134  1  0.26571440  0.67228055  0.26581101  1
  O  O135  1  0.76732165  0.68257938  0.25394461  1
  O  O136  1  0.07589404  0.45933700  0.25439655  1
  O  O137  1  0.57374503  0.46480825  0.26319097  1
  O  O138  1  0.16448719  0.48357413  0.76788093  1
  O  O139  1  0.65789195  0.46633326  0.75601234  1
  O  O140  1  0.07121272  0.67745493  0.76331763  1
  O  O141  1  0.57746295  0.69130075  0.75476922  1
  O  O142  1  0.26925402  0.85160709  0.75367979  1
  O  O143  1  0.76430958  0.85624983  0.76472261  1
loop_
_geom_bond_atom_site_label_1
_geom_bond_atom_site_label_2
_geom_bond_distance
_geom_bond_site_symmetry_2
Na0 O72 2.253674 1_555
Na0 O76 2.583244 1_565
Na0 O75 2.633693 1_455
Na0 O86 2.844222 1_565
Na0 O89 2.847645 1_455
Na0 O85 2.918509 1_465
Na1 O79 2.390778 1_555
Na1 O92 2.691267 1_556
Na1 O82 2.704708 1_545
Na1 O81 2.748590 1_545
Na1 O95 2.758603 1_556
Na1 O90 2.787715 1_546
Na2 O112 2.485487 1_555
Na2 O110 2.575802 1_555
Na2 O108 2.688819 1_555
Na2 O98 2.728645 1_555
Na2 O96 2.949171 1_555
Na2 O100 3.049321 1_555
Na3 O111 2.587648 1_555
Na3 O113 2.636793 1_555
Na3 O109 2.637053 1_555
Na3 O101 2.691031 1_555
Na3 O97 2.703710 1_555
Na3 O99 2.921761 1_555
Na4 O102 2.658738 1_555
Na4 O106 2.670667 1_555
Na4 O116 2.692822 1_555
Na4 O104 2.717724 1_555
Na4 O114 2.720619 1_555
Na4 O118 2.821608 1_555
Na5 O117 2.576961 1_555
Na5 O119 2.636816 1_555
Na5 O107 2.683616 1_555
Na5 O115 2.769777 1_555
Na5 O103 2.884666 1_555
Na5 O105 2.955975 1_555
Ca0 O0 2.139759 1_565
Ca0 O72 2.233026 1_555
Ca0 O3 2.355439 1_455
Ca0 O76 2.393978 1_565
Ca0 O5 2.431346 1_465
Ca0 O75 2.445602 1_455
Ca1 O79 2.180005 1_555
Ca1 O10 2.309302 1_555
Ca1 O82 2.328027 1_545
Ca1 O7 2.340330 1_555
Ca1 O81 2.347684 1_545
Ca1 O8 2.405428 1_545
Ca2 O14 2.112430 1_555
Ca2 O13 2.316853 1_445
Ca2 O16 2.324357 1_545
Ca2 O86 2.332851 1_555
Ca2 O85 2.361224 1_455
Ca2 O89 2.400174 1_445
Ca3 O23 2.109711 1_555
Ca3 O18 2.290355 1_555
Ca3 O21 2.315777 1_565
Ca3 O95 2.350960 1_565
Ca3 O90 2.380035 1_555
Ca3 O92 2.422909 1_565
Ca4 O37 2.228101 1_556
Ca4 O39 2.239753 1_556
Ca4 O41 2.271511 1_556
Ca4 O111 2.310914 1_555
Ca4 O113 2.347754 1_555
Ca4 O109 2.391560 1_555
Ca5 O42 2.239516 1_555
Ca5 O118 2.285468 1_555
Ca5 O116 2.295448 1_555
Ca5 O46 2.300669 1_555
Ca5 O44 2.320061 1_555
Ca5 O114 2.330196 1_555
O0 Si0 1.583755 1_555
O1 Si1 1.665419 1_545
O1 Zr0 1.947538 1_555
O2 S0 1.486880 1_555
O2 Zr0 2.279790 1_565
O3 S1 1.453586 1_555
O4 S3 1.497456 1_555
O4 Zr0 2.213911 1_555
O5 S2 1.452913 1_555
O6 Si2 1.665096 1_555
O6 Zr1 1.949838 1_555
O7 S4 1.455295 1_555
O8 S6 1.453598 1_555
O9 S5 1.493880 1_555
O9 Zr1 2.238684 1_665
O10 S7 1.457563 1_555
O11 S8 1.481054 1_555
O11 Zr1 2.356227 1_655
O12 S7 1.482877 1_565
O12 Zr2 2.252755 1_565
O13 S8 1.455438 1_565
O14 Si2 1.574151 1_555
O15 S4 1.492695 1_555
O15 Zr2 2.199220 1_555
O16 S5 1.453907 1_455
O17 S6 1.496494 1_555
O17 Zr2 2.175716 1_565
O18 S0 1.459496 1_555
O19 S1 1.473634 1_555
O19 Zr3 2.309695 1_665
O20 S2 1.484982 1_455
O20 Zr3 2.190785 1_555
O21 S3 1.455253 1_555
O22 Si0 1.659678 1_565
O22 Zr3 1.942035 1_565
O23 Si1 1.575235 1_555
O24 S9 1.486549 1_555
O24 Zr4 2.254963 1_555
O25 S10 1.526975 1_555
O25 Zr5 2.097398 1_555
O26 S11 1.526032 1_555
O26 Zr4 2.094634 1_555
O27 Si3 1.669973 1_555
O27 Zr5 1.920787 1_555
O28 S12 1.509647 1_555
O28 Zr4 2.110290 1_555
O29 S13 1.511627 1_555
O29 Zr5 2.159152 1_555
O30 S14 1.483848 1_555
O30 Zr6 2.263773 1_555
O31 S15 1.482361 1_555
O31 Zr7 2.254528 1_555
O32 S16 1.485104 1_555
O32 Zr6 2.230536 1_555
O33 S17 1.511325 1_555
O33 Zr7 2.109103 1_555
O34 Si4 1.652212 1_555
O34 Zr6 1.944775 1_555
O35 S18 1.502310 1_555
O35 Zr7 2.145664 1_555
O36 Si4 1.626263 1_555
O36 Zr8 1.988528 1_554
O37 S18 1.461579 1_555
O38 S14 1.476785 1_555
O38 Zr8 2.229198 1_554
O39 S15 1.459550 1_555
O40 S16 1.491204 1_555
O40 Zr8 2.134353 1_554
O41 S17 1.460934 1_555
O42 S11 1.455090 1_555
O43 Si3 1.606521 1_555
O43 Zr9 2.027710 1_555
O44 S12 1.447893 1_555
O45 S13 1.480909 1_555
O45 Zr9 2.164866 1_555
O46 S9 1.447704 1_555
O47 S10 1.467908 1_555
O47 Zr9 2.267275 1_555
O48 S19 1.479490 1_555
O48 Zr10 2.208073 1_556
O49 S20 1.489468 1_555
O49 Zr11 2.239351 1_556
O50 S21 1.481001 1_555
O50 Zr10 2.268954 1_556
O51 Si5 1.665257 1_555
O51 Zr11 1.921222 1_556
O52 Si6 1.623292 1_555
O52 Zr10 2.008868 1_556
O53 S22 1.492060 1_555
O53 Zr11 2.174185 1_556
O54 S23 1.508149 1_555
O54 Zr12 2.164241 1_555
O55 S24 1.495810 1_555
O55 Zr13 2.144042 1_555
O56 S25 1.525578 1_555
O56 Zr12 2.082581 1_555
O57 Si7 1.636693 1_555
O57 Zr13 1.990059 1_555
O58 Si8 1.682704 1_555
O58 Zr12 1.894903 1_555
O59 S26 1.498002 1_555
O59 Zr13 2.199566 1_555
O60 Si8 1.657020 1_555
O60 Zr14 1.969868 1_555
O61 S26 1.477665 1_555
O61 Zr15 2.199052 1_555
O62 S23 1.485065 1_555
O62 Zr14 2.181886 1_555
O63 S24 1.481490 1_555
O63 Zr15 2.217955 1_555
O64 S25 1.476878 1_555
O64 Zr14 2.273082 1_555
O65 Si7 1.619331 1_555
O65 Zr15 2.003341 1_555
O66 S21 1.482760 1_555
O66 Zr16 2.169694 1_555
O67 Si5 1.689517 1_555
O67 Zr17 1.929386 1_555
O68 Si6 1.629481 1_555
O68 Zr16 1.995196 1_555
O69 S22 1.507740 1_555
O69 Zr17 2.116824 1_555
O70 S19 1.487803 1_555
O70 Zr16 2.193561 1_555
O71 S20 1.508769 1_555
O71 Zr17 2.113230 1_555
O72 Si8 1.591343 1_555
O73 S26 1.489833 1_555
O73 Zr0 2.178930 1_565
O74 S23 1.476726 1_555
O74 Zr0 2.283030 1_565
O75 S24 1.455128 1_555
O76 S25 1.464983 1_555
O77 Si7 1.635997 1_555
O77 Zr0 1.960656 1_555
O78 S21 1.493921 1_555
O78 Zr1 2.152954 1_555
O79 Si5 1.597486 1_555
O80 Si6 1.647272 1_555
O80 Zr1 1.941887 1_565
O81 S22 1.464758 1_555
O82 S19 1.467907 1_555
O83 S20 1.473429 1_555
O83 Zr1 2.275778 1_665
O84 S9 1.507237 1_555
O84 Zr2 2.086561 1_555
O85 S10 1.460996 1_555
O86 S11 1.461795 1_555
O87 Si3 1.658500 1_555
O87 Zr2 1.921612 1_555
O88 S12 1.503144 1_555
O88 Zr2 2.095337 1_565
O89 S13 1.459976 1_555
O90 S14 1.465274 1_555
O91 S15 1.485381 1_555
O91 Zr3 2.136422 1_665
O92 S16 1.464758 1_555
O93 S17 1.469134 1_555
O93 Zr3 2.253159 1_655
O94 Si4 1.635724 1_555
O94 Zr3 1.956997 1_555
O95 S18 1.461123 1_555
O96 S7 1.507972 1_555
O96 Zr4 2.137113 1_555
O97 S8 1.534349 1_555
O97 Zr5 2.202376 1_555
O98 Si2 1.699047 1_555
O98 Zr4 1.948858 1_555
O99 S4 1.501598 1_555
O99 Zr5 2.192242 1_555
O100 S6 1.497605 1_555
O100 Zr4 2.199086 1_555
O101 S5 1.509395 1_555
O101 Zr5 2.297337 1_555
O102 S0 1.523365 1_555
O102 Zr6 2.196030 1_555
O103 S1 1.514105 1_555
O103 Zr7 2.131709 1_555
O104 S3 1.491262 1_555
O104 Zr6 2.323820 1_555
O105 S2 1.514737 1_555
O105 Zr7 2.137575 1_555
O106 Si0 1.667216 1_555
O106 Zr6 1.946190 1_555
O107 Si1 1.692316 1_545
O107 Zr7 1.952624 1_555
O108 S19 1.496310 1_555
O108 Zr8 2.208084 1_555
O109 S20 1.474157 1_555
O110 Si5 1.629842 1_555
O110 Zr8 2.093130 1_555
O111 S21 1.477720 1_655
O112 Si6 1.640157 1_545
O112 Zr8 2.010128 1_555
O113 S22 1.475201 1_545
O114 S23 1.473201 1_545
O115 S24 1.499003 1_545
O115 Zr9 2.170031 1_555
O116 S25 1.477055 1_555
O117 Si7 1.644148 1_555
O117 Zr9 1.986702 1_555
O118 S26 1.469375 1_555
O119 Si8 1.645081 1_655
O119 Zr9 2.040144 1_555
O120 Si4 1.625192 1_555
O120 Zr10 1.986137 1_555
O121 S18 1.513510 1_555
O121 Zr11 2.116989 1_555
O122 S15 1.496994 1_455
O122 Zr10 2.131503 1_555
O123 S14 1.516219 1_555
O123 Zr11 2.092134 1_555
O124 S16 1.494342 1_565
O124 Zr10 2.138619 1_555
O125 S17 1.490527 1_565
O125 Zr11 2.206432 1_555
O126 S11 1.497903 1_565
O126 Zr12 2.171669 1_555
O127 Si3 1.613702 1_565
O127 Zr13 2.023261 1_555
O128 S12 1.471313 1_555
O128 Zr12 2.296544 1_555
O129 S13 1.489385 1_555
O129 Zr13 2.196883 1_555
O130 S10 1.491812 1_455
O130 Zr12 2.190356 1_555
O131 S9 1.489368 1_555
O131 Zr13 2.181577 1_555
O132 Si0 1.652353 1_565
O132 Zr14 1.948381 1_555
O133 Si1 1.626584 1_555
O133 Zr15 1.964524 1_555
O134 S0 1.478809 1_555
O134 Zr14 2.221634 1_555
O135 S1 1.496312 1_555
O135 Zr15 2.143571 1_555
O136 S2 1.488680 1_455
O136 Zr14 2.175723 1_555
O137 S3 1.495788 1_555
O137 Zr15 2.105520 1_555
O138 Si2 1.625134 1_555
O138 Zr16 1.969528 1_555
O139 S4 1.493822 1_555
O139 Zr17 2.197039 1_555
O140 S5 1.491462 1_455
O140 Zr16 2.137219 1_555
O141 S6 1.497189 1_555
O141 Zr17 2.181489 1_555
O142 S7 1.485267 1_565
O142 Zr16 2.193124 1_555
O143 S8 1.490569 1_565
O143 Zr17 2.206931 1_555
