# generated using pymatgen
data_MgCu6PbO8
_symmetry_space_group_name_H-M   'P 1'
_cell_length_a   6.91594160
_cell_length_b   6.91594215
_cell_length_c   6.91594300
_cell_angle_alpha   60.00000072
_cell_angle_beta   59.99999808
_cell_angle_gamma   59.99999584
_symmetry_Int_Tables_number   1
_chemical_formula_structural   MgCu6PbO8
_chemical_formula_sum   'Mg1 Cu6 Pb1 O8'
_cell_volume   233.90475951
_cell_formula_units_Z   1
loop_
 _symmetry_equiv_pos_site_id
 _symmetry_equiv_pos_as_xyz
  1  'x, y, z'
loop_
 _atom_site_type_symbol
 _atom_site_label
 _atom_site_symmetry_multiplicity
 _atom_site_fract_x
 _atom_site_fract_y
 _atom_site_fract_z
 _atom_site_occupancy
  Mg  Mg0  1  0.25000000  0.25000000  0.25000000  1
  Cu  Cu0  1  0.51530000  0.98470000  0.51530000  1
  Cu  Cu1  1  0.51530000  0.51530000  0.98470000  1
  Cu  Cu2  1  0.98470000  0.51530000  0.51530000  1
  Cu  Cu3  1  0.98470000  0.51530000  0.98470000  1
  Cu  Cu4  1  0.98470000  0.98470000  0.51530000  1
  Cu  Cu5  1  0.51530000  0.98470000  0.98470000  1
  Pb  Pb0  1  0.00000000  0.00000000  0.00000000  1
  O  O0  1  0.13992900  0.13992900  0.13992900  1
  O  O1  1  0.85716100  0.42851700  0.85716100  1
  O  O2  1  0.13992900  0.58021200  0.13992900  1
  O  O3  1  0.42851700  0.85716100  0.85716100  1
  O  O4  1  0.13992900  0.13992900  0.58021200  1
  O  O5  1  0.58021200  0.13992900  0.13992900  1
  O  O6  1  0.85716100  0.85716100  0.42851700  1
  O  O7  1  0.85716100  0.85716100  0.85716100  1
loop_
_geom_bond_atom_site_label_1
_geom_bond_atom_site_label_2
_geom_bond_distance
_geom_bond_site_symmetry_2
Mg0 O5 1.864655 1_555
Mg0 O2 1.864655 1_555
Mg0 O4 1.864656 1_555
Mg0 O0 1.864661 1_555
Cu0 O6 1.937282 1_555
Cu0 O3 1.937283 1_555
Cu0 O4 2.150120 1_565
Cu0 O5 2.150121 1_565
Cu1 O1 1.937282 1_555
Cu1 O3 1.937283 1_555
Cu1 O2 2.150120 1_556
Cu1 O5 2.150120 1_556
Cu2 O6 1.937283 1_555
Cu2 O1 1.937283 1_555
Cu2 O4 2.150120 1_655
Cu2 O2 2.150121 1_655
Cu3 O7 1.937283 1_555
Cu3 O1 1.937283 1_555
Cu3 O2 2.150115 1_656
Cu3 O0 2.150119 1_656
Cu4 O6 1.937283 1_555
Cu4 O7 1.937283 1_555
Cu4 O4 2.150115 1_665
Cu4 O0 2.150120 1_665
Cu5 O7 1.937282 1_555
Cu5 O3 1.937283 1_555
Cu5 O5 2.150115 1_566
Cu5 O0 2.150119 1_566
O0 Pb0 2.370471 1_555
O1 Pb0 2.419768 1_656
O2 Pb0 2.370477 1_565
O3 Pb0 2.419768 1_566
O4 Pb0 2.370477 1_556
O5 Pb0 2.370477 1_655
O6 Pb0 2.419769 1_665
O7 Pb0 2.419768 1_666
