# generated using pymatgen
data_MgMn3CoO8
_symmetry_space_group_name_H-M   'P 1'
_cell_length_a   5.84896435
_cell_length_b   5.97295652
_cell_length_c   5.85362125
_cell_angle_alpha   60.00310480
_cell_angle_beta   60.66887149
_cell_angle_gamma   60.03159285
_symmetry_Int_Tables_number   1
_chemical_formula_structural   MgMn3CoO8
_chemical_formula_sum   'Mg1 Mn3 Co1 O8'
_cell_volume   145.35844236
_cell_formula_units_Z   1
loop_
 _symmetry_equiv_pos_site_id
 _symmetry_equiv_pos_as_xyz
  1  'x, y, z'
loop_
 _atom_site_type_symbol
 _atom_site_label
 _atom_site_symmetry_multiplicity
 _atom_site_fract_x
 _atom_site_fract_y
 _atom_site_fract_z
 _atom_site_occupancy
  Mg  Mg0  1  0.00000000  0.00000000  0.00000000  1
  Mn  Mn0  1  0.50000000  0.00000000  0.50000000  1
  Mn  Mn1  1  0.50000000  0.50000000  0.00000000  1
  Mn  Mn2  1  0.00000000  0.50000000  0.50000000  1
  Co  Co0  1  0.50000000  0.50000000  0.50000000  1
  O  O0  1  0.26238300  0.27054700  0.26275300  1
  O  O1  1  0.71667000  0.24314600  0.24960100  1
  O  O2  1  0.25620800  0.70466100  0.25592900  1
  O  O3  1  0.25010100  0.24336300  0.71622200  1
  O  O4  1  0.74989900  0.75663700  0.28377800  1
  O  O5  1  0.74379200  0.29533900  0.74407100  1
  O  O6  1  0.28333000  0.75685400  0.75039900  1
  O  O7  1  0.73761700  0.72945300  0.73724700  1
loop_
_geom_bond_atom_site_label_1
_geom_bond_atom_site_label_2
_geom_bond_distance
_geom_bond_site_symmetry_2
Mg0 O1 2.082139 1_455
Mg0 O6 2.082139 1_544
Mg0 O3 2.083619 1_554
Mg0 O4 2.083619 1_445
Mg0 O2 2.125518 1_545
Mg0 O5 2.125518 1_454
Mn0 O1 1.937526 1_555
Mn0 O6 1.937526 1_545
Mn0 O3 1.938004 1_555
Mn0 O4 1.938004 1_545
Mn0 O7 1.968452 1_545
Mn0 O0 1.968452 1_555
Mn1 O1 1.929968 1_555
Mn1 O6 1.929968 1_554
Mn1 O2 1.941345 1_555
Mn1 O5 1.941345 1_554
Mn1 O7 1.968875 1_554
Mn1 O0 1.968875 1_555
Mn2 O3 1.930105 1_555
Mn2 O4 1.930105 1_455
Mn2 O2 1.940988 1_555
Mn2 O5 1.940988 1_455
Mn2 O0 1.968747 1_555
Mn2 O7 1.968747 1_455
Co0 O5 2.019142 1_555
Co0 O2 2.019142 1_555
Co0 O4 2.138711 1_555
Co0 O3 2.138711 1_555
Co0 O6 2.143453 1_555
Co0 O1 2.143453 1_555
