# generated using pymatgen
data_Na7Hf2Ti2Si5PO24
_symmetry_space_group_name_H-M   'P 1'
_cell_length_a   9.04371418
_cell_length_b   9.06076712
_cell_length_c   22.41424128
_cell_angle_alpha   89.94777593
_cell_angle_beta   89.92720243
_cell_angle_gamma   119.98213456
_symmetry_Int_Tables_number   1
_chemical_formula_structural   Na7Hf2Ti2Si5PO24
_chemical_formula_sum   'Na21 Hf6 Ti6 Si15 P3 O72'
_cell_volume   1590.90257134
_cell_formula_units_Z   3
loop_
 _symmetry_equiv_pos_site_id
 _symmetry_equiv_pos_as_xyz
  1  'x, y, z'
loop_
 _atom_site_type_symbol
 _atom_site_label
 _atom_site_symmetry_multiplicity
 _atom_site_fract_x
 _atom_site_fract_y
 _atom_site_fract_z
 _atom_site_occupancy
  Na  Na0  1  0.63598329  0.00177499  0.24965453  1
  Na  Na1  1  0.36433206  0.36632723  0.24995407  1
  Na  Na2  1  0.00022739  0.63314621  0.25009229  1
  Na  Na3  1  0.63143236  0.63473650  0.75111572  1
  Na  Na4  1  0.00191352  0.36575938  0.75086592  1
  Na  Na5  1  0.36521494  0.99940501  0.75095945  1
  Na  Na6  1  0.30239156  0.33645083  0.58217786  1
  Na  Na7  1  0.03269095  0.69773984  0.58261387  1
  Na  Na8  1  0.66570381  0.96669877  0.58279733  1
  Na  Na9  1  0.29837092  0.96514501  0.08183140  1
  Na  Na10  1  0.03768874  0.33769344  0.08397557  1
  Na  Na11  1  0.96579757  0.66590799  0.91766725  1
  Na  Na12  1  0.33635899  0.29868952  0.91783133  1
  Na  Na13  1  0.33119861  0.03214134  0.41665739  1
  Na  Na14  1  0.70106047  0.66600485  0.41728676  1
  Na  Na15  1  0.99783533  0.00547395  0.49967136  1
  Na  Na16  1  0.98735533  0.99390051  0.00021251  1
  Na  Na17  1  0.66747655  0.32412501  0.83585266  1
  Na  Na18  1  0.67620047  0.33109904  0.33222823  1
  Na  Na19  1  0.34183383  0.66560079  0.16550938  1
  Na  Na20  1  0.33433941  0.66544463  0.66682282  1
  Hf  Hf0  1  0.99704107  0.00244479  0.35247512  1
  Hf  Hf1  1  0.99809758  0.00278500  0.85466827  1
  Hf  Hf2  1  0.99966701  0.99981375  0.64901841  1
  Hf  Hf3  1  0.99784362  0.99579637  0.14690026  1
  Hf  Hf4  1  0.66689810  0.33352742  0.68475607  1
  Hf  Hf5  1  0.67419456  0.33220091  0.47919674  1
  Ti  Ti0  1  0.66801880  0.34304429  0.18528136  1
  Ti  Ti1  1  0.66655589  0.32759069  0.98172590  1
  Ti  Ti2  1  0.32751066  0.65906618  0.01856839  1
  Ti  Ti3  1  0.33446545  0.67250159  0.51906902  1
  Ti  Ti4  1  0.32940987  0.67127024  0.31358568  1
  Ti  Ti5  1  0.32822700  0.67094917  0.81533728  1
  Si  Si0  1  0.29788939  0.00202518  0.24998986  1
  Si  Si1  1  0.70312344  0.70440389  0.25091484  1
  Si  Si2  1  0.99958122  0.29670890  0.24844273  1
  Si  Si3  1  0.29485388  0.29850526  0.75183522  1
  Si  Si4  1  0.00162004  0.70559250  0.75200733  1
  Si  Si5  1  0.70156865  0.99627827  0.75105799  1
  Si  Si6  1  0.96595627  0.33634242  0.58301318  1
  Si  Si7  1  0.37255362  0.03753024  0.58147713  1
  Si  Si8  1  0.66341851  0.62749677  0.58149948  1
  Si  Si9  1  0.95329202  0.62065080  0.08127846  1
  Si  Si10  1  0.38359770  0.34137122  0.08190002  1
  Si  Si11  1  0.04028630  0.37817107  0.91751107  1
  Si  Si12  1  0.34084044  0.95745881  0.91870618  1
  Si  Si13  1  0.61977511  0.95336352  0.41619756  1
  Si  Si14  1  0.04548180  0.66526218  0.41625685  1
  P  P0  1  0.66264847  0.04544652  0.08336438  1
  P  P1  1  0.61647525  0.66423885  0.91748324  1
  P  P2  1  0.33157544  0.38263625  0.41669331  1
  O  O0  1  0.21292073  0.03960447  0.30845305  1
  O  O1  1  0.82740834  0.78569542  0.30939334  1
  O  O2  1  0.95965737  0.16628291  0.30464618  1
  O  O3  1  0.20690966  0.17214020  0.80919830  1
  O  O4  1  0.96628300  0.79284780  0.80975745  1
  O  O5  1  0.83299824  0.03526877  0.80614668  1
  O  O6  1  0.78308308  0.95918147  0.69120560  1
  O  O7  1  0.17412852  0.21413676  0.69276961  1
  O  O8  1  0.03991276  0.82573895  0.69276699  1
  O  O9  1  0.79292109  0.83405964  0.19469205  1
  O  O10  1  0.03909316  0.21308833  0.18971697  1
  O  O11  1  0.17175078  0.96148050  0.19214393  1
  O  O12  1  0.88427495  0.37475834  0.64230605  1
  O  O13  1  0.49304644  0.11985845  0.64047730  1
  O  O14  1  0.62776539  0.50740478  0.64071643  1
  O  O15  1  0.86411230  0.49850872  0.14041156  1
  O  O16  1  0.63496966  0.12719160  0.13975801  1
  O  O17  1  0.49945233  0.35939988  0.14123832  1
  O  O18  1  0.47551150  0.30618761  0.02454671  1
  O  O19  1  0.83415535  0.52130858  0.02365364  1
  O  O20  1  0.69364096  0.16448167  0.02873871  1
  O  O21  1  0.45833192  0.16028254  0.52361899  1
  O  O22  1  0.69933161  0.53965187  0.52387199  1
  O  O23  1  0.83455798  0.29660307  0.52772467  1
  O  O24  1  0.52521225  0.68785210  0.97210717  1
  O  O25  1  0.16690772  0.47326396  0.97546371  1
  O  O26  1  0.30953458  0.83097412  0.97598205  1
  O  O27  1  0.52711613  0.83265336  0.47508455  1
  O  O28  1  0.31000755  0.46624298  0.47341777  1
  O  O29  1  0.16673374  0.69122846  0.47448947  1
  O  O30  1  0.14095643  0.64348823  0.35731918  1
  O  O31  1  0.49900575  0.85618728  0.35803773  1
  O  O32  1  0.35828838  0.49201245  0.36063322  1
  O  O33  1  0.13623356  0.50131306  0.85935063  1
  O  O34  1  0.36157165  0.86293633  0.85886341  1
  O  O35  1  0.50834392  0.63712858  0.86065921  1
  O  O36  1  0.03510016  0.84173311  0.41312654  1
  O  O37  1  0.80529097  0.96356908  0.41307266  1
  O  O38  1  0.17474516  0.19867799  0.41235533  1
  O  O39  1  0.03406689  0.19512142  0.91445008  1
  O  O40  1  0.16479456  0.96981121  0.91431432  1
  O  O41  1  0.79976644  0.82125028  0.91376661  1
  O  O42  1  0.98331433  0.16605589  0.58769064  1
  O  O43  1  0.18338743  0.01705237  0.58735190  1
  O  O44  1  0.83394668  0.81556707  0.58726309  1
  O  O45  1  0.98178232  0.81347144  0.08581546  1
  O  O46  1  0.83015598  0.03596584  0.08727893  1
  O  O47  1  0.19260742  0.16856462  0.08672711  1
  O  O48  1  0.68298864  0.16592562  0.74578192  1
  O  O49  1  0.48246205  0.31470543  0.74603132  1
  O  O50  1  0.83285496  0.51716787  0.74628502  1
  O  O51  1  0.68673413  0.51607309  0.24216114  1
  O  O52  1  0.82906432  0.31488782  0.24155691  1
  O  O53  1  0.48736731  0.16949259  0.24176799  1
  O  O54  1  0.63436732  0.50228801  0.92296980  1
  O  O55  1  0.85626857  0.36922847  0.92368256  1
  O  O56  1  0.50451552  0.15083496  0.92426293  1
  O  O57  1  0.62519765  0.13586839  0.41903516  1
  O  O58  1  0.49441341  0.36465164  0.42063262  1
  O  O59  1  0.85202832  0.50267077  0.41846480  1
  O  O60  1  0.35797876  0.50762948  0.07620505  1
  O  O61  1  0.14523817  0.63848789  0.07611029  1
  O  O62  1  0.50171853  0.86968695  0.07609286  1
  O  O63  1  0.35500478  0.84843690  0.57538193  1
  O  O64  1  0.49202218  0.64427900  0.57552380  1
  O  O65  1  0.15360115  0.50577315  0.57493502  1
  O  O66  1  0.31506840  0.83005156  0.25660073  1
  O  O67  1  0.51298437  0.68068872  0.25823527  1
  O  O68  1  0.17033832  0.48421716  0.25720738  1
  O  O69  1  0.31352056  0.48644056  0.75927846  1
  O  O70  1  0.17374641  0.68842991  0.75797491  1
  O  O71  1  0.51422277  0.82509557  0.75859280  1
loop_
_geom_bond_atom_site_label_1
_geom_bond_atom_site_label_2
_geom_bond_distance
_geom_bond_site_symmetry_2
Na0 O52 2.485525 1_555
Na0 O53 2.487672 1_555
Na0 O66 2.520599 1_545
Na0 O67 2.549960 1_545
Na0 O16 2.713738 1_555
Na0 O31 2.744013 1_545
Na0 O2 2.821584 1_555
Na0 O9 2.827718 1_545
Na1 O68 2.473467 1_555
Na1 O67 2.475750 1_555
Na1 O51 2.533212 1_555
Na1 O53 2.536928 1_555
Na1 O17 2.739429 1_555
Na1 O32 2.742480 1_555
Na1 O0 2.880088 1_555
Na1 O10 2.886895 1_555
Na2 O51 2.488109 1_455
Na2 O66 2.497189 1_555
Na2 O68 2.507632 1_555
Na2 O52 2.507723 1_455
Na2 O30 2.700730 1_555
Na2 O15 2.749468 1_455
Na2 O1 2.877011 1_455
Na2 O11 2.884310 1_555
Na3 O71 2.440089 1_555
Na3 O69 2.498450 1_555
Na3 O49 2.516532 1_555
Na3 O50 2.530596 1_555
Na3 O35 2.699178 1_555
Na3 O14 2.724441 1_555
Na3 O6 2.878309 1_555
Na3 O4 2.937368 1_555
Na4 O69 2.468752 1_555
Na4 O50 2.515288 1_455
Na4 O48 2.528253 1_455
Na4 O70 2.539406 1_555
Na4 O12 2.674381 1_455
Na4 O33 2.723713 1_555
Na4 O7 2.854010 1_555
Na4 O5 2.872698 1_455
Na5 O70 2.466676 1_555
Na5 O48 2.492807 1_565
Na5 O49 2.503937 1_565
Na5 O71 2.543025 1_555
Na5 O34 2.707993 1_555
Na5 O13 2.717871 1_565
Na5 O8 2.866893 1_555
Na5 O3 2.905470 1_565
Na6 O64 2.441439 1_555
Na6 O65 2.500840 1_555
Na6 O42 2.504365 1_455
Na6 O43 2.536350 1_555
Na6 O28 2.691449 1_555
Na6 O7 2.724189 1_555
Na6 O14 2.870145 1_555
Na6 O21 2.916954 1_555
Na7 O65 2.480263 1_555
Na7 O44 2.509746 1_455
Na7 O43 2.509856 1_565
Na7 O63 2.531370 1_555
Na7 O8 2.715734 1_555
Na7 O29 2.722274 1_555
Na7 O12 2.866760 1_455
Na7 O22 2.927773 1_455
Na8 O63 2.462408 1_555
Na8 O44 2.506559 1_555
Na8 O42 2.518118 1_565
Na8 O64 2.538403 1_555
Na8 O6 2.667282 1_555
Na8 O27 2.714123 1_555
Na8 O13 2.863452 1_565
Na8 O23 2.866566 1_565
Na9 O62 2.394989 1_555
Na9 O47 2.467019 1_565
Na9 O45 2.482070 1_455
Na9 O61 2.568847 1_555
Na9 O26 2.691529 1_554
Na9 O11 2.716737 1_555
Na9 O16 2.941860 1_565
Na9 O18 2.967098 1_565
Na10 O61 2.398817 1_555
Na10 O46 2.423457 1_455
Na10 O60 2.516367 1_555
Na10 O47 2.541845 1_555
Na10 O10 2.627130 1_555
Na10 O25 2.709765 1_554
Na10 O15 2.910658 1_455
Na10 O20 2.968158 1_455
Na11 O55 2.358640 1_555
Na11 O40 2.423457 1_655
Na11 O41 2.521069 1_555
Na11 O54 2.598786 1_555
Na11 O4 2.676370 1_555
Na11 O19 2.684327 1_556
Na11 O33 2.933339 1_655
Na11 O26 2.996019 1_655
Na12 O54 2.389984 1_555
Na12 O39 2.407662 1_555
Na12 O56 2.482872 1_555
Na12 O40 2.583226 1_545
Na12 O18 2.689278 1_556
Na12 O3 2.699051 1_555
Na13 O57 2.336342 1_555
Na13 O36 2.353057 1_545
Na13 O38 2.534206 1_555
Na13 O58 2.611475 1_555
Na13 O21 2.663774 1_555
Na13 O0 2.666369 1_555
Na14 O37 2.371909 1_555
Na14 O58 2.419290 1_555
Na14 O59 2.464643 1_555
Na14 O36 2.619473 1_655
Na14 O22 2.644885 1_555
Na14 O1 2.660800 1_555
Na15 O42 2.494410 1_555
Na15 O37 2.508611 1_545
Na15 O44 2.539614 1_545
Na15 O43 2.553848 1_655
Na15 O36 2.565341 1_645
Na15 O38 2.577037 1_655
Na16 O45 2.503675 1_555
Na16 O39 2.533686 1_664
Na16 O41 2.537923 1_554
Na16 O46 2.551615 1_565
Na16 O40 2.583149 1_654
Na16 O47 2.605613 1_665
Na17 O56 2.497680 1_555
Na17 O55 2.504064 1_555
Na17 O48 2.521051 1_555
Na17 O50 2.588068 1_555
Na17 O49 2.593525 1_555
Na17 O54 2.644971 1_555
Na18 O59 2.494810 1_555
Na18 O52 2.501896 1_555
Na18 O57 2.510707 1_555
Na18 O53 2.585850 1_555
Na18 O51 2.593711 1_555
Na18 O58 2.685894 1_555
Na19 O60 2.508022 1_555
Na19 O67 2.555652 1_555
Na19 O68 2.601742 1_555
Na19 O61 2.609626 1_555
Na19 O66 2.610045 1_555
Na19 O62 2.615448 1_555
Na20 O64 2.554357 1_555
Na20 O70 2.573429 1_555
Na20 O71 2.575274 1_555
Na20 O69 2.578420 1_555
Na20 O65 2.580162 1_555
Na20 O63 2.582238 1_555
Hf0 O2 1.991725 1_555
Hf0 O1 2.034432 1_545
Hf0 O0 2.058197 1_655
Hf0 O37 2.087766 1_545
Hf0 O36 2.141388 1_645
Hf0 O38 2.167828 1_655
Hf1 O5 1.985346 1_555
Hf1 O3 2.013853 1_655
Hf1 O4 2.042466 1_545
Hf1 O39 2.092164 1_655
Hf1 O40 2.145674 1_645
Hf1 O41 2.172253 1_545
Hf2 O6 2.034751 1_555
Hf2 O8 2.038040 1_655
Hf2 O7 2.041391 1_665
Hf2 O42 2.097548 1_565
Hf2 O43 2.104737 1_665
Hf2 O44 2.111392 1_555
Hf3 O9 2.001833 1_555
Hf3 O11 2.022599 1_655
Hf3 O10 2.051043 1_665
Hf3 O45 2.095146 1_555
Hf3 O47 2.146252 1_665
Hf3 O46 2.184972 1_565
Hf4 O14 2.033972 1_555
Hf4 O12 2.042106 1_555
Hf4 O13 2.042140 1_555
Hf4 O49 2.099295 1_555
Hf4 O48 2.101408 1_555
Hf4 O50 2.106345 1_555
Hf5 O23 1.965037 1_555
Hf5 O22 2.040705 1_555
Hf5 O21 2.044960 1_555
Hf5 O59 2.081624 1_555
Hf5 O57 2.096988 1_555
Hf5 O58 2.221619 1_555
O0 Si0 1.638096 1_555
O1 Si1 1.643782 1_555
O2 Si2 1.638165 1_555
O3 Si3 1.637448 1_555
O4 Si4 1.629740 1_655
O5 Si5 1.626991 1_545
O6 Si5 1.643820 1_555
O7 Si3 1.643319 1_555
O8 Si4 1.639374 1_555
O9 Si1 1.633670 1_555
O10 Si2 1.644868 1_455
O11 Si0 1.644132 1_565
O12 Si6 1.639643 1_555
O13 Si7 1.638838 1_555
O14 Si8 1.641747 1_555
O15 Si9 1.653639 1_555
O15 Ti0 1.907055 1_555
O16 P0 1.547647 1_555
O16 Ti0 2.091836 1_555
O17 Si10 1.651155 1_555
O17 Ti0 1.884107 1_555
O18 Si10 1.645619 1_555
O18 Ti1 1.898554 1_554
O19 Si9 1.635762 1_555
O19 Ti1 1.899752 1_554
O20 P0 1.560624 1_555
O20 Ti1 1.927226 1_554
O21 Si7 1.628841 1_555
O22 Si8 1.632979 1_555
O23 Si6 1.629240 1_555
O24 P1 1.549334 1_555
O24 Ti2 1.969265 1_556
O25 Si11 1.661536 1_555
O25 Ti2 1.854701 1_556
O26 Si12 1.647366 1_555
O26 Ti2 1.901189 1_556
O27 Si13 1.648980 1_555
O27 Ti3 1.891917 1_555
O28 P2 1.541840 1_555
O28 Ti3 2.044381 1_555
O29 Si14 1.645542 1_555
O29 Ti3 1.894481 1_555
O30 Si14 1.642391 1_555
O30 Ti4 1.869620 1_555
O31 Si13 1.646852 1_555
O31 Ti4 1.894982 1_555
O32 P2 1.541779 1_555
O32 Ti4 2.059093 1_555
O33 Si11 1.650491 1_555
O33 Ti5 1.917311 1_555
O34 Si12 1.652198 1_555
O34 Ti5 1.883701 1_555
O35 P1 1.550008 1_555
O35 Ti5 2.069253 1_555
O36 Si14 1.649325 1_555
O37 Si13 1.634913 1_555
O38 P2 1.561150 1_555
O39 Si11 1.632699 1_555
O40 Si12 1.653935 1_555
O41 P1 1.555985 1_555
O42 Si6 1.630363 1_555
O43 Si7 1.631139 1_555
O44 Si8 1.635001 1_555
O45 Si9 1.636941 1_555
O46 P0 1.562164 1_555
O47 Si10 1.656183 1_555
O48 Si5 1.631831 1_545
O49 Si3 1.633299 1_555
O50 Si4 1.630112 1_655
O51 Si1 1.649314 1_555
O51 Ti0 1.962385 1_555
O52 Si2 1.638131 1_555
O52 Ti0 2.037853 1_555
O53 Si0 1.634843 1_555
O53 Ti0 2.041662 1_555
O54 P1 1.559359 1_555
O54 Ti1 2.186874 1_555
O55 Si11 1.630919 1_655
O55 Ti1 2.031028 1_555
O56 Si12 1.638682 1_545
O56 Ti1 2.008541 1_555
O57 Si13 1.630983 1_545
O58 P2 1.563083 1_555
O59 Si14 1.630115 1_655
O60 Si10 1.639469 1_555
O60 Ti2 2.000796 1_555
O61 Si9 1.664921 1_455
O61 Ti2 2.025463 1_555
O62 P0 1.538001 1_565
O62 Ti2 2.188880 1_555
O63 Si7 1.645620 1_565
O63 Ti3 1.969055 1_555
O64 Si8 1.637013 1_555
O64 Ti3 2.016211 1_555
O65 Si6 1.632266 1_455
O65 Ti3 2.011791 1_555
O66 Si0 1.647943 1_565
O66 Ti4 1.975252 1_555
O67 Si1 1.630925 1_555
O67 Ti4 2.038549 1_555
O68 Si2 1.639817 1_455
O68 Ti4 2.027457 1_555
O69 Si3 1.633789 1_555
O69 Ti5 2.042897 1_555
O70 Si4 1.645509 1_555
O70 Ti5 1.963513 1_555
O71 Si5 1.636216 1_555
O71 Ti5 2.010247 1_555
