# generated using pymatgen
data_SmAgS2
_symmetry_space_group_name_H-M   'P 1'
_cell_length_a   7.76679642
_cell_length_b   7.77131536
_cell_length_c   12.75519940
_cell_angle_alpha   90.00850682
_cell_angle_beta   90.00000000
_cell_angle_gamma   90.00000000
_symmetry_Int_Tables_number   1
_chemical_formula_structural   SmAgS2
_chemical_formula_sum   'Sm8 Ag8 S16'
_cell_volume   769.88117815
_cell_formula_units_Z   8
loop_
 _symmetry_equiv_pos_site_id
 _symmetry_equiv_pos_as_xyz
  1  'x, y, z'
loop_
 _atom_site_type_symbol
 _atom_site_label
 _atom_site_symmetry_multiplicity
 _atom_site_fract_x
 _atom_site_fract_y
 _atom_site_fract_z
 _atom_site_occupancy
  Sm  Sm0  1  0.50379335  0.74871376  0.00240801  1
  Sm  Sm1  1  0.00379335  0.25128624  0.99759199  1
  Sm  Sm2  1  0.25381056  0.00046930  0.75269173  1
  Sm  Sm3  1  0.75381056  -0.00046930  0.24730827  1
  Sm  Sm4  1  0.75215192  0.50034728  0.74732821  1
  Sm  Sm5  1  0.25215192  0.49965272  0.25267179  1
  Sm  Sm6  1  0.00213477  0.75122769  0.50244546  1
  Sm  Sm7  1  0.50213477  0.24877231  0.49755454  1
  Ag  Ag0  1  0.23818075  0.50654919  0.81974490  1
  Ag  Ag1  1  0.73818075  0.49345081  0.18025510  1
  Ag  Ag2  1  0.76591505  0.00511525  0.67974570  1
  Ag  Ag3  1  0.26591505  -0.00511525  0.32025430  1
  Ag  Ag4  1  0.01120763  0.76622147  0.06907801  1
  Ag  Ag5  1  0.51120763  0.23377853  0.93092199  1
  Ag  Ag6  1  0.49279602  0.73202907  0.56879079  1
  Ag  Ag7  1  0.99279602  0.26797093  0.43120921  1
  S  S0  1  0.78537904  0.03279133  0.46758102  1
  S  S1  1  0.28537904  0.96720867  0.53241898  1
  S  S2  1  0.22580995  0.47428338  0.47316375  1
  S  S3  1  0.72580995  0.52571662  0.52683625  1
  S  S4  1  0.52913450  0.72310100  0.22281743  1
  S  S5  1  0.02913450  0.27689900  0.77718257  1
  S  S6  1  0.46998450  0.71687885  0.78194744  1
  S  S7  1  0.96998450  0.28312115  0.21805256  1
  S  S8  1  0.97648023  0.77704834  0.72285548  1
  S  S9  1  0.47648023  0.22295166  0.27714452  1
  S  S10  1  0.53576782  0.21703831  0.71789597  1
  S  S11  1  0.03576782  0.78296169  0.28210403  1
  S  S12  1  0.27996945  0.02577090  0.97317383  1
  S  S13  1  0.77996945  0.97422910  0.02682617  1
  S  S14  1  0.72048444  0.46711091  0.96769434  1
  S  S15  1  0.22048444  0.53288909  0.03230566  1
loop_
_geom_bond_atom_site_label_1
_geom_bond_atom_site_label_2
_geom_bond_distance
_geom_bond_site_symmetry_2
Ag0 S5 2.472990 1_555
Ag0 S6 2.479057 1_555
Ag0 S15 2.722412 1_556
Ag0 S8 3.174651 1_455
Ag1 S4 2.472990 1_555
Ag1 S7 2.479057 1_555
Ag1 S14 2.722412 1_554
Ag1 S9 3.174651 1_555
Ag2 S8 2.473574 1_545
Ag2 S10 2.478726 1_555
Ag2 S0 2.718974 1_555
Ag3 S9 2.473574 1_555
Ag3 S11 2.478726 1_545
Ag3 S1 2.718974 1_545
Ag4 S13 2.475742 1_455
Ag4 S15 2.479871 1_555
Ag4 S11 2.726963 1_555
Ag4 S12 3.150065 1_564
Ag5 S12 2.475742 1_555
Ag5 S14 2.479871 1_555
Ag5 S10 2.726963 1_555
Ag5 S13 3.150065 1_546
Ag6 S3 2.476292 1_555
Ag6 S1 2.480124 1_555
Ag6 S6 2.727182 1_555
Ag6 S2 3.130347 1_555
Ag7 S2 2.476292 1_655
Ag7 S0 2.480124 1_555
Ag7 S7 2.727182 1_555
Ag7 S3 3.130347 1_555
S0 Sm7 2.793341 1_555
S0 Sm6 2.796441 1_645
S0 Sm3 2.832083 1_555
S1 Sm6 2.793341 1_555
S1 Sm7 2.796441 1_565
S1 Sm2 2.832083 1_565
S2 Sm7 2.788237 1_555
S2 Sm6 2.790935 1_555
S2 Sm5 2.826764 1_555
S3 Sm6 2.788237 1_655
S3 Sm7 2.790935 1_555
S3 Sm4 2.826764 1_555
S4 Sm3 2.785196 1_565
S4 Sm5 2.790796 1_555
S4 Sm0 2.825297 1_555
S5 Sm2 2.785196 1_555
S5 Sm4 2.790796 1_455
S5 Sm1 2.825297 1_555
S6 Sm2 2.795624 1_565
S6 Sm4 2.798071 1_555
S6 Sm0 2.835031 1_556
S7 Sm3 2.795624 1_555
S7 Sm5 2.798071 1_655
S7 Sm1 2.835031 1_654
S8 Sm4 2.785178 1_555
S8 Sm2 2.792645 1_665
S8 Sm6 2.825530 1_655
S9 Sm5 2.785178 1_555
S9 Sm3 2.792645 1_555
S9 Sm7 2.825530 1_555
S10 Sm4 2.795095 1_555
S10 Sm2 2.797403 1_555
S10 Sm7 2.833402 1_555
S11 Sm5 2.795095 1_555
S11 Sm3 2.797403 1_465
S11 Sm6 2.833402 1_555
S12 Sm1 2.787350 1_555
S12 Sm0 2.792335 1_546
S12 Sm2 2.826441 1_555
S13 Sm0 2.787350 1_555
S13 Sm1 2.792335 1_664
S13 Sm3 2.826441 1_565
S14 Sm1 2.792943 1_655
S14 Sm0 2.795969 1_556
S14 Sm4 2.833390 1_555
S15 Sm0 2.792943 1_555
S15 Sm1 2.795969 1_554
S15 Sm5 2.833390 1_555
