# generated using pymatgen
data_Na4MgMn4O8
_symmetry_space_group_name_H-M   'P 1'
_cell_length_a   3.00543666
_cell_length_b   5.80653931
_cell_length_c   12.90355626
_cell_angle_alpha   86.87175398
_cell_angle_beta   90.00062426
_cell_angle_gamma   90.00323691
_symmetry_Int_Tables_number   1
_chemical_formula_structural   Na4MgMn4O8
_chemical_formula_sum   'Na4 Mg1 Mn4 O8'
_cell_volume   224.84681457
_cell_formula_units_Z   1
loop_
 _symmetry_equiv_pos_site_id
 _symmetry_equiv_pos_as_xyz
  1  'x, y, z'
loop_
 _atom_site_type_symbol
 _atom_site_label
 _atom_site_symmetry_multiplicity
 _atom_site_fract_x
 _atom_site_fract_y
 _atom_site_fract_z
 _atom_site_occupancy
  Na  Na0  1  0.24999557  0.54792397  0.21246947  1
  Na  Na1  1  0.25000073  0.02716527  0.61567657  1
  Na  Na2  1  0.75005732  0.40425557  0.83750356  1
  Na  Na3  1  0.75002157  0.96663261  0.35510282  1
  Mg  Mg0  1  0.75001418  0.64569571  0.02409039  1
  Mn  Mn0  1  0.25001706  0.09634482  0.11430962  1
  Mn  Mn1  1  0.74999878  0.90673994  0.82422185  1
  Mn  Mn2  1  0.74997951  0.45569440  0.41697997  1
  Mn  Mn3  1  0.25002177  0.52499653  0.62336592  1
  O  O0  1  0.75000494  0.84816449  0.14680355  1
  O  O1  1  0.25001651  0.13191880  0.79316620  1
  O  O2  1  0.25003101  0.27904103  0.35779380  1
  O  O3  1  0.75001231  0.70622921  0.68437390  1
  O  O4  1  0.75003243  0.33809889  0.09757483  1
  O  O5  1  0.25001686  0.69696899  0.92429597  1
  O  O6  1  0.75001387  0.32934572  0.57267480  1
  O  O7  1  0.24997858  0.67811107  0.43848577  1
loop_
_geom_bond_atom_site_label_1
_geom_bond_atom_site_label_2
_geom_bond_distance
_geom_bond_site_symmetry_2
Na0 O2 2.373696 1_555
Na0 O0 2.419506 1_555
Na0 O0 2.419582 1_455
Na0 O4 2.477310 1_455
Na0 O4 2.477547 1_555
Na1 O6 2.353365 1_555
Na1 O6 2.353434 1_455
Na1 O1 2.401510 1_555
Na1 O3 2.517139 1_445
Na1 O3 2.517295 1_545
Na2 O1 2.277004 1_655
Na2 O1 2.277040 1_555
Na2 O3 2.569164 1_555
Na2 O5 2.570658 1_655
Na2 O5 2.570927 1_555
Na3 O2 2.357256 1_665
Na3 O2 2.357351 1_565
Na3 O7 2.454710 1_655
Na3 O7 2.454766 1_555
Na3 O0 2.810563 1_555
Mg0 O4 1.975935 1_555
Mg0 O5 1.990759 1_554
Mg0 O5 1.990767 1_654
Mg0 O0 2.023013 1_555
Mn0 O4 2.059646 1_555
Mn0 O4 2.059691 1_455
Mn0 O0 2.108216 1_445
Mn0 O0 2.108274 1_545
Mn1 O1 2.017695 1_665
Mn1 O1 2.017719 1_565
Mn1 O3 2.200270 1_555
Mn1 O5 2.288511 1_555
Mn1 O5 2.288655 1_655
Mn2 O2 1.994594 1_555
Mn2 O2 1.994927 1_655
Mn2 O7 2.010459 1_655
Mn2 O7 2.010577 1_555
Mn2 O6 2.100839 1_555
Mn3 O6 2.014344 1_455
Mn3 O6 2.014415 1_555
Mn3 O3 2.018765 1_555
Mn3 O3 2.018908 1_455
Mn3 O7 2.500019 1_555
