# generated using pymatgen
data_RbTiCl3
_symmetry_space_group_name_H-M   'P 1'
_cell_length_a   7.23121085
_cell_length_b   7.23213372
_cell_length_c   5.70584475
_cell_angle_alpha   90.10082694
_cell_angle_beta   89.76850655
_cell_angle_gamma   120.00442186
_symmetry_Int_Tables_number   1
_chemical_formula_structural   RbTiCl3
_chemical_formula_sum   'Rb2 Ti2 Cl6'
_cell_volume   258.40751370
_cell_formula_units_Z   2
loop_
 _symmetry_equiv_pos_site_id
 _symmetry_equiv_pos_as_xyz
  1  'x, y, z'
loop_
 _atom_site_type_symbol
 _atom_site_label
 _atom_site_symmetry_multiplicity
 _atom_site_fract_x
 _atom_site_fract_y
 _atom_site_fract_z
 _atom_site_occupancy
  Rb  Rb0  1  0.66662234  0.33323898  0.24994220  1
  Rb  Rb1  1  0.33337426  0.66675922  0.75005666  1
  Ti  Ti0  1  0.00000622  -0.00000690  0.49993635  1
  Ti  Ti1  1  -0.00001118  -0.00000595  0.00007000  1
  Cl  Cl0  1  0.83497813  0.66987314  0.74996354  1
  Cl  Cl1  1  0.16516618  0.83472838  0.25092709  1
  Cl  Cl2  1  0.66955237  0.83475305  0.24885894  1
  Cl  Cl3  1  0.33032831  0.16519451  0.75114924  1
  Cl  Cl4  1  0.16508373  0.33024226  0.25002998  1
  Cl  Cl5  1  0.83489864  0.16522431  0.74906601  1
loop_
_geom_bond_atom_site_label_1
_geom_bond_atom_site_label_2
_geom_bond_distance
_geom_bond_site_symmetry_2
Cl0 Ti0 2.511593 1_665
Cl0 Ti1 2.512559 1_666
Cl0 Rb0 3.546809 1_556
Cl0 Rb0 3.548025 1_555
Cl0 Rb1 3.615324 1_655
Cl0 Rb1 3.615992 1_555
Cl1 Ti0 2.506305 1_565
Cl1 Ti1 2.520245 1_565
Cl1 Rb1 3.544036 1_554
Cl1 Rb1 3.547392 1_555
Cl1 Rb0 3.615510 1_565
Cl1 Rb0 3.615782 1_455
Cl2 Ti1 2.505081 1_665
Cl2 Ti0 2.521150 1_665
Cl2 Rb1 3.544869 1_555
Cl2 Rb1 3.546236 1_554
Cl2 Rb0 3.615753 1_565
Cl2 Rb0 3.616484 1_555
Cl3 Ti1 2.505005 1_556
Cl3 Ti0 2.520913 1_555
Cl3 Rb0 3.545340 1_555
Cl3 Rb0 3.546627 1_556
Cl3 Rb1 3.615810 1_545
Cl3 Rb1 3.616435 1_555
Cl4 Ti0 2.511868 1_555
Cl4 Ti1 2.512741 1_555
Cl4 Rb1 3.546348 1_554
Cl4 Rb1 3.547613 1_555
Cl4 Rb0 3.615368 1_455
Cl4 Rb0 3.615940 1_555
Cl5 Ti0 2.506249 1_655
Cl5 Ti1 2.520092 1_656
Cl5 Rb0 3.544483 1_556
Cl5 Rb0 3.547790 1_555
Cl5 Rb1 3.615596 1_545
Cl5 Rb1 3.615703 1_655
