# generated using pymatgen
data_Ba3(TaS4)2
_symmetry_space_group_name_H-M   'P 1'
_cell_length_a   6.93224178
_cell_length_b   12.09942044
_cell_length_c   12.72904448
_cell_angle_alpha   70.84357675
_cell_angle_beta   90.00000000
_cell_angle_gamma   90.00000000
_symmetry_Int_Tables_number   1
_chemical_formula_structural   Ba3(TaS4)2
_chemical_formula_sum   'Ba9 Ta6 S24'
_cell_volume   1008.54218734
_cell_formula_units_Z   3
loop_
 _symmetry_equiv_pos_site_id
 _symmetry_equiv_pos_as_xyz
  1  'x, y, z'
loop_
 _atom_site_type_symbol
 _atom_site_label
 _atom_site_symmetry_multiplicity
 _atom_site_fract_x
 _atom_site_fract_y
 _atom_site_fract_z
 _atom_site_occupancy
  Ba  Ba0  1  -0.00000000  0.50000000  0.00000000  1
  Ba  Ba1  1  -0.00000000  0.95438615  0.69091198  1
  Ba  Ba2  1  -0.00000000  0.04561385  0.30908802  1
  Ba  Ba3  1  0.50000000  0.72133110  0.34349801  1
  Ba  Ba4  1  0.50000000  0.27866890  0.65650199  1
  Ba  Ba5  1  -0.00000000  0.59531398  0.63467455  1
  Ba  Ba6  1  0.50000000  0.18235712  0.03664995  1
  Ba  Ba7  1  0.50000000  0.81764288  0.96335005  1
  Ba  Ba8  1  -0.00000000  0.40468602  0.36532545  1
  Ta  Ta0  1  -0.00000000  -0.00000000  0.00000000  1
  Ta  Ta1  1  0.50000000  -0.00000000  0.50000000  1
  Ta  Ta2  1  -0.00000000  0.72967219  0.17240459  1
  Ta  Ta3  1  -0.00000000  0.27032781  0.82759541  1
  Ta  Ta4  1  0.50000000  0.73299358  0.67641074  1
  Ta  Ta5  1  0.50000000  0.26700642  0.32358926  1
  S  S0  1  0.75108990  0.68774248  0.80063351  1
  S  S1  1  0.75108990  0.31225752  0.19936649  1
  S  S2  1  0.24891010  0.31225752  0.19936649  1
  S  S3  1  0.24891010  0.68774248  0.80063351  1
  S  S4  1  0.74544962  0.61642933  0.15373520  1
  S  S5  1  0.74544962  0.38357067  0.84626480  1
  S  S6  1  0.25455038  0.38357067  0.84626480  1
  S  S7  1  0.25455038  0.61642933  0.15373520  1
  S  S8  1  0.74339358  0.84773427  0.51620238  1
  S  S9  1  0.74339358  0.15226573  0.48379762  1
  S  S10  1  0.25660642  0.15226573  0.48379762  1
  S  S11  1  0.25660642  0.84773427  0.51620238  1
  S  S12  1  0.76000693  0.90839621  0.14476861  1
  S  S13  1  0.76000693  0.09160379  0.85523139  1
  S  S14  1  0.23999307  0.09160379  0.85523139  1
  S  S15  1  0.50000000  0.94334788  0.69964593  1
  S  S16  1  0.50000000  0.05665212  0.30035407  1
  S  S17  1  -0.00000000  0.67670772  0.36683857  1
  S  S18  1  -0.00000000  0.32329228  0.63316143  1
  S  S19  1  0.50000000  0.57839977  0.60510346  1
  S  S20  1  0.50000000  0.42160023  0.39489654  1
  S  S21  1  -0.00000000  0.82217329  0.95463847  1
  S  S22  1  -0.00000000  0.17782671  0.04536153  1
  S  S23  1  0.23999307  0.90839621  0.14476861  1
loop_
_geom_bond_atom_site_label_1
_geom_bond_atom_site_label_2
_geom_bond_distance
_geom_bond_site_symmetry_2
Ba0 S4 3.276744 1_455
Ba0 S7 3.276744 1_555
Ba0 S5 3.276744 1_454
Ba0 S6 3.276744 1_554
Ba0 S3 3.285458 1_554
Ba0 S0 3.285458 1_454
Ba0 S2 3.285458 1_555
Ba0 S1 3.285458 1_455
Ba0 S22 3.748529 1_555
Ba0 S21 3.748529 1_554
Ba1 S21 3.209980 1_555
Ba1 S8 3.414472 1_455
Ba1 S11 3.414472 1_555
Ba1 S9 3.421186 1_465
Ba1 S10 3.421186 1_565
Ba1 S15 3.469070 1_455
Ba1 S15 3.469070 1_555
Ba1 S14 3.489742 1_565
Ba1 S13 3.489742 1_465
Ba1 S0 3.518432 1_455
Ba1 S3 3.518432 1_555
Ba2 S22 3.209980 1_555
Ba2 S10 3.414472 1_555
Ba2 S9 3.414472 1_455
Ba2 S8 3.421186 1_445
Ba2 S11 3.421186 1_545
Ba2 S16 3.469070 1_555
Ba2 S16 3.469070 1_455
Ba2 S12 3.489742 1_445
Ba2 S23 3.489742 1_545
Ba2 S2 3.518432 1_555
Ba2 S1 3.518432 1_455
Ba3 S19 3.209375 1_555
Ba3 S23 3.318593 1_555
Ba3 S12 3.318593 1_555
Ba3 S20 3.467400 1_555
Ba3 S8 3.496473 1_555
Ba3 S11 3.496473 1_555
Ba3 S17 3.505495 1_655
Ba3 S17 3.505495 1_555
Ba3 S7 3.514671 1_555
Ba3 S4 3.514671 1_555
Ba4 S20 3.209375 1_555
Ba4 S13 3.318593 1_555
Ba4 S14 3.318593 1_555
Ba4 S19 3.467400 1_555
Ba4 S9 3.496473 1_555
Ba4 S10 3.496473 1_555
Ba4 S18 3.505495 1_555
Ba4 S18 3.505495 1_655
Ba4 S6 3.514671 1_555
Ba4 S5 3.514671 1_555
Ba5 S3 3.200182 1_555
Ba5 S0 3.200182 1_455
Ba5 S17 3.223294 1_555
Ba5 S18 3.297675 1_555
Ba5 S11 3.426884 1_555
Ba5 S8 3.426884 1_455
Ba5 S19 3.499731 1_555
Ba5 S19 3.499731 1_455
Ba5 S5 3.521789 1_455
Ba5 S6 3.521789 1_555
Ba6 S16 3.198453 1_555
Ba6 S5 3.289849 1_554
Ba6 S6 3.289849 1_554
Ba6 S13 3.384005 1_554
Ba6 S14 3.384005 1_554
Ba6 S2 3.453480 1_555
Ba6 S1 3.453480 1_555
Ba6 S22 3.467752 1_655
Ba6 S22 3.467752 1_555
Ba6 S23 3.624433 1_545
Ba6 S12 3.624433 1_545
Ba7 S15 3.198453 1_555
Ba7 S7 3.289849 1_556
Ba7 S4 3.289849 1_556
Ba7 S12 3.384005 1_556
Ba7 S23 3.384005 1_556
Ba7 S3 3.453480 1_555
Ba7 S0 3.453480 1_555
Ba7 S21 3.467752 1_555
Ba7 S21 3.467752 1_655
Ba7 S14 3.624433 1_565
Ba7 S13 3.624433 1_565
Ba8 S2 3.200182 1_555
Ba8 S1 3.200182 1_455
Ba8 S18 3.223294 1_555
Ba8 S17 3.297675 1_555
Ba8 S9 3.426884 1_455
Ba8 S10 3.426884 1_555
Ba8 S20 3.499731 1_455
Ba8 S20 3.499731 1_555
Ba8 S7 3.521789 1_555
Ba8 S4 3.521789 1_455
S0 Ta4 2.293826 1_555
S1 Ta5 2.293826 1_555
S2 Ta5 2.293826 1_555
S3 Ta4 2.293826 1_555
S4 Ta2 2.293769 1_655
S5 Ta3 2.293769 1_655
S6 Ta3 2.293769 1_555
S7 Ta2 2.293769 1_555
S8 Ta1 2.456459 1_565
S8 Ta4 2.659866 1_555
S9 Ta1 2.456459 1_555
S9 Ta5 2.659866 1_555
S10 Ta1 2.456459 1_555
S10 Ta5 2.659866 1_555
S11 Ta1 2.456459 1_565
S11 Ta4 2.659866 1_555
S12 Ta0 2.460011 1_665
S12 Ta2 2.658681 1_655
S13 Ta0 2.460011 1_656
S13 Ta3 2.658681 1_655
S14 Ta0 2.460011 1_556
S14 Ta3 2.658681 1_555
S15 Ta1 2.405167 1_565
S15 Ta4 2.656949 1_555
S16 Ta1 2.405167 1_555
S16 Ta5 2.656949 1_555
S17 Ta2 2.344179 1_555
S18 Ta3 2.344179 1_555
S19 Ta4 2.331713 1_555
S20 Ta5 2.331713 1_555
S21 Ta0 2.403775 1_566
S21 Ta2 2.626836 1_556
S22 Ta0 2.403775 1_555
S22 Ta3 2.626836 1_554
S23 Ta0 2.460011 1_565
S23 Ta2 2.658681 1_555
