# generated using pymatgen
data_P2Pb3S8
_symmetry_space_group_name_H-M   'P 1'
_cell_length_a   11.07480408
_cell_length_b   11.07480408
_cell_length_c   11.07480408
_cell_angle_alpha   90.00000000
_cell_angle_beta   90.00000000
_cell_angle_gamma   90.00000000
_symmetry_Int_Tables_number   1
_chemical_formula_structural   P2Pb3S8
_chemical_formula_sum   'P8 Pb12 S32'
_cell_volume   1358.33895608
_cell_formula_units_Z   4
loop_
 _symmetry_equiv_pos_site_id
 _symmetry_equiv_pos_as_xyz
  1  'x, y, z'
loop_
 _atom_site_type_symbol
 _atom_site_label
 _atom_site_symmetry_multiplicity
 _atom_site_fract_x
 _atom_site_fract_y
 _atom_site_fract_z
 _atom_site_occupancy
  P  P0  1  0.15226994  0.34773006  0.65226994  1
  P  P1  1  0.34773006  0.65226994  0.15226994  1
  P  P2  1  0.65226994  0.15226994  0.34773006  1
  P  P3  1  0.84773006  0.84773006  0.84773006  1
  P  P4  1  0.42588207  0.07411793  0.92588207  1
  P  P5  1  0.07411793  0.92588207  0.42588207  1
  P  P6  1  0.92588207  0.42588207  0.07411793  1
  P  P7  1  0.57411793  0.57411793  0.57411793  1
  Pb  Pb0  1  0.02877304  0.73800254  0.13998546  1
  Pb  Pb1  1  0.52877304  0.76199746  0.86001454  1
  Pb  Pb2  1  0.97122696  0.23800254  0.36001454  1
  Pb  Pb3  1  0.76199746  0.86001454  0.52877304  1
  Pb  Pb4  1  0.36001454  0.97122696  0.23800254  1
  Pb  Pb5  1  0.86001454  0.52877304  0.76199746  1
  Pb  Pb6  1  0.73800254  0.13998546  0.02877304  1
  Pb  Pb7  1  0.13998546  0.02877304  0.73800254  1
  Pb  Pb8  1  0.23800254  0.36001454  0.97122696  1
  Pb  Pb9  1  0.26199746  0.63998546  0.47122696  1
  Pb  Pb10  1  0.63998546  0.47122696  0.26199746  1
  Pb  Pb11  1  0.47122696  0.26199746  0.63998546  1
  S  S0  1  0.44636029  0.72947036  0.28900136  1
  S  S1  1  0.05363971  0.27052964  0.78900136  1
  S  S2  1  0.27052964  0.78900136  0.05363971  1
  S  S3  1  0.78900136  0.05363971  0.27052964  1
  S  S4  1  0.77052964  0.71099864  0.94636029  1
  S  S5  1  0.94636029  0.77052964  0.71099864  1
  S  S6  1  0.22947036  0.21099864  0.55363971  1
  S  S7  1  0.72947036  0.28900136  0.44636029  1
  S  S8  1  0.55363971  0.22947036  0.21099864  1
  S  S9  1  0.28900136  0.44636029  0.72947036  1
  S  S10  1  0.21099864  0.55363971  0.22947036  1
  S  S11  1  0.71099864  0.94636029  0.77052964  1
  S  S12  1  0.46579188  0.46579188  0.46579188  1
  S  S13  1  0.03420812  0.53420812  0.96579188  1
  S  S14  1  0.96579188  0.03420812  0.53420812  1
  S  S15  1  0.53420812  0.96579188  0.03420812  1
  S  S16  1  0.95323117  0.95323117  0.95323117  1
  S  S17  1  0.54676883  0.04676883  0.45323117  1
  S  S18  1  0.45323117  0.54676883  0.04676883  1
  S  S19  1  0.04676883  0.45323117  0.54676883  1
  S  S20  1  0.09273848  0.00433170  0.26066253  1
  S  S21  1  0.26066253  0.09273848  0.00433170  1
  S  S22  1  0.00433170  0.26066253  0.09273848  1
  S  S23  1  0.49566830  0.73933747  0.59273848  1
  S  S24  1  0.76066253  0.40726152  0.99566830  1
  S  S25  1  0.99566830  0.76066253  0.40726152  1
  S  S26  1  0.23933747  0.90726152  0.50433170  1
  S  S27  1  0.73933747  0.59273848  0.49566830  1
  S  S28  1  0.50433170  0.23933747  0.90726152  1
  S  S29  1  0.59273848  0.49566830  0.73933747  1
  S  S30  1  0.90726152  0.50433170  0.23933747  1
  S  S31  1  0.40726152  0.99566830  0.76066253  1
loop_
_geom_bond_atom_site_label_1
_geom_bond_atom_site_label_2
_geom_bond_distance
_geom_bond_site_symmetry_2
P0 S19 2.023735 1_555
P0 S9 2.053572 1_555
P0 S1 2.053572 1_555
P0 S6 2.053572 1_555
P1 S18 2.023735 1_555
P1 S2 2.053572 1_555
P1 S0 2.053572 1_555
P1 S10 2.053572 1_555
P2 S17 2.023735 1_555
P2 S3 2.053572 1_555
P2 S7 2.053572 1_555
P2 S8 2.053572 1_555
P3 S16 2.023735 1_555
P3 S11 2.053572 1_555
P3 S5 2.053572 1_555
P3 S4 2.053572 1_555
P4 S28 2.036035 1_555
P4 S31 2.036035 1_545
P4 S21 2.036035 1_556
P4 S15 2.077924 1_546
P5 S26 2.036035 1_555
P5 S25 2.036035 1_455
P5 S20 2.036035 1_565
P5 S14 2.077924 1_465
P6 S30 2.036035 1_555
P6 S24 2.036035 1_554
P6 S22 2.036035 1_655
P6 S13 2.077924 1_654
P7 S23 2.036035 1_555
P7 S27 2.036035 1_555
P7 S29 2.036035 1_555
P7 S12 2.077924 1_555
Pb0 S2 2.898611 1_555
Pb0 S13 2.969723 1_554
Pb0 S25 2.993188 1_455
Pb0 S10 3.037069 1_555
Pb0 S30 3.117472 1_455
Pb1 S4 2.898611 1_555
Pb1 S15 2.969723 1_556
Pb1 S23 2.993188 1_555
Pb1 S11 3.037069 1_555
Pb1 S31 3.117472 1_555
Pb2 S7 2.898611 1_555
Pb2 S14 2.969723 1_555
Pb2 S22 2.993188 1_655
Pb2 S3 3.037069 1_555
Pb2 S20 3.117472 1_655
Pb3 S11 2.898611 1_555
Pb3 S14 2.969723 1_565
Pb3 S27 2.993188 1_555
Pb3 S5 3.037069 1_555
Pb3 S25 3.117472 1_555
Pb4 S0 2.898611 1_555
Pb4 S15 2.969723 1_555
Pb4 S20 2.993188 1_565
Pb4 S2 3.037069 1_555
Pb4 S21 3.117472 1_565
Pb5 S5 2.898611 1_555
Pb5 S13 2.969723 1_655
Pb5 S29 2.993188 1_555
Pb5 S4 3.037069 1_555
Pb5 S24 3.117472 1_555
Pb6 S3 2.898611 1_555
Pb6 S15 2.969723 1_545
Pb6 S24 2.993188 1_554
Pb6 S8 3.037069 1_555
Pb6 S28 3.117472 1_554
Pb7 S1 2.898611 1_555
Pb7 S14 2.969723 1_455
Pb7 S31 2.993188 1_545
Pb7 S6 3.037069 1_555
Pb7 S26 3.117472 1_545
Pb8 S9 2.898611 1_555
Pb8 S13 2.969723 1_555
Pb8 S21 2.993188 1_556
Pb8 S1 3.037069 1_555
Pb8 S22 3.117472 1_556
Pb9 S10 2.898611 1_555
Pb9 S12 2.969723 1_555
Pb9 S26 2.993188 1_555
Pb9 S0 3.037069 1_555
Pb9 S23 3.117472 1_555
Pb10 S8 2.898611 1_555
Pb10 S12 2.969723 1_555
Pb10 S30 2.993188 1_555
Pb10 S7 3.037069 1_555
Pb10 S27 3.117472 1_555
Pb11 S6 2.898611 1_555
Pb11 S12 2.969723 1_555
Pb11 S28 2.993188 1_555
Pb11 S9 3.037069 1_555
Pb11 S29 3.117472 1_555
