# generated using pymatgen
data_K2Mg(CuO2)2
_symmetry_space_group_name_H-M   'P 1'
_cell_length_a   5.16413279
_cell_length_b   5.68673077
_cell_length_c   6.78085856
_cell_angle_alpha   90.00000000
_cell_angle_beta   125.61117588
_cell_angle_gamma   90.00000000
_symmetry_Int_Tables_number   1
_chemical_formula_structural   K2Mg(CuO2)2
_chemical_formula_sum   'K2 Mg1 Cu2 O4'
_cell_volume   161.89314579
_cell_formula_units_Z   1
loop_
 _symmetry_equiv_pos_site_id
 _symmetry_equiv_pos_as_xyz
  1  'x, y, z'
loop_
 _atom_site_type_symbol
 _atom_site_label
 _atom_site_symmetry_multiplicity
 _atom_site_fract_x
 _atom_site_fract_y
 _atom_site_fract_z
 _atom_site_occupancy
  K  K0  1  0.33054993  0.75000000  0.77232449  1
  K  K1  1  0.77102932  0.25000000  0.36497563  1
  Mg  Mg0  1  0.51649725  0.75000000  0.44897804  1
  Cu  Cu0  1  0.00155580  0.25000000  0.95637183  1
  Cu  Cu1  1  0.00238288  0.75000000  0.97189394  1
  O  O0  1  0.81768775  0.51831631  0.71584547  1
  O  O1  1  0.21158266  0.50869278  0.20917407  1
  O  O2  1  0.81768775  0.98168369  0.71584547  1
  O  O3  1  0.21158266  0.99130722  0.20917407  1
loop_
_geom_bond_atom_site_label_1
_geom_bond_atom_site_label_2
_geom_bond_distance
_geom_bond_site_symmetry_2
K0 O2 2.777733 1_455
K0 O0 2.777733 1_455
K0 Mg0 2.860305 1_555
K0 O2 3.054993 1_555
K0 O0 3.054993 1_555
K1 O2 2.716474 1_545
K1 O0 2.716474 1_555
K1 O3 2.841211 1_545
K1 O1 2.841211 1_555
Mg0 O1 2.006193 1_555
Mg0 O3 2.006193 1_555
Mg0 O0 2.037626 1_555
Mg0 O2 2.037626 1_555
Cu0 O2 2.021477 1_445
Cu0 O0 2.021477 1_455
Cu0 O1 2.028270 1_556
Cu0 O3 2.028270 1_546
Cu1 O1 1.901233 1_556
Cu1 O3 1.901233 1_556
Cu1 O2 1.931724 1_455
Cu1 O0 1.931724 1_455
Cu1 K0 2.715520 1_555
Cu1 K0 2.898382 1_455
