# generated using pymatgen
data_Cd4As2I3
_symmetry_space_group_name_H-M   'P 1'
_cell_length_a   13.30855200
_cell_length_b   13.30855200
_cell_length_c   13.30855200
_cell_angle_alpha   90.00000000
_cell_angle_beta   90.00000000
_cell_angle_gamma   90.00000000
_symmetry_Int_Tables_number   1
_chemical_formula_structural   Cd4As2I3
_chemical_formula_sum   'Cd32 As16 I24'
_cell_volume   2357.17820862
_cell_formula_units_Z   8
loop_
 _symmetry_equiv_pos_site_id
 _symmetry_equiv_pos_as_xyz
  1  'x, y, z'
loop_
 _atom_site_type_symbol
 _atom_site_label
 _atom_site_symmetry_multiplicity
 _atom_site_fract_x
 _atom_site_fract_y
 _atom_site_fract_z
 _atom_site_occupancy
  Cd  Cd0  1  0.03396300  0.00089800  0.25605600  1
  Cd  Cd1  1  0.25605600  0.03396300  0.00089800  1
  Cd  Cd2  1  0.00089800  0.25605600  0.03396300  1
  Cd  Cd3  1  0.49910200  0.74394400  0.53396300  1
  Cd  Cd4  1  0.75605600  0.46603700  0.99910200  1
  Cd  Cd5  1  0.99910200  0.75605600  0.46603700  1
  Cd  Cd6  1  0.24394400  0.96603700  0.50089800  1
  Cd  Cd7  1  0.74394400  0.53396300  0.49910200  1
  Cd  Cd8  1  0.50089800  0.24394400  0.96603700  1
  Cd  Cd9  1  0.53396300  0.49910200  0.74394400  1
  Cd  Cd10  1  0.96603700  0.50089800  0.24394400  1
  Cd  Cd11  1  0.46603700  0.99910200  0.75605600  1
  Cd  Cd12  1  0.96603700  0.99910200  0.74394400  1
  Cd  Cd13  1  0.74394400  0.96603700  0.99910200  1
  Cd  Cd14  1  0.99910200  0.74394400  0.96603700  1
  Cd  Cd15  1  0.50089800  0.25605600  0.46603700  1
  Cd  Cd16  1  0.24394400  0.53396300  0.00089800  1
  Cd  Cd17  1  0.00089800  0.24394400  0.53396300  1
  Cd  Cd18  1  0.75605600  0.03396300  0.49910200  1
  Cd  Cd19  1  0.25605600  0.46603700  0.50089800  1
  Cd  Cd20  1  0.49910200  0.75605600  0.03396300  1
  Cd  Cd21  1  0.46603700  0.50089800  0.25605600  1
  Cd  Cd22  1  0.03396300  0.49910200  0.75605600  1
  Cd  Cd23  1  0.53396300  0.00089800  0.24394400  1
  Cd  Cd24  1  0.22143300  0.22143300  0.22143300  1
  Cd  Cd25  1  0.27856700  0.77856700  0.72143300  1
  Cd  Cd26  1  0.72143300  0.27856700  0.77856700  1
  Cd  Cd27  1  0.77856700  0.72143300  0.27856700  1
  Cd  Cd28  1  0.77856700  0.77856700  0.77856700  1
  Cd  Cd29  1  0.72143300  0.22143300  0.27856700  1
  Cd  Cd30  1  0.27856700  0.72143300  0.22143300  1
  Cd  Cd31  1  0.22143300  0.27856700  0.72143300  1
  As  As0  1  0.10828700  0.10828700  0.10828700  1
  As  As1  1  0.39171300  0.89171300  0.60828700  1
  As  As2  1  0.60828700  0.39171300  0.89171300  1
  As  As3  1  0.89171300  0.60828700  0.39171300  1
  As  As4  1  0.89171300  0.89171300  0.89171300  1
  As  As5  1  0.60828700  0.10828700  0.39171300  1
  As  As6  1  0.39171300  0.60828700  0.10828700  1
  As  As7  1  0.10828700  0.39171300  0.60828700  1
  As  As8  1  0.44656300  0.44656300  0.44656300  1
  As  As9  1  0.05343700  0.55343700  0.94656300  1
  As  As10  1  0.94656300  0.05343700  0.55343700  1
  As  As11  1  0.55343700  0.94656300  0.05343700  1
  As  As12  1  0.55343700  0.55343700  0.55343700  1
  As  As13  1  0.94656300  0.44656300  0.05343700  1
  As  As14  1  0.05343700  0.94656300  0.44656300  1
  As  As15  1  0.44656300  0.05343700  0.94656300  1
  I  I0  1  0.18611300  0.43815100  0.26212300  1
  I  I1  1  0.26212300  0.18611300  0.43815100  1
  I  I2  1  0.43815100  0.26212300  0.18611300  1
  I  I3  1  0.06184900  0.73787700  0.68611300  1
  I  I4  1  0.76212300  0.31388700  0.56184900  1
  I  I5  1  0.56184900  0.76212300  0.31388700  1
  I  I6  1  0.23787700  0.81388700  0.93815100  1
  I  I7  1  0.73787700  0.68611300  0.06184900  1
  I  I8  1  0.93815100  0.23787700  0.81388700  1
  I  I9  1  0.68611300  0.06184900  0.73787700  1
  I  I10  1  0.81388700  0.93815100  0.23787700  1
  I  I11  1  0.31388700  0.56184900  0.76212300  1
  I  I12  1  0.81388700  0.56184900  0.73787700  1
  I  I13  1  0.73787700  0.81388700  0.56184900  1
  I  I14  1  0.56184900  0.73787700  0.81388700  1
  I  I15  1  0.93815100  0.26212300  0.31388700  1
  I  I16  1  0.23787700  0.68611300  0.43815100  1
  I  I17  1  0.43815100  0.23787700  0.68611300  1
  I  I18  1  0.76212300  0.18611300  0.06184900  1
  I  I19  1  0.26212300  0.31388700  0.93815100  1
  I  I20  1  0.06184900  0.76212300  0.18611300  1
  I  I21  1  0.31388700  0.93815100  0.26212300  1
  I  I22  1  0.18611300  0.06184900  0.76212300  1
  I  I23  1  0.68611300  0.43815100  0.23787700  1
loop_
_geom_bond_atom_site_label_1
_geom_bond_atom_site_label_2
_geom_bond_distance
_geom_bond_site_symmetry_2
Cd0 I10 3.055207 1_445
Cd0 I20 3.332009 1_545
Cd1 I6 3.055207 1_544
Cd1 I22 3.332009 1_554
Cd2 I8 3.055207 1_454
Cd2 I18 3.332009 1_455
Cd3 I5 3.055207 1_555
Cd3 I13 3.332009 1_555
Cd4 I7 3.055207 1_556
Cd4 I23 3.332009 1_556
Cd5 I3 3.055207 1_655
Cd5 I16 3.332009 1_655
Cd6 I1 3.055207 1_565
Cd6 I21 3.332009 1_555
Cd7 I4 3.055207 1_555
Cd7 I12 3.332009 1_555
Cd8 I2 3.055207 1_556
Cd8 I19 3.332009 1_555
Cd9 I11 3.055207 1_555
Cd9 I14 3.332009 1_555
Cd10 I0 3.055207 1_655
Cd10 I15 3.332009 1_555
Cd11 I9 3.055207 1_565
Cd11 I17 3.332009 1_565
Cd12 I22 3.055207 1_665
Cd12 I8 3.332009 1_565
Cd13 I18 3.055207 1_566
Cd13 I10 3.332009 1_556
Cd14 I20 3.055207 1_656
Cd14 I6 3.332009 1_655
Cd15 I17 3.055207 1_555
Cd15 I1 3.332009 1_555
Cd16 I19 3.055207 1_554
Cd16 I11 3.332009 1_554
Cd17 I15 3.055207 1_455
Cd17 I4 3.332009 1_455
Cd18 I13 3.055207 1_545
Cd18 I9 3.332009 1_555
Cd19 I16 3.055207 1_555
Cd19 I0 3.332009 1_555
Cd20 I14 3.055207 1_554
Cd20 I7 3.332009 1_555
Cd21 I23 3.055207 1_555
Cd21 I2 3.332009 1_555
Cd22 I12 3.055207 1_455
Cd22 I3 3.332009 1_555
Cd23 I21 3.055207 1_545
Cd23 I5 3.332009 1_545
Cd24 I1 2.972008 1_555
Cd24 I0 2.972008 1_555
Cd24 I2 2.972008 1_555
Cd25 I6 2.972008 1_555
Cd25 I11 2.972008 1_555
Cd25 I3 2.972008 1_555
Cd26 I8 2.972008 1_555
Cd26 I4 2.972008 1_555
Cd26 I9 2.972008 1_555
Cd27 I10 2.972008 1_555
Cd27 I5 2.972008 1_555
Cd27 I7 2.972008 1_555
Cd28 I14 2.972008 1_555
Cd28 I13 2.972008 1_555
Cd28 I12 2.972008 1_555
Cd29 I23 2.972008 1_555
Cd29 I15 2.972008 1_555
Cd29 I18 2.972008 1_555
Cd30 I16 2.972008 1_555
Cd30 I21 2.972008 1_555
Cd30 I20 2.972008 1_555
Cd31 I17 2.972008 1_555
Cd31 I19 2.972008 1_555
Cd31 I22 2.972008 1_555
As0 Cd24 2.608138 1_555
As0 Cd0 2.624591 1_555
As0 Cd1 2.624591 1_555
As0 Cd2 2.624591 1_555
As1 Cd25 2.608138 1_555
As1 Cd11 2.624591 1_555
As1 Cd6 2.624591 1_555
As1 Cd3 2.624591 1_555
As2 Cd26 2.608138 1_555
As2 Cd4 2.624591 1_555
As2 Cd8 2.624591 1_555
As2 Cd9 2.624591 1_555
As3 Cd27 2.608138 1_555
As3 Cd5 2.624591 1_555
As3 Cd10 2.624591 1_555
As3 Cd7 2.624591 1_555
As4 Cd28 2.608138 1_555
As4 Cd14 2.624591 1_555
As4 Cd13 2.624591 1_555
As4 Cd12 2.624591 1_555
As5 Cd29 2.608138 1_555
As5 Cd18 2.624591 1_555
As5 Cd15 2.624591 1_555
As5 Cd23 2.624591 1_555
As6 Cd30 2.608138 1_555
As6 Cd20 2.624591 1_555
As6 Cd21 2.624591 1_555
As6 Cd16 2.624591 1_555
As7 Cd31 2.608138 1_555
As7 Cd22 2.624591 1_555
As7 Cd19 2.624591 1_555
As7 Cd17 2.624591 1_555
As8 Cd19 2.649186 1_555
As8 Cd15 2.649186 1_555
As8 Cd21 2.649186 1_555
As9 Cd22 2.649186 1_555
As9 Cd14 2.649186 1_455
As9 Cd16 2.649186 1_556
As10 As14 2.463562 1_645
As10 Cd18 2.649186 1_555
As10 Cd12 2.649186 1_545
As10 Cd17 2.649186 1_655
As11 As15 2.463562 1_564
As11 Cd20 2.649186 1_555
As11 Cd13 2.649186 1_554
As11 Cd23 2.649186 1_565
As12 As8 2.463562 1_555
As12 Cd3 2.649186 1_555
As12 Cd9 2.649186 1_555
As12 Cd7 2.649186 1_555
As13 As9 2.463562 1_654
As13 Cd4 2.649186 1_554
As13 Cd2 2.649186 1_655
As13 Cd10 2.649186 1_555
As14 Cd5 2.649186 1_455
As14 Cd0 2.649186 1_565
As14 Cd6 2.649186 1_555
As15 Cd11 2.649186 1_545
As15 Cd1 2.649186 1_556
As15 Cd8 2.649186 1_555
