# generated using pymatgen
data_CsMgI3
_symmetry_space_group_name_H-M   'P 1'
_cell_length_a   8.29721548
_cell_length_b   8.29721495
_cell_length_c   7.03483124
_cell_angle_alpha   90.00000000
_cell_angle_beta   90.00000000
_cell_angle_gamma   119.99999788
_symmetry_Int_Tables_number   1
_chemical_formula_structural   CsMgI3
_chemical_formula_sum   'Cs2 Mg2 I6'
_cell_volume   419.41990242
_cell_formula_units_Z   2
loop_
 _symmetry_equiv_pos_site_id
 _symmetry_equiv_pos_as_xyz
  1  'x, y, z'
loop_
 _atom_site_type_symbol
 _atom_site_label
 _atom_site_symmetry_multiplicity
 _atom_site_fract_x
 _atom_site_fract_y
 _atom_site_fract_z
 _atom_site_occupancy
  Cs  Cs0  1  0.33333300  0.66666700  0.75000000  1
  Cs  Cs1  1  0.66666700  0.33333300  0.25000000  1
  Mg  Mg0  1  0.00000000  0.00000000  -0.00000000  1
  Mg  Mg1  1  0.00000000  0.00000000  0.50000000  1
  I  I0  1  0.16301875  0.83698225  0.25000000  1
  I  I1  1  0.32603450  0.16301875  0.75000000  1
  I  I2  1  0.83698225  0.67396550  0.75000000  1
  I  I3  1  0.16301875  0.32603450  0.25000000  1
  I  I4  1  0.67396550  0.83698225  0.25000000  1
  I  I5  1  0.83698225  0.16301875  0.75000000  1
loop_
_geom_bond_atom_site_label_1
_geom_bond_atom_site_label_2
_geom_bond_distance
_geom_bond_site_symmetry_2
Cs0 I1 4.148931 1_555
Cs0 I5 4.148935 1_455
Cs0 I2 4.148939 1_455
Cs0 I2 4.148939 1_555
Cs0 I5 4.148943 1_565
Cs0 I1 4.148947 1_565
Cs0 I0 4.285218 1_556
Cs0 I0 4.285218 1_555
Cs0 I3 4.285230 1_555
Cs0 I3 4.285230 1_556
Cs0 I4 4.285230 1_556
Cs0 I4 4.285230 1_555
Cs1 I3 4.148931 1_555
Cs1 I0 4.148935 1_545
Cs1 I4 4.148939 1_545
Cs1 I4 4.148939 1_555
Cs1 I0 4.148943 1_655
Cs1 I3 4.148948 1_655
Cs1 I5 4.285218 1_554
Cs1 I5 4.285218 1_555
Cs1 I2 4.285230 1_555
Cs1 I2 4.285230 1_554
Cs1 I1 4.285230 1_555
Cs1 I1 4.285230 1_554
I0 Mg1 2.929439 1_565
I0 Mg0 2.929439 1_565
I1 Mg0 2.929428 1_556
I1 Mg1 2.929428 1_555
I2 Mg1 2.929428 1_665
I2 Mg0 2.929428 1_666
I3 Mg1 2.929428 1_555
I3 Mg0 2.929428 1_555
I4 Mg0 2.929428 1_665
I4 Mg1 2.929428 1_665
I5 Mg1 2.929439 1_655
I5 Mg0 2.929439 1_656
