# generated using pymatgen
data_MgCuTeO4
_symmetry_space_group_name_H-M   'P 1'
_cell_length_a   5.94794436
_cell_length_b   9.99284332
_cell_length_c   9.50730150
_cell_angle_alpha   17.92413802
_cell_angle_beta   34.64551023
_cell_angle_gamma   38.48321660
_symmetry_Int_Tables_number   1
_chemical_formula_structural   MgCuTeO4
_chemical_formula_sum   'Mg1 Cu1 Te1 O4'
_cell_volume   98.86676659
_cell_formula_units_Z   1
loop_
 _symmetry_equiv_pos_site_id
 _symmetry_equiv_pos_as_xyz
  1  'x, y, z'
loop_
 _atom_site_type_symbol
 _atom_site_label
 _atom_site_symmetry_multiplicity
 _atom_site_fract_x
 _atom_site_fract_y
 _atom_site_fract_z
 _atom_site_occupancy
  Mg  Mg0  1  0.99821400  0.49799800  0.00302800  1
  Cu  Cu0  1  0.49975700  0.99770600  0.50157000  1
  Te  Te0  1  0.49889300  0.50050700  0.50040000  1
  O  O0  1  0.41051500  0.99657500  0.21687100  1
  O  O1  1  0.14641700  0.49812200  0.13961400  1
  O  O2  1  0.58518100  0.99674000  0.79258300  1
  O  O3  1  0.85477100  0.49806600  0.86260200  1
loop_
_geom_bond_atom_site_label_1
_geom_bond_atom_site_label_2
_geom_bond_distance
_geom_bond_site_symmetry_2
Mg0 O1 2.086031 1_655
Mg0 O3 2.093302 1_554
Mg0 O0 2.192870 1_654
Mg0 O2 2.195647 1_554
Mg0 O0 2.198788 1_645
Mg0 O2 2.201269 1_545
Cu0 O1 1.989785 1_556
Cu0 O1 1.991285 1_565
Cu0 O3 1.994260 1_555
Cu0 O3 1.996445 1_564
O0 Te0 2.222573 1_555
O0 Te0 2.238943 1_564
O1 Te0 2.207917 1_455
O2 Te0 2.222502 1_556
O2 Te0 2.238777 1_565
O3 Te0 2.194528 1_655
