# generated using pymatgen
data_BaMn2O3
_symmetry_space_group_name_H-M   'P 1'
_cell_length_a   3.62936958
_cell_length_b   4.33449168
_cell_length_c   6.17773548
_cell_angle_alpha   110.50490861
_cell_angle_beta   107.07377873
_cell_angle_gamma   90.01928363
_symmetry_Int_Tables_number   1
_chemical_formula_structural   BaMn2O3
_chemical_formula_sum   'Ba1 Mn2 O3'
_cell_volume   86.43591197
_cell_formula_units_Z   1
loop_
 _symmetry_equiv_pos_site_id
 _symmetry_equiv_pos_as_xyz
  1  'x, y, z'
loop_
 _atom_site_type_symbol
 _atom_site_label
 _atom_site_symmetry_multiplicity
 _atom_site_fract_x
 _atom_site_fract_y
 _atom_site_fract_z
 _atom_site_occupancy
  Ba  Ba0  1  0.49999584  0.99999703  0.99999491  1
  Mn  Mn0  1  0.81194827  0.31165544  0.62353330  1
  Mn  Mn1  1  0.18805002  0.68834131  0.37646082  1
  O  O0  1  0.00000168  0.50000083  0.00000595  1
  O  O1  1  0.79315712  0.79319117  0.58628194  1
  O  O2  1  0.20684407  0.20681122  0.41372008  1
loop_
_geom_bond_atom_site_label_1
_geom_bond_atom_site_label_2
_geom_bond_distance
_geom_bond_site_symmetry_2
Ba0 O0 2.826192 1_666
Ba0 O0 2.826202 1_556
Ba0 O0 2.827127 1_566
Ba0 O0 2.827140 1_656
Ba0 O1 2.908641 1_455
Ba0 O1 2.908642 1_555
Ba0 O2 2.908686 1_566
Ba0 O2 2.908701 1_666
Mn0 O0 2.068514 1_656
Mn0 O2 2.149263 1_655
Mn0 O2 2.150529 1_555
Mn0 O1 2.176291 1_545
Mn0 O1 2.177488 1_555
Mn1 O0 2.068416 1_555
Mn1 O1 2.149290 1_455
Mn1 O1 2.150549 1_555
Mn1 O2 2.176302 1_565
Mn1 O2 2.177485 1_555
