# generated using pymatgen
data_Li2Si
_symmetry_space_group_name_H-M   'P 1'
_cell_length_a   6.62501533
_cell_length_b   6.62501533
_cell_length_c   6.62501590
_cell_angle_alpha   38.25759105
_cell_angle_beta   38.25759105
_cell_angle_gamma   38.25758531
_symmetry_Int_Tables_number   1
_chemical_formula_structural   Li2Si
_chemical_formula_sum   'Li4 Si2'
_cell_volume   100.12225462
_cell_formula_units_Z   2
loop_
 _symmetry_equiv_pos_site_id
 _symmetry_equiv_pos_as_xyz
  1  'x, y, z'
loop_
 _atom_site_type_symbol
 _atom_site_label
 _atom_site_symmetry_multiplicity
 _atom_site_fract_x
 _atom_site_fract_y
 _atom_site_fract_z
 _atom_site_occupancy
  Li  Li0  1  0.64099866  0.64099866  0.64099866  1
  Li  Li1  1  0.35900134  0.35900134  0.35900134  1
  Li  Li2  1  0.20504755  0.20504755  0.20504755  1
  Li  Li3  1  0.79495245  0.79495245  0.79495245  1
  Si  Si0  1  0.93853336  0.93853336  0.93853336  1
  Si  Si1  1  0.06146664  0.06146664  0.06146664  1
loop_
_geom_bond_atom_site_label_1
_geom_bond_atom_site_label_2
_geom_bond_distance
_geom_bond_site_symmetry_2
Li0 Si0 2.591890 1_455
Li0 Si0 2.591890 1_545
Li0 Si0 2.591891 1_554
Li0 Si1 2.975548 1_656
Li0 Si1 2.975548 1_566
Li0 Si1 2.975548 1_665
Li1 Si1 2.591890 1_655
Li1 Si1 2.591890 1_565
Li1 Si1 2.591891 1_556
Li1 Si0 2.975548 1_544
Li1 Si0 2.975548 1_454
Li1 Si0 2.975548 1_445
Li2 Si1 2.641499 1_555
Li2 Si0 2.792006 1_454
Li2 Si0 2.792006 1_544
Li2 Si0 2.792007 1_445
Li3 Si0 2.641499 1_555
Li3 Si1 2.792006 1_656
Li3 Si1 2.792006 1_566
Li3 Si1 2.792007 1_665
Si0 Si1 2.261639 1_666
