# generated using pymatgen
data_LiVPO5
_symmetry_space_group_name_H-M   'P 1'
_cell_length_a   6.36792900
_cell_length_b   7.29442200
_cell_length_c   7.55397900
_cell_angle_alpha   90.00000000
_cell_angle_beta   90.00000000
_cell_angle_gamma   90.00000000
_symmetry_Int_Tables_number   1
_chemical_formula_structural   LiVPO5
_chemical_formula_sum   'Li4 V4 P4 O20'
_cell_volume   350.88505450
_cell_formula_units_Z   4
loop_
 _symmetry_equiv_pos_site_id
 _symmetry_equiv_pos_as_xyz
  1  'x, y, z'
loop_
 _atom_site_type_symbol
 _atom_site_label
 _atom_site_symmetry_multiplicity
 _atom_site_fract_x
 _atom_site_fract_y
 _atom_site_fract_z
 _atom_site_occupancy
  Li  Li0  1  0.00000000  0.50000000  0.50000000  1
  Li  Li1  1  0.50000000  0.00000000  0.00000000  1
  Li  Li2  1  0.50000000  0.50000000  0.50000000  1
  Li  Li3  1  0.00000000  0.00000000  0.00000000  1
  V  V0  1  0.25000000  0.21943300  0.67104900  1
  V  V1  1  0.25000000  0.28056700  0.17104900  1
  V  V2  1  0.75000000  0.78056700  0.32895100  1
  V  V3  1  0.75000000  0.71943300  0.82895100  1
  P  P0  1  0.25000000  0.62374800  0.87449600  1
  P  P1  1  0.25000000  0.87625200  0.37449600  1
  P  P2  1  0.75000000  0.37625200  0.12550400  1
  P  P3  1  0.75000000  0.12374800  0.62550400  1
  O  O0  1  0.25000000  0.99017800  0.54417900  1
  O  O1  1  0.25000000  0.50982200  0.04417900  1
  O  O2  1  0.75000000  0.00982200  0.45582100  1
  O  O3  1  0.75000000  0.49017800  0.95582100  1
  O  O4  1  0.55638200  0.25314900  0.62876200  1
  O  O5  1  0.94361800  0.24685100  0.12876200  1
  O  O6  1  0.05638200  0.74685100  0.37123800  1
  O  O7  1  0.44361800  0.75314900  0.87123800  1
  O  O8  1  0.44361800  0.74685100  0.37123800  1
  O  O9  1  0.05638200  0.75314900  0.87123800  1
  O  O10  1  0.94361800  0.25314900  0.62876200  1
  O  O11  1  0.55638200  0.24685100  0.12876200  1
  O  O12  1  0.25000000  0.49905400  0.70709200  1
  O  O13  1  0.25000000  0.00094600  0.20709200  1
  O  O14  1  0.75000000  0.50094600  0.29290800  1
  O  O15  1  0.75000000  0.99905400  0.79290800  1
  O  O16  1  0.25000000  0.15393800  0.88666700  1
  O  O17  1  0.25000000  0.34606200  0.38666700  1
  O  O18  1  0.75000000  0.84606200  0.11333300  1
  O  O19  1  0.75000000  0.65393800  0.61333300  1
loop_
_geom_bond_atom_site_label_1
_geom_bond_atom_site_label_2
_geom_bond_distance
_geom_bond_site_symmetry_2
Li0 O6 2.077805 1_555
Li0 O10 2.077805 1_455
Li0 O17 2.127961 1_555
Li0 O19 2.127961 1_455
Li0 O12 2.231973 1_555
Li0 O14 2.231973 1_455
Li1 O11 2.077805 1_555
Li1 O7 2.077805 1_544
Li1 O18 2.127961 1_545
Li1 O16 2.127961 1_554
Li1 O15 2.231973 1_544
Li1 O13 2.231973 1_555
Li2 O8 2.077805 1_555
Li2 O4 2.077805 1_555
Li2 O17 2.127961 1_555
Li2 O19 2.127961 1_555
Li2 O12 2.231973 1_555
Li2 O14 2.231973 1_555
Li3 O5 2.077805 1_455
Li3 O9 2.077805 1_544
Li3 O18 2.127961 1_445
Li3 O16 2.127961 1_554
Li3 O15 2.231973 1_444
Li3 O13 2.231973 1_555
O0 P1 1.527601 1_555
O0 V0 1.927436 1_565
O1 P0 1.527601 1_554
O1 V1 1.927436 1_555
O2 P3 1.527601 1_555
O2 V2 1.927436 1_545
O3 P2 1.527601 1_556
O3 V3 1.927436 1_555
O4 P3 1.552971 1_555
O4 V0 1.992235 1_555
O5 P2 1.552971 1_555
O5 V1 1.992235 1_655
O6 P1 1.552971 1_555
O6 V2 1.992235 1_455
O7 P0 1.552971 1_555
O7 V3 1.992235 1_555
O8 P1 1.552971 1_555
O8 V2 1.992235 1_555
O9 P0 1.552971 1_555
O9 V3 1.992235 1_455
O10 P3 1.552971 1_555
O10 V0 1.992235 1_655
O11 P2 1.552971 1_555
O11 V1 1.992235 1_555
O12 P0 1.557706 1_555
O12 V0 2.057765 1_555
O13 P1 1.557706 1_545
O13 V1 2.057765 1_555
O14 P2 1.557706 1_555
O14 V2 2.057765 1_555
O15 P3 1.557706 1_565
O15 V3 2.057765 1_555
O16 V0 1.697394 1_555
O16 V1 2.338381 1_556
O17 V1 1.697394 1_555
O17 V0 2.338381 1_555
O18 V2 1.697394 1_555
O18 V3 2.338381 1_554
O19 V3 1.697394 1_555
O19 V2 2.338381 1_555
