# generated using pymatgen
data_LiV(PO3)3
_symmetry_space_group_name_H-M   'P 1'
_cell_length_a   8.51138600
_cell_length_b   8.70020800
_cell_length_c   8.78210800
_cell_angle_alpha   90.00000000
_cell_angle_beta   90.00000000
_cell_angle_gamma   90.00000000
_symmetry_Int_Tables_number   1
_chemical_formula_structural   LiV(PO3)3
_chemical_formula_sum   'Li4 V4 P12 O36'
_cell_volume   650.32237398
_cell_formula_units_Z   4
loop_
 _symmetry_equiv_pos_site_id
 _symmetry_equiv_pos_as_xyz
  1  'x, y, z'
loop_
 _atom_site_type_symbol
 _atom_site_label
 _atom_site_symmetry_multiplicity
 _atom_site_fract_x
 _atom_site_fract_y
 _atom_site_fract_z
 _atom_site_occupancy
  Li  Li0  1  0.15128200  0.86595100  0.38453300  1
  Li  Li1  1  0.34871800  0.13404900  0.88453300  1
  Li  Li2  1  0.65128200  0.63404900  0.61546700  1
  Li  Li3  1  0.84871800  0.36595100  0.11546700  1
  V  V0  1  0.12954400  0.14485800  0.15982800  1
  V  V1  1  0.37045600  0.85514200  0.65982800  1
  V  V2  1  0.62954400  0.35514200  0.84017200  1
  V  V3  1  0.87045600  0.64485800  0.34017200  1
  P  P0  1  0.02878400  0.67906700  0.68216000  1
  P  P1  1  0.18825600  0.52114600  0.19050000  1
  P  P2  1  0.20193800  0.19207600  0.56136900  1
  P  P3  1  0.29806200  0.80792400  0.06136900  1
  P  P4  1  0.31174400  0.47885400  0.69050000  1
  P  P5  1  0.47121600  0.32093300  0.18216000  1
  P  P6  1  0.52878400  0.82093300  0.31784000  1
  P  P7  1  0.68825600  0.97885400  0.80950000  1
  P  P8  1  0.70193800  0.30792400  0.43863100  1
  P  P9  1  0.79806200  0.69207600  0.93863100  1
  P  P10  1  0.81174400  0.02114600  0.30950000  1
  P  P11  1  0.97121600  0.17906700  0.81784000  1
  O  O0  1  0.04050500  0.22567800  0.65431600  1
  O  O1  1  0.09134600  0.38843900  0.13373400  1
  O  O2  1  0.10356400  0.12714600  0.91901900  1
  O  O3  1  0.12328300  0.61516800  0.32044400  1
  O  O4  1  0.13099500  0.80668300  0.62169600  1
  O  O5  1  0.13797200  0.53656500  0.73525700  1
  O  O6  1  0.15986600  0.13994400  0.40439000  1
  O  O7  1  0.19056200  0.90631400  0.15657100  1
  O  O8  1  0.22723600  0.63559900  0.04980600  1
  O  O9  1  0.27276400  0.36440100  0.54980600  1
  O  O10  1  0.30943800  0.09368600  0.65657100  1
  O  O11  1  0.34013400  0.86005600  0.90439000  1
  O  O12  1  0.36202800  0.46343500  0.23525700  1
  O  O13  1  0.36900500  0.19331700  0.12169600  1
  O  O14  1  0.37671700  0.38483200  0.82044400  1
  O  O15  1  0.39643600  0.87285400  0.41901900  1
  O  O16  1  0.40865400  0.61156100  0.63373400  1
  O  O17  1  0.45949500  0.77432200  0.15431600  1
  O  O18  1  0.54050500  0.27432200  0.34568400  1
  O  O19  1  0.59134600  0.11156100  0.86626600  1
  O  O20  1  0.60356400  0.37285400  0.08098100  1
  O  O21  1  0.62328300  0.88483200  0.67955600  1
  O  O22  1  0.63099500  0.69331700  0.37830400  1
  O  O23  1  0.63797200  0.96343500  0.26474300  1
  O  O24  1  0.65986600  0.36005600  0.59561000  1
  O  O25  1  0.69056200  0.59368600  0.84342900  1
  O  O26  1  0.72723600  0.86440100  0.95019400  1
  O  O27  1  0.77276400  0.13559900  0.45019400  1
  O  O28  1  0.80943800  0.40631400  0.34342900  1
  O  O29  1  0.84013400  0.63994400  0.09561000  1
  O  O30  1  0.86202800  0.03656500  0.76474300  1
  O  O31  1  0.86900500  0.30668300  0.87830400  1
  O  O32  1  0.87671700  0.11516800  0.17955600  1
  O  O33  1  0.89643600  0.62714600  0.58098100  1
  O  O34  1  0.90865400  0.88843900  0.36626600  1
  O  O35  1  0.95949500  0.72567800  0.84568400  1
loop_
_geom_bond_atom_site_label_1
_geom_bond_atom_site_label_2
_geom_bond_distance
_geom_bond_site_symmetry_2
Li0 O7 2.059865 1_555
Li0 O34 2.080542 1_455
Li0 O15 2.109320 1_555
Li0 O4 2.152608 1_555
Li0 O3 2.265857 1_555
Li0 O6 2.391283 1_565
Li1 O10 2.059865 1_555
Li1 O19 2.080542 1_555
Li1 O2 2.109320 1_555
Li1 O13 2.152608 1_556
Li1 O14 2.265857 1_555
Li1 O11 2.391283 1_545
Li2 O25 2.059865 1_555
Li2 O16 2.080542 1_555
Li2 O33 2.109320 1_555
Li2 O22 2.152608 1_555
Li2 O21 2.265857 1_555
Li2 O24 2.391283 1_555
Li3 O28 2.059865 1_555
Li3 O1 2.080542 1_655
Li3 O20 2.109320 1_555
Li3 O31 2.152608 1_554
Li3 O32 2.265857 1_555
Li3 O29 2.391283 1_555
O0 P11 1.604553 1_455
O0 P2 1.624712 1_555
O1 P1 1.503974 1_555
O1 V0 2.156211 1_555
O2 P11 1.504169 1_455
O2 V0 2.131916 1_556
O3 P1 1.509059 1_555
O3 V3 2.174270 1_455
O4 P0 1.507157 1_555
O4 V1 2.108063 1_555
O5 P4 1.610640 1_555
O5 P0 1.618089 1_555
O6 P2 1.494825 1_555
O6 V0 2.163643 1_555
O7 P3 1.506306 1_555
O7 V0 2.139568 1_565
O8 P3 1.619106 1_555
O8 P1 1.621204 1_555
O9 P2 1.619106 1_555
O9 P4 1.621204 1_555
O10 P2 1.506306 1_555
O10 V1 2.139568 1_545
O11 P3 1.494825 1_556
O11 V1 2.163643 1_555
O12 P1 1.610640 1_555
O12 P5 1.618089 1_555
O13 P5 1.507157 1_555
O13 V0 2.108063 1_555
O14 P4 1.509059 1_555
O14 V2 2.174270 1_555
O15 P6 1.504169 1_555
O15 V1 2.131916 1_555
O16 P4 1.503974 1_555
O16 V1 2.156211 1_555
O17 P6 1.604553 1_555
O17 P3 1.624712 1_555
O18 P5 1.604553 1_555
O18 P8 1.624712 1_555
O19 P7 1.503974 1_545
O19 V2 2.156211 1_555
O20 P5 1.504169 1_555
O20 V2 2.131916 1_554
O21 P7 1.509059 1_555
O21 V1 2.174270 1_555
O22 P6 1.507157 1_555
O22 V3 2.108063 1_555
O23 P10 1.610640 1_565
O23 P6 1.618089 1_555
O24 P8 1.494825 1_555
O24 V2 2.163643 1_555
O25 P9 1.506306 1_555
O25 V2 2.139568 1_555
O26 P9 1.619106 1_555
O26 P7 1.621204 1_555
O27 P8 1.619106 1_555
O27 P10 1.621204 1_555
O28 P8 1.506306 1_555
O28 V3 2.139568 1_555
O29 P9 1.494825 1_554
O29 V3 2.163643 1_555
O30 P7 1.610640 1_545
O30 P11 1.618089 1_555
O31 P11 1.507157 1_555
O31 V2 2.108063 1_555
O32 P10 1.509059 1_555
O32 V0 2.174270 1_655
O33 P0 1.504169 1_655
O33 V3 2.131916 1_555
O34 P10 1.503974 1_565
O34 V3 2.156211 1_555
O35 P0 1.604553 1_655
O35 P9 1.624712 1_555
