# generated using pymatgen
data_DyAgS2
_symmetry_space_group_name_H-M   'P 1'
_cell_length_a   7.62506996
_cell_length_b   7.62537515
_cell_length_c   12.45275196
_cell_angle_alpha   89.99684490
_cell_angle_beta   90.00000000
_cell_angle_gamma   90.00000000
_symmetry_Int_Tables_number   1
_chemical_formula_structural   DyAgS2
_chemical_formula_sum   'Dy8 Ag8 S16'
_cell_volume   724.05304532
_cell_formula_units_Z   8
loop_
 _symmetry_equiv_pos_site_id
 _symmetry_equiv_pos_as_xyz
  1  'x, y, z'
loop_
 _atom_site_type_symbol
 _atom_site_label
 _atom_site_symmetry_multiplicity
 _atom_site_fract_x
 _atom_site_fract_y
 _atom_site_fract_z
 _atom_site_occupancy
  Dy  Dy0  1  0.50314875  0.74858775  0.00306338  1
  Dy  Dy1  1  0.00314875  0.25141225  0.99693662  1
  Dy  Dy2  1  0.25374022  0.00013293  0.75321375  1
  Dy  Dy3  1  0.75374022  -0.00013293  0.24678625  1
  Dy  Dy4  1  0.75203763  0.49997303  0.74691956  1
  Dy  Dy5  1  0.25203763  0.50002697  0.25308044  1
  Dy  Dy6  1  0.00286218  0.75139559  0.50302415  1
  Dy  Dy7  1  0.50286218  0.24860441  0.49697585  1
  Ag  Ag0  1  0.23988836  0.50575897  0.81351644  1
  Ag  Ag1  1  0.73988836  0.49424103  0.18648356  1
  Ag  Ag2  1  0.76410168  0.00381542  0.68602091  1
  Ag  Ag3  1  0.26410168  -0.00381542  0.31397909  1
  Ag  Ag4  1  0.01505879  0.76763882  0.06259450  1
  Ag  Ag5  1  0.51505879  0.23236118  0.93740550  1
  Ag  Ag6  1  0.48899234  0.73097350  0.56233971  1
  Ag  Ag7  1  0.98899234  0.26902650  0.43766029  1
  S  S0  1  0.77724524  0.02418489  0.46701893  1
  S  S1  1  0.27724524  0.97581511  0.53298107  1
  S  S2  1  0.23215140  0.47953900  0.47402217  1
  S  S3  1  0.73215140  0.52046100  0.52597783  1
  S  S4  1  0.52325567  0.72997665  0.22368144  1
  S  S5  1  0.02325567  0.27002335  0.77631856  1
  S  S6  1  0.47758659  0.72414708  0.78246310  1
  S  S7  1  0.97758659  0.27585292  0.21753690  1
  S  S8  1  0.98264236  0.76986982  0.72371735  1
  S  S9  1  0.48264236  0.23013018  0.27628265  1
  S  S10  1  0.52835744  0.22413565  0.71744904  1
  S  S11  1  0.02835744  0.77586435  0.28255096  1
  S  S12  1  0.27371129  0.02040811  0.97400349  1
  S  S13  1  0.77371129  0.97959189  0.02599651  1
  S  S14  1  0.72822006  0.47557048  0.96719537  1
  S  S15  1  0.22822006  0.52442952  0.03280463  1
loop_
_geom_bond_atom_site_label_1
_geom_bond_atom_site_label_2
_geom_bond_distance
_geom_bond_site_symmetry_2
Dy0 S13 2.727761 1_555
Dy0 S15 2.730102 1_555
Dy0 S14 2.734782 1_554
Dy0 S12 2.736377 1_564
Dy0 S4 2.755226 1_555
Dy0 S6 2.760296 1_554
Dy1 S12 2.727761 1_555
Dy1 S14 2.730102 1_455
Dy1 S15 2.734782 1_556
Dy1 S13 2.736377 1_446
Dy1 S5 2.755226 1_555
Dy1 S7 2.760296 1_456
Dy2 S5 2.721570 1_555
Dy2 S6 2.734008 1_545
Dy2 S8 2.736976 1_445
Dy2 S10 2.738727 1_555
Dy2 S1 2.754612 1_545
Dy2 S12 2.757999 1_555
Dy3 S4 2.721570 1_545
Dy3 S7 2.734008 1_555
Dy3 S9 2.736976 1_555
Dy3 S11 2.738727 1_645
Dy3 S0 2.754612 1_555
Dy3 S13 2.757999 1_545
Dy4 S8 2.722303 1_555
Dy4 S10 2.732745 1_555
Dy4 S5 2.735948 1_655
Dy4 S6 2.738157 1_555
Dy4 S14 2.755326 1_555
Dy4 S3 2.759925 1_555
Dy5 S9 2.722303 1_555
Dy5 S11 2.732745 1_555
Dy5 S4 2.735948 1_555
Dy5 S7 2.738157 1_455
Dy5 S15 2.755326 1_555
Dy5 S2 2.759925 1_555
Dy6 S3 2.728280 1_455
Dy6 S1 2.728550 1_555
Dy6 S2 2.735799 1_555
Dy6 S0 2.736314 1_465
Dy6 S8 2.756169 1_455
Dy6 S11 2.758679 1_555
Dy7 S2 2.728280 1_555
Dy7 S0 2.728550 1_555
Dy7 S3 2.735799 1_555
Dy7 S1 2.736314 1_545
Dy7 S9 2.756169 1_555
Dy7 S10 2.758679 1_555
Ag0 S5 2.484854 1_555
Ag0 S6 2.491524 1_555
Ag0 S15 2.735905 1_556
Ag0 S8 3.025517 1_455
Ag1 S4 2.484854 1_555
Ag1 S7 2.491524 1_555
Ag1 S14 2.735905 1_554
Ag1 S9 3.025517 1_555
Ag2 S8 2.485859 1_545
Ag2 S10 2.491379 1_555
Ag2 S0 2.733426 1_555
Ag2 S5 3.047971 1_655
Ag3 S9 2.485859 1_555
Ag3 S11 2.491379 1_545
Ag3 S1 2.733426 1_545
Ag3 S4 3.047971 1_545
Ag4 S13 2.491279 1_455
Ag4 S15 2.493776 1_555
Ag4 S11 2.741661 1_555
Ag4 S12 2.970129 1_564
Ag5 S12 2.491279 1_555
Ag5 S14 2.493776 1_555
Ag5 S10 2.741661 1_555
Ag5 S13 2.970129 1_546
Ag6 S3 2.493913 1_555
Ag6 S1 2.495235 1_555
Ag6 S6 2.743012 1_555
Ag6 S2 2.953169 1_555
Ag7 S2 2.493913 1_655
Ag7 S0 2.495235 1_555
Ag7 S7 2.743012 1_555
Ag7 S3 2.953169 1_555
