# generated using pymatgen
data_Nb6I11
_symmetry_space_group_name_H-M   'P 1'
_cell_length_a   11.63826900
_cell_length_b   13.79342400
_cell_length_c   16.24922200
_cell_angle_alpha   90.00000000
_cell_angle_beta   90.00000000
_cell_angle_gamma   90.00000000
_symmetry_Int_Tables_number   1
_chemical_formula_structural   Nb6I11
_chemical_formula_sum   'Nb24 I44'
_cell_volume   2608.51326426
_cell_formula_units_Z   4
loop_
 _symmetry_equiv_pos_site_id
 _symmetry_equiv_pos_as_xyz
  1  'x, y, z'
loop_
 _atom_site_type_symbol
 _atom_site_label
 _atom_site_symmetry_multiplicity
 _atom_site_fract_x
 _atom_site_fract_y
 _atom_site_fract_z
 _atom_site_occupancy
  Nb  Nb0  1  0.59589500  0.97998900  0.10240500  1
  Nb  Nb1  1  0.09589500  0.52001100  0.89759500  1
  Nb  Nb2  1  0.09589500  0.02001100  0.60240500  1
  Nb  Nb3  1  0.59589500  0.47998900  0.39759500  1
  Nb  Nb4  1  0.40410500  0.02001100  0.89759500  1
  Nb  Nb5  1  0.90410500  0.47998900  0.10240500  1
  Nb  Nb6  1  0.90410500  0.97998900  0.39759500  1
  Nb  Nb7  1  0.40410500  0.52001100  0.60240500  1
  Nb  Nb8  1  0.62680600  0.08279800  0.95225800  1
  Nb  Nb9  1  0.12680600  0.41720200  0.04774200  1
  Nb  Nb10  1  0.12680600  0.91720200  0.45225800  1
  Nb  Nb11  1  0.62680600  0.58279800  0.54774200  1
  Nb  Nb12  1  0.37319400  0.91720200  0.04774200  1
  Nb  Nb13  1  0.87319400  0.58279800  0.95225800  1
  Nb  Nb14  1  0.87319400  0.08279800  0.54774200  1
  Nb  Nb15  1  0.37319400  0.41720200  0.45225800  1
  Nb  Nb16  1  0.42740900  0.11920500  0.04933600  1
  Nb  Nb17  1  0.92740900  0.38079500  0.95066400  1
  Nb  Nb18  1  0.92740900  0.88079500  0.54933600  1
  Nb  Nb19  1  0.42740900  0.61920500  0.45066400  1
  Nb  Nb20  1  0.57259100  0.88079500  0.95066400  1
  Nb  Nb21  1  0.07259100  0.61920500  0.04933600  1
  Nb  Nb22  1  0.07259100  0.11920500  0.45066400  1
  Nb  Nb23  1  0.57259100  0.38079500  0.54933600  1
  I  I0  1  0.64864200  0.18414600  0.10887500  1
  I  I1  1  0.14864200  0.31585400  0.89112500  1
  I  I2  1  0.14864200  0.81585400  0.60887500  1
  I  I3  1  0.64864200  0.68414600  0.39112500  1
  I  I4  1  0.35135800  0.81585400  0.89112500  1
  I  I5  1  0.85135800  0.68414600  0.10887500  1
  I  I6  1  0.85135800  0.18414600  0.39112500  1
  I  I7  1  0.35135800  0.31585400  0.60887500  1
  I  I8  1  0.53654900  0.77488700  0.10339900  1
  I  I9  1  0.03654900  0.72511300  0.89660100  1
  I  I10  1  0.03654900  0.22511300  0.60339900  1
  I  I11  1  0.53654900  0.27488700  0.39660100  1
  I  I12  1  0.46345100  0.22511300  0.89660100  1
  I  I13  1  0.96345100  0.27488700  0.10339900  1
  I  I14  1  0.96345100  0.77488700  0.39660100  1
  I  I15  1  0.46345100  0.72511300  0.60339900  1
  I  I16  1  0.39943900  0.01780400  0.20469600  1
  I  I17  1  0.89943900  0.48219600  0.79530400  1
  I  I18  1  0.89943900  0.98219600  0.70469600  1
  I  I19  1  0.39943900  0.51780400  0.29530400  1
  I  I20  1  0.60056100  0.98219600  0.79530400  1
  I  I21  1  0.10056100  0.51780400  0.20469600  1
  I  I22  1  0.10056100  0.01780400  0.29530400  1
  I  I23  1  0.60056100  0.48219600  0.70469600  1
  I  I24  1  0.79927000  0.94425700  0.00287700  1
  I  I25  1  0.29927000  0.55574300  0.99712300  1
  I  I26  1  0.29927000  0.05574300  0.50287700  1
  I  I27  1  0.79927000  0.44425700  0.49712300  1
  I  I28  1  0.20073000  0.05574300  0.99712300  1
  I  I29  1  0.70073000  0.44425700  0.00287700  1
  I  I30  1  0.70073000  0.94425700  0.49712300  1
  I  I31  1  0.20073000  0.55574300  0.50287700  1
  I  I32  1  0.31845300  0.29804300  0.11868200  1
  I  I33  1  0.81845300  0.20195700  0.88131800  1
  I  I34  1  0.81845300  0.70195700  0.61868200  1
  I  I35  1  0.31845300  0.79804300  0.38131800  1
  I  I36  1  0.68154700  0.70195700  0.88131800  1
  I  I37  1  0.18154700  0.79804300  0.11868200  1
  I  I38  1  0.18154700  0.29804300  0.38131800  1
  I  I39  1  0.68154700  0.20195700  0.61868200  1
  I  I40  1  0.75000000  0.94036200  0.25000000  1
  I  I41  1  0.25000000  0.55963800  0.75000000  1
  I  I42  1  0.25000000  0.05963800  0.75000000  1
  I  I43  1  0.75000000  0.44036200  0.25000000  1
loop_
_geom_bond_atom_site_label_1
_geom_bond_atom_site_label_2
_geom_bond_distance
_geom_bond_site_symmetry_2
I0 Nb0 2.884077 1_545
I0 Nb16 2.892716 1_555
I0 Nb8 2.914678 1_554
I1 Nb1 2.884077 1_555
I1 Nb17 2.892716 1_455
I1 Nb9 2.914678 1_556
I2 Nb2 2.884077 1_565
I2 Nb18 2.892716 1_455
I2 Nb10 2.914678 1_555
I3 Nb3 2.884077 1_555
I3 Nb19 2.892716 1_555
I3 Nb11 2.914678 1_555
I4 Nb4 2.884077 1_565
I4 Nb20 2.892716 1_555
I4 Nb12 2.914678 1_556
I5 Nb5 2.884077 1_555
I5 Nb21 2.892716 1_655
I5 Nb13 2.914678 1_554
I6 Nb6 2.884077 1_545
I6 Nb22 2.892716 1_655
I6 Nb14 2.914678 1_555
I7 Nb7 2.884077 1_555
I7 Nb23 2.892716 1_555
I7 Nb15 2.914678 1_555
I8 Nb12 2.878501 1_555
I8 Nb20 2.910231 1_554
I8 Nb0 2.912195 1_555
I9 Nb13 2.878501 1_455
I9 Nb21 2.910231 1_556
I9 Nb1 2.912195 1_555
I10 Nb14 2.878501 1_455
I10 Nb22 2.910231 1_555
I10 Nb2 2.912195 1_555
I11 Nb15 2.878501 1_555
I11 Nb23 2.910231 1_555
I11 Nb3 2.912195 1_555
I12 Nb8 2.878501 1_555
I12 Nb16 2.910231 1_556
I12 Nb4 2.912195 1_555
I13 Nb9 2.878501 1_655
I13 Nb17 2.910231 1_554
I13 Nb5 2.912195 1_555
I14 Nb10 2.878501 1_655
I14 Nb18 2.910231 1_555
I14 Nb6 2.912195 1_555
I15 Nb11 2.878501 1_555
I15 Nb19 2.910231 1_555
I15 Nb7 2.912195 1_555
I16 Nb0 2.874450 1_545
I16 Nb16 2.904347 1_555
I16 Nb12 2.919469 1_545
I17 Nb1 2.874450 1_655
I17 Nb17 2.904347 1_555
I17 Nb13 2.919469 1_555
I18 Nb2 2.874450 1_665
I18 Nb18 2.904347 1_555
I18 Nb14 2.919469 1_565
I19 Nb3 2.874450 1_555
I19 Nb19 2.904347 1_555
I19 Nb15 2.919469 1_555
I20 Nb4 2.874450 1_565
I20 Nb20 2.904347 1_555
I20 Nb8 2.919469 1_565
I21 Nb5 2.874450 1_455
I21 Nb21 2.904347 1_555
I21 Nb9 2.919469 1_555
I22 Nb6 2.874450 1_445
I22 Nb22 2.904347 1_555
I22 Nb10 2.919469 1_545
I23 Nb7 2.874450 1_555
I23 Nb23 2.904347 1_555
I23 Nb11 2.919469 1_555
I24 Nb8 2.890859 1_564
I24 Nb20 2.906185 1_554
I24 Nb0 2.908745 1_555
I25 Nb9 2.890859 1_556
I25 Nb21 2.906185 1_556
I25 Nb1 2.908745 1_555
I26 Nb10 2.890859 1_545
I26 Nb22 2.906185 1_555
I26 Nb2 2.908745 1_555
I27 Nb11 2.890859 1_555
I27 Nb23 2.906185 1_555
I27 Nb3 2.908745 1_555
I28 Nb12 2.890859 1_546
I28 Nb16 2.906185 1_556
I28 Nb4 2.908745 1_555
I29 Nb13 2.890859 1_554
I29 Nb17 2.906185 1_554
I29 Nb5 2.908745 1_555
I30 Nb14 2.890859 1_565
I30 Nb18 2.906185 1_555
I30 Nb6 2.908745 1_555
I31 Nb15 2.890859 1_555
I31 Nb19 2.906185 1_555
I31 Nb7 2.908745 1_555
I32 Nb16 2.993783 1_555
I32 Nb9 3.000846 1_555
I33 Nb17 2.993783 1_555
I33 Nb8 3.000846 1_555
I34 Nb18 2.993783 1_555
I34 Nb11 3.000846 1_555
I35 Nb19 2.993783 1_555
I35 Nb10 3.000846 1_555
I36 Nb20 2.993783 1_555
I36 Nb13 3.000846 1_555
I37 Nb21 2.993783 1_555
I37 Nb12 3.000846 1_555
I38 Nb22 2.993783 1_555
I38 Nb15 3.000846 1_555
I39 Nb23 2.993783 1_555
I39 Nb14 3.000846 1_555
I40 Nb6 3.044228 1_555
I40 Nb0 3.044228 1_555
I41 Nb1 3.044228 1_555
I41 Nb7 3.044228 1_555
I42 Nb4 3.044228 1_555
I42 Nb2 3.044228 1_555
I43 Nb3 3.044228 1_555
I43 Nb5 3.044228 1_555
