# generated using pymatgen
data_Sr5Mg
_symmetry_space_group_name_H-M   'P 1'
_cell_length_a   15.13854122
_cell_length_b   15.13854122
_cell_length_c   20.51639020
_cell_angle_alpha   69.30603913
_cell_angle_beta   69.30603913
_cell_angle_gamma   33.68611612
_symmetry_Int_Tables_number   1
_chemical_formula_structural   Sr5Mg
_chemical_formula_sum   'Sr40 Mg8'
_cell_volume   2423.58877413
_cell_formula_units_Z   8
loop_
 _symmetry_equiv_pos_site_id
 _symmetry_equiv_pos_as_xyz
  1  'x, y, z'
loop_
 _atom_site_type_symbol
 _atom_site_label
 _atom_site_symmetry_multiplicity
 _atom_site_fract_x
 _atom_site_fract_y
 _atom_site_fract_z
 _atom_site_occupancy
  Sr  Sr0_0  1  0.49992910  0.49992910  0.04035006  1
  Sr  Sr0_1  1  0.49992910  0.49992910  0.54035006  1
  Sr  Sr0_2  1  0.49992910  0.99992910  0.04035007  1
  Sr  Sr0_3  1  0.49992910  0.99992910  0.54035007  1
  Sr  Sr0_4  1  0.99992910  0.49992910  0.04035007  1
  Sr  Sr0_5  1  0.99992910  0.49992910  0.54035007  1
  Sr  Sr0_6  1  0.99992910  0.99992910  0.04035007  1
  Sr  Sr0_7  1  0.99992910  0.99992910  0.54035006  1
  Sr  Sr1_0  1  0.13909680  0.13909680  0.18123655  1
  Sr  Sr1_1  1  0.13909680  0.13909680  0.68123655  1
  Sr  Sr1_2  1  0.13909680  0.63909680  0.18123655  1
  Sr  Sr1_3  1  0.13909680  0.63909680  0.68123656  1
  Sr  Sr1_4  1  0.63909680  0.13909680  0.18123655  1
  Sr  Sr1_5  1  0.63909680  0.13909680  0.68123656  1
  Sr  Sr1_6  1  0.63909680  0.63909680  0.18123655  1
  Sr  Sr1_7  1  0.63909680  0.63909680  0.68123656  1
  Sr  Sr2_0  1  0.48531973  0.48531973  0.25919386  1
  Sr  Sr2_1  1  0.48531973  0.48531973  0.75919386  1
  Sr  Sr2_2  1  0.48531972  0.98531972  0.25919386  1
  Sr  Sr2_3  1  0.48531972  0.98531972  0.75919386  1
  Sr  Sr2_4  1  0.98531972  0.48531973  0.25919386  1
  Sr  Sr2_5  1  0.98531972  0.48531973  0.75919386  1
  Sr  Sr2_6  1  0.98531972  0.98531972  0.25919386  1
  Sr  Sr2_7  1  0.98531973  0.98531973  0.75919386  1
  Sr  Sr3_0  1  0.31975550  0.31975550  0.36106657  1
  Sr  Sr3_1  1  0.31975550  0.31975550  0.86106657  1
  Sr  Sr3_2  1  0.31975550  0.81975550  0.36106658  1
  Sr  Sr3_3  1  0.31975550  0.81975550  0.86106657  1
  Sr  Sr3_4  1  0.81975550  0.31975550  0.36106658  1
  Sr  Sr3_5  1  0.81975550  0.31975550  0.86106657  1
  Sr  Sr3_6  1  0.81975550  0.81975550  0.36106658  1
  Sr  Sr3_7  1  0.81975550  0.81975550  0.86106657  1
  Sr  Sr4_0  1  0.15345695  0.15345695  0.46346885  1
  Sr  Sr4_1  1  0.15345695  0.15345695  0.96346885  1
  Sr  Sr4_2  1  0.15345695  0.65345695  0.46346885  1
  Sr  Sr4_3  1  0.15345695  0.65345695  0.96346885  1
  Sr  Sr4_4  1  0.65345695  0.15345696  0.46346885  1
  Sr  Sr4_5  1  0.65345696  0.15345695  0.96346885  1
  Sr  Sr4_6  1  0.65345696  0.65345696  0.46346885  1
  Sr  Sr4_7  1  0.65345696  0.65345696  0.96346885  1
  Mg  Mg0_0  1  0.31910942  0.31910942  0.11135009  1
  Mg  Mg0_1  1  0.31910941  0.31910941  0.61135009  1
  Mg  Mg0_2  1  0.31910941  0.81910941  0.11135010  1
  Mg  Mg0_3  1  0.31910941  0.81910941  0.61135010  1
  Mg  Mg0_4  1  0.81910942  0.31910941  0.11135009  1
  Mg  Mg0_5  1  0.81910942  0.31910942  0.61135009  1
  Mg  Mg0_6  1  0.81910942  0.81910942  0.11135010  1
  Mg  Mg0_7  1  0.81910941  0.81910941  0.61135009  1
loop_
_geom_bond_atom_site_label_1
_geom_bond_atom_site_label_2
_geom_bond_distance
_geom_bond_site_symmetry_2
Sr0_0 Sr1_4 4.077384 1_555
Sr0_0 Sr1_2 4.077384 1_555
Sr0_0 Sr3_3 4.115588 1_554
Sr0_0 Sr3_5 4.115588 1_554
Sr0_0 Sr4_7 4.135139 1_554
Sr0_0 Sr4_5 4.285977 1_554
Sr0_0 Sr4_3 4.285977 1_554
Sr0_0 Sr2_0 4.351400 1_555
Sr0_0 Sr0_6 4.386410 1_545
Sr0_0 Sr0_6 4.386410 1_455
Sr0_1 Sr1_5 4.077384 1_555
Sr0_1 Sr1_3 4.077384 1_555
Sr0_1 Sr3_2 4.115588 1_555
Sr0_1 Sr3_4 4.115588 1_555
Sr0_1 Sr4_6 4.135139 1_555
Sr0_1 Sr4_4 4.285977 1_555
Sr0_1 Sr4_2 4.285977 1_555
Sr0_1 Sr2_1 4.351400 1_555
Sr0_1 Sr0_7 4.386410 1_455
Sr0_1 Sr0_7 4.386410 1_545
Sr0_2 Sr1_6 4.077384 1_555
Sr0_2 Sr1_0 4.077384 1_565
Sr0_2 Sr3_1 4.115588 1_564
Sr0_2 Sr3_7 4.115588 1_554
Sr0_2 Sr4_5 4.135139 1_564
Sr0_2 Sr4_7 4.285977 1_554
Sr0_2 Sr4_1 4.285977 1_564
Sr0_2 Sr2_2 4.351400 1_555
Sr0_2 Sr0_4 4.386410 1_555
Sr0_2 Sr0_4 4.386410 1_465
Sr0_3 Sr1_1 4.077384 1_565
Sr0_3 Sr1_7 4.077384 1_555
Sr0_3 Sr3_6 4.115588 1_555
Sr0_3 Sr3_0 4.115588 1_565
Sr0_3 Sr4_4 4.135139 1_565
Sr0_3 Sr4_6 4.285977 1_555
Sr0_3 Sr4_0 4.285977 1_565
Sr0_3 Sr2_3 4.351400 1_555
Sr0_3 Sr0_5 4.386410 1_465
Sr0_3 Sr0_5 4.386410 1_555
Sr0_4 Sr1_6 4.077384 1_555
Sr0_4 Sr1_0 4.077384 1_655
Sr0_4 Sr3_7 4.115588 1_554
Sr0_4 Sr3_1 4.115588 1_654
Sr0_4 Sr4_3 4.135139 1_654
Sr0_4 Sr4_7 4.285977 1_554
Sr0_4 Sr4_1 4.285977 1_654
Sr0_4 Sr2_4 4.351400 1_555
Sr0_5 Sr1_1 4.077384 1_655
Sr0_5 Sr1_7 4.077384 1_555
Sr0_5 Sr3_6 4.115588 1_555
Sr0_5 Sr3_0 4.115588 1_655
Sr0_5 Sr4_2 4.135139 1_655
Sr0_5 Sr4_6 4.285977 1_555
Sr0_5 Sr4_0 4.285977 1_655
Sr0_5 Sr2_5 4.351400 1_555
Sr0_6 Sr1_4 4.077384 1_565
Sr0_6 Sr1_2 4.077384 1_655
Sr0_6 Sr3_3 4.115588 1_654
Sr0_6 Sr3_5 4.115588 1_564
Sr0_6 Sr4_1 4.135139 1_664
Sr0_6 Sr4_5 4.285977 1_564
Sr0_6 Sr4_3 4.285977 1_654
Sr0_6 Sr2_6 4.351400 1_555
Sr0_7 Sr1_5 4.077384 1_565
Sr0_7 Sr1_3 4.077384 1_655
Sr0_7 Sr3_2 4.115588 1_655
Sr0_7 Sr3_4 4.115588 1_565
Sr0_7 Sr4_0 4.135139 1_665
Sr0_7 Sr4_4 4.285977 1_565
Sr0_7 Sr4_2 4.285977 1_655
Sr0_7 Sr2_7 4.351400 1_555
Sr1_0 Sr3_4 4.121351 1_455
Sr1_0 Sr3_2 4.121351 1_545
Sr1_0 Sr2_6 4.141589 1_445
Sr1_0 Sr2_2 4.293769 1_545
Sr1_0 Sr2_4 4.293769 1_455
Sr1_0 Sr4_1 4.331464 1_554
Sr1_0 Sr1_6 4.386410 1_545
Sr1_0 Sr1_6 4.386410 1_455
Sr1_1 Sr3_5 4.121351 1_455
Sr1_1 Sr3_3 4.121351 1_545
Sr1_1 Sr2_7 4.141589 1_445
Sr1_1 Sr2_3 4.293769 1_545
Sr1_1 Sr2_5 4.293769 1_455
Sr1_1 Sr4_0 4.331464 1_555
Sr1_1 Sr1_7 4.386410 1_455
Sr1_1 Sr1_7 4.386410 1_545
Sr1_2 Sr3_6 4.121351 1_455
Sr1_2 Sr3_0 4.121351 1_555
Sr1_2 Sr2_4 4.141589 1_455
Sr1_2 Sr2_6 4.293769 1_455
Sr1_2 Sr2_0 4.293769 1_555
Sr1_2 Sr4_3 4.331464 1_554
Sr1_2 Sr1_4 4.386410 1_465
Sr1_2 Sr1_4 4.386410 1_555
Sr1_3 Sr3_1 4.121351 1_555
Sr1_3 Sr3_7 4.121351 1_455
Sr1_3 Sr2_5 4.141589 1_455
Sr1_3 Sr2_1 4.293769 1_555
Sr1_3 Sr2_7 4.293769 1_455
Sr1_3 Sr4_2 4.331464 1_555
Sr1_3 Sr1_5 4.386410 1_555
Sr1_3 Sr1_5 4.386410 1_465
Sr1_4 Sr3_0 4.121351 1_555
Sr1_4 Sr3_6 4.121351 1_545
Sr1_4 Sr2_2 4.141589 1_545
Sr1_4 Sr2_6 4.293769 1_545
Sr1_4 Sr2_0 4.293769 1_555
Sr1_4 Sr4_5 4.331464 1_554
Sr1_5 Sr3_1 4.121351 1_555
Sr1_5 Sr3_7 4.121351 1_545
Sr1_5 Sr2_3 4.141589 1_545
Sr1_5 Sr2_1 4.293769 1_555
Sr1_5 Sr2_7 4.293769 1_545
Sr1_5 Sr4_4 4.331464 1_555
Sr1_6 Sr3_2 4.121351 1_555
Sr1_6 Sr3_4 4.121351 1_555
Sr1_6 Sr2_0 4.141589 1_555
Sr1_6 Sr2_4 4.293769 1_555
Sr1_6 Sr2_2 4.293769 1_555
Sr1_6 Sr4_7 4.331464 1_554
Sr1_7 Sr3_5 4.121351 1_555
Sr1_7 Sr3_3 4.121351 1_555
Sr1_7 Sr2_1 4.141589 1_555
Sr1_7 Sr2_3 4.293769 1_555
Sr1_7 Sr2_5 4.293769 1_555
Sr1_7 Sr4_6 4.331464 1_555
Sr2_0 Sr3_2 4.352199 1_555
Sr2_0 Sr3_4 4.352199 1_555
Sr2_0 Sr2_6 4.386410 1_455
Sr2_0 Sr2_6 4.386410 1_545
Sr2_0 Sr3_0 4.470144 1_555
Sr2_0 Sr4_4 4.545387 1_555
Sr2_0 Sr4_2 4.545387 1_555
Sr2_1 Sr3_3 4.352199 1_555
Sr2_1 Sr3_5 4.352199 1_555
Sr2_1 Sr2_7 4.386410 1_455
Sr2_1 Sr2_7 4.386410 1_545
Sr2_1 Sr3_1 4.470144 1_555
Sr2_1 Sr4_5 4.545387 1_555
Sr2_1 Sr4_3 4.545387 1_555
Sr2_2 Sr3_0 4.352199 1_565
Sr2_2 Sr3_6 4.352199 1_555
Sr2_2 Sr2_4 4.386410 1_555
Sr2_2 Sr2_4 4.386410 1_465
Sr2_2 Sr3_2 4.470144 1_555
Sr2_2 Sr4_0 4.545387 1_565
Sr2_2 Sr4_6 4.545387 1_555
Sr2_3 Sr3_7 4.352199 1_555
Sr2_3 Sr3_1 4.352199 1_565
Sr2_3 Sr2_5 4.386410 1_555
Sr2_3 Sr2_5 4.386410 1_465
Sr2_3 Sr3_3 4.470144 1_555
Sr2_3 Sr4_7 4.545387 1_555
Sr2_3 Sr4_1 4.545387 1_565
Sr2_4 Sr3_0 4.352199 1_655
Sr2_4 Sr3_6 4.352199 1_555
Sr2_4 Sr3_4 4.470144 1_555
Sr2_4 Sr4_0 4.545387 1_655
Sr2_4 Sr4_6 4.545387 1_555
Sr2_5 Sr3_7 4.352199 1_555
Sr2_5 Sr3_1 4.352199 1_655
Sr2_5 Sr3_5 4.470144 1_555
Sr2_5 Sr4_7 4.545387 1_555
Sr2_5 Sr4_1 4.545387 1_655
Sr2_6 Sr3_2 4.352199 1_655
Sr2_6 Sr3_4 4.352199 1_565
Sr2_6 Sr3_6 4.470144 1_555
Sr2_6 Sr4_2 4.545387 1_655
Sr2_6 Sr4_4 4.545387 1_565
Sr2_7 Sr3_3 4.352199 1_655
Sr2_7 Sr3_5 4.352199 1_565
Sr2_7 Sr3_7 4.470144 1_555
Sr2_7 Sr4_5 4.545387 1_565
Sr2_7 Sr4_3 4.545387 1_655
Sr3_0 Sr4_2 4.343974 1_555
Sr3_0 Sr4_4 4.343974 1_555
Sr3_0 Sr3_6 4.386410 1_455
Sr3_0 Sr3_6 4.386410 1_545
Sr3_0 Sr4_0 4.490085 1_555
Sr3_1 Sr4_3 4.343974 1_555
Sr3_1 Sr4_5 4.343974 1_555
Sr3_1 Sr3_7 4.386410 1_455
Sr3_1 Sr3_7 4.386410 1_545
Sr3_1 Sr4_1 4.490085 1_555
Sr3_2 Sr4_0 4.343974 1_565
Sr3_2 Sr4_6 4.343974 1_555
Sr3_2 Sr3_4 4.386410 1_555
Sr3_2 Sr3_4 4.386410 1_465
Sr3_2 Sr4_2 4.490085 1_555
Sr3_3 Sr4_7 4.343974 1_555
Sr3_3 Sr4_1 4.343974 1_565
Sr3_3 Sr3_5 4.386410 1_555
Sr3_3 Sr3_5 4.386410 1_465
Sr3_3 Sr4_3 4.490085 1_555
Sr3_4 Sr4_6 4.343974 1_555
Sr3_4 Sr4_0 4.343974 1_655
Sr3_4 Sr4_4 4.490085 1_555
Sr3_5 Sr4_7 4.343974 1_555
Sr3_5 Sr4_1 4.343974 1_655
Sr3_5 Sr4_5 4.490085 1_555
Sr3_6 Sr4_2 4.343974 1_655
Sr3_6 Sr4_4 4.343974 1_565
Sr3_6 Sr4_6 4.490085 1_555
Sr3_7 Sr4_3 4.343974 1_655
Sr3_7 Sr4_5 4.343974 1_565
Sr3_7 Sr4_7 4.490085 1_555
Sr4_0 Sr4_6 4.386410 1_545
Sr4_0 Sr4_6 4.386410 1_455
Sr4_1 Sr4_7 4.386410 1_455
Sr4_1 Sr4_7 4.386410 1_545
Sr4_2 Sr4_4 4.386410 1_555
Sr4_2 Sr4_4 4.386410 1_465
Sr4_3 Sr4_5 4.386410 1_555
Sr4_3 Sr4_5 4.386410 1_465
Mg0_0 Sr0_4 3.620402 1_455
Mg0_0 Sr0_2 3.620402 1_545
Mg0_0 Sr1_2 3.623056 1_555
Mg0_0 Sr1_4 3.623056 1_555
Mg0_0 Sr2_4 3.803641 1_455
Mg0_0 Sr2_2 3.803641 1_545
Mg0_0 Sr4_3 3.809661 1_554
Mg0_0 Sr4_5 3.809661 1_554
Mg0_1 Sr0_5 3.620402 1_455
Mg0_1 Sr0_3 3.620402 1_545
Mg0_1 Sr1_3 3.623056 1_555
Mg0_1 Sr1_5 3.623056 1_555
Mg0_1 Sr2_3 3.803641 1_545
Mg0_1 Sr2_5 3.803641 1_455
Mg0_1 Sr4_2 3.809661 1_555
Mg0_1 Sr4_4 3.809661 1_555
Mg0_2 Sr0_0 3.620402 1_555
Mg0_2 Sr0_6 3.620402 1_455
Mg0_2 Sr1_0 3.623056 1_565
Mg0_2 Sr1_6 3.623056 1_555
Mg0_2 Sr2_0 3.803641 1_555
Mg0_2 Sr2_6 3.803641 1_455
Mg0_2 Sr4_1 3.809661 1_564
Mg0_2 Sr4_7 3.809661 1_554
Mg0_3 Sr0_1 3.620402 1_555
Mg0_3 Sr0_7 3.620402 1_455
Mg0_3 Sr1_1 3.623056 1_565
Mg0_3 Sr1_7 3.623056 1_555
Mg0_3 Sr2_7 3.803641 1_455
Mg0_3 Sr2_1 3.803641 1_555
Mg0_3 Sr4_6 3.809661 1_555
Mg0_3 Sr4_0 3.809661 1_565
Mg0_4 Sr0_0 3.620402 1_555
Mg0_4 Sr0_6 3.620402 1_545
Mg0_4 Sr1_0 3.623056 1_655
Mg0_4 Sr1_6 3.623056 1_555
Mg0_4 Sr2_0 3.803641 1_555
Mg0_4 Sr2_6 3.803641 1_545
Mg0_4 Sr4_1 3.809661 1_654
Mg0_4 Sr4_7 3.809661 1_554
Mg0_5 Sr0_1 3.620402 1_555
Mg0_5 Sr0_7 3.620402 1_545
Mg0_5 Sr1_1 3.623056 1_655
Mg0_5 Sr1_7 3.623056 1_555
Mg0_5 Sr2_7 3.803641 1_545
Mg0_5 Sr2_1 3.803641 1_555
Mg0_5 Sr4_6 3.809661 1_555
Mg0_5 Sr4_0 3.809661 1_655
Mg0_6 Sr0_4 3.620402 1_555
Mg0_6 Sr0_2 3.620402 1_555
Mg0_6 Sr1_2 3.623056 1_655
Mg0_6 Sr1_4 3.623056 1_565
Mg0_6 Sr2_4 3.803641 1_555
Mg0_6 Sr2_2 3.803641 1_555
Mg0_6 Sr4_3 3.809661 1_654
Mg0_6 Sr4_5 3.809661 1_564
Mg0_7 Sr0_5 3.620402 1_555
Mg0_7 Sr0_3 3.620402 1_555
Mg0_7 Sr1_3 3.623056 1_655
Mg0_7 Sr1_5 3.623056 1_565
Mg0_7 Sr2_5 3.803641 1_555
Mg0_7 Sr2_3 3.803641 1_555
Mg0_7 Sr4_2 3.809661 1_655
Mg0_7 Sr4_4 3.809661 1_565
