# generated using pymatgen
data_Na2MgGe2(SbO5)2
_symmetry_space_group_name_H-M   'P 1'
_cell_length_a   5.55287671
_cell_length_b   6.04552859
_cell_length_c   7.88614707
_cell_angle_alpha   108.66173738
_cell_angle_beta   102.71247791
_cell_angle_gamma   105.89667910
_symmetry_Int_Tables_number   1
_chemical_formula_structural   Na2MgGe2(SbO5)2
_chemical_formula_sum   'Na2 Mg1 Ge2 Sb2 O10'
_cell_volume   227.05712049
_cell_formula_units_Z   1
loop_
 _symmetry_equiv_pos_site_id
 _symmetry_equiv_pos_as_xyz
  1  'x, y, z'
loop_
 _atom_site_type_symbol
 _atom_site_label
 _atom_site_symmetry_multiplicity
 _atom_site_fract_x
 _atom_site_fract_y
 _atom_site_fract_z
 _atom_site_occupancy
  Na  Na0  1  0.36216475  0.74800845  0.69041998  1
  Na  Na1  1  0.67390063  0.33906460  0.31383242  1
  Mg  Mg0  1  0.27217755  0.42944106  0.90139235  1
  Ge  Ge0  1  0.32712228  0.68887058  0.27487385  1
  Ge  Ge1  1  0.66692264  0.29916808  0.72659499  1
  Sb  Sb0  1  0.01358158  0.01073949  0.49029279  1
  Sb  Sb1  1  0.98216210  0.98987963  0.00685036  1
  O  O0  1  0.16588240  0.04734285  0.74952723  1
  O  O1  1  0.88673375  0.05603335  0.25744990  1
  O  O2  1  0.07137754  0.68099565  0.38003427  1
  O  O3  1  0.27806399  0.77337005  0.08010201  1
  O  O4  1  0.96158764  0.35786634  0.65180149  1
  O  O5  1  0.72253129  0.14834097  0.88375360  1
  O  O6  1  0.40070791  0.16766426  0.49933700  1
  O  O7  1  0.60530469  0.56824671  0.84851640  1
  O  O8  1  0.64000949  0.79376906  0.46047837  1
  O  O9  1  0.29119878  0.36548488  0.14188600  1
loop_
_geom_bond_atom_site_label_1
_geom_bond_atom_site_label_2
_geom_bond_distance
_geom_bond_site_symmetry_2
Na0 O0 2.333295 1_565
Na0 O7 2.342722 1_555
Na0 O5 2.414343 1_565
Na0 O2 2.455684 1_555
Na0 O4 2.640401 1_455
Na0 O8 2.657758 1_555
Na1 O1 2.318271 1_555
Na1 O9 2.331644 1_555
Na1 O2 2.391650 1_655
Na1 O6 2.569217 1_555
Na1 O8 2.697066 1_555
Na1 O4 2.738854 1_555
Mg0 O7 2.003232 1_555
Mg0 O9 2.039882 1_556
Mg0 O0 2.071294 1_555
Mg0 O3 2.092293 1_556
Mg0 O4 2.141969 1_455
Ge0 O3 1.757467 1_555
Ge0 O2 1.792575 1_555
Ge0 O8 1.801770 1_555
Ge0 O9 1.828660 1_555
Ge1 O7 1.771019 1_555
Ge1 O5 1.780972 1_555
Ge1 O6 1.818681 1_555
Ge1 O4 1.841667 1_555
O0 Sb0 1.946956 1_555
O0 Sb1 2.539213 1_446
O1 Sb0 1.949631 1_655
O1 Sb1 2.101798 1_545
O2 Sb0 2.048661 1_565
O3 Sb1 2.447665 1_455
O4 Sb0 2.211967 1_655
O5 Sb1 2.162028 1_546
O6 Sb0 2.073210 1_555
O7 Sb1 2.515291 1_556
O8 Sb0 2.043616 1_665
O9 Sb1 2.179139 1_445
