# generated using pymatgen
data_Na2MgNb2O6
_symmetry_space_group_name_H-M   'P 1'
_cell_length_a   4.12221714
_cell_length_b   5.83523306
_cell_length_c   5.83523306
_cell_angle_alpha   90.33870685
_cell_angle_beta   90.00000000
_cell_angle_gamma   90.00000000
_symmetry_Int_Tables_number   1
_chemical_formula_structural   Na2MgNb2O6
_chemical_formula_sum   'Na2 Mg1 Nb2 O6'
_cell_volume   140.35881378
_cell_formula_units_Z   1
loop_
 _symmetry_equiv_pos_site_id
 _symmetry_equiv_pos_as_xyz
  1  'x, y, z'
loop_
 _atom_site_type_symbol
 _atom_site_label
 _atom_site_symmetry_multiplicity
 _atom_site_fract_x
 _atom_site_fract_y
 _atom_site_fract_z
 _atom_site_occupancy
  Na  Na0  1  0.50000000  0.40429821  0.90429821  1
  Na  Na1  1  0.50000000  0.07074993  0.57074993  1
  Mg  Mg0  1  0.50000000  0.73899193  0.23899193  1
  Nb  Nb0  1  0.00000000  0.49152677  0.50495232  1
  Nb  Nb1  1  0.00000000  0.00495232  0.99152677  1
  O  O0  1  0.00000000  0.72215585  0.77430306  1
  O  O1  1  0.00000000  0.22589412  0.72589412  1
  O  O2  1  0.00000000  0.77424566  0.27424566  1
  O  O3  1  0.00000000  0.27430306  0.22215585  1
  O  O4  1  0.50000000  0.99005691  0.00520625  1
  O  O5  1  0.50000000  0.50520625  0.49005691  1
loop_
_geom_bond_atom_site_label_1
_geom_bond_atom_site_label_2
_geom_bond_distance
_geom_bond_site_symmetry_2
Na0 O4 2.491258 1_546
Na0 O5 2.491258 1_555
Na0 O1 2.530383 1_555
Na0 O1 2.530383 1_655
Na0 O0 2.877566 1_555
Na0 O3 2.877566 1_656
Na0 O3 2.877566 1_556
Na0 O0 2.877566 1_655
Na1 O1 2.424381 1_555
Na1 O1 2.424381 1_655
Na1 O5 2.581246 1_555
Na1 O4 2.581246 1_546
Mg0 O5 2.007722 1_555
Mg0 O4 2.007722 1_555
Mg0 O2 2.081419 1_655
Mg0 O2 2.081419 1_555
Mg0 Na0 2.753806 1_554
Nb0 O1 2.021972 1_555
Nb0 O0 2.063109 1_555
Nb0 O5 2.064504 1_555
Nb0 O5 2.064504 1_455
Nb0 O3 2.074864 1_555
Nb0 O2 2.135462 1_555
Nb1 O1 2.021972 1_555
Nb1 O3 2.063109 1_556
Nb1 O4 2.064504 1_546
Nb1 O4 2.064504 1_446
Nb1 O0 2.074864 1_545
Nb1 O2 2.135462 1_546
