# generated using pymatgen
data_MgV4(OF2)4
_symmetry_space_group_name_H-M   'P 1'
_cell_length_a   5.21574528
_cell_length_b   9.52755471
_cell_length_c   5.22179958
_cell_angle_alpha   103.92637524
_cell_angle_beta   118.28476665
_cell_angle_gamma   75.04737099
_symmetry_Int_Tables_number   1
_chemical_formula_structural   MgV4(OF2)4
_chemical_formula_sum   'Mg1 V4 O4 F8'
_cell_volume   218.62038508
_cell_formula_units_Z   1
loop_
 _symmetry_equiv_pos_site_id
 _symmetry_equiv_pos_as_xyz
  1  'x, y, z'
loop_
 _atom_site_type_symbol
 _atom_site_label
 _atom_site_symmetry_multiplicity
 _atom_site_fract_x
 _atom_site_fract_y
 _atom_site_fract_z
 _atom_site_occupancy
  Mg  Mg0  1  0.12586400  0.55242600  0.82938600  1
  V  V0  1  0.00454800  0.00193100  0.00372800  1
  V  V1  1  0.70780200  0.76486300  0.27724400  1
  V  V2  1  0.49751600  0.49920700  0.49532800  1
  V  V3  1  0.30139300  0.23531500  0.73202200  1
  O  O0  1  0.38544300  0.88114900  0.22357900  1
  O  O1  1  0.28049400  0.39061600  0.56063200  1
  O  O2  1  0.74430300  0.62810000  0.49936400  1
  O  O3  1  0.62704700  0.12317500  0.78695200  1
  F  F0  1  0.10671100  0.62423200  0.21992400  1
  F  F1  1  0.02860900  0.13212600  0.38120900  1
  F  F2  1  0.45624600  0.38811700  0.10673600  1
  F  F3  1  0.79370200  0.86782400  0.03438200  1
  F  F4  1  0.20896500  0.13498100  0.96674400  1
  F  F5  1  0.47737600  0.63239800  0.88430500  1
  F  F6  1  0.98444300  0.87027700  0.62467600  1
  F  F7  1  0.90078800  0.38755000  0.74878800  1
loop_
_geom_bond_atom_site_label_1
_geom_bond_atom_site_label_2
_geom_bond_distance
_geom_bond_site_symmetry_2
Mg0 O2 2.014344 1_455
Mg0 O1 2.094337 1_555
O0 V1 1.695457 1_555
O0 V0 1.970705 1_565
O1 V3 1.861157 1_555
O1 V2 1.899456 1_555
O2 V1 1.862681 1_555
O2 V2 1.985669 1_555
O3 V3 1.690594 1_555
O3 V0 1.958561 1_656
F0 Mg0 2.030529 1_554
F0 V2 2.106048 1_555
F0 V1 2.274275 1_455
F1 V3 1.931704 1_555
F1 V0 2.027008 1_555
F2 V2 1.988433 1_555
F2 V3 2.082851 1_554
F2 Mg0 2.202646 1_554
F3 V0 1.964160 1_665
F3 V1 2.033567 1_555
F4 V0 1.947150 1_556
F4 V3 2.002562 1_555
F5 Mg0 2.035080 1_555
F5 V1 2.108677 1_556
F5 V2 2.153996 1_555
F6 V1 1.942149 1_555
F6 V0 2.044071 1_666
F7 Mg0 2.046470 1_655
F7 V2 2.047516 1_555
F7 V3 2.241773 1_655
