# generated using pymatgen
data_Bi2S3
_symmetry_space_group_name_H-M   'P 1'
_cell_length_a   3.99779374
_cell_length_b   11.16061767
_cell_length_c   11.59359075
_cell_angle_alpha   90.00364666
_cell_angle_beta   89.99999786
_cell_angle_gamma   90.00002597
_symmetry_Int_Tables_number   1
_chemical_formula_structural   Bi2S3
_chemical_formula_sum   'Bi8 S12'
_cell_volume   517.28106211
_cell_formula_units_Z   4
loop_
 _symmetry_equiv_pos_site_id
 _symmetry_equiv_pos_as_xyz
  1  'x, y, z'
loop_
 _atom_site_type_symbol
 _atom_site_label
 _atom_site_symmetry_multiplicity
 _atom_site_fract_x
 _atom_site_fract_y
 _atom_site_fract_z
 _atom_site_occupancy
  Bi  Bi0  1  0.25000010  0.32637965  0.51754788  1
  Bi  Bi1  1  0.74999999  0.67365107  0.48251082  1
  Bi  Bi2  1  0.75000002  0.82634512  0.98244045  1
  Bi  Bi3  1  0.25000005  0.17369141  0.01751866  1
  Bi  Bi4  1  0.74999989  0.03267636  0.65646596  1
  Bi  Bi5  1  0.24999993  0.96731782  0.34355406  1
  Bi  Bi6  1  0.25000000  0.53259980  0.84351461  1
  Bi  Bi7  1  0.74999976  0.46734378  0.15645014  1
  S  S0  1  0.75000005  0.37128529  0.95178602  1
  S  S1  1  0.25000002  0.62870275  0.04819464  1
  S  S2  1  0.25000005  0.87129045  0.54820722  1
  S  S3  1  0.75000001  0.12872692  0.45181387  1
  S  S4  1  0.74999994  0.44358787  0.62159079  1
  S  S5  1  0.25000012  0.55637226  0.37844217  1
  S  S6  1  0.25000000  0.94359931  0.87841188  1
  S  S7  1  0.75000007  0.05641569  0.12154260  1
  S  S8  1  0.24999999  0.30869307  0.21063429  1
  S  S9  1  0.74999996  0.69129921  0.78934346  1
  S  S10  1  0.75000005  0.80871799  0.28936034  1
  S  S11  1  0.24999999  0.19130320  0.71067316  1
loop_
_geom_bond_atom_site_label_1
_geom_bond_atom_site_label_2
_geom_bond_distance
_geom_bond_site_symmetry_2
Bi0 S4 2.676106 1_555
Bi0 S4 2.676108 1_455
Bi0 S11 2.699312 1_555
Bi0 S5 3.031536 1_555
Bi0 S3 3.072828 1_455
Bi0 S3 3.072829 1_555
Bi1 S5 2.676626 1_555
Bi1 S5 2.676627 1_655
Bi1 S10 2.699495 1_555
Bi1 S4 3.032044 1_555
Bi1 S2 3.072613 1_655
Bi1 S2 3.072614 1_555
Bi2 S6 2.676357 1_655
Bi2 S6 2.676358 1_555
Bi2 S9 2.698691 1_555
Bi2 S7 3.032077 1_566
Bi2 S1 3.072872 1_556
Bi2 S1 3.072873 1_656
Bi3 S7 2.676451 1_455
Bi3 S7 2.676452 1_555
Bi3 S8 2.698594 1_555
Bi3 S6 3.032309 1_544
Bi3 S0 3.072422 1_554
Bi3 S0 3.072423 1_454
Bi4 S3 2.603642 1_555
Bi4 S11 2.743105 1_655
Bi4 S11 2.743106 1_555
Bi4 S2 2.968971 1_545
Bi4 S2 2.968973 1_645
Bi5 S2 2.603547 1_555
Bi5 S10 2.742874 1_455
Bi5 S10 2.742876 1_555
Bi5 S3 2.969134 1_565
Bi5 S3 2.969135 1_465
Bi6 S1 2.604054 1_556
Bi6 S9 2.743583 1_555
Bi6 S9 2.743585 1_455
Bi6 S0 2.968647 1_455
Bi6 S0 2.968649 1_555
Bi7 S0 2.603681 1_554
Bi7 S8 2.743266 1_555
Bi7 S8 2.743269 1_655
Bi7 S1 2.968871 1_555
Bi7 S1 2.968871 1_655
