# generated using pymatgen
data_U(FeP3)4
_symmetry_space_group_name_H-M   'P 1'
_cell_length_a   6.69751818
_cell_length_b   6.69773354
_cell_length_c   6.69820166
_cell_angle_alpha   109.57565561
_cell_angle_beta   109.42353810
_cell_angle_gamma   109.41347487
_symmetry_Int_Tables_number   1
_chemical_formula_structural   U(FeP3)4
_chemical_formula_sum   'U1 Fe4 P12'
_cell_volume   231.30371022
_cell_formula_units_Z   1
loop_
 _symmetry_equiv_pos_site_id
 _symmetry_equiv_pos_as_xyz
  1  'x, y, z'
loop_
 _atom_site_type_symbol
 _atom_site_label
 _atom_site_symmetry_multiplicity
 _atom_site_fract_x
 _atom_site_fract_y
 _atom_site_fract_z
 _atom_site_occupancy
  U  U0  1  0.00000002  0.00000002  -0.00000010  1
  Fe  Fe0  1  0.49999996  0.00000000  -0.00000001  1
  Fe  Fe1  1  -0.00000006  -0.00000006  0.50000003  1
  Fe  Fe2  1  -0.00000014  0.49999989  -0.00000007  1
  Fe  Fe3  1  0.49999995  0.49999990  0.49999995  1
  P  P0  1  0.49887430  0.64991580  0.84893384  1
  P  P1  1  0.80100539  0.64995801  0.15107812  1
  P  P2  1  0.19899444  0.35004180  0.84892162  1
  P  P3  1  0.35046671  0.15074721  0.50121794  1
  P  P4  1  0.15104370  0.50070210  0.34964939  1
  P  P5  1  0.50112563  0.35008411  0.15106607  1
  P  P6  1  0.35051025  0.84925541  0.19976076  1
  P  P7  1  0.15102759  0.80140407  0.65034579  1
  P  P8  1  0.64953329  0.84925272  0.49878194  1
  P  P9  1  0.84897221  0.19859581  0.34965405  1
  P  P10  1  0.64948965  0.15074449  0.80023915  1
  P  P11  1  0.84895610  0.49929771  0.65035052  1
loop_
_geom_bond_atom_site_label_1
_geom_bond_atom_site_label_2
_geom_bond_distance
_geom_bond_site_symmetry_2
Fe0 P5 2.217019 1_555
Fe0 P0 2.217019 1_544
Fe0 P9 2.218623 1_555
Fe0 P7 2.218624 1_544
Fe0 P6 2.221810 1_545
Fe0 P10 2.221810 1_554
Fe1 P2 2.216871 1_555
Fe1 P1 2.216873 1_445
Fe1 P7 2.218356 1_545
Fe1 P9 2.218357 1_455
Fe1 P8 2.221574 1_445
Fe1 P3 2.221575 1_555
Fe2 P1 2.216956 1_455
Fe2 P2 2.216957 1_554
Fe2 P11 2.218592 1_454
Fe2 P4 2.218592 1_555
Fe2 P10 2.221761 1_454
Fe2 P6 2.221762 1_555
Fe3 P5 2.216994 1_555
Fe3 P0 2.216994 1_555
Fe3 P11 2.218447 1_555
Fe3 P4 2.218447 1_555
Fe3 P3 2.221666 1_555
Fe3 P8 2.221667 1_555
P0 P2 2.320779 1_555
P0 P1 2.337951 1_556
P0 U0 2.950657 1_666
P1 P5 2.320779 1_555
P1 U0 2.950698 1_665
P2 P5 2.337952 1_556
P2 U0 2.950697 1_556
P3 P6 2.328810 1_545
P3 U0 2.951631 1_555
P4 P7 2.322715 1_555
P4 P9 2.337963 1_455
P4 U0 2.942921 1_555
P5 U0 2.950656 1_555
P6 P8 2.314015 1_555
P6 U0 2.951690 1_565
P7 U0 2.942810 1_566
P8 U0 2.951630 1_666
P9 U0 2.942812 1_655
P10 P3 2.314015 1_555
P10 P8 2.328810 1_545
P10 U0 2.951690 1_656
P11 P9 2.322715 1_555
P11 P7 2.337964 1_655
P11 U0 2.942921 1_666
