# generated using pymatgen
data_Na6La4Si3(SO8)3
_symmetry_space_group_name_H-M   'P 1'
_cell_length_a   9.78485619
_cell_length_b   9.75701164
_cell_length_c   24.76888052
_cell_angle_alpha   89.86100291
_cell_angle_beta   90.13316293
_cell_angle_gamma   120.13545827
_symmetry_Int_Tables_number   1
_chemical_formula_structural   Na6La4Si3(SO8)3
_chemical_formula_sum   'Na18 La12 Si9 S9 O72'
_cell_volume   2045.08907898
_cell_formula_units_Z   3
loop_
 _symmetry_equiv_pos_site_id
 _symmetry_equiv_pos_as_xyz
  1  'x, y, z'
loop_
 _atom_site_type_symbol
 _atom_site_label
 _atom_site_symmetry_multiplicity
 _atom_site_fract_x
 _atom_site_fract_y
 _atom_site_fract_z
 _atom_site_occupancy
  Na  Na0  1  0.63108113  0.01052520  0.25651662  1
  Na  Na1  1  0.34547093  0.34625670  0.25322350  1
  Na  Na2  1  0.65202592  0.65046286  0.74005094  1
  Na  Na3  1  0.98108077  0.36639886  0.74740858  1
  Na  Na4  1  0.01504710  0.68144297  0.58974454  1
  Na  Na5  1  0.68365184  0.96798605  0.58206738  1
  Na  Na6  1  0.31734953  0.96939268  0.09355005  1
  Na  Na7  1  0.01654252  0.31538069  0.08227947  1
  Na  Na8  1  0.97067630  0.65338416  0.90293938  1
  Na  Na9  1  0.72148319  0.04842344  0.91062461  1
  Na  Na10  1  0.94549623  0.28167889  0.42095529  1
  Na  Na11  1  0.35270755  0.03281842  0.41302012  1
  Na  Na12  1  0.96936284  0.99437281  0.50815999  1
  Na  Na13  1  0.98836420  0.02007964  0.99740780  1
  Na  Na14  1  0.67793780  0.32880366  0.81955589  1
  Na  Na15  1  0.66989616  0.31860386  0.33474967  1
  Na  Na16  1  0.32832923  0.67753973  0.17560293  1
  Na  Na17  1  0.33316839  0.66487626  0.66379934  1
  La  La0  1  0.99023922  0.99808730  0.34816042  1
  La  La1  1  0.00111317  0.00827603  0.84348598  1
  La  La2  1  0.99226735  0.99674076  0.65154913  1
  La  La3  1  0.99475466  0.00042175  0.15508958  1
  La  La4  1  0.67503893  0.33754848  0.68033347  1
  La  La5  1  0.67286866  0.32238748  0.18559798  1
  La  La6  1  0.67295189  0.32826663  0.98404275  1
  La  La7  1  0.67323286  0.34054980  0.48947677  1
  La  La8  1  0.33960187  0.66033329  0.01435420  1
  La  La9  1  0.35080346  0.65912844  0.51922890  1
  La  La10  1  0.32799866  0.68016051  0.31643468  1
  La  La11  1  0.32087926  0.67134389  0.81236465  1
  Si  Si0  1  0.30127247  0.00322495  0.24886015  1
  Si  Si1  1  0.00657614  0.30371145  0.24945665  1
  Si  Si2  1  0.99417037  0.69592485  0.75128229  1
  Si  Si3  1  0.69654326  -0.00017212  0.75147077  1
  Si  Si4  1  0.97162069  0.33550957  0.58226347  1
  Si  Si5  1  0.67133099  0.63811595  0.58624526  1
  Si  Si6  1  0.66524253  0.02882095  0.08231895  1
  Si  Si7  1  0.03183546  0.36381275  0.91901094  1
  Si  Si8  1  0.63545086  0.97379634  0.41642357  1
  S  S0  1  0.69339925  0.69515688  0.24998879  1
  S  S1  1  0.30431744  0.30438684  0.75028791  1
  S  S2  1  0.36349091  0.02914895  0.58134701  1
  S  S3  1  0.97082332  0.63631582  0.08162470  1
  S  S4  1  0.36579348  0.33039022  0.08432580  1
  S  S5  1  0.63769083  0.66889400  0.91545787  1
  S  S6  1  0.33152964  0.96420422  0.91917104  1
  S  S7  1  0.33131266  0.36234470  0.41375562  1
  S  S8  1  0.03594786  0.66724085  0.41847136  1
  O  O0  1  0.21225343  0.01971629  0.30286350  1
  O  O1  1  0.79037847  0.76982182  0.29820588  1
  O  O2  1  0.97724667  0.18908356  0.30224403  1
  O  O3  1  0.22876638  0.21023881  0.79983790  1
  O  O4  1  0.98323262  0.78326666  0.80795172  1
  O  O5  1  0.80349090  0.02367542  0.80733822  1
  O  O6  1  0.78432145  0.97700024  0.69849371  1
  O  O7  1  0.20602857  0.22652283  0.70263371  1
  O  O8  1  0.01601496  0.80326942  0.69783783  1
  O  O9  1  0.77032109  0.79292133  0.20131861  1
  O  O10  1  0.02566993  0.21957001  0.19388192  1
  O  O11  1  0.19991135  0.98413747  0.19292824  1
  O  O12  1  0.88558619  0.35838248  0.63631338  1
  O  O13  1  0.46411331  0.11056523  0.62855241  1
  O  O14  1  0.64866979  0.53702923  0.64170224  1
  O  O15  1  0.88890362  0.53782106  0.12920260  1
  O  O16  1  0.63949462  0.11571767  0.13548438  1
  O  O17  1  0.45793131  0.35047457  0.13383775  1
  O  O18  1  0.44927454  0.31861825  0.03625331  1
  O  O19  1  0.87703858  0.56219659  0.03201310  1
  O  O20  1  0.68710347  0.14039027  0.02840326  1
  O  O21  1  0.43669942  0.12111869  0.53104430  1
  O  O22  1  0.68620559  0.54254788  0.53390710  1
  O  O23  1  0.86255386  0.31074174  0.52726186  1
  O  O24  1  0.55815232  0.68851177  0.96392840  1
  O  O25  1  0.13221629  0.45229030  0.97493396  1
  O  O26  1  0.31404311  0.86944013  0.96890072  1
  O  O27  1  0.54352823  0.86883240  0.47003931  1
  O  O28  1  0.31019029  0.44123813  0.46121899  1
  O  O29  1  0.13054473  0.68519416  0.46722095  1
  O  O30  1  0.11309363  0.64477518  0.36995743  1
  O  O31  1  0.52944132  0.88488109  0.36126487  1
  O  O32  1  0.34837075  0.45473053  0.36396907  1
  O  O33  1  0.11894590  0.47748018  0.86665932  1
  O  O34  1  0.35706076  0.88811386  0.87187789  1
  O  O35  1  0.54491174  0.65073307  0.86681531  1
  O  O36  1  0.02711292  0.81422115  0.41206516  1
  O  O37  1  0.81902772  0.00517489  0.41376679  1
  O  O38  1  0.18536786  0.20105773  0.41098529  1
  O  O39  1  0.99714147  0.17922468  0.91727971  1
  O  O40  1  0.18488036  0.97261909  0.91399437  1
  O  O41  1  0.79866078  0.81528972  0.91365488  1
  O  O42  1  0.97758945  0.17000916  0.58569024  1
  O  O43  1  0.20261602  0.00625180  0.58617828  1
  O  O44  1  0.83814659  0.81239998  0.58493399  1
  O  O45  1  0.99843615  0.80007629  0.08588892  1
  O  O46  1  0.83362703  0.02712390  0.08577804  1
  O  O47  1  0.20719364  0.18074090  0.08621922  1
  O  O48  1  0.68904488  0.16463417  0.74844818  1
  O  O49  1  0.46543471  0.32747473  0.74672270  1
  O  O50  1  0.82715608  0.52156499  0.75034427  1
  O  O51  1  0.66818295  0.53290670  0.24425072  1
  O  O52  1  0.84184861  0.31233551  0.24589637  1
  O  O53  1  0.47594838  0.17239449  0.24660130  1
  O  O54  1  0.66003482  0.52949161  0.92243700  1
  O  O55  1  0.85350245  0.35357418  0.92178106  1
  O  O56  1  0.47468857  0.12460394  0.92389467  1
  O  O57  1  0.64597797  0.15140838  0.41694749  1
  O  O58  1  0.46997614  0.33950180  0.41922588  1
  O  O59  1  0.87622274  0.52278573  0.42086555  1
  O  O60  1  0.33721276  0.46684181  0.07973172  1
  O  O61  1  0.12938390  0.64600183  0.07813073  1
  O  O62  1  0.49613772  0.85793675  0.07688006  1
  O  O63  1  0.35028298  0.86944895  0.57777723  1
  O  O64  1  0.52376014  0.67583385  0.58259731  1
  O  O65  1  0.13957249  0.50665771  0.57726770  1
  O  O66  1  0.34039316  0.85576003  0.25059839  1
  O  O67  1  0.53546516  0.68375502  0.25450083  1
  O  O68  1  0.17587710  0.47240670  0.25404494  1
  O  O69  1  0.31696793  0.46369647  0.75511083  1
  O  O70  1  0.14166997  0.65737297  0.75288196  1
  O  O71  1  0.52867948  0.82917576  0.75679421  1
loop_
_geom_bond_atom_site_label_1
_geom_bond_atom_site_label_2
_geom_bond_distance
_geom_bond_site_symmetry_2
Na0 O66 2.465456 1_545
Na0 O52 2.625811 1_555
Na0 O53 2.694895 1_555
Na0 O31 2.827672 1_545
Na0 O67 2.836986 1_545
Na1 O68 2.514029 1_555
Na1 O53 2.590660 1_555
Na1 O51 2.750296 1_555
Na1 O67 2.855545 1_555
Na1 O32 2.937488 1_555
Na2 O50 2.596843 1_555
Na2 O71 2.605405 1_555
Na2 O14 2.671381 1_555
Na2 O49 2.741106 1_555
Na2 O69 2.865654 1_555
Na2 O6 2.955523 1_555
Na3 O70 2.463565 1_655
Na3 O48 2.528495 1_555
Na3 O50 2.618469 1_555
Na3 O12 2.892543 1_555
Na3 O69 2.933348 1_655
Na4 O65 2.565003 1_555
Na4 O44 2.619558 1_455
Na4 O43 2.752993 1_565
Na4 O63 2.858813 1_555
Na4 O8 2.930056 1_555
Na4 O12 2.975024 1_455
Na5 O64 2.468882 1_555
Na5 O42 2.544170 1_565
Na5 O44 2.626409 1_555
Na5 O63 2.902751 1_555
Na5 O27 3.029664 1_555
Na5 O6 3.032340 1_555
Na6 O62 2.515814 1_555
Na6 O45 2.706537 1_455
Na6 O11 2.753351 1_555
Na6 O61 2.767703 1_555
Na6 O47 2.770590 1_565
Na6 O16 2.920002 1_565
Na7 O46 2.462981 1_455
Na7 O60 2.716191 1_555
Na7 O47 2.770302 1_555
Na7 O61 2.838746 1_555
Na7 O10 2.931416 1_555
Na7 O25 2.934877 1_554
Na8 O55 2.591846 1_555
Na8 O4 2.643288 1_555
Na8 O54 2.692244 1_555
Na8 O40 2.759741 1_655
Na8 O41 2.841269 1_555
Na8 O33 2.893394 1_655
Na9 O39 2.339607 1_555
Na9 O55 2.598119 1_555
Na9 O5 2.730227 1_555
Na9 O41 2.733833 1_545
Na9 O56 2.880830 1_555
Na10 O37 2.343198 1_555
Na10 O57 2.544322 1_555
Na10 O59 2.755850 1_555
Na10 O23 2.813697 1_555
Na10 O38 2.836575 1_655
Na11 O57 2.499649 1_555
Na11 O58 2.616875 1_555
Na11 O36 2.806528 1_545
Na11 O38 2.841863 1_555
Na11 O0 3.026125 1_555
Na11 O31 3.040224 1_545
Na11 O21 3.041978 1_555
Na12 O44 2.474476 1_555
Na12 O42 2.551006 1_565
Na12 O37 2.789224 1_565
Na12 O43 2.944790 1_665
Na13 O39 2.491867 1_555
Na13 O46 2.684916 1_556
Na13 O41 2.831884 1_545
Na13 O47 2.916439 1_656
Na13 O40 3.016238 1_645
Na13 O45 3.099855 1_546
Na14 O50 2.417979 1_555
Na14 O48 2.422601 1_555
Na14 O49 2.744762 1_555
Na14 O55 2.997734 1_555
Na15 O57 2.542408 1_555
Na15 O53 2.771464 1_555
Na15 O52 2.792731 1_555
Na15 O59 2.925155 1_555
Na15 O58 2.944131 1_555
Na16 O66 2.509333 1_555
Na16 O68 2.646289 1_555
Na16 O67 2.790927 1_555
Na16 O62 2.978137 1_555
Na16 O61 3.015488 1_555
Na17 O64 2.711233 1_555
Na17 O65 2.761545 1_555
Na17 O63 2.863091 1_555
Na17 O70 2.875006 1_555
Na17 O71 2.907452 1_555
Na17 O69 2.942968 1_555
La0 O2 2.238161 1_565
La0 O0 2.360592 1_665
La0 O37 2.362516 1_565
La0 O1 2.438139 1_555
La0 O38 2.488641 1_665
La0 O36 2.547050 1_655
La1 O5 2.201467 1_455
La1 O4 2.290875 1_445
La1 O3 2.367967 1_555
La1 O39 2.490899 1_455
La1 O41 2.597158 1_445
La1 O40 2.648563 1_545
La2 O6 2.268394 1_555
La2 O8 2.315300 1_655
La2 O44 2.347553 1_555
La2 O42 2.401874 1_565
La2 O7 2.509039 1_665
La2 O43 2.586425 1_665
La3 O10 2.223941 1_655
La3 O11 2.290019 1_645
La3 O9 2.401844 1_545
La3 O46 2.428696 1_555
La3 O47 2.579922 1_655
La3 O45 2.616784 1_545
La4 O12 2.250183 1_555
La4 O14 2.294434 1_555
La4 O50 2.401233 1_555
La4 O48 2.434922 1_555
La4 O13 2.494252 1_555
La4 O49 2.594713 1_555
La5 O16 2.250026 1_555
La5 O52 2.263791 1_555
La5 O53 2.304111 1_555
La5 O15 2.525066 1_555
La5 O51 2.537921 1_555
La5 O17 2.589666 1_555
La6 O20 2.197985 1_556
La6 O55 2.265633 1_555
La6 O19 2.456565 1_556
La6 O56 2.462091 1_555
La6 O18 2.505414 1_556
La6 O54 2.536308 1_555
La7 O22 2.206876 1_555
La7 O23 2.218954 1_555
La7 O21 2.454677 1_555
La7 O57 2.494758 1_555
La7 O59 2.539608 1_555
La7 O58 2.635695 1_555
La8 O25 2.248556 1_554
La8 O62 2.345214 1_555
La8 O24 2.372568 1_554
La8 O26 2.447973 1_554
La8 O60 2.475472 1_555
La8 O61 2.543856 1_555
La9 O64 2.250798 1_555
La9 O27 2.313308 1_555
La9 O65 2.338309 1_555
La9 O28 2.430226 1_555
La9 O63 2.517761 1_555
La9 O29 2.627706 1_555
La10 O31 2.270532 1_555
La10 O66 2.321222 1_555
La10 O30 2.362259 1_555
La10 O68 2.384846 1_555
La10 O67 2.533423 1_555
La10 O32 2.586587 1_555
La11 O70 2.238995 1_555
La11 O71 2.293255 1_555
La11 O33 2.353258 1_555
La11 O34 2.456101 1_555
La11 O69 2.460303 1_555
La11 O35 2.663152 1_555
O0 Si0 1.649536 1_555
O1 S0 1.470484 1_555
O2 Si1 1.647761 1_655
O3 S1 1.487776 1_555
O4 Si2 1.675104 1_555
O5 Si3 1.677619 1_555
O6 Si3 1.645563 1_565
O7 S1 1.469952 1_555
O8 Si2 1.632420 1_455
O9 S0 1.485731 1_555
O10 Si1 1.662649 1_555
O11 Si0 1.657411 1_565
O12 Si4 1.657133 1_555
O13 S2 1.476937 1_555
O14 Si5 1.638294 1_555
O15 S3 1.476562 1_555
O16 Si6 1.654647 1_555
O17 S4 1.474376 1_555
O18 S4 1.482430 1_555
O19 S3 1.485877 1_555
O20 Si6 1.665717 1_555
O21 S2 1.491320 1_555
O22 Si5 1.647489 1_555
O23 Si4 1.670073 1_555
O24 S5 1.496239 1_555
O25 Si7 1.666348 1_555
O26 S6 1.495993 1_555
O27 Si8 1.641791 1_555
O28 S7 1.477359 1_555
O29 S8 1.475964 1_555
O30 S8 1.494465 1_555
O31 Si8 1.670552 1_555
O32 S7 1.485115 1_555
O33 Si7 1.639179 1_555
O34 S6 1.475659 1_555
O35 S5 1.463413 1_555
O36 S8 1.487473 1_555
O37 Si8 1.665207 1_545
O38 S7 1.504686 1_555
O39 Si7 1.657463 1_655
O40 S6 1.483115 1_555
O41 S5 1.504701 1_555
O42 Si4 1.646866 1_555
O43 S2 1.479788 1_555
O44 Si5 1.664327 1_555
O45 S3 1.484713 1_555
O46 Si6 1.658008 1_555
O47 S4 1.505753 1_555
O48 Si3 1.647592 1_555
O49 S1 1.479150 1_555
O50 Si2 1.665485 1_555
O51 S0 1.481869 1_555
O52 Si1 1.657817 1_655
O53 Si0 1.678144 1_555
O54 S5 1.491632 1_555
O55 Si7 1.698551 1_655
O56 S6 1.491336 1_545
O57 Si8 1.683688 1_545
O58 S7 1.487139 1_555
O59 S8 1.490263 1_655
O60 S4 1.495541 1_555
O61 S3 1.508943 1_455
O62 Si6 1.663108 1_565
O63 S2 1.500302 1_565
O64 Si5 1.661753 1_555
O65 Si4 1.658012 1_455
O66 Si0 1.664698 1_565
O67 S0 1.497041 1_555
O68 Si1 1.651841 1_555
O69 S1 1.501115 1_555
O70 Si2 1.664582 1_455
O71 Si3 1.655758 1_565
