# generated using pymatgen
data_MgFeAs2O7
_symmetry_space_group_name_H-M   'P 1'
_cell_length_a   5.66181595
_cell_length_b   5.66144888
_cell_length_c   5.39195835
_cell_angle_alpha   79.34793551
_cell_angle_beta   100.63693342
_cell_angle_gamma   82.34920121
_symmetry_Int_Tables_number   1
_chemical_formula_structural   MgFeAs2O7
_chemical_formula_sum   'Mg1 Fe1 As2 O7'
_cell_volume   164.41535997
_cell_formula_units_Z   1
loop_
 _symmetry_equiv_pos_site_id
 _symmetry_equiv_pos_as_xyz
  1  'x, y, z'
loop_
 _atom_site_type_symbol
 _atom_site_label
 _atom_site_symmetry_multiplicity
 _atom_site_fract_x
 _atom_site_fract_y
 _atom_site_fract_z
 _atom_site_occupancy
  Mg  Mg0  1  0.13177100  0.13180600  0.49998400  1
  Fe  Fe0  1  0.09690800  0.09693200  0.00000700  1
  As  As0  1  0.64396400  0.28333300  0.40336800  1
  As  As1  1  0.28333800  0.64394100  0.59665600  1
  O  O0  1  0.82525900  0.09122500  0.67605000  1
  O  O1  1  0.84065600  0.32085400  0.19995400  1
  O  O2  1  0.37723000  0.19515100  0.28282200  1
  O  O3  1  0.09127800  0.82525800  0.32394300  1
  O  O4  1  0.32083100  0.84064000  0.80001800  1
  O  O5  1  0.19509300  0.37722000  0.71718700  1
  O  O6  1  0.56612200  0.56608900  0.50001200  1
loop_
_geom_bond_atom_site_label_1
_geom_bond_atom_site_label_2
_geom_bond_distance
_geom_bond_site_symmetry_2
Mg0 O2 2.002320 1_555
Mg0 O5 2.002434 1_555
Mg0 O1 2.094069 1_455
Mg0 O4 2.094106 1_545
Mg0 O0 2.144629 1_455
Mg0 O3 2.144796 1_545
Fe0 O3 2.111376 1_545
Fe0 O0 2.111882 1_454
Fe0 O5 2.192216 1_554
Fe0 O2 2.192848 1_555
Fe0 O1 2.338241 1_455
Fe0 O4 2.338548 1_544
As0 O2 1.706092 1_555
As0 O1 1.707644 1_555
As0 O0 1.718338 1_555
As0 O6 1.798246 1_555
As1 O5 1.705912 1_555
As1 O4 1.707618 1_555
As1 O3 1.718398 1_555
As1 O6 1.798403 1_555
