# generated using pymatgen
data_MgV2(CuO4)2
_symmetry_space_group_name_H-M   'P 1'
_cell_length_a   5.97135726
_cell_length_b   5.97135874
_cell_length_c   5.97135892
_cell_angle_alpha   120.17949588
_cell_angle_beta   118.61051276
_cell_angle_gamma   91.05638666
_symmetry_Int_Tables_number   1
_chemical_formula_structural   MgV2(CuO4)2
_chemical_formula_sum   'Mg1 V2 Cu2 O8'
_cell_volume   151.87222491
_cell_formula_units_Z   1
loop_
 _symmetry_equiv_pos_site_id
 _symmetry_equiv_pos_as_xyz
  1  'x, y, z'
loop_
 _atom_site_type_symbol
 _atom_site_label
 _atom_site_symmetry_multiplicity
 _atom_site_fract_x
 _atom_site_fract_y
 _atom_site_fract_z
 _atom_site_occupancy
  Mg  Mg0  1  0.97837800  0.22837800  0.75000000  1
  V  V0  1  0.71639900  0.46640000  0.25000000  1
  V  V1  1  0.31840100  0.56840200  0.75000000  1
  Cu  Cu0  1  0.45264600  0.95946600  0.49317800  1
  Cu  Cu1  1  0.96628800  0.95946600  0.00682200  1
  O  O0  1  0.21272700  0.74065200  0.02792100  1
  O  O1  1  0.20323300  0.68337100  0.51986200  1
  O  O2  1  0.80446400  0.33880200  0.46566200  1
  O  O3  1  0.37314300  0.33880200  0.03433800  1
  O  O4  1  0.77820800  0.83025300  0.55204500  1
  O  O5  1  0.77820900  0.22616200  0.94795600  1
  O  O6  1  0.66350900  0.68337100  0.98013900  1
  O  O7  1  0.21272800  0.18480600  0.47207800  1
loop_
_geom_bond_atom_site_label_1
_geom_bond_atom_site_label_2
_geom_bond_distance
_geom_bond_site_symmetry_2
Mg0 O2 1.964249 1_555
Mg0 O3 1.964262 1_656
Mg0 O4 2.048031 1_545
Mg0 O5 2.048033 1_555
Cu0 O0 1.986852 1_555
Cu0 O7 1.986854 1_565
Cu0 O4 2.042487 1_555
Cu0 O5 2.042498 1_565
Cu0 O1 2.315696 1_555
Cu1 O0 1.986833 1_655
Cu1 O7 1.986846 1_665
Cu1 O5 2.042488 1_564
Cu1 O4 2.042498 1_554
Cu1 O6 2.315692 1_554
O0 V1 1.876411 1_554
O1 V1 1.701071 1_555
O1 V0 2.449882 1_455
O2 V0 1.693587 1_555
O3 V0 1.693566 1_555
O4 V0 1.871581 1_555
O5 V0 1.871588 1_556
O6 V1 1.701076 1_555
O6 V0 2.449873 1_556
O7 V1 1.876415 1_555
