# generated using pymatgen
data_MgFe6O11F
_symmetry_space_group_name_H-M   'P 1'
_cell_length_a   7.63995400
_cell_length_b   5.73399655
_cell_length_c   5.58070274
_cell_angle_alpha   71.18606784
_cell_angle_beta   69.30573418
_cell_angle_gamma   67.55568535
_symmetry_Int_Tables_number   1
_chemical_formula_structural   MgFe6O11F
_chemical_formula_sum   'Mg1 Fe6 O11 F1'
_cell_volume   206.34416844
_cell_formula_units_Z   1
loop_
 _symmetry_equiv_pos_site_id
 _symmetry_equiv_pos_as_xyz
  1  'x, y, z'
loop_
 _atom_site_type_symbol
 _atom_site_label
 _atom_site_symmetry_multiplicity
 _atom_site_fract_x
 _atom_site_fract_y
 _atom_site_fract_z
 _atom_site_occupancy
  Mg  Mg0  1  0.49774300  0.51469700  0.98898300  1
  Fe  Fe0  1  0.86491300  0.67109100  0.66837000  1
  Fe  Fe1  1  0.69783600  0.31308700  0.36902300  1
  Fe  Fe2  1  0.31289400  0.65339700  0.60395500  1
  Fe  Fe3  1  0.15891600  0.32313100  0.32190000  1
  Fe  Fe4  1  0.53094100  0.00615800  0.01903100  1
  Fe  Fe5  1  0.99752200  0.00424700  0.99775200  1
  O  O0  1  0.67541100  0.01287200  0.65231600  1
  O  O1  1  0.32725100  0.34148400  0.95887000  1
  O  O2  1  0.98028100  0.21126900  0.23731400  1
  O  O3  1  0.59341100  0.54812800  0.59373400  1
  O  O4  1  0.04129300  0.78321700  0.76143000  1
  O  O5  1  0.36172100  0.43633400  0.37952500  1
  O  O6  1  0.70284300  0.14643700  0.09614900  1
  O  O7  1  0.33886500  0.97256000  0.34871000  1
  O  O8  1  0.68466100  0.64373700  0.03572800  1
  O  O9  1  0.00589600  0.31119800  0.68698100  1
  O  O10  1  0.98911700  0.68570000  0.30176100  1
  F  F0  1  0.30329900  0.86172900  0.90703600  1
loop_
_geom_bond_atom_site_label_1
_geom_bond_atom_site_label_2
_geom_bond_distance
_geom_bond_site_symmetry_2
Mg0 O8 1.962000 1_556
Mg0 O1 1.990358 1_555
Mg0 O3 2.032533 1_555
Mg0 O5 2.038670 1_556
Mg0 O6 2.143172 1_556
Fe0 O10 1.916074 1_555
Fe0 O9 1.916532 1_655
Fe0 O0 1.938231 1_565
Fe0 O4 1.967342 1_655
Fe0 O8 2.021432 1_556
Fe0 O3 2.624870 1_555
Fe1 O3 1.894064 1_555
Fe1 O2 1.931668 1_555
Fe1 O0 1.941791 1_555
Fe1 O6 2.025605 1_555
Fe1 O8 2.185511 1_555
Fe1 O5 2.373111 1_555
Fe2 O5 1.891484 1_555
Fe2 O4 1.893629 1_555
Fe2 O7 1.952876 1_555
Fe2 O3 1.977036 1_555
Fe2 O1 2.202899 1_555
Fe3 O7 1.947936 1_545
Fe3 O9 1.951968 1_555
Fe3 O2 1.953421 1_455
Fe3 O1 1.973300 1_554
Fe3 O10 1.977534 1_455
Fe3 O5 2.044557 1_555
Fe4 O7 1.911706 1_545
Fe4 O0 1.947606 1_554
Fe4 O8 1.948182 1_545
Fe4 O1 1.974737 1_554
Fe4 O6 1.996600 1_555
Fe5 O4 1.974894 1_645
Fe5 O2 1.998398 1_556
Fe5 O6 2.012023 1_556
Fe5 O9 2.036782 1_655
Fe5 O10 2.057328 1_546
F0 Mg0 2.002911 1_555
F0 Fe5 2.086823 1_465
F0 Fe2 2.332799 1_555
F0 Fe4 2.510595 1_566
