# generated using pymatgen
data_Te3(PbO4)2
_symmetry_space_group_name_H-M   'P 1'
_cell_length_a   10.68551475
_cell_length_b   10.68551475
_cell_length_c   19.23715900
_cell_angle_alpha   90.00000000
_cell_angle_beta   90.00000000
_cell_angle_gamma   140.47416902
_symmetry_Int_Tables_number   1
_chemical_formula_structural   Te3(PbO4)2
_chemical_formula_sum   'Te18 Pb12 O48'
_cell_volume   1397.91178534
_cell_formula_units_Z   6
loop_
 _symmetry_equiv_pos_site_id
 _symmetry_equiv_pos_as_xyz
  1  'x, y, z'
loop_
 _atom_site_type_symbol
 _atom_site_label
 _atom_site_symmetry_multiplicity
 _atom_site_fract_x
 _atom_site_fract_y
 _atom_site_fract_z
 _atom_site_occupancy
  Te  Te0  1  0.17602800  0.94857400  0.25000000  1
  Te  Te1  1  0.94857400  0.17602800  0.25000000  1
  Te  Te2  1  0.82397200  0.05142600  0.75000000  1
  Te  Te3  1  0.05142600  0.82397200  0.75000000  1
  Te  Te4  1  0.53585000  0.76928800  0.58367600  1
  Te  Te5  1  0.76928800  0.53585000  0.91632400  1
  Te  Te6  1  0.46415000  0.23071200  0.08367600  1
  Te  Te7  1  0.23071200  0.46415000  0.41632400  1
  Te  Te8  1  0.46415000  0.23071200  0.41632400  1
  Te  Te9  1  0.23071200  0.46415000  0.08367600  1
  Te  Te10  1  0.53585000  0.76928800  0.91632400  1
  Te  Te11  1  0.76928800  0.53585000  0.58367600  1
  Te  Te12  1  0.79465900  0.79465900  0.07487400  1
  Te  Te13  1  0.79465900  0.79465900  0.42512600  1
  Te  Te14  1  0.20534100  0.20534100  0.57487400  1
  Te  Te15  1  0.20534100  0.20534100  0.92512600  1
  Te  Te16  1  0.60305400  0.60305400  0.25000000  1
  Te  Te17  1  0.39694600  0.39694600  0.75000000  1
  Pb  Pb0  1  0.31870600  0.69815700  0.25000000  1
  Pb  Pb1  1  0.69815700  0.31870600  0.25000000  1
  Pb  Pb2  1  0.68129400  0.30184300  0.75000000  1
  Pb  Pb3  1  0.30184300  0.68129400  0.75000000  1
  Pb  Pb4  1  0.93663600  0.31814000  0.58969200  1
  Pb  Pb5  1  0.31814000  0.93663600  0.91030800  1
  Pb  Pb6  1  0.06336400  0.68186000  0.08969200  1
  Pb  Pb7  1  0.68186000  0.06336400  0.41030800  1
  Pb  Pb8  1  0.06336400  0.68186000  0.41030800  1
  Pb  Pb9  1  0.68186000  0.06336400  0.08969200  1
  Pb  Pb10  1  0.93663600  0.31814000  0.91030800  1
  Pb  Pb11  1  0.31814000  0.93663600  0.58969200  1
  O  O0  1  0.01425700  0.67909700  0.25000000  1
  O  O1  1  0.67909700  0.01425700  0.25000000  1
  O  O2  1  0.98574300  0.32090300  0.75000000  1
  O  O3  1  0.32090300  0.98574300  0.75000000  1
  O  O4  1  0.50944500  0.36551100  0.25000000  1
  O  O5  1  0.36551100  0.50944500  0.25000000  1
  O  O6  1  0.49055500  0.63448900  0.75000000  1
  O  O7  1  0.63448900  0.49055500  0.75000000  1
  O  O8  1  0.00012300  0.14433600  0.88664400  1
  O  O9  1  0.14433600  0.00012300  0.61335600  1
  O  O10  1  0.99987700  0.85566400  0.38664400  1
  O  O11  1  0.85566400  0.99987700  0.11335600  1
  O  O12  1  0.99987700  0.85566400  0.11335600  1
  O  O13  1  0.85566400  0.99987700  0.38664400  1
  O  O14  1  0.00012300  0.14433600  0.61335600  1
  O  O15  1  0.14433600  0.00012300  0.88664400  1
  O  O16  1  0.29246600  0.64536600  0.61580000  1
  O  O17  1  0.64536600  0.29246600  0.88420000  1
  O  O18  1  0.70753400  0.35463400  0.11580000  1
  O  O19  1  0.35463400  0.70753400  0.38420000  1
  O  O20  1  0.70753400  0.35463400  0.38420000  1
  O  O21  1  0.35463400  0.70753400  0.11580000  1
  O  O22  1  0.29246600  0.64536600  0.88420000  1
  O  O23  1  0.64536600  0.29246600  0.61580000  1
  O  O24  1  0.64975200  0.97800300  0.67855200  1
  O  O25  1  0.97800300  0.64975200  0.82144800  1
  O  O26  1  0.35024800  0.02199700  0.17855200  1
  O  O27  1  0.02199700  0.35024800  0.32144800  1
  O  O28  1  0.35024800  0.02199700  0.32144800  1
  O  O29  1  0.02199700  0.35024800  0.17855200  1
  O  O30  1  0.41450700  0.41450700  0.86338500  1
  O  O31  1  0.41450700  0.41450700  0.63661500  1
  O  O32  1  0.58549300  0.58549300  0.36338500  1
  O  O33  1  0.58549300  0.58549300  0.13661500  1
  O  O34  1  0.58743400  0.41256600  0.50000000  1
  O  O35  1  0.41256600  0.58743400  0.00000000  1
  O  O36  1  0.41256600  0.58743400  0.50000000  1
  O  O37  1  0.58743400  0.41256600  0.00000000  1
  O  O38  1  0.98047600  0.62571900  0.53239500  1
  O  O39  1  0.62571900  0.98047600  0.96760500  1
  O  O40  1  0.01952400  0.37428100  0.03239500  1
  O  O41  1  0.37428100  0.01952400  0.46760500  1
  O  O42  1  0.01952400  0.37428100  0.46760500  1
  O  O43  1  0.37428100  0.01952400  0.03239500  1
  O  O44  1  0.98047600  0.62571900  0.96760500  1
  O  O45  1  0.62571900  0.98047600  0.53239500  1
  O  O46  1  0.97800300  0.64975200  0.67855200  1
  O  O47  1  0.64975200  0.97800300  0.82144800  1
loop_
_geom_bond_atom_site_label_1
_geom_bond_atom_site_label_2
_geom_bond_distance
_geom_bond_site_symmetry_2
O0 Te0 1.897604 1_555
O0 Pb1 2.484466 1_455
O1 Te1 1.897604 1_555
O1 Pb0 2.484466 1_545
O2 Te2 1.897604 1_555
O2 Pb3 2.484466 1_655
O3 Te3 1.897604 1_555
O3 Pb2 2.484466 1_565
O4 Te16 1.877921 1_555
O4 Pb1 2.423254 1_555
O5 Te16 1.877921 1_555
O5 Pb0 2.423254 1_555
O6 Te17 1.877921 1_555
O6 Pb3 2.423254 1_555
O7 Te17 1.877921 1_555
O7 Pb2 2.423254 1_555
O8 Te15 1.891137 1_555
O8 Pb10 2.461747 1_455
O9 Te14 1.891137 1_555
O9 Pb11 2.461747 1_545
O10 Te13 1.891137 1_555
O10 Pb8 2.461747 1_655
O11 Te12 1.891137 1_555
O11 Pb9 2.461747 1_565
O12 Te12 1.891137 1_555
O12 Pb6 2.461747 1_655
O13 Te13 1.891137 1_555
O13 Pb7 2.461747 1_565
O14 Te14 1.891137 1_555
O14 Pb4 2.461747 1_455
O15 Te15 1.891137 1_555
O15 Pb5 2.461747 1_545
O16 Te4 1.893750 1_555
O16 Pb4 2.534896 1_455
O16 Pb3 2.600554 1_555
O17 Te5 1.893750 1_555
O17 Pb5 2.534896 1_545
O17 Pb2 2.600554 1_555
O18 Te6 1.893750 1_555
O18 Pb6 2.534896 1_655
O18 Pb1 2.600554 1_555
O19 Te7 1.893750 1_555
O19 Pb7 2.534896 1_565
O19 Pb0 2.600554 1_555
O20 Te8 1.893750 1_555
O20 Pb8 2.534896 1_655
O20 Pb1 2.600554 1_555
O21 Te9 1.893750 1_555
O21 Pb9 2.534896 1_565
O21 Pb0 2.600554 1_555
O22 Te10 1.893750 1_555
O22 Pb10 2.534896 1_455
O22 Pb3 2.600554 1_555
O23 Te11 1.893750 1_555
O23 Pb11 2.534896 1_545
O23 Pb2 2.600554 1_555
O24 Te2 1.927993 1_565
O24 Te4 2.366209 1_555
O24 Pb3 2.752950 1_555
O25 Te3 1.927993 1_655
O25 Te5 2.366209 1_555
O25 Pb2 2.752950 1_555
O26 Te0 1.927993 1_545
O26 Te6 2.366209 1_555
O26 Pb1 2.752950 1_555
O27 Te1 1.927993 1_455
O27 Te7 2.366209 1_555
O27 Pb0 2.752950 1_555
O28 Te0 1.927993 1_545
O28 Te8 2.366209 1_555
O28 Pb1 2.752950 1_555
O29 Te1 1.927993 1_455
O29 Te9 2.366209 1_555
O29 Pb0 2.752950 1_555
O30 Te15 1.922294 1_555
O30 Te17 2.184894 1_555
O31 Te14 1.922294 1_555
O31 Te17 2.184894 1_555
O32 Te13 1.922294 1_555
O32 Te16 2.184894 1_555
O33 Te12 1.922294 1_555
O33 Te16 2.184894 1_555
O34 Te11 2.038010 1_555
O34 Te8 2.038010 1_555
O35 Te9 2.038010 1_555
O35 Te10 2.038010 1_554
O36 Te4 2.038010 1_555
O36 Te7 2.038010 1_555
O37 Te6 2.038010 1_555
O37 Te5 2.038010 1_554
O38 Te11 1.909128 1_555
O38 Pb8 2.416739 1_655
O38 Pb11 2.603588 1_655
O39 Te10 1.909128 1_555
O39 Pb9 2.416739 1_566
O39 Pb10 2.603588 1_565
O40 Te9 1.909128 1_555
O40 Pb10 2.416739 1_454
O40 Pb9 2.603588 1_455
O41 Te8 1.909128 1_555
O41 Pb11 2.416739 1_545
O41 Pb8 2.603588 1_545
O42 Te7 1.909128 1_555
O42 Pb4 2.416739 1_455
O42 Pb7 2.603588 1_455
O43 Te6 1.909128 1_555
O43 Pb5 2.416739 1_544
O43 Pb6 2.603588 1_545
O44 Te5 1.909128 1_555
O44 Pb6 2.416739 1_656
O44 Pb5 2.603588 1_655
O45 Te4 1.909128 1_555
O45 Pb7 2.416739 1_565
O45 Pb4 2.603588 1_565
O46 Te3 1.927993 1_655
O46 Te11 2.366209 1_555
O46 Pb2 2.752950 1_555
O47 Te2 1.927993 1_565
O47 Te10 2.366209 1_555
O47 Pb3 2.752950 1_555
