# generated using pymatgen
data_Na4NbGa3(PO4)6
_symmetry_space_group_name_H-M   'P 1'
_cell_length_a   8.69394449
_cell_length_b   8.68823921
_cell_length_c   22.12675759
_cell_angle_alpha   89.97853902
_cell_angle_beta   90.08875382
_cell_angle_gamma   119.97913716
_symmetry_Int_Tables_number   1
_chemical_formula_structural   Na4NbGa3(PO4)6
_chemical_formula_sum   'Na12 Nb3 Ga9 P18 O72'
_cell_volume   1447.73054561
_cell_formula_units_Z   3
loop_
 _symmetry_equiv_pos_site_id
 _symmetry_equiv_pos_as_xyz
  1  'x, y, z'
loop_
 _atom_site_type_symbol
 _atom_site_label
 _atom_site_symmetry_multiplicity
 _atom_site_fract_x
 _atom_site_fract_y
 _atom_site_fract_z
 _atom_site_occupancy
  Na  Na0  1  0.63385545  0.99972540  0.25055468  1
  Na  Na1  1  0.36515591  0.36567158  0.25053940  1
  Na  Na2  1  0.00017655  0.63459684  0.25013735  1
  Na  Na3  1  0.29940773  0.33176602  0.58555283  1
  Na  Na4  1  0.03425796  0.69947017  0.58535282  1
  Na  Na5  1  0.66640811  0.70053905  0.08226382  1
  Na  Na6  1  0.99049139  0.99895988  0.49749129  1
  Na  Na7  1  0.00924803  0.00832481  0.99712664  1
  Na  Na8  1  0.66686387  0.33323283  0.82716048  1
  Na  Na9  1  0.66647450  0.33294495  0.33326252  1
  Na  Na10  1  0.32402039  0.66585868  0.16278021  1
  Na  Na11  1  0.34459841  0.67662029  0.66526502  1
  Nb  Nb0  1  0.66598851  0.33145686  0.97728996  1
  Nb  Nb1  1  0.66756461  0.33256260  0.47767246  1
  Nb  Nb2  1  0.33264825  0.66654478  0.80921755  1
  Ga  Ga0  1  0.00069012  0.00073064  0.35352850  1
  Ga  Ga1  1  0.99954097  0.00016530  0.85092492  1
  Ga  Ga2  1  0.99317027  0.99927212  0.65146634  1
  Ga  Ga3  1  0.00630254  0.00546420  0.14714151  1
  Ga  Ga4  1  0.66607047  0.33147146  0.68799673  1
  Ga  Ga5  1  0.66739580  0.33233661  0.18142147  1
  Ga  Ga6  1  0.32683369  0.66600791  0.01758253  1
  Ga  Ga7  1  0.34009356  0.67266498  0.51588739  1
  Ga  Ga8  1  0.33348734  0.66717839  0.31840437  1
  P  P0  1  0.28838994  -0.00000369  0.25018513  1
  P  P1  1  0.71090310  0.71078012  0.24953956  1
  P  P2  1  0.00002126  0.28867656  0.25024161  1
  P  P3  1  0.29004356  0.28079367  0.74896661  1
  P  P4  1  0.99067139  0.71030696  0.74886340  1
  P  P5  1  0.71937064  0.00912037  0.74988165  1
  P  P6  1  0.95692681  0.33057348  0.58561553  1
  P  P7  1  0.37762741  0.03935265  0.58561754  1
  P  P8  1  0.66535197  0.62710236  0.58537736  1
  P  P9  1  0.96429443  0.62706328  0.08534068  1
  P  P10  1  0.66604565  0.03921130  0.08534483  1
  P  P11  1  0.37008320  0.33111500  0.08484871  1
  P  P12  1  0.62670355  0.67646870  0.91830235  1
  P  P13  1  0.05014589  0.37343691  0.91759402  1
  P  P14  1  0.32286280  0.94979136  0.91739476  1
  P  P15  1  0.62563040  0.95026207  0.41517793  1
  P  P16  1  0.32519909  0.37503417  0.41629880  1
  P  P17  1  0.04980009  0.67506475  0.41614678  1
  O  O0  1  0.20997754  0.04097588  0.30592295  1
  O  O1  1  0.83236980  0.79270072  0.30462710  1
  O  O2  1  0.95946806  0.16923312  0.30591700  1
  O  O3  1  0.20429353  0.17139109  0.80549628  1
  O  O4  1  0.96680196  0.79557904  0.80549840  1
  O  O5  1  0.82694886  0.03396215  0.80708821  1
  O  O6  1  0.78858228  0.96374282  0.69258346  1
  O  O7  1  0.17941191  0.21237492  0.69009553  1
  O  O8  1  0.03341391  0.82139815  0.69011375  1
  O  O9  1  0.78645111  0.82506718  0.19176622  1
  O  O10  1  0.04079785  0.21072785  0.19402119  1
  O  O11  1  0.16909859  0.95863566  0.19399267  1
  O  O12  1  0.87397209  0.37224823  0.63918711  1
  O  O13  1  0.49376593  0.12635736  0.64036159  1
  O  O14  1  0.62686823  0.50331678  0.63930976  1
  O  O15  1  0.88127997  0.51522824  0.14334371  1
  O  O16  1  0.63443719  0.11979130  0.14315253  1
  O  O17  1  0.48951234  0.37047079  0.14204633  1
  O  O18  1  0.46720082  0.30615750  0.02940590  1
  O  O19  1  0.83699516  0.53301420  0.03032972  1
  O  O20  1  0.69287617  0.16080762  0.02984732  1
  O  O21  1  0.46601941  0.16131035  0.52853441  1
  O  O22  1  0.69773029  0.53636287  0.52833181  1
  O  O23  1  0.84014433  0.30460012  0.52793782  1
  O  O24  1  0.54414011  0.69880785  0.97666794  1
  O  O25  1  0.16003385  0.45836106  0.97440301  1
  O  O26  1  0.29979777  0.84133382  0.97438351  1
  O  O27  1  0.54034356  0.84000630  0.47177816  1
  O  O28  1  0.30157520  0.45816651  0.47426663  1
  O  O29  1  0.15567652  0.69750814  0.47431219  1
  O  O30  1  0.12279270  0.63452569  0.35835353  1
  O  O31  1  0.51355848  0.88004682  0.35685379  1
  O  O32  1  0.36595289  0.48864769  0.35839458  1
  O  O33  1  0.13197018  0.49395466  0.86138846  1
  O  O34  1  0.36103774  0.86763957  0.86127653  1
  O  O35  1  0.50446523  0.63902208  0.86271927  1
  O  O36  1  0.02403682  0.83588425  0.41029569  1
  O  O37  1  0.81207930  0.97632381  0.40975203  1
  O  O38  1  0.16433284  0.18868553  0.41045478  1
  O  O39  1  0.02323409  0.18810685  0.90985973  1
  O  O40  1  0.16479965  0.97719345  0.90969098  1
  O  O41  1  0.81179682  0.83504917  0.91041324  1
  O  O42  1  0.97860066  0.16549620  0.58909772  1
  O  O43  1  0.19201509  0.02503854  0.58826108  1
  O  O44  1  0.83780360  0.80809186  0.58899497  1
  O  O45  1  0.96915766  0.80698619  0.08919750  1
  O  O46  1  0.83362830  0.02142724  0.08906953  1
  O  O47  1  0.18961171  0.16210369  0.08904905  1
  O  O48  1  0.69072589  0.16813124  0.74372559  1
  O  O49  1  0.47798625  0.31015236  0.74354892  1
  O  O50  1  0.83178265  0.52235335  0.74314922  1
  O  O51  1  0.68841086  0.52115945  0.24362403  1
  O  O52  1  0.83300042  0.31102567  0.24364321  1
  O  O53  1  0.47752866  0.16701728  0.24337329  1
  O  O54  1  0.64050675  0.50230011  0.92409658  1
  O  O55  1  0.86258961  0.36002317  0.92428531  1
  O  O56  1  0.49719625  0.13751888  0.92374546  1
  O  O57  1  0.64225482  0.13928603  0.42315894  1
  O  O58  1  0.49719874  0.35778027  0.42355657  1
  O  O59  1  0.86053079  0.50299791  0.42307928  1
  O  O60  1  0.36104331  0.50265375  0.07711402  1
  O  O61  1  0.14585647  0.64329747  0.07740472  1
  O  O62  1  0.50191725  0.85318998  0.07763032  1
  O  O63  1  0.35135273  0.85150380  0.57684415  1
  O  O64  1  0.49608391  0.63956442  0.57607328  1
  O  O65  1  0.14312661  0.49868496  0.57680692  1
  O  O66  1  0.31070573  0.83302567  0.25661419  1
  O  O67  1  0.52211275  0.68888231  0.25629188  1
  O  O68  1  0.16672192  0.47807818  0.25675600  1
  O  O69  1  0.30879493  0.47191726  0.75678154  1
  O  O70  1  0.16300139  0.69160734  0.75662407  1
  O  O71  1  0.52789861  0.83687082  0.75746878  1
loop_
_geom_bond_atom_site_label_1
_geom_bond_atom_site_label_2
_geom_bond_distance
_geom_bond_site_symmetry_2
Na0 O67 2.373115 1_555
Na0 O52 2.378417 1_565
Na0 O66 2.437869 1_555
Na0 O53 2.440962 1_565
Na0 O31 2.574131 1_555
Na0 O16 2.593971 1_565
Na0 O2 2.739970 1_565
Na0 O9 2.788107 1_555
Na1 O68 2.373506 1_555
Na1 O53 2.375782 1_555
Na1 O67 2.436003 1_555
Na1 O51 2.439985 1_555
Na1 O32 2.613694 1_555
Na1 O17 2.626102 1_555
Na1 O0 2.734799 1_555
Na1 O10 2.743138 1_555
Na2 O66 2.372513 1_555
Na2 O51 2.380757 1_455
Na2 O68 2.436017 1_555
Na2 O52 2.439788 1_455
Na2 O15 2.578904 1_455
Na2 O30 2.619665 1_555
Na2 O1 2.734667 1_455
Na2 O11 2.738103 1_555
Na3 O43 2.343205 1_555
Na3 O64 2.355875 1_555
Na3 O42 2.417853 1_455
Na3 O65 2.440255 1_555
Na3 O7 2.537597 1_555
Na3 O28 2.692073 1_555
Na3 O14 2.737072 1_555
Na3 O21 2.834439 1_555
Na4 O44 2.329289 1_455
Na4 O65 2.371853 1_555
Na4 O63 2.396340 1_555
Na4 O43 2.451343 1_565
Na4 O8 2.550516 1_555
Na4 O29 2.679056 1_555
Na4 O12 2.736184 1_455
Na4 O22 2.829575 1_455
Na5 O45 2.317948 1_555
Na5 O60 2.335530 1_555
Na5 O62 2.389460 1_555
Na5 O46 2.420323 1_565
Na5 O24 2.562369 1_554
Na5 O9 2.645008 1_555
Na5 O19 2.793254 1_555
Na5 O17 2.816857 1_555
Na6 O37 2.428925 1_555
Na6 O38 2.495423 1_665
Na6 O36 2.496326 1_655
Na6 O42 2.522914 1_565
Na6 O44 2.533244 1_555
Na6 O43 2.597599 1_665
Na7 O39 2.447807 1_555
Na7 O40 2.453368 1_545
Na7 O47 2.505850 1_556
Na7 O41 2.510748 1_445
Na7 O46 2.581944 1_456
Na7 O45 2.592677 1_446
Na8 O48 2.410285 1_555
Na8 O49 2.412708 1_555
Na8 O50 2.421296 1_555
Na8 O56 2.671122 1_555
Na8 O54 2.674126 1_555
Na8 O55 2.676077 1_555
Na9 O51 2.516229 1_555
Na9 O52 2.519770 1_555
Na9 O53 2.521512 1_555
Na9 O57 2.544924 1_555
Na9 O59 2.545498 1_555
Na9 O58 2.555549 1_555
Na10 O61 2.386227 1_555
Na10 O62 2.466156 1_555
Na10 O60 2.483390 1_555
Na10 O66 2.569947 1_555
Na10 O68 2.575322 1_555
Na10 O67 2.632908 1_555
Na11 O63 2.459439 1_555
Na11 O64 2.482987 1_555
Na11 O71 2.532792 1_555
Na11 O65 2.564075 1_555
Na11 O69 2.608920 1_555
Na11 O70 2.609877 1_555
Nb0 O56 1.980229 1_555
Nb0 O55 1.985107 1_555
Nb0 O20 1.987333 1_556
Nb0 O54 1.991014 1_555
Nb0 O18 1.997817 1_556
Nb0 O19 2.012104 1_556
Nb1 O23 1.976396 1_555
Nb1 O21 1.987466 1_555
Nb1 O57 1.988619 1_555
Nb1 O59 1.997164 1_555
Nb1 O58 1.998555 1_555
Nb1 O22 1.999252 1_555
Nb2 O71 1.968965 1_555
Nb2 O70 1.972928 1_555
Nb2 O69 1.974542 1_555
Nb2 O34 2.002504 1_555
Nb2 O33 2.003857 1_555
Nb2 O35 2.010281 1_555
Ga0 O2 1.975741 1_455
Ga0 O0 1.977971 1_555
Ga0 O1 1.983001 1_445
Ga0 O37 1.984966 1_445
Ga0 O38 1.987844 1_555
Ga0 O36 1.989616 1_545
Ga1 O5 1.927219 1_555
Ga1 O4 1.935369 1_545
Ga1 O3 1.936545 1_655
Ga1 O39 2.018382 1_655
Ga1 O40 2.018777 1_645
Ga1 O41 2.029766 1_545
Ga2 O6 1.882230 1_555
Ga2 O8 1.944331 1_655
Ga2 O7 1.944536 1_665
Ga2 O42 2.046208 1_565
Ga2 O44 2.061059 1_555
Ga2 O43 2.148267 1_665
Ga3 O10 1.952508 1_555
Ga3 O11 1.952949 1_545
Ga3 O47 1.970203 1_555
Ga3 O9 2.023775 1_445
Ga3 O46 2.031242 1_455
Ga3 O45 2.040977 1_445
Ga4 O13 1.964537 1_555
Ga4 O48 1.970358 1_555
Ga4 O49 1.980516 1_555
Ga4 O50 1.980786 1_555
Ga4 O12 1.981092 1_555
Ga4 O14 2.003009 1_555
Ga5 O16 1.918549 1_555
Ga5 O15 1.934813 1_555
Ga5 O17 1.941186 1_555
Ga5 O52 2.064641 1_555
Ga5 O53 2.074368 1_555
Ga5 O51 2.078564 1_555
Ga6 O26 1.909266 1_554
Ga6 O25 1.911268 1_554
Ga6 O24 1.984216 1_554
Ga6 O61 1.990639 1_555
Ga6 O62 2.061207 1_555
Ga6 O60 2.063275 1_555
Ga7 O27 1.889961 1_555
Ga7 O29 1.950534 1_555
Ga7 O28 1.951912 1_555
Ga7 O64 2.019720 1_555
Ga7 O63 2.022922 1_555
Ga7 O65 2.110220 1_555
Ga8 O31 1.923189 1_555
Ga8 O30 1.924242 1_555
Ga8 O32 1.924663 1_555
Ga8 O66 2.065831 1_555
Ga8 O68 2.068110 1_555
Ga8 O67 2.076393 1_555
O0 P0 1.535584 1_555
O1 P1 1.533957 1_555
O2 P2 1.534142 1_655
O3 P3 1.522378 1_555
O4 P4 1.522325 1_555
O5 P5 1.522620 1_555
O6 P5 1.537757 1_565
O7 P3 1.549391 1_555
O8 P4 1.549720 1_455
O9 P1 1.549639 1_555
O10 P2 1.540693 1_555
O11 P0 1.540960 1_565
O12 P6 1.523242 1_555
O13 P7 1.514036 1_555
O14 P8 1.527531 1_555
O15 P9 1.553469 1_555
O16 P10 1.547827 1_555
O17 P11 1.561470 1_555
O18 P11 1.565650 1_555
O19 P9 1.570657 1_555
O20 P10 1.559515 1_555
O21 P7 1.580151 1_555
O22 P8 1.586701 1_555
O23 P6 1.574080 1_555
O24 P12 1.537211 1_555
O25 P13 1.526330 1_555
O26 P14 1.526193 1_555
O27 P15 1.525783 1_555
O28 P16 1.535835 1_555
O29 P17 1.535857 1_555
O30 P17 1.545399 1_555
O31 P15 1.545844 1_555
O32 P16 1.546739 1_555
O33 P13 1.551279 1_555
O34 P14 1.549236 1_555
O35 P12 1.548726 1_555
O36 P17 1.527004 1_555
O37 P15 1.525459 1_555
O38 P16 1.526659 1_555
O39 P13 1.516684 1_555
O40 P14 1.516687 1_555
O41 P12 1.517639 1_555
O42 P6 1.538966 1_555
O43 P7 1.556487 1_555
O44 P8 1.539666 1_555
O45 P9 1.544909 1_555
O46 P10 1.542069 1_555
O47 P11 1.524635 1_555
O48 P5 1.527340 1_555
O49 P3 1.527525 1_555
O50 P4 1.528428 1_555
O51 P1 1.564499 1_555
O52 P2 1.564809 1_655
O53 P0 1.564715 1_555
O54 P12 1.581756 1_555
O55 P13 1.582780 1_655
O56 P14 1.583092 1_545
O57 P15 1.584961 1_545
O58 P16 1.583543 1_555
O59 P17 1.583762 1_655
O60 P11 1.540615 1_555
O61 P9 1.523384 1_455
O62 P10 1.540149 1_565
O63 P7 1.543067 1_565
O64 P8 1.542081 1_555
O65 P6 1.558750 1_455
O66 P0 1.563133 1_565
O67 P1 1.562421 1_555
O68 P2 1.563725 1_555
O69 P3 1.594811 1_555
O70 P4 1.594681 1_455
O71 P5 1.596844 1_565
