# generated using pymatgen
data_Cd(NO3)2
_symmetry_space_group_name_H-M   'P 1'
_cell_length_a   7.53033533
_cell_length_b   7.50999518
_cell_length_c   15.44212652
_cell_angle_alpha   90.00000000
_cell_angle_beta   90.00000000
_cell_angle_gamma   90.00000000
_symmetry_Int_Tables_number   1
_chemical_formula_structural   Cd(NO3)2
_chemical_formula_sum   'Cd8 N16 O48'
_cell_volume   873.29521520
_cell_formula_units_Z   8
loop_
 _symmetry_equiv_pos_site_id
 _symmetry_equiv_pos_as_xyz
  1  'x, y, z'
loop_
 _atom_site_type_symbol
 _atom_site_label
 _atom_site_symmetry_multiplicity
 _atom_site_fract_x
 _atom_site_fract_y
 _atom_site_fract_z
 _atom_site_occupancy
  Cd  Cd0  1  0.28331421  0.97950781  0.62098375  1
  Cd  Cd1  1  0.78331421  0.02049219  0.37901625  1
  Cd  Cd2  1  0.78331421  0.52049219  0.62098375  1
  Cd  Cd3  1  0.28331421  0.47950781  0.37901625  1
  Cd  Cd4  1  0.26531630  0.46931926  0.87504307  1
  Cd  Cd5  1  0.76531630  0.53068074  0.12495693  1
  Cd  Cd6  1  0.76531630  0.03068074  0.87504307  1
  Cd  Cd7  1  0.26531630  0.96931926  0.12495693  1
  N  N0  1  0.62947163  0.34026694  0.29257653  1
  N  N1  1  0.92296102  0.67797745  0.95093548  1
  N  N2  1  0.42296102  0.32202255  0.04906452  1
  N  N3  1  0.42296102  0.82202255  0.95093548  1
  N  N4  1  0.92296102  0.17797745  0.04906452  1
  N  N5  1  0.59074142  0.36529048  0.78470681  1
  N  N6  1  0.09074142  0.63470952  0.21529319  1
  N  N7  1  0.09074142  0.13470952  0.78470681  1
  N  N8  1  0.59074142  0.86529048  0.21529319  1
  N  N9  1  0.12947163  0.65973306  0.70742347  1
  N  N10  1  0.12947163  0.15973306  0.29257653  1
  N  N11  1  0.62947163  0.84026694  0.70742347  1
  N  N12  1  0.93636050  0.67135275  0.44727721  1
  N  N13  1  0.43636050  0.32864725  0.55272279  1
  N  N14  1  0.43636050  0.82864725  0.44727721  1
  N  N15  1  0.93636050  0.17135275  0.55272279  1
  O  O0  1  0.23215258  0.65947197  0.25637626  1
  O  O1  1  0.05837665  0.68179724  0.63415211  1
  O  O2  1  0.05837665  0.18179724  0.36584789  1
  O  O3  1  0.55837665  0.81820276  0.63415211  1
  O  O4  1  0.58256989  0.46833663  0.24552766  1
  O  O5  1  0.08256989  0.53166337  0.75447234  1
  O  O6  1  0.08256989  0.03166337  0.24552766  1
  O  O7  1  0.58256989  0.96833663  0.75447234  1
  O  O8  1  0.74659966  0.73279105  0.73244317  1
  O  O9  1  0.24659966  0.26720895  0.26755683  1
  O  O10  1  0.24659966  0.76720895  0.73244317  1
  O  O11  1  0.74659966  0.23279105  0.26755683  1
  O  O12  1  0.80669825  0.20135737  0.50325885  1
  O  O13  1  0.30669825  0.79864263  0.49674115  1
  O  O14  1  0.30669825  0.29864263  0.50325885  1
  O  O15  1  0.80669825  0.70135737  0.49674115  1
  O  O16  1  0.97713764  0.28276168  0.61005305  1
  O  O17  1  0.47713764  0.71723832  0.38994695  1
  O  O18  1  0.47713764  0.21723832  0.61005305  1
  O  O19  1  0.97713764  0.78276168  0.38994695  1
  O  O20  1  0.02402783  0.02981954  0.54454877  1
  O  O21  1  0.52402783  0.97018046  0.45545123  1
  O  O22  1  0.52402783  0.47018046  0.54454877  1
  O  O23  1  0.02402783  0.52981954  0.45545123  1
  O  O24  1  0.95569416  0.78844537  0.89177342  1
  O  O25  1  0.01506232  0.03974826  0.04101218  1
  O  O26  1  0.51506232  0.96025174  0.95898782  1
  O  O27  1  0.51506232  0.46025174  0.04101218  1
  O  O28  1  0.73215258  0.84052803  0.25637626  1
  O  O29  1  0.23215258  0.15947197  0.74362374  1
  O  O30  1  0.55837665  0.31820276  0.36584789  1
  O  O31  1  0.73215258  0.34052803  0.74362374  1
  O  O32  1  0.56545598  0.78388894  0.14432482  1
  O  O33  1  0.06545598  0.21611106  0.85567518  1
  O  O34  1  0.06545598  0.71611106  0.14432482  1
  O  O35  1  0.56545598  0.28388894  0.85567518  1
  O  O36  1  0.47329467  0.96948893  0.24265294  1
  O  O37  1  0.97329467  0.03051107  0.75734706  1
  O  O38  1  0.79616431  0.70670149  0.00239012  1
  O  O39  1  0.47329467  0.46948893  0.75734706  1
  O  O40  1  0.01506232  0.53974826  0.95898782  1
  O  O41  1  0.95569416  0.28844537  0.10822658  1
  O  O42  1  0.45569416  0.71155463  0.89177342  1
  O  O43  1  0.45569416  0.21155463  0.10822658  1
  O  O44  1  0.79616431  0.20670149  0.99760988  1
  O  O45  1  0.29616431  0.79329851  0.00239012  1
  O  O46  1  0.29616431  0.29329851  0.99760988  1
  O  O47  1  0.97329467  0.53051107  0.24265294  1
loop_
_geom_bond_atom_site_label_1
_geom_bond_atom_site_label_2
_geom_bond_distance
_geom_bond_site_symmetry_2
Cd0 O18 2.312204 1_565
Cd0 O20 2.312623 1_565
Cd0 O13 2.357305 1_555
Cd0 O29 2.358310 1_565
Cd0 O10 2.362384 1_555
Cd0 O3 2.408148 1_555
Cd1 O19 2.312204 1_545
Cd1 O21 2.312623 1_545
Cd1 O12 2.357305 1_555
Cd1 O28 2.358310 1_545
Cd1 O11 2.362384 1_555
Cd1 O2 2.408148 1_655
Cd2 O16 2.312204 1_555
Cd2 O22 2.312623 1_555
Cd2 O15 2.357305 1_555
Cd2 O31 2.358310 1_555
Cd2 O8 2.362384 1_555
Cd2 O1 2.408148 1_655
Cd3 O17 2.312204 1_555
Cd3 O23 2.312623 1_555
Cd3 O14 2.357305 1_555
Cd3 O0 2.358310 1_555
Cd3 O9 2.362384 1_555
Cd3 O30 2.408148 1_555
Cd4 O46 2.320281 1_555
Cd4 O42 2.330541 1_555
Cd4 O40 2.347646 1_555
Cd4 O5 2.362104 1_555
Cd4 O39 2.399175 1_555
Cd4 O33 2.443476 1_555
Cd4 O35 2.671520 1_555
Cd5 O38 2.320281 1_555
Cd5 O41 2.330541 1_555
Cd5 O27 2.347646 1_555
Cd5 O4 2.362104 1_555
Cd5 O47 2.399175 1_555
Cd5 O32 2.443476 1_555
Cd5 O34 2.671520 1_655
Cd6 O44 2.320281 1_555
Cd6 O24 2.330541 1_545
Cd6 O26 2.347646 1_545
Cd6 O7 2.362104 1_545
Cd6 O37 2.399175 1_555
Cd6 O35 2.443476 1_555
Cd6 O33 2.671520 1_655
Cd7 O45 2.320281 1_555
Cd7 O43 2.330541 1_565
Cd7 O25 2.347646 1_565
Cd7 O6 2.362104 1_565
Cd7 O36 2.399175 1_555
Cd7 O34 2.443476 1_555
Cd7 O32 2.671520 1_555
N0 O4 1.256048 1_555
N0 O11 1.256463 1_555
N0 O30 1.262653 1_555
N1 O40 1.254644 1_655
N1 O24 1.258435 1_555
N1 O38 1.260777 1_556
N2 O27 1.254644 1_555
N2 O43 1.258435 1_555
N2 O46 1.260777 1_554
N3 O26 1.254644 1_555
N3 O42 1.258435 1_555
N3 O45 1.260777 1_556
N4 O25 1.254644 1_655
N4 O41 1.258435 1_555
N4 O44 1.260777 1_554
N5 O31 1.253401 1_555
N5 O39 1.254209 1_555
N5 O35 1.269242 1_555
N6 O0 1.253401 1_555
N6 O47 1.254209 1_455
N6 O34 1.269242 1_555
N7 O29 1.253401 1_555
N7 O37 1.254209 1_455
N7 O33 1.269242 1_555
N8 O28 1.253401 1_555
N8 O36 1.254209 1_555
N8 O32 1.269242 1_555
N9 O5 1.256048 1_555
N9 O10 1.256463 1_555
N9 O1 1.262653 1_555
N10 O6 1.256048 1_555
N10 O9 1.256463 1_555
N10 O2 1.262653 1_555
N11 O7 1.256048 1_555
N11 O8 1.256463 1_555
N11 O3 1.262653 1_555
N12 O19 1.256217 1_555
N12 O23 1.257591 1_655
N12 O15 1.259987 1_555
N13 O18 1.256217 1_555
N13 O22 1.257591 1_555
N13 O14 1.259987 1_555
N14 O17 1.256217 1_555
N14 O21 1.257591 1_555
N14 O13 1.259987 1_555
N15 O16 1.256217 1_555
N15 O20 1.257591 1_655
N15 O12 1.259987 1_555
