# generated using pymatgen
data_AgBi3S5
_symmetry_space_group_name_H-M   'P 1'
_cell_length_a   4.03405074
_cell_length_b   7.03084058
_cell_length_c   16.58909517
_cell_angle_alpha   94.99667868
_cell_angle_beta   90.00000003
_cell_angle_gamma   106.67140534
_symmetry_Int_Tables_number   1
_chemical_formula_structural   AgBi3S5
_chemical_formula_sum   'Ag2 Bi6 S10'
_cell_volume   448.86817991
_cell_formula_units_Z   2
loop_
 _symmetry_equiv_pos_site_id
 _symmetry_equiv_pos_as_xyz
  1  'x, y, z'
loop_
 _atom_site_type_symbol
 _atom_site_label
 _atom_site_symmetry_multiplicity
 _atom_site_fract_x
 _atom_site_fract_y
 _atom_site_fract_z
 _atom_site_occupancy
  Ag  Ag0  1  0.50000000  0.00000000  0.50000000  1
  Ag  Ag1  1  0.00000000  0.00000000  -0.00000000  1
  Bi  Bi0  1  0.77949998  0.55899795  0.60658452  1
  Bi  Bi1  1  0.22050002  0.44100205  0.39341548  1
  Bi  Bi2  1  0.52654494  0.05308987  0.78184499  1
  Bi  Bi3  1  0.47345506  0.94691013  0.21815501  1
  Bi  Bi4  1  0.26424892  0.52849584  0.89129052  1
  Bi  Bi5  1  0.73575108  0.47150416  0.10870948  1
  S  S0  1  0.15111804  0.30223509  0.53444550  1
  S  S1  1  0.84888196  0.69776491  0.46555450  1
  S  S2  1  0.42486878  0.84973957  0.63614191  1
  S  S3  1  0.57513022  0.15026043  0.36385809  1
  S  S4  1  0.15658177  0.31316355  0.74372574  1
  S  S5  1  0.84341823  0.68683645  0.25627426  1
  S  S6  1  0.91065604  0.82131307  0.85782688  1
  S  S7  1  0.08934396  0.17868693  0.14217312  1
  S  S8  1  0.35525221  0.71050542  0.05751652  1
  S  S9  1  0.64474779  0.28949458  0.94248348  1
loop_
_geom_bond_atom_site_label_1
_geom_bond_atom_site_label_2
_geom_bond_distance
_geom_bond_site_symmetry_2
Ag0 S3 2.557453 1_555
Ag0 S2 2.557453 1_545
Ag0 S0 2.885695 1_555
Ag0 S1 2.885695 1_545
Ag0 S1 2.885698 1_445
Ag0 S0 2.885698 1_655
Ag1 S6 2.548513 1_444
Ag1 S7 2.548513 1_555
Ag1 S8 3.019757 1_545
Ag1 S9 3.019757 1_454
Ag1 S8 3.019760 1_445
Ag1 S9 3.019760 1_554
Bi0 S1 2.597058 1_555
Bi0 S2 2.822917 1_655
Bi0 S2 2.822929 1_555
Bi0 S0 2.848672 1_655
Bi0 S0 2.848675 1_555
Bi1 S0 2.597058 1_555
Bi1 S3 2.822920 1_455
Bi1 S3 2.822926 1_555
Bi1 S1 2.848672 1_455
Bi1 S1 2.848675 1_555
Bi2 S2 2.667618 1_545
Bi2 S4 2.781738 1_555
Bi2 S4 2.781738 1_655
Bi2 S6 2.907227 1_545
Bi2 S6 2.907230 1_445
Bi2 S9 2.977436 1_555
Bi3 S3 2.667618 1_565
Bi3 S5 2.781738 1_555
Bi3 S5 2.781738 1_455
Bi3 S7 2.907227 1_565
Bi3 S7 2.907230 1_665
Bi3 S8 2.977436 1_555
Bi4 S4 2.729541 1_555
Bi4 S9 2.762150 1_555
Bi4 S9 2.762153 1_455
Bi4 S6 2.909510 1_555
Bi4 S6 2.909518 1_455
Bi4 S8 2.914126 1_556
Bi5 S5 2.729541 1_555
Bi5 S8 2.762150 1_555
Bi5 S8 2.762153 1_655
Bi5 S7 2.909510 1_555
Bi5 S7 2.909518 1_655
Bi5 S9 2.914126 1_554
