# generated using pymatgen
data_YCoO3
_symmetry_space_group_name_H-M   'P 1'
_cell_length_a   5.14578584
_cell_length_b   5.43009999
_cell_length_c   7.36616201
_cell_angle_alpha   89.99832555
_cell_angle_beta   90.00001076
_cell_angle_gamma   89.99682046
_symmetry_Int_Tables_number   1
_chemical_formula_structural   YCoO3
_chemical_formula_sum   'Y4 Co4 O12'
_cell_volume   205.82626822
_cell_formula_units_Z   4
loop_
 _symmetry_equiv_pos_site_id
 _symmetry_equiv_pos_as_xyz
  1  'x, y, z'
loop_
 _atom_site_type_symbol
 _atom_site_label
 _atom_site_symmetry_multiplicity
 _atom_site_fract_x
 _atom_site_fract_y
 _atom_site_fract_z
 _atom_site_occupancy
  Y  Y0  1  0.01837938  0.93060529  0.74999679  1
  Y  Y1  1  0.48175827  0.43057677  0.75000065  1
  Y  Y2  1  0.51824896  0.56941482  0.24999980  1
  Y  Y3  1  0.98161741  0.06939994  0.25000181  1
  Co  Co0  1  0.49999991  0.00000751  -0.00001260  1
  Co  Co1  1  0.50000530  0.00000556  0.50000765  1
  Co  Co2  1  -0.00000021  0.49999424  -0.00000048  1
  Co  Co3  1  0.00000105  0.49999760  0.50000006  1
  O  O0  1  0.80599507  0.79952933  0.04940651  1
  O  O1  1  0.30607293  0.70042341  0.54934781  1
  O  O2  1  0.69392642  0.29958160  0.45064977  1
  O  O3  1  0.19400414  0.20046543  0.95059684  1
  O  O4  1  0.30600677  0.70041268  0.95063201  1
  O  O5  1  0.80601268  0.79958442  0.45061296  1
  O  O6  1  0.19398968  0.20041678  0.54938422  1
  O  O7  1  0.69398672  0.29958813  0.04937161  1
  O  O8  1  0.59761908  0.02785050  0.74998630  1
  O  O9  1  0.09755414  0.47209501  0.24998833  1
  O  O10  1  0.40237262  0.97214796  0.25002046  1
  O  O11  1  0.90245169  0.52790300  0.75000746  1
loop_
_geom_bond_atom_site_label_1
_geom_bond_atom_site_label_2
_geom_bond_distance
_geom_bond_site_symmetry_2
Co0 O8 1.914807 1_554
Co0 O10 1.915051 1_545
Co0 O7 1.943014 1_555
Co0 O4 1.943055 1_544
Co0 O3 1.948416 1_554
Co0 O0 1.948515 1_545
Co1 O8 1.914650 1_555
Co1 O10 1.914741 1_545
Co1 O2 1.942765 1_555
Co1 O1 1.942798 1_545
Co1 O6 1.948350 1_555
Co1 O5 1.948371 1_545
Co2 O9 1.914652 1_555
Co2 O11 1.914670 1_454
Co2 O3 1.942757 1_554
Co2 O0 1.942793 1_455
Co2 O7 1.948404 1_455
Co2 O4 1.948409 1_554
Co3 O11 1.914788 1_455
Co3 O9 1.914823 1_555
Co3 O6 1.942909 1_555
Co3 O5 1.942939 1_455
Co3 O2 1.948671 1_455
Co3 O1 1.948686 1_555
O0 Y3 2.268875 1_565
O0 Y2 2.436634 1_555
O0 Y0 2.562268 1_654
O1 Y1 2.269076 1_555
O1 Y0 2.436866 1_555
O1 Y2 2.561321 1_555
O2 Y2 2.268999 1_555
O2 Y3 2.436852 1_555
O2 Y1 2.561301 1_555
O3 Y0 2.268866 1_545
O3 Y1 2.436663 1_555
O3 Y3 2.562228 1_456
O4 Y1 2.269127 1_555
O4 Y0 2.436583 1_555
O4 Y2 2.561539 1_556
O5 Y3 2.268667 1_565
O5 Y2 2.436975 1_555
O5 Y0 2.562018 1_655
O6 Y0 2.268671 1_545
O6 Y1 2.436978 1_555
O6 Y3 2.562015 1_455
O7 Y2 2.269051 1_555
O7 Y3 2.436558 1_555
O7 Y1 2.561515 1_554
O8 Y0 2.228576 1_645
O8 Y1 2.266625 1_555
O9 Y2 2.228402 1_555
O9 Y3 2.266628 1_455
O10 Y3 2.228560 1_465
O10 Y2 2.266682 1_555
O11 Y1 2.228403 1_555
O11 Y0 2.266654 1_655
