# generated using pymatgen
data_MgCr4O8
_symmetry_space_group_name_H-M   'P 1'
_cell_length_a   5.95424338
_cell_length_b   5.92645832
_cell_length_c   5.95217104
_cell_angle_alpha   59.84960211
_cell_angle_beta   59.99771689
_cell_angle_gamma   59.84844835
_symmetry_Int_Tables_number   1
_chemical_formula_structural   MgCr4O8
_chemical_formula_sum   'Mg1 Cr4 O8'
_cell_volume   148.17670422
_cell_formula_units_Z   1
loop_
 _symmetry_equiv_pos_site_id
 _symmetry_equiv_pos_as_xyz
  1  'x, y, z'
loop_
 _atom_site_type_symbol
 _atom_site_label
 _atom_site_symmetry_multiplicity
 _atom_site_fract_x
 _atom_site_fract_y
 _atom_site_fract_z
 _atom_site_occupancy
  Mg  Mg0  1  0.00000300  0.49999200  0.99999400  1
  Cr  Cr0  1  0.50001300  0.99999800  0.49998900  1
  Cr  Cr1  1  0.49998700  0.50002200  0.00000300  1
  Cr  Cr2  1  0.99999800  0.49998500  0.50001400  1
  Cr  Cr3  1  0.49999200  0.50000700  0.50000200  1
  O  O0  1  0.25540800  0.27486000  0.25540100  1
  O  O1  1  0.71431400  0.27489800  0.25539000  1
  O  O2  1  0.26936700  0.69202000  0.26931100  1
  O  O3  1  0.25538600  0.27485500  0.71436400  1
  O  O4  1  0.73063400  0.30798200  0.73068800  1
  O  O5  1  0.74461500  0.72514300  0.28562700  1
  O  O6  1  0.28567500  0.72510600  0.74462000  1
  O  O7  1  0.74460900  0.72513200  0.74459700  1
loop_
_geom_bond_atom_site_label_1
_geom_bond_atom_site_label_2
_geom_bond_distance
_geom_bond_site_symmetry_2
Mg0 O3 2.153614 1_555
Mg0 O5 2.153683 1_456
Mg0 O7 2.153990 1_455
Mg0 O0 2.154088 1_556
Mg0 O1 2.154186 1_456
Mg0 O6 2.154189 1_555
Cr0 O5 2.061227 1_555
Cr0 O3 2.061287 1_565
Cr0 O0 2.061318 1_565
Cr0 O7 2.061363 1_555
Cr0 O1 2.061517 1_565
Cr0 O6 2.061628 1_555
Cr1 O2 1.952219 1_555
Cr1 O4 1.952410 1_554
Cr1 O6 1.977714 1_554
Cr1 O1 1.977785 1_555
Cr1 O7 1.978060 1_554
Cr1 O0 1.978083 1_555
Cr2 O4 1.952948 1_555
Cr2 O2 1.953092 1_655
Cr2 O7 1.977686 1_555
Cr2 O0 1.977731 1_655
Cr2 O3 1.977971 1_655
Cr2 O5 1.978095 1_555
Cr3 O2 1.952512 1_555
Cr3 O4 1.952558 1_555
Cr3 O6 1.977612 1_555
Cr3 O1 1.977626 1_555
Cr3 O3 1.978209 1_555
Cr3 O5 1.978212 1_555
