# generated using pymatgen
data_Na3YTa3Si3(PO8)3
_symmetry_space_group_name_H-M   'P 1'
_cell_length_a   8.96067696
_cell_length_b   8.97183159
_cell_length_c   22.96774290
_cell_angle_alpha   90.00254252
_cell_angle_beta   89.94330671
_cell_angle_gamma   119.83814018
_symmetry_Int_Tables_number   1
_chemical_formula_structural   Na3YTa3Si3(PO8)3
_chemical_formula_sum   'Na9 Y3 Ta9 Si9 P9 O72'
_cell_volume   1601.68328011
_cell_formula_units_Z   3
loop_
 _symmetry_equiv_pos_site_id
 _symmetry_equiv_pos_as_xyz
  1  'x, y, z'
loop_
 _atom_site_type_symbol
 _atom_site_label
 _atom_site_symmetry_multiplicity
 _atom_site_fract_x
 _atom_site_fract_y
 _atom_site_fract_z
 _atom_site_occupancy
  Na  Na0  1  0.64149125  0.00333308  0.24905750  1
  Na  Na1  1  0.36877320  0.36030388  0.24725061  1
  Na  Na2  1  0.70816636  0.67550754  0.41498181  1
  Na  Na3  1  0.00866928  0.00869969  0.49555773  1
  Na  Na4  1  0.00143199  0.00133926  0.99981457  1
  Na  Na5  1  0.66738879  0.33301883  0.83135273  1
  Na  Na6  1  0.67784856  0.34110926  0.33277114  1
  Na  Na7  1  0.32681764  0.66271427  0.16363142  1
  Na  Na8  1  0.33726398  0.66532569  0.66522600  1
  Y  Y0  1  0.00574360  0.00213659  0.35747825  1
  Y  Y1  1  0.66477196  0.33541171  0.68762520  1
  Y  Y2  1  0.67154179  0.34508539  0.17841390  1
  Ta  Ta0  1  0.00103758  0.00125827  0.85740949  1
  Ta  Ta1  1  0.99795155  0.99770213  0.64437250  1
  Ta  Ta2  1  0.99764722  0.99696564  0.14491432  1
  Ta  Ta3  1  0.66059045  0.33152015  0.97769475  1
  Ta  Ta4  1  0.66817191  0.33441634  0.47968353  1
  Ta  Ta5  1  0.33458509  0.66425594  0.01644974  1
  Ta  Ta6  1  0.33458006  0.66694994  0.52039160  1
  Ta  Ta7  1  0.33276396  0.66765381  0.31574673  1
  Ta  Ta8  1  0.33321578  0.66608509  0.81346998  1
  Si  Si0  1  0.70355061  0.70428521  0.25209396  1
  Si  Si1  1  0.66483528  0.62678247  0.58346640  1
  Si  Si2  1  0.36651745  0.33337477  0.08288506  1
  Si  Si3  1  0.62119640  0.66577054  0.91543872  1
  Si  Si4  1  0.04384416  0.38050822  0.91574351  1
  Si  Si5  1  0.33529916  0.95389259  0.91596337  1
  Si  Si6  1  0.61563481  0.95968096  0.41860224  1
  Si  Si7  1  0.33641471  0.37979636  0.41924377  1
  Si  Si8  1  0.04328059  0.65884148  0.41953131  1
  P  P0  1  0.28849144  0.99197577  0.24808884  1
  P  P1  1  0.00474729  0.29374773  0.24901252  1
  P  P2  1  0.27855468  0.28635329  0.75165157  1
  P  P3  1  0.00843996  0.72172200  0.75175942  1
  P  P4  1  0.71337998  0.99225240  0.75183900  1
  P  P5  1  0.96022500  0.33320984  0.58331203  1
  P  P6  1  0.37346747  0.04043161  0.58318436  1
  P  P7  1  0.96542265  0.63111268  0.08020837  1
  P  P8  1  0.66545073  0.03613634  0.08206818  1
  O  O0  1  0.21865021  0.03355285  0.30140609  1
  O  O1  1  0.80366550  0.78563211  0.31095782  1
  O  O2  1  0.97701452  0.18745846  0.30289786  1
  O  O3  1  0.18076095  0.17516753  0.80558999  1
  O  O4  1  0.99330151  0.81852199  0.80547099  1
  O  O5  1  0.82500095  0.00626889  0.80554063  1
  O  O6  1  0.80599259  0.97416792  0.69621272  1
  O  O7  1  0.16954418  0.19669702  0.69633575  1
  O  O8  1  0.02758259  0.83261921  0.69623483  1
  O  O9  1  0.80857685  0.83641546  0.19477427  1
  O  O10  1  0.03179043  0.19998656  0.19424542  1
  O  O11  1  0.17211942  0.97374756  0.19357378  1
  O  O12  1  0.88910006  0.36582648  0.63800321  1
  O  O13  1  0.47858764  0.10780618  0.63782087  1
  O  O14  1  0.62852996  0.51646126  0.64073045  1
  O  O15  1  0.90566041  0.53155366  0.13602709  1
  O  O16  1  0.63333592  0.09847690  0.13948461  1
  O  O17  1  0.46419868  0.37084709  0.14380237  1
  O  O18  1  0.47587388  0.30852462  0.02858222  1
  O  O19  1  0.84281382  0.53653001  0.02831675  1
  O  O20  1  0.69445915  0.16082412  0.03046743  1
  O  O21  1  0.46452131  0.15985074  0.52969211  1
  O  O22  1  0.69641759  0.53302872  0.52569469  1
  O  O23  1  0.83973673  0.30179555  0.52969343  1
  O  O24  1  0.53082610  0.69736445  0.97179817  1
  O  O25  1  0.16807356  0.47189444  0.97156592  1
  O  O26  1  0.30408185  0.83409963  0.97227436  1
  O  O27  1  0.51272688  0.83536765  0.47282940  1
  O  O28  1  0.32435928  0.48710022  0.47379615  1
  O  O29  1  0.16096201  0.67768730  0.47478990  1
  O  O30  1  0.13755247  0.63537089  0.35997392  1
  O  O31  1  0.49896119  0.86706073  0.35769429  1
  O  O32  1  0.36820217  0.50157883  0.35884122  1
  O  O33  1  0.13843631  0.50293207  0.85876027  1
  O  O34  1  0.36412879  0.86061080  0.85883127  1
  O  O35  1  0.49772479  0.63544342  0.85881234  1
  O  O36  1  0.00907091  0.81664525  0.41901840  1
  O  O37  1  0.79611030  0.96626275  0.41755202  1
  O  O38  1  0.17293641  0.19557401  0.41973376  1
  O  O39  1  0.02329574  0.18960588  0.90671826  1
  O  O40  1  0.16738909  0.97852253  0.90649604  1
  O  O41  1  0.81198184  0.83440397  0.90672332  1
  O  O42  1  0.97971954  0.16855592  0.59115922  1
  O  O43  1  0.19158670  0.02657517  0.59138576  1
  O  O44  1  0.84181313  0.82058719  0.59269793  1
  O  O45  1  0.97734875  0.81133218  0.08837905  1
  O  O46  1  0.83161987  0.01905475  0.08837192  1
  O  O47  1  0.17538866  0.15705833  0.08938140  1
  O  O48  1  0.69493444  0.15070474  0.75017353  1
  O  O49  1  0.45553530  0.30306619  0.75138639  1
  O  O50  1  0.85062557  0.54445783  0.75025169  1
  O  O51  1  0.66262950  0.50834011  0.24757780  1
  O  O52  1  0.84462975  0.31029994  0.24165954  1
  O  O53  1  0.47318173  0.14127924  0.24032212  1
  O  O54  1  0.64217815  0.49612279  0.92630279  1
  O  O55  1  0.85416859  0.35853186  0.92723079  1
  O  O56  1  0.50607068  0.14451268  0.92617515  1
  O  O57  1  0.62740697  0.14558587  0.42612761  1
  O  O58  1  0.51909213  0.37748785  0.42557709  1
  O  O59  1  0.85371625  0.48161460  0.42594179  1
  O  O60  1  0.34225271  0.50034874  0.07051498  1
  O  O61  1  0.14918133  0.66167940  0.06931964  1
  O  O62  1  0.50909080  0.85574008  0.07042344  1
  O  O63  1  0.33976289  0.85607374  0.57250348  1
  O  O64  1  0.50380002  0.66154960  0.57373828  1
  O  O65  1  0.14247779  0.48746528  0.57288935  1
  O  O66  1  0.29805258  0.82330419  0.25338361  1
  O  O67  1  0.51206008  0.69856722  0.25392883  1
  O  O68  1  0.17428985  0.47098332  0.25350066  1
  O  O69  1  0.29211567  0.46695165  0.75739177  1
  O  O70  1  0.17650970  0.70972245  0.75684970  1
  O  O71  1  0.53413499  0.82446160  0.75697117  1
loop_
_geom_bond_atom_site_label_1
_geom_bond_atom_site_label_2
_geom_bond_distance
_geom_bond_site_symmetry_2
Na0 O67 2.382886 1_545
Na0 O53 2.388427 1_555
Na0 O52 2.436784 1_555
Na0 O16 2.670227 1_555
Na0 O66 2.672538 1_545
Na0 O31 2.791379 1_545
Na0 O9 2.875066 1_545
Na0 O2 2.891732 1_555
Na1 O51 2.284178 1_555
Na1 O68 2.401079 1_555
Na1 O17 2.510152 1_555
Na1 O53 2.567327 1_555
Na1 O67 2.646727 1_555
Na1 O0 2.832576 1_555
Na1 O32 2.860349 1_555
Na1 O10 2.890336 1_555
Na2 O37 2.320298 1_555
Na2 O36 2.342022 1_655
Na2 O58 2.360121 1_555
Na2 O1 2.563503 1_555
Na2 O59 2.654970 1_555
Na2 O22 2.824345 1_555
Na2 O32 2.941917 1_555
Na3 O38 2.355816 1_555
Na3 O36 2.462772 1_545
Na3 O37 2.503535 1_445
Na3 O43 2.702217 1_555
Na3 O42 2.704509 1_455
Na3 O44 2.746692 1_445
Na4 O47 2.540175 1_556
Na4 O46 2.590780 1_456
Na4 O45 2.592999 1_446
Na4 O39 2.670875 1_555
Na4 O40 2.672774 1_545
Na4 O41 2.678298 1_445
Na5 O49 2.558990 1_555
Na5 O48 2.571645 1_555
Na5 O50 2.580500 1_555
Na5 O56 2.693369 1_555
Na5 O54 2.697395 1_555
Na5 O55 2.707186 1_555
Na6 O51 2.510531 1_555
Na6 O59 2.584839 1_555
Na6 O57 2.662420 1_555
Na6 O52 2.663415 1_555
Na6 O58 2.670142 1_555
Na6 O53 2.796738 1_555
Na7 O67 2.575915 1_555
Na7 O68 2.596670 1_555
Na7 O66 2.599986 1_555
Na7 O60 2.629583 1_555
Na7 O61 2.686625 1_555
Na7 O62 2.725512 1_555
Na8 O64 2.586011 1_555
Na8 O71 2.662975 1_555
Na8 O69 2.663537 1_555
Na8 O70 2.688298 1_555
Na8 O65 2.706646 1_555
Na8 O63 2.725190 1_555
O0 P0 1.503708 1_545
O0 Y0 2.199484 1_555
O1 Si0 1.586206 1_555
O1 Y0 2.167285 1_665
O2 P1 1.505497 1_655
O2 Y0 2.197499 1_655
O3 P2 1.557504 1_555
O3 Ta0 1.985060 1_555
O4 P3 1.552838 1_655
O4 Ta0 2.000657 1_665
O5 P4 1.553952 1_545
O5 Ta0 1.995932 1_655
O6 P4 1.574538 1_555
O6 Ta1 2.013822 1_555
O7 P2 1.560701 1_555
O7 Ta1 2.061017 1_445
O8 P3 1.573380 1_555
O8 Ta1 2.018692 1_455
O9 Si0 1.706362 1_555
O9 Ta2 1.955619 1_555
O10 P1 1.597110 1_555
O10 Ta2 2.034959 1_445
O11 P0 1.585783 1_555
O11 Ta2 2.015975 1_455
O12 P5 1.501220 1_555
O12 Y1 2.205376 1_555
O13 P6 1.504343 1_555
O13 Y1 2.207987 1_555
O14 Si1 1.579295 1_555
O14 Y1 2.104712 1_555
O15 P7 1.500326 1_555
O15 Y2 2.156671 1_555
O16 P8 1.514604 1_555
O16 Y2 2.249137 1_555
O17 Si2 1.595709 1_555
O17 Y2 2.137182 1_555
O18 Si2 1.667461 1_555
O18 Ta3 1.950541 1_554
O19 P7 1.556397 1_555
O19 Ta3 2.101434 1_554
O20 P8 1.560045 1_555
O20 Ta3 2.090447 1_554
O21 P6 1.565666 1_555
O21 Ta4 2.062569 1_555
O22 Si1 1.668613 1_555
O22 Ta4 1.976771 1_555
O23 P5 1.568910 1_555
O23 Ta4 2.054173 1_555
O24 Si3 1.624190 1_555
O24 Ta5 1.925828 1_556
O25 Si4 1.627799 1_555
O25 Ta5 1.925592 1_556
O26 Si5 1.614410 1_555
O26 Ta5 1.959919 1_556
O27 Si6 1.618605 1_555
O27 Ta6 1.902938 1_555
O28 Si7 1.616004 1_555
O28 Ta6 1.900087 1_555
O29 Si8 1.605165 1_555
O29 Ta6 1.918057 1_555
O30 Si8 1.674447 1_555
O30 Ta7 1.915172 1_555
O31 Si6 1.696700 1_555
O31 Ta7 1.923058 1_555
O32 Si7 1.699771 1_555
O32 Ta7 1.942211 1_555
O33 Si4 1.645980 1_555
O33 Ta8 1.930079 1_555
O34 Si5 1.644197 1_555
O34 Ta8 1.930652 1_555
O35 Si3 1.641003 1_555
O35 Ta8 1.933766 1_555
O36 Si8 1.590738 1_555
O36 Y0 2.194975 1_565
O37 Si6 1.588787 1_555
O37 Y0 2.220181 1_665
O38 Si7 1.571126 1_555
O38 Y0 2.172013 1_555
O39 Si4 1.642129 1_555
O39 Ta0 1.960296 1_555
O40 Si5 1.640548 1_555
O40 Ta0 1.959726 1_565
O41 Si3 1.636225 1_555
O41 Ta0 1.966331 1_665
O42 P5 1.581813 1_555
O42 Ta1 2.029752 1_545
O43 P6 1.582681 1_555
O43 Ta1 2.026652 1_445
O44 Si1 1.685205 1_555
O44 Ta1 1.918837 1_555
O45 P7 1.577678 1_555
O45 Ta2 2.047384 1_555
O46 P8 1.577668 1_555
O46 Ta2 2.058230 1_545
O47 Si2 1.661729 1_555
O47 Ta2 1.986509 1_445
O48 P4 1.511154 1_545
O48 Y1 2.308616 1_555
O49 P2 1.516853 1_555
O49 Y1 2.279751 1_555
O50 P3 1.514058 1_655
O50 Y1 2.292679 1_555
O51 Si0 1.610691 1_555
O51 Y2 2.188858 1_555
O52 P1 1.523687 1_655
O52 Y2 2.258142 1_555
O53 P0 1.535726 1_545
O53 Y2 2.299045 1_555
O54 Si3 1.642905 1_555
O54 Ta3 1.960704 1_555
O55 Si4 1.631823 1_655
O55 Ta3 1.997162 1_555
O56 Si5 1.648608 1_545
O56 Ta3 1.955419 1_555
O57 Si6 1.627221 1_545
O57 Ta4 1.975229 1_555
O58 Si7 1.653869 1_555
O58 Ta4 1.998791 1_555
O59 Si8 1.657443 1_655
O59 Ta4 1.960366 1_555
O60 Si2 1.642094 1_555
O60 Ta5 1.951939 1_555
O61 P7 1.548835 1_455
O61 Ta5 2.047662 1_555
O62 P8 1.548626 1_565
O62 Ta5 2.064874 1_555
O63 P6 1.546032 1_565
O63 Ta6 2.057986 1_555
O64 Si1 1.636450 1_555
O64 Ta6 1.969676 1_555
O65 P5 1.545915 1_455
O65 Ta6 2.061006 1_555
O66 P0 1.562446 1_555
O66 Ta7 2.128792 1_555
O67 Si0 1.691428 1_555
O67 Ta7 2.055754 1_555
O68 P1 1.563179 1_555
O68 Ta7 2.164316 1_555
O69 P2 1.568948 1_555
O69 Ta8 2.081452 1_555
O70 P3 1.566857 1_555
O70 Ta8 2.089712 1_555
O71 P4 1.566341 1_555
O71 Ta8 2.096220 1_555
