# generated using pymatgen
data_MgMn5NiO12
_symmetry_space_group_name_H-M   'P 1'
_cell_length_a   5.03093812
_cell_length_b   5.10093964
_cell_length_c   10.04284017
_cell_angle_alpha   85.55252065
_cell_angle_beta   86.90757371
_cell_angle_gamma   119.49270998
_symmetry_Int_Tables_number   1
_chemical_formula_structural   MgMn5NiO12
_chemical_formula_sum   'Mg1 Mn5 Ni1 O12'
_cell_volume   222.38885418
_cell_formula_units_Z   1
loop_
 _symmetry_equiv_pos_site_id
 _symmetry_equiv_pos_as_xyz
  1  'x, y, z'
loop_
 _atom_site_type_symbol
 _atom_site_label
 _atom_site_symmetry_multiplicity
 _atom_site_fract_x
 _atom_site_fract_y
 _atom_site_fract_z
 _atom_site_occupancy
  Mg  Mg0  1  0.62581300  0.58346500  0.24383400  1
  Mn  Mn0  1  0.17163600  0.86084800  0.49862400  1
  Mn  Mn1  1  0.33001100  0.62716500  0.99470000  1
  Mn  Mn2  1  0.50609300  0.52878100  0.51683000  1
  Mn  Mn3  1  0.66098200  0.29573600  0.99515000  1
  Mn  Mn4  1  0.84358200  0.19926300  0.50054800  1
  Ni  Ni0  1  0.99695700  0.96250500  0.99536900  1
  O  O0  1  0.96254900  0.60773900  0.09747100  1
  O  O1  1  0.34915500  0.98766700  0.90397300  1
  O  O2  1  0.21599700  0.56090400  0.40121000  1
  O  O3  1  0.47964800  0.84100000  0.59887100  1
  O  O4  1  0.34024500  0.30540200  0.10735500  1
  O  O5  1  0.14616700  0.15939900  0.59844900  1
  O  O6  1  0.66052000  0.62780200  0.89592300  1
  O  O7  1  0.84899000  0.84474400  0.39261400  1
  O  O8  1  0.53206900  0.24100000  0.40087100  1
  O  O9  1  0.82883000  0.53823100  0.60682500  1
  O  O10  1  0.01875600  0.31672600  0.90405400  1
  O  O11  1  0.64450000  0.92412300  0.09733100  1
loop_
_geom_bond_atom_site_label_1
_geom_bond_atom_site_label_2
_geom_bond_distance
_geom_bond_site_symmetry_2
Mg0 O7 2.070247 1_555
Mg0 O8 2.107740 1_555
Mg0 O4 2.112352 1_555
Mg0 O0 2.131307 1_555
Mg0 O11 2.149607 1_555
Mg0 O2 2.479650 1_555
Mn0 O9 1.894539 1_455
Mn0 O3 1.931849 1_555
Mn0 O5 1.937970 1_565
Mn0 O7 1.960550 1_455
Mn0 O2 1.972965 1_555
Mn0 O8 2.015591 1_565
Mn1 O6 1.888146 1_555
Mn1 O10 1.929817 1_555
Mn1 O1 1.943533 1_555
Mn1 O4 1.943710 1_556
Mn1 O11 1.979509 1_556
Mn1 O0 2.022521 1_456
Mn2 O9 1.882423 1_555
Mn2 O3 1.906114 1_555
Mn2 O5 1.934398 1_555
Mn2 O7 1.961670 1_555
Mn2 O2 1.973306 1_555
Mn2 O8 1.991421 1_555
Mn3 O6 1.898558 1_555
Mn3 O10 1.924994 1_655
Mn3 O1 1.928672 1_545
Mn3 O4 1.940809 1_556
Mn3 O0 1.983690 1_556
Mn3 O11 2.046341 1_546
Mn4 O5 1.939243 1_655
Mn4 O3 1.974221 1_545
Mn4 O8 1.992052 1_555
Mn4 O2 2.004594 1_655
Mn4 O9 2.130337 1_555
Mn4 O7 2.189801 1_545
Ni0 O1 1.892321 1_655
Ni0 O10 1.911760 1_665
Ni0 O11 1.913703 1_556
Ni0 O0 1.934119 1_556
Ni0 O6 2.092531 1_555
Ni0 O4 2.201643 1_666
