# generated using pymatgen
data_Sc
_symmetry_space_group_name_H-M   'P 1'
_cell_length_a   6.53021095
_cell_length_b   6.51906084
_cell_length_c   32.58658100
_cell_angle_alpha   90.00000000
_cell_angle_beta   90.00000000
_cell_angle_gamma   120.06156465
_symmetry_Int_Tables_number   1
_chemical_formula_structural   Sc
_chemical_formula_sum   Sc48
_cell_volume   1200.63753643
_cell_formula_units_Z   48
loop_
 _symmetry_equiv_pos_site_id
 _symmetry_equiv_pos_as_xyz
  1  'x, y, z'
loop_
 _atom_site_type_symbol
 _atom_site_label
 _atom_site_symmetry_multiplicity
 _atom_site_fract_x
 _atom_site_fract_y
 _atom_site_fract_z
 _atom_site_occupancy
  Sc  Sc0_0  1  0.25099835  0.00000496  0.25000381  1
  Sc  Sc0_1  1  0.25099835  0.00000496  0.75000381  1
  Sc  Sc0_2  1  0.25099835  0.50000496  0.25000381  1
  Sc  Sc0_3  1  0.25099835  0.50000496  0.75000381  1
  Sc  Sc0_4  1  0.75099835  0.00000496  0.25000381  1
  Sc  Sc0_5  1  0.75099835  0.00000496  0.75000381  1
  Sc  Sc0_6  1  0.75099835  0.50000496  0.25000381  1
  Sc  Sc0_7  1  0.75099835  0.50000496  0.75000381  1
  Sc  Sc1_0  1  0.24900165  0.49999504  0.00000381  1
  Sc  Sc1_1  1  0.24900165  0.49999504  0.50000381  1
  Sc  Sc1_2  1  0.24900165  0.99999504  0.00000381  1
  Sc  Sc1_3  1  0.24900165  0.99999504  0.50000381  1
  Sc  Sc1_4  1  0.74900165  0.49999504  0.00000381  1
  Sc  Sc1_5  1  0.74900165  0.49999504  0.50000381  1
  Sc  Sc1_6  1  0.74900165  0.99999504  0.00000381  1
  Sc  Sc1_7  1  0.74900165  0.99999504  0.50000381  1
  Sc  Sc2_0  1  0.49990088  0.24784543  0.16661604  1
  Sc  Sc2_1  1  0.49990088  0.24784543  0.66661604  1
  Sc  Sc2_2  1  0.49990088  0.74784543  0.16661604  1
  Sc  Sc2_3  1  0.49990088  0.74784543  0.66661604  1
  Sc  Sc2_4  1  0.99990088  0.24784543  0.16661604  1
  Sc  Sc2_5  1  0.99990088  0.24784543  0.66661604  1
  Sc  Sc2_6  1  0.99990089  0.74784543  0.16661604  1
  Sc  Sc2_7  1  0.99990089  0.74784543  0.66661604  1
  Sc  Sc3_0  1  0.24794302  0.24784473  0.08338065  1
  Sc  Sc3_1  1  0.24794302  0.24784473  0.58338065  1
  Sc  Sc3_2  1  0.24794302  0.74784472  0.08338065  1
  Sc  Sc3_3  1  0.24794302  0.74784472  0.58338065  1
  Sc  Sc3_4  1  0.74794302  0.24784473  0.08338065  1
  Sc  Sc3_5  1  0.74794302  0.24784473  0.58338065  1
  Sc  Sc3_6  1  0.74794302  0.74784472  0.08338065  1
  Sc  Sc3_7  1  0.74794302  0.74784472  0.58338065  1
  Sc  Sc4_0  1  0.00009912  0.25215457  0.41661604  1
  Sc  Sc4_1  1  0.00009912  0.25215457  0.91661604  1
  Sc  Sc4_2  1  0.00009912  0.75215457  0.41661604  1
  Sc  Sc4_3  1  0.00009912  0.75215457  0.91661604  1
  Sc  Sc4_4  1  0.50009911  0.25215457  0.41661604  1
  Sc  Sc4_5  1  0.50009911  0.25215457  0.91661604  1
  Sc  Sc4_6  1  0.50009911  0.75215457  0.41661604  1
  Sc  Sc4_7  1  0.50009911  0.75215457  0.91661604  1
  Sc  Sc5_0  1  0.25205698  0.25215528  0.33338065  1
  Sc  Sc5_1  1  0.25205698  0.25215528  0.83338065  1
  Sc  Sc5_2  1  0.25205698  0.75215528  0.33338065  1
  Sc  Sc5_3  1  0.25205698  0.75215528  0.83338065  1
  Sc  Sc5_4  1  0.75205698  0.25215528  0.33338065  1
  Sc  Sc5_5  1  0.75205698  0.25215528  0.83338065  1
  Sc  Sc5_6  1  0.75205698  0.75215528  0.33338065  1
  Sc  Sc5_7  1  0.75205698  0.75215528  0.83338065  1
loop_
_geom_bond_atom_site_label_1
_geom_bond_atom_site_label_2
_geom_bond_distance
_geom_bond_site_symmetry_2
Sc0_0 Sc5_2 3.162876 1_545
Sc0_0 Sc2_0 3.163094 1_555
Sc0_0 Sc5_0 3.173735 1_555
Sc0_0 Sc2_6 3.174001 1_445
Sc0_0 Sc0_6 3.259285 1_555
Sc0_0 Sc0_6 3.259285 1_445
Sc0_0 Sc0_2 3.259530 1_555
Sc0_0 Sc0_2 3.259530 1_545
Sc0_0 Sc0_4 3.265105 1_455
Sc0_0 Sc0_4 3.265105 1_555
Sc0_1 Sc5_3 3.162876 1_545
Sc0_1 Sc2_1 3.163094 1_555
Sc0_1 Sc5_1 3.173735 1_555
Sc0_1 Sc2_7 3.174001 1_445
Sc0_1 Sc0_7 3.259285 1_555
Sc0_1 Sc0_7 3.259285 1_445
Sc0_1 Sc0_3 3.259530 1_555
Sc0_1 Sc0_3 3.259530 1_545
Sc0_1 Sc0_5 3.265105 1_455
Sc0_1 Sc0_5 3.265105 1_555
Sc0_2 Sc5_0 3.162876 1_555
Sc0_2 Sc2_2 3.163094 1_555
Sc0_2 Sc5_2 3.173735 1_555
Sc0_2 Sc2_4 3.174001 1_455
Sc0_2 Sc0_4 3.259285 1_565
Sc0_2 Sc0_4 3.259285 1_455
Sc0_2 Sc0_6 3.265105 1_555
Sc0_2 Sc0_6 3.265105 1_455
Sc0_3 Sc5_1 3.162876 1_555
Sc0_3 Sc2_3 3.163094 1_555
Sc0_3 Sc5_3 3.173735 1_555
Sc0_3 Sc2_5 3.174001 1_455
Sc0_3 Sc0_5 3.259285 1_455
Sc0_3 Sc0_5 3.259285 1_565
Sc0_3 Sc0_7 3.265105 1_555
Sc0_3 Sc0_7 3.265105 1_455
Sc0_4 Sc5_6 3.162876 1_545
Sc0_4 Sc2_4 3.163094 1_555
Sc0_4 Sc5_4 3.173735 1_555
Sc0_4 Sc2_2 3.174001 1_545
Sc0_4 Sc0_6 3.259530 1_555
Sc0_4 Sc0_6 3.259530 1_545
Sc0_5 Sc5_7 3.162876 1_545
Sc0_5 Sc2_5 3.163094 1_555
Sc0_5 Sc5_5 3.173735 1_555
Sc0_5 Sc2_3 3.174001 1_545
Sc0_5 Sc0_7 3.259530 1_555
Sc0_5 Sc0_7 3.259530 1_545
Sc0_6 Sc5_4 3.162876 1_555
Sc0_6 Sc2_6 3.163094 1_555
Sc0_6 Sc5_6 3.173735 1_555
Sc0_6 Sc2_0 3.174001 1_555
Sc0_7 Sc5_5 3.162876 1_555
Sc0_7 Sc2_7 3.163094 1_555
Sc0_7 Sc5_7 3.173735 1_555
Sc0_7 Sc2_1 3.174001 1_555
Sc1_0 Sc3_2 3.162876 1_555
Sc1_0 Sc4_1 3.163094 1_554
Sc1_0 Sc3_0 3.173735 1_555
Sc1_0 Sc4_7 3.174001 1_554
Sc1_0 Sc1_6 3.259285 1_445
Sc1_0 Sc1_6 3.259285 1_555
Sc1_0 Sc1_2 3.259530 1_555
Sc1_0 Sc1_2 3.259530 1_545
Sc1_0 Sc1_4 3.265105 1_555
Sc1_0 Sc1_4 3.265105 1_455
Sc1_1 Sc3_3 3.162876 1_555
Sc1_1 Sc4_0 3.163094 1_555
Sc1_1 Sc3_1 3.173735 1_555
Sc1_1 Sc4_6 3.174001 1_555
Sc1_1 Sc1_7 3.259285 1_555
Sc1_1 Sc1_7 3.259285 1_445
Sc1_1 Sc1_3 3.259530 1_555
Sc1_1 Sc1_3 3.259530 1_545
Sc1_1 Sc1_5 3.265105 1_555
Sc1_1 Sc1_5 3.265105 1_455
Sc1_2 Sc3_0 3.162876 1_565
Sc1_2 Sc4_3 3.163094 1_554
Sc1_2 Sc3_2 3.173735 1_555
Sc1_2 Sc4_5 3.174001 1_564
Sc1_2 Sc1_4 3.259285 1_565
Sc1_2 Sc1_4 3.259285 1_455
Sc1_2 Sc1_6 3.265105 1_555
Sc1_2 Sc1_6 3.265105 1_455
Sc1_3 Sc3_1 3.162876 1_565
Sc1_3 Sc4_2 3.163094 1_555
Sc1_3 Sc3_3 3.173735 1_555
Sc1_3 Sc4_4 3.174001 1_565
Sc1_3 Sc1_5 3.259285 1_565
Sc1_3 Sc1_5 3.259285 1_455
Sc1_3 Sc1_7 3.265105 1_555
Sc1_3 Sc1_7 3.265105 1_455
Sc1_4 Sc3_6 3.162876 1_555
Sc1_4 Sc4_5 3.163094 1_554
Sc1_4 Sc3_4 3.173735 1_555
Sc1_4 Sc4_3 3.174001 1_654
Sc1_4 Sc1_6 3.259530 1_555
Sc1_4 Sc1_6 3.259530 1_545
Sc1_5 Sc3_7 3.162876 1_555
Sc1_5 Sc4_4 3.163094 1_555
Sc1_5 Sc3_5 3.173735 1_555
Sc1_5 Sc4_2 3.174001 1_655
Sc1_5 Sc1_7 3.259530 1_555
Sc1_5 Sc1_7 3.259530 1_545
Sc1_6 Sc3_4 3.162876 1_565
Sc1_6 Sc4_7 3.163094 1_554
Sc1_6 Sc3_6 3.173735 1_555
Sc1_6 Sc4_1 3.174001 1_664
Sc1_7 Sc3_5 3.162876 1_565
Sc1_7 Sc4_6 3.163094 1_555
Sc1_7 Sc3_7 3.173735 1_555
Sc1_7 Sc4_0 3.174001 1_665
Sc2_0 Sc3_4 3.159198 1_555
Sc2_0 Sc3_0 3.172382 1_555
Sc2_0 Sc2_6 3.259285 1_445
Sc2_0 Sc2_6 3.259285 1_555
Sc2_0 Sc2_2 3.259530 1_555
Sc2_0 Sc2_2 3.259530 1_545
Sc2_0 Sc2_4 3.265105 1_455
Sc2_0 Sc2_4 3.265105 1_555
Sc2_1 Sc3_5 3.159198 1_555
Sc2_1 Sc3_1 3.172382 1_555
Sc2_1 Sc2_7 3.259285 1_445
Sc2_1 Sc2_7 3.259285 1_555
Sc2_1 Sc2_3 3.259530 1_555
Sc2_1 Sc2_3 3.259530 1_545
Sc2_1 Sc2_5 3.265105 1_555
Sc2_1 Sc2_5 3.265105 1_455
Sc2_2 Sc3_6 3.159198 1_555
Sc2_2 Sc3_2 3.172382 1_555
Sc2_2 Sc2_4 3.259285 1_565
Sc2_2 Sc2_4 3.259285 1_455
Sc2_2 Sc2_6 3.265105 1_455
Sc2_2 Sc2_6 3.265105 1_555
Sc2_3 Sc3_7 3.159198 1_555
Sc2_3 Sc3_3 3.172382 1_555
Sc2_3 Sc2_5 3.259285 1_455
Sc2_3 Sc2_5 3.259285 1_565
Sc2_3 Sc2_7 3.265105 1_455
Sc2_3 Sc2_7 3.265105 1_555
Sc2_4 Sc3_0 3.159198 1_655
Sc2_4 Sc3_4 3.172382 1_555
Sc2_4 Sc2_6 3.259530 1_555
Sc2_4 Sc2_6 3.259530 1_545
Sc2_5 Sc3_1 3.159198 1_655
Sc2_5 Sc3_5 3.172382 1_555
Sc2_5 Sc2_7 3.259530 1_555
Sc2_5 Sc2_7 3.259530 1_545
Sc2_6 Sc3_2 3.159198 1_655
Sc2_6 Sc3_6 3.172382 1_555
Sc2_7 Sc3_3 3.159198 1_655
Sc2_7 Sc3_7 3.172382 1_555
Sc3_0 Sc3_6 3.259285 1_445
Sc3_0 Sc3_6 3.259285 1_555
Sc3_0 Sc3_2 3.259530 1_555
Sc3_0 Sc3_2 3.259530 1_545
Sc3_0 Sc3_4 3.265105 1_555
Sc3_0 Sc3_4 3.265105 1_455
Sc3_1 Sc3_7 3.259285 1_555
Sc3_1 Sc3_7 3.259285 1_445
Sc3_1 Sc3_3 3.259530 1_555
Sc3_1 Sc3_3 3.259530 1_545
Sc3_1 Sc3_5 3.265105 1_555
Sc3_1 Sc3_5 3.265105 1_455
Sc3_2 Sc3_4 3.259285 1_565
Sc3_2 Sc3_4 3.259285 1_455
Sc3_2 Sc3_6 3.265105 1_555
Sc3_2 Sc3_6 3.265105 1_455
Sc3_3 Sc3_5 3.259285 1_565
Sc3_3 Sc3_5 3.259285 1_455
Sc3_3 Sc3_7 3.265105 1_555
Sc3_3 Sc3_7 3.265105 1_455
Sc3_4 Sc3_6 3.259530 1_555
Sc3_4 Sc3_6 3.259530 1_545
Sc3_5 Sc3_7 3.259530 1_555
Sc3_5 Sc3_7 3.259530 1_545
Sc4_0 Sc5_4 3.159198 1_455
Sc4_0 Sc5_0 3.172382 1_555
Sc4_0 Sc4_6 3.259285 1_555
Sc4_0 Sc4_6 3.259285 1_445
Sc4_0 Sc4_2 3.259530 1_555
Sc4_0 Sc4_2 3.259530 1_545
Sc4_0 Sc4_4 3.265105 1_555
Sc4_0 Sc4_4 3.265105 1_455
Sc4_1 Sc5_5 3.159198 1_455
Sc4_1 Sc5_1 3.172382 1_555
Sc4_1 Sc4_7 3.259285 1_555
Sc4_1 Sc4_7 3.259285 1_445
Sc4_1 Sc4_3 3.259530 1_555
Sc4_1 Sc4_3 3.259530 1_545
Sc4_1 Sc4_5 3.265105 1_555
Sc4_1 Sc4_5 3.265105 1_455
Sc4_2 Sc5_6 3.159198 1_455
Sc4_2 Sc5_2 3.172382 1_555
Sc4_2 Sc4_4 3.259285 1_565
Sc4_2 Sc4_4 3.259285 1_455
Sc4_2 Sc4_6 3.265105 1_555
Sc4_2 Sc4_6 3.265105 1_455
Sc4_3 Sc5_7 3.159198 1_455
Sc4_3 Sc5_3 3.172382 1_555
Sc4_3 Sc4_5 3.259285 1_565
Sc4_3 Sc4_5 3.259285 1_455
Sc4_3 Sc4_7 3.265105 1_555
Sc4_3 Sc4_7 3.265105 1_455
Sc4_4 Sc5_0 3.159198 1_555
Sc4_4 Sc5_4 3.172382 1_555
Sc4_4 Sc4_6 3.259530 1_555
Sc4_4 Sc4_6 3.259530 1_545
Sc4_5 Sc5_1 3.159198 1_555
Sc4_5 Sc5_5 3.172382 1_555
Sc4_5 Sc4_7 3.259530 1_555
Sc4_5 Sc4_7 3.259530 1_545
Sc4_6 Sc5_2 3.159198 1_555
Sc4_6 Sc5_6 3.172382 1_555
Sc4_7 Sc5_3 3.159198 1_555
Sc4_7 Sc5_7 3.172382 1_555
Sc5_0 Sc5_6 3.259285 1_555
Sc5_0 Sc5_6 3.259285 1_445
Sc5_0 Sc5_2 3.259530 1_555
Sc5_0 Sc5_2 3.259530 1_545
Sc5_0 Sc5_4 3.265105 1_455
Sc5_0 Sc5_4 3.265105 1_555
Sc5_1 Sc5_7 3.259285 1_445
Sc5_1 Sc5_7 3.259285 1_555
Sc5_1 Sc5_3 3.259530 1_555
Sc5_1 Sc5_3 3.259530 1_545
Sc5_1 Sc5_5 3.265105 1_455
Sc5_1 Sc5_5 3.265105 1_555
Sc5_2 Sc5_4 3.259285 1_565
Sc5_2 Sc5_4 3.259285 1_455
Sc5_2 Sc5_6 3.265105 1_555
Sc5_2 Sc5_6 3.265105 1_455
Sc5_3 Sc5_5 3.259285 1_565
Sc5_3 Sc5_5 3.259285 1_455
Sc5_3 Sc5_7 3.265105 1_555
Sc5_3 Sc5_7 3.265105 1_455
Sc5_4 Sc5_6 3.259530 1_555
Sc5_4 Sc5_6 3.259530 1_545
Sc5_5 Sc5_7 3.259530 1_545
Sc5_5 Sc5_7 3.259530 1_555
