# generated using pymatgen
data_Na10Y4Ga4Si5S7O48
_symmetry_space_group_name_H-M   'P 1'
_cell_length_a   18.14706317
_cell_length_b   9.11650649
_cell_length_c   22.87858133
_cell_angle_alpha   89.57430804
_cell_angle_beta   89.15241956
_cell_angle_gamma   120.08936647
_symmetry_Int_Tables_number   1
_chemical_formula_structural   Na10Y4Ga4Si5S7O48
_chemical_formula_sum   'Na30 Y12 Ga12 Si15 S21 O144'
_cell_volume   3274.09482066
_cell_formula_units_Z   3
loop_
 _symmetry_equiv_pos_site_id
 _symmetry_equiv_pos_as_xyz
  1  'x, y, z'
loop_
 _atom_site_type_symbol
 _atom_site_label
 _atom_site_symmetry_multiplicity
 _atom_site_fract_x
 _atom_site_fract_y
 _atom_site_fract_z
 _atom_site_occupancy
  Na  Na0  1  0.32330296  0.00035286  0.24970679  1
  Na  Na1  1  0.82244729  0.99413621  0.25623771  1
  Na  Na2  1  0.18587313  0.37826817  0.24005202  1
  Na  Na3  1  0.67212134  0.36078067  0.24538791  1
  Na  Na4  1  0.99358874  0.63424048  0.26467729  1
  Na  Na5  1  0.49733915  0.62491508  0.25942100  1
  Na  Na6  1  0.82897409  0.65036518  0.73863055  1
  Na  Na7  1  0.99311249  0.35638372  0.75563504  1
  Na  Na8  1  0.49682274  0.35139648  0.75853046  1
  Na  Na9  1  0.17543755  0.99375943  0.73661591  1
  Na  Na10  1  0.01882439  0.71076736  0.58650559  1
  Na  Na11  1  0.33052275  0.98074359  0.59455296  1
  Na  Na12  1  0.02319436  0.32739502  0.08451468  1
  Na  Na13  1  0.51217437  0.33215342  0.08866198  1
  Na  Na14  1  0.16026206  0.30368838  0.93091961  1
  Na  Na15  1  0.66129757  0.29910644  0.93147091  1
  Na  Na16  1  0.16423407  0.01803135  0.42747772  1
  Na  Na17  1  0.66278994  0.03722001  0.42343255  1
  Na  Na18  1  0.99134226  0.99367481  0.50619237  1
  Na  Na19  1  0.51403000  0.99703255  0.49174505  1
  Na  Na20  1  0.00508638  0.01041461  0.00166526  1
  Na  Na21  1  0.50468754  0.00100478  0.00845169  1
  Na  Na22  1  0.34862488  0.33208420  0.83511812  1
  Na  Na23  1  0.85114137  0.31861515  0.82874035  1
  Na  Na24  1  0.35250938  0.36631462  0.33865277  1
  Na  Na25  1  0.84717749  0.36387659  0.34105968  1
  Na  Na26  1  0.17871288  0.65907192  0.17108058  1
  Na  Na27  1  0.67724534  0.65930077  0.16522879  1
  Na  Na28  1  0.17169617  0.67756422  0.67076502  1
  Na  Na29  1  0.68702362  0.72177785  0.65519242  1
  Y  Y0  1  0.98971674  0.98623108  0.35435132  1
  Y  Y1  1  0.99052076  0.98908095  0.84749298  1
  Y  Y2  1  0.49493829  0.01034962  0.84948618  1
  Y  Y3  1  0.51063843  0.00723338  0.64198892  1
  Y  Y4  1  0.99588009  -0.00080177  0.15584153  1
  Y  Y5  1  0.82567452  0.33373277  0.18309600  1
  Y  Y6  1  0.33889424  0.33696478  0.98544418  1
  Y  Y7  1  0.83193089  0.33181729  0.98468817  1
  Y  Y8  1  0.16988437  0.65670724  0.02076727  1
  Y  Y9  1  0.16742983  0.66492228  0.51959581  1
  Y  Y10  1  0.16330920  0.66642748  0.81262640  1
  Y  Y11  1  0.67000880  0.68672578  0.81201078  1
  Ga  Ga0  1  0.48420777  0.96909568  0.34612193  1
  Ga  Ga1  1  0.00459448  0.99164045  0.64738048  1
  Ga  Ga2  1  0.49960687  0.01942686  0.15629723  1
  Ga  Ga3  1  0.33129640  0.32101113  0.67844855  1
  Ga  Ga4  1  0.83173266  0.31126367  0.68177091  1
  Ga  Ga5  1  0.33803622  0.35684517  0.18675713  1
  Ga  Ga6  1  0.33804788  0.34882037  0.48306352  1
  Ga  Ga7  1  0.83910383  0.35352557  0.48463042  1
  Ga  Ga8  1  0.65913807  0.63723033  0.01825990  1
  Ga  Ga9  1  0.65836218  0.71298271  0.51542811  1
  Ga  Ga10  1  0.15885177  0.64308372  0.31689600  1
  Ga  Ga11  1  0.64883003  0.62124505  0.31968303  1
  Si  Si0  1  0.35500126  0.71149404  0.24993293  1
  Si  Si1  1  0.83681333  0.69191483  0.25521912  1
  Si  Si2  1  0.00262672  0.31211560  0.25009599  1
  Si  Si3  1  0.49435874  0.28359778  0.25161750  1
  Si  Si4  1  0.99234604  0.68844568  0.73947862  1
  Si  Si5  1  0.35128303  0.01612956  0.73937683  1
  Si  Si6  1  0.85674050  0.00404685  0.73894236  1
  Si  Si7  1  0.18755441  0.05845808  0.58045653  1
  Si  Si8  1  0.69847684  0.05959779  0.57653838  1
  Si  Si9  1  0.18683778  0.33057289  0.08748941  1
  Si  Si10  1  0.67046782  0.32245740  0.08346238  1
  Si  Si11  1  0.01198412  0.35290088  0.91699874  1
  Si  Si12  1  0.51968869  0.37084887  0.91533522  1
  Si  Si13  1  0.01491996  0.65232867  0.41938499  1
  Si  Si14  1  0.51497841  0.66803684  0.41440371  1
  S  S0  1  0.15520712  0.00132113  0.25325468  1
  S  S1  1  0.63779705  0.98962180  0.25212635  1
  S  S2  1  0.15296751  0.29343685  0.74435258  1
  S  S3  1  0.65553692  0.30127837  0.74963497  1
  S  S4  1  0.49320937  0.68890749  0.74704441  1
  S  S5  1  0.48067893  0.34891370  0.58044129  1
  S  S6  1  0.97643421  0.32487170  0.58403782  1
  S  S7  1  0.33573651  0.61483101  0.58522331  1
  S  S8  1  0.83203824  0.62549905  0.58221927  1
  S  S9  1  0.48672340  0.64159355  0.08837946  1
  S  S10  1  0.98486252  0.64031579  0.08462508  1
  S  S11  1  0.33572097  0.03766896  0.09273048  1
  S  S12  1  0.82546713  0.01152465  0.08358332  1
  S  S13  1  0.31817764  0.66329897  0.91426418  1
  S  S14  1  0.81026849  0.66921179  0.92048400  1
  S  S15  1  0.16795499  0.97121740  0.91624324  1
  S  S16  1  0.66360533  0.95621774  0.92270767  1
  S  S17  1  0.31915235  0.96785466  0.41335094  1
  S  S18  1  0.80462523  0.95341354  0.41754629  1
  S  S19  1  0.17454148  0.37310443  0.41348832  1
  S  S20  1  0.66663828  0.37604228  0.41864457  1
  O  O0  1  0.11578291  0.02868968  0.30689891  1
  O  O1  1  0.60282844  0.02428352  0.30596468  1
  O  O2  1  0.41676742  0.77209666  0.30647655  1
  O  O3  1  0.90976353  0.77185010  0.30505271  1
  O  O4  1  0.47512566  0.14413629  0.30432872  1
  O  O5  1  0.98806176  0.18153301  0.30340651  1
  O  O6  1  0.11801943  0.19397183  0.79960173  1
  O  O7  1  0.62021157  0.20486123  0.80538593  1
  O  O8  1  0.48878859  0.77284454  0.80141873  1
  O  O9  1  0.97284260  0.77175248  0.79608225  1
  O  O10  1  0.41456358  0.05170386  0.79479572  1
  O  O11  1  0.90898809  0.04151361  0.79985562  1
  O  O12  1  0.39532251  0.99648321  0.67995148  1
  O  O13  1  0.91256868  0.98060044  0.68652064  1
  O  O14  1  0.09708463  0.20487621  0.69493320  1
  O  O15  1  0.59777140  0.21133728  0.70162735  1
  O  O16  1  0.01921336  0.81797321  0.68193051  1
  O  O17  1  0.50563045  0.79659397  0.69528048  1
  O  O18  1  0.40023544  0.84654638  0.19501626  1
  O  O19  1  0.87499656  0.81601123  0.19750556  1
  O  O20  1  0.02051548  0.24025350  0.18916865  1
  O  O21  1  0.51995467  0.22226053  0.19113629  1
  O  O22  1  0.09780217  0.96738236  0.20309000  1
  O  O23  1  0.58652438  0.97297209  0.20028300  1
  O  O24  1  0.44414787  0.36906235  0.63674261  1
  O  O25  1  0.93932019  0.35506160  0.63789191  1
  O  O26  1  0.24606404  0.13991504  0.63849809  1
  O  O27  1  0.74989947  0.14911320  0.63544641  1
  O  O28  1  0.33282110  0.51782359  0.63761447  1
  O  O29  1  0.82196819  0.52876636  0.63730908  1
  O  O30  1  0.44757372  0.52529956  0.14078590  1
  O  O31  1  0.94491500  0.54107200  0.13905362  1
  O  O32  1  0.33003338  0.12531294  0.14478608  1
  O  O33  1  0.81539120  0.08327515  0.13927821  1
  O  O34  1  0.24497141  0.33609473  0.14393136  1
  O  O35  1  0.72592299  0.34883375  0.14145165  1
  O  O36  1  0.22925262  0.33159289  0.02367736  1
  O  O37  1  0.71390166  0.30435276  0.02335022  1
  O  O38  1  0.43442488  0.55831536  0.03607778  1
  O  O39  1  0.93491482  0.54799864  0.03370456  1
  O  O40  1  0.34958384  0.14417136  0.03893543  1
  O  O41  1  0.83956165  0.13136438  0.03509899  1
  O  O42  1  0.23818415  0.17018021  0.51993377  1
  O  O43  1  0.74565659  0.16765513  0.51644709  1
  O  O44  1  0.34162222  0.53753869  0.53009724  1
  O  O45  1  0.85049922  0.54351031  0.53166988  1
  O  O46  1  0.42220781  0.32173429  0.53185452  1
  O  O47  1  0.92756309  0.31539726  0.53180903  1
  O  O48  1  0.27949933  0.68374576  0.96848136  1
  O  O49  1  0.76456551  0.68557025  0.97202728  1
  O  O50  1  0.07026773  0.45624094  0.97435942  1
  O  O51  1  0.57606005  0.47276458  0.97288743  1
  O  O52  1  0.16717214  0.87371176  0.96802404  1
  O  O53  1  0.66170242  0.85526528  0.97395426  1
  O  O54  1  0.28125103  0.87113568  0.46972603  1
  O  O55  1  0.76411180  0.84642895  0.47071261  1
  O  O56  1  0.16757303  0.46035557  0.46583924  1
  O  O57  1  0.65808090  0.47079860  0.46833921  1
  O  O58  1  0.07117504  0.67766226  0.47731675  1
  O  O59  1  0.58007387  0.72008183  0.46949087  1
  O  O60  1  0.06459849  0.63450135  0.35957942  1
  O  O61  1  0.55712361  0.63126370  0.35559470  1
  O  O62  1  0.26338153  0.87721083  0.36386489  1
  O  O63  1  0.75904299  0.86968393  0.36413223  1
  O  O64  1  0.18161914  0.46908752  0.35936398  1
  O  O65  1  0.67656605  0.46707766  0.36129710  1
  O  O66  1  0.06098027  0.45329566  0.85598936  1
  O  O67  1  0.56617528  0.46414248  0.85328205  1
  O  O68  1  0.17564817  0.89368233  0.86126452  1
  O  O69  1  0.67448940  0.88566615  0.86703598  1
  O  O70  1  0.26996974  0.66130474  0.86290808  1
  O  O71  1  0.76766961  0.66449300  0.86531335  1
  O  O72  1  0.01379823  0.83116314  0.41645198  1
  O  O73  1  0.51101435  0.84685535  0.40595844  1
  O  O74  1  0.40478903  0.98737451  0.40885481  1
  O  O75  1  0.89360285  0.98033170  0.41878913  1
  O  O76  1  0.09804782  0.19982847  0.41379665  1
  O  O77  1  0.59132371  0.20246879  0.41642986  1
  O  O78  1  0.01140725  0.17223177  0.91894662  1
  O  O79  1  0.51641618  0.18569438  0.91883875  1
  O  O80  1  0.08963719  0.98206854  0.91624378  1
  O  O81  1  0.58426356  0.96553625  0.92089055  1
  O  O82  1  0.40672349  0.80658198  0.91200112  1
  O  O83  1  0.89787412  0.81380037  0.92063902  1
  O  O84  1  0.48651274  0.19156513  0.58238802  1
  O  O85  1  0.98605519  0.17482659  0.58694300  1
  O  O86  1  0.08953761  0.03027083  0.58589671  1
  O  O87  1  0.60157672  0.03164564  0.57626996  1
  O  O88  1  0.41035102  0.78927768  0.58530966  1
  O  O89  1  0.91167317  0.79669260  0.58389039  1
  O  O90  1  0.49375631  0.80665548  0.09514756  1
  O  O91  1  0.99222326  0.80769836  0.08580210  1
  O  O92  1  0.41203632  0.01776839  0.09331140  1
  O  O93  1  0.90478248  0.00097024  0.08411697  1
  O  O94  1  0.08999186  0.16498120  0.08824100  1
  O  O95  1  0.57476001  0.15050362  0.09139097  1
  O  O96  1  0.34551924  0.19433751  0.73804422  1
  O  O97  1  0.84369675  0.16915841  0.73600985  1
  O  O98  1  0.23906579  0.31455864  0.73707017  1
  O  O99  1  0.74149541  0.32548970  0.74136878  1
  O  O100  1  0.41499423  0.52177721  0.74354970  1
  O  O101  1  0.90660049  0.50146609  0.73081545  1
  O  O102  1  0.34097436  0.51877776  0.24033573  1
  O  O103  1  0.81960059  0.49884938  0.24808253  1
  O  O104  1  0.41027321  0.31144434  0.24342568  1
  O  O105  1  0.91751953  0.33097757  0.24698043  1
  O  O106  1  0.23869435  0.15419892  0.24493475  1
  O  O107  1  0.72639627  0.13680307  0.24633757  1
  O  O108  1  0.31792152  0.50104076  0.91530454  1
  O  O109  1  0.81123801  0.50826454  0.92282531  1
  O  O110  1  0.42461229  0.34581557  0.91753588  1
  O  O111  1  0.91788627  0.33446803  0.91839034  1
  O  O112  1  0.24205333  0.14636429  0.91693653  1
  O  O113  1  0.73598719  0.13230784  0.92341304  1
  O  O114  1  0.32336696  0.13561928  0.41709347  1
  O  O115  1  0.81042925  0.12112662  0.41928121  1
  O  O116  1  0.25139301  0.35476563  0.41604636  1
  O  O117  1  0.74439359  0.35878347  0.42139262  1
  O  O118  1  0.42082159  0.49553395  0.42757403  1
  O  O119  1  0.91884887  0.48038991  0.42625988  1
  O  O120  1  0.17367490  0.49848095  0.09111179  1
  O  O121  1  0.65888537  0.49432059  0.07870658  1
  O  O122  1  0.07061760  0.65771042  0.08189740  1
  O  O123  1  0.57205111  0.65576027  0.08076006  1
  O  O124  1  0.25768115  0.87142266  0.08794657  1
  O  O125  1  0.74942473  0.84367509  0.07523213  1
  O  O126  1  0.17959861  0.86768403  0.57857268  1
  O  O127  1  0.68801165  0.86539045  0.57518025  1
  O  O128  1  0.25768689  0.63100407  0.58637214  1
  O  O129  1  0.75586436  0.64053843  0.57432502  1
  O  O130  1  0.06389641  0.48181897  0.58160451  1
  O  O131  1  0.56699570  0.49980935  0.57263397  1
  O  O132  1  0.16567687  0.85147531  0.25950132  1
  O  O133  1  0.64502752  0.83523782  0.25612570  1
  O  O134  1  0.25952366  0.69313193  0.26173804  1
  O  O135  1  0.74452095  0.68558764  0.26770268  1
  O  O136  1  0.08921799  0.50200853  0.25625339  1
  O  O137  1  0.57790437  0.47311371  0.26016481  1
  O  O138  1  0.15996671  0.46234978  0.74789312  1
  O  O139  1  0.66176699  0.46936178  0.75188744  1
  O  O140  1  0.07410343  0.65983385  0.74747802  1
  O  O141  1  0.56756819  0.66188076  0.74796394  1
  O  O142  1  0.25471486  0.85618926  0.74736269  1
  O  O143  1  0.76541991  0.82417721  0.74252382  1
loop_
_geom_bond_atom_site_label_1
_geom_bond_atom_site_label_2
_geom_bond_distance
_geom_bond_site_symmetry_2
Na0 O134 2.447132 1_545
Na0 O104 2.460473 1_555
Na0 O132 2.481574 1_545
Na0 O106 2.549203 1_555
Na0 O32 2.624113 1_555
Na0 O4 2.715819 1_555
Na0 O18 2.723610 1_545
Na0 O62 2.812910 1_545
Na1 O135 2.443445 1_555
Na1 O19 2.626625 1_555
Na1 O107 2.657366 1_565
Na1 O105 2.668063 1_565
Na1 O63 2.696273 1_555
Na1 O133 2.790753 1_555
Na1 O33 2.814108 1_565
Na1 O5 2.844427 1_565
Na2 O102 2.438965 1_555
Na2 O136 2.541157 1_555
Na2 O134 2.542826 1_555
Na2 O34 2.547604 1_555
Na2 O106 2.658413 1_555
Na2 O64 2.869513 1_555
Na2 O20 2.877879 1_555
Na3 O103 2.319278 1_555
Na3 O137 2.414548 1_555
Na3 O35 2.580963 1_555
Na3 O135 2.626089 1_555
Na3 O107 2.675148 1_555
Na3 O21 2.718208 1_555
Na3 O65 2.818503 1_555
Na4 O105 2.432994 1_555
Na4 O60 2.540580 1_655
Na4 O136 2.567712 1_655
Na4 O3 2.574926 1_555
Na4 O132 2.733640 1_655
Na4 O103 2.787726 1_555
Na4 O22 2.980640 1_655
Na4 O31 3.020123 1_555
Na5 O133 2.388360 1_555
Na5 O61 2.455878 1_555
Na5 O137 2.466194 1_555
Na5 O104 2.510437 1_555
Na5 O102 2.543336 1_555
Na5 O2 2.653166 1_555
Na5 O30 2.879930 1_555
Na6 O143 2.383361 1_555
Na6 O101 2.402614 1_555
Na6 O29 2.554250 1_555
Na6 O99 2.564328 1_555
Na6 O139 2.639469 1_555
Na6 O9 2.644750 1_555
Na6 O13 2.846060 1_555
Na7 O140 2.399021 1_655
Na7 O97 2.423589 1_555
Na7 O66 2.567413 1_655
Na7 O101 2.575622 1_555
Na7 O11 2.666665 1_555
Na7 O138 2.679827 1_655
Na7 O25 2.876817 1_555
Na8 O96 2.432035 1_555
Na8 O141 2.460790 1_555
Na8 O67 2.481214 1_555
Na8 O10 2.494312 1_555
Na8 O139 2.625947 1_555
Na8 O100 2.656147 1_555
Na8 O24 2.988280 1_555
Na8 O15 2.996778 1_555
Na9 O142 2.349071 1_555
Na9 O98 2.549755 1_565
Na9 O26 2.572011 1_565
Na9 O140 2.659467 1_555
Na9 O96 2.686242 1_565
Na9 O16 2.783879 1_555
Na9 O6 2.897480 1_565
Na9 O68 2.988349 1_555
Na10 O16 2.397248 1_555
Na10 O89 2.434799 1_455
Na10 O86 2.526273 1_565
Na10 O126 2.527281 1_555
Na10 O130 2.598186 1_555
Na10 O58 2.731761 1_555
Na11 O12 2.263551 1_555
Na11 O126 2.429379 1_555
Na11 O84 2.509588 1_565
Na11 O26 2.769789 1_565
Na11 O88 2.778838 1_555
Na11 O128 2.781815 1_555
Na12 O94 2.338759 1_555
Na12 O120 2.378571 1_555
Na12 O20 2.509159 1_555
Na12 O93 2.657511 1_455
Na12 O122 2.685060 1_555
Na12 O50 2.710546 1_554
Na13 O121 2.314336 1_555
Na13 O95 2.433647 1_555
Na13 O92 2.509074 1_555
Na13 O21 2.576211 1_555
Na13 O123 2.586275 1_555
Na13 O30 2.820735 1_555
Na13 O40 2.827554 1_555
Na13 O51 2.893398 1_554
Na14 O78 2.364087 1_555
Na14 O36 2.429613 1_556
Na14 O108 2.519735 1_555
Na14 O112 2.547508 1_555
Na14 O80 2.571310 1_545
Na14 O50 2.799812 1_555
Na15 O37 2.312431 1_556
Na15 O79 2.316524 1_555
Na15 O109 2.419675 1_555
Na15 O113 2.499351 1_555
Na15 O81 2.649306 1_545
Na15 O51 2.869014 1_555
Na15 O7 3.012211 1_555
Na16 O72 2.404585 1_545
Na16 O76 2.507353 1_555
Na16 O114 2.533147 1_555
Na16 O42 2.541719 1_555
Na16 O116 2.664816 1_555
Na16 O58 2.901148 1_545
Na16 O0 2.923393 1_555
Na17 O115 2.389308 1_555
Na17 O77 2.436955 1_555
Na17 O73 2.451071 1_545
Na17 O117 2.536145 1_555
Na17 O43 2.557967 1_555
Na17 O59 2.697948 1_545
Na17 O1 2.895362 1_555
Na18 O89 2.397552 1_555
Na18 O86 2.474060 1_665
Na18 O85 2.519651 1_565
Na18 O75 2.655486 1_555
Na18 O72 2.683690 1_655
Na18 O76 2.814435 1_665
Na19 O77 2.385500 1_565
Na19 O73 2.386940 1_555
Na19 O87 2.441413 1_565
Na19 O74 2.733631 1_555
Na19 O88 2.820800 1_555
Na19 O84 2.933782 1_565
Na20 O78 2.356547 1_554
Na20 O94 2.497531 1_555
Na20 O80 2.560614 1_544
Na20 O93 2.572528 1_455
Na20 O91 2.583889 1_445
Na20 O83 2.663438 1_444
Na21 O95 2.333921 1_555
Na21 O81 2.568121 1_544
Na21 O79 2.580713 1_554
Na21 O90 2.587757 1_545
Na21 O92 2.604817 1_555
Na21 O82 2.861121 1_544
Na22 O110 2.319485 1_555
Na22 O96 2.546913 1_555
Na22 O100 2.571597 1_555
Na22 O112 2.583284 1_555
Na22 O108 2.630743 1_555
Na22 O98 2.971374 1_555
Na23 O111 2.365840 1_555
Na23 O97 2.498504 1_555
Na23 O101 2.646991 1_555
Na23 O113 2.862809 1_555
Na23 O99 2.863502 1_555
Na24 O118 2.389392 1_555
Na24 O116 2.494151 1_555
Na24 O104 2.563202 1_555
Na24 O114 2.593084 1_555
Na24 O102 2.700839 1_555
Na24 O106 2.964875 1_555
Na25 O119 2.310848 1_555
Na25 O105 2.581556 1_555
Na25 O117 2.582554 1_555
Na25 O103 2.626687 1_555
Na25 O115 2.640253 1_555
Na26 O120 2.325858 1_555
Na26 O136 2.453202 1_555
Na26 O134 2.488352 1_555
Na26 O124 2.549863 1_555
Na26 O132 2.771203 1_555
Na26 O122 2.847037 1_555
Na27 O121 2.419272 1_555
Na27 O125 2.538031 1_555
Na27 O135 2.616116 1_555
Na27 O123 2.725460 1_555
Na27 O137 2.758577 1_555
Na27 O133 2.862342 1_555
Na28 O142 2.377630 1_555
Na28 O140 2.420693 1_555
Na28 O138 2.554840 1_555
Na28 O128 2.632568 1_555
Na28 O126 2.676004 1_555
Na28 O130 2.800754 1_555
Na29 O127 2.237251 1_555
Na29 O143 2.380683 1_555
Na29 O129 2.532163 1_555
Na29 O141 2.856930 1_555
Na29 O131 2.857588 1_555
Ga0 O2 1.843656 1_555
Ga0 O4 1.932245 1_565
Ga0 O73 1.973131 1_555
Ga0 O74 2.085175 1_555
Ga0 O1 2.140011 1_565
Ga1 O13 1.840320 1_455
Ga1 O16 1.900158 1_555
Ga1 O86 1.965453 1_565
Ga1 O14 2.143259 1_565
Ga1 O89 2.284256 1_455
Ga1 O85 2.314495 1_465
Ga2 O21 1.880673 1_555
Ga2 O18 1.898099 1_545
Ga2 O95 1.942329 1_555
Ga2 O23 2.095317 1_545
Ga2 O92 2.155495 1_555
Ga2 O90 2.359937 1_545
Ga3 O26 1.859357 1_555
Ga3 O96 1.882856 1_555
Ga3 O28 2.004345 1_555
Ga3 O24 2.081531 1_555
Ga3 O98 2.106476 1_555
Ga3 O100 2.279309 1_555
Ga4 O27 1.839147 1_555
Ga4 O97 1.879212 1_555
Ga4 O101 1.955357 1_555
Ga4 O25 2.033094 1_555
Ga4 O99 2.169574 1_555
Ga4 O29 2.307718 1_555
Ga5 O34 1.891922 1_555
Ga5 O102 1.906482 1_555
Ga5 O104 2.038870 1_555
Ga5 O30 2.066188 1_555
Ga5 O106 2.233285 1_555
Ga5 O32 2.263924 1_555
Ga6 O118 1.887003 1_555
Ga6 O42 1.903427 1_555
Ga6 O44 2.009914 1_555
Ga6 O46 2.015943 1_555
Ga6 O116 2.232091 1_555
Ga6 O114 2.379708 1_555
Ga7 O43 1.827776 1_555
Ga7 O119 1.859269 1_555
Ga7 O45 1.968737 1_555
Ga7 O47 2.113759 1_555
Ga7 O117 2.281363 1_555
Ga7 O115 2.441204 1_555
Ga8 O51 1.844292 1_554
Ga8 O121 1.891286 1_555
Ga8 O49 2.015227 1_554
Ga8 O123 2.185222 1_555
Ga8 O53 2.203767 1_554
Ga8 O125 2.221093 1_555
Ga9 O59 1.806239 1_555
Ga9 O127 1.840977 1_555
Ga9 O55 1.947261 1_555
Ga9 O131 2.214922 1_555
Ga9 O57 2.461619 1_555
Ga9 O129 2.571305 1_555
Ga10 O136 1.903843 1_555
Ga10 O60 1.923680 1_555
Ga10 O134 2.055640 1_555
Ga10 O64 2.068088 1_555
Ga10 O132 2.251895 1_555
Ga10 O62 2.311578 1_555
Ga11 O61 1.888392 1_555
Ga11 O137 1.915944 1_555
Ga11 O135 1.918596 1_555
Ga11 O65 1.959268 1_555
Ga11 O63 2.390889 1_555
Ga11 O133 2.453742 1_555
O0 S0 1.495972 1_555
O0 Y0 2.365275 1_445
O1 S1 1.484405 1_545
O2 Si0 1.633303 1_555
O3 Si1 1.634972 1_555
O3 Y0 2.105899 1_555
O4 Si3 1.646946 1_555
O5 Si2 1.621119 1_655
O5 Y0 2.133844 1_545
O6 S2 1.484865 1_555
O6 Y1 2.367276 1_445
O7 S3 1.484798 1_555
O7 Y2 2.279028 1_555
O8 S4 1.487376 1_555
O8 Y2 2.388873 1_565
O9 Si4 1.627786 1_555
O9 Y1 2.195518 1_555
O10 Si5 1.645369 1_555
O10 Y2 2.105589 1_555
O11 Si6 1.636833 1_555
O11 Y1 2.086764 1_545
O12 Si5 1.623023 1_565
O12 Y3 2.209623 1_565
O13 Si6 1.641797 1_565
O14 S2 1.478220 1_555
O15 S3 1.470766 1_555
O15 Y3 2.230608 1_555
O16 Si4 1.657167 1_455
O17 S4 1.473114 1_555
O17 Y3 2.229187 1_565
O18 Si0 1.643589 1_555
O19 Si1 1.633463 1_555
O19 Y4 2.179662 1_565
O20 Si2 1.640444 1_555
O20 Y4 2.158814 1_455
O21 Si3 1.641964 1_555
O22 S0 1.488491 1_565
O22 Y4 2.294782 1_465
O23 S1 1.479637 1_555
O24 S5 1.494241 1_555
O25 S6 1.487886 1_555
O26 Si7 1.645579 1_555
O27 Si8 1.625767 1_555
O28 S7 1.468704 1_555
O29 S8 1.488190 1_555
O30 S9 1.505649 1_555
O31 S10 1.481096 1_555
O31 Y5 2.253110 1_555
O32 S11 1.469912 1_555
O33 S12 1.486726 1_555
O33 Y5 2.421893 1_555
O34 Si9 1.664623 1_555
O35 Si10 1.622444 1_555
O35 Y5 2.121905 1_555
O36 Si9 1.638079 1_555
O36 Y6 2.139277 1_554
O37 Si10 1.625312 1_555
O37 Y7 2.199018 1_554
O38 S9 1.494509 1_555
O38 Y6 2.237367 1_554
O39 S10 1.472408 1_555
O39 Y7 2.244118 1_554
O40 S11 1.499638 1_555
O40 Y6 2.222931 1_554
O41 S12 1.477453 1_555
O41 Y7 2.217203 1_554
O42 Si7 1.673900 1_555
O43 Si8 1.641007 1_555
O44 S7 1.477581 1_555
O45 S8 1.503618 1_555
O46 S5 1.482664 1_555
O47 S6 1.475773 1_555
O48 S13 1.474753 1_555
O48 Y8 2.209562 1_556
O49 S14 1.482701 1_555
O50 Si11 1.669956 1_555
O50 Y8 2.123240 1_556
O51 Si12 1.657850 1_555
O52 S15 1.471395 1_555
O52 Y8 2.331567 1_556
O53 S16 1.474363 1_555
O54 S17 1.504270 1_555
O54 Y9 2.259910 1_555
O55 S18 1.486019 1_555
O56 S19 1.481131 1_555
O56 Y9 2.242637 1_555
O57 S20 1.485552 1_555
O58 Si13 1.631058 1_555
O58 Y9 2.062032 1_555
O59 Si14 1.643137 1_555
O60 Si13 1.680782 1_555
O61 Si14 1.655582 1_555
O62 S17 1.482626 1_555
O63 S18 1.473406 1_555
O64 S19 1.477171 1_555
O65 S20 1.506505 1_555
O66 Si11 1.644642 1_555
O66 Y10 2.122938 1_555
O67 Si12 1.636380 1_555
O67 Y11 2.155149 1_555
O68 S15 1.486015 1_555
O68 Y10 2.270926 1_555
O69 S16 1.485629 1_555
O69 Y11 2.183992 1_555
O70 S13 1.470020 1_555
O70 Y10 2.286418 1_555
O71 S14 1.479525 1_555
O71 Y11 2.256008 1_555
O72 Si13 1.641535 1_555
O72 Y0 2.194549 1_455
O73 Si14 1.677312 1_555
O74 S17 1.474800 1_555
O75 S18 1.507441 1_555
O75 Y0 2.246589 1_555
O76 S19 1.491025 1_555
O76 Y0 2.405459 1_445
O77 S20 1.486329 1_555
O78 Si11 1.642116 1_555
O78 Y1 2.242387 1_445
O79 Si12 1.660272 1_555
O79 Y2 2.157789 1_555
O80 S15 1.473322 1_555
O80 Y1 2.431233 1_455
O81 S16 1.485393 1_555
O81 Y2 2.489121 1_565
O82 S13 1.477444 1_555
O82 Y2 2.229378 1_565
O83 S14 1.471035 1_555
O83 Y1 2.315990 1_555
O84 S5 1.490757 1_555
O84 Y3 2.365653 1_555
O85 S6 1.464403 1_555
O86 Si7 1.667340 1_555
O87 Si8 1.645650 1_555
O87 Y3 2.141713 1_555
O88 S7 1.484432 1_555
O88 Y3 2.328941 1_565
O89 S8 1.505542 1_555
O90 S9 1.454692 1_555
O91 S10 1.464039 1_555
O91 Y4 2.355525 1_565
O92 S11 1.484412 1_555
O93 S12 1.490127 1_555
O93 Y4 2.352139 1_555
O94 Si9 1.645110 1_555
O94 Y4 2.211770 1_455
O95 Si10 1.662317 1_555
O96 Si5 1.679599 1_555
O97 Si6 1.637837 1_555
O98 S2 1.481952 1_555
O99 S3 1.470773 1_555
O100 S4 1.476217 1_555
O101 Si4 1.649469 1_555
O102 Si0 1.660923 1_555
O103 Si1 1.636042 1_555
O103 Y5 2.164113 1_555
O104 Si3 1.680515 1_555
O105 Si2 1.639917 1_655
O105 Y5 2.242389 1_555
O106 S0 1.464349 1_555
O107 S1 1.493614 1_545
O107 Y5 2.281116 1_555
O108 S13 1.476917 1_555
O108 Y6 2.347455 1_555
O109 S14 1.476761 1_555
O109 Y7 2.306359 1_555
O110 Si12 1.622935 1_555
O110 Y6 2.154249 1_555
O111 Si11 1.629643 1_655
O111 Y7 2.150819 1_555
O112 S15 1.485282 1_545
O112 Y6 2.371572 1_555
O113 S16 1.479647 1_545
O113 Y7 2.289026 1_555
O114 S17 1.495720 1_545
O115 S18 1.479842 1_545
O116 S19 1.487424 1_555
O117 S20 1.498267 1_555
O118 Si14 1.663390 1_555
O119 Si13 1.664119 1_655
O120 Si9 1.665835 1_555
O120 Y8 2.178035 1_555
O121 Si10 1.684995 1_555
O122 S10 1.483355 1_455
O122 Y8 2.267884 1_555
O123 S9 1.495297 1_555
O124 S11 1.472914 1_565
O124 Y8 2.392146 1_555
O125 S12 1.475507 1_565
O126 Si7 1.672429 1_565
O126 Y9 2.218749 1_555
O127 Si8 1.683901 1_565
O128 S7 1.495624 1_555
O128 Y9 2.384783 1_555
O129 S8 1.469462 1_555
O130 S6 1.512805 1_455
O130 Y9 2.251730 1_555
O131 S5 1.485040 1_555
O132 S0 1.476760 1_565
O133 S1 1.479897 1_555
O134 Si0 1.672621 1_555
O135 Si1 1.666946 1_555
O136 Si2 1.663884 1_555
O137 Si3 1.645951 1_555
O138 S2 1.483244 1_555
O138 Y10 2.364080 1_555
O139 S3 1.480243 1_555
O139 Y11 2.364450 1_555
O140 Si4 1.642600 1_455
O140 Y10 2.195664 1_555
O141 S4 1.488675 1_555
O141 Y11 2.305992 1_555
O142 Si5 1.629384 1_565
O142 Y10 2.232645 1_555
O143 Si6 1.646546 1_565
O143 Y11 2.192919 1_555
