# generated using pymatgen
data_NpAl3
_symmetry_space_group_name_H-M   'P 1'
_cell_length_a   6.36553761
_cell_length_b   6.19114970
_cell_length_c   4.63661517
_cell_angle_alpha   90.00000000
_cell_angle_beta   90.00000000
_cell_angle_gamma   120.79347990
_symmetry_Int_Tables_number   1
_chemical_formula_structural   NpAl3
_chemical_formula_sum   'Np2 Al6'
_cell_volume   156.96751774
_cell_formula_units_Z   2
loop_
 _symmetry_equiv_pos_site_id
 _symmetry_equiv_pos_as_xyz
  1  'x, y, z'
loop_
 _atom_site_type_symbol
 _atom_site_label
 _atom_site_symmetry_multiplicity
 _atom_site_fract_x
 _atom_site_fract_y
 _atom_site_fract_z
 _atom_site_occupancy
  Np  Np0  1  0.34224599  0.68293976  0.75000000  1
  Np  Np1  1  0.65775694  0.31705898  0.25000000  1
  Al  Al0  1  0.15251318  0.30638455  0.25000000  1
  Al  Al1  1  0.70929055  0.84751433  0.25000000  1
  Al  Al2  1  0.13872717  0.84644129  0.25000000  1
  Al  Al3  1  0.84750590  0.69365662  0.75000000  1
  Al  Al4  1  0.29067285  0.15248024  0.75000000  1
  Al  Al5  1  0.86128742  0.15352422  0.75000000  1
loop_
_geom_bond_atom_site_label_1
_geom_bond_atom_site_label_2
_geom_bond_distance
_geom_bond_site_symmetry_2
Al0 Al1 2.797171 1_445
Al0 Al2 2.803665 1_545
Al0 Al5 2.812556 1_455
Al0 Al5 2.812556 1_454
Al0 Al4 2.813170 1_554
Al0 Al4 2.813170 1_555
Al0 Np0 3.063545 1_554
Al0 Np0 3.063545 1_555
Al0 Np1 3.182822 1_555
Al0 Np1 3.183729 1_455
Al1 Al2 2.737002 1_655
Al1 Al3 2.813198 1_554
Al1 Al3 2.813198 1_555
Al1 Al5 2.832520 1_564
Al1 Al5 2.832520 1_565
Al1 Np0 3.071510 1_555
Al1 Np0 3.071510 1_554
Al1 Np1 3.087844 1_565
Al1 Np1 3.128905 1_555
Al2 Al3 2.812542 1_455
Al2 Al3 2.812542 1_454
Al2 Al4 2.832609 1_564
Al2 Al4 2.832609 1_565
Al2 Np0 3.069248 1_555
Al2 Np0 3.069248 1_554
Al2 Np1 3.090109 1_565
Al2 Np1 3.137089 1_455
Al3 Al4 2.796854 1_665
Al3 Al5 2.803211 1_565
Al3 Np1 3.063693 1_556
Al3 Np1 3.063693 1_555
Al3 Np0 3.182794 1_555
Al3 Np0 3.183764 1_655
Al4 Al5 2.736584 1_455
Al4 Np1 3.071657 1_555
Al4 Np1 3.071657 1_556
Al4 Np0 3.087966 1_545
Al4 Np0 3.128822 1_555
Al5 Np1 3.069404 1_555
Al5 Np1 3.069404 1_556
Al5 Np0 3.090071 1_545
Al5 Np0 3.137168 1_655
