# generated using pymatgen
data_Na10Zr2Zn6Si3(S3O16)3
_symmetry_space_group_name_H-M   'P 1'
_cell_length_a   18.02835935
_cell_length_b   9.04738769
_cell_length_c   22.63911343
_cell_angle_alpha   90.26779540
_cell_angle_beta   89.82519476
_cell_angle_gamma   119.93788286
_symmetry_Int_Tables_number   1
_chemical_formula_structural   Na10Zr2Zn6Si3(S3O16)3
_chemical_formula_sum   'Na30 Zr6 Zn18 Si9 S27 O144'
_cell_volume   3199.89745109
_cell_formula_units_Z   3
loop_
 _symmetry_equiv_pos_site_id
 _symmetry_equiv_pos_as_xyz
  1  'x, y, z'
loop_
 _atom_site_type_symbol
 _atom_site_label
 _atom_site_symmetry_multiplicity
 _atom_site_fract_x
 _atom_site_fract_y
 _atom_site_fract_z
 _atom_site_occupancy
  Na  Na0  1  0.31754464  0.00541906  0.24586634  1
  Na  Na1  1  0.18863514  0.35992217  0.24913086  1
  Na  Na2  1  0.49784260  0.63263854  0.25324207  1
  Na  Na3  1  0.31001871  0.62020009  0.74381312  1
  Na  Na4  1  0.81709979  0.63046291  0.74514413  1
  Na  Na5  1  0.00075767  0.35970625  0.75250933  1
  Na  Na6  1  0.18416495  0.01343261  0.75454158  1
  Na  Na7  1  0.68918884  0.01850938  0.74906299  1
  Na  Na8  1  0.15973554  0.34907416  0.58573491  1
  Na  Na9  1  0.82765741  0.69938169  0.08049702  1
  Na  Na10  1  0.48157362  0.65765261  0.91808897  1
  Na  Na11  1  0.35180165  0.03942066  0.91696531  1
  Na  Na12  1  0.85469382  0.04106078  0.92019052  1
  Na  Na13  1  0.66178868  0.30103683  0.91793632  1
  Na  Na14  1  0.98000476  0.30284108  0.41674220  1
  Na  Na15  1  0.16079310  0.02167174  0.41664350  1
  Na  Na16  1  0.35473033  0.66741913  0.42086753  1
  Na  Na17  1  0.85132955  0.66360910  0.41608095  1
  Na  Na18  1  0.99453781  0.97843494  0.49684649  1
  Na  Na19  1  0.50356755  0.00229773  0.49706084  1
  Na  Na20  1  0.00826112  0.01591070  0.99602808  1
  Na  Na21  1  0.50020123  0.01109772  0.99711819  1
  Na  Na22  1  0.32853290  0.32847864  0.83428268  1
  Na  Na23  1  0.83559152  0.33454706  0.83061758  1
  Na  Na24  1  0.33558196  0.33534378  0.33052927  1
  Na  Na25  1  0.82888399  0.33033775  0.33261564  1
  Na  Na26  1  0.16429122  0.67101902  0.16070476  1
  Na  Na27  1  0.67440017  0.68642906  0.16252663  1
  Na  Na28  1  0.17271356  0.66729653  0.66145131  1
  Na  Na29  1  0.66502016  0.65713281  0.66011871  1
  Zr  Zr0  1  0.99641607  0.00359243  0.65053352  1
  Zr  Zr1  1  0.50082430  0.00587375  0.64333368  1
  Zr  Zr2  1  0.00007781  0.00163991  0.14633209  1
  Zr  Zr3  1  0.49731244  0.99474109  0.14842021  1
  Zr  Zr4  1  0.16068483  0.67089637  0.31346944  1
  Zr  Zr5  1  0.66142412  0.65069794  0.81436792  1
  Zn  Zn0  1  0.00277885  0.97223890  0.34636303  1
  Zn  Zn1  1  0.50352522  0.99839254  0.34747914  1
  Zn  Zn2  1  0.00589998  0.02272286  0.84468331  1
  Zn  Zn3  1  0.50583551  0.03483735  0.84784271  1
  Zn  Zn4  1  0.32780149  0.34516049  0.67771748  1
  Zn  Zn5  1  0.82643993  0.31830210  0.68373000  1
  Zn  Zn6  1  0.32710833  0.33537387  0.18418012  1
  Zn  Zn7  1  0.83045261  0.31476159  0.17699965  1
  Zn  Zn8  1  0.33256181  0.32898825  0.98302411  1
  Zn  Zn9  1  0.84251302  0.32795176  0.99361971  1
  Zn  Zn10  1  0.34537340  0.35485263  0.49236875  1
  Zn  Zn11  1  0.83172304  0.33580491  0.48240051  1
  Zn  Zn12  1  0.16422593  0.66361441  0.01359196  1
  Zn  Zn13  1  0.66287603  0.66559714  0.01994231  1
  Zn  Zn14  1  0.16936652  0.67985605  0.51887883  1
  Zn  Zn15  1  0.66386206  0.66315748  0.51386488  1
  Zn  Zn16  1  0.67121904  0.66748760  0.32082802  1
  Zn  Zn17  1  0.16451559  0.64824168  0.82045202  1
  Si  Si0  1  0.14901248  0.00718115  0.25109007  1
  Si  Si1  1  0.35437764  0.70318441  0.25453271  1
  Si  Si2  1  0.15214065  0.29982189  0.75173650  1
  Si  Si3  1  0.64896828  0.29092464  0.75114792  1
  Si  Si4  1  0.85197564  0.00435643  0.75507817  1
  Si  Si5  1  0.32960392  0.63149513  0.58020921  1
  Si  Si6  1  0.82724806  0.02987156  0.08061567  1
  Si  Si7  1  0.51711851  0.37101398  0.92271185  1
  Si  Si8  1  0.01684611  0.66349090  0.42269858  1
  S  S0  1  0.64929017  0.00312185  0.25202375  1
  S  S1  1  0.84865106  0.69671880  0.25017182  1
  S  S2  1  0.99542718  0.28815257  0.25327898  1
  S  S3  1  0.50440930  0.29815918  0.25157177  1
  S  S4  1  0.00143770  0.70865035  0.75143816  1
  S  S5  1  0.49811681  0.70907336  0.75214556  1
  S  S6  1  0.35264635  0.00266385  0.75108777  1
  S  S7  1  0.48116632  0.34080248  0.58348003  1
  S  S8  1  0.97778620  0.33273218  0.58338116  1
  S  S9  1  0.18682362  0.03766260  0.58345051  1
  S  S10  1  0.68884493  0.03614235  0.58153178  1
  S  S11  1  0.83095682  0.62531615  0.58285155  1
  S  S12  1  0.47845221  0.62261576  0.08436181  1
  S  S13  1  0.98174249  0.62407307  0.08356709  1
  S  S14  1  0.33127070  0.03669909  0.08319431  1
  S  S15  1  0.18866949  0.34107787  0.08185796  1
  S  S16  1  0.68773493  0.33283647  0.08299404  1
  S  S17  1  0.31313103  0.66588243  0.91678159  1
  S  S18  1  0.81789506  0.66584242  0.91815468  1
  S  S19  1  0.01859636  0.37403955  0.91730574  1
  S  S20  1  0.16385666  0.95370942  0.91637601  1
  S  S21  1  0.66616779  0.96273715  0.91697956  1
  S  S22  1  0.31701735  0.96818798  0.41769331  1
  S  S23  1  0.81121912  0.95757329  0.41676457  1
  S  S24  1  0.16607822  0.36874630  0.41727250  1
  S  S25  1  0.66357405  0.37089917  0.41666025  1
  S  S26  1  0.52105281  0.66620190  0.41545968  1
  O  O0  1  0.11249014  0.04945786  0.31040078  1
  O  O1  1  0.60905441  0.02651039  0.30487220  1
  O  O2  1  0.41178590  0.78970610  0.31250336  1
  O  O3  1  0.89942911  0.77716972  0.30452134  1
  O  O4  1  0.48990251  0.18944981  0.30327192  1
  O  O5  1  0.98593524  0.19076999  0.30710241  1
  O  O6  1  0.10960185  0.16741499  0.80510636  1
  O  O7  1  0.61360193  0.17662146  0.81044721  1
  O  O8  1  0.48499873  0.78460740  0.80638000  1
  O  O9  1  0.98381156  0.78356006  0.80343360  1
  O  O10  1  0.40051411  0.02039061  0.80615332  1
  O  O11  1  0.90684592  0.03056260  0.81408457  1
  O  O12  1  0.39591966  0.97161908  0.69952679  1
  O  O13  1  0.89665570  0.95946516  0.69798912  1
  O  O14  1  0.08907978  0.20782239  0.69144992  1
  O  O15  1  0.58654665  0.19353414  0.69515012  1
  O  O16  1  0.01510412  0.81932419  0.69761812  1
  O  O17  1  0.51092242  0.81883276  0.69983410  1
  O  O18  1  0.40112434  0.83688311  0.19770437  1
  O  O19  1  0.89294939  0.80895369  0.19695483  1
  O  O20  1  0.00909819  0.20382360  0.20035165  1
  O  O21  1  0.51606036  0.21343609  0.19715504  1
  O  O22  1  0.08713060  0.98017822  0.19472616  1
  O  O23  1  0.59168385  0.97841125  0.19860248  1
  O  O24  1  0.43927630  0.35782661  0.63663250  1
  O  O25  1  0.93639427  0.34807653  0.63746648  1
  O  O26  1  0.23628043  0.11897502  0.63767265  1
  O  O27  1  0.73575505  0.10828719  0.63764876  1
  O  O28  1  0.31283825  0.51826683  0.64003727  1
  O  O29  1  0.82326295  0.52849623  0.63734587  1
  O  O30  1  0.43622936  0.52239626  0.13790119  1
  O  O31  1  0.94173391  0.52531487  0.13712965  1
  O  O32  1  0.32316280  0.11815029  0.13762311  1
  O  O33  1  0.81647981  0.11896361  0.13881109  1
  O  O34  1  0.23588402  0.36351144  0.13776948  1
  O  O35  1  0.74207045  0.35911303  0.13494281  1
  O  O36  1  0.22930517  0.31098582  0.03045980  1
  O  O37  1  0.72408315  0.30731165  0.02746503  1
  O  O38  1  0.42732145  0.55232967  0.03003773  1
  O  O39  1  0.92696493  0.55347663  0.03021783  1
  O  O40  1  0.34483662  0.13872178  0.02947421  1
  O  O41  1  0.84811667  0.13532144  0.01870960  1
  O  O42  1  0.22573716  0.14273648  0.52964260  1
  O  O43  1  0.72955316  0.14657840  0.53039271  1
  O  O44  1  0.34651279  0.55365588  0.51973804  1
  O  O45  1  0.84358731  0.54767655  0.52902097  1
  O  O46  1  0.43010455  0.30570015  0.52906924  1
  O  O47  1  0.92751638  0.30608891  0.52932963  1
  O  O48  1  0.27179209  0.69686338  0.96818943  1
  O  O49  1  0.77799615  0.69458558  0.97050594  1
  O  O50  1  0.07146198  0.46100866  0.96899377  1
  O  O51  1  0.58513007  0.46601760  0.97478446  1
  O  O52  1  0.15593818  0.85021209  0.96895355  1
  O  O53  1  0.65679278  0.85737050  0.96838656  1
  O  O54  1  0.27676982  0.85547848  0.46838539  1
  O  O55  1  0.77221689  0.84698966  0.46915562  1
  O  O56  1  0.15663108  0.45243053  0.47010701  1
  O  O57  1  0.65199459  0.45118725  0.47019962  1
  O  O58  1  0.08479763  0.70507622  0.47485433  1
  O  O59  1  0.57264310  0.68386560  0.46772734  1
  O  O60  1  0.06269909  0.63216908  0.36258350  1
  O  O61  1  0.56058075  0.64895235  0.35951253  1
  O  O62  1  0.26200675  0.88310967  0.36249210  1
  O  O63  1  0.76080919  0.88042016  0.36261873  1
  O  O64  1  0.17955247  0.47827261  0.36330054  1
  O  O65  1  0.67999299  0.48056671  0.36346963  1
  O  O66  1  0.05657782  0.46797912  0.86110105  1
  O  O67  1  0.56202831  0.49343421  0.86271656  1
  O  O68  1  0.17912151  0.87673656  0.86125975  1
  O  O69  1  0.67947716  0.88272236  0.86191974  1
  O  O70  1  0.26530318  0.64545079  0.86108559  1
  O  O71  1  0.76112688  0.64145045  0.86388197  1
  O  O72  1  0.00515365  0.83224236  0.41457963  1
  O  O73  1  0.51005586  0.82032592  0.41388546  1
  O  O74  1  0.40260583  0.98622977  0.40992968  1
  O  O75  1  0.89963300  0.97890339  0.41142888  1
  O  O76  1  0.08558385  0.20092414  0.41174439  1
  O  O77  1  0.58695127  0.19896356  0.40970258  1
  O  O78  1  0.00841113  0.19918777  0.91541978  1
  O  O79  1  0.50546409  0.17870743  0.91511216  1
  O  O80  1  0.08701679  0.97053024  0.91226622  1
  O  O81  1  0.58537585  0.96985190  0.91218926  1
  O  O82  1  0.40122212  0.82041029  0.91247897  1
  O  O83  1  0.90261919  0.81845651  0.90998355  1
  O  O84  1  0.49145812  0.18368288  0.58873162  1
  O  O85  1  0.98828371  0.17297260  0.58720288  1
  O  O86  1  0.09931480  0.02748594  0.58797500  1
  O  O87  1  0.60051202  0.01883899  0.58708674  1
  O  O88  1  0.41671983  0.82217904  0.58953342  1
  O  O89  1  0.91163057  0.80071458  0.58735878  1
  O  O90  1  0.48848547  0.80202239  0.09074131  1
  O  O91  1  0.98846408  0.79912646  0.08903048  1
  O  O92  1  0.41267280  0.02237637  0.08829198  1
  O  O93  1  0.91482691  0.00437917  0.08966037  1
  O  O94  1  0.10024839  0.18313204  0.08750402  1
  O  O95  1  0.59994668  0.17473862  0.09005108  1
  O  O96  1  0.34417407  0.15453948  0.74304155  1
  O  O97  1  0.84688882  0.17628847  0.74443630  1
  O  O98  1  0.24744974  0.31940154  0.74510700  1
  O  O99  1  0.74651098  0.32583261  0.74354874  1
  O  O100  1  0.42525419  0.53608523  0.74455295  1
  O  O101  1  0.92650082  0.53660196  0.74201424  1
  O  O102  1  0.34748034  0.51885440  0.24475816  1
  O  O103  1  0.84194917  0.52862730  0.24211217  1
  O  O104  1  0.42548877  0.31060728  0.24374771  1
  O  O105  1  0.92404538  0.31971098  0.24564079  1
  O  O106  1  0.24626793  0.16785833  0.24360781  1
  O  O107  1  0.73382635  0.15382189  0.24473398  1
  O  O108  1  0.32295817  0.51306436  0.92297383  1
  O  O109  1  0.81998422  0.50418348  0.92123825  1
  O  O110  1  0.42167974  0.35427005  0.92434130  1
  O  O111  1  0.93121520  0.35619757  0.92035563  1
  O  O112  1  0.24401625  0.12603439  0.92151558  1
  O  O113  1  0.74149159  0.13748333  0.91927812  1
  O  O114  1  0.31906761  0.13375147  0.42223138  1
  O  O115  1  0.82190056  0.13107325  0.42322357  1
  O  O116  1  0.24175041  0.34461519  0.41886884  1
  O  O117  1  0.74339905  0.35786806  0.42182757  1
  O  O118  1  0.43319826  0.51032638  0.41824050  1
  O  O119  1  0.92183997  0.48972283  0.42399737  1
  O  O120  1  0.17708541  0.49169983  0.07550157  1
  O  O121  1  0.67704551  0.48397599  0.08025206  1
  O  O122  1  0.06852317  0.64796533  0.07661582  1
  O  O123  1  0.56467408  0.64637722  0.08070372  1
  O  O124  1  0.25653533  0.86247609  0.07829682  1
  O  O125  1  0.74741400  0.83160984  0.07626613  1
  O  O126  1  0.17411892  0.86548294  0.58047381  1
  O  O127  1  0.67701536  0.86256469  0.57522613  1
  O  O128  1  0.24140272  0.64280481  0.57543791  1
  O  O129  1  0.75532310  0.64808716  0.57827193  1
  O  O130  1  0.06556708  0.47868110  0.58030836  1
  O  O131  1  0.56809291  0.49279495  0.57807293  1
  O  O132  1  0.15873983  0.83394375  0.25482157  1
  O  O133  1  0.65072572  0.83916773  0.25405722  1
  O  O134  1  0.25754750  0.68001094  0.25695897  1
  O  O135  1  0.76355977  0.68504627  0.25398760  1
  O  O136  1  0.08010427  0.45690747  0.25511762  1
  O  O137  1  0.57930257  0.47160454  0.25535167  1
  O  O138  1  0.15646269  0.48670012  0.75508296  1
  O  O139  1  0.65830159  0.48322999  0.75500498  1
  O  O140  1  0.08067761  0.69762750  0.75547327  1
  O  O141  1  0.58100875  0.70550763  0.75534545  1
  O  O142  1  0.26561645  0.84624805  0.75378697  1
  O  O143  1  0.75505227  0.83454499  0.75720437  1
loop_
_geom_bond_atom_site_label_1
_geom_bond_atom_site_label_2
_geom_bond_distance
_geom_bond_site_symmetry_2
Na0 O106 2.387421 1_555
Na0 O104 2.459840 1_555
Na0 O132 2.492139 1_545
Na0 O134 2.593738 1_545
Na0 O32 2.640898 1_555
Na0 O18 2.837616 1_545
Na0 O62 2.846670 1_545
Na0 O4 2.992848 1_555
Na1 O106 2.431871 1_555
Na1 O102 2.483512 1_555
Na1 O136 2.515481 1_555
Na1 O134 2.523283 1_555
Na1 O34 2.653821 1_555
Na1 O0 2.806152 1_555
Na1 O64 2.828528 1_555
Na2 O102 2.379278 1_555
Na2 O133 2.438881 1_555
Na2 O137 2.533457 1_555
Na2 O104 2.537509 1_555
Na2 O61 2.633620 1_555
Na2 O30 2.816849 1_555
Na2 O2 2.897656 1_555
Na2 O23 2.986581 1_555
Na3 O98 2.369810 1_555
Na3 O138 2.418455 1_555
Na3 O28 2.529535 1_555
Na3 O100 2.544376 1_555
Na3 O142 2.550106 1_555
Na3 O70 2.813519 1_555
Na3 O12 2.935647 1_555
Na4 O99 2.390704 1_555
Na4 O139 2.492544 1_555
Na4 O101 2.507296 1_555
Na4 O143 2.605771 1_555
Na4 O29 2.626567 1_555
Na4 O13 2.795732 1_555
Na4 O71 2.887079 1_555
Na4 O9 2.923205 1_555
Na5 O97 2.426491 1_455
Na5 O138 2.446329 1_555
Na5 O101 2.560098 1_455
Na5 O66 2.650431 1_555
Na5 O140 2.651320 1_555
Na5 O25 2.834571 1_455
Na5 O14 2.913302 1_555
Na5 O11 2.944431 1_455
Na6 O98 2.421160 1_555
Na6 O140 2.514872 1_545
Na6 O96 2.518295 1_555
Na6 O142 2.580906 1_545
Na6 O6 2.627392 1_555
Na6 O68 2.699857 1_545
Na6 O26 2.812088 1_555
Na6 O16 2.948687 1_545
Na7 O99 2.439062 1_555
Na7 O97 2.465868 1_555
Na7 O143 2.488161 1_545
Na7 O141 2.516499 1_545
Na7 O27 2.655607 1_555
Na7 O7 2.783897 1_555
Na7 O69 2.807087 1_545
Na8 O128 2.320068 1_555
Na8 O130 2.502379 1_555
Na8 O86 2.547976 1_555
Na8 O85 2.679215 1_455
Na8 O28 2.694264 1_555
Na8 O14 2.714552 1_555
Na8 O56 2.793920 1_555
Na8 O42 2.949447 1_555
Na9 O125 2.294014 1_555
Na9 O93 2.407374 1_565
Na9 O121 2.426743 1_555
Na9 O91 2.578150 1_555
Na9 O49 2.641568 1_554
Na9 O19 2.854691 1_555
Na9 O39 2.928488 1_555
Na9 O35 2.942819 1_555
Na10 O110 2.400928 1_555
Na10 O108 2.483215 1_555
Na10 O81 2.494846 1_555
Na10 O82 2.532769 1_555
Na10 O38 2.713877 1_556
Na10 O8 2.770257 1_555
Na10 O67 2.829353 1_555
Na10 O53 2.974198 1_555
Na11 O79 2.404072 1_555
Na11 O112 2.432816 1_555
Na11 O110 2.478762 1_555
Na11 O82 2.547559 1_545
Na11 O10 2.688462 1_555
Na11 O40 2.720276 1_556
Na11 O48 2.931231 1_545
Na11 O68 2.980193 1_545
Na12 O78 2.404311 1_655
Na12 O41 2.407801 1_556
Na12 O111 2.471094 1_555
Na12 O83 2.566582 1_545
Na12 O113 2.589207 1_555
Na12 O11 2.595486 1_555
Na13 O79 2.461468 1_555
Na13 O109 2.507110 1_555
Na13 O113 2.525507 1_555
Na13 O81 2.601979 1_545
Na13 O7 2.637180 1_555
Na13 O37 2.713876 1_556
Na13 O51 2.797237 1_555
Na13 O71 2.950742 1_555
Na14 O119 2.398200 1_555
Na14 O115 2.477791 1_555
Na14 O76 2.497110 1_655
Na14 O75 2.542171 1_545
Na14 O5 2.698823 1_555
Na14 O47 2.721292 1_555
Na14 O60 2.862342 1_655
Na15 O72 2.452105 1_545
Na15 O114 2.509840 1_555
Na15 O116 2.532249 1_555
Na15 O76 2.584243 1_555
Na15 O0 2.616038 1_555
Na15 O42 2.797681 1_555
Na15 O58 2.815250 1_545
Na15 O62 2.942667 1_545
Na16 O73 2.431665 1_555
Na16 O44 2.441067 1_555
Na16 O118 2.455673 1_555
Na16 O74 2.578089 1_555
Na16 O116 2.596559 1_555
Na16 O2 2.678568 1_555
Na16 O54 2.896233 1_555
Na17 O72 2.407555 1_655
Na17 O117 2.466626 1_555
Na17 O119 2.474504 1_555
Na17 O75 2.535645 1_555
Na17 O3 2.703313 1_555
Na17 O45 2.744805 1_555
Na17 O55 2.926342 1_555
Na17 O65 2.932710 1_555
Na18 O72 2.341418 1_655
Na18 O89 2.575196 1_555
Na18 O75 2.587367 1_555
Na18 O76 2.679029 1_665
Na18 O86 2.683256 1_665
Na18 O85 2.730927 1_565
Na19 O73 2.536112 1_545
Na19 O77 2.584979 1_555
Na19 O88 2.637233 1_545
Na19 O74 2.642031 1_545
Na19 O87 2.643619 1_555
Na19 O84 2.714921 1_555
Na20 O78 2.470548 1_555
Na20 O80 2.517654 1_545
Na20 O94 2.610613 1_556
Na20 O93 2.673299 1_456
Na20 O83 2.684663 1_445
Na20 O91 2.782556 1_446
Na21 O79 2.374226 1_555
Na21 O81 2.596392 1_545
Na21 O82 2.597970 1_545
Na21 O92 2.626754 1_556
Na21 O95 2.681182 1_556
Na21 O90 2.784087 1_546
Na22 O98 2.473058 1_555
Na22 O110 2.580053 1_555
Na22 O112 2.608911 1_555
Na22 O108 2.639248 1_555
Na22 O96 2.689199 1_555
Na22 O100 2.727663 1_555
Na23 O97 2.482098 1_555
Na23 O99 2.522367 1_555
Na23 O111 2.611185 1_555
Na23 O109 2.653621 1_555
Na23 O101 2.659954 1_555
Na23 O113 2.660699 1_555
Na24 O102 2.499043 1_555
Na24 O106 2.513425 1_555
Na24 O118 2.599524 1_555
Na24 O104 2.622160 1_555
Na24 O116 2.643441 1_555
Na24 O114 2.686042 1_555
Na25 O107 2.589416 1_555
Na25 O119 2.597887 1_555
Na25 O117 2.622164 1_555
Na25 O105 2.640433 1_555
Na25 O103 2.661134 1_555
Na25 O115 2.698190 1_555
Na26 O122 2.511060 1_555
Na26 O124 2.526408 1_555
Na26 O120 2.597611 1_555
Na26 O132 2.615221 1_555
Na26 O134 2.732388 1_555
Na26 O136 2.776512 1_555
Na27 O125 2.356737 1_555
Na27 O123 2.603171 1_555
Na27 O121 2.623245 1_555
Na27 O135 2.629046 1_555
Na27 O133 2.634806 1_555
Na27 O137 2.797031 1_555
Na28 O128 2.372679 1_555
Na28 O126 2.561577 1_555
Na28 O130 2.592335 1_555
Na28 O138 2.607608 1_555
Na28 O142 2.660717 1_555
Na28 O140 2.790470 1_555
Na29 O131 2.472858 1_555
Na29 O129 2.490717 1_555
Na29 O127 2.612391 1_555
Na29 O139 2.635233 1_555
Na29 O143 2.725846 1_555
Na29 O141 2.786774 1_555
O0 Si0 1.619870 1_555
O0 Zn0 1.918158 1_545
O1 S0 1.465598 1_555
O1 Zn1 2.030451 1_545
O2 Si1 1.611329 1_555
O2 Zn1 1.950483 1_555
O3 S1 1.488357 1_555
O3 Zn0 2.048570 1_655
O4 S3 1.468957 1_555
O4 Zn1 2.119268 1_545
O5 S2 1.465811 1_555
O5 Zn0 2.325643 1_645
O6 Si2 1.604354 1_555
O6 Zn2 1.889369 1_555
O7 Si3 1.621072 1_555
O7 Zn3 1.910359 1_555
O8 S5 1.477223 1_555
O8 Zn3 2.298050 1_565
O9 S4 1.466684 1_655
O9 Zn2 2.199097 1_665
O10 S6 1.480237 1_555
O10 Zn3 2.067672 1_555
O11 Si4 1.609434 1_555
O11 Zn2 1.951501 1_655
O12 S6 1.503392 1_565
O12 Zr1 2.166859 1_565
O13 Si4 1.673170 1_565
O13 Zr0 1.955458 1_565
O14 Si2 1.703652 1_555
O14 Zr0 1.993862 1_455
O15 Si3 1.630499 1_555
O15 Zr1 2.005145 1_555
O16 S4 1.520278 1_555
O16 Zr0 2.146760 1_465
O17 S5 1.490788 1_555
O17 Zr1 2.205015 1_565
O18 Si1 1.679004 1_555
O18 Zr3 1.955220 1_555
O19 S1 1.522022 1_555
O19 Zr2 2.174219 1_665
O20 S2 1.501979 1_455
O20 Zr2 2.133436 1_555
O21 S3 1.516466 1_555
O21 Zr3 2.135611 1_545
O22 Si0 1.632879 1_565
O22 Zr2 2.004435 1_565
O23 S0 1.537733 1_565
O23 Zr3 2.114568 1_555
O24 S7 1.466587 1_555
O24 Zn4 2.162618 1_555
O25 S8 1.473645 1_555
O25 Zn5 2.134483 1_555
O26 S9 1.478711 1_555
O26 Zn4 2.086539 1_555
O27 S10 1.484290 1_555
O27 Zn5 2.064663 1_555
O28 Si5 1.636080 1_555
O28 Zn4 1.920653 1_555
O29 S11 1.482014 1_555
O29 Zn5 2.202323 1_555
O30 S12 1.478672 1_555
O30 Zn6 2.124251 1_555
O31 S13 1.466477 1_555
O31 Zn7 2.158459 1_555
O32 S14 1.476723 1_555
O32 Zn6 2.195446 1_555
O33 Si6 1.602464 1_555
O33 Zn7 1.868313 1_555
O34 S15 1.483134 1_555
O34 Zn6 2.074727 1_555
O35 S16 1.473506 1_555
O35 Zn7 2.063356 1_555
O36 S15 1.468236 1_555
O36 Zn8 2.081336 1_554
O37 S16 1.485403 1_555
O37 Zn9 2.184951 1_554
O38 S12 1.476873 1_555
O38 Zn8 2.163296 1_554
O39 S13 1.487425 1_555
O39 Zn9 2.014698 1_554
O40 S14 1.474535 1_555
O40 Zn8 2.125240 1_554
O41 Si6 1.633085 1_555
O41 Zn9 1.885614 1_554
O42 S9 1.489885 1_555
O42 Zn10 2.218018 1_555
O43 S10 1.466636 1_555
O43 Zn11 2.088518 1_555
O44 Si5 1.632728 1_555
O44 Zn10 1.890045 1_555
O45 S11 1.476615 1_555
O45 Zn11 2.099379 1_555
O46 S7 1.475502 1_555
O46 Zn10 1.977570 1_555
O47 S8 1.470647 1_555
O47 Zn11 2.158904 1_555
O48 S17 1.479411 1_555
O48 Zn12 2.077532 1_556
O49 S18 1.472523 1_555
O49 Zn13 2.252566 1_556
O50 S19 1.465083 1_555
O50 Zn12 2.027205 1_556
O51 Si7 1.606046 1_555
O51 Zn13 1.932756 1_556
O52 S20 1.479859 1_555
O52 Zn12 2.040176 1_556
O53 S21 1.462921 1_555
O53 Zn13 2.143445 1_556
O54 S22 1.466530 1_555
O54 Zn14 2.124454 1_555
O55 S23 1.485273 1_555
O55 Zn15 2.089863 1_555
O56 S24 1.466957 1_555
O56 Zn14 2.239282 1_555
O57 S25 1.477147 1_555
O57 Zn15 2.067581 1_555
O58 Si8 1.606591 1_555
O58 Zn14 1.930953 1_555
O59 S26 1.465393 1_555
O59 Zn15 2.037259 1_555
O60 Si8 1.684993 1_555
O60 Zr4 1.963046 1_555
O61 S26 1.496696 1_555
O61 Zn16 2.104877 1_555
O62 S22 1.540924 1_555
O62 Zr4 2.178675 1_555
O63 S23 1.476962 1_555
O63 Zn16 2.025278 1_555
O64 S24 1.517621 1_555
O64 Zr4 2.244535 1_555
O65 S25 1.495997 1_555
O65 Zn16 2.024877 1_555
O66 S19 1.494723 1_555
O66 Zn17 2.031953 1_555
O67 Si7 1.685044 1_555
O67 Zr5 1.972647 1_555
O68 S20 1.516162 1_555
O68 Zn17 2.153320 1_555
O69 S21 1.516092 1_555
O69 Zr5 2.229489 1_555
O70 S17 1.487586 1_555
O70 Zn17 2.050535 1_555
O71 S18 1.544507 1_555
O71 Zr5 2.158179 1_555
O72 Si8 1.653271 1_555
O72 Zn0 2.015934 1_555
O73 S26 1.503803 1_555
O73 Zn1 2.254440 1_555
O74 S22 1.478399 1_555
O74 Zn1 2.259909 1_555
O75 S23 1.511473 1_555
O75 Zn0 2.392856 1_655
O76 S24 1.492330 1_555
O76 Zn0 2.366904 1_545
O77 S25 1.485618 1_555
O77 Zn1 2.191875 1_545
O78 S19 1.499197 1_555
O78 Zn2 2.240519 1_555
O79 Si7 1.653314 1_555
O79 Zn3 2.000932 1_555
O80 S20 1.470445 1_555
O80 Zn2 2.326418 1_565
O81 S21 1.494002 1_555
O81 Zn3 2.320858 1_565
O82 S17 1.506800 1_555
O82 Zn3 2.412389 1_565
O83 S18 1.472882 1_555
O83 Zn2 2.375284 1_665
O84 S7 1.527829 1_555
O84 Zr1 2.106062 1_555
O85 S8 1.551388 1_555
O85 Zr0 2.161390 1_555
O86 S9 1.536892 1_555
O86 Zr0 2.253994 1_455
O87 S10 1.525286 1_555
O87 Zr1 2.154581 1_555
O88 Si5 1.667840 1_555
O88 Zr1 2.005436 1_565
O89 S11 1.529608 1_555
O89 Zr0 2.222497 1_565
O90 S12 1.546980 1_555
O90 Zr3 2.115092 1_555
O91 S13 1.531349 1_555
O91 Zr2 2.163394 1_665
O92 S14 1.541035 1_555
O92 Zr3 2.154202 1_545
O93 Si6 1.718704 1_555
O93 Zr2 2.014748 1_655
O94 S15 1.525216 1_555
O94 Zr2 2.185700 1_555
O95 S16 1.522297 1_555
O95 Zr3 2.195335 1_545
O96 S6 1.468535 1_555
O96 Zn4 2.404816 1_555
O97 Si4 1.622396 1_555
O97 Zn5 2.041553 1_555
O98 Si2 1.643536 1_555
O98 Zn4 2.033035 1_555
O99 Si3 1.632820 1_555
O99 Zn5 2.000071 1_555
O100 S5 1.466770 1_555
O100 Zn4 2.307089 1_555
O101 S4 1.480989 1_655
O101 Zn5 2.308695 1_555
O102 Si1 1.623393 1_555
O102 Zn6 2.035839 1_555
O103 S1 1.474730 1_555
O103 Zn7 2.352605 1_555
O104 S3 1.493353 1_555
O104 Zn6 2.329958 1_555
O105 S2 1.461538 1_555
O105 Zn7 2.281192 1_555
O106 Si0 1.634818 1_555
O106 Zn6 2.008366 1_555
O107 S0 1.461319 1_555
O107 Zn7 2.231381 1_555
O108 S17 1.486301 1_555
O108 Zn8 2.227592 1_555
O109 S18 1.483718 1_555
O109 Zn9 2.463175 1_555
O110 Si7 1.650543 1_555
O110 Zn8 2.005402 1_555
O111 S19 1.502711 1_655
O111 Zn9 2.225657 1_555
O112 S20 1.511026 1_545
O112 Zn8 2.218771 1_555
O113 S21 1.484279 1_545
O113 Zn9 2.445022 1_555
O114 S22 1.482902 1_545
O114 Zn10 2.403274 1_555
O115 S23 1.489565 1_545
O115 Zn11 2.215404 1_555
O116 S24 1.485866 1_555
O116 Zn10 2.472286 1_555
O117 S25 1.506366 1_555
O117 Zn11 2.188386 1_555
O118 S26 1.507383 1_555
O118 Zn10 2.254946 1_555
O119 Si8 1.648822 1_655
O119 Zn11 2.018132 1_555
O120 S15 1.485749 1_555
O120 Zn12 2.195369 1_555
O121 S16 1.474691 1_555
O121 Zn13 2.252028 1_555
O122 S13 1.476636 1_455
O122 Zn12 2.185347 1_555
O123 S12 1.461229 1_555
O123 Zn13 2.176454 1_555
O124 S14 1.480455 1_565
O124 Zn12 2.270258 1_555
O125 Si6 1.649580 1_565
O125 Zn13 1.978337 1_555
O126 S9 1.458304 1_565
O126 Zn14 2.146527 1_555
O127 S10 1.481855 1_565
O127 Zn15 2.189157 1_555
O128 Si5 1.647477 1_555
O128 Zn14 1.971601 1_555
O129 S11 1.481188 1_555
O129 Zn15 2.259308 1_555
O130 S8 1.472183 1_455
O130 Zn14 2.314499 1_555
O131 S7 1.487057 1_555
O131 Zn15 2.195254 1_555
O132 Si0 1.664373 1_565
O132 Zr4 2.002601 1_555
O133 S0 1.497364 1_565
O133 Zn16 2.330726 1_555
O134 Si1 1.651851 1_555
O134 Zr4 2.129936 1_555
O135 S1 1.486445 1_555
O135 Zn16 2.193021 1_555
O136 S2 1.528623 1_455
O136 Zr4 2.187316 1_555
O137 S3 1.475635 1_555
O137 Zn16 2.267876 1_555
O138 Si2 1.654637 1_555
O138 Zn17 2.028928 1_555
O139 Si3 1.664187 1_555
O139 Zr5 2.000317 1_555
O140 S4 1.483972 1_555
O140 Zn17 2.311268 1_555
O141 S5 1.512726 1_555
O141 Zr5 2.206524 1_555
O142 S6 1.500728 1_565
O142 Zn17 2.357673 1_555
O143 Si4 1.654279 1_565
O143 Zr5 2.120165 1_555
