# generated using pymatgen
data_LaP2
_symmetry_space_group_name_H-M   'P 1'
_cell_length_a   8.87312363
_cell_length_b   8.95318570
_cell_length_c   9.42053694
_cell_angle_alpha   118.28787194
_cell_angle_beta   118.01167657
_cell_angle_gamma   90.15686035
_symmetry_Int_Tables_number   1
_chemical_formula_structural   LaP2
_chemical_formula_sum   'La8 P16'
_cell_volume   556.84590618
_cell_formula_units_Z   8
loop_
 _symmetry_equiv_pos_site_id
 _symmetry_equiv_pos_as_xyz
  1  'x, y, z'
loop_
 _atom_site_type_symbol
 _atom_site_label
 _atom_site_symmetry_multiplicity
 _atom_site_fract_x
 _atom_site_fract_y
 _atom_site_fract_z
 _atom_site_occupancy
  La  La0  1  0.03422396  0.59129768  0.42401478  1
  La  La1  1  0.61017615  0.66729751  0.57597015  1
  La  La2  1  0.94194573  0.44127051  0.88413654  1
  La  La3  1  0.05779602  0.05713625  0.11585427  1
  La  La4  1  0.42276554  0.06828948  0.58559336  1
  La  La5  1  0.83716699  0.98269587  0.41440810  1
  La  La6  1  0.37668610  0.68130213  0.95590961  1
  La  La7  1  0.42078180  0.22541009  0.04409932  1
  P  P0  1  0.18343754  0.27931562  0.72963214  1
  P  P1  1  0.45382091  0.04967236  0.27037805  1
  P  P2  1  0.24878205  0.35064265  0.56991700  1
  P  P3  1  0.67887510  0.28073302  0.43008950  1
  P  P4  1  0.79543317  0.20587588  0.24148244  1
  P  P5  1  0.55395496  0.46440960  0.75852904  1
  P  P6  1  0.66184246  0.41227096  0.98921532  1
  P  P7  1  0.67263068  0.92303893  0.01080248  1
  P  P8  1  0.23181635  0.43320080  0.23443376  1
  P  P9  1  0.99737970  0.69876181  0.76555206  1
  P  P10  1  0.27893230  0.68052911  0.24462113  1
  P  P11  1  0.03430903  0.93589356  0.75536635  1
  P  P12  1  0.80776746  0.04557888  0.74156920  1
  P  P13  1  0.06619046  0.80400128  0.25841653  1
  P  P14  1  0.41294554  0.86528108  0.76201334  1
  P  P15  1  0.65094100  0.60329194  0.23799653  1
loop_
_geom_bond_atom_site_label_1
_geom_bond_atom_site_label_2
_geom_bond_distance
_geom_bond_site_symmetry_2
La0 P8 2.970838 1_555
La0 P15 3.038257 1_455
La0 P13 3.060923 1_555
La0 P9 3.072513 1_455
La0 P14 3.154326 1_555
La0 P11 3.183135 1_555
La0 P4 3.204312 1_455
La0 P2 3.244617 1_555
La0 P6 3.361559 1_454
La1 P9 2.971083 1_555
La1 P14 3.038078 1_555
La1 P12 3.060844 1_565
La1 P8 3.072413 1_555
La1 P15 3.154358 1_555
La1 P10 3.182940 1_555
La1 P5 3.204384 1_555
La1 P3 3.244837 1_555
La1 P7 3.361676 1_556
La2 P10 2.931577 1_656
La2 P13 3.109743 1_656
La2 P5 3.115288 1_555
La2 P12 3.120457 1_555
La2 P9 3.123384 1_555
La2 P0 3.123908 1_655
La2 P8 3.124906 1_656
La2 P6 3.126579 1_555
La2 P3 3.253713 1_555
La3 P11 2.931643 1_544
La3 P12 3.109711 1_454
La3 P4 3.115224 1_455
La3 P13 3.120494 1_545
La3 P8 3.123319 1_555
La3 P1 3.124138 1_555
La3 P9 3.125023 1_444
La3 P7 3.126564 1_445
La3 P2 3.253813 1_555
La4 P2 2.992775 1_555
La4 P13 2.999329 1_545
La4 P14 3.011900 1_545
La4 P1 3.036669 1_555
La4 P5 3.050723 1_555
La4 P12 3.072889 1_555
La4 P10 3.091097 1_545
La4 P6 3.119522 1_555
La4 P0 3.196755 1_555
La5 P3 2.992762 1_565
La5 P12 2.999221 1_565
La5 P15 3.011699 1_555
La5 P0 3.036742 1_665
La5 P4 3.050618 1_565
La5 P13 3.072991 1_655
La5 P11 3.091050 1_655
La5 P7 3.119322 1_555
La5 P1 3.196537 1_565
La6 P1 2.990760 1_566
La6 P5 3.007343 1_555
La6 P15 3.027497 1_556
La6 P9 3.027731 1_455
La6 P2 3.029334 1_555
La6 P7 3.078941 1_556
La6 P14 3.090973 1_555
La6 P0 3.114293 1_555
La6 P10 3.222350 1_556
La7 P0 2.990771 1_554
La7 P4 3.007406 1_555
La7 P8 3.027677 1_555
La7 P14 3.027692 1_544
La7 P3 3.029341 1_555
La7 P6 3.079036 1_554
La7 P15 3.091033 1_555
La7 P1 3.114488 1_555
La7 P11 3.222486 1_544
P0 P2 2.176217 1_555
P1 P3 2.176293 1_555
P2 P5 2.297216 1_555
P3 P4 2.297166 1_555
P4 P7 2.206181 1_545
P5 P6 2.206109 1_555
P10 P8 2.200744 1_555
P10 P13 2.215400 1_555
P11 P9 2.200655 1_455
P11 P12 2.215465 1_465
P14 P7 2.200449 1_556
P15 P6 2.200419 1_554
