# generated using pymatgen
data_Sr2LuRuO6
_symmetry_space_group_name_H-M   'P 1'
_cell_length_a   5.79173100
_cell_length_b   5.77834300
_cell_length_c   9.98444349
_cell_angle_alpha   54.88412888
_cell_angle_beta   90.00000000
_cell_angle_gamma   90.00000000
_symmetry_Int_Tables_number   1
_chemical_formula_structural   Sr2LuRuO6
_chemical_formula_sum   'Sr4 Lu2 Ru2 O12'
_cell_volume   273.32778036
_cell_formula_units_Z   2
loop_
 _symmetry_equiv_pos_site_id
 _symmetry_equiv_pos_as_xyz
  1  'x, y, z'
loop_
 _atom_site_type_symbol
 _atom_site_label
 _atom_site_symmetry_multiplicity
 _atom_site_fract_x
 _atom_site_fract_y
 _atom_site_fract_z
 _atom_site_occupancy
  Sr  Sr0  1  0.02733000  0.24313400  0.75105000  1
  Sr  Sr1  1  0.52733000  0.75686600  0.74895000  1
  Sr  Sr2  1  0.47267000  0.24313400  0.25105000  1
  Sr  Sr3  1  0.97267000  0.75686600  0.24895000  1
  Lu  Lu0  1  0.50000000  0.50000000  0.50000000  1
  Lu  Lu1  1  0.00000000  0.50000000  0.00000000  1
  Ru  Ru0  1  0.00000000  0.00000000  0.50000000  1
  Ru  Ru1  1  0.50000000  0.00000000  0.00000000  1
  O  O0  1  0.01306500  0.30367500  0.26231300  1
  O  O1  1  0.51306500  0.69632500  0.23768700  1
  O  O2  1  0.98693500  0.69632500  0.73768700  1
  O  O3  1  0.48693500  0.30367500  0.76231300  1
  O  O4  1  0.72997800  0.82907600  0.46503700  1
  O  O5  1  0.22997800  0.17092400  0.03496300  1
  O  O6  1  0.27002200  0.17092400  0.53496300  1
  O  O7  1  0.77002200  0.82907600  0.96503700  1
  O  O8  1  0.29194700  0.76647400  0.96550600  1
  O  O9  1  0.79194700  0.23352600  0.53449400  1
  O  O10  1  0.70805300  0.23352600  0.03449400  1
  O  O11  1  0.20805300  0.76647400  0.46550600  1
loop_
_geom_bond_atom_site_label_1
_geom_bond_atom_site_label_2
_geom_bond_distance
_geom_bond_site_symmetry_2
Lu0 O1 2.175753 1_555
Lu0 O3 2.175753 1_555
Lu0 O9 2.176811 1_555
Lu0 O11 2.176811 1_555
Lu0 O6 2.179012 1_555
Lu0 O4 2.179012 1_555
Lu1 O0 2.175753 1_555
Lu1 O2 2.175753 1_454
Lu1 O10 2.176811 1_455
Lu1 O8 2.176811 1_554
Lu1 O7 2.179012 1_454
Lu1 O5 2.179012 1_555
O0 Ru0 1.981390 1_555
O0 Sr3 2.555020 1_455
O0 Sr2 2.695559 1_555
O1 Ru1 1.981390 1_565
O1 Sr2 2.555020 1_555
O1 Sr3 2.695559 1_555
O2 Ru0 1.981390 1_665
O2 Sr0 2.555020 1_655
O2 Sr1 2.695559 1_555
O3 Ru1 1.981390 1_556
O3 Sr1 2.555020 1_555
O3 Sr0 2.695559 1_555
O4 Ru0 1.984880 1_665
O4 Sr2 2.574704 1_565
O4 Sr3 2.800063 1_555
O4 Sr1 2.868182 1_555
O5 Ru1 1.984880 1_555
O5 Sr3 2.574704 1_445
O5 Sr2 2.800063 1_555
O5 Sr0 2.868182 1_554
O6 Ru0 1.984880 1_555
O6 Sr1 2.574704 1_545
O6 Sr0 2.800063 1_555
O6 Sr2 2.868182 1_555
O7 Ru1 1.984880 1_566
O7 Sr0 2.574704 1_665
O7 Sr1 2.800063 1_555
O7 Sr3 2.868182 1_556
O8 Ru1 1.981447 1_566
O8 Sr1 2.583559 1_555
O8 Sr0 2.781171 1_565
O8 Sr2 2.906858 1_556
O9 Ru0 1.981447 1_655
O9 Sr0 2.583559 1_655
O9 Sr1 2.781171 1_545
O9 Sr3 2.906858 1_555
O10 Ru1 1.981447 1_555
O10 Sr2 2.583559 1_555
O10 Sr3 2.781171 1_545
O10 Sr1 2.906858 1_554
O11 Ru0 1.981447 1_565
O11 Sr3 2.583559 1_455
O11 Sr2 2.781171 1_565
O11 Sr0 2.906858 1_555
