# generated using pymatgen
data_Ba2Mg(NiO3)2
_symmetry_space_group_name_H-M   'P 1'
_cell_length_a   5.76969500
_cell_length_b   5.76969214
_cell_length_c   5.57948300
_cell_angle_alpha   90.00000000
_cell_angle_beta   90.00000000
_cell_angle_gamma   119.99997936
_symmetry_Int_Tables_number   1
_chemical_formula_structural   Ba2Mg(NiO3)2
_chemical_formula_sum   'Ba2 Mg1 Ni2 O6'
_cell_volume   160.85337471
_cell_formula_units_Z   1
loop_
 _symmetry_equiv_pos_site_id
 _symmetry_equiv_pos_as_xyz
  1  'x, y, z'
loop_
 _atom_site_type_symbol
 _atom_site_label
 _atom_site_symmetry_multiplicity
 _atom_site_fract_x
 _atom_site_fract_y
 _atom_site_fract_z
 _atom_site_occupancy
  Ba  Ba0  1  0.66666500  0.33333200  0.25000000  1
  Ba  Ba1  1  0.33333500  0.66666800  0.75000000  1
  Mg  Mg0  1  0.66666700  0.33333300  0.75000000  1
  Ni  Ni0  1  0.00000000  0.00000000  0.49549000  1
  Ni  Ni1  1  0.00000000  0.00000000  0.00451000  1
  O  O0  1  0.84878000  0.69755900  0.75000000  1
  O  O1  1  0.15160900  0.84839000  0.25000000  1
  O  O2  1  0.69678100  0.84839000  0.25000000  1
  O  O3  1  0.30244200  0.15122100  0.75000000  1
  O  O4  1  0.15160900  0.30321800  0.25000000  1
  O  O5  1  0.84878000  0.15122100  0.75000000  1
loop_
_geom_bond_atom_site_label_1
_geom_bond_atom_site_label_2
_geom_bond_distance
_geom_bond_site_symmetry_2
Ba0 Mg0 2.789742 1_555
Ba0 Mg0 2.789742 1_554
Ba0 O4 2.888763 1_555
Ba0 O1 2.888764 1_545
Ba0 O2 2.888768 1_545
Ba0 O2 2.888768 1_555
Ba0 O4 2.888775 1_655
Ba0 O1 2.888775 1_655
Ba1 O5 2.888969 1_565
Ba1 O3 2.888970 1_565
Ba1 O0 2.888971 1_555
Ba1 O3 2.888976 1_555
Ba1 O0 2.888977 1_455
Ba1 O5 2.888980 1_455
Ba1 O2 3.328758 1_555
Ba1 O2 3.328758 1_556
Ba1 O1 3.328763 1_555
Ba1 O1 3.328763 1_556
Ba1 O4 3.328768 1_556
Ba1 O4 3.328768 1_555
Mg0 O5 1.819923 1_555
Mg0 O3 1.819924 1_555
Mg0 O0 1.819928 1_555
Ni0 O4 2.042448 1_555
Ni0 O1 2.042452 1_545
Ni0 O2 2.042452 1_445
Ni0 O5 2.073703 1_455
Ni0 O0 2.073703 1_445
Ni0 O3 2.073707 1_555
Ni1 O4 2.042448 1_555
Ni1 O1 2.042452 1_545
Ni1 O2 2.042452 1_445
Ni1 O5 2.073703 1_454
Ni1 O0 2.073703 1_444
Ni1 O3 2.073707 1_554
