# generated using pymatgen
data_Ni3B
_symmetry_space_group_name_H-M   'P 1'
_cell_length_a   4.33863529
_cell_length_b   5.15006108
_cell_length_c   6.54817660
_cell_angle_alpha   90.00000000
_cell_angle_beta   90.00000000
_cell_angle_gamma   90.00000000
_symmetry_Int_Tables_number   1
_chemical_formula_structural   Ni3B
_chemical_formula_sum   'Ni12 B4'
_cell_volume   146.31400821
_cell_formula_units_Z   4
loop_
 _symmetry_equiv_pos_site_id
 _symmetry_equiv_pos_as_xyz
  1  'x, y, z'
loop_
 _atom_site_type_symbol
 _atom_site_label
 _atom_site_symmetry_multiplicity
 _atom_site_fract_x
 _atom_site_fract_y
 _atom_site_fract_z
 _atom_site_occupancy
  Ni  Ni0  1  0.65406288  0.81959228  0.93777876  1
  Ni  Ni1  1  0.15406288  0.68040772  0.06222124  1
  Ni  Ni2  1  0.84593712  0.31959228  0.56222124  1
  Ni  Ni3  1  0.34593712  0.18040772  0.43777876  1
  Ni  Ni4  1  0.86819239  0.02816324  0.25000000  1
  Ni  Ni5  1  0.36819239  0.47183676  0.75000000  1
  Ni  Ni6  1  0.63180761  0.52816324  0.25000000  1
  Ni  Ni7  1  0.13180761  0.97183676  0.75000000  1
  Ni  Ni8  1  0.65406288  0.81959228  0.56222124  1
  Ni  Ni9  1  0.15406288  0.68040772  0.43777876  1
  Ni  Ni10  1  0.84593712  0.31959228  0.93777876  1
  Ni  Ni11  1  0.34593712  0.18040772  0.06222124  1
  B  B0  1  0.56193240  0.11758642  0.75000000  1
  B  B1  1  0.06193240  0.38241358  0.25000000  1
  B  B2  1  0.93806760  0.61758642  0.75000000  1
  B  B3  1  0.43806760  0.88241358  0.25000000  1
loop_
_geom_bond_atom_site_label_1
_geom_bond_atom_site_label_2
_geom_bond_distance
_geom_bond_site_symmetry_2
B0 Ni8 2.006734 1_545
B0 Ni0 2.006734 1_545
B0 Ni5 2.008738 1_555
B0 Ni7 2.011458 1_545
B0 Ni2 2.027942 1_555
B0 Ni10 2.027942 1_555
B0 Ni11 2.272174 1_556
B0 Ni3 2.272174 1_555
B1 Ni1 2.006734 1_555
B1 Ni9 2.006734 1_555
B1 Ni4 2.008738 1_455
B1 Ni6 2.011458 1_455
B1 Ni3 2.027942 1_555
B1 Ni11 2.027942 1_555
B1 Ni10 2.272174 1_454
B1 Ni2 2.272174 1_455
B2 Ni2 2.006734 1_555
B2 Ni10 2.006734 1_555
B2 Ni7 2.008738 1_655
B2 Ni5 2.011458 1_655
B2 Ni8 2.027942 1_555
B2 Ni0 2.027942 1_555
B2 Ni9 2.272174 1_655
B2 Ni1 2.272174 1_656
B3 Ni11 2.006734 1_565
B3 Ni3 2.006734 1_565
B3 Ni6 2.008738 1_555
B3 Ni4 2.011458 1_565
B3 Ni1 2.027942 1_555
B3 Ni9 2.027942 1_555
B3 Ni0 2.272174 1_554
B3 Ni8 2.272174 1_555
