# generated using pymatgen
data_Na4Ta3GaSi4(PO12)2
_symmetry_space_group_name_H-M   'P 1'
_cell_length_a   8.88779215
_cell_length_b   8.90065201
_cell_length_c   22.51755366
_cell_angle_alpha   89.88057778
_cell_angle_beta   89.80652095
_cell_angle_gamma   119.86750783
_symmetry_Int_Tables_number   1
_chemical_formula_structural   Na4Ta3GaSi4(PO12)2
_chemical_formula_sum   'Na12 Ta9 Ga3 Si12 P6 O72'
_cell_volume   1544.68257765
_cell_formula_units_Z   3
loop_
 _symmetry_equiv_pos_site_id
 _symmetry_equiv_pos_as_xyz
  1  'x, y, z'
loop_
 _atom_site_type_symbol
 _atom_site_label
 _atom_site_symmetry_multiplicity
 _atom_site_fract_x
 _atom_site_fract_y
 _atom_site_fract_z
 _atom_site_occupancy
  Na  Na0  1  0.63533428  0.62486037  0.74480957  1
  Na  Na1  1  0.99390426  0.36699881  0.74618125  1
  Na  Na2  1  0.30921844  0.97482708  0.08415896  1
  Na  Na3  1  0.02713634  0.33940498  0.08431607  1
  Na  Na4  1  0.96638795  0.29508196  0.41170449  1
  Na  Na5  1  0.70737725  0.67830451  0.41396063  1
  Na  Na6  1  0.00742830  0.99694715  0.49796562  1
  Na  Na7  1  0.98973369  0.98952365  0.99579998  1
  Na  Na8  1  0.65387414  0.31938158  0.83161459  1
  Na  Na9  1  0.65708137  0.32354771  0.32265065  1
  Na  Na10  1  0.34425018  0.66545054  0.16565380  1
  Na  Na11  1  0.33504084  0.67306943  0.66527604  1
  Ta  Ta0  1  0.00419652  0.00875409  0.85586783  1
  Ta  Ta1  1  0.99481401  0.00089825  0.64333660  1
  Ta  Ta2  1  0.99580444  0.99655255  0.14689163  1
  Ta  Ta3  1  0.66694923  0.33425982  0.97745908  1
  Ta  Ta4  1  0.66879514  0.33219704  0.48020172  1
  Ta  Ta5  1  0.33782124  0.66772984  0.02052636  1
  Ta  Ta6  1  0.33480380  0.66889626  0.52257155  1
  Ta  Ta7  1  0.33154783  0.67103174  0.30970307  1
  Ta  Ta8  1  0.33639512  0.66973473  0.81287530  1
  Ga  Ga0  1  0.99899930  0.99486155  0.35089046  1
  Ga  Ga1  1  0.65835194  0.32526591  0.68531782  1
  Ga  Ga2  1  0.66628548  0.33323082  0.18320027  1
  Si  Si0  1  0.29495415  0.28672088  0.74826364  1
  Si  Si1  1  0.70796197  0.00429876  0.74920631  1
  Si  Si2  1  0.95355568  0.33593775  0.58659151  1
  Si  Si3  1  0.66697932  0.61836960  0.58594424  1
  Si  Si4  1  0.94771484  0.61606922  0.08563949  1
  Si  Si5  1  0.66426608  0.04824712  0.08614275  1
  Si  Si6  1  0.38707207  0.33878468  0.08705899  1
  Si  Si7  1  0.62434796  0.66627945  0.91543195  1
  Si  Si8  1  0.04401900  0.37975774  0.91665870  1
  Si  Si9  1  0.33301157  0.95626311  0.91720369  1
  Si  Si10  1  0.62273054  0.95715745  0.41475535  1
  Si  Si11  1  0.04834499  0.67586953  0.41592238  1
  P  P0  1  0.29105701  0.00775875  0.25180424  1
  P  P1  1  0.71133576  0.70394988  0.25265331  1
  P  P2  1  0.99499818  0.28629887  0.25266704  1
  P  P3  1  0.00342916  0.71696468  0.74980450  1
  P  P4  1  0.38048263  0.04642782  0.58452747  1
  P  P5  1  0.33185735  0.37861491  0.41559219  1
  O  O0  1  0.19899329  0.02580605  0.30631094  1
  O  O1  1  0.81337952  0.78849061  0.30973898  1
  O  O2  1  0.97688141  0.18040111  0.30919033  1
  O  O3  1  0.19611983  0.16840431  0.80681678  1
  O  O4  1  0.97797594  0.80694984  0.80448569  1
  O  O5  1  0.83409089  0.02871415  0.80595062  1
  O  O6  1  0.80114616  0.96442526  0.69198531  1
  O  O7  1  0.16374101  0.19110420  0.69219535  1
  O  O8  1  0.02975270  0.82870892  0.69390352  1
  O  O9  1  0.80564766  0.82688700  0.19819189  1
  O  O10  1  0.02226907  0.19719390  0.19659514  1
  O  O11  1  0.17835512  0.97742695  0.19475841  1
  O  O12  1  0.87094879  0.36586481  0.64563039  1
  O  O13  1  0.49031768  0.12123915  0.63979463  1
  O  O14  1  0.63324841  0.50538340  0.64532904  1
  O  O15  1  0.87479044  0.49059801  0.14237895  1
  O  O16  1  0.61775097  0.12393937  0.14336129  1
  O  O17  1  0.49935227  0.37170681  0.14532646  1
  O  O18  1  0.46595549  0.29237428  0.02831498  1
  O  O19  1  0.82964993  0.53136404  0.02642798  1
  O  O20  1  0.70790680  0.17259147  0.02736288  1
  O  O21  1  0.46869866  0.16052448  0.52831976  1
  O  O22  1  0.68819885  0.52478305  0.52519970  1
  O  O23  1  0.83389252  0.30564720  0.52608768  1
  O  O24  1  0.52762056  0.69355944  0.97282261  1
  O  O25  1  0.16092753  0.46988396  0.97564197  1
  O  O26  1  0.30610509  0.84036409  0.97694354  1
  O  O27  1  0.52966028  0.82863323  0.47162598  1
  O  O28  1  0.30336011  0.46675249  0.47082602  1
  O  O29  1  0.16751004  0.69286167  0.47308663  1
  O  O30  1  0.13634629  0.62992572  0.35911971  1
  O  O31  1  0.49710809  0.85673787  0.35779402  1
  O  O32  1  0.36755913  0.49935345  0.36081901  1
  O  O33  1  0.13616227  0.49508365  0.85686097  1
  O  O34  1  0.35918787  0.85768861  0.85984996  1
  O  O35  1  0.50523966  0.63940609  0.85621422  1
  O  O36  1  0.01728266  0.83842496  0.40935906  1
  O  O37  1  0.81677551  0.98299964  0.40848835  1
  O  O38  1  0.16857361  0.20202918  0.40955162  1
  O  O39  1  0.02670556  0.18882968  0.91062739  1
  O  O40  1  0.15942535  0.97129815  0.90933520  1
  O  O41  1  0.81333482  0.83735843  0.90824973  1
  O  O42  1  0.97520409  0.16239245  0.58952136  1
  O  O43  1  0.19809308  0.02615282  0.58918453  1
  O  O44  1  0.84359022  0.80975436  0.58921147  1
  O  O45  1  0.98037759  0.81563939  0.09374504  1
  O  O46  1  0.84074592  0.03107970  0.09410297  1
  O  O47  1  0.18739716  0.16352214  0.09473228  1
  O  O48  1  0.69972891  0.18015404  0.74399412  1
  O  O49  1  0.49007093  0.31942759  0.74493636  1
  O  O50  1  0.84183819  0.53587357  0.74684847  1
  O  O51  1  0.69190740  0.52517162  0.24545545  1
  O  O52  1  0.83605560  0.30808714  0.24644469  1
  O  O53  1  0.47314706  0.16290752  0.24614571  1
  O  O54  1  0.63721666  0.49228166  0.92275423  1
  O  O55  1  0.85353184  0.36025640  0.92237226  1
  O  O56  1  0.50567663  0.14455165  0.92340060  1
  O  O57  1  0.64086835  0.14878659  0.42212129  1
  O  O58  1  0.49938485  0.36723123  0.42325309  1
  O  O59  1  0.85430246  0.49707677  0.42369145  1
  O  O60  1  0.34514921  0.49742649  0.07748217  1
  O  O61  1  0.14650536  0.64728465  0.07622761  1
  O  O62  1  0.49562467  0.85461121  0.07656928  1
  O  O63  1  0.35915641  0.86323337  0.57440138  1
  O  O64  1  0.49838179  0.64541190  0.57469320  1
  O  O65  1  0.14691189  0.50426996  0.57485598  1
  O  O66  1  0.30198704  0.83376891  0.25704980  1
  O  O67  1  0.52756707  0.69169245  0.25618875  1
  O  O68  1  0.16731333  0.46874510  0.25700887  1
  O  O69  1  0.30276306  0.47737183  0.75452590  1
  O  O70  1  0.16603608  0.69469847  0.75508761  1
  O  O71  1  0.52056997  0.82423979  0.75432026  1
loop_
_geom_bond_atom_site_label_1
_geom_bond_atom_site_label_2
_geom_bond_distance
_geom_bond_site_symmetry_2
Na0 O50 2.333725 1_555
Na0 O49 2.358296 1_555
Na0 O71 2.457326 1_555
Na0 O14 2.477831 1_555
Na0 O69 2.576394 1_555
Na0 O35 2.788803 1_555
Na0 O6 2.873712 1_555
Na0 O4 2.971080 1_555
Na1 O48 2.296651 1_555
Na1 O69 2.419535 1_655
Na1 O50 2.471731 1_555
Na1 O12 2.515265 1_555
Na1 O70 2.539342 1_655
Na1 O33 2.776152 1_655
Na1 O7 2.925161 1_655
Na1 O5 2.933479 1_555
Na2 O62 2.383978 1_555
Na2 O47 2.420909 1_565
Na2 O61 2.535202 1_555
Na2 O45 2.542858 1_455
Na2 O26 2.690935 1_554
Na2 O16 2.732278 1_565
Na2 O18 2.749923 1_565
Na2 O11 2.750096 1_555
Na3 O61 2.401900 1_555
Na3 O46 2.406467 1_455
Na3 O60 2.455068 1_555
Na3 O47 2.599254 1_555
Na3 O15 2.676547 1_455
Na3 O25 2.709972 1_554
Na3 O20 2.781350 1_455
Na3 O10 2.815578 1_555
Na4 O38 2.323661 1_655
Na4 O37 2.410788 1_545
Na4 O59 2.466114 1_555
Na4 O57 2.522472 1_555
Na4 O2 2.546045 1_555
Na4 O30 2.838218 1_655
Na4 O23 2.849606 1_555
Na4 O28 2.924758 1_655
Na5 O37 2.384725 1_555
Na5 O36 2.390850 1_655
Na5 O58 2.454439 1_555
Na5 O1 2.532229 1_555
Na5 O59 2.540382 1_555
Na5 O22 2.814474 1_555
Na5 O27 2.840698 1_555
Na5 O32 2.886472 1_555
Na6 O36 2.472433 1_555
Na6 O44 2.582057 1_455
Na6 O38 2.590080 1_565
Na6 O43 2.597157 1_565
Na6 O37 2.600139 1_455
Na6 O42 2.632386 1_465
Na7 O41 2.468993 1_555
Na7 O40 2.513326 1_655
Na7 O39 2.516769 1_665
Na7 O45 2.668847 1_556
Na7 O46 2.694707 1_566
Na7 O47 2.788991 1_666
Na8 O49 2.439002 1_555
Na8 O48 2.470274 1_555
Na8 O56 2.520870 1_555
Na8 O54 2.615327 1_555
Na8 O55 2.615783 1_555
Na8 O50 2.627558 1_555
Na9 O53 2.320727 1_555
Na9 O52 2.386282 1_555
Na9 O51 2.401658 1_555
Na9 O57 2.686489 1_555
Na9 O58 2.787877 1_555
Na9 O59 2.824830 1_555
Na10 O60 2.490518 1_555
Na10 O62 2.525917 1_555
Na10 O67 2.551568 1_555
Na10 O61 2.629078 1_555
Na10 O68 2.644021 1_555
Na10 O66 2.681244 1_555
Na11 O71 2.524574 1_555
Na11 O69 2.576618 1_555
Na11 O70 2.579199 1_555
Na11 O64 2.581972 1_555
Na11 O63 2.592160 1_555
Na11 O65 2.594643 1_555
Ga0 O0 1.934484 1_665
Ga0 O36 1.979309 1_655
Ga0 O1 1.988349 1_555
Ga0 O2 1.991394 1_565
Ga0 O37 2.032534 1_555
Ga0 O38 2.161484 1_665
Ga1 O14 1.944818 1_555
Ga1 O12 1.951072 1_555
Ga1 O13 1.973785 1_555
Ga1 O49 1.987613 1_555
Ga1 O48 2.004591 1_555
Ga1 O50 2.252644 1_555
Ga2 O17 1.886598 1_555
Ga2 O15 1.907575 1_555
Ga2 O16 1.915776 1_555
Ga2 O51 2.135481 1_555
Ga2 O53 2.153263 1_555
Ga2 O52 2.168964 1_555
O0 P0 1.525346 1_555
O1 P1 1.540545 1_555
O2 P2 1.541666 1_555
O3 Si0 1.638304 1_555
O3 Ta0 1.927532 1_555
O4 P3 1.546421 1_655
O4 Ta0 2.052517 1_665
O5 Si1 1.644600 1_555
O5 Ta0 1.964399 1_655
O6 Si1 1.661173 1_565
O6 Ta1 1.922872 1_565
O7 Si0 1.644435 1_555
O7 Ta1 1.953967 1_455
O8 P3 1.545784 1_555
O8 Ta1 2.052050 1_465
O9 P1 1.574097 1_555
O9 Ta2 1.977062 1_555
O10 P2 1.573363 1_455
O10 Ta2 2.022103 1_445
O11 P0 1.570684 1_565
O11 Ta2 2.027134 1_455
O12 Si2 1.602184 1_555
O13 P4 1.519642 1_555
O14 Si3 1.606463 1_555
O15 Si4 1.602234 1_555
O16 Si5 1.600705 1_555
O17 Si6 1.588196 1_555
O18 Si6 1.642062 1_555
O18 Ta3 1.990638 1_554
O19 Si4 1.634896 1_555
O19 Ta3 1.968959 1_554
O20 Si5 1.640141 1_555
O20 Ta3 1.995886 1_554
O21 P4 1.562959 1_555
O21 Ta4 1.986221 1_555
O22 Si3 1.661273 1_555
O22 Ta4 1.925792 1_555
O23 Si2 1.669031 1_555
O23 Ta4 1.905552 1_555
O24 Si7 1.633943 1_555
O24 Ta5 1.911227 1_556
O25 Si8 1.634238 1_555
O25 Ta5 1.963398 1_556
O26 Si9 1.636224 1_555
O26 Ta5 1.957180 1_556
O27 Si10 1.636165 1_555
O27 Ta6 1.965724 1_555
O28 P5 1.557647 1_555
O28 Ta6 2.045251 1_555
O29 Si11 1.628483 1_555
O29 Ta6 1.955504 1_555
O30 Si11 1.651948 1_555
O30 Ta7 1.932622 1_555
O31 Si10 1.646548 1_555
O31 Ta7 1.914611 1_555
O32 P5 1.558504 1_555
O32 Ta7 2.060207 1_555
O33 Si8 1.639182 1_555
O33 Ta8 1.947019 1_555
O34 Si9 1.642497 1_555
O34 Ta8 1.905205 1_555
O35 Si7 1.647602 1_555
O35 Ta8 1.920795 1_555
O36 Si11 1.608930 1_555
O37 Si10 1.627973 1_555
O38 P5 1.524903 1_555
O39 Si8 1.634222 1_555
O39 Ta0 1.954461 1_555
O40 Si9 1.623856 1_555
O40 Ta0 1.982854 1_565
O41 Si7 1.617359 1_555
O41 Ta0 1.999401 1_665
O42 Si2 1.650164 1_555
O42 Ta1 1.951569 1_555
O43 P4 1.542318 1_555
O43 Ta1 2.093098 1_455
O44 Si3 1.645964 1_555
O44 Ta1 1.982051 1_565
O45 Si4 1.661614 1_555
O45 Ta2 1.957830 1_555
O46 Si5 1.660185 1_555
O46 Ta2 1.959076 1_545
O47 Si6 1.688862 1_555
O47 Ta2 1.986560 1_445
O48 Si1 1.606994 1_555
O49 Si0 1.610554 1_555
O50 P3 1.536405 1_655
O51 P1 1.521755 1_555
O52 P2 1.525417 1_555
O53 P0 1.521286 1_555
O54 Si7 1.616850 1_555
O54 Ta3 1.982576 1_555
O55 Si8 1.618244 1_655
O55 Ta3 1.986179 1_555
O56 Si9 1.619877 1_545
O56 Ta3 1.999289 1_555
O57 Si10 1.640170 1_545
O57 Ta4 2.011098 1_555
O58 P5 1.552068 1_555
O58 Ta4 2.118426 1_555
O59 Si11 1.673515 1_655
O59 Ta4 2.014788 1_555
O60 Si6 1.643900 1_555
O60 Ta5 2.009361 1_555
O61 Si4 1.658924 1_455
O61 Ta5 2.043039 1_555
O62 Si5 1.641421 1_565
O62 Ta5 2.005871 1_555
O63 P4 1.562252 1_565
O63 Ta6 2.009507 1_555
O64 Si3 1.651979 1_555
O64 Ta6 1.961631 1_555
O65 Si2 1.642780 1_455
O65 Ta6 1.965767 1_555
O66 P0 1.603363 1_565
O66 Ta7 1.986646 1_555
O67 P1 1.583512 1_555
O67 Ta7 2.046182 1_555
O68 P2 1.586419 1_455
O68 Ta7 2.045312 1_555
O69 Si0 1.669729 1_555
O69 Ta8 2.061411 1_555
O70 P3 1.558337 1_555
O70 Ta8 2.093398 1_555
O71 Si1 1.641660 1_565
O71 Ta8 2.011202 1_555
