# generated using pymatgen
data_AlHO2
_symmetry_space_group_name_H-M   'P 1'
_cell_length_a   2.86154600
_cell_length_b   4.26347800
_cell_length_c   4.76997400
_cell_angle_alpha   90.00000000
_cell_angle_beta   90.00000000
_cell_angle_gamma   90.00000000
_symmetry_Int_Tables_number   1
_chemical_formula_structural   AlHO2
_chemical_formula_sum   'Al2 H2 O4'
_cell_volume   58.19434305
_cell_formula_units_Z   2
loop_
 _symmetry_equiv_pos_site_id
 _symmetry_equiv_pos_as_xyz
  1  'x, y, z'
loop_
 _atom_site_type_symbol
 _atom_site_label
 _atom_site_symmetry_multiplicity
 _atom_site_fract_x
 _atom_site_fract_y
 _atom_site_fract_z
 _atom_site_occupancy
  Al  Al0  1  0.50000000  0.27633700  0.49111900  1
  Al  Al1  1  0.00000000  0.72366300  0.99111900  1
  H  H0  1  0.50000000  0.19450600  0.97696000  1
  H  H1  1  0.00000000  0.80549400  0.47696000  1
  O  O0  1  0.00000000  0.50252100  0.64877800  1
  O  O1  1  0.50000000  0.49747900  0.14877800  1
  O  O2  1  0.00000000  0.00093600  0.34855300  1
  O  O3  1  0.50000000  0.99906400  0.84855300  1
loop_
_geom_bond_atom_site_label_1
_geom_bond_atom_site_label_2
_geom_bond_distance
_geom_bond_site_symmetry_2
Al0 O0 1.882178 1_555
Al0 O0 1.882178 1_655
Al0 O1 1.885600 1_555
Al0 O2 1.971859 1_555
Al0 O2 1.971859 1_655
Al0 O3 2.074688 1_545
Al1 O1 1.882178 1_456
Al1 O1 1.882178 1_556
Al1 O0 1.885600 1_555
Al1 O3 1.971859 1_455
Al1 O3 1.971859 1_555
Al1 O2 2.074688 1_566
H0 O3 1.034157 1_545
H0 O1 1.529780 1_556
H1 O2 1.034157 1_565
H1 O0 1.529780 1_555
