# generated using pymatgen
data_NaTi4P5SO24
_symmetry_space_group_name_H-M   'P 1'
_cell_length_a   8.58974210
_cell_length_b   8.59628770
_cell_length_c   22.29353911
_cell_angle_alpha   90.03614858
_cell_angle_beta   89.90261234
_cell_angle_gamma   120.03403940
_symmetry_Int_Tables_number   1
_chemical_formula_structural   NaTi4P5SO24
_chemical_formula_sum   'Na3 Ti12 P15 S3 O72'
_cell_volume   1425.11860219
_cell_formula_units_Z   3
loop_
 _symmetry_equiv_pos_site_id
 _symmetry_equiv_pos_as_xyz
  1  'x, y, z'
loop_
 _atom_site_type_symbol
 _atom_site_label
 _atom_site_symmetry_multiplicity
 _atom_site_fract_x
 _atom_site_fract_y
 _atom_site_fract_z
 _atom_site_occupancy
  Na  Na0  1  0.66843468  0.33549304  0.83441056  1
  Na  Na1  1  0.66721244  0.33392498  0.33162337  1
  Na  Na2  1  0.33340921  0.66732552  0.16724795  1
  Ti  Ti0  1  0.00078761  0.00004529  0.35542814  1
  Ti  Ti1  1  0.99225595  0.99951603  0.85626392  1
  Ti  Ti2  1  0.00634424  0.99890183  0.64735698  1
  Ti  Ti3  1  0.99910639  -0.00001102  0.14375574  1
  Ti  Ti4  1  0.66134068  0.32475787  0.68929109  1
  Ti  Ti5  1  0.66638672  0.33229682  0.18762935  1
  Ti  Ti6  1  0.67303279  0.33934058  0.98259311  1
  Ti  Ti7  1  0.65722923  0.32710713  0.47633537  1
  Ti  Ti8  1  0.33615854  0.65940168  0.02184075  1
  Ti  Ti9  1  0.33296702  0.67276887  0.51853208  1
  Ti  Ti10  1  0.33269856  0.66571370  0.31150865  1
  Ti  Ti11  1  0.33051245  0.65786116  0.80902796  1
  P  P0  1  0.28578178  -0.00017181  0.24979642  1
  P  P1  1  0.71431407  0.71378839  0.24999968  1
  P  P2  1  0.99954034  0.28548445  0.24998958  1
  P  P3  1  0.28488895  0.28403220  0.75055750  1
  P  P4  1  -0.00032241  0.71238864  0.75077798  1
  P  P5  1  0.71284183  0.99746849  0.74953801  1
  P  P6  1  0.37810850  0.04415878  0.58322674  1
  P  P7  1  0.95688705  0.62327301  0.08414320  1
  P  P8  1  0.66642833  0.04520743  0.08330142  1
  P  P9  1  0.37906593  0.33061079  0.08361974  1
  P  P10  1  0.61934510  0.66459759  0.91611717  1
  P  P11  1  0.04579993  0.37965493  0.91633542  1
  P  P12  1  0.62161992  0.95248173  0.41617712  1
  P  P13  1  0.33031577  0.38023464  0.41696993  1
  P  P14  1  0.04455607  0.66654498  0.41643449  1
  S  S0  1  0.95472006  0.33277932  0.58319241  1
  S  S1  1  0.66621375  0.62130138  0.58337066  1
  S  S2  1  0.33286312  0.95406049  0.91629067  1
  O  O0  1  0.20183049  0.03149082  0.30631490  1
  O  O1  1  0.82973533  0.79832169  0.30637011  1
  O  O2  1  0.96834997  0.17022474  0.30641014  1
  O  O3  1  0.20286689  0.16726308  0.80609044  1
  O  O4  1  0.96606745  0.79883585  0.80585907  1
  O  O5  1  0.83199323  0.03526519  0.80563090  1
  O  O6  1  0.80031786  0.97003242  0.69361734  1
  O  O7  1  0.17009770  0.20108917  0.69385365  1
  O  O8  1  0.03022183  0.82991951  0.69408759  1
  O  O9  1  0.79788336  0.82990654  0.19379996  1
  O  O10  1  0.03225063  0.20229763  0.19376548  1
  O  O11  1  0.17003005  0.96783785  0.19370813  1
  O  O12  1  0.87240363  0.36480875  0.63728918  1
  O  O13  1  0.49935299  0.13608850  0.63865261  1
  O  O14  1  0.63684942  0.50801842  0.63719279  1
  O  O15  1  0.86899247  0.50111854  0.13902454  1
  O  O16  1  0.63264707  0.13179489  0.13900534  1
  O  O17  1  0.49920663  0.36789197  0.13919020  1
  O  O18  1  0.46659832  0.30349627  0.02710581  1
  O  O19  1  0.83786276  0.53515328  0.02767121  1
  O  O20  1  0.69640284  0.16363723  0.02724366  1
  O  O21  1  0.46906333  0.16641078  0.52818589  1
  O  O22  1  0.69909434  0.53983341  0.52955931  1
  O  O23  1  0.84129362  0.30292641  0.52968529  1
  O  O24  1  0.53415364  0.69798246  0.97231391  1
  O  O25  1  0.16371287  0.46787178  0.97220829  1
  O  O26  1  0.30286848  0.84406244  0.97067117  1
  O  O27  1  0.53376474  0.83725906  0.47276504  1
  O  O28  1  0.30458873  0.46820974  0.47327947  1
  O  O29  1  0.16290274  0.69610608  0.47270478  1
  O  O30  1  0.13055162  0.63128049  0.36120459  1
  O  O31  1  0.50063995  0.86995694  0.36104606  1
  O  O32  1  0.36875855  0.49954502  0.36105295  1
  O  O33  1  0.13307038  0.49891791  0.86060015  1
  O  O34  1  0.36552047  0.87418812  0.86231072  1
  O  O35  1  0.50112653  0.63597496  0.86064930  1
  O  O36  1  0.02568658  0.83259179  0.40779273  1
  O  O37  1  0.80786429  0.97485362  0.40787975  1
  O  O38  1  0.16800875  0.19299029  0.40782614  1
  O  O39  1  0.02802555  0.19411267  0.90660999  1
  O  O40  1  0.17246856  0.97305698  0.90840228  1
  O  O41  1  0.80642554  0.83192473  0.90671861  1
  O  O42  1  0.97186683  0.17170811  0.59174932  1
  O  O43  1  0.19288210  0.02660889  0.59337414  1
  O  O44  1  0.82708284  0.80083856  0.59167147  1
  O  O45  1  0.97366736  0.80710713  0.09253754  1
  O  O46  1  0.83235211  0.02615352  0.09254823  1
  O  O47  1  0.19282794  0.16713758  0.09245847  1
  O  O48  1  0.69391156  0.16784319  0.74147219  1
  O  O49  1  0.47570992  0.30942755  0.74121716  1
  O  O50  1  0.83276315  0.52485730  0.74033784  1
  O  O51  1  0.69194995  0.52445334  0.24259627  1
  O  O52  1  0.83251950  0.30811034  0.24270205  1
  O  O53  1  0.47542425  0.16750810  0.24260042  1
  O  O54  1  0.64024191  0.49751415  0.92384226  1
  O  O55  1  0.85642992  0.35690123  0.92386906  1
  O  O56  1  0.49492857  0.13574713  0.92293861  1
  O  O57  1  0.64151532  0.14140109  0.42569043  1
  O  O58  1  0.50097325  0.36103520  0.42548757  1
  O  O59  1  0.85786020  0.49831360  0.42668061  1
  O  O60  1  0.35975942  0.50029759  0.07564657  1
  O  O61  1  0.14307263  0.64204599  0.07449070  1
  O  O62  1  0.49750857  0.85843891  0.07461198  1
  O  O63  1  0.35937905  0.85898168  0.57375837  1
  O  O64  1  0.50527897  0.63875116  0.57542882  1
  O  O65  1  0.13416399  0.49345560  0.57541997  1
  O  O66  1  0.30785003  0.83260208  0.25777133  1
  O  O67  1  0.52491286  0.69236256  0.25787149  1
  O  O68  1  0.16738241  0.47505648  0.25776940  1
  O  O69  1  0.30773732  0.47232004  0.75857768  1
  O  O70  1  0.16676545  0.69394558  0.75997754  1
  O  O71  1  0.52555490  0.83552237  0.76020288  1
loop_
_geom_bond_atom_site_label_1
_geom_bond_atom_site_label_2
_geom_bond_distance
_geom_bond_site_symmetry_2
Na0 O54 2.511176 1_555
Na0 O55 2.516339 1_555
Na0 O56 2.548966 1_555
Na0 O48 2.593863 1_555
Na0 O50 2.595133 1_555
Na0 O49 2.597498 1_555
Na1 O52 2.510096 1_555
Na1 O51 2.514179 1_555
Na1 O53 2.519453 1_555
Na1 O58 2.606633 1_555
Na1 O57 2.612014 1_555
Na1 O59 2.619360 1_555
Na2 O66 2.539009 1_555
Na2 O68 2.544206 1_555
Na2 O67 2.547602 1_555
Na2 O60 2.569651 1_555
Na2 O62 2.574325 1_555
Na2 O61 2.579087 1_555
O0 P0 1.540988 1_555
O0 Ti0 1.944417 1_555
O1 P1 1.540188 1_555
O1 Ti0 1.953088 1_665
O2 P2 1.539569 1_555
O2 Ti0 1.955251 1_655
O3 P3 1.525561 1_555
O3 Ti1 1.996769 1_445
O4 P4 1.534880 1_655
O4 Ti1 1.974650 1_555
O5 P5 1.545253 1_545
O5 Ti1 1.921686 1_545
O6 P5 1.532400 1_555
O6 Ti2 1.952318 1_655
O7 P3 1.542071 1_555
O7 Ti2 1.905067 1_545
O8 P4 1.556278 1_555
O8 Ti2 1.881058 1_555
O9 P1 1.537091 1_555
O9 Ti3 1.958493 1_565
O10 P2 1.536297 1_455
O10 Ti3 1.962530 1_455
O11 P0 1.535518 1_565
O11 Ti3 1.970850 1_465
O12 S0 1.490566 1_555
O12 Ti4 2.029270 1_555
O13 P6 1.554098 1_555
O13 Ti4 1.893395 1_555
O14 S1 1.485336 1_555
O14 Ti4 2.051802 1_555
O15 P7 1.540937 1_555
O15 Ti5 1.943275 1_555
O16 P8 1.547321 1_555
O16 Ti5 1.930915 1_555
O17 P9 1.541182 1_555
O17 Ti5 1.941007 1_555
O18 P9 1.542346 1_555
O18 Ti6 1.916106 1_554
O19 P7 1.559482 1_555
O19 Ti6 1.861432 1_554
O20 P8 1.550054 1_555
O20 Ti6 1.902247 1_554
O21 P6 1.548208 1_555
O21 Ti7 1.901963 1_555
O22 S1 1.484977 1_555
O22 Ti7 2.054662 1_555
O23 S0 1.480312 1_555
O23 Ti7 2.072013 1_555
O24 P10 1.547280 1_555
O24 Ti8 1.910763 1_556
O25 P11 1.544890 1_555
O25 Ti8 1.921243 1_556
O26 S2 1.478769 1_555
O26 Ti8 2.088227 1_556
O27 P12 1.546661 1_555
O27 Ti9 1.889399 1_555
O28 P13 1.536813 1_555
O28 Ti9 1.933607 1_555
O29 P14 1.554672 1_555
O29 Ti9 1.875279 1_555
O30 P14 1.540832 1_555
O30 Ti10 1.951789 1_555
O31 P12 1.535919 1_555
O31 Ti10 1.962353 1_555
O32 P13 1.541467 1_555
O32 Ti10 1.949971 1_555
O33 P11 1.544678 1_555
O33 Ti11 1.934105 1_555
O34 S2 1.479498 1_555
O34 Ti11 2.097197 1_555
O35 P10 1.540975 1_555
O35 Ti11 1.946686 1_555
O36 P14 1.527372 1_555
O36 Ti0 1.947255 1_565
O37 P12 1.523677 1_555
O37 Ti0 1.948054 1_665
O38 P13 1.526526 1_555
O38 Ti0 1.948626 1_555
O39 P11 1.539536 1_555
O39 Ti1 1.907028 1_445
O40 S2 1.477112 1_555
O40 Ti1 2.039100 1_455
O41 P10 1.542931 1_555
O41 Ti1 1.892781 1_555
O42 S0 1.476420 1_555
O42 Ti2 2.067652 1_645
O43 P6 1.537500 1_555
O43 Ti2 1.919439 1_545
O44 S1 1.480302 1_555
O44 Ti2 2.047064 1_655
O45 P7 1.524736 1_555
O45 Ti3 1.933003 1_565
O46 P8 1.528190 1_555
O46 Ti3 1.932334 1_555
O47 P9 1.523700 1_555
O47 Ti3 1.934818 1_455
O48 P5 1.562890 1_545
O48 Ti4 1.905752 1_555
O49 P3 1.555114 1_555
O49 Ti4 1.919246 1_555
O50 P4 1.547762 1_655
O50 Ti4 1.972268 1_555
O51 P1 1.549175 1_555
O51 Ti5 1.978299 1_555
O52 P2 1.550049 1_555
O52 Ti5 1.972399 1_555
O53 P0 1.551113 1_555
O53 Ti5 1.966852 1_555
O54 P10 1.543802 1_555
O54 Ti6 2.007609 1_555
O55 P11 1.546946 1_655
O55 Ti6 1.993382 1_555
O56 S2 1.491030 1_545
O56 Ti6 2.120355 1_555
O57 P12 1.559950 1_545
O57 Ti7 1.903672 1_555
O58 P13 1.566954 1_555
O58 Ti7 1.889182 1_555
O59 P14 1.546913 1_655
O59 Ti7 1.953979 1_555
O60 P9 1.558658 1_555
O60 Ti8 1.905523 1_555
O61 P7 1.539670 1_455
O61 Ti8 1.973999 1_555
O62 P8 1.545685 1_565
O62 Ti8 1.965096 1_555
O63 P6 1.532224 1_565
O63 Ti9 1.940255 1_555
O64 S1 1.474207 1_555
O64 Ti9 2.079733 1_555
O65 S0 1.477112 1_455
O65 Ti9 2.064144 1_555
O66 P0 1.551526 1_565
O66 Ti10 1.961746 1_555
O67 P1 1.552631 1_555
O67 Ti10 1.955346 1_555
O68 P2 1.553355 1_455
O68 Ti10 1.952299 1_555
O69 P3 1.540143 1_555
O69 Ti11 1.879709 1_555
O70 P4 1.534906 1_555
O70 Ti11 1.926850 1_555
O71 P5 1.529659 1_555
O71 Ti11 1.938729 1_555
