# generated using pymatgen
data_Tl2AgI3
_symmetry_space_group_name_H-M   'P 1'
_cell_length_a   9.14660951
_cell_length_b   9.14660951
_cell_length_c   9.14660955
_cell_angle_alpha   72.02381728
_cell_angle_beta   72.02381728
_cell_angle_gamma   72.02381624
_symmetry_Int_Tables_number   1
_chemical_formula_structural   Tl2AgI3
_chemical_formula_sum   'Tl6 Ag3 I9'
_cell_volume   672.79674440
_cell_formula_units_Z   3
loop_
 _symmetry_equiv_pos_site_id
 _symmetry_equiv_pos_as_xyz
  1  'x, y, z'
loop_
 _atom_site_type_symbol
 _atom_site_label
 _atom_site_symmetry_multiplicity
 _atom_site_fract_x
 _atom_site_fract_y
 _atom_site_fract_z
 _atom_site_occupancy
  Tl  Tl0  1  0.55425600  0.32732400  0.88825600  1
  Tl  Tl1  1  0.88825600  0.55425600  0.32732400  1
  Tl  Tl2  1  0.32732400  0.88825600  0.55425600  1
  Tl  Tl3  1  0.44574400  0.67267600  0.11174400  1
  Tl  Tl4  1  0.11174400  0.44574400  0.67267600  1
  Tl  Tl5  1  0.67267600  0.11174400  0.44574400  1
  Ag  Ag0  1  0.00000000  0.00000000  0.00000000  1
  Ag  Ag1  1  0.84359900  0.84359900  0.84359900  1
  Ag  Ag2  1  0.15640100  0.15640100  0.15640100  1
  I  I0  1  0.66934500  0.91010000  0.15145600  1
  I  I1  1  0.15145600  0.66934500  0.91010000  1
  I  I2  1  0.91010000  0.15145600  0.66934500  1
  I  I3  1  0.33065500  0.08990000  0.84854400  1
  I  I4  1  0.84854400  0.33065500  0.08990000  1
  I  I5  1  0.08990000  0.84854400  0.33065500  1
  I  I6  1  0.70474900  0.70474900  0.70474900  1
  I  I7  1  0.29525100  0.29525100  0.29525100  1
  I  I8  1  0.50000000  0.50000000  0.50000000  1
loop_
_geom_bond_atom_site_label_1
_geom_bond_atom_site_label_2
_geom_bond_distance
_geom_bond_site_symmetry_2
Ag0 I4 3.160363 1_455
Ag0 I1 3.160363 1_544
Ag0 I2 3.160363 1_454
Ag0 I5 3.160363 1_545
Ag0 I3 3.160363 1_554
Ag0 I0 3.160363 1_445
Ag1 I6 2.797398 1_555
Ag1 I1 2.920256 1_655
Ag1 I0 2.920256 1_556
Ag1 I2 2.920256 1_565
Ag2 I7 2.797398 1_555
Ag2 I4 2.920256 1_455
Ag2 I3 2.920256 1_554
Ag2 I5 2.920256 1_545
I0 Tl1 3.453131 1_555
I0 Tl3 3.566164 1_555
I1 Tl2 3.453131 1_555
I1 Tl4 3.566164 1_555
I2 Tl0 3.453131 1_555
I2 Tl5 3.566164 1_555
I3 Tl4 3.453131 1_555
I3 Tl0 3.566164 1_555
I4 Tl5 3.453131 1_555
I4 Tl1 3.566164 1_555
I5 Tl3 3.453131 1_555
I5 Tl2 3.566164 1_555
I8 Tl2 3.534682 1_555
I8 Tl5 3.534682 1_555
I8 Tl1 3.534682 1_555
I8 Tl4 3.534682 1_555
I8 Tl0 3.534682 1_555
I8 Tl3 3.534682 1_555
