# generated using pymatgen
data_Na6Nb2Al6Si5S7O48
_symmetry_space_group_name_H-M   'P 1'
_cell_length_a   17.20580600
_cell_length_b   8.67423210
_cell_length_c   22.19508858
_cell_angle_alpha   90.01007317
_cell_angle_beta   90.32401759
_cell_angle_gamma   120.36123241
_symmetry_Int_Tables_number   1
_chemical_formula_structural   Na6Nb2Al6Si5S7O48
_chemical_formula_sum   'Na18 Nb6 Al18 Si15 S21 O144'
_cell_volume   2858.19311680
_cell_formula_units_Z   3
loop_
 _symmetry_equiv_pos_site_id
 _symmetry_equiv_pos_as_xyz
  1  'x, y, z'
loop_
 _atom_site_type_symbol
 _atom_site_label
 _atom_site_symmetry_multiplicity
 _atom_site_fract_x
 _atom_site_fract_y
 _atom_site_fract_z
 _atom_site_occupancy
  Na  Na0  1  0.98943082  0.67540334  0.91132213  1
  Na  Na1  1  0.34705768  0.03039738  0.91488604  1
  Na  Na2  1  0.16908610  0.30457119  0.91275956  1
  Na  Na3  1  0.48918344  0.30537433  0.42006120  1
  Na  Na4  1  0.66853834  0.03204577  0.41644457  1
  Na  Na5  1  0.84505341  0.66222669  0.41805445  1
  Na  Na6  1  0.99960322  0.00524448  0.49471228  1
  Na  Na7  1  0.49605506  0.99250906  0.49824147  1
  Na  Na8  1  0.99669426  0.00471150  0.99570622  1
  Na  Na9  1  0.49933528  0.99387356  0.99262158  1
  Na  Na10  1  0.33783870  0.34410215  0.83508869  1
  Na  Na11  1  0.82915428  0.32410613  0.82374752  1
  Na  Na12  1  0.33059582  0.33671765  0.32722223  1
  Na  Na13  1  0.83608615  0.32856844  0.33985102  1
  Na  Na14  1  0.17247250  0.67420754  0.16511891  1
  Na  Na15  1  0.66473024  0.66767295  0.16834022  1
  Na  Na16  1  0.16753346  0.66372945  0.66736030  1
  Na  Na17  1  0.66371516  0.66027706  0.65991524  1
  Nb  Nb0  1  0.99771472  0.98641636  0.64937734  1
  Nb  Nb1  1  0.49795458  0.01468225  0.63737082  1
  Nb  Nb2  1  0.99762508  0.99280493  0.14183067  1
  Nb  Nb3  1  0.49697854  0.00830604  0.14923840  1
  Nb  Nb4  1  0.16411616  0.67367009  0.31085906  1
  Nb  Nb5  1  0.66159969  0.65188289  0.80803315  1
  Al  Al0  1  0.00571394  0.99557235  0.36232910  1
  Al  Al1  1  0.49881243  0.01081840  0.34945460  1
  Al  Al2  1  0.00176444  0.98856275  0.84644406  1
  Al  Al3  1  0.50321310  0.01427987  0.85869140  1
  Al  Al4  1  0.33801215  0.34948697  0.67802884  1
  Al  Al5  1  0.83456066  0.33438332  0.69484585  1
  Al  Al6  1  0.33608149  0.33536733  0.19633601  1
  Al  Al7  1  0.82689990  0.31447741  0.18296032  1
  Al  Al8  1  0.33832550  0.34800074  0.97073519  1
  Al  Al9  1  0.83053231  0.31570229  0.98202679  1
  Al  Al10  1  0.33630268  0.34592363  0.48727996  1
  Al  Al11  1  0.83611425  0.32418618  0.47222558  1
  Al  Al12  1  0.17330254  0.68550148  0.00905063  1
  Al  Al13  1  0.66635866  0.67257445  0.02041070  1
  Al  Al14  1  0.16553590  0.66177215  0.52207283  1
  Al  Al15  1  0.66632977  0.64736821  0.51477953  1
  Al  Al16  1  0.66883181  0.65428950  0.31946740  1
  Al  Al17  1  0.17483405  0.69162358  0.81549481  1
  Si  Si0  1  0.14255020  0.01365636  0.25343900  1
  Si  Si1  1  0.35869833  0.70600117  0.25559624  1
  Si  Si2  1  0.50596743  0.31162705  0.25633662  1
  Si  Si3  1  0.64252871  0.26681653  0.75315696  1
  Si  Si4  1  0.00536934  0.69838457  0.75551959  1
  Si  Si5  1  0.86018254  0.01291871  0.75567517  1
  Si  Si6  1  0.48084192  0.36189413  0.57937002  1
  Si  Si7  1  0.32234937  0.60680495  0.58232646  1
  Si  Si8  1  0.82341935  0.03984143  0.08133720  1
  Si  Si9  1  0.31188256  0.67093318  0.91328187  1
  Si  Si10  1  0.52573531  0.37923217  0.92376093  1
  Si  Si11  1  0.16322753  0.95764967  0.91807736  1
  Si  Si12  1  0.80893340  0.94619022  0.41522308  1
  Si  Si13  1  0.66381225  0.36808324  0.41662895  1
  Si  Si14  1  0.02430440  0.66837982  0.42407586  1
  S  S0  1  0.64986805  0.00511377  0.25089221  1
  S  S1  1  0.85332867  0.69875763  0.24961730  1
  S  S2  1  0.99271502  0.28175741  0.25022950  1
  S  S3  1  0.15039188  0.29524939  0.75153783  1
  S  S4  1  0.49219756  0.70814553  0.75092729  1
  S  S5  1  0.35378370  0.00530905  0.75062665  1
  S  S6  1  0.97496284  0.33735138  0.58237367  1
  S  S7  1  0.19293669  0.04807000  0.58226963  1
  S  S8  1  0.69706111  0.05021659  0.58246464  1
  S  S9  1  0.83080387  0.60945367  0.58215436  1
  S  S10  1  0.47483707  0.61211443  0.08235578  1
  S  S11  1  0.97630249  0.60722105  0.08214613  1
  S  S12  1  0.32819303  0.04711847  0.08179412  1
  S  S13  1  0.19462721  0.34606849  0.08219092  1
  S  S14  1  0.69411996  0.33940859  0.08205795  1
  S  S15  1  0.81112864  0.66154640  0.92144988  1
  S  S16  1  0.01918239  0.37791074  0.91852990  1
  S  S17  1  0.66899515  0.96115423  0.91891534  1
  S  S18  1  0.31119335  0.95999772  0.42043040  1
  S  S19  1  0.16996871  0.37676121  0.41895961  1
  S  S20  1  0.51877417  0.66416699  0.41606539  1
  O  O0  1  0.09117915  0.03575693  0.30924143  1
  O  O1  1  0.60949880  0.03310989  0.30545368  1
  O  O2  1  0.42243372  0.80947415  0.31146603  1
  O  O3  1  0.90929039  0.77839894  0.30364309  1
  O  O4  1  0.48638372  0.17885772  0.31231413  1
  O  O5  1  0.97976727  0.17754448  0.30433406  1
  O  O6  1  0.10797427  0.18519367  0.80674803  1
  O  O7  1  0.59448806  0.15069157  0.81113134  1
  O  O8  1  0.48260803  0.78854321  0.80595362  1
  O  O9  1  0.98622435  0.78969652  0.81302264  1
  O  O10  1  0.40903320  0.03428609  0.80551769  1
  O  O11  1  0.92342303  0.03689544  0.81230531  1
  O  O12  1  0.39447554  0.97429489  0.69541934  1
  O  O13  1  0.90244059  0.96747069  0.69376902  1
  O  O14  1  0.09124034  0.20619568  0.69639702  1
  O  O15  1  0.57998119  0.19066007  0.69247228  1
  O  O16  1  0.02198108  0.83747886  0.69481053  1
  O  O17  1  0.50706597  0.81410696  0.69615217  1
  O  O18  1  0.40220414  0.83690412  0.19343045  1
  O  O19  1  0.89651057  0.81564714  0.19384572  1
  O  O20  1  0.00666789  0.19892982  0.19495732  1
  O  O21  1  0.52195646  0.20658858  0.19410817  1
  O  O22  1  0.07978149  0.96782277  0.19176138  1
  O  O23  1  0.59216749  0.97809446  0.19514930  1
  O  O24  1  0.43271988  0.36598898  0.64113898  1
  O  O25  1  0.93423685  0.36029278  0.63703252  1
  O  O26  1  0.24477935  0.13000832  0.63810026  1
  O  O27  1  0.74985121  0.13856656  0.63699689  1
  O  O28  1  0.30744828  0.49290298  0.64301335  1
  O  O29  1  0.82279845  0.50830287  0.63684023  1
  O  O30  1  0.43348356  0.50692421  0.13695031  1
  O  O31  1  0.93152979  0.50731058  0.13720239  1
  O  O32  1  0.31993269  0.13082574  0.13666351  1
  O  O33  1  0.81430988  0.13090867  0.14225981  1
  O  O34  1  0.24733018  0.36613055  0.13659487  1
  O  O35  1  0.74709309  0.36197180  0.13788702  1
  O  O36  1  0.23023528  0.31030823  0.02716294  1
  O  O37  1  0.73718477  0.31701512  0.02790121  1
  O  O38  1  0.41839557  0.52979265  0.02812229  1
  O  O39  1  0.92243357  0.53352203  0.02640763  1
  O  O40  1  0.34210571  0.15140234  0.02690257  1
  O  O41  1  0.84935093  0.16836155  0.02375160  1
  O  O42  1  0.23357247  0.15555151  0.52749364  1
  O  O43  1  0.73349773  0.15896787  0.52724712  1
  O  O44  1  0.34616772  0.53295915  0.52292889  1
  O  O45  1  0.84454331  0.53343430  0.52685056  1
  O  O46  1  0.41964600  0.30517107  0.51832192  1
  O  O47  1  0.91897305  0.30687792  0.52803633  1
  O  O48  1  0.27133016  0.71740472  0.97380713  1
  O  O49  1  0.76975563  0.69043650  0.97447748  1
  O  O50  1  0.07759929  0.45980843  0.97361430  1
  O  O51  1  0.59144231  0.48225895  0.97918391  1
  O  O52  1  0.13358998  0.81953976  0.97563466  1
  O  O53  1  0.65779900  0.85245583  0.97292258  1
  O  O54  1  0.26981244  0.84856447  0.47325447  1
  O  O55  1  0.76418744  0.81546579  0.47415159  1
  O  O56  1  0.15670345  0.46249388  0.47199658  1
  O  O57  1  0.63488419  0.44684350  0.47325938  1
  O  O58  1  0.09214178  0.69888778  0.47790243  1
  O  O59  1  0.57595478  0.69938917  0.47065659  1
  O  O60  1  0.06928691  0.63197685  0.36212682  1
  O  O61  1  0.55870856  0.62991984  0.36200026  1
  O  O62  1  0.25724123  0.87574695  0.36345920  1
  O  O63  1  0.74161264  0.86152577  0.35662977  1
  O  O64  1  0.18639957  0.48630102  0.36310445  1
  O  O65  1  0.68854963  0.49848966  0.35865937  1
  O  O66  1  0.05731030  0.48825491  0.86448328  1
  O  O67  1  0.57067336  0.50764050  0.86288603  1
  O  O68  1  0.18703896  0.87232668  0.86134991  1
  O  O69  1  0.68776026  0.88816337  0.86400472  1
  O  O70  1  0.24086853  0.62021475  0.85734727  1
  O  O71  1  0.75744015  0.62967943  0.86517605  1
  O  O72  1  0.01413789  0.84236326  0.41313293  1
  O  O73  1  0.51097500  0.82604508  0.40942592  1
  O  O74  1  0.40174476  0.97953261  0.41378899  1
  O  O75  1  0.90883209  0.96948131  0.40370759  1
  O  O76  1  0.08570650  0.20115618  0.41185707  1
  O  O77  1  0.57646290  0.16253200  0.40737789  1
  O  O78  1  0.00956288  0.19936471  0.91347314  1
  O  O79  1  0.51354468  0.18319617  0.91288023  1
  O  O80  1  0.07644796  0.99028274  0.90790171  1
  O  O81  1  0.58638979  0.97158445  0.91300401  1
  O  O82  1  0.41063489  0.84678773  0.90297352  1
  O  O83  1  0.90216968  0.82270010  0.91512264  1
  O  O84  1  0.48936092  0.17300195  0.58528330  1
  O  O85  1  0.98737133  0.17636732  0.58736934  1
  O  O86  1  0.10132329  0.03365859  0.58594853  1
  O  O87  1  0.60239757  0.02524155  0.58749407  1
  O  O88  1  0.41523612  0.80925652  0.59200305  1
  O  O89  1  0.91603796  0.79809463  0.58642852  1
  O  O90  1  0.48732091  0.79816495  0.08733413  1
  O  O91  1  0.98574339  0.79270845  0.08599133  1
  O  O92  1  0.41241884  0.02704257  0.08617492  1
  O  O93  1  0.91489460  0.01625461  0.09064919  1
  O  O94  1  0.09945926  0.17817999  0.08840590  1
  O  O95  1  0.60370071  0.16955287  0.08580110  1
  O  O96  1  0.34281008  0.16266645  0.74267803  1
  O  O97  1  0.84802426  0.17774595  0.74098135  1
  O  O98  1  0.23749540  0.30211137  0.74439579  1
  O  O99  1  0.74201413  0.30692900  0.74164654  1
  O  O100  1  0.41397186  0.52327994  0.74540846  1
  O  O101  1  0.91536582  0.51815979  0.73886242  1
  O  O102  1  0.34766894  0.51760869  0.24090648  1
  O  O103  1  0.84593744  0.52273390  0.23812023  1
  O  O104  1  0.41594370  0.31103950  0.23902977  1
  O  O105  1  0.91563904  0.31166368  0.24166079  1
  O  O106  1  0.24092271  0.17534003  0.24054076  1
  O  O107  1  0.73833178  0.17484904  0.24299200  1
  O  O108  1  0.31892801  0.49317740  0.92421764  1
  O  O109  1  0.82372491  0.50233855  0.92820186  1
  O  O110  1  0.42507984  0.34955761  0.92703539  1
  O  O111  1  0.92869983  0.36552254  0.92571806  1
  O  O112  1  0.25131703  0.15272091  0.92981169  1
  O  O113  1  0.74852998  0.14724670  0.92563683  1
  O  O114  1  0.31925620  0.13854829  0.42276736  1
  O  O115  1  0.81883081  0.14122138  0.42517756  1
  O  O116  1  0.24843198  0.34982891  0.42532264  1
  O  O117  1  0.75178293  0.34769759  0.42784951  1
  O  O118  1  0.42775172  0.49832780  0.42139606  1
  O  O119  1  0.92402014  0.49708908  0.42754870  1
  O  O120  1  0.17940863  0.49947444  0.07615255  1
  O  O121  1  0.68325935  0.49607437  0.07853180  1
  O  O122  1  0.06651870  0.62788912  0.07881964  1
  O  O123  1  0.56581980  0.63397532  0.07658534  1
  O  O124  1  0.24798883  0.86192386  0.07742029  1
  O  O125  1  0.74010513  0.83760190  0.07344303  1
  O  O126  1  0.18114603  0.86801900  0.57790777  1
  O  O127  1  0.68604901  0.87199160  0.57674020  1
  O  O128  1  0.23973946  0.64510988  0.57371901  1
  O  O129  1  0.75291388  0.63697091  0.57836006  1
  O  O130  1  0.06591374  0.49833261  0.57645836  1
  O  O131  1  0.58182230  0.53234271  0.57432964  1
  O  O132  1  0.15086658  0.82864927  0.25717287  1
  O  O133  1  0.65894570  0.84764735  0.25396723  1
  O  O134  1  0.25875942  0.68748064  0.25861420  1
  O  O135  1  0.76582051  0.68849890  0.25296459  1
  O  O136  1  0.07778339  0.46126741  0.25292293  1
  O  O137  1  0.59473944  0.50742198  0.25999927  1
  O  O138  1  0.15702076  0.46925672  0.75545760  1
  O  O139  1  0.65149074  0.47048511  0.75775524  1
  O  O140  1  0.09458584  0.68274639  0.76008162  1
  O  O141  1  0.57751941  0.69416473  0.75503186  1
  O  O142  1  0.26555898  0.83774871  0.75552304  1
  O  O143  1  0.76053483  0.83034788  0.76071959  1
loop_
_geom_bond_atom_site_label_1
_geom_bond_atom_site_label_2
_geom_bond_distance
_geom_bond_site_symmetry_2
Na0 O80 2.361144 1_655
Na0 O111 2.363031 1_555
Na0 O9 2.408469 1_555
Na0 O83 2.415453 1_555
Na0 O109 2.491647 1_555
Na0 O52 2.564635 1_655
Na0 O66 2.647620 1_655
Na0 O39 2.822823 1_556
Na1 O82 2.359546 1_545
Na1 O112 2.392104 1_555
Na1 O110 2.403729 1_555
Na1 O79 2.475416 1_555
Na1 O68 2.649247 1_545
Na1 O10 2.650212 1_555
Na1 O48 2.687651 1_545
Na1 O40 2.717008 1_556
Na2 O108 2.262001 1_555
Na2 O80 2.364245 1_545
Na2 O112 2.399597 1_555
Na2 O78 2.415570 1_555
Na2 O6 2.566061 1_555
Na2 O70 2.671027 1_555
Na2 O36 2.733816 1_556
Na2 O50 2.877761 1_555
Na3 O118 2.389174 1_555
Na3 O77 2.399013 1_555
Na3 O74 2.443433 1_545
Na3 O57 2.457788 1_555
Na3 O46 2.493034 1_555
Na3 O114 2.524063 1_555
Na3 O4 2.621083 1_555
Na3 O61 2.762477 1_555
Na4 O115 2.267154 1_555
Na4 O77 2.374989 1_555
Na4 O117 2.375631 1_555
Na4 O73 2.380095 1_545
Na4 O1 2.661158 1_555
Na4 O43 2.689490 1_555
Na4 O63 2.725677 1_545
Na4 O59 2.772707 1_545
Na5 O75 2.335929 1_555
Na5 O117 2.375776 1_555
Na5 O119 2.430359 1_555
Na5 O72 2.515039 1_655
Na5 O45 2.659022 1_555
Na5 O65 2.664413 1_555
Na5 O55 2.672376 1_555
Na5 O3 2.755392 1_555
Na6 O72 2.387182 1_645
Na6 O76 2.439548 1_655
Na6 O75 2.467706 1_545
Na6 O86 2.597719 1_655
Na6 O85 2.607022 1_555
Na6 O89 2.619651 1_545
Na7 O74 2.437242 1_555
Na7 O77 2.475130 1_565
Na7 O84 2.525960 1_565
Na7 O73 2.533026 1_555
Na7 O88 2.567208 1_555
Na7 O87 2.605058 1_565
Na8 O83 2.388945 1_545
Na8 O78 2.420521 1_655
Na8 O80 2.429070 1_645
Na8 O93 2.570484 1_556
Na8 O94 2.625250 1_656
Na8 O91 2.662357 1_546
Na9 O79 2.342894 1_565
Na9 O81 2.392946 1_555
Na9 O82 2.431552 1_555
Na9 O90 2.644829 1_556
Na9 O95 2.648493 1_566
Na9 O92 2.664698 1_566
Na10 O100 2.462912 1_555
Na10 O108 2.474489 1_555
Na10 O110 2.512695 1_555
Na10 O98 2.547562 1_555
Na10 O96 2.613045 1_555
Na10 O112 2.632569 1_555
Na11 O99 2.309519 1_555
Na11 O97 2.348274 1_555
Na11 O101 2.468180 1_555
Na11 O113 2.697656 1_555
Na11 O111 2.742032 1_555
Na11 O109 2.814423 1_555
Na12 O102 2.400009 1_555
Na12 O106 2.413214 1_555
Na12 O104 2.529945 1_555
Na12 O118 2.592105 1_555
Na12 O116 2.636204 1_555
Na12 O114 2.675242 1_555
Na13 O115 2.415650 1_555
Na13 O119 2.438145 1_555
Na13 O117 2.494287 1_555
Na13 O105 2.623183 1_555
Na13 O107 2.630485 1_555
Na13 O103 2.771404 1_555
Na14 O124 2.453434 1_555
Na14 O134 2.513139 1_555
Na14 O122 2.524573 1_555
Na14 O120 2.528852 1_555
Na14 O132 2.572627 1_555
Na14 O136 2.618975 1_555
Na15 O137 2.420259 1_555
Na15 O133 2.493417 1_555
Na15 O135 2.496205 1_555
Na15 O125 2.527930 1_555
Na15 O123 2.566469 1_555
Na15 O121 2.603143 1_555
Na16 O140 2.464980 1_555
Na16 O128 2.474091 1_555
Na16 O142 2.517966 1_555
Na16 O138 2.529500 1_555
Na16 O130 2.570853 1_555
Na16 O126 2.593030 1_555
Na17 O131 2.283326 1_555
Na17 O129 2.453115 1_555
Na17 O127 2.494810 1_555
Na17 O139 2.669574 1_555
Na17 O141 2.686749 1_555
Na17 O143 2.725721 1_555
Nb0 O16 1.844239 1_655
Nb0 O13 1.852288 1_555
Nb0 O14 2.047463 1_665
Nb0 O89 2.061976 1_555
Nb0 O86 2.148922 1_665
Nb0 O85 2.221508 1_565
Nb1 O84 1.856947 1_555
Nb1 O15 1.902536 1_555
Nb1 O88 1.906352 1_545
Nb1 O87 2.078299 1_555
Nb1 O12 2.085238 1_545
Nb1 O17 2.242309 1_545
Nb2 O22 1.888201 1_655
Nb2 O93 1.905913 1_565
Nb2 O19 2.010410 1_555
Nb2 O91 2.056229 1_555
Nb2 O94 2.058567 1_665
Nb2 O20 2.080246 1_665
Nb3 O21 1.839033 1_555
Nb3 O18 1.843743 1_545
Nb3 O23 2.050495 1_545
Nb3 O92 2.078087 1_555
Nb3 O95 2.178113 1_555
Nb3 O90 2.219999 1_545
Nb4 O60 1.874136 1_555
Nb4 O132 1.893757 1_555
Nb4 O134 1.958292 1_555
Nb4 O62 2.035129 1_555
Nb4 O136 2.113175 1_555
Nb4 O64 2.181458 1_555
Nb5 O139 1.863309 1_555
Nb5 O67 1.881101 1_555
Nb5 O143 1.937471 1_555
Nb5 O141 2.031866 1_555
Nb5 O71 2.159257 1_555
Nb5 O69 2.237577 1_555
Al0 O0 1.781517 1_565
Al0 O72 1.803343 1_555
Al0 O75 1.819162 1_455
Al0 O76 1.945214 1_565
Al0 O3 2.193876 1_455
Al0 O5 2.248186 1_465
Al1 O2 1.776221 1_545
Al1 O4 1.778602 1_555
Al1 O77 1.836366 1_555
Al1 O1 2.065650 1_555
Al1 O74 2.114432 1_545
Al1 O73 2.172800 1_545
Al2 O11 1.768231 1_465
Al2 O9 1.768745 1_455
Al2 O80 1.863562 1_555
Al2 O6 1.973008 1_565
Al2 O83 2.206353 1_455
Al2 O78 2.307302 1_565
Al3 O7 1.766753 1_555
Al3 O82 1.814612 1_545
Al3 O79 1.832670 1_555
Al3 O81 2.038351 1_545
Al3 O10 2.076420 1_555
Al3 O8 2.150039 1_545
Al4 O28 1.756470 1_555
Al4 O24 1.767925 1_555
Al4 O26 1.969570 1_555
Al4 O100 2.050028 1_555
Al4 O98 2.154135 1_555
Al4 O96 2.196941 1_555
Al5 O101 1.781077 1_555
Al5 O97 1.806731 1_555
Al5 O99 1.818433 1_555
Al5 O27 2.033076 1_555
Al5 O25 2.067280 1_555
Al5 O29 2.069001 1_555
Al6 O104 1.763255 1_555
Al6 O102 1.787712 1_555
Al6 O106 1.814196 1_555
Al6 O30 2.065181 1_555
Al6 O32 2.115638 1_555
Al6 O34 2.133160 1_555
Al7 O33 1.745576 1_555
Al7 O35 1.900665 1_555
Al7 O107 1.929301 1_555
Al7 O105 2.011078 1_555
Al7 O31 2.011815 1_555
Al7 O103 2.065427 1_555
Al8 O110 1.779050 1_555
Al8 O108 1.784551 1_555
Al8 O112 1.831955 1_555
Al8 O38 1.946859 1_556
Al8 O36 2.132142 1_556
Al8 O40 2.139739 1_556
Al9 O41 1.735308 1_556
Al9 O113 1.894085 1_555
Al9 O37 1.911396 1_556
Al9 O111 1.971744 1_555
Al9 O39 2.000513 1_556
Al9 O109 2.062186 1_555
Al10 O44 1.733971 1_555
Al10 O46 1.776886 1_555
Al10 O42 1.927567 1_555
Al10 O116 2.050916 1_555
Al10 O118 2.070187 1_555
Al10 O114 2.198412 1_555
Al11 O115 1.793455 1_555
Al11 O119 1.801289 1_555
Al11 O117 1.843936 1_555
Al11 O47 1.945747 1_555
Al11 O43 2.032155 1_555
Al11 O45 2.125220 1_555
Al12 O48 1.753965 1_554
Al12 O52 1.779453 1_554
Al12 O50 1.971980 1_554
Al12 O124 2.070050 1_555
Al12 O120 2.236838 1_555
Al12 O122 2.264427 1_555
Al13 O51 1.749022 1_554
Al13 O125 1.786335 1_555
Al13 O53 1.948943 1_554
Al13 O49 1.992545 1_554
Al13 O123 2.024363 1_555
Al13 O121 2.130526 1_555
Al14 O58 1.748298 1_555
Al14 O128 1.770583 1_555
Al14 O130 1.993111 1_555
Al14 O56 1.994562 1_555
Al14 O54 2.025396 1_555
Al14 O126 2.078042 1_555
Al15 O57 1.791626 1_555
Al15 O55 1.819332 1_555
Al15 O131 1.847231 1_555
Al15 O59 2.067092 1_555
Al15 O129 2.081104 1_555
Al15 O127 2.264564 1_555
Al16 O65 1.777284 1_555
Al16 O63 1.786639 1_555
Al16 O137 1.824523 1_555
Al16 O61 2.035038 1_555
Al16 O135 2.139848 1_555
Al16 O133 2.289538 1_555
Al17 O68 1.789172 1_555
Al17 O70 1.799213 1_555
Al17 O140 1.816121 1_555
Al17 O142 1.959342 1_555
Al17 O66 2.191476 1_555
Al17 O138 2.233145 1_555
O0 Si0 1.592346 1_555
O1 S0 1.479142 1_555
O2 Si1 1.592195 1_555
O3 S1 1.468481 1_555
O4 Si2 1.611352 1_555
O5 S2 1.452126 1_555
O6 S3 1.500600 1_555
O7 Si3 1.588834 1_555
O8 S4 1.457217 1_555
O9 Si4 1.622629 1_655
O10 S5 1.482017 1_555
O11 Si5 1.600850 1_555
O12 S5 1.504658 1_565
O13 Si5 1.694947 1_565
O14 S3 1.523541 1_555
O15 Si3 1.635029 1_555
O16 Si4 1.734746 1_555
O17 S4 1.467816 1_555
O18 Si1 1.704826 1_555
O19 S1 1.536768 1_555
O20 S2 1.502058 1_455
O21 Si2 1.752341 1_555
O22 Si0 1.657548 1_565
O23 S0 1.523828 1_565
O24 Si6 1.615213 1_555
O25 S6 1.467263 1_555
O26 S7 1.477378 1_555
O27 S8 1.469975 1_555
O28 Si7 1.613840 1_555
O29 S9 1.463597 1_555
O30 S10 1.470016 1_555
O31 S11 1.474404 1_555
O32 S12 1.461676 1_555
O33 Si8 1.613738 1_555
O34 S13 1.462409 1_555
O35 S14 1.487042 1_555
O36 S13 1.470960 1_555
O37 S14 1.478880 1_555
O38 S10 1.478980 1_555
O39 S11 1.478508 1_555
O40 S12 1.464469 1_555
O41 Si8 1.606111 1_555
O42 S7 1.478913 1_555
O43 S8 1.481943 1_555
O44 Si7 1.608555 1_555
O45 S9 1.469004 1_555
O46 Si6 1.626836 1_555
O47 S6 1.477068 1_555
O48 Si9 1.657918 1_555
O49 S15 1.464399 1_555
O50 S16 1.507864 1_555
O51 Si10 1.597657 1_555
O52 Si11 1.648501 1_555
O53 S17 1.477291 1_555
O54 S18 1.459444 1_555
O55 Si12 1.648815 1_555
O56 S19 1.471446 1_555
O57 Si13 1.626297 1_555
O58 Si14 1.591076 1_555
O59 S20 1.487252 1_555
O60 Si14 1.687658 1_555
O61 S20 1.488575 1_555
O62 S18 1.515031 1_555
O63 Si12 1.641637 1_555
O64 S19 1.500821 1_555
O65 Si13 1.623625 1_555
O66 S16 1.469700 1_555
O67 Si10 1.675038 1_555
O68 Si11 1.616448 1_555
O69 S17 1.483671 1_555
O70 Si9 1.633089 1_555
O71 S15 1.489442 1_555
O72 Si14 1.622870 1_555
O73 S20 1.483827 1_555
O74 S18 1.487804 1_555
O75 Si12 1.647569 1_555
O76 S19 1.487244 1_555
O77 Si13 1.663573 1_555
O78 S16 1.476217 1_555
O79 Si10 1.622532 1_555
O80 Si11 1.668528 1_555
O81 S17 1.474231 1_555
O82 Si9 1.628074 1_555
O83 S15 1.488796 1_555
O84 Si6 1.722212 1_555
O85 S6 1.519544 1_555
O86 S7 1.519613 1_555
O87 S8 1.535456 1_555
O88 Si7 1.686138 1_555
O89 S9 1.552332 1_555
O90 S10 1.520555 1_555
O91 S11 1.535583 1_555
O92 S12 1.547064 1_555
O93 Si8 1.698122 1_555
O94 S13 1.553410 1_555
O95 S14 1.510754 1_555
O96 S5 1.479902 1_555
O97 Si5 1.579890 1_555
O98 S3 1.478933 1_555
O99 Si3 1.587212 1_555
O100 S4 1.488025 1_555
O101 Si4 1.588947 1_655
O102 Si1 1.580637 1_555
O103 S1 1.488565 1_555
O104 Si2 1.591244 1_555
O105 S2 1.485627 1_555
O106 Si0 1.587346 1_555
O107 S0 1.500971 1_555
O108 Si9 1.624745 1_555
O109 S15 1.509596 1_555
O110 Si10 1.619153 1_555
O111 S16 1.514729 1_655
O112 Si11 1.622039 1_545
O113 S17 1.505044 1_545
O114 S18 1.484376 1_545
O115 Si12 1.627276 1_545
O116 S19 1.487874 1_555
O117 Si13 1.628071 1_555
O118 S20 1.503587 1_555
O119 Si14 1.612671 1_655
O120 S13 1.486315 1_555
O121 S14 1.464372 1_555
O122 S11 1.472084 1_455
O123 S10 1.484968 1_555
O124 S12 1.500597 1_565
O125 Si8 1.618015 1_565
O126 S7 1.472818 1_565
O127 S8 1.464786 1_565
O128 Si7 1.625288 1_555
O129 S9 1.477226 1_555
O130 S6 1.486399 1_455
O131 Si6 1.619462 1_555
O132 Si0 1.683673 1_565
O133 S0 1.452691 1_565
O134 Si1 1.645943 1_555
O135 S1 1.465005 1_555
O136 S2 1.505170 1_455
O137 Si2 1.612512 1_555
O138 S3 1.457607 1_555
O139 Si3 1.696963 1_555
O140 Si4 1.610512 1_555
O141 S4 1.535118 1_555
O142 S5 1.483294 1_565
O143 Si5 1.648489 1_565
