# generated using pymatgen
data_MgV5CoO12
_symmetry_space_group_name_H-M   'P 1'
_cell_length_a   7.11232301
_cell_length_b   6.99030702
_cell_length_c   5.56869750
_cell_angle_alpha   70.65659120
_cell_angle_beta   108.22581094
_cell_angle_gamma   102.74761585
_symmetry_Int_Tables_number   1
_chemical_formula_structural   MgV5CoO12
_chemical_formula_sum   'Mg1 V5 Co1 O12'
_cell_volume   246.00061016
_cell_formula_units_Z   1
loop_
 _symmetry_equiv_pos_site_id
 _symmetry_equiv_pos_as_xyz
  1  'x, y, z'
loop_
 _atom_site_type_symbol
 _atom_site_label
 _atom_site_symmetry_multiplicity
 _atom_site_fract_x
 _atom_site_fract_y
 _atom_site_fract_z
 _atom_site_occupancy
  Mg  Mg0  1  0.72377013  0.73082542  0.74357277  1
  V  V0  1  0.20740692  0.62538784  0.77086043  1
  V  V1  1  0.39069088  0.85669292  0.21325567  1
  V  V2  1  0.60770950  0.18665245  0.72780299  1
  V  V3  1  0.81443167  0.38034780  0.23540216  1
  V  V4  1  0.91746767  0.91777642  0.24967850  1
  Co  Co0  1  0.09262044  0.09640520  0.75031106  1
  O  O0  1  0.01756626  0.78999390  0.65951064  1
  O  O1  1  0.09525273  0.39304653  0.72911158  1
  O  O2  1  0.17706709  0.97510459  0.16703769  1
  O  O3  1  0.40004193  0.71626364  0.60651583  1
  O  O4  1  0.39054309  0.04666130  0.84113385  1
  O  O5  1  0.30556752  0.61276296  0.10586995  1
  O  O6  1  0.69470742  0.40557906  0.87167380  1
  O  O7  1  0.65727516  0.86931772  0.33408556  1
  O  O8  1  0.59749541  0.27412897  0.38205728  1
  O  O9  1  0.79839488  0.01186890  0.84074202  1
  O  O10  1  0.86214116  0.64970532  0.17297919  1
  O  O11  1  0.97207112  0.18148105  0.34839803  1
loop_
_geom_bond_atom_site_label_1
_geom_bond_atom_site_label_2
_geom_bond_distance
_geom_bond_site_symmetry_2
Mg0 O7 2.103745 1_555
Mg0 O9 2.120964 1_565
Mg0 O6 2.128650 1_555
Mg0 O3 2.177842 1_555
Mg0 O0 2.204249 1_655
Mg0 O10 2.209987 1_556
Co0 O1 2.033776 1_555
Co0 O11 2.059355 1_455
Co0 O4 2.098770 1_555
Co0 O2 2.124706 1_546
Co0 O9 2.213189 1_455
Co0 O0 2.274300 1_545
O0 V0 1.794661 1_555
O0 V4 2.104073 1_455
O1 V0 1.700164 1_555
O2 V1 1.796974 1_555
O2 V4 1.965759 1_455
O3 V0 1.770123 1_555
O3 V1 2.068212 1_555
O4 V2 1.809741 1_555
O4 V1 2.057638 1_546
O5 V0 1.754694 1_554
O5 V1 1.903970 1_555
O6 V2 1.857687 1_555
O6 V3 1.899884 1_556
O7 V1 1.795256 1_555
O7 V4 1.980476 1_555
O8 V2 1.799544 1_555
O8 V3 1.865422 1_555
O9 V2 1.848327 1_555
O9 V4 2.093533 1_546
O10 V3 1.771860 1_555
O10 V4 1.987067 1_555
O11 V3 1.803479 1_555
O11 V4 2.018146 1_545
