# generated using pymatgen
data_Sr3MgTi2O7
_symmetry_space_group_name_H-M   'P 1'
_cell_length_a   3.84318138
_cell_length_b   3.84318093
_cell_length_c   14.39696479
_cell_angle_alpha   96.66508178
_cell_angle_beta   96.66508033
_cell_angle_gamma   89.80130718
_symmetry_Int_Tables_number   1
_chemical_formula_structural   Sr3MgTi2O7
_chemical_formula_sum   'Sr3 Mg1 Ti2 O7'
_cell_volume   209.76841820
_cell_formula_units_Z   1
loop_
 _symmetry_equiv_pos_site_id
 _symmetry_equiv_pos_as_xyz
  1  'x, y, z'
loop_
 _atom_site_type_symbol
 _atom_site_label
 _atom_site_symmetry_multiplicity
 _atom_site_fract_x
 _atom_site_fract_y
 _atom_site_fract_z
 _atom_site_occupancy
  Sr  Sr0  1  0.34379212  0.34379212  0.66205873  1
  Sr  Sr1  1  0.46159275  0.46159275  0.93390137  1
  Sr  Sr2  1  0.77812194  0.77812194  0.46605008  1
  Mg  Mg0  1  0.57956743  0.57956743  0.20275751  1
  Ti  Ti0  1  0.03445497  0.03445497  0.09946601  1
  Ti  Ti1  1  0.89972363  0.89972363  0.79207772  1
  O  O0  1  0.90951487  0.40905122  0.81341983  1
  O  O1  1  0.84217256  0.84217256  0.66185055  1
  O  O2  1  0.97834182  0.97834182  0.97098370  1
  O  O3  1  0.54907348  0.04969188  0.13286834  1
  O  O4  1  0.04969188  0.54907348  0.13286834  1
  O  O5  1  0.40905122  0.90951487  0.81341983  1
  O  O6  1  0.24823433  0.24823433  0.49952799  1
loop_
_geom_bond_atom_site_label_1
_geom_bond_atom_site_label_2
_geom_bond_distance
_geom_bond_site_symmetry_2
Mg0 O3 2.161424 1_555
Mg0 O4 2.161425 1_555
Mg0 O3 2.164197 1_565
Mg0 O4 2.164197 1_655
O0 Ti1 1.945039 1_555
O0 Ti1 1.945662 1_545
O0 Sr1 2.572668 1_655
O0 Sr1 2.573382 1_555
O0 Sr0 2.882989 1_655
O0 Sr0 2.883697 1_555
O1 Ti1 1.849545 1_555
O1 Sr0 2.712838 1_565
O1 Sr0 2.712838 1_655
O1 Sr0 2.713922 1_555
O1 Sr0 2.730576 1_665
O1 Sr2 2.783134 1_555
O2 Ti0 1.824756 1_666
O2 Ti1 2.540897 1_555
O2 Sr1 2.763475 1_655
O2 Sr1 2.763475 1_565
O2 Sr1 2.769081 1_665
O2 Sr1 2.776368 1_555
O3 Ti0 1.978732 1_655
O3 Ti0 1.979838 1_555
O4 Ti0 1.978731 1_565
O4 Ti0 1.979837 1_555
O5 Ti1 1.945039 1_555
O5 Ti1 1.945663 1_455
O5 Sr1 2.572668 1_565
O5 Sr1 2.573382 1_555
O5 Sr0 2.882989 1_565
O5 Sr0 2.883697 1_555
O6 Sr0 2.312375 1_555
O6 Sr2 2.525705 1_445
O6 Sr2 2.764760 1_455
O6 Sr2 2.764760 1_545
O6 Sr2 3.001840 1_555
