# generated using pymatgen
data_Sb(PO3)4
_symmetry_space_group_name_H-M   'P 1'
_cell_length_a   13.00646100
_cell_length_b   7.21408800
_cell_length_c   11.64837301
_cell_angle_alpha   53.71561259
_cell_angle_beta   90.00000000
_cell_angle_gamma   90.00000000
_symmetry_Int_Tables_number   1
_chemical_formula_structural   Sb(PO3)4
_chemical_formula_sum   'Sb4 P16 O48'
_cell_volume   881.02686280
_cell_formula_units_Z   4
loop_
 _symmetry_equiv_pos_site_id
 _symmetry_equiv_pos_as_xyz
  1  'x, y, z'
loop_
 _atom_site_type_symbol
 _atom_site_label
 _atom_site_symmetry_multiplicity
 _atom_site_fract_x
 _atom_site_fract_y
 _atom_site_fract_z
 _atom_site_occupancy
  Sb  Sb0  1  0.72425200  0.02315700  0.48259500  1
  Sb  Sb1  1  0.77574800  0.02315700  0.98259500  1
  Sb  Sb2  1  0.27574800  0.97684300  0.51740500  1
  Sb  Sb3  1  0.22425200  0.97684300  0.01740500  1
  P  P0  1  0.36990000  0.16898400  0.19724300  1
  P  P1  1  0.09261600  0.94024800  0.28605400  1
  P  P2  1  0.11311800  0.50197300  0.75947100  1
  P  P3  1  0.13010000  0.16898400  0.69724300  1
  P  P4  1  0.61017500  0.60725800  0.27562600  1
  P  P5  1  0.88982500  0.60725800  0.77562600  1
  P  P6  1  0.59261600  0.05975200  0.21394600  1
  P  P7  1  0.88688200  0.49802700  0.24052900  1
  P  P8  1  0.38982500  0.39274200  0.72437400  1
  P  P9  1  0.63010000  0.83101600  0.80275700  1
  P  P10  1  0.86990000  0.83101600  0.30275700  1
  P  P11  1  0.40738400  0.94024800  0.78605400  1
  P  P12  1  0.61311800  0.49802700  0.74052900  1
  P  P13  1  0.11017500  0.39274200  0.22437400  1
  P  P14  1  0.38688200  0.50197300  0.25947100  1
  P  P15  1  0.90738400  0.05975200  0.71394600  1
  O  O0  1  0.78736600  0.83888200  0.38914100  1
  O  O1  1  0.01917900  0.16072900  0.64016200  1
  O  O2  1  0.21263400  0.16111800  0.61085900  1
  O  O3  1  0.98082100  0.83927100  0.35983800  1
  O  O4  1  0.71263400  0.83888200  0.88914100  1
  O  O5  1  0.00488500  0.42636700  0.28157600  1
  O  O6  1  0.92532000  0.78628000  0.80817300  1
  O  O7  1  0.86494300  0.57808600  0.34108200  1
  O  O8  1  0.10867300  0.87858200  0.18282000  1
  O  O9  1  0.87132000  0.00509100  0.14217400  1
  O  O10  1  0.33390600  0.85430900  0.90612900  1
  O  O11  1  0.89132700  0.12141800  0.81718000  1
  O  O12  1  0.37132000  0.99490900  0.35782600  1
  O  O13  1  0.18264300  0.27667600  0.35038400  1
  O  O14  1  0.32590500  0.71993000  0.20132600  1
  O  O15  1  0.07468000  0.21372000  0.19182700  1
  O  O16  1  0.35245400  0.60871000  0.59069300  1
  O  O17  1  0.51917900  0.83927100  0.85983800  1
  O  O18  1  0.83390600  0.14569100  0.59387100  1
  O  O19  1  0.63505700  0.57808600  0.84108200  1
  O  O20  1  0.50488500  0.57363300  0.21842400  1
  O  O21  1  0.64754600  0.39129000  0.40930700  1
  O  O22  1  0.60867300  0.12141800  0.31718000  1
  O  O23  1  0.16609400  0.85430900  0.40612900  1
  O  O24  1  0.28736600  0.16111800  0.11085900  1
  O  O25  1  0.12355500  0.30638200  0.91548200  1
  O  O26  1  0.49511500  0.42636700  0.78157600  1
  O  O27  1  0.12868000  0.99490900  0.85782600  1
  O  O28  1  0.81735700  0.72332400  0.64961600  1
  O  O29  1  0.36494300  0.42191400  0.15891800  1
  O  O30  1  0.66609400  0.14569100  0.09387100  1
  O  O31  1  0.99511500  0.57363300  0.71842400  1
  O  O32  1  0.37644500  0.30638200  0.41548200  1
  O  O33  1  0.14754600  0.60871000  0.09069300  1
  O  O34  1  0.42532000  0.21372000  0.69182700  1
  O  O35  1  0.68264300  0.72332400  0.14961600  1
  O  O36  1  0.67409500  0.28007000  0.79867400  1
  O  O37  1  0.57468000  0.78628000  0.30817300  1
  O  O38  1  0.48082100  0.16072900  0.14016200  1
  O  O39  1  0.87644500  0.69361800  0.08451800  1
  O  O40  1  0.17409500  0.71993000  0.70132600  1
  O  O41  1  0.39132700  0.87858200  0.68282000  1
  O  O42  1  0.82590500  0.28007000  0.29867400  1
  O  O43  1  0.62868000  0.00509100  0.64217400  1
  O  O44  1  0.62355500  0.69361800  0.58451800  1
  O  O45  1  0.31735700  0.27667600  0.85038400  1
  O  O46  1  0.13505700  0.42191400  0.65891800  1
  O  O47  1  0.85245400  0.39129000  0.90930700  1
loop_
_geom_bond_atom_site_label_1
_geom_bond_atom_site_label_2
_geom_bond_distance
_geom_bond_site_symmetry_2
O0 P10 1.495211 1_555
O0 Sb0 2.310615 1_565
O1 P3 1.604325 1_555
O1 P15 1.625604 1_455
O2 P3 1.495211 1_555
O2 Sb2 2.310615 1_545
O3 P10 1.604325 1_555
O3 P1 1.625604 1_655
O4 P9 1.495211 1_555
O4 Sb1 2.310615 1_565
O5 P7 1.599663 1_455
O5 P13 1.602968 1_555
O6 P15 1.608835 1_565
O6 P5 1.613785 1_555
O7 P10 1.602722 1_555
O7 P7 1.608587 1_555
O8 P1 1.523387 1_555
O8 Sb3 2.204163 1_555
O9 P10 1.515255 1_545
O9 Sb1 2.175017 1_554
O10 P11 1.492538 1_555
O10 Sb3 2.419032 1_556
O11 P15 1.523387 1_555
O11 Sb1 2.204163 1_555
O12 P0 1.515255 1_565
O12 Sb2 2.175017 1_555
O13 P13 1.513050 1_555
O13 Sb2 2.224720 1_545
O14 P14 1.516438 1_555
O14 Sb3 2.252397 1_555
O15 P1 1.608835 1_545
O15 P13 1.613785 1_555
O16 P8 1.488941 1_555
O16 Sb2 2.468545 1_555
O17 P9 1.604325 1_555
O17 P11 1.625604 1_555
O18 P15 1.492538 1_555
O18 Sb0 2.419032 1_555
O19 P9 1.602722 1_555
O19 P12 1.608587 1_555
O20 P14 1.599663 1_555
O20 P4 1.602968 1_555
O21 P4 1.488941 1_555
O21 Sb0 2.468545 1_555
O22 P6 1.523387 1_555
O22 Sb0 2.204163 1_555
O23 P1 1.492538 1_555
O23 Sb2 2.419032 1_555
O24 P0 1.495211 1_555
O24 Sb3 2.310615 1_545
O25 P2 1.508946 1_555
O25 Sb3 2.331508 1_546
O26 P12 1.599663 1_555
O26 P8 1.602968 1_555
O27 P3 1.515255 1_565
O27 Sb3 2.175017 1_556
O28 P5 1.513050 1_555
O28 Sb0 2.224720 1_565
O29 P0 1.602722 1_555
O29 P14 1.608587 1_555
O30 P6 1.492538 1_555
O30 Sb1 2.419032 1_554
O31 P2 1.599663 1_655
O31 P5 1.602968 1_555
O32 P14 1.508946 1_555
O32 Sb2 2.331508 1_545
O33 P13 1.488941 1_555
O33 Sb3 2.468545 1_555
O34 P11 1.608835 1_545
O34 P8 1.613785 1_555
O35 P4 1.513050 1_555
O35 Sb1 2.224720 1_564
O36 P12 1.516438 1_555
O36 Sb1 2.252397 1_555
O37 P6 1.608835 1_565
O37 P4 1.613785 1_555
O38 P0 1.604325 1_555
O38 P6 1.625604 1_555
O39 P7 1.508946 1_555
O39 Sb1 2.331508 1_564
O40 P2 1.516438 1_555
O40 Sb2 2.252397 1_555
O41 P11 1.523387 1_555
O41 Sb2 2.204163 1_555
O42 P7 1.516438 1_555
O42 Sb0 2.252397 1_555
O43 P9 1.515255 1_545
O43 Sb0 2.175017 1_555
O44 P12 1.508946 1_555
O44 Sb0 2.331508 1_565
O45 P8 1.513050 1_555
O45 Sb3 2.224720 1_546
O46 P3 1.602722 1_555
O46 P2 1.608587 1_555
O47 P5 1.488941 1_555
O47 Sb1 2.468545 1_555
