# generated using pymatgen
data_MgNb2(FeO4)2
_symmetry_space_group_name_H-M   'P 1'
_cell_length_a   3.95675140
_cell_length_b   6.85330066
_cell_length_c   7.14317335
_cell_angle_alpha   106.18212683
_cell_angle_beta   90.05257853
_cell_angle_gamma   106.65378956
_symmetry_Int_Tables_number   1
_chemical_formula_structural   MgNb2(FeO4)2
_chemical_formula_sum   'Mg1 Nb2 Fe2 O8'
_cell_volume   177.53441660
_cell_formula_units_Z   1
loop_
 _symmetry_equiv_pos_site_id
 _symmetry_equiv_pos_as_xyz
  1  'x, y, z'
loop_
 _atom_site_type_symbol
 _atom_site_label
 _atom_site_symmetry_multiplicity
 _atom_site_fract_x
 _atom_site_fract_y
 _atom_site_fract_z
 _atom_site_occupancy
  Mg  Mg0  1  0.31284500  0.62732600  0.48032400  1
  Nb  Nb0  1  0.08971600  0.19675000  0.21481400  1
  Nb  Nb1  1  0.90309400  0.80770000  0.80631800  1
  Fe  Fe0  1  0.19365400  0.39066300  0.80092400  1
  Fe  Fe1  1  0.79049700  0.58705000  0.16001900  1
  O  O0  1  0.25325800  0.50725500  0.18754200  1
  O  O1  1  0.75043100  0.50310000  0.84886700  1
  O  O2  1  0.37804500  0.75761700  0.77713700  1
  O  O3  1  0.61476600  0.23116700  0.18746700  1
  O  O4  1  0.05316800  0.10876600  0.87844200  1
  O  O5  1  0.94302100  0.88515600  0.12353000  1
  O  O6  1  0.15327000  0.30982700  0.48827100  1
  O  O7  1  0.85794200  0.71762300  0.51634400  1
loop_
_geom_bond_atom_site_label_1
_geom_bond_atom_site_label_2
_geom_bond_distance
_geom_bond_site_symmetry_2
Mg0 O0 2.008805 1_555
Mg0 O2 2.042254 1_555
Mg0 O7 2.058998 1_455
Mg0 O7 2.060634 1_555
Mg0 O6 2.101890 1_555
Nb0 O6 1.876972 1_555
Nb0 O5 1.958305 1_445
Nb0 O3 1.975977 1_455
Nb0 O3 2.038462 1_555
Nb0 O0 2.104050 1_555
Nb0 O4 2.302087 1_554
Nb1 O4 1.892065 1_665
Nb1 O7 1.981621 1_555
Nb1 O2 2.005852 1_655
Nb1 O2 2.006946 1_555
Nb1 O1 2.108601 1_555
Nb1 O5 2.172992 1_556
Fe0 O4 2.080680 1_555
Fe0 O1 2.101232 1_455
Fe0 O1 2.107819 1_555
Fe0 O6 2.139908 1_555
Fe0 O2 2.464216 1_555
Fe0 O0 2.642305 1_556
Fe1 O5 2.048521 1_555
Fe1 O0 2.061745 1_555
Fe1 O0 2.079321 1_655
Fe1 O1 2.128491 1_554
Fe1 O3 2.401096 1_555
Fe1 O7 2.437793 1_555
