# generated using pymatgen
data_Na8MgTi2O8
_symmetry_space_group_name_H-M   'P 1'
_cell_length_a   7.32428357
_cell_length_b   7.32428357
_cell_length_c   6.16659767
_cell_angle_alpha   100.20452530
_cell_angle_beta   100.20452530
_cell_angle_gamma   79.76945638
_symmetry_Int_Tables_number   1
_chemical_formula_structural   Na8MgTi2O8
_chemical_formula_sum   'Na8 Mg1 Ti2 O8'
_cell_volume   316.75285579
_cell_formula_units_Z   1
loop_
 _symmetry_equiv_pos_site_id
 _symmetry_equiv_pos_as_xyz
  1  'x, y, z'
loop_
 _atom_site_type_symbol
 _atom_site_label
 _atom_site_symmetry_multiplicity
 _atom_site_fract_x
 _atom_site_fract_y
 _atom_site_fract_z
 _atom_site_occupancy
  Na  Na0  1  0.16943180  0.83056820  0.50000000  1
  Na  Na1  1  0.14894369  0.85105631  0.00000000  1
  Na  Na2  1  0.59400022  0.89407935  0.26876892  1
  Na  Na3  1  0.10592065  0.40599978  0.73123108  1
  Na  Na4  1  0.40599978  0.10592065  0.73123108  1
  Na  Na5  1  0.89407935  0.59400022  0.26876892  1
  Na  Na6  1  0.85105631  0.14894369  0.00000000  1
  Na  Na7  1  0.83056820  0.16943180  0.50000000  1
  Mg  Mg0  1  0.50000000  0.50000000  0.50000000  1
  Ti  Ti0  1  0.74682134  0.74682134  0.73057042  1
  Ti  Ti1  1  0.25317866  0.25317866  0.26942958  1
  O  O0  1  0.21189682  0.50641547  0.38893874  1
  O  O1  1  0.49358453  0.78810318  0.61106126  1
  O  O2  1  0.82723013  0.82723013  0.02852759  1
  O  O3  1  0.13155751  0.13155751  0.41685161  1
  O  O4  1  0.17276987  0.17276987  -0.02852759  1
  O  O5  1  0.86844249  0.86844249  0.58314839  1
  O  O6  1  0.78810318  0.49358453  0.61106126  1
  O  O7  1  0.50641547  0.21189682  0.38893874  1
loop_
_geom_bond_atom_site_label_1
_geom_bond_atom_site_label_2
_geom_bond_distance
_geom_bond_site_symmetry_2
Na0 O5 2.309264 1_455
Na0 O3 2.309264 1_565
Na0 O1 2.332291 1_555
Na0 O0 2.332291 1_555
Na1 O4 2.432585 1_565
Na1 O2 2.432585 1_455
Na2 O7 2.325089 1_565
Na2 O2 2.386453 1_555
Na2 O5 2.539341 1_555
Na2 O1 2.632900 1_555
Na3 O6 2.325089 1_455
Na3 O4 2.386453 1_556
Na3 O3 2.539341 1_555
Na3 O0 2.632900 1_555
Na4 O1 2.325089 1_545
Na4 O4 2.386453 1_556
Na4 O3 2.539341 1_555
Na4 O7 2.632900 1_555
Na5 O0 2.325089 1_655
Na5 O2 2.386453 1_555
Na5 O5 2.539341 1_555
Na5 O6 2.632900 1_555
Na6 O4 2.432585 1_655
Na6 O2 2.432585 1_545
Na7 O3 2.309264 1_655
Na7 O5 2.309264 1_545
Na7 O6 2.332291 1_555
Na7 O7 2.332291 1_555
Mg0 O1 2.094780 1_555
Mg0 O7 2.094780 1_555
Mg0 O6 2.094780 1_555
Mg0 O0 2.094780 1_555
O0 Ti1 1.862835 1_555
O1 Ti0 1.862835 1_555
O2 Ti0 1.850957 1_554
O3 Ti1 1.808091 1_555
O4 Ti1 1.850957 1_555
O5 Ti0 1.808091 1_555
O6 Ti0 1.862835 1_555
O7 Ti1 1.862835 1_555
