# generated using pymatgen
data_Na3LaZrSi(PO6)2
_symmetry_space_group_name_H-M   'P 1'
_cell_length_a   16.33015531
_cell_length_b   9.48409071
_cell_length_c   9.47724324
_cell_angle_alpha   90.00000000
_cell_angle_beta   125.34613186
_cell_angle_gamma   90.00000000
_symmetry_Int_Tables_number   1
_chemical_formula_structural   Na3LaZrSi(PO6)2
_chemical_formula_sum   'Na12 La4 Zr4 Si4 P8 O48'
_cell_volume   1197.24664587
_cell_formula_units_Z   4
loop_
 _symmetry_equiv_pos_site_id
 _symmetry_equiv_pos_as_xyz
  1  'x, y, z'
loop_
 _atom_site_type_symbol
 _atom_site_label
 _atom_site_symmetry_multiplicity
 _atom_site_fract_x
 _atom_site_fract_y
 _atom_site_fract_z
 _atom_site_occupancy
  Na  Na0  1  0.25475970  0.72022950  0.00926009  1
  Na  Na1  1  0.75475970  0.77977050  0.50926009  1
  Na  Na2  1  0.75475970  0.22022950  0.00926009  1
  Na  Na3  1  0.25475970  0.27977050  0.50926009  1
  Na  Na4  1  0.50829798  0.08276408  0.75882946  1
  Na  Na5  1  0.50829798  0.91723592  0.25882946  1
  Na  Na6  1  0.00829798  0.58276408  0.75882946  1
  Na  Na7  1  0.00829798  0.41723592  0.25882946  1
  Na  Na8  1  0.18350320  0.92316714  0.30439487  1
  Na  Na9  1  0.18350320  0.07683286  0.80439487  1
  Na  Na10  1  0.68350320  0.42316714  0.30439487  1
  Na  Na11  1  0.68350320  0.57683286  0.80439487  1
  La  La0  1  0.10682558  0.74464481  0.56665564  1
  La  La1  1  0.10682558  0.25535519  0.06665564  1
  La  La2  1  0.60682558  0.24464481  0.56665564  1
  La  La3  1  0.60682558  0.75535519  0.06665564  1
  Zr  Zr0  1  0.89809522  0.75940397  0.94246427  1
  Zr  Zr1  1  0.89809522  0.24059603  0.44246427  1
  Zr  Zr2  1  0.39809522  0.25940397  0.94246427  1
  Zr  Zr3  1  0.39809522  0.74059603  0.44246427  1
  Si  Si0  1  0.65031984  0.88275454  0.74067203  1
  Si  Si1  1  0.65031984  0.11724546  0.24067203  1
  Si  Si2  1  0.15031984  0.38275454  0.74067203  1
  Si  Si3  1  0.15031984  0.61724546  0.24067203  1
  P  P0  1  0.99130039  0.95438290  0.75451040  1
  P  P1  1  0.99130039  0.04561710  0.25451040  1
  P  P2  1  0.49130039  0.45438290  0.75451040  1
  P  P3  1  0.49130039  0.54561710  0.25451040  1
  P  P4  1  0.35278498  0.92344352  0.74836392  1
  P  P5  1  0.35278498  0.07655648  0.24836392  1
  P  P6  1  0.85278498  0.42344352  0.74836392  1
  P  P7  1  0.85278498  0.57655648  0.24836392  1
  O  O0  1  0.15750977  0.55424399  0.75941890  1
  O  O1  1  0.85504759  0.58932098  0.74396736  1
  O  O2  1  0.85504759  0.41067902  0.24396736  1
  O  O3  1  0.15750977  0.44575601  0.25941890  1
  O  O4  1  0.65750977  0.05424399  0.75941890  1
  O  O5  1  0.35504759  0.08932098  0.74396736  1
  O  O6  1  0.35504759  0.91067902  0.24396736  1
  O  O7  1  0.65750977  0.94575601  0.25941890  1
  O  O8  1  0.43579845  0.56036672  0.59551159  1
  O  O9  1  0.55324368  0.53666876  0.92257246  1
  O  O10  1  0.55324368  0.46333124  0.42257246  1
  O  O11  1  0.43579845  0.43963328  0.09551159  1
  O  O12  1  0.93579845  0.06036672  0.59551159  1
  O  O13  1  0.05324368  0.03666876  0.92257246  1
  O  O14  1  0.05324368  0.96333124  0.42257246  1
  O  O15  1  0.93579845  0.93963328  0.09551159  1
  O  O16  1  0.26146051  0.88008039  0.74800373  1
  O  O17  1  0.74481078  0.80473985  0.75125832  1
  O  O18  1  0.74481078  0.19526015  0.25125832  1
  O  O19  1  0.26146051  0.11991961  0.24800373  1
  O  O20  1  0.76146051  0.38008039  0.74800373  1
  O  O21  1  0.24481078  0.30473985  0.75125832  1
  O  O22  1  0.24481078  0.69526015  0.25125832  1
  O  O23  1  0.76146051  0.61991961  0.24800373  1
  O  O24  1  0.35034308  0.86982479  0.58653068  1
  O  O25  1  0.65084433  0.81612808  0.89765958  1
  O  O26  1  0.65084433  0.18387192  0.39765958  1
  O  O27  1  0.35034308  0.13017521  0.08653068  1
  O  O28  1  0.85034308  0.36982479  0.58653068  1
  O  O29  1  0.15084433  0.31612808  0.89765958  1
  O  O30  1  0.15084433  0.68387192  0.39765958  1
  O  O31  1  0.85034308  0.63017521  0.08653068  1
  O  O32  1  0.45012198  0.87258931  0.91549032  1
  O  O33  1  0.54056130  0.82760416  0.56075437  1
  O  O34  1  0.54056130  0.17239584  0.06075437  1
  O  O35  1  0.45012198  0.12741069  0.41549032  1
  O  O36  1  0.95012198  0.37258931  0.91549032  1
  O  O37  1  0.04056130  0.32760416  0.56075437  1
  O  O38  1  0.04056130  0.67239584  0.06075437  1
  O  O39  1  0.95012198  0.62741069  0.41549032  1
  O  O40  1  0.06346590  0.85682542  0.74342096  1
  O  O41  1  0.91090572  0.86118120  0.75026105  1
  O  O42  1  0.91090572  0.13881880  0.25026105  1
  O  O43  1  0.06346590  0.14317458  0.24342096  1
  O  O44  1  0.56346590  0.35682542  0.74342096  1
  O  O45  1  0.41090572  0.36118120  0.75026105  1
  O  O46  1  0.41090572  0.63881880  0.25026105  1
  O  O47  1  0.56346590  0.64317458  0.24342096  1
loop_
_geom_bond_atom_site_label_1
_geom_bond_atom_site_label_2
_geom_bond_distance
_geom_bond_site_symmetry_2
Na0 O46 2.361420 1_555
Na0 O22 2.402839 1_555
Na0 O0 2.501190 1_554
Na0 O6 2.584093 1_555
Na0 O40 2.945858 1_554
Na0 O16 2.958777 1_554
Na1 O41 2.361420 1_555
Na1 O17 2.402839 1_555
Na1 O7 2.501190 1_555
Na1 O1 2.584093 1_555
Na1 O47 2.945858 1_555
Na1 O23 2.958777 1_555
Na2 O42 2.361420 1_555
Na2 O18 2.402839 1_555
Na2 O4 2.501190 1_554
Na2 O2 2.584093 1_555
Na2 O44 2.945858 1_554
Na2 O20 2.958777 1_554
Na3 O45 2.361420 1_555
Na3 O21 2.402839 1_555
Na3 O3 2.501190 1_555
Na3 O5 2.584093 1_555
Na3 O43 2.945858 1_555
Na3 O19 2.958777 1_555
Na4 O5 2.424640 1_555
Na4 O4 2.448411 1_555
Na4 O34 2.728297 1_556
Na4 O44 2.782287 1_555
Na4 O35 2.844829 1_555
Na5 O6 2.424640 1_555
Na5 O7 2.448411 1_555
Na5 O33 2.728297 1_555
Na5 O47 2.782287 1_555
Na5 O32 2.844829 1_554
Na6 O1 2.424640 1_455
Na6 O0 2.448411 1_555
Na6 O38 2.728297 1_556
Na6 O40 2.782287 1_555
Na6 O39 2.844829 1_455
Na7 O2 2.424640 1_455
Na7 O3 2.448411 1_555
Na7 O37 2.728297 1_555
Na7 O43 2.782287 1_555
Na7 O36 2.844829 1_454
Na8 O19 2.485057 1_565
Na8 O24 2.529735 1_555
Na8 O22 2.551727 1_555
Na8 O30 2.600336 1_555
Na8 O43 2.686927 1_565
Na8 O14 2.946323 1_555
Na9 O16 2.485057 1_545
Na9 O27 2.529735 1_556
Na9 O21 2.551727 1_555
Na9 O29 2.600336 1_555
Na9 O40 2.686927 1_545
Na9 O13 2.946323 1_555
Na10 O23 2.485057 1_555
Na10 O28 2.529735 1_555
Na10 O18 2.551727 1_555
Na10 O26 2.600336 1_555
Na10 O47 2.686927 1_555
Na10 O10 2.946323 1_555
Na11 O20 2.485057 1_555
Na11 O31 2.529735 1_556
Na11 O17 2.551727 1_555
Na11 O25 2.600336 1_555
Na11 O44 2.686927 1_555
Na11 O9 2.946323 1_555
La0 O30 2.178575 1_555
La0 O0 2.352409 1_555
La0 O14 2.355727 1_555
La0 O39 2.365446 1_455
La0 O40 2.410856 1_555
La0 O16 2.441088 1_555
La1 O29 2.178575 1_554
La1 O3 2.352409 1_555
La1 O13 2.355727 1_554
La1 O36 2.365446 1_454
La1 O43 2.410856 1_555
La1 O19 2.441088 1_555
La2 O26 2.178575 1_555
La2 O4 2.352409 1_555
La2 O10 2.355727 1_555
La2 O35 2.365446 1_555
La2 O44 2.410856 1_555
La2 O20 2.441088 1_555
La3 O25 2.178575 1_554
La3 O7 2.352409 1_555
La3 O9 2.355727 1_554
La3 O32 2.365446 1_554
La3 O47 2.410856 1_555
La3 O23 2.441088 1_555
O0 Si2 1.632931 1_555
O1 P6 1.574748 1_555
O1 Zr0 2.259433 1_555
O2 P7 1.574748 1_555
O2 Zr1 2.259433 1_555
O3 Si3 1.632931 1_555
O4 Si0 1.632931 1_545
O5 P4 1.574748 1_545
O5 Zr2 2.259433 1_555
O6 P5 1.574748 1_565
O6 Zr3 2.259433 1_555
O7 Si1 1.632931 1_565
O8 P2 1.588163 1_555
O8 Zr3 2.090789 1_555
O9 P2 1.518225 1_555
O10 P3 1.518225 1_555
O11 P3 1.588163 1_555
O11 Zr2 2.090789 1_554
O12 P0 1.588163 1_545
O12 Zr1 2.090789 1_555
O13 P0 1.518225 1_445
O14 P1 1.518225 1_465
O15 P1 1.588163 1_565
O15 Zr0 2.090789 1_554
O16 P4 1.545108 1_555
O17 Si0 1.661145 1_555
O17 Zr0 2.118050 1_555
O18 Si1 1.661145 1_555
O18 Zr1 2.118050 1_555
O19 P5 1.545108 1_555
O20 P6 1.545108 1_555
O21 Si2 1.661145 1_555
O21 Zr2 2.118050 1_555
O22 Si3 1.661145 1_555
O22 Zr3 2.118050 1_555
O23 P7 1.545108 1_555
O24 P4 1.594290 1_555
O24 Zr3 2.281733 1_555
O25 Si0 1.611891 1_555
O26 Si1 1.611891 1_555
O27 P5 1.594290 1_555
O27 Zr2 2.281733 1_554
O28 P6 1.594290 1_555
O28 Zr1 2.281733 1_555
O29 Si2 1.611891 1_555
O30 Si3 1.611891 1_555
O31 P7 1.594290 1_555
O31 Zr0 2.281733 1_554
O32 P4 1.534587 1_555
O33 Si0 1.690414 1_555
O33 Zr3 2.081489 1_555
O34 Si1 1.690414 1_555
O34 Zr2 2.081489 1_554
O35 P5 1.534587 1_555
O36 P6 1.534587 1_555
O37 Si2 1.690414 1_555
O37 Zr1 2.081489 1_455
O38 Si3 1.690414 1_555
O38 Zr0 2.081489 1_454
O39 P7 1.534587 1_555
O40 P0 1.548944 1_455
O41 P0 1.563771 1_555
O41 Zr0 2.175884 1_555
O42 P1 1.563771 1_555
O42 Zr1 2.175884 1_555
O43 P1 1.548944 1_455
O44 P2 1.548944 1_555
O45 P2 1.563771 1_555
O45 Zr2 2.175884 1_555
O46 P3 1.563771 1_555
O46 Zr3 2.175884 1_555
O47 P3 1.548944 1_555
