# generated using pymatgen
data_Na4Zn3SiGeS5O24
_symmetry_space_group_name_H-M   'P 1'
_cell_length_a   8.80890847
_cell_length_b   8.83159676
_cell_length_c   22.16378597
_cell_angle_alpha   90.86065787
_cell_angle_beta   89.98536151
_cell_angle_gamma   120.27233236
_symmetry_Int_Tables_number   1
_chemical_formula_structural   Na4Zn3SiGeS5O24
_chemical_formula_sum   'Na12 Zn9 Si3 Ge3 S15 O72'
_cell_volume   1488.92552601
_cell_formula_units_Z   3
loop_
 _symmetry_equiv_pos_site_id
 _symmetry_equiv_pos_as_xyz
  1  'x, y, z'
loop_
 _atom_site_type_symbol
 _atom_site_label
 _atom_site_symmetry_multiplicity
 _atom_site_fract_x
 _atom_site_fract_y
 _atom_site_fract_z
 _atom_site_occupancy
  Na  Na0  1  0.36145032  0.36174119  0.25035108  1
  Na  Na1  1  0.30846767  0.34140063  0.58892668  1
  Na  Na2  1  0.02967413  0.70070759  0.58174805  1
  Na  Na3  1  0.98273441  0.68046834  0.91898085  1
  Na  Na4  1  0.69767604  0.02635190  0.91169216  1
  Na  Na5  1  0.31373828  0.29216989  0.92051093  1
  Na  Na6  1  0.97359492  0.98545407  0.49812052  1
  Na  Na7  1  0.01430453  0.01385566  0.00132773  1
  Na  Na8  1  0.66574255  0.32748847  0.82735901  1
  Na  Na9  1  0.68069772  0.33027199  0.33147967  1
  Na  Na10  1  0.33129359  0.67939722  0.16493935  1
  Na  Na11  1  0.36704690  0.67998493  0.66508537  1
  Zn  Zn0  1  0.99756539  0.99881285  0.34859867  1
  Zn  Zn1  1  0.00990361  0.01189761  0.84840975  1
  Zn  Zn2  1  0.96875132  0.98148307  0.65133228  1
  Zn  Zn3  1  0.99570136  0.99351660  0.15002354  1
  Zn  Zn4  1  0.66120801  0.34328188  0.68337171  1
  Zn  Zn5  1  0.67295299  0.33153881  0.18512076  1
  Zn  Zn6  1  0.31711340  0.66177602  0.01498961  1
  Zn  Zn7  1  0.35564466  0.67477991  0.51342703  1
  Zn  Zn8  1  0.33419789  0.67977300  0.31977383  1
  Si  Si0  1  0.66470735  0.62699373  0.58307049  1
  Si  Si1  1  0.04164044  0.37601922  0.91865992  1
  Si  Si2  1  0.33539375  0.96166436  0.91969251  1
  Ge  Ge0  1  0.67145180  0.31880436  0.98367315  1
  Ge  Ge1  1  0.67338653  0.34276587  0.48275484  1
  Ge  Ge2  1  0.32001431  0.67469613  0.81971916  1
  S  S0  1  0.29468869  0.99732824  0.24937595  1
  S  S1  1  0.70144110  0.70354309  0.25039263  1
  S  S2  1  0.00102778  0.29668875  0.25067630  1
  S  S3  1  0.30022461  0.31174651  0.75175452  1
  S  S4  1  0.00849467  0.70060801  0.75186980  1
  S  S5  1  0.68599913  0.98917874  0.75374598  1
  S  S6  1  0.95205891  0.32913464  0.58156700  1
  S  S7  1  0.38221640  0.04556747  0.58168184  1
  S  S8  1  0.95175572  0.62325348  0.08316851  1
  S  S9  1  0.66915356  0.03730171  0.08302211  1
  S  S10  1  0.38064239  0.33519527  0.08309297  1
  S  S11  1  0.61915266  0.66060714  0.91672233  1
  S  S12  1  0.63615531  0.98137656  0.41880982  1
  S  S13  1  0.33813258  0.36101130  0.41723784  1
  S  S14  1  0.02982914  0.65837404  0.41996074  1
  O  O0  1  0.21350564  0.02718854  0.30360078  1
  O  O1  1  0.80570842  0.78612089  0.30563631  1
  O  O2  1  0.97872728  0.19340275  0.30513707  1
  O  O3  1  0.21564602  0.21254861  0.80669499  1
  O  O4  1  0.99012083  0.78604835  0.80685224  1
  O  O5  1  0.78734055  0.00875983  0.80929599  1
  O  O6  1  0.76769394  0.96492973  0.69899131  1
  O  O7  1  0.19651699  0.22722372  0.69572172  1
  O  O8  1  0.02974099  0.80026348  0.69628301  1
  O  O9  1  0.78153144  0.80408500  0.19534443  1
  O  O10  1  0.02942895  0.21500909  0.19567148  1
  O  O11  1  0.19133815  0.97390534  0.19369120  1
  O  O12  1  0.86974765  0.35031773  0.63586617  1
  O  O13  1  0.48850791  0.11572896  0.63657302  1
  O  O14  1  0.61872893  0.49992027  0.63949423  1
  O  O15  1  0.85988747  0.51866474  0.13520822  1
  O  O16  1  0.64800154  0.12908914  0.13462229  1
  O  O17  1  0.47898940  0.34712539  0.13838102  1
  O  O18  1  0.47122922  0.31177795  0.02540539  1
  O  O19  1  0.84417838  0.53593811  0.02402177  1
  O  O20  1  0.69500723  0.14323692  0.02384797  1
  O  O21  1  0.47012470  0.15804991  0.52662930  1
  O  O22  1  0.71158179  0.53261246  0.52328688  1
  O  O23  1  0.83804394  0.29189183  0.52522382  1
  O  O24  1  0.55228925  0.70003984  0.97128261  1
  O  O25  1  0.17640902  0.44154462  0.97410534  1
  O  O26  1  0.29248961  0.84048972  0.97650019  1
  O  O27  1  0.55642946  0.88029942  0.47327163  1
  O  O28  1  0.31633447  0.44372808  0.47245735  1
  O  O29  1  0.12950932  0.67769272  0.47611991  1
  O  O30  1  0.11324920  0.63418862  0.36585052  1
  O  O31  1  0.52944316  0.90387597  0.36359410  1
  O  O32  1  0.36527376  0.46606484  0.36249513  1
  O  O33  1  0.12505373  0.51518652  0.85983626  1
  O  O34  1  0.39457114  0.88202334  0.85993055  1
  O  O35  1  0.49974111  0.62183087  0.86230488  1
  O  O36  1  0.00030103  0.80812350  0.41515839  1
  O  O37  1  0.81546951  0.00923007  0.41309271  1
  O  O38  1  0.18396671  0.18196643  0.41192624  1
  O  O39  1  0.99256383  0.17554532  0.90694801  1
  O  O40  1  0.16900087  0.98808955  0.90848665  1
  O  O41  1  0.79829078  0.81024286  0.90683802  1
  O  O42  1  0.98544003  0.18075498  0.58430164  1
  O  O43  1  0.21141223  0.04260523  0.58530782  1
  O  O44  1  0.84892384  0.81504111  0.58552889  1
  O  O45  1  0.96557673  0.79754951  0.08348366  1
  O  O46  1  0.83238241  0.02873038  0.08542197  1
  O  O47  1  0.20497900  0.17470125  0.08224503  1
  O  O48  1  0.66120765  0.14171680  0.74844363  1
  O  O49  1  0.47737271  0.33193725  0.74960405  1
  O  O50  1  0.85913514  0.51890945  0.74821351  1
  O  O51  1  0.67661774  0.52216929  0.24634639  1
  O  O52  1  0.84471338  0.31754810  0.24554545  1
  O  O53  1  0.47226527  0.16114292  0.24575505  1
  O  O54  1  0.63268819  0.49756181  0.92106196  1
  O  O55  1  0.84852577  0.37168235  0.92767458  1
  O  O56  1  0.51622133  0.16332748  0.92658179  1
  O  O57  1  0.64819760  0.16150176  0.42474362  1
  O  O58  1  0.50427227  0.34655683  0.42258526  1
  O  O59  1  0.85050934  0.48645871  0.42171522  1
  O  O60  1  0.37325366  0.49677728  0.07881469  1
  O  O61  1  0.12448711  0.63625972  0.08011926  1
  O  O62  1  0.51232264  0.86306861  0.07708779  1
  O  O63  1  0.34293476  0.86311234  0.57276480  1
  O  O64  1  0.48893052  0.64119829  0.57553542  1
  O  O65  1  0.12340378  0.49452687  0.57468031  1
  O  O66  1  0.31508364  0.84130346  0.25471049  1
  O  O67  1  0.51998663  0.67945718  0.25512886  1
  O  O68  1  0.16492542  0.47396618  0.25618927  1
  O  O69  1  0.31500329  0.49149243  0.75671353  1
  O  O70  1  0.18049779  0.69555137  0.75547061  1
  O  O71  1  0.50862328  0.81864679  0.75699632  1
loop_
_geom_bond_atom_site_label_1
_geom_bond_atom_site_label_2
_geom_bond_distance
_geom_bond_site_symmetry_2
Na0 O68 2.392064 1_555
Na0 O51 2.400170 1_555
Na0 O53 2.416599 1_555
Na0 O67 2.423873 1_555
Na0 O32 2.632083 1_555
Na0 O17 2.715004 1_555
Na0 O10 2.799199 1_555
Na0 O0 2.836005 1_555
Na1 O64 2.324914 1_555
Na1 O43 2.328068 1_555
Na1 O42 2.458832 1_455
Na1 O7 2.580668 1_555
Na1 O14 2.604311 1_555
Na1 O65 2.611889 1_555
Na1 O28 2.737149 1_555
Na2 O44 2.275982 1_455
Na2 O65 2.351405 1_555
Na2 O63 2.393625 1_555
Na2 O29 2.541740 1_555
Na2 O43 2.608783 1_565
Na2 O8 2.673876 1_555
Na2 O22 2.735752 1_455
Na2 O12 2.952058 1_455
Na3 O55 2.374207 1_555
Na3 O40 2.377329 1_655
Na3 O41 2.431618 1_555
Na3 O19 2.656338 1_556
Na3 O4 2.656734 1_555
Na3 O54 2.664555 1_555
Na3 O26 2.669746 1_655
Na3 O33 2.684685 1_655
Na4 O39 2.246796 1_555
Na4 O5 2.431210 1_555
Na4 O56 2.462623 1_555
Na4 O41 2.477721 1_545
Na4 O34 2.568309 1_545
Na4 O55 2.659783 1_555
Na4 O20 2.681920 1_556
Na4 O24 2.842888 1_545
Na5 O40 2.331337 1_545
Na5 O54 2.458737 1_555
Na5 O25 2.485147 1_555
Na5 O39 2.491733 1_455
Na5 O56 2.558380 1_555
Na5 O3 2.634350 1_555
Na5 O18 2.665887 1_556
Na5 O35 2.850884 1_555
Na6 O44 2.375789 1_555
Na6 O37 2.417416 1_565
Na6 O36 2.484713 1_655
Na6 O42 2.520723 1_565
Na6 O38 2.636466 1_665
Na6 O43 2.698941 1_665
Na7 O47 2.361121 1_555
Na7 O46 2.502533 1_455
Na7 O45 2.535074 1_445
Na7 O40 2.537727 1_544
Na7 O39 2.610965 1_454
Na7 O41 2.771163 1_444
Na8 O48 2.366503 1_555
Na8 O49 2.407088 1_555
Na8 O50 2.453800 1_555
Na8 O56 2.615730 1_555
Na8 O54 2.645924 1_555
Na8 O55 2.651485 1_555
Na9 O52 2.425599 1_555
Na9 O59 2.445087 1_555
Na9 O57 2.497687 1_555
Na9 O53 2.522623 1_555
Na9 O51 2.567355 1_555
Na9 O58 2.593903 1_555
Na10 O66 2.478709 1_555
Na10 O61 2.505698 1_555
Na10 O62 2.539843 1_555
Na10 O67 2.599882 1_555
Na10 O60 2.624828 1_555
Na10 O68 2.637735 1_555
Na11 O64 2.357684 1_555
Na11 O71 2.364595 1_555
Na11 O69 2.537176 1_555
Na11 O70 2.636334 1_555
Na11 O63 2.700667 1_555
Na11 O65 2.768265 1_555
Ge0 O56 1.847167 1_555
Ge0 O55 1.863754 1_555
Ge0 O20 1.898958 1_556
Ge0 O19 1.949249 1_556
Ge0 O18 1.964867 1_556
Ge0 O54 2.268086 1_555
Ge1 O22 1.765650 1_555
Ge1 O57 1.960941 1_555
Ge1 O23 1.965229 1_555
Ge1 O21 1.978543 1_555
Ge1 O59 1.982249 1_555
Ge1 O58 2.012823 1_555
Ge2 O34 1.821304 1_555
Ge2 O33 1.822675 1_555
Ge2 O70 1.951687 1_555
Ge2 O71 2.057072 1_555
Ge2 O35 2.091558 1_555
Ge2 O69 2.104760 1_555
O0 S0 1.485103 1_545
O0 Zn0 2.049814 1_445
O1 S1 1.474128 1_555
O1 Zn0 2.009422 1_555
O2 S2 1.476462 1_655
O2 Zn0 2.060619 1_545
O3 S3 1.476099 1_555
O3 Zn1 2.022381 1_555
O4 S4 1.475134 1_655
O4 Zn1 2.109894 1_665
O5 S5 1.476889 1_545
O5 Zn1 2.131051 1_655
O6 S5 1.477712 1_555
O6 Zn2 2.004137 1_555
O7 S3 1.489729 1_555
O7 Zn2 2.291343 1_445
O8 S4 1.481173 1_555
O8 Zn2 2.181232 1_455
O9 S1 1.474883 1_555
O9 Zn3 2.057776 1_555
O10 S2 1.491502 1_555
O10 Zn3 2.071973 1_445
O11 S0 1.482522 1_555
O11 Zn3 2.059966 1_455
O12 S6 1.462407 1_555
O12 Zn4 2.091160 1_555
O13 S7 1.460729 1_555
O13 Zn4 2.069949 1_555
O14 Si0 1.603449 1_555
O14 Zn4 1.887318 1_555
O15 S8 1.454752 1_555
O15 Zn5 1.994191 1_555
O16 S9 1.457432 1_555
O16 Zn5 2.010367 1_555
O17 S10 1.472362 1_555
O17 Zn5 2.062464 1_555
O18 S10 1.572325 1_555
O19 S8 1.563544 1_555
O20 S9 1.571353 1_555
O21 S7 1.528288 1_555
O22 Si0 1.713049 1_555
O23 S6 1.526954 1_555
O24 S11 1.457498 1_555
O24 Zn6 2.155756 1_556
O25 Si1 1.594089 1_555
O25 Zn6 1.912442 1_556
O26 Si2 1.582975 1_555
O26 Zn6 1.910918 1_556
O27 S12 1.465261 1_555
O27 Zn7 2.006457 1_555
O28 S13 1.477445 1_555
O28 Zn7 2.083364 1_555
O29 S14 1.480721 1_555
O29 Zn7 2.169240 1_555
O30 S14 1.474451 1_555
O30 Zn8 2.052920 1_555
O31 S12 1.475299 1_555
O31 Zn8 2.080775 1_555
O32 S13 1.483271 1_555
O32 Zn8 2.260186 1_555
O33 Si1 1.699241 1_555
O34 Si2 1.691808 1_555
O35 S11 1.517716 1_555
O36 S14 1.476190 1_555
O36 Zn0 2.264636 1_455
O37 S12 1.476708 1_545
O37 Zn0 2.183674 1_545
O38 S13 1.479160 1_555
O38 Zn0 2.130201 1_445
O39 Si1 1.613540 1_655
O39 Zn1 1.990377 1_655
O40 Si2 1.615968 1_555
O40 Zn1 2.021826 1_565
O41 S11 1.480045 1_555
O41 Zn1 2.245991 1_665
O42 S6 1.482653 1_555
O42 Zn2 2.267945 1_545
O43 S7 1.493745 1_555
O43 Zn2 2.420908 1_445
O44 Si0 1.635412 1_555
O44 Zn2 1.942688 1_555
O45 S8 1.481581 1_555
O45 Zn3 2.168223 1_555
O46 S9 1.478487 1_555
O46 Zn3 2.163812 1_545
O47 S10 1.480456 1_555
O47 Zn3 2.304853 1_445
O48 S5 1.475709 1_545
O48 Zn4 2.307831 1_555
O49 S3 1.479473 1_555
O49 Zn4 2.151042 1_555
O50 S4 1.476535 1_655
O50 Zn4 2.172284 1_555
O51 S1 1.504738 1_555
O51 Zn5 2.133887 1_555
O52 S2 1.483019 1_655
O52 Zn5 2.071849 1_555
O53 S0 1.506037 1_545
O53 Zn5 2.138508 1_555
O54 S11 1.508043 1_555
O55 Si1 1.693987 1_655
O56 Si2 1.692421 1_545
O57 S12 1.543618 1_545
O58 S13 1.536590 1_555
O59 S14 1.544539 1_655
O60 S10 1.465383 1_555
O60 Zn6 2.271114 1_555
O61 S8 1.468645 1_455
O61 Zn6 2.153312 1_555
O62 S9 1.464366 1_565
O62 Zn6 2.203906 1_555
O63 S7 1.477705 1_565
O63 Zn7 2.151884 1_555
O64 Si0 1.624125 1_555
O64 Zn7 1.930170 1_555
O65 S6 1.489568 1_455
O65 Zn7 2.311396 1_555
O66 S0 1.483070 1_555
O66 Zn8 2.108807 1_555
O67 S1 1.506314 1_555
O67 Zn8 2.175911 1_555
O68 S2 1.505309 1_555
O68 Zn8 2.169040 1_555
O69 S3 1.528205 1_555
O70 S4 1.540280 1_555
O71 S5 1.531484 1_555
