# generated using pymatgen
data_MgMn4Cd2O8
_symmetry_space_group_name_H-M   'P 1'
_cell_length_a   6.68235131
_cell_length_b   6.34824616
_cell_length_c   6.62866178
_cell_angle_alpha   120.92581441
_cell_angle_beta   123.08760658
_cell_angle_gamma   85.59280715
_symmetry_Int_Tables_number   1
_chemical_formula_structural   MgMn4Cd2O8
_chemical_formula_sum   'Mg1 Mn4 Cd2 O8'
_cell_volume   193.81375155
_cell_formula_units_Z   1
loop_
 _symmetry_equiv_pos_site_id
 _symmetry_equiv_pos_as_xyz
  1  'x, y, z'
loop_
 _atom_site_type_symbol
 _atom_site_label
 _atom_site_symmetry_multiplicity
 _atom_site_fract_x
 _atom_site_fract_y
 _atom_site_fract_z
 _atom_site_occupancy
  Mg  Mg0  1  0.15609378  0.40714842  0.29403290  1
  Mn  Mn0  1  0.00364396  0.98784745  0.48505581  1
  Mn  Mn1  1  0.94023624  0.91822928  0.89013239  1
  Mn  Mn2  1  0.92734748  0.46033021  0.86005615  1
  Mn  Mn3  1  0.47776909  0.99055507  0.48272340  1
  Cd  Cd0  1  0.57626760  0.32528235  0.14650224  1
  Cd  Cd1  1  0.44786016  0.69887195  0.90153148  1
  O  O0  1  0.82723032  0.77905141  0.05705804  1
  O  O1  1  0.74839350  0.17787800  0.43342050  1
  O  O2  1  0.22324389  0.76337704  0.05183107  1
  O  O3  1  0.17047658  0.21470246  0.93671126  1
  O  O4  1  0.24430119  0.78223567  0.53293649  1
  O  O5  1  0.28411052  0.24691220  0.51131760  1
  O  O6  1  0.68922970  0.75411190  0.45371424  1
  O  O7  1  0.77337900  0.23304959  0.94297643  1
loop_
_geom_bond_atom_site_label_1
_geom_bond_atom_site_label_2
_geom_bond_distance
_geom_bond_site_symmetry_2
Mg0 O4 1.961074 1_555
Mg0 O5 1.966704 1_555
Mg0 O3 2.090003 1_554
Mg0 O7 2.114271 1_454
Mn0 O0 1.979587 1_455
Mn0 O4 1.984079 1_555
Mn0 O1 1.988095 1_465
Mn0 O3 2.109732 1_565
Mn0 O5 2.463898 1_565
Mn0 O6 2.518901 1_455
Mn1 O6 2.034776 1_555
Mn1 O2 2.067801 1_656
Mn1 O0 2.143574 1_556
Mn1 O7 2.173602 1_565
Mn1 O3 2.309497 1_665
Mn2 O1 2.016890 1_555
Mn2 O0 2.068030 1_556
Mn2 O2 2.133829 1_656
Mn2 O3 2.202924 1_655
Mn2 O7 2.259029 1_555
Mn3 O6 1.990158 1_555
Mn3 O2 1.992409 1_555
Mn3 O5 1.996542 1_565
Mn3 O7 2.153963 1_565
Mn3 O4 2.372793 1_555
Mn3 O1 2.483250 1_565
Cd0 O7 2.215307 1_554
Cd0 O3 2.225210 1_554
Cd0 O6 2.251010 1_555
Cd0 O1 2.256364 1_555
Cd1 O2 2.128871 1_556
Cd1 O0 2.134005 1_556
Cd1 O4 2.385310 1_555
Cd1 O5 2.425700 1_555
