# generated using pymatgen
data_KPbO2
_symmetry_space_group_name_H-M   'P 1'
_cell_length_a   7.00248063
_cell_length_b   7.50842233
_cell_length_c   12.74602232
_cell_angle_alpha   105.49712229
_cell_angle_beta   90.80497418
_cell_angle_gamma   117.37068670
_symmetry_Int_Tables_number   1
_chemical_formula_structural   KPbO2
_chemical_formula_sum   'K8 Pb8 O16'
_cell_volume   566.11033451
_cell_formula_units_Z   8
loop_
 _symmetry_equiv_pos_site_id
 _symmetry_equiv_pos_as_xyz
  1  'x, y, z'
loop_
 _atom_site_type_symbol
 _atom_site_label
 _atom_site_symmetry_multiplicity
 _atom_site_fract_x
 _atom_site_fract_y
 _atom_site_fract_z
 _atom_site_occupancy
  K  K0  1  0.48558072  0.74033195  0.73461790  1
  K  K1  1  0.26382352  0.26390680  0.01213273  1
  K  K2  1  0.01313861  0.75958648  0.76564009  1
  K  K3  1  0.98686263  0.24041549  0.23435809  1
  K  K4  1  0.23554043  0.23591329  0.48818229  1
  K  K5  1  0.76446327  0.76408946  0.51181768  1
  K  K6  1  0.51442304  0.25966403  0.26538186  1
  K  K7  1  0.73617400  0.73609017  0.98786908  1
  Pb  Pb0  1  0.23781048  0.72713611  0.47113338  1
  Pb  Pb1  1  0.76219327  0.27287668  0.52886766  1
  Pb  Pb2  1  0.73689194  0.22754913  0.97177204  1
  Pb  Pb3  1  0.26309963  0.77243393  0.02822402  1
  Pb  Pb4  1  0.51398356  0.75335208  0.25400599  1
  Pb  Pb5  1  0.48600902  0.24664384  0.74599402  1
  Pb  Pb6  1  0.01231600  0.25304970  0.75444616  1
  Pb  Pb7  1  0.98768676  0.74695269  0.24555323  1
  O  O0  1  0.85401564  0.94275045  0.34465572  1
  O  O1  1  0.14598567  0.05725254  0.65534563  1
  O  O2  1  0.11199854  0.94168631  0.13769372  1
  O  O3  1  0.88800453  0.05830909  0.86230516  1
  O  O4  1  0.16648255  0.57489011  0.14193216  1
  O  O5  1  0.83351845  0.42511152  0.85806825  1
  O  O6  1  0.38937343  0.55844156  0.36180876  1
  O  O7  1  0.61062329  0.44155934  0.63819245  1
  O  O8  1  0.92454546  0.56178279  0.35582504  1
  O  O9  1  0.07545419  0.43821733  0.64417620  1
  O  O10  1  0.57661030  0.93817280  0.14364340  1
  O  O11  1  0.64745975  0.55745409  0.15490015  1
  O  O12  1  0.33474038  0.92525183  0.35777407  1
  O  O13  1  0.66526259  0.07475063  0.64222696  1
  O  O14  1  0.35254036  0.44254794  0.84510136  1
  O  O15  1  0.42338899  0.06182782  0.85635575  1
loop_
_geom_bond_atom_site_label_1
_geom_bond_atom_site_label_2
_geom_bond_distance
_geom_bond_site_symmetry_2
K0 O9 2.691062 1_555
K0 O15 2.721840 1_565
K0 O14 2.766648 1_555
K0 O7 2.769961 1_555
K0 O3 2.810399 1_565
K0 O13 2.826939 1_565
K1 O3 2.739277 1_454
K1 O15 2.739402 1_554
K1 O14 2.741278 1_554
K1 O11 2.767870 1_555
K1 O4 2.843367 1_555
K1 O2 3.049058 1_545
K2 O15 2.692532 1_565
K2 O9 2.720401 1_555
K2 O1 2.764229 1_565
K2 O3 2.770802 1_465
K2 O7 2.809843 1_455
K2 O5 2.827570 1_455
K3 O10 2.692541 1_545
K3 O8 2.720409 1_555
K3 O0 2.764252 1_545
K3 O2 2.770850 1_645
K3 O6 2.809835 1_655
K3 O4 2.827549 1_655
K4 O7 2.736933 1_555
K4 O1 2.742977 1_555
K4 O9 2.744392 1_555
K4 O0 2.762786 1_445
K4 O12 2.852496 1_545
K4 O6 3.058439 1_555
K5 O6 2.736957 1_555
K5 O0 2.742962 1_555
K5 O8 2.744374 1_555
K5 O1 2.762784 1_665
K5 O13 2.852503 1_565
K5 O7 3.058462 1_555
K6 O8 2.691054 1_555
K6 O10 2.721796 1_545
K6 O11 2.766668 1_555
K6 O6 2.770030 1_555
K6 O2 2.810406 1_545
K6 O12 2.826912 1_545
K7 O2 2.739284 1_656
K7 O10 2.739389 1_556
K7 O11 2.741252 1_556
K7 O14 2.767854 1_555
K7 O5 2.843362 1_555
K7 O3 3.049076 1_565
O0 Pb7 2.222429 1_555
O0 Pb4 2.226656 1_555
O1 Pb6 2.222408 1_555
O1 Pb5 2.226603 1_555
O2 Pb7 2.173274 1_455
O2 Pb3 2.238682 1_555
O3 Pb6 2.173303 1_655
O3 Pb2 2.238667 1_555
O4 Pb3 2.238724 1_555
O4 Pb7 2.367047 1_455
O4 Pb4 2.374600 1_555
O5 Pb2 2.238776 1_555
O5 Pb6 2.367059 1_655
O5 Pb5 2.374644 1_555
O6 Pb4 2.173765 1_555
O6 Pb0 2.237611 1_555
O7 Pb5 2.173780 1_555
O7 Pb1 2.237594 1_555
O8 Pb7 2.144880 1_555
O8 Pb0 2.223427 1_655
O9 Pb6 2.144849 1_555
O9 Pb1 2.223415 1_455
O10 Pb4 2.144232 1_555
O10 Pb3 2.225164 1_555
O11 Pb4 2.221974 1_555
O11 Pb7 2.227725 1_555
O12 Pb0 2.238051 1_555
O12 Pb4 2.369520 1_555
O12 Pb7 2.373131 1_455
O13 Pb1 2.238105 1_555
O13 Pb5 2.369541 1_555
O13 Pb6 2.373121 1_655
O14 Pb5 2.221975 1_555
O14 Pb6 2.227720 1_555
O15 Pb5 2.144201 1_555
O15 Pb2 2.225115 1_555
