# generated using pymatgen
data_Sr4Ta2O9
_symmetry_space_group_name_H-M   'P 1'
_cell_length_a   5.89331929
_cell_length_b   5.89431294
_cell_length_c   15.72151288
_cell_angle_alpha   89.99598720
_cell_angle_beta   89.97757194
_cell_angle_gamma   59.99815852
_symmetry_Int_Tables_number   1
_chemical_formula_structural   Sr4Ta2O9
_chemical_formula_sum   'Sr8 Ta4 O18'
_cell_volume   472.94433906
_cell_formula_units_Z   2
loop_
 _symmetry_equiv_pos_site_id
 _symmetry_equiv_pos_as_xyz
  1  'x, y, z'
loop_
 _atom_site_type_symbol
 _atom_site_label
 _atom_site_symmetry_multiplicity
 _atom_site_fract_x
 _atom_site_fract_y
 _atom_site_fract_z
 _atom_site_occupancy
  Sr  Sr0  1  0.00013041  0.99936327  0.24939742  1
  Sr  Sr1  1  0.00000000  -0.00000000  0.50000000  1
  Sr  Sr2  1  0.00000000  -0.00000000  0.00000000  1
  Sr  Sr3  1  0.66664601  0.66734459  0.36238714  1
  Sr  Sr4  1  0.66721288  0.66463140  0.13719932  1
  Sr  Sr5  1  0.33278712  0.33536860  0.86280068  1
  Sr  Sr6  1  0.33335399  0.33265541  0.63761286  1
  Sr  Sr7  1  0.99986959  0.00063673  0.75060258  1
  Ta  Ta0  1  0.66555748  0.66862523  0.84520711  1
  Ta  Ta1  1  0.66698111  0.66616296  0.65481311  1
  Ta  Ta2  1  0.33301889  0.33383704  0.34518689  1
  Ta  Ta3  1  0.33444252  0.33137477  0.15479289  1
  O  O0  1  0.58982160  0.96069655  0.74971026  1
  O  O1  1  0.91791491  0.73071104  0.60237121  1
  O  O2  1  0.91676310  0.73571773  0.89641978  1
  O  O3  1  0.35018514  0.91668123  0.60286998  1
  O  O4  1  0.34867900  0.92048309  0.89690169  1
  O  O5  1  0.95959635  0.45039815  0.75023655  1
  O  O6  1  0.44971288  0.59058626  0.75044775  1
  O  O7  1  0.26912138  0.64628956  0.10170079  1
  O  O8  1  0.26734284  0.65121134  0.39655802  1
  O  O9  1  0.73265716  0.34878866  0.60344198  1
  O  O10  1  0.73087862  0.35371044  0.89829921  1
  O  O11  1  0.55028712  0.40941374  0.24955225  1
  O  O12  1  0.04040365  0.54960185  0.24976345  1
  O  O13  1  0.65132100  0.07951691  0.10309831  1
  O  O14  1  0.64981486  0.08331877  0.39713002  1
  O  O15  1  0.08323690  0.26428227  0.10358022  1
  O  O16  1  0.08208509  0.26928896  0.39762879  1
  O  O17  1  0.41017840  0.03930345  0.25028974  1
loop_
_geom_bond_atom_site_label_1
_geom_bond_atom_site_label_2
_geom_bond_distance
_geom_bond_site_symmetry_2
O0 Ta0 2.156102 1_555
O0 Ta1 2.157990 1_555
O0 Sr7 2.542492 1_565
O0 Sr6 2.623874 1_565
O0 Sr5 2.643071 1_565
O1 Ta1 1.890271 1_555
O1 Sr6 2.462183 1_655
O1 Sr1 2.471972 1_665
O1 Sr7 2.994226 1_565
O2 Ta0 1.892829 1_555
O2 Sr5 2.464200 1_655
O2 Sr2 2.466624 1_666
O2 Sr7 2.949078 1_565
O3 Ta1 1.891286 1_555
O3 Sr6 2.465124 1_565
O3 Sr1 2.470780 1_565
O3 Sr7 2.979298 1_465
O4 Ta0 1.891635 1_555
O4 Sr5 2.459127 1_565
O4 Sr2 2.470570 1_566
O4 Sr7 2.961653 1_465
O5 Ta1 2.156462 1_555
O5 Ta0 2.157733 1_555
O5 Sr7 2.540691 1_555
O5 Sr6 2.633790 1_655
O5 Sr5 2.634415 1_655
O6 Ta0 2.153090 1_555
O6 Ta1 2.160406 1_555
O6 Sr7 2.542046 1_465
O6 Sr5 2.625492 1_555
O6 Sr6 2.640532 1_555
O7 Ta3 1.890987 1_555
O7 Sr4 2.466158 1_555
O7 Sr2 2.472510 1_565
O7 Sr0 2.989040 1_555
O8 Ta2 1.891423 1_555
O8 Sr3 2.461319 1_555
O8 Sr1 2.472415 1_565
O8 Sr0 2.968866 1_555
O9 Ta1 1.891423 1_555
O9 Sr6 2.461319 1_555
O9 Sr1 2.472415 1_655
O9 Sr7 2.968866 1_555
O10 Ta0 1.890987 1_555
O10 Sr5 2.466158 1_555
O10 Sr2 2.472510 1_656
O10 Sr7 2.989040 1_555
O11 Ta3 2.153090 1_555
O11 Ta2 2.160406 1_555
O11 Sr0 2.542046 1_645
O11 Sr4 2.625492 1_555
O11 Sr3 2.640532 1_555
O12 Ta2 2.156462 1_555
O12 Ta3 2.157733 1_555
O12 Sr0 2.540691 1_555
O12 Sr3 2.633790 1_455
O12 Sr4 2.634415 1_455
O13 Ta3 1.891635 1_555
O13 Sr4 2.459127 1_545
O13 Sr2 2.470570 1_655
O13 Sr0 2.961653 1_645
O14 Ta2 1.891286 1_555
O14 Sr3 2.465124 1_545
O14 Sr1 2.470780 1_655
O14 Sr0 2.979298 1_645
O15 Ta3 1.892829 1_555
O15 Sr4 2.464200 1_455
O15 Sr2 2.466624 1_555
O15 Sr0 2.949078 1_545
O16 Ta2 1.890271 1_555
O16 Sr3 2.462183 1_455
O16 Sr1 2.471972 1_555
O16 Sr0 2.994226 1_545
O17 Ta3 2.156102 1_555
O17 Ta2 2.157990 1_555
O17 Sr0 2.542492 1_545
O17 Sr3 2.623874 1_545
O17 Sr4 2.643071 1_545
