# generated using pymatgen
data_Na3NbInSi2PO12
_symmetry_space_group_name_H-M   'P 1'
_cell_length_a   9.14864470
_cell_length_b   9.14864438
_cell_length_c   22.51862246
_cell_angle_alpha   89.75323178
_cell_angle_beta   90.24676821
_cell_angle_gamma   119.99297858
_symmetry_Int_Tables_number   1
_chemical_formula_structural   Na3NbInSi2PO12
_chemical_formula_sum   'Na18 Nb6 In6 Si12 P6 O72'
_cell_volume   1632.34258789
_cell_formula_units_Z   6
loop_
 _symmetry_equiv_pos_site_id
 _symmetry_equiv_pos_as_xyz
  1  'x, y, z'
loop_
 _atom_site_type_symbol
 _atom_site_label
 _atom_site_symmetry_multiplicity
 _atom_site_fract_x
 _atom_site_fract_y
 _atom_site_fract_z
 _atom_site_occupancy
  Na  Na0  1  0.99339804  0.99248797  0.49432637  1
  Na  Na1  1  0.00751203  0.00660196  0.99432637  1
  Na  Na2  1  0.66006504  0.32582097  0.82765937  1
  Na  Na3  1  0.67417903  0.33993496  0.32765937  1
  Na  Na4  1  0.32673104  0.65915497  0.16099337  1
  Na  Na5  1  0.34084503  0.67326896  0.66099337  1
  Na  Na6  1  0.65144053  0.01478844  0.25015754  1
  Na  Na7  1  0.98287256  0.62291759  0.24729607  1
  Na  Na8  1  0.98521156  0.34855947  0.75015754  1
  Na  Na9  1  0.37708241  0.01712744  0.74729607  1
  Na  Na10  1  0.31810753  0.34812144  0.58349054  1
  Na  Na11  1  0.64953956  0.95625059  0.58062907  1
  Na  Na12  1  0.65187856  0.68189247  0.08349054  1
  Na  Na13  1  0.04374941  0.35046044  0.08062907  1
  Na  Na14  1  0.98477353  0.68145544  0.91682454  1
  Na  Na15  1  0.31620556  0.28958459  0.91396307  1
  Na  Na16  1  0.31854456  0.01522647  0.41682454  1
  Na  Na17  1  0.71041541  0.68379444  0.41396307  1
  Nb  Nb0  1  0.99631876  0.99471634  0.64662201  1
  Nb  Nb1  1  0.00528366  0.00368124  0.14662201  1
  Nb  Nb2  1  0.66298576  0.32804934  0.97995501  1
  Nb  Nb3  1  0.67195066  0.33701424  0.47995501  1
  Nb  Nb4  1  0.32965176  0.66138334  0.31328901  1
  Nb  Nb5  1  0.33861666  0.67034824  0.81328901  1
  In  In0  1  0.99770233  0.00416175  0.35038256  1
  In  In1  1  0.99583825  0.00229767  0.85038256  1
  In  In2  1  0.66436933  0.33749475  0.68371556  1
  In  In3  1  0.66250525  0.33563067  0.18371556  1
  In  In4  1  0.33103533  0.67082875  0.01704956  1
  In  In5  1  0.32917125  0.66896467  0.51704956  1
  Si  Si0  1  0.70247953  0.70456496  0.25186018  1
  Si  Si1  1  0.00227740  0.29582316  0.24926167  1
  Si  Si2  1  0.29543504  0.29752047  0.75186018  1
  Si  Si3  1  0.70417684  0.99772260  0.74926167  1
  Si  Si4  1  0.36914653  0.03789796  0.58519318  1
  Si  Si5  1  0.66894440  0.62915616  0.58259467  1
  Si  Si6  1  0.96210204  0.63085347  0.08519318  1
  Si  Si7  1  0.37084384  0.33105560  0.08259467  1
  Si  Si8  1  0.03581253  0.37123196  0.91852718  1
  Si  Si9  1  0.33561040  0.96249016  0.91592867  1
  Si  Si10  1  0.62876804  0.96418747  0.41852718  1
  Si  Si11  1  0.03750984  0.66438960  0.41592867  1
  P  P0  1  0.29175685  0.99529784  0.25233028  1
  P  P1  1  0.00470216  0.70824315  0.75233028  1
  P  P2  1  0.95842385  0.32863084  0.58566328  1
  P  P3  1  0.67136916  0.04157615  0.08566328  1
  P  P4  1  0.62508985  0.66196484  0.91899728  1
  P  P5  1  0.33803516  0.37491015  0.41899728  1
  O  O0  1  0.22369498  0.02009763  0.31056540  1
  O  O1  1  0.81303436  0.77955200  0.31136240  1
  O  O2  1  0.96531416  0.17829876  0.30559161  1
  O  O3  1  0.22044800  0.18696564  0.81136240  1
  O  O4  1  0.97990237  0.77630502  0.81056540  1
  O  O5  1  0.82170124  0.03468584  0.80559161  1
  O  O6  1  0.80027596  0.97271639  0.68953314  1
  O  O7  1  0.16406675  0.19293723  0.69369550  1
  O  O8  1  0.02165205  0.82921271  0.69887508  1
  O  O9  1  0.80706277  0.83593325  0.19369550  1
  O  O10  1  0.02728361  0.19972404  0.18953314  1
  O  O11  1  0.17078729  0.97834795  0.19887508  1
  O  O12  1  0.89036198  0.35343063  0.64389840  1
  O  O13  1  0.47970136  0.11288500  0.64469540  1
  O  O14  1  0.63198116  0.51163176  0.63892461  1
  O  O15  1  0.88711500  0.52029864  0.14469540  1
  O  O16  1  0.64656937  0.10963802  0.14389840  1
  O  O17  1  0.48836824  0.36801884  0.13892461  1
  O  O18  1  0.46694296  0.30604939  0.02286614  1
  O  O19  1  0.83073375  0.52627023  0.02702850  1
  O  O20  1  0.68831905  0.16254571  0.03220808  1
  O  O21  1  0.47372977  0.16926625  0.52702850  1
  O  O22  1  0.69395061  0.53305704  0.52286614  1
  O  O23  1  0.83745429  0.31168095  0.53220808  1
  O  O24  1  0.55702798  0.68676463  0.97723240  1
  O  O25  1  0.14636736  0.44621900  0.97802940  1
  O  O26  1  0.29864716  0.84496576  0.97225861  1
  O  O27  1  0.55378100  0.85363264  0.47802940  1
  O  O28  1  0.31323537  0.44297202  0.47723240  1
  O  O29  1  0.15503424  0.70135284  0.47225861  1
  O  O30  1  0.13360896  0.63938339  0.35620014  1
  O  O31  1  0.49739975  0.85960423  0.36036250  1
  O  O32  1  0.35498505  0.49587971  0.36554208  1
  O  O33  1  0.14039577  0.50260025  0.86036250  1
  O  O34  1  0.36061661  0.86639104  0.85620014  1
  O  O35  1  0.50412029  0.64501495  0.86554208  1
  O  O36  1  0.01422133  0.82891699  0.41091464  1
  O  O37  1  0.81389768  0.98631921  0.41289059  1
  O  O38  1  0.19790082  0.19189832  0.41076394  1
  O  O39  1  0.01368079  0.18610232  0.91289059  1
  O  O40  1  0.17108301  0.98577867  0.91091464  1
  O  O41  1  0.80810168  0.80209918  0.91076394  1
  O  O42  1  0.95591876  0.15459103  0.58616222  1
  O  O43  1  0.18780639  0.04057588  0.58926500  1
  O  O44  1  0.84220572  0.81836074  0.58814381  1
  O  O45  1  0.95942412  0.81219361  0.08926500  1
  O  O46  1  0.84540897  0.04408124  0.08616222  1
  O  O47  1  0.18163926  0.15779428  0.08814381  1
  O  O48  1  0.68088833  0.16224999  0.74424764  1
  O  O49  1  0.48056468  0.31965221  0.74622359  1
  O  O50  1  0.86456782  0.52523132  0.74409694  1
  O  O51  1  0.68034779  0.51943532  0.24622359  1
  O  O52  1  0.83775001  0.31911167  0.24424764  1
  O  O53  1  0.47476868  0.13543218  0.24409694  1
  O  O54  1  0.62258576  0.48792403  0.91949522  1
  O  O55  1  0.85447339  0.37390888  0.92259800  1
  O  O56  1  0.50887272  0.15169374  0.92147681  1
  O  O57  1  0.62609112  0.14552661  0.42259800  1
  O  O58  1  0.51207597  0.37741424  0.41949522  1
  O  O59  1  0.84830626  0.49112728  0.42147681  1
  O  O60  1  0.34755433  0.49558399  0.07758164  1
  O  O61  1  0.14723068  0.65298621  0.07955759  1
  O  O62  1  0.53123382  0.85856532  0.07743094  1
  O  O63  1  0.34701379  0.85276932  0.57955759  1
  O  O64  1  0.50441601  0.65244567  0.57758164  1
  O  O65  1  0.14143468  0.46876618  0.57743094  1
  O  O66  1  0.28925176  0.82125803  0.25282922  1
  O  O67  1  0.52113939  0.70724288  0.25593200  1
  O  O68  1  0.17553872  0.48502774  0.25481081  1
  O  O69  1  0.29275712  0.47886061  0.75593200  1
  O  O70  1  0.17874197  0.71074824  0.75282922  1
  O  O71  1  0.51497226  0.82446128  0.75481081  1
loop_
_geom_bond_atom_site_label_1
_geom_bond_atom_site_label_2
_geom_bond_distance
_geom_bond_site_symmetry_2
Na0 O37 2.438268 1_555
Na0 O36 2.473066 1_655
Na0 O44 2.589866 1_555
Na0 O38 2.637741 1_665
Na0 O43 2.668423 1_665
Na0 O42 2.671057 1_565
Na1 O39 2.438268 1_555
Na1 O40 2.473066 1_545
Na1 O47 2.589866 1_556
Na1 O41 2.637741 1_445
Na1 O45 2.668423 1_446
Na1 O46 2.671057 1_456
Na2 O49 2.438268 1_555
Na2 O48 2.473066 1_555
Na2 O56 2.589866 1_555
Na2 O50 2.637741 1_555
Na2 O55 2.668423 1_555
Na2 O54 2.671057 1_555
Na3 O51 2.438268 1_555
Na3 O52 2.473066 1_555
Na3 O59 2.589866 1_555
Na3 O53 2.637741 1_555
Na3 O57 2.668423 1_555
Na3 O58 2.671057 1_555
Na4 O61 2.438268 1_555
Na4 O60 2.473066 1_555
Na4 O68 2.589866 1_555
Na4 O62 2.637741 1_555
Na4 O67 2.668423 1_555
Na4 O66 2.671057 1_555
Na5 O63 2.438268 1_555
Na5 O64 2.473066 1_555
Na5 O71 2.589866 1_555
Na5 O65 2.637741 1_555
Na5 O69 2.668423 1_555
Na5 O70 2.671057 1_555
Na6 O53 2.372694 1_555
Na6 O52 2.434887 1_555
Na6 O67 2.449343 1_545
Na6 O16 2.549581 1_555
Na6 O2 2.780683 1_555
Na6 O31 2.856525 1_545
Na6 O66 2.872847 1_545
Na6 O9 2.946805 1_545
Na7 O52 2.409160 1_555
Na7 O51 2.436581 1_555
Na7 O66 2.465479 1_655
Na7 O15 2.483121 1_555
Na7 O68 2.635451 1_655
Na7 O30 2.775770 1_655
Na8 O50 2.372694 1_555
Na8 O48 2.434887 1_555
Na8 O69 2.449343 1_655
Na8 O12 2.549581 1_555
Na8 O5 2.780683 1_555
Na8 O33 2.856525 1_655
Na8 O70 2.872847 1_655
Na8 O7 2.946805 1_655
Na9 O48 2.409160 1_555
Na9 O49 2.436581 1_555
Na9 O70 2.465479 1_545
Na9 O13 2.483121 1_555
Na9 O71 2.635451 1_545
Na9 O34 2.775770 1_545
Na10 O65 2.372708 1_555
Na10 O64 2.434892 1_555
Na10 O43 2.449343 1_555
Na10 O28 2.549565 1_555
Na10 O14 2.780683 1_555
Na10 O7 2.856525 1_555
Na10 O42 2.872847 1_455
Na10 O21 2.946805 1_555
Na11 O64 2.409151 1_555
Na11 O63 2.436591 1_555
Na11 O42 2.465479 1_565
Na11 O27 2.483100 1_555
Na11 O44 2.635451 1_555
Na11 O6 2.775770 1_555
Na12 O62 2.372708 1_555
Na12 O60 2.434892 1_555
Na12 O45 2.449343 1_555
Na12 O24 2.549565 1_554
Na12 O17 2.780683 1_555
Na12 O9 2.856525 1_555
Na12 O46 2.872847 1_565
Na12 O19 2.946805 1_555
Na13 O60 2.409151 1_555
Na13 O61 2.436591 1_555
Na13 O46 2.465479 1_455
Na13 O25 2.483100 1_554
Na13 O47 2.635451 1_555
Na13 O10 2.775770 1_555
Na14 O41 2.372694 1_555
Na14 O40 2.434887 1_655
Na14 O55 2.449350 1_555
Na14 O4 2.549581 1_555
Na14 O26 2.780683 1_655
Na14 O19 2.856505 1_556
Na14 O54 2.872839 1_555
Na14 O33 2.946805 1_655
Na15 O40 2.409160 1_545
Na15 O39 2.436581 1_555
Na15 O54 2.465483 1_555
Na15 O3 2.483121 1_555
Na15 O56 2.635466 1_555
Na15 O18 2.775757 1_556
Na16 O38 2.372694 1_555
Na16 O36 2.434887 1_545
Na16 O57 2.449351 1_555
Na16 O0 2.549581 1_555
Na16 O29 2.780683 1_545
Na16 O21 2.856505 1_555
Na16 O58 2.872839 1_555
Na16 O31 2.946805 1_545
Na17 O36 2.409160 1_655
Na17 O37 2.436581 1_555
Na17 O58 2.465483 1_555
Na17 O1 2.483121 1_555
Na17 O59 2.635466 1_555
Na17 O22 2.775757 1_555
Nb0 O6 1.960440 1_555
Nb0 O7 1.996889 1_665
Nb0 O44 2.013227 1_555
Nb0 O8 2.015940 1_655
Nb0 O43 2.047737 1_665
Nb0 O42 2.156041 1_565
Nb1 O10 1.960440 1_555
Nb1 O9 1.996889 1_445
Nb1 O47 2.013227 1_555
Nb1 O11 2.015940 1_545
Nb1 O45 2.047737 1_445
Nb1 O46 2.156041 1_455
Nb2 O18 1.960440 1_556
Nb2 O19 1.996889 1_556
Nb2 O56 2.013227 1_555
Nb2 O20 2.015940 1_556
Nb2 O55 2.047737 1_555
Nb2 O54 2.156041 1_555
Nb3 O22 1.960440 1_555
Nb3 O21 1.996889 1_555
Nb3 O59 2.013227 1_555
Nb3 O23 2.015940 1_555
Nb3 O57 2.047737 1_555
Nb3 O58 2.156041 1_555
Nb4 O30 1.960440 1_555
Nb4 O31 1.996889 1_555
Nb4 O68 2.013227 1_555
Nb4 O32 2.015940 1_555
Nb4 O67 2.047737 1_555
Nb4 O66 2.156041 1_555
Nb5 O34 1.960440 1_555
Nb5 O33 1.996889 1_555
Nb5 O71 2.013227 1_555
Nb5 O35 2.015940 1_555
Nb5 O69 2.047737 1_555
Nb5 O70 2.156041 1_555
In0 O2 2.024523 1_555
In0 O1 2.093022 1_545
In0 O37 2.140000 1_545
In0 O36 2.161698 1_645
In0 O0 2.193933 1_655
In0 O38 2.237604 1_655
In1 O5 2.024523 1_555
In1 O3 2.093022 1_655
In1 O39 2.140000 1_655
In1 O40 2.161698 1_645
In1 O4 2.193932 1_545
In1 O41 2.237604 1_545
In2 O14 2.024523 1_555
In2 O13 2.093022 1_555
In2 O49 2.140000 1_555
In2 O48 2.161698 1_555
In2 O12 2.193933 1_555
In2 O50 2.237604 1_555
In3 O17 2.024523 1_555
In3 O15 2.093022 1_555
In3 O51 2.140000 1_555
In3 O52 2.161698 1_555
In3 O16 2.193932 1_555
In3 O53 2.237604 1_555
In4 O26 2.024523 1_554
In4 O25 2.093022 1_554
In4 O61 2.140000 1_555
In4 O60 2.161698 1_555
In4 O24 2.193933 1_554
In4 O62 2.237604 1_555
In5 O29 2.024523 1_555
In5 O27 2.093022 1_555
In5 O63 2.140000 1_555
In5 O64 2.161698 1_555
In5 O28 2.193932 1_555
In5 O65 2.237604 1_555
O0 P0 1.519784 1_545
O1 Si0 1.609813 1_555
O2 Si1 1.583617 1_655
O3 Si2 1.609813 1_555
O4 P1 1.519784 1_655
O5 Si3 1.583617 1_545
O6 Si3 1.687676 1_555
O7 Si2 1.709675 1_555
O8 P1 1.586312 1_555
O9 Si0 1.709675 1_555
O10 Si1 1.687676 1_555
O11 P0 1.586312 1_555
O12 P2 1.519784 1_555
O13 Si4 1.609813 1_555
O14 Si5 1.583617 1_555
O15 Si6 1.609813 1_555
O16 P3 1.519784 1_555
O17 Si7 1.583617 1_555
O18 Si7 1.687676 1_555
O19 Si6 1.709675 1_555
O20 P3 1.586312 1_555
O21 Si4 1.709675 1_555
O22 Si5 1.687676 1_555
O23 P2 1.586312 1_555
O24 P4 1.519784 1_555
O25 Si8 1.609813 1_555
O26 Si9 1.583617 1_555
O27 Si10 1.609813 1_555
O28 P5 1.519784 1_555
O29 Si11 1.583617 1_555
O30 Si11 1.687676 1_555
O31 Si10 1.709675 1_555
O32 P5 1.586312 1_555
O33 Si8 1.709675 1_555
O34 Si9 1.687676 1_555
O35 P4 1.586312 1_555
O36 Si11 1.625649 1_555
O37 Si10 1.607623 1_555
O38 P5 1.528353 1_555
O39 Si8 1.607623 1_555
O40 Si9 1.625649 1_555
O41 P4 1.528354 1_555
O42 P2 1.580888 1_555
O43 Si4 1.674309 1_555
O44 Si5 1.667751 1_555
O45 Si6 1.674309 1_555
O46 P3 1.580888 1_555
O47 Si7 1.667751 1_555
O48 Si3 1.625649 1_545
O49 Si2 1.607623 1_555
O50 P1 1.528353 1_655
O51 Si0 1.607623 1_555
O52 Si1 1.625649 1_655
O53 P0 1.528354 1_545
O54 P4 1.580902 1_555
O55 Si8 1.674293 1_655
O56 Si9 1.667748 1_545
O57 Si10 1.674293 1_545
O58 P5 1.580902 1_555
O59 Si11 1.667748 1_655
O60 Si7 1.625662 1_555
O61 Si6 1.607608 1_455
O62 P3 1.528347 1_565
O63 Si4 1.607608 1_565
O64 Si5 1.625662 1_555
O65 P2 1.528347 1_455
O66 P0 1.580888 1_555
O67 Si0 1.674309 1_555
O68 Si1 1.667751 1_555
O69 Si2 1.674309 1_555
O70 P1 1.580888 1_555
O71 Si3 1.667751 1_555
