# generated using pymatgen
data_Mg(Bi2O5)2
_symmetry_space_group_name_H-M   'P 1'
_cell_length_a   10.96971700
_cell_length_b   5.86943911
_cell_length_c   4.23170602
_cell_angle_alpha   111.14081367
_cell_angle_beta   90.00000000
_cell_angle_gamma   90.00000000
_symmetry_Int_Tables_number   1
_chemical_formula_structural   Mg(Bi2O5)2
_chemical_formula_sum   'Mg1 Bi4 O10'
_cell_volume   254.12537298
_cell_formula_units_Z   1
loop_
 _symmetry_equiv_pos_site_id
 _symmetry_equiv_pos_as_xyz
  1  'x, y, z'
loop_
 _atom_site_type_symbol
 _atom_site_label
 _atom_site_symmetry_multiplicity
 _atom_site_fract_x
 _atom_site_fract_y
 _atom_site_fract_z
 _atom_site_occupancy
  Mg  Mg0  1  0.00000000  0.11220400  0.55545500  1
  Bi  Bi0  1  0.18051800  0.76187000  0.88046800  1
  Bi  Bi1  1  0.31884100  0.22154500  0.61060100  1
  Bi  Bi2  1  0.68115900  0.22154500  0.61060100  1
  Bi  Bi3  1  0.81948200  0.76187000  0.88046800  1
  O  O0  1  0.00000000  0.94906200  0.97414900  1
  O  O1  1  0.12968700  0.38164100  0.69031700  1
  O  O2  1  0.16455500  0.87473000  0.43692400  1
  O  O3  1  0.28330600  0.11609100  0.05765000  1
  O  O4  1  0.35524300  0.60172200  0.80094000  1
  O  O5  1  0.50000000  0.09644900  0.54784500  1
  O  O6  1  0.64475700  0.60172200  0.80094000  1
  O  O7  1  0.87031300  0.38164100  0.69031700  1
  O  O8  1  0.71669400  0.11609100  0.05765000  1
  O  O9  1  0.83544500  0.87473000  0.43692400  1
loop_
_geom_bond_atom_site_label_1
_geom_bond_atom_site_label_2
_geom_bond_distance
_geom_bond_site_symmetry_2
Mg0 O1 2.049274 1_555
Mg0 O7 2.049274 1_455
Mg0 O2 2.224532 1_545
Mg0 O9 2.224532 1_445
Mg0 O0 2.295434 1_544
Mg0 O0 2.297809 1_545
Bi0 O4 2.107679 1_555
Bi0 O1 2.154920 1_555
Bi0 O2 2.211154 1_556
Bi0 O2 2.211165 1_555
Bi0 O0 2.229677 1_555
Bi0 O3 2.243142 1_566
Bi1 O5 2.101952 1_555
Bi1 O4 2.119206 1_555
Bi1 O3 2.226770 1_556
Bi1 O3 2.228365 1_555
Bi1 O1 2.252469 1_555
Bi1 O2 2.543457 1_545
Bi2 O5 2.101952 1_555
Bi2 O6 2.119206 1_555
Bi2 O8 2.226770 1_556
Bi2 O8 2.228365 1_555
Bi2 O7 2.252469 1_555
Bi2 O9 2.543457 1_545
Bi3 O6 2.107679 1_555
Bi3 O7 2.154920 1_555
Bi3 O9 2.211154 1_556
Bi3 O9 2.211165 1_555
Bi3 O0 2.229677 1_655
Bi3 O8 2.243142 1_566
