# generated using pymatgen
data_MgTe4MoW3(SeS)2
_symmetry_space_group_name_H-M   'P 1'
_cell_length_a   3.38982900
_cell_length_b   3.38931139
_cell_length_c   46.75774849
_cell_angle_alpha   90.01559321
_cell_angle_beta   90.00000000
_cell_angle_gamma   120.00506175
_symmetry_Int_Tables_number   1
_chemical_formula_structural   MgTe4MoW3(SeS)2
_chemical_formula_sum   'Mg1 Te4 Mo1 W3 Se2 S2'
_cell_volume   465.21242902
_cell_formula_units_Z   1
loop_
 _symmetry_equiv_pos_site_id
 _symmetry_equiv_pos_as_xyz
  1  'x, y, z'
loop_
 _atom_site_type_symbol
 _atom_site_label
 _atom_site_symmetry_multiplicity
 _atom_site_fract_x
 _atom_site_fract_y
 _atom_site_fract_z
 _atom_site_occupancy
  Mg  Mg0  1  0.99992400  0.99984800  0.55803200  1
  Te  Te0  1  0.33345800  0.66691600  0.32210500  1
  Te  Te1  1  0.33338600  0.66677200  0.70439000  1
  Te  Te2  1  0.33327600  0.66655400  0.24177000  1
  Te  Te3  1  0.33316100  0.66632300  0.62336200  1
  Mo  Mo0  1  0.66672700  0.33345400  0.28193600  1
  W  W0  1  0.33332500  0.66665100  0.09394700  1
  W  W1  1  0.33337400  0.66674900  0.46101300  1
  W  W2  1  0.66662100  0.33324200  0.66410700  1
  Se  Se0  1  0.66657700  0.33315200  0.05849300  1
  Se  Se1  1  0.66673300  0.33346500  0.12942100  1
  S  S0  1  0.66663800  0.33327500  0.42895300  1
  S  S1  1  0.66680100  0.33360100  0.49330200  1
loop_
_geom_bond_atom_site_label_1
_geom_bond_atom_site_label_2
_geom_bond_distance
_geom_bond_site_symmetry_2
Te1 W2 2.715979 1_565
Te1 W2 2.716179 1_455
Te1 W2 2.716179 1_555
Te3 W2 2.731096 1_565
Te3 W2 2.731156 1_455
Te3 W2 2.731159 1_555
Mo0 Te2 2.712246 1_545
Mo0 Te2 2.712357 1_655
Mo0 Te2 2.712361 1_555
Mo0 Te0 2.712413 1_655
Mo0 Te0 2.712414 1_555
Mo0 Te0 2.712428 1_545
Se0 W0 2.564570 1_545
Se0 W0 2.564755 1_655
Se0 W0 2.564762 1_555
Se1 W0 2.565081 1_545
Se1 W0 2.565408 1_655
Se1 W0 2.565413 1_555
S0 W1 2.464983 1_545
S0 W1 2.465149 1_655
S0 W1 2.465154 1_555
S1 W1 2.471518 1_545
S1 W1 2.471670 1_655
S1 W1 2.471675 1_555
