# generated using pymatgen
data_Na2Ga4Si3Sn4(S3O16)3
_symmetry_space_group_name_H-M   'P 1'
_cell_length_a   17.32345870
_cell_length_b   8.68534557
_cell_length_c   22.65044856
_cell_angle_alpha   89.64313501
_cell_angle_beta   90.03218357
_cell_angle_gamma   120.11936054
_symmetry_Int_Tables_number   1
_chemical_formula_structural   Na2Ga4Si3Sn4(S3O16)3
_chemical_formula_sum   'Na6 Ga12 Si9 Sn12 S27 O144'
_cell_volume   2947.78094340
_cell_formula_units_Z   3
loop_
 _symmetry_equiv_pos_site_id
 _symmetry_equiv_pos_as_xyz
  1  'x, y, z'
loop_
 _atom_site_type_symbol
 _atom_site_label
 _atom_site_symmetry_multiplicity
 _atom_site_fract_x
 _atom_site_fract_y
 _atom_site_fract_z
 _atom_site_occupancy
  Na  Na0  1  0.99610508  0.00531035  0.49982574  1
  Na  Na1  1  0.49699960  0.98917718  0.00406668  1
  Na  Na2  1  0.33024376  0.32520259  0.84025353  1
  Na  Na3  1  0.82840972  0.33147657  0.83373976  1
  Na  Na4  1  0.33117266  0.32795762  0.33201698  1
  Na  Na5  1  0.82227660  0.32372362  0.33616406  1
  Ga  Ga0  1  0.00344977  -0.00010392  0.34775055  1
  Ga  Ga1  1  0.50486649  0.00786237  0.84954846  1
  Ga  Ga2  1  0.99613445  0.00911061  0.64423032  1
  Ga  Ga3  1  0.50225877  0.96930160  0.14856843  1
  Ga  Ga4  1  0.33126173  0.32936893  0.98303199  1
  Ga  Ga5  1  0.83648362  0.34093685  0.98658942  1
  Ga  Ga6  1  0.33929833  0.33345324  0.48106438  1
  Ga  Ga7  1  0.83143331  0.32800595  0.47857584  1
  Ga  Ga8  1  0.16613930  0.67418876  0.30859729  1
  Ga  Ga9  1  0.66692748  0.66060187  0.31180479  1
  Ga  Ga10  1  0.17002250  0.68749025  0.81877938  1
  Ga  Ga11  1  0.66402718  0.65321085  0.81025769  1
  Si  Si0  1  0.14714492  0.00099316  0.25381799  1
  Si  Si1  1  0.64680714  0.98767823  0.24966247  1
  Si  Si2  1  0.64746832  0.29448184  0.75339282  1
  Si  Si3  1  0.47809465  0.33440190  0.58086856  1
  Si  Si4  1  0.97328541  0.32739779  0.58120100  1
  Si  Si5  1  0.47173301  0.62082495  0.08021941  1
  Si  Si6  1  0.97548394  0.61958885  0.08233431  1
  Si  Si7  1  0.17451412  0.97051730  0.91610542  1
  Si  Si8  1  0.67261403  0.38292383  0.41446800  1
  Sn  Sn0  1  0.51147806  0.01719265  0.35374038  1
  Sn  Sn1  1  0.00392300  0.99760014  0.85571214  1
  Sn  Sn2  1  0.50467667  0.02010971  0.64507126  1
  Sn  Sn3  1  0.00396975  0.98804592  0.14598031  1
  Sn  Sn4  1  0.33646916  0.33501815  0.68363383  1
  Sn  Sn5  1  0.83156291  0.33312849  0.68424056  1
  Sn  Sn6  1  0.33354773  0.33141585  0.18595330  1
  Sn  Sn7  1  0.83270735  0.33194358  0.18723341  1
  Sn  Sn8  1  0.16215663  0.67432803  0.02221118  1
  Sn  Sn9  1  0.66060405  0.66355064  0.02173432  1
  Sn  Sn10  1  0.16153727  0.65964034  0.51974926  1
  Sn  Sn11  1  0.66265141  0.65339152  0.51862006  1
  S  S0  1  0.35385404  0.71317907  0.25228281  1
  S  S1  1  0.85411232  0.71289649  0.25213494  1
  S  S2  1  0.00222586  0.28958649  0.25238395  1
  S  S3  1  0.50088960  0.28749102  0.24793279  1
  S  S4  1  0.14658037  0.29945429  0.74881990  1
  S  S5  1  0.00316702  0.71425690  0.74834717  1
  S  S6  1  0.49968158  0.71130735  0.75234526  1
  S  S7  1  0.35085387  0.99151469  0.75232027  1
  S  S8  1  0.85486831  0.99514026  0.75186788  1
  S  S9  1  0.18601847  0.04385074  0.58196068  1
  S  S10  1  0.68777989  0.03789785  0.58083991  1
  S  S11  1  0.33384349  0.62509355  0.58210667  1
  S  S12  1  0.83640403  0.63155259  0.58274449  1
  S  S13  1  0.33781190  0.04259119  0.08334115  1
  S  S14  1  0.83460008  0.04288441  0.08166209  1
  S  S15  1  0.18766157  0.33569015  0.08102579  1
  S  S16  1  0.68569627  0.32837974  0.08073914  1
  S  S17  1  0.31462873  0.67151126  0.91375949  1
  S  S18  1  0.80822544  0.66090641  0.91650019  1
  S  S19  1  0.01865527  0.37635339  0.91447500  1
  S  S20  1  0.52106821  0.37237335  0.91447947  1
  S  S21  1  0.66784111  0.96074864  0.91434438  1
  S  S22  1  0.30979345  0.95560094  0.41599204  1
  S  S23  1  0.81653971  0.96035647  0.41494031  1
  S  S24  1  0.16780810  0.37368967  0.41511558  1
  S  S25  1  0.02121156  0.66986801  0.41419615  1
  S  S26  1  0.51655460  0.66165620  0.41571284  1
  O  O0  1  0.10491667  0.04469350  0.31085430  1
  O  O1  1  0.61096824  0.04234327  0.30799107  1
  O  O2  1  0.40945106  0.79185539  0.30608007  1
  O  O3  1  0.91036106  0.79341068  0.30474872  1
  O  O4  1  0.47771065  0.17377830  0.30297109  1
  O  O5  1  0.98260763  0.17337563  0.30515711  1
  O  O6  1  0.11021918  0.18454878  0.80277592  1
  O  O7  1  0.60460944  0.16454636  0.81049825  1
  O  O8  1  0.48083673  0.78899939  0.80455986  1
  O  O9  1  0.98261559  0.78746061  0.80257602  1
  O  O10  1  0.40808970  0.02703215  0.80463619  1
  O  O11  1  0.91291801  0.03218619  0.80571227  1
  O  O12  1  0.38951842  0.96470704  0.69759990  1
  O  O13  1  0.89534528  0.96454457  0.69909596  1
  O  O14  1  0.09236937  0.21372282  0.69607609  1
  O  O15  1  0.59010118  0.21285945  0.69336605  1
  O  O16  1  0.01559855  0.82651636  0.69600770  1
  O  O17  1  0.51098579  0.81098043  0.69652890  1
  O  O18  1  0.39114106  0.82164882  0.19828227  1
  O  O19  1  0.89173005  0.82147218  0.19724658  1
  O  O20  1  0.01378188  0.21204884  0.19693700  1
  O  O21  1  0.50978117  0.20084016  0.19530881  1
  O  O22  1  0.09084879  0.96786167  0.19318428  1
  O  O23  1  0.58887622  0.96642230  0.19117554  1
  O  O24  1  0.44102961  0.37465668  0.64299826  1
  O  O25  1  0.93660869  0.36739667  0.64289274  1
  O  O26  1  0.23876693  0.11657855  0.63752342  1
  O  O27  1  0.73905403  0.10917281  0.63697037  1
  O  O28  1  0.31086788  0.51223694  0.63721651  1
  O  O29  1  0.81582287  0.52188006  0.63789837  1
  O  O30  1  0.43498278  0.50443981  0.14104407  1
  O  O31  1  0.93398114  0.49822330  0.14205089  1
  O  O32  1  0.31517500  0.11276572  0.13640388  1
  O  O33  1  0.81335658  0.11253407  0.13465754  1
  O  O34  1  0.23968275  0.36626398  0.13604535  1
  O  O35  1  0.73991849  0.36198643  0.13441344  1
  O  O36  1  0.22551784  0.29693109  0.02930154  1
  O  O37  1  0.72472324  0.29241727  0.02720940  1
  O  O38  1  0.41257487  0.52717569  0.02180955  1
  O  O39  1  0.91614284  0.53552402  0.02330031  1
  O  O40  1  0.35019829  0.14978483  0.02949193  1
  O  O41  1  0.84688571  0.14919532  0.02721235  1
  O  O42  1  0.22519193  0.15962015  0.52962161  1
  O  O43  1  0.72678447  0.15644068  0.53008426  1
  O  O44  1  0.34617506  0.54128692  0.52974210  1
  O  O45  1  0.85087437  0.55035424  0.53076765  1
  O  O46  1  0.41279921  0.29615768  0.52546697  1
  O  O47  1  0.91175453  0.29850114  0.52408550  1
  O  O48  1  0.27619170  0.70131388  0.96831585  1
  O  O49  1  0.77015831  0.69264698  0.97099185  1
  O  O50  1  0.07419471  0.44739941  0.96780031  1
  O  O51  1  0.57811492  0.44520317  0.96846982  1
  O  O52  1  0.15114977  0.84267428  0.97313434  1
  O  O53  1  0.65344889  0.85276596  0.96931418  1
  O  O54  1  0.27208653  0.84847190  0.47223388  1
  O  O55  1  0.77913879  0.85615477  0.47131118  1
  O  O56  1  0.15317789  0.45139698  0.47053615  1
  O  O57  1  0.65314243  0.45818097  0.47491523  1
  O  O58  1  0.07736328  0.71160272  0.46954014  1
  O  O59  1  0.57105862  0.70022141  0.47031600  1
  O  O60  1  0.06479041  0.63877292  0.36366338  1
  O  O61  1  0.55706666  0.63036477  0.36413476  1
  O  O62  1  0.25230484  0.86924333  0.36496769  1
  O  O63  1  0.76012829  0.87782156  0.36344093  1
  O  O64  1  0.18275420  0.48789297  0.36316556  1
  O  O65  1  0.68651592  0.50667706  0.35687165  1
  O  O66  1  0.06062371  0.48646172  0.86065634  1
  O  O67  1  0.56362213  0.48996097  0.86268229  1
  O  O68  1  0.19005987  0.88672403  0.85629474  1
  O  O69  1  0.68229314  0.87714369  0.86198681  1
  O  O70  1  0.25701880  0.63892141  0.86072533  1
  O  O71  1  0.75378024  0.63757562  0.86383118  1
  O  O72  1  0.01068098  0.82885402  0.40868247  1
  O  O73  1  0.50198398  0.81473507  0.41007327  1
  O  O74  1  0.39818081  0.97259114  0.40960481  1
  O  O75  1  0.90709330  0.97667788  0.40872718  1
  O  O76  1  0.08598343  0.19694914  0.41116763  1
  O  O77  1  0.58065434  0.18993626  0.41301560  1
  O  O78  1  0.00686945  0.19539256  0.90757570  1
  O  O79  1  0.51098637  0.19233987  0.90875405  1
  O  O80  1  0.08377486  0.98359588  0.91025766  1
  O  O81  1  0.58503787  0.97196730  0.91041252  1
  O  O82  1  0.40454975  0.83724777  0.90614886  1
  O  O83  1  0.89762870  0.82351001  0.91041961  1
  O  O84  1  0.48023098  0.14936988  0.58548040  1
  O  O85  1  0.98629038  0.15307234  0.58910181  1
  O  O86  1  0.09588208  0.01868292  0.59035196  1
  O  O87  1  0.59634251  0.00872687  0.58827059  1
  O  O88  1  0.41629551  0.79565086  0.59179744  1
  O  O89  1  0.92020705  0.80541349  0.59121045  1
  O  O90  1  0.48137800  0.81741130  0.08541161  1
  O  O91  1  0.98098385  0.81163467  0.08596524  1
  O  O92  1  0.41978460  0.03505667  0.09175638  1
  O  O93  1  0.91705729  0.03626584  0.08991475  1
  O  O94  1  0.09608159  0.18321899  0.08801977  1
  O  O95  1  0.59539607  0.17636230  0.08708645  1
  O  O96  1  0.34050606  0.15442578  0.74728371  1
  O  O97  1  0.84844938  0.15878686  0.74663959  1
  O  O98  1  0.23821928  0.31532205  0.74310054  1
  O  O99  1  0.74723659  0.31079739  0.74655406  1
  O  O100  1  0.41668733  0.52819229  0.74849631  1
  O  O101  1  0.92177120  0.53491162  0.74476327  1
  O  O102  1  0.34673899  0.53534323  0.24697990  1
  O  O103  1  0.84845040  0.53619844  0.24722731  1
  O  O104  1  0.42005425  0.30985684  0.24555858  1
  O  O105  1  0.92235808  0.31113514  0.24816779  1
  O  O106  1  0.24638513  0.18353158  0.24669345  1
  O  O107  1  0.74665081  0.17332707  0.24464239  1
  O  O108  1  0.32445087  0.51375505  0.91897506  1
  O  O109  1  0.81633742  0.49932412  0.92182313  1
  O  O110  1  0.43405462  0.35899546  0.92129751  1
  O  O111  1  0.92882501  0.35721656  0.92070749  1
  O  O112  1  0.26162986  0.16735410  0.92543909  1
  O  O113  1  0.74867192  0.14006063  0.92204959  1
  O  O114  1  0.31591943  0.13247031  0.42193116  1
  O  O115  1  0.82634478  0.13908561  0.42084399  1
  O  O116  1  0.24925855  0.35748548  0.42334130  1
  O  O117  1  0.76113006  0.36095319  0.42368233  1
  O  O118  1  0.42578261  0.49789381  0.42232778  1
  O  O119  1  0.93428235  0.50819413  0.42192366  1
  O  O120  1  0.18382323  0.50065028  0.07287602  1
  O  O121  1  0.68381939  0.49684959  0.07319108  1
  O  O122  1  0.07148278  0.62873263  0.08040250  1
  O  O123  1  0.57163963  0.64355638  0.07599152  1
  O  O124  1  0.25995665  0.85974765  0.07745472  1
  O  O125  1  0.75713967  0.86092992  0.07431603  1
  O  O126  1  0.18181020  0.87038198  0.57510051  1
  O  O127  1  0.68341766  0.86572069  0.57326496  1
  O  O128  1  0.25657554  0.65231074  0.57536024  1
  O  O129  1  0.76051762  0.66239453  0.57725635  1
  O  O130  1  0.07357491  0.50289501  0.57613580  1
  O  O131  1  0.57405685  0.51500604  0.57890906  1
  O  O132  1  0.15689057  0.82777206  0.26099772  1
  O  O133  1  0.65692473  0.81677942  0.26285121  1
  O  O134  1  0.26401605  0.68745896  0.26057916  1
  O  O135  1  0.76553845  0.69240036  0.25710147  1
  O  O136  1  0.08358066  0.46264436  0.26044103  1
  O  O137  1  0.58055221  0.46153539  0.25579406  1
  O  O138  1  0.15634157  0.47424066  0.75856543  1
  O  O139  1  0.65801883  0.48780036  0.76090527  1
  O  O140  1  0.08235290  0.69604145  0.75687146  1
  O  O141  1  0.57960028  0.69645795  0.76030432  1
  O  O142  1  0.26283795  0.83013783  0.75794619  1
  O  O143  1  0.76656537  0.84035731  0.76099759  1
loop_
_geom_bond_atom_site_label_1
_geom_bond_atom_site_label_2
_geom_bond_distance
_geom_bond_site_symmetry_2
Na0 O85 2.452896 1_555
Na0 O75 2.513019 1_545
Na0 O76 2.566764 1_655
Na0 O89 2.587442 1_545
Na0 O86 2.646324 1_655
Na0 O72 2.665117 1_645
Na1 O90 2.292331 1_555
Na1 O95 2.517531 1_565
Na1 O92 2.537885 1_565
Na1 O81 2.661706 1_554
Na1 O82 2.671462 1_554
Na1 O79 2.712395 1_564
Na2 O112 2.312900 1_555
Na2 O108 2.464310 1_555
Na2 O110 2.482591 1_555
Na2 O96 2.640085 1_555
Na2 O100 2.641684 1_555
Na2 O98 2.693019 1_555
Na3 O99 2.378507 1_555
Na3 O113 2.515944 1_555
Na3 O109 2.547974 1_555
Na3 O111 2.562745 1_555
Na3 O97 2.611990 1_555
Na3 O101 2.625019 1_555
Na4 O106 2.375671 1_555
Na4 O104 2.545719 1_555
Na4 O102 2.548913 1_555
Na4 O114 2.570524 1_555
Na4 O118 2.579756 1_555
Na4 O116 2.594884 1_555
Na5 O117 2.347409 1_555
Na5 O107 2.456256 1_555
Na5 O115 2.516043 1_555
Na5 O103 2.604639 1_555
Na5 O119 2.649474 1_555
Na5 O105 2.680928 1_555
Ga0 O0 1.802981 1_555
Ga0 O5 1.964393 1_455
Ga0 O3 1.970535 1_445
Ga0 O72 2.070842 1_545
Ga0 O75 2.096628 1_445
Ga0 O76 2.146900 1_555
Ga1 O7 1.801866 1_555
Ga1 O8 2.013602 1_545
Ga1 O10 2.037003 1_555
Ga1 O79 2.057412 1_555
Ga1 O82 2.062491 1_545
Ga1 O81 2.086544 1_545
Ga2 O85 1.829207 1_555
Ga2 O89 1.997886 1_545
Ga2 O13 2.015181 1_545
Ga2 O86 2.083034 1_655
Ga2 O14 2.089726 1_655
Ga2 O16 2.125377 1_645
Ga3 O23 1.794230 1_555
Ga3 O90 1.860541 1_555
Ga3 O18 2.030993 1_555
Ga3 O92 2.197962 1_565
Ga3 O95 2.199095 1_565
Ga3 O21 2.223794 1_565
Ga4 O38 1.815465 1_556
Ga4 O112 1.858620 1_555
Ga4 O36 2.003480 1_556
Ga4 O40 2.034830 1_556
Ga4 O110 2.175072 1_555
Ga4 O108 2.200965 1_555
Ga5 O39 1.768506 1_556
Ga5 O41 1.983525 1_556
Ga5 O37 1.987671 1_556
Ga5 O111 2.139818 1_555
Ga5 O109 2.149972 1_555
Ga5 O113 2.204694 1_555
Ga6 O46 1.773737 1_555
Ga6 O118 1.971171 1_555
Ga6 O44 2.072944 1_555
Ga6 O114 2.079455 1_555
Ga6 O42 2.093588 1_555
Ga6 O116 2.122979 1_555
Ga7 O47 1.848597 1_555
Ga7 O117 1.858693 1_555
Ga7 O43 2.034135 1_555
Ga7 O115 2.071596 1_555
Ga7 O119 2.109362 1_555
Ga7 O45 2.148400 1_555
Ga8 O132 1.778712 1_555
Ga8 O134 1.968641 1_555
Ga8 O136 1.999254 1_555
Ga8 O60 2.046585 1_555
Ga8 O62 2.053119 1_555
Ga8 O64 2.161175 1_555
Ga9 O133 1.821106 1_555
Ga9 O65 1.839112 1_555
Ga9 O135 2.013550 1_555
Ga9 O137 2.065570 1_555
Ga9 O63 2.121886 1_555
Ga9 O61 2.143128 1_555
Ga10 O68 1.803343 1_555
Ga10 O70 1.995830 1_555
Ga10 O142 2.000210 1_555
Ga10 O66 2.049483 1_555
Ga10 O140 2.094728 1_555
Ga10 O138 2.222009 1_555
Ga11 O139 1.787229 1_555
Ga11 O67 1.987971 1_555
Ga11 O141 2.025980 1_555
Ga11 O71 2.028835 1_555
Ga11 O143 2.030812 1_555
Ga11 O69 2.160108 1_555
O0 Si0 1.622972 1_555
O1 Si1 1.631238 1_545
O1 Sn0 1.927007 1_555
O2 S0 1.492625 1_555
O2 Sn0 2.161529 1_565
O3 S1 1.477814 1_555
O4 S3 1.509302 1_555
O4 Sn0 2.071800 1_555
O5 S2 1.484669 1_655
O6 S4 1.497041 1_555
O6 Sn1 2.107711 1_545
O7 Si2 1.624767 1_555
O8 S6 1.480576 1_555
O9 S5 1.509015 1_655
O9 Sn1 2.065589 1_655
O10 S7 1.476048 1_545
O11 S8 1.510299 1_545
O11 Sn1 2.080215 1_645
O12 S7 1.483275 1_555
O12 Sn2 2.158488 1_565
O13 S8 1.477485 1_555
O14 S4 1.473652 1_555
O15 Si2 1.625493 1_555
O15 Sn2 1.929720 1_555
O16 S5 1.475677 1_555
O17 S6 1.484133 1_555
O17 Sn2 2.200525 1_565
O18 S0 1.475347 1_555
O19 S1 1.493040 1_555
O19 Sn3 2.092971 1_655
O20 S2 1.488960 1_555
O20 Sn3 2.200465 1_545
O21 S3 1.462397 1_555
O22 Si0 1.625377 1_565
O22 Sn3 1.923465 1_555
O23 Si1 1.616110 1_555
O24 Si3 1.657519 1_555
O24 Sn4 1.902300 1_555
O25 Si4 1.644848 1_555
O25 Sn5 1.931862 1_555
O26 S9 1.499068 1_555
O26 Sn4 2.086853 1_555
O27 S10 1.498430 1_555
O27 Sn5 2.096120 1_555
O28 S11 1.507030 1_555
O28 Sn4 2.082224 1_555
O29 S12 1.496644 1_555
O29 Sn5 2.071369 1_555
O30 Si5 1.631859 1_555
O30 Sn6 1.927067 1_555
O31 Si6 1.637170 1_555
O31 Sn7 1.910962 1_555
O32 S13 1.489744 1_555
O32 Sn6 2.094477 1_555
O33 S14 1.474866 1_555
O33 Sn7 2.132776 1_555
O34 S15 1.482701 1_555
O34 Sn6 2.121602 1_555
O35 S16 1.474289 1_555
O35 Sn7 2.120885 1_555
O36 S15 1.464012 1_555
O37 S16 1.497434 1_555
O38 Si5 1.624040 1_555
O39 Si6 1.623319 1_555
O40 S13 1.478572 1_555
O41 S14 1.485869 1_555
O42 S9 1.475877 1_555
O43 S10 1.458153 1_555
O44 S11 1.466064 1_555
O45 S12 1.460933 1_555
O46 Si3 1.609669 1_555
O47 Si4 1.614570 1_555
O48 S17 1.488381 1_555
O48 Sn8 2.232076 1_556
O49 S18 1.490598 1_555
O49 Sn9 2.122311 1_556
O50 S19 1.475633 1_555
O50 Sn8 2.177038 1_556
O51 S20 1.501052 1_555
O51 Sn9 2.097813 1_556
O52 Si7 1.611513 1_555
O52 Sn8 1.915523 1_556
O53 S21 1.497710 1_555
O53 Sn9 2.075059 1_556
O54 S22 1.513754 1_555
O54 Sn10 2.084186 1_555
O55 S23 1.505719 1_555
O55 Sn11 2.175806 1_555
O56 S24 1.509340 1_555
O56 Sn10 2.072888 1_555
O57 Si8 1.627438 1_555
O57 Sn11 1.903195 1_555
O58 S25 1.516399 1_555
O58 Sn10 2.067741 1_555
O59 S26 1.489896 1_555
O59 Sn11 2.126108 1_555
O60 S25 1.470509 1_555
O61 S26 1.458611 1_555
O62 S22 1.466263 1_555
O63 S23 1.461380 1_555
O64 S24 1.470903 1_555
O65 Si8 1.624289 1_555
O66 S19 1.489238 1_555
O67 S20 1.481010 1_555
O68 Si7 1.626926 1_555
O69 S21 1.479824 1_555
O70 S17 1.496164 1_555
O71 S18 1.470978 1_555
O72 S25 1.485347 1_555
O73 S26 1.477284 1_555
O73 Sn0 2.104565 1_565
O74 S22 1.469837 1_555
O74 Sn0 2.199320 1_565
O75 S23 1.509154 1_555
O76 S24 1.480356 1_555
O77 Si8 1.633774 1_555
O77 Sn0 1.925760 1_555
O78 S19 1.489074 1_555
O78 Sn1 2.066600 1_545
O79 S20 1.490219 1_555
O80 Si7 1.637117 1_555
O80 Sn1 1.902583 1_555
O81 S21 1.488308 1_555
O82 S17 1.508365 1_555
O83 S18 1.488226 1_555
O83 Sn1 2.096993 1_655
O84 Si3 1.628662 1_555
O84 Sn2 1.928524 1_555
O85 Si4 1.647461 1_555
O86 S9 1.476269 1_555
O87 S10 1.482770 1_555
O87 Sn2 2.085209 1_555
O88 S11 1.470697 1_555
O88 Sn2 2.152310 1_565
O89 S12 1.492573 1_555
O90 Si5 1.634992 1_555
O91 Si6 1.624875 1_555
O91 Sn3 1.940897 1_655
O92 S13 1.466275 1_555
O93 S14 1.469923 1_555
O93 Sn3 2.163109 1_645
O94 S15 1.478130 1_555
O94 Sn3 2.098388 1_545
O95 S16 1.461519 1_555
O96 S7 1.516484 1_545
O96 Sn4 2.150675 1_555
O97 S8 1.484273 1_545
O97 Sn5 2.189398 1_555
O98 S4 1.528521 1_555
O98 Sn4 2.109010 1_555
O99 Si2 1.668962 1_555
O99 Sn5 1.969342 1_555
O100 S6 1.520154 1_555
O100 Sn4 2.143131 1_555
O101 S5 1.489402 1_655
O101 Sn5 2.161414 1_555
O102 S0 1.492157 1_555
O102 Sn6 2.173461 1_555
O103 S1 1.492740 1_555
O103 Sn7 2.147596 1_555
O104 S3 1.508109 1_555
O104 Sn6 2.092790 1_555
O105 S2 1.489285 1_655
O105 Sn7 2.150760 1_555
O106 Si0 1.660374 1_555
O106 Sn6 1.963778 1_555
O107 Si1 1.674353 1_545
O107 Sn7 1.931301 1_555
O108 S17 1.467040 1_555
O109 S18 1.483109 1_555
O110 S20 1.460752 1_555
O111 S19 1.486470 1_655
O112 Si7 1.630872 1_545
O113 S21 1.493704 1_545
O114 S22 1.492692 1_545
O115 S23 1.481344 1_545
O116 S24 1.498042 1_555
O117 Si8 1.650487 1_555
O118 S26 1.507029 1_555
O119 S25 1.464646 1_655
O120 S15 1.477678 1_555
O120 Sn8 2.068677 1_555
O121 S16 1.488597 1_555
O121 Sn9 2.044333 1_555
O122 Si6 1.625234 1_455
O122 Sn8 1.932098 1_555
O123 Si5 1.643347 1_555
O123 Sn9 1.909595 1_555
O124 S13 1.487152 1_565
O124 Sn8 2.077038 1_555
O125 S14 1.483426 1_565
O125 Sn9 2.073641 1_555
O126 S9 1.480568 1_565
O126 Sn10 2.104368 1_555
O127 S10 1.470099 1_565
O127 Sn11 2.103429 1_555
O128 S11 1.479130 1_555
O128 Sn10 2.098367 1_555
O129 S12 1.472495 1_555
O129 Sn11 2.123700 1_555
O130 Si4 1.641722 1_455
O130 Sn10 1.924868 1_555
O131 Si3 1.615002 1_555
O131 Sn11 1.948204 1_555
O132 Si0 1.603204 1_565
O133 Si1 1.605823 1_555
O134 S0 1.469078 1_555
O135 S1 1.457586 1_555
O136 S2 1.468305 1_555
O137 S3 1.459687 1_555
O138 S4 1.458900 1_555
O139 Si2 1.605324 1_555
O140 S5 1.470102 1_555
O141 S6 1.464417 1_555
O142 S7 1.469279 1_555
O143 S8 1.457072 1_555
