# generated using pymatgen
data_K3MgScV2O8
_symmetry_space_group_name_H-M   'P 1'
_cell_length_a   6.05664673
_cell_length_b   5.94315599
_cell_length_c   8.13370951
_cell_angle_alpha   89.99986660
_cell_angle_beta   87.56737709
_cell_angle_gamma   119.37917017
_symmetry_Int_Tables_number   1
_chemical_formula_structural   K3MgScV2O8
_chemical_formula_sum   'K3 Mg1 Sc1 V2 O8'
_cell_volume   254.82138723
_cell_formula_units_Z   1
loop_
 _symmetry_equiv_pos_site_id
 _symmetry_equiv_pos_as_xyz
  1  'x, y, z'
loop_
 _atom_site_type_symbol
 _atom_site_label
 _atom_site_symmetry_multiplicity
 _atom_site_fract_x
 _atom_site_fract_y
 _atom_site_fract_z
 _atom_site_occupancy
  K  K0  1  0.59113500  0.29554800  0.25713600  1
  K  K1  1  0.40886500  0.70445200  0.74286400  1
  K  K2  1  0.00000000  0.00000000  0.00000000  1
  Mg  Mg0  1  0.00000000  0.50000000  0.50000000  1
  Sc  Sc0  1  0.00000000  0.00000000  0.50000000  1
  V  V0  1  0.61081900  0.30541400  0.74324400  1
  V  V1  1  0.38918100  0.69458600  0.25675600  1
  O  O0  1  0.66400400  0.33198400  0.94865500  1
  O  O1  1  0.33599600  0.66801600  0.05134500  1
  O  O2  1  0.80648600  0.63405900  0.62773800  1
  O  O3  1  0.28632200  0.14317300  0.68678800  1
  O  O4  1  0.80646900  0.17242500  0.62772100  1
  O  O5  1  0.19351400  0.36594100  0.37226200  1
  O  O6  1  0.71367800  0.85682700  0.31321200  1
  O  O7  1  0.19353100  0.82757500  0.37227900  1
loop_
_geom_bond_atom_site_label_1
_geom_bond_atom_site_label_2
_geom_bond_distance
_geom_bond_site_symmetry_2
K0 O0 2.519812 1_554
K0 O7 2.765602 1_545
K0 O5 2.765619 1_555
K0 O6 3.079750 1_545
K0 O6 3.079901 1_555
K1 O1 2.519812 1_556
K1 O4 2.765602 1_565
K1 O2 2.765619 1_555
K1 O3 3.079750 1_565
K1 O3 3.079901 1_555
K2 O6 2.898034 1_445
K2 O3 2.898034 1_554
Mg0 O2 1.975050 1_455
Mg0 O5 1.975050 1_555
Mg0 O7 1.975066 1_555
Mg0 O4 1.975066 1_455
O0 V0 1.707599 1_555
O1 V1 1.707599 1_555
O2 V0 1.932971 1_555
O2 Sc0 2.139793 1_665
O3 V0 1.794570 1_555
O3 Sc0 2.194395 1_555
O4 V0 1.932929 1_555
O4 Sc0 2.139725 1_655
O5 V1 1.932971 1_555
O5 Sc0 2.139793 1_555
O6 V1 1.794570 1_555
O6 Sc0 2.194395 1_665
O7 V1 1.932929 1_555
O7 Sc0 2.139725 1_565
