# generated using pymatgen
data_Ba2YMgFe3O8
_symmetry_space_group_name_H-M   'P 1'
_cell_length_a   4.01619700
_cell_length_b   4.01590200
_cell_length_c   13.14732700
_cell_angle_alpha   90.00000000
_cell_angle_beta   90.00000000
_cell_angle_gamma   90.00000000
_symmetry_Int_Tables_number   1
_chemical_formula_structural   Ba2YMgFe3O8
_chemical_formula_sum   'Ba2 Y1 Mg1 Fe3 O8'
_cell_volume   212.04868248
_cell_formula_units_Z   1
loop_
 _symmetry_equiv_pos_site_id
 _symmetry_equiv_pos_as_xyz
  1  'x, y, z'
loop_
 _atom_site_type_symbol
 _atom_site_label
 _atom_site_symmetry_multiplicity
 _atom_site_fract_x
 _atom_site_fract_y
 _atom_site_fract_z
 _atom_site_occupancy
  Ba  Ba0  1  0.50000000  0.50000000  0.14461000  1
  Ba  Ba1  1  0.50000000  0.50000000  0.85539000  1
  Y  Y0  1  0.50000000  0.50000000  0.50000000  1
  Mg  Mg0  1  0.00000000  0.00000000  0.50000000  1
  Fe  Fe0  1  0.00000000  0.00000000  0.31715200  1
  Fe  Fe1  1  0.00000000  0.00000000  0.00000000  1
  Fe  Fe2  1  0.00000000  0.00000000  0.68284800  1
  O  O0  1  0.00000000  0.50000000  0.39969000  1
  O  O1  1  0.50000000  0.00000000  0.39970800  1
  O  O2  1  0.50000000  0.00000000  0.00000000  1
  O  O3  1  0.00000000  0.00000000  0.16940800  1
  O  O4  1  0.00000000  0.50000000  0.60031000  1
  O  O5  1  0.50000000  0.00000000  0.60029200  1
  O  O6  1  0.00000000  0.00000000  0.83059200  1
  O  O7  1  0.00000000  0.50000000  0.00000000  1
loop_
_geom_bond_atom_site_label_1
_geom_bond_atom_site_label_2
_geom_bond_distance
_geom_bond_site_symmetry_2
Ba0 O2 2.765242 1_555
Ba0 O2 2.765242 1_565
Ba0 O7 2.765349 1_555
Ba0 O7 2.765349 1_655
Ba0 O3 2.858430 1_555
Ba0 O3 2.858430 1_565
Ba0 O3 2.858430 1_655
Ba0 O3 2.858430 1_665
Ba1 O2 2.765242 1_556
Ba1 O2 2.765242 1_566
Ba1 O7 2.765349 1_556
Ba1 O7 2.765349 1_656
Ba1 O6 2.858430 1_655
Ba1 O6 2.858430 1_555
Ba1 O6 2.858430 1_565
Ba1 O6 2.858430 1_665
Mg0 O1 2.402310 1_555
Mg0 O1 2.402310 1_455
Mg0 O5 2.402310 1_555
Mg0 O5 2.402310 1_455
Mg0 O0 2.402316 1_545
Mg0 O4 2.402316 1_555
Mg0 O4 2.402316 1_545
Mg0 O0 2.402316 1_555
Fe0 O3 1.942439 1_555
Fe0 O0 2.282417 1_555
Fe0 O0 2.282417 1_545
Fe0 O1 2.282659 1_455
Fe0 O1 2.282659 1_555
Fe0 Mg0 2.403962 1_555
Fe1 O7 2.007951 1_545
Fe1 O7 2.007951 1_555
Fe1 O2 2.008099 1_555
Fe1 O2 2.008099 1_455
Fe1 O6 2.227262 1_554
Fe1 O3 2.227262 1_555
Fe2 O6 1.942439 1_555
Fe2 O4 2.282417 1_555
Fe2 O4 2.282417 1_545
Fe2 O5 2.282659 1_455
Fe2 O5 2.282659 1_555
Fe2 Mg0 2.403962 1_555
O0 Y0 2.402439 1_455
O0 Y0 2.402439 1_555
O1 Y0 2.402186 1_545
O1 Y0 2.402186 1_555
O4 Y0 2.402439 1_455
O4 Y0 2.402439 1_555
O5 Y0 2.402186 1_545
O5 Y0 2.402186 1_555
