# generated using pymatgen
data_Sb2(SO4)3
_symmetry_space_group_name_H-M   'P 1'
_cell_length_a   4.78432932
_cell_length_b   13.08811723
_cell_length_c   17.67999362
_cell_angle_alpha   53.57788768
_cell_angle_beta   90.00000000
_cell_angle_gamma   90.00000000
_symmetry_Int_Tables_number   1
_chemical_formula_structural   Sb2(SO4)3
_chemical_formula_sum   'Sb8 S12 O48'
_cell_volume   890.83096610
_cell_formula_units_Z   4
loop_
 _symmetry_equiv_pos_site_id
 _symmetry_equiv_pos_as_xyz
  1  'x, y, z'
loop_
 _atom_site_type_symbol
 _atom_site_label
 _atom_site_symmetry_multiplicity
 _atom_site_fract_x
 _atom_site_fract_y
 _atom_site_fract_z
 _atom_site_occupancy
  Sb  Sb0  1  0.69636298  0.11802623  0.05962343  1
  Sb  Sb1  1  0.19636298  0.88197377  0.44037657  1
  Sb  Sb2  1  0.30363702  0.88197377  0.94037657  1
  Sb  Sb3  1  0.80363702  0.11802623  0.55962343  1
  Sb  Sb4  1  0.93011895  0.35001172  0.22004321  1
  Sb  Sb5  1  0.43011895  0.64998828  0.27995679  1
  Sb  Sb6  1  0.06988105  0.64998828  0.77995679  1
  Sb  Sb7  1  0.56988105  0.35001172  0.72004321  1
  S  S0  1  0.13635024  0.16335142  0.89132116  1
  S  S1  1  0.63635024  0.83664858  0.60867884  1
  S  S2  1  0.86364976  0.83664858  0.10867884  1
  S  S3  1  0.36364976  0.16335142  0.39132116  1
  S  S4  1  0.17616583  0.17521788  0.17228510  1
  S  S5  1  0.67616583  0.82478212  0.32771490  1
  S  S6  1  0.82383417  0.82478212  0.82771490  1
  S  S7  1  0.32383417  0.17521788  0.67228510  1
  S  S8  1  0.43730972  0.55804649  0.11113499  1
  S  S9  1  0.93730972  0.44195351  0.38886501  1
  S  S10  1  0.56269028  0.44195351  0.88886501  1
  S  S11  1  0.06269028  0.55804649  0.61113499  1
  O  O0  1  0.14598741  0.27220718  0.78927495  1
  O  O1  1  0.64598741  0.72779282  0.71072505  1
  O  O2  1  0.85401259  0.72779282  0.21072505  1
  O  O3  1  0.35401259  0.27220718  0.28927495  1
  O  O4  1  0.94974202  0.20609801  0.93538043  1
  O  O5  1  0.44974202  0.79390199  0.56461957  1
  O  O6  1  0.05025798  0.79390199  0.06461957  1
  O  O7  1  0.55025798  0.20609801  0.43538043  1
  O  O8  1  0.41770824  0.13645310  0.92953717  1
  O  O9  1  0.91770824  0.86354690  0.57046283  1
  O  O10  1  0.58229176  0.86354690  0.07046283  1
  O  O11  1  0.08229176  0.13645310  0.42953717  1
  O  O12  1  0.01279151  0.05222424  0.90248652  1
  O  O13  1  0.51279151  0.94777576  0.59751348  1
  O  O14  1  0.98720849  0.94777576  0.09751348  1
  O  O15  1  0.48720849  0.05222424  0.40248652  1
  O  O16  1  0.06375107  0.14839758  0.10569129  1
  O  O17  1  0.47705563  0.17018829  0.16881555  1
  O  O18  1  0.52294437  0.82981171  0.83118445  1
  O  O19  1  0.02294437  0.17018829  0.66881555  1
  O  O20  1  0.95735656  0.56399835  0.68526774  1
  O  O21  1  0.45735656  0.43600165  0.81473226  1
  O  O22  1  0.04264344  0.43600165  0.31473226  1
  O  O23  1  0.54264344  0.56399835  0.18526774  1
  O  O24  1  0.36462329  0.51563832  0.62941192  1
  O  O25  1  0.86462329  0.48436168  0.87058808  1
  O  O26  1  0.63537671  0.48436168  0.37058808  1
  O  O27  1  0.13537671  0.51563832  0.12941192  1
  O  O28  1  0.06721379  0.68150737  0.51836249  1
  O  O29  1  0.56721379  0.31849263  0.98163751  1
  O  O30  1  0.93278621  0.31849263  0.48163751  1
  O  O31  1  0.43278621  0.68150737  0.01836249  1
  O  O32  1  0.89344759  0.46831419  0.60577795  1
  O  O33  1  0.39344759  0.53168581  0.89422205  1
  O  O34  1  0.10655241  0.53168581  0.39422205  1
  O  O35  1  0.60655241  0.46831419  0.10577795  1
  O  O36  1  0.44457813  0.09197413  0.76505731  1
  O  O37  1  0.94457813  0.90802587  0.73494269  1
  O  O38  1  0.55542187  0.90802587  0.23494269  1
  O  O39  1  0.05542187  0.09197413  0.26505731  1
  O  O40  1  0.42042502  0.30986656  0.63005713  1
  O  O41  1  0.92042502  0.69013344  0.86994287  1
  O  O42  1  0.57957498  0.69013344  0.36994287  1
  O  O43  1  0.07957498  0.30986656  0.13005713  1
  O  O44  1  0.43624893  0.14839758  0.60569129  1
  O  O45  1  0.93624893  0.85160242  0.89430871  1
  O  O46  1  0.56375107  0.85160242  0.39430871  1
  O  O47  1  0.97705563  0.82981171  0.33118445  1
loop_
_geom_bond_atom_site_label_1
_geom_bond_atom_site_label_2
_geom_bond_distance
_geom_bond_site_symmetry_2
O0 S0 1.494893 1_555
O0 Sb7 2.273338 1_555
O1 S1 1.494893 1_555
O1 Sb6 2.273338 1_655
O2 S2 1.494893 1_555
O2 Sb5 2.273338 1_555
O3 S3 1.494893 1_555
O3 Sb4 2.273338 1_455
O4 S0 1.494788 1_655
O4 Sb0 2.148649 1_556
O5 S1 1.494788 1_555
O5 Sb1 2.148649 1_555
O6 S2 1.494788 1_455
O6 Sb2 2.148649 1_554
O7 S3 1.494788 1_555
O7 Sb3 2.148649 1_555
O8 S0 1.452587 1_555
O8 Sb0 2.542934 1_556
O9 S1 1.452587 1_555
O9 Sb1 2.542934 1_655
O10 S2 1.452587 1_555
O10 Sb2 2.542934 1_554
O11 S3 1.452587 1_555
O11 Sb3 2.542934 1_455
O12 S0 1.470680 1_555
O12 Sb2 2.361704 1_545
O13 S1 1.470680 1_555
O13 Sb3 2.361704 1_565
O14 S2 1.470680 1_555
O14 Sb0 2.361704 1_565
O15 S3 1.470680 1_555
O15 Sb1 2.361704 1_545
O16 S4 1.513098 1_555
O16 Sb0 2.072526 1_455
O17 S4 1.444026 1_555
O17 Sb0 2.618952 1_555
O18 S6 1.444026 1_555
O18 Sb2 2.618952 1_555
O19 S7 1.444026 1_555
O19 Sb3 2.618952 1_455
O20 S11 1.448834 1_655
O20 Sb6 2.568341 1_655
O21 S10 1.448834 1_555
O21 Sb7 2.568341 1_555
O22 S9 1.448834 1_455
O22 Sb4 2.568341 1_455
O23 S8 1.448834 1_555
O23 Sb5 2.568341 1_555
O24 S11 1.512028 1_555
O24 Sb7 2.026421 1_555
O25 S10 1.512028 1_555
O25 Sb6 2.026421 1_655
O26 S9 1.512028 1_555
O26 Sb5 2.026421 1_555
O27 S8 1.512028 1_555
O27 Sb4 2.026421 1_455
O28 S11 1.467856 1_555
O28 Sb1 2.207053 1_555
O29 S10 1.467856 1_555
O29 Sb0 2.207053 1_556
O30 S9 1.467856 1_555
O30 Sb3 2.207053 1_555
O31 S8 1.467856 1_555
O31 Sb2 2.207053 1_554
O32 S11 1.475116 1_655
O32 Sb7 2.271724 1_555
O33 S10 1.475116 1_555
O33 Sb6 2.271724 1_555
O34 S9 1.475116 1_455
O34 Sb5 2.271724 1_555
O35 S8 1.475116 1_555
O35 Sb4 2.271724 1_555
O36 S7 1.445343 1_555
O36 Sb2 2.738676 1_545
O37 S6 1.445343 1_555
O37 Sb3 2.738676 1_565
O38 S5 1.445343 1_555
O38 Sb0 2.738676 1_565
O39 S4 1.445343 1_555
O39 Sb1 2.738676 1_545
O40 S7 1.521279 1_555
O40 Sb7 2.076324 1_555
O41 S6 1.521279 1_555
O41 Sb6 2.076324 1_655
O42 S5 1.521279 1_555
O42 Sb5 2.076324 1_555
O43 S4 1.521279 1_555
O43 Sb4 2.076324 1_455
O44 S7 1.513098 1_555
O44 Sb3 2.072526 1_555
O45 S6 1.513098 1_555
O45 Sb2 2.072526 1_655
O46 S5 1.513098 1_555
O46 Sb1 2.072526 1_555
O47 S5 1.444026 1_555
O47 Sb1 2.618952 1_655
