# generated using pymatgen
data_PrZr3F15
_symmetry_space_group_name_H-M   'P 1'
_cell_length_a   7.41541190
_cell_length_b   7.41541190
_cell_length_c   7.41541191
_cell_angle_alpha   112.60623395
_cell_angle_beta   112.60623395
_cell_angle_gamma   112.60624242
_symmetry_Int_Tables_number   1
_chemical_formula_structural   PrZr3F15
_chemical_formula_sum   'Pr1 Zr3 F15'
_cell_volume   271.43627968
_cell_formula_units_Z   1
loop_
 _symmetry_equiv_pos_site_id
 _symmetry_equiv_pos_as_xyz
  1  'x, y, z'
loop_
 _atom_site_type_symbol
 _atom_site_label
 _atom_site_symmetry_multiplicity
 _atom_site_fract_x
 _atom_site_fract_y
 _atom_site_fract_z
 _atom_site_occupancy
  Pr  Pr0  1  0.49362522  0.49362522  0.49362522  1
  Zr  Zr0  1  0.85560710  0.28739994  0.85560710  1
  Zr  Zr1  1  0.28739994  0.85560710  0.85560710  1
  Zr  Zr2  1  0.85560710  0.85560710  0.28739994  1
  F  F0  1  0.59885483  0.92896277  0.14337821  1
  F  F1  1  0.92896277  0.14337821  0.59885483  1
  F  F2  1  0.14337821  0.59885483  0.92896277  1
  F  F3  1  0.92896277  0.59885483  0.14337821  1
  F  F4  1  0.59491230  0.59491230  0.25488168  1
  F  F5  1  0.25488168  0.59491230  0.59491230  1
  F  F6  1  0.59491230  0.25488168  0.59491230  1
  F  F7  1  0.13575604  0.13575604  0.35828766  1
  F  F8  1  0.35828766  0.13575604  0.13575604  1
  F  F9  1  0.13575604  0.35828766  0.13575604  1
  F  F10  1  0.68007650  0.68007650  0.91787901  1
  F  F11  1  0.91787901  0.68007650  0.68007650  1
  F  F12  1  0.68007650  0.91787901  0.68007650  1
  F  F13  1  0.14337821  0.92896277  0.59885483  1
  F  F14  1  0.59885483  0.14337821  0.92896277  1
loop_
_geom_bond_atom_site_label_1
_geom_bond_atom_site_label_2
_geom_bond_distance
_geom_bond_site_symmetry_2
F0 Zr1 2.129901 1_554
F0 Zr2 2.177386 1_555
F1 Zr2 2.129901 1_545
F1 Zr0 2.177386 1_555
F2 Zr0 2.129900 1_455
F2 Zr1 2.177386 1_555
F3 Zr0 2.129901 1_554
F3 Zr2 2.177386 1_555
F4 Zr2 1.985585 1_555
F4 Pr0 2.423499 1_555
F5 Zr1 1.985586 1_555
F5 Pr0 2.423499 1_555
F6 Zr0 1.985586 1_555
F6 Pr0 2.423499 1_555
F7 Zr2 1.977559 1_445
F7 Pr0 2.362801 1_555
F8 Zr1 1.977560 1_544
F8 Pr0 2.362802 1_555
F9 Zr0 1.977560 1_454
F9 Pr0 2.362802 1_555
F10 Zr2 2.027399 1_556
F10 Pr0 2.358593 1_555
F11 Zr1 2.027398 1_655
F11 Pr0 2.358593 1_555
F12 Zr0 2.027398 1_565
F12 Pr0 2.358593 1_555
F13 Zr2 2.129901 1_455
F13 Zr1 2.177386 1_555
F14 Zr1 2.129900 1_545
F14 Zr0 2.177386 1_555
