# generated using pymatgen
data_MgNb3SiO10
_symmetry_space_group_name_H-M   'P 1'
_cell_length_a   5.01563095
_cell_length_b   5.37294503
_cell_length_c   6.90980101
_cell_angle_alpha   100.25931438
_cell_angle_beta   111.39332199
_cell_angle_gamma   90.34162675
_symmetry_Int_Tables_number   1
_chemical_formula_structural   MgNb3SiO10
_chemical_formula_sum   'Mg1 Nb3 Si1 O10'
_cell_volume   170.09597497
_cell_formula_units_Z   1
loop_
 _symmetry_equiv_pos_site_id
 _symmetry_equiv_pos_as_xyz
  1  'x, y, z'
loop_
 _atom_site_type_symbol
 _atom_site_label
 _atom_site_symmetry_multiplicity
 _atom_site_fract_x
 _atom_site_fract_y
 _atom_site_fract_z
 _atom_site_occupancy
  Mg  Mg0  1  0.29826600  0.67410300  0.07610300  1
  Nb  Nb0  1  0.59795100  0.71377500  0.70543600  1
  Nb  Nb1  1  0.09831700  0.21495600  0.73849600  1
  Nb  Nb2  1  0.90257500  0.80106300  0.29954300  1
  Si  Si0  1  0.42041300  0.28188300  0.30885800  1
  O  O0  1  0.27787800  0.60014700  0.38279600  1
  O  O1  1  0.64799400  0.49280300  0.23202600  1
  O  O2  1  0.43182700  0.02130500  0.76515300  1
  O  O3  1  0.87794600  0.86365700  0.59332500  1
  O  O4  1  0.31165300  0.53870200  0.78531600  1
  O  O5  1  0.69559400  0.35080500  0.57274500  1
  O  O6  1  0.15189800  0.26931000  0.02842100  1
  O  O7  1  0.88643300  0.74276000  0.99458100  1
  O  O8  1  0.54642900  0.99953900  0.22052900  1
  O  O9  1  0.16038300  0.12269100  0.38000400  1
loop_
_geom_bond_atom_site_label_1
_geom_bond_atom_site_label_2
_geom_bond_distance
_geom_bond_site_symmetry_2
Mg0 O7 1.988555 1_454
Mg0 O8 2.012184 1_555
Mg0 O4 2.036981 1_554
Mg0 O1 2.049894 1_555
Mg0 O6 2.219701 1_555
Mg0 O0 2.262051 1_555
Nb0 O2 1.902400 1_565
Nb0 O7 1.971565 1_555
Nb0 O4 1.999636 1_555
Nb0 O3 2.055049 1_555
Nb0 O5 2.141468 1_555
Nb0 O0 2.193755 1_555
Nb1 O6 1.889104 1_556
Nb1 O2 1.943938 1_555
Nb1 O4 1.949399 1_555
Nb1 O3 2.069403 1_445
Nb1 O5 2.133581 1_455
Nb1 O9 2.570158 1_555
Nb2 O1 1.963733 1_555
Nb2 O9 2.018435 1_665
Nb2 O8 2.035870 1_555
Nb2 O7 2.045774 1_554
Nb2 O3 2.046806 1_555
Nb2 O0 2.120160 1_655
O0 Si0 1.914704 1_555
O1 Si0 1.873511 1_555
O5 Si0 1.812260 1_555
O6 Si0 1.903072 1_555
O8 Si0 1.742526 1_565
O9 Si0 1.810653 1_555
