# generated using pymatgen
data_NaLaZn(SO4)3
_symmetry_space_group_name_H-M   'P 1'
_cell_length_a   9.12241108
_cell_length_b   9.12241076
_cell_length_c   24.28107783
_cell_angle_alpha   90.00000000
_cell_angle_beta   90.00000000
_cell_angle_gamma   120.00000116
_symmetry_Int_Tables_number   1
_chemical_formula_structural   NaLaZn(SO4)3
_chemical_formula_sum   'Na6 La6 Zn6 S18 O72'
_cell_volume   1749.91861103
_cell_formula_units_Z   6
loop_
 _symmetry_equiv_pos_site_id
 _symmetry_equiv_pos_as_xyz
  1  'x, y, z'
loop_
 _atom_site_type_symbol
 _atom_site_label
 _atom_site_symmetry_multiplicity
 _atom_site_fract_x
 _atom_site_fract_y
 _atom_site_fract_z
 _atom_site_occupancy
  Na  Na0  1  0.00000000  -0.00000000  0.48955576  1
  Na  Na1  1  0.00000000  -0.00000000  0.98955576  1
  Na  Na2  1  0.66666700  0.33333300  0.82288876  1
  Na  Na3  1  0.66666700  0.33333300  0.32288876  1
  Na  Na4  1  0.33333300  0.66666700  0.15622276  1
  Na  Na5  1  0.33333300  0.66666700  0.65622276  1
  La  La0  1  0.00000000  -0.00000000  0.64775613  1
  La  La1  1  0.00000000  -0.00000000  0.14775613  1
  La  La2  1  0.66666700  0.33333300  0.98108913  1
  La  La3  1  0.66666700  0.33333300  0.48108913  1
  La  La4  1  0.33333300  0.66666700  0.31442313  1
  La  La5  1  0.33333300  0.66666700  0.81442313  1
  Zn  Zn0  1  0.00000000  -0.00000000  0.34663915  1
  Zn  Zn1  1  0.00000000  -0.00000000  0.84663915  1
  Zn  Zn2  1  0.66666700  0.33333300  0.67997215  1
  Zn  Zn3  1  0.66666700  0.33333300  0.17997215  1
  Zn  Zn4  1  0.33333300  0.66666700  0.01330615  1
  Zn  Zn5  1  0.33333300  0.66666700  0.51330615  1
  S  S0  1  0.30848168  0.02095621  0.25167591  1
  S  S1  1  0.71247453  0.69151832  0.25167591  1
  S  S2  1  0.97904379  0.28752547  0.25167591  1
  S  S3  1  0.30848168  0.28752547  0.75167591  1
  S  S4  1  0.97904379  0.69151832  0.75167591  1
  S  S5  1  0.71247453  0.02095621  0.75167591  1
  S  S6  1  0.97514868  0.35428921  0.58500891  1
  S  S7  1  0.37914153  0.02485132  0.58500891  1
  S  S8  1  0.64571079  0.62085847  0.58500891  1
  S  S9  1  0.97514868  0.62085847  0.08500891  1
  S  S10  1  0.64571079  0.02485132  0.08500891  1
  S  S11  1  0.37914153  0.35428921  0.08500891  1
  S  S12  1  0.64181468  0.68762321  0.91834291  1
  S  S13  1  0.04580753  0.35818532  0.91834291  1
  S  S14  1  0.31237679  0.95419247  0.91834291  1
  S  S15  1  0.64181468  0.95419247  0.41834291  1
  S  S16  1  0.31237679  0.35818532  0.41834291  1
  S  S17  1  0.04580753  0.68762321  0.41834291  1
  O  O0  1  0.21899338  0.03143183  0.30114864  1
  O  O1  1  0.81243845  0.78100662  0.30114864  1
  O  O2  1  0.96856817  0.18756155  0.30114864  1
  O  O3  1  0.21899338  0.18756155  0.80114864  1
  O  O4  1  0.96856817  0.78100662  0.80114864  1
  O  O5  1  0.81243845  0.03143183  0.80114864  1
  O  O6  1  0.78916284  0.99781643  0.70113766  1
  O  O7  1  0.20865359  0.21083716  0.70113766  1
  O  O8  1  0.00218357  0.79134641  0.70113766  1
  O  O9  1  0.78916284  0.79134641  0.20113766  1
  O  O10  1  0.00218357  0.21083716  0.20113766  1
  O  O11  1  0.20865359  0.99781643  0.20113766  1
  O  O12  1  0.88566038  0.36476483  0.63448164  1
  O  O13  1  0.47910545  0.11433962  0.63448164  1
  O  O14  1  0.63523517  0.52089455  0.63448164  1
  O  O15  1  0.88566038  0.52089455  0.13448164  1
  O  O16  1  0.63523517  0.11433962  0.13448164  1
  O  O17  1  0.47910545  0.36476483  0.13448164  1
  O  O18  1  0.45582984  0.33114943  0.03447066  1
  O  O19  1  0.87532059  0.54417016  0.03447066  1
  O  O20  1  0.66885057  0.12467941  0.03447066  1
  O  O21  1  0.45582984  0.12467941  0.53447066  1
  O  O22  1  0.66885057  0.54417016  0.53447066  1
  O  O23  1  0.87532059  0.33114943  0.53447066  1
  O  O24  1  0.55232638  0.69809883  0.96781564  1
  O  O25  1  0.14577145  0.44767362  0.96781564  1
  O  O26  1  0.30190117  0.85422855  0.96781564  1
  O  O27  1  0.55232638  0.85422855  0.46781564  1
  O  O28  1  0.30190117  0.44767362  0.46781564  1
  O  O29  1  0.14577145  0.69809883  0.46781564  1
  O  O30  1  0.12249584  0.66448343  0.36780466  1
  O  O31  1  0.54198659  0.87750416  0.36780466  1
  O  O32  1  0.33551657  0.45801341  0.36780466  1
  O  O33  1  0.12249584  0.45801341  0.86780466  1
  O  O34  1  0.33551657  0.87750416  0.86780466  1
  O  O35  1  0.54198659  0.66448343  0.86780466  1
  O  O36  1  0.03177013  0.84271140  0.41325186  1
  O  O37  1  0.81094128  0.96822987  0.41325186  1
  O  O38  1  0.15728860  0.18905872  0.41325186  1
  O  O39  1  0.03177013  0.18905872  0.91325186  1
  O  O40  1  0.15728860  0.96822987  0.91325186  1
  O  O41  1  0.81094128  0.84271140  0.91325186  1
  O  O42  1  0.99728839  0.20288648  0.58813558  1
  O  O43  1  0.20559809  0.00271161  0.58813558  1
  O  O44  1  0.79711352  0.79440191  0.58813558  1
  O  O45  1  0.99728839  0.79440191  0.08813558  1
  O  O46  1  0.79711352  0.00271161  0.08813558  1
  O  O47  1  0.20559809  0.20288648  0.08813558  1
  O  O48  1  0.69843713  0.17604440  0.74658486  1
  O  O49  1  0.47760828  0.30156287  0.74658486  1
  O  O50  1  0.82395560  0.52239172  0.74658486  1
  O  O51  1  0.69843713  0.52239172  0.24658486  1
  O  O52  1  0.82395560  0.30156287  0.24658486  1
  O  O53  1  0.47760828  0.17604440  0.24658486  1
  O  O54  1  0.66395539  0.53621948  0.92146858  1
  O  O55  1  0.87226509  0.33604461  0.92146858  1
  O  O56  1  0.46378052  0.12773491  0.92146858  1
  O  O57  1  0.66395539  0.12773491  0.42146858  1
  O  O58  1  0.46378052  0.33604461  0.42146858  1
  O  O59  1  0.87226509  0.53621948  0.42146858  1
  O  O60  1  0.36510313  0.50937840  0.07991886  1
  O  O61  1  0.14427428  0.63489687  0.07991886  1
  O  O62  1  0.49062160  0.85572572  0.07991886  1
  O  O63  1  0.36510313  0.85572572  0.57991886  1
  O  O64  1  0.49062160  0.63489687  0.57991886  1
  O  O65  1  0.14427428  0.50937840  0.57991886  1
  O  O66  1  0.33062139  0.86955348  0.25480258  1
  O  O67  1  0.53893109  0.66937861  0.25480258  1
  O  O68  1  0.13044652  0.46106891  0.25480258  1
  O  O69  1  0.33062139  0.46106891  0.75480258  1
  O  O70  1  0.13044652  0.66937861  0.75480258  1
  O  O71  1  0.53893109  0.86955348  0.75480258  1
loop_
_geom_bond_atom_site_label_1
_geom_bond_atom_site_label_2
_geom_bond_distance
_geom_bond_site_symmetry_2
Na0 O38 2.447711 1_555
Na0 O37 2.447711 1_445
Na0 O36 2.447712 1_545
Na1 O39 2.447711 1_555
Na1 O41 2.447711 1_445
Na1 O40 2.447712 1_545
Na2 O50 2.447711 1_555
Na2 O49 2.447711 1_555
Na2 O48 2.447712 1_555
Na3 O51 2.447711 1_555
Na3 O53 2.447711 1_555
Na3 O52 2.447712 1_555
Na4 O62 2.447711 1_555
Na4 O61 2.447711 1_555
Na4 O60 2.447712 1_555
Na5 O63 2.447711 1_555
Na5 O65 2.447711 1_555
Na5 O64 2.447712 1_555
La0 O7 2.311140 1_555
La0 O8 2.311140 1_545
La0 O6 2.311140 1_445
La0 O44 2.359576 1_445
La0 O42 2.359576 1_455
La0 O43 2.359576 1_555
La1 O10 2.311140 1_555
La1 O9 2.311140 1_445
La1 O11 2.311140 1_545
La1 O45 2.359576 1_445
La1 O47 2.359576 1_555
La1 O46 2.359576 1_455
La2 O19 2.311140 1_556
La2 O20 2.311140 1_556
La2 O18 2.311140 1_556
La2 O56 2.359576 1_555
La2 O54 2.359576 1_555
La2 O55 2.359576 1_555
La3 O22 2.311140 1_555
La3 O21 2.311140 1_555
La3 O23 2.311140 1_555
La3 O57 2.359576 1_555
La3 O59 2.359576 1_555
La3 O58 2.359576 1_555
La4 O31 2.311140 1_555
La4 O32 2.311140 1_555
La4 O30 2.311140 1_555
La4 O68 2.359576 1_555
La4 O66 2.359576 1_555
La4 O67 2.359576 1_555
La5 O34 2.311140 1_555
La5 O33 2.311140 1_555
La5 O35 2.311140 1_555
La5 O69 2.359576 1_555
La5 O71 2.359576 1_555
La5 O70 2.359576 1_555
O0 S0 1.482085 1_555
O0 Zn0 2.172657 1_555
O1 S1 1.482085 1_555
O1 Zn0 2.172657 1_665
O2 S2 1.482085 1_555
O2 Zn0 2.172657 1_655
O3 S3 1.482085 1_555
O3 Zn1 2.172657 1_555
O4 S4 1.482085 1_555
O4 Zn1 2.172657 1_665
O5 S5 1.482085 1_555
O5 Zn1 2.172657 1_655
O6 S5 1.479014 1_565
O7 S3 1.479014 1_555
O8 S4 1.479014 1_455
O9 S1 1.479014 1_555
O10 S2 1.479014 1_455
O11 S0 1.479014 1_565
O12 S6 1.482085 1_555
O12 Zn2 2.172657 1_555
O13 S7 1.482085 1_555
O13 Zn2 2.172657 1_555
O14 S8 1.482085 1_555
O14 Zn2 2.172657 1_555
O15 S9 1.482085 1_555
O15 Zn3 2.172657 1_555
O16 S10 1.482085 1_555
O16 Zn3 2.172657 1_555
O17 S11 1.482085 1_555
O17 Zn3 2.172657 1_555
O18 S11 1.479014 1_555
O19 S9 1.479014 1_555
O20 S10 1.479014 1_555
O21 S7 1.479014 1_555
O22 S8 1.479014 1_555
O23 S6 1.479014 1_555
O24 S12 1.482085 1_555
O24 Zn4 2.172657 1_556
O25 S13 1.482085 1_555
O25 Zn4 2.172657 1_556
O26 S14 1.482085 1_555
O26 Zn4 2.172657 1_556
O27 S15 1.482085 1_555
O27 Zn5 2.172657 1_555
O28 S16 1.482085 1_555
O28 Zn5 2.172657 1_555
O29 S17 1.482085 1_555
O29 Zn5 2.172657 1_555
O30 S17 1.479014 1_555
O31 S15 1.479014 1_555
O32 S16 1.479014 1_555
O33 S13 1.479014 1_555
O34 S14 1.479014 1_555
O35 S12 1.479014 1_555
O36 S17 1.488101 1_555
O36 Zn0 2.274800 1_565
O37 S15 1.488111 1_555
O37 Zn0 2.274800 1_665
O38 S16 1.488107 1_555
O38 Zn0 2.274800 1_555
O39 S13 1.488111 1_555
O39 Zn1 2.274800 1_555
O40 S14 1.488101 1_555
O40 Zn1 2.274801 1_565
O41 S12 1.488107 1_555
O41 Zn1 2.274800 1_665
O42 S6 1.494356 1_555
O43 S7 1.494365 1_555
O44 S8 1.494362 1_555
O45 S9 1.494365 1_555
O46 S10 1.494356 1_555
O47 S11 1.494362 1_555
O48 S5 1.488101 1_555
O48 Zn2 2.274800 1_555
O49 S3 1.488111 1_555
O49 Zn2 2.274800 1_555
O50 S4 1.488107 1_555
O50 Zn2 2.274800 1_555
O51 S1 1.488111 1_555
O51 Zn3 2.274800 1_555
O52 S2 1.488101 1_555
O52 Zn3 2.274801 1_555
O53 S0 1.488107 1_555
O53 Zn3 2.274800 1_555
O54 S12 1.494370 1_555
O55 S13 1.494352 1_655
O56 S14 1.494359 1_545
O57 S15 1.494351 1_545
O58 S16 1.494370 1_555
O59 S17 1.494359 1_655
O60 S11 1.488114 1_555
O60 Zn4 2.274800 1_555
O61 S9 1.488096 1_455
O61 Zn4 2.274800 1_555
O62 S10 1.488103 1_565
O62 Zn4 2.274800 1_555
O63 S7 1.488095 1_565
O63 Zn5 2.274800 1_555
O64 S8 1.488114 1_555
O64 Zn5 2.274801 1_555
O65 S6 1.488103 1_455
O65 Zn5 2.274800 1_555
O66 S0 1.494356 1_565
O67 S1 1.494365 1_555
O68 S2 1.494362 1_455
O69 S3 1.494365 1_555
O70 S4 1.494356 1_455
O71 S5 1.494362 1_565
