# generated using pymatgen
data_Ba2PrMgCu3O7
_symmetry_space_group_name_H-M   'P 1'
_cell_length_a   4.01515553
_cell_length_b   3.75372337
_cell_length_c   14.12549109
_cell_angle_alpha   90.00000000
_cell_angle_beta   90.00000000
_cell_angle_gamma   90.00000000
_symmetry_Int_Tables_number   1
_chemical_formula_structural   Ba2PrMgCu3O7
_chemical_formula_sum   'Ba2 Pr1 Mg1 Cu3 O7'
_cell_volume   212.89633856
_cell_formula_units_Z   1
loop_
 _symmetry_equiv_pos_site_id
 _symmetry_equiv_pos_as_xyz
  1  'x, y, z'
loop_
 _atom_site_type_symbol
 _atom_site_label
 _atom_site_symmetry_multiplicity
 _atom_site_fract_x
 _atom_site_fract_y
 _atom_site_fract_z
 _atom_site_occupancy
  Ba  Ba0  1  0.50000000  0.50000000  0.79205522  1
  Ba  Ba1  1  0.50000000  0.50000000  0.25825028  1
  Pr  Pr0  1  0.50000000  0.50000000  0.51965059  1
  Mg  Mg0  1  0.00000000  0.50000000  0.07082727  1
  Cu  Cu0  1  0.00000000  0.00000000  0.64502359  1
  Cu  Cu1  1  0.00000000  0.00000000  0.39646491  1
  Cu  Cu2  1  0.00000000  0.00000000  0.93805637  1
  O  O0  1  0.50000000  0.00000000  0.97131553  1
  O  O1  1  0.00000000  0.50000000  0.61291766  1
  O  O2  1  0.00000000  0.50000000  0.38863077  1
  O  O3  1  0.50000000  0.00000000  0.62880428  1
  O  O4  1  0.50000000  0.00000000  0.39729482  1
  O  O5  1  0.00000000  0.00000000  0.80154076  1
  O  O6  1  0.00000000  0.00000000  0.15138995  1
loop_
_geom_bond_atom_site_label_1
_geom_bond_atom_site_label_2
_geom_bond_distance
_geom_bond_site_symmetry_2
Ba0 O5 2.751532 1_555
Ba0 O5 2.751532 1_655
Ba0 O5 2.751532 1_565
Ba0 O5 2.751532 1_665
Ba0 O3 2.973255 1_555
Ba0 O3 2.973255 1_565
Ba0 O0 3.151879 1_565
Ba0 O0 3.151879 1_555
Ba0 O1 3.230065 1_555
Ba0 O1 3.230065 1_655
Ba1 O4 2.716651 1_555
Ba1 O4 2.716651 1_565
Ba1 O2 2.724369 1_555
Ba1 O2 2.724369 1_655
Ba1 O6 3.135511 1_555
Ba1 O6 3.135511 1_565
Ba1 O6 3.135511 1_655
Ba1 O6 3.135511 1_665
Mg0 O6 2.194909 1_555
Mg0 O6 2.194909 1_565
Cu0 O1 1.930876 1_555
Cu0 O1 1.930876 1_545
Cu0 O3 2.020608 1_555
Cu0 O3 2.020608 1_455
Cu0 O5 2.210882 1_555
Cu1 O2 1.880121 1_545
Cu1 O2 1.880121 1_555
Cu1 O4 2.007612 1_455
Cu1 O4 2.007612 1_555
Cu2 O5 1.928350 1_555
Cu2 O0 2.061815 1_555
Cu2 O0 2.061815 1_455
O1 Pr0 2.401255 1_455
O1 Pr0 2.401255 1_555
O2 Pr0 2.730482 1_455
O2 Pr0 2.730482 1_555
O3 Pr0 2.428973 1_545
O3 Pr0 2.428973 1_555
O4 Pr0 2.551422 1_545
O4 Pr0 2.551422 1_555
