# generated using pymatgen
data_MgMo2(WS4)2
_symmetry_space_group_name_H-M   'P 1'
_cell_length_a   6.38175000
_cell_length_b   6.38172748
_cell_length_c   72.86284257
_cell_angle_alpha   90.01354628
_cell_angle_beta   89.99751168
_cell_angle_gamma   119.99960633
_symmetry_Int_Tables_number   1
_chemical_formula_structural   MgMo2(WS4)2
_chemical_formula_sum   'Mg8 Mo16 W16 S64'
_cell_volume   2569.90158763
_cell_formula_units_Z   8
loop_
 _symmetry_equiv_pos_site_id
 _symmetry_equiv_pos_as_xyz
  1  'x, y, z'
loop_
 _atom_site_type_symbol
 _atom_site_label
 _atom_site_symmetry_multiplicity
 _atom_site_fract_x
 _atom_site_fract_y
 _atom_site_fract_z
 _atom_site_occupancy
  Mg  Mg0_0  1  0.35376100  0.19236800  0.43765200  1
  Mg  Mg0_1  1  0.35376100  0.19236800  0.93765200  1
  Mg  Mg0_2  1  0.35376100  0.69236800  0.43765200  1
  Mg  Mg0_3  1  0.35376100  0.69236800  0.93765200  1
  Mg  Mg0_4  1  0.85376100  0.19236800  0.43765200  1
  Mg  Mg0_5  1  0.85376100  0.19236800  0.93765200  1
  Mg  Mg0_6  1  0.85376100  0.69236800  0.43765200  1
  Mg  Mg0_7  1  0.85376100  0.69236800  0.93765200  1
  Mo  Mo0_0  1  0.16665450  0.33330150  0.04653600  1
  Mo  Mo0_1  1  0.16665450  0.33330150  0.54653600  1
  Mo  Mo0_2  1  0.16665450  0.83330150  0.04653600  1
  Mo  Mo0_3  1  0.16665450  0.83330150  0.54653600  1
  Mo  Mo0_4  1  0.66665450  0.33330150  0.04653600  1
  Mo  Mo0_5  1  0.66665450  0.33330150  0.54653600  1
  Mo  Mo0_6  1  0.66665450  0.83330150  0.04653600  1
  Mo  Mo0_7  1  0.66665450  0.83330150  0.54653600  1
  Mo  Mo1_0  1  0.33337250  0.16677250  0.32923150  1
  Mo  Mo1_1  1  0.33337250  0.16677250  0.82923150  1
  Mo  Mo1_2  1  0.33337250  0.66677250  0.32923150  1
  Mo  Mo1_3  1  0.33337250  0.66677250  0.82923150  1
  Mo  Mo1_4  1  0.83337250  0.16677250  0.32923150  1
  Mo  Mo1_5  1  0.83337250  0.16677250  0.82923150  1
  Mo  Mo1_6  1  0.83337250  0.66677250  0.32923150  1
  Mo  Mo1_7  1  0.83337250  0.66677250  0.82923150  1
  W  W0_0  1  0.16663500  0.33328700  0.23478200  1
  W  W0_1  1  0.16663500  0.33328700  0.73478200  1
  W  W0_2  1  0.16663500  0.83328700  0.23478200  1
  W  W0_3  1  0.16663500  0.83328700  0.73478200  1
  W  W0_4  1  0.66663500  0.33328700  0.23478200  1
  W  W0_5  1  0.66663500  0.33328700  0.73478200  1
  W  W0_6  1  0.66663500  0.83328700  0.23478200  1
  W  W0_7  1  0.66663500  0.83328700  0.73478200  1
  W  W1_0  1  0.33331350  0.16662200  0.14082500  1
  W  W1_1  1  0.33331350  0.16662200  0.64082500  1
  W  W1_2  1  0.33331350  0.66662200  0.14082500  1
  W  W1_3  1  0.33331350  0.66662200  0.64082500  1
  W  W1_4  1  0.83331350  0.16662200  0.14082500  1
  W  W1_5  1  0.83331350  0.16662200  0.64082500  1
  W  W1_6  1  0.83331350  0.66662200  0.14082500  1
  W  W1_7  1  0.83331350  0.66662200  0.64082500  1
  S  S0_0  1  0.16666600  0.33334600  0.16240750  1
  S  S0_1  1  0.16666600  0.33334600  0.66240750  1
  S  S0_2  1  0.16666600  0.83334600  0.16240750  1
  S  S0_3  1  0.16666600  0.83334600  0.66240750  1
  S  S0_4  1  0.66666600  0.33334600  0.16240750  1
  S  S0_5  1  0.66666600  0.33334600  0.66240750  1
  S  S0_6  1  0.66666600  0.83334600  0.16240750  1
  S  S0_7  1  0.66666600  0.83334600  0.66240750  1
  S  S1_0  1  0.16673300  0.33351800  0.35071200  1
  S  S1_1  1  0.16673300  0.33351800  0.85071200  1
  S  S1_2  1  0.16673300  0.83351800  0.35071200  1
  S  S1_3  1  0.16673300  0.83351800  0.85071200  1
  S  S1_4  1  0.66673300  0.33351800  0.35071200  1
  S  S1_5  1  0.66673300  0.33351800  0.85071200  1
  S  S1_6  1  0.66673300  0.83351800  0.35071200  1
  S  S1_7  1  0.66673300  0.83351800  0.85071200  1
  S  S2_0  1  0.33329950  0.16657400  0.02509650  1
  S  S2_1  1  0.33329950  0.16657400  0.52509650  1
  S  S2_2  1  0.33329950  0.66657400  0.02509650  1
  S  S2_3  1  0.33329950  0.66657400  0.52509650  1
  S  S2_4  1  0.83329950  0.16657400  0.02509650  1
  S  S2_5  1  0.83329950  0.16657400  0.52509650  1
  S  S2_6  1  0.83329950  0.66657400  0.02509650  1
  S  S2_7  1  0.83329950  0.66657400  0.52509650  1
  S  S3_0  1  0.33327150  0.16654000  0.21319500  1
  S  S3_1  1  0.33327150  0.16654000  0.71319500  1
  S  S3_2  1  0.33327150  0.66654000  0.21319500  1
  S  S3_3  1  0.33327150  0.66654000  0.71319500  1
  S  S3_4  1  0.83327150  0.16654000  0.21319500  1
  S  S3_5  1  0.83327150  0.16654000  0.71319500  1
  S  S3_6  1  0.83327150  0.66654000  0.21319500  1
  S  S3_7  1  0.83327150  0.66654000  0.71319500  1
  S  S4_0  1  0.33334350  0.16669750  0.06799150  1
  S  S4_1  1  0.33334350  0.16669750  0.56799150  1
  S  S4_2  1  0.33334350  0.66669750  0.06799150  1
  S  S4_3  1  0.33334350  0.66669750  0.56799150  1
  S  S4_4  1  0.83334350  0.16669750  0.06799150  1
  S  S4_5  1  0.83334350  0.16669750  0.56799150  1
  S  S4_6  1  0.83334350  0.66669750  0.06799150  1
  S  S4_7  1  0.83334350  0.66669750  0.56799150  1
  S  S5_0  1  0.33332600  0.16669550  0.25636100  1
  S  S5_1  1  0.33332600  0.16669550  0.75636100  1
  S  S5_2  1  0.33332600  0.66669550  0.25636100  1
  S  S5_3  1  0.33332600  0.66669550  0.75636100  1
  S  S5_4  1  0.83332600  0.16669550  0.25636100  1
  S  S5_5  1  0.83332600  0.16669550  0.75636100  1
  S  S5_6  1  0.83332600  0.66669550  0.25636100  1
  S  S5_7  1  0.83332600  0.66669550  0.75636100  1
  S  S6_0  1  0.16662550  0.33323000  0.11924450  1
  S  S6_1  1  0.16662550  0.33323000  0.61924450  1
  S  S6_2  1  0.16662550  0.83323000  0.11924450  1
  S  S6_3  1  0.16662550  0.83323000  0.61924450  1
  S  S6_4  1  0.66662550  0.33323000  0.11924450  1
  S  S6_5  1  0.66662550  0.33323000  0.61924450  1
  S  S6_6  1  0.66662550  0.83323000  0.11924450  1
  S  S6_7  1  0.66662550  0.83323000  0.61924450  1
  S  S7_0  1  0.16667700  0.33335800  0.30773100  1
  S  S7_1  1  0.16667700  0.33335800  0.80773100  1
  S  S7_2  1  0.16667700  0.83335800  0.30773100  1
  S  S7_3  1  0.16667700  0.83335800  0.80773100  1
  S  S7_4  1  0.66667700  0.33335800  0.30773100  1
  S  S7_5  1  0.66667700  0.33335800  0.80773100  1
  S  S7_6  1  0.66667700  0.83335800  0.30773100  1
  S  S7_7  1  0.66667700  0.83335800  0.80773100  1
loop_
_geom_bond_atom_site_label_1
_geom_bond_atom_site_label_2
_geom_bond_distance
_geom_bond_site_symmetry_2
Mg0_0 Mg0_2 3.190864 1_545
Mg0_0 Mg0_2 3.190864 1_555
Mg0_0 Mg0_4 3.190875 1_455
Mg0_0 Mg0_4 3.190875 1_555
Mg0_0 Mg0_6 3.190888 1_445
Mg0_0 Mg0_6 3.190888 1_555
Mg0_1 Mg0_3 3.190864 1_545
Mg0_1 Mg0_3 3.190864 1_555
Mg0_1 Mg0_5 3.190875 1_555
Mg0_1 Mg0_5 3.190875 1_455
Mg0_1 Mg0_7 3.190888 1_445
Mg0_1 Mg0_7 3.190888 1_555
Mg0_2 Mg0_6 3.190875 1_455
Mg0_2 Mg0_6 3.190875 1_555
Mg0_2 Mg0_4 3.190888 1_455
Mg0_2 Mg0_4 3.190888 1_565
Mg0_3 Mg0_7 3.190875 1_455
Mg0_3 Mg0_7 3.190875 1_555
Mg0_3 Mg0_5 3.190888 1_565
Mg0_3 Mg0_5 3.190888 1_455
Mg0_4 Mg0_6 3.190864 1_545
Mg0_4 Mg0_6 3.190864 1_555
Mg0_5 Mg0_7 3.190864 1_555
Mg0_5 Mg0_7 3.190864 1_545
Mo0_0 S2_0 2.415373 1_555
Mo0_0 S2_4 2.415400 1_455
Mo0_0 S2_2 2.415445 1_555
Mo0_0 S4_2 2.416129 1_555
Mo0_0 S4_4 2.416174 1_455
Mo0_0 S4_0 2.416177 1_555
Mo0_1 S2_1 2.415373 1_555
Mo0_1 S2_5 2.415400 1_455
Mo0_1 S2_3 2.415445 1_555
Mo0_1 S4_3 2.416129 1_555
Mo0_1 S4_5 2.416174 1_455
Mo0_1 S4_1 2.416177 1_555
Mo0_2 S2_2 2.415373 1_555
Mo0_2 S2_6 2.415400 1_455
Mo0_2 S2_0 2.415445 1_565
Mo0_2 S4_0 2.416129 1_565
Mo0_2 S4_6 2.416174 1_455
Mo0_2 S4_2 2.416177 1_555
Mo0_3 S2_3 2.415373 1_555
Mo0_3 S2_7 2.415400 1_455
Mo0_3 S2_1 2.415445 1_565
Mo0_3 S4_1 2.416129 1_565
Mo0_3 S4_7 2.416174 1_455
Mo0_3 S4_3 2.416177 1_555
Mo0_4 S2_4 2.415373 1_555
Mo0_4 S2_0 2.415400 1_555
Mo0_4 S2_6 2.415445 1_555
Mo0_4 S4_6 2.416129 1_555
Mo0_4 S4_0 2.416174 1_555
Mo0_4 S4_4 2.416177 1_555
Mo0_5 S2_5 2.415373 1_555
Mo0_5 S2_1 2.415400 1_555
Mo0_5 S2_7 2.415445 1_555
Mo0_5 S4_7 2.416129 1_555
Mo0_5 S4_1 2.416174 1_555
Mo0_5 S4_5 2.416177 1_555
Mo0_6 S2_6 2.415373 1_555
Mo0_6 S2_2 2.415400 1_555
Mo0_6 S2_4 2.415445 1_565
Mo0_6 S4_4 2.416129 1_565
Mo0_6 S4_2 2.416174 1_555
Mo0_6 S4_6 2.416177 1_555
Mo0_7 S2_7 2.415373 1_555
Mo0_7 S2_3 2.415400 1_555
Mo0_7 S2_5 2.415445 1_565
Mo0_7 S4_5 2.416129 1_565
Mo0_7 S4_3 2.416174 1_555
Mo0_7 S4_7 2.416177 1_555
Mo1_0 S1_2 2.417303 1_545
Mo1_0 S1_4 2.417356 1_555
Mo1_0 S1_0 2.417358 1_555
Mo1_0 S7_0 2.418250 1_555
Mo1_0 S7_4 2.418270 1_555
Mo1_0 S7_2 2.418329 1_545
Mo1_1 S1_3 2.417303 1_545
Mo1_1 S1_5 2.417356 1_555
Mo1_1 S1_1 2.417358 1_555
Mo1_1 S7_1 2.418250 1_555
Mo1_1 S7_5 2.418270 1_555
Mo1_1 S7_3 2.418329 1_545
Mo1_2 S1_0 2.417303 1_555
Mo1_2 S1_6 2.417356 1_555
Mo1_2 S1_2 2.417358 1_555
Mo1_2 S7_2 2.418250 1_555
Mo1_2 S7_6 2.418270 1_555
Mo1_2 S7_0 2.418329 1_555
Mo1_3 S1_1 2.417303 1_555
Mo1_3 S1_7 2.417356 1_555
Mo1_3 S1_3 2.417358 1_555
Mo1_3 S7_3 2.418250 1_555
Mo1_3 S7_7 2.418270 1_555
Mo1_3 S7_1 2.418329 1_555
Mo1_4 S1_6 2.417303 1_545
Mo1_4 S1_0 2.417356 1_655
Mo1_4 S1_4 2.417358 1_555
Mo1_4 S7_4 2.418250 1_555
Mo1_4 S7_0 2.418270 1_655
Mo1_4 S7_6 2.418329 1_545
Mo1_5 S1_7 2.417303 1_545
Mo1_5 S1_1 2.417356 1_655
Mo1_5 S1_5 2.417358 1_555
Mo1_5 S7_5 2.418250 1_555
Mo1_5 S7_1 2.418270 1_655
Mo1_5 S7_7 2.418329 1_545
Mo1_6 S1_4 2.417303 1_555
Mo1_6 S1_2 2.417356 1_655
Mo1_6 S1_6 2.417358 1_555
Mo1_6 S7_6 2.418250 1_555
Mo1_6 S7_2 2.418270 1_655
Mo1_6 S7_4 2.418329 1_555
Mo1_7 S1_5 2.417303 1_555
Mo1_7 S1_3 2.417356 1_655
Mo1_7 S1_7 2.417358 1_555
Mo1_7 S7_7 2.418250 1_555
Mo1_7 S7_3 2.418270 1_655
Mo1_7 S7_5 2.418329 1_555
S0_0 W1_0 2.422119 1_555
S0_0 W1_4 2.422140 1_455
S0_0 W1_2 2.422214 1_555
S0_1 W1_1 2.422119 1_555
S0_1 W1_5 2.422140 1_455
S0_1 W1_3 2.422214 1_555
S0_2 W1_2 2.422119 1_555
S0_2 W1_6 2.422140 1_455
S0_2 W1_0 2.422214 1_565
S0_3 W1_3 2.422119 1_555
S0_3 W1_7 2.422140 1_455
S0_3 W1_1 2.422214 1_565
S0_4 W1_4 2.422119 1_555
S0_4 W1_0 2.422140 1_555
S0_4 W1_6 2.422214 1_555
S0_5 W1_5 2.422119 1_555
S0_5 W1_1 2.422140 1_555
S0_5 W1_7 2.422214 1_555
S0_6 W1_6 2.422119 1_555
S0_6 W1_2 2.422140 1_555
S0_6 W1_4 2.422214 1_565
S0_7 W1_7 2.422119 1_555
S0_7 W1_3 2.422140 1_555
S0_7 W1_5 2.422214 1_565
S3_0 W0_2 2.422330 1_545
S3_0 W0_0 2.422383 1_555
S3_0 W0_4 2.422399 1_555
S3_1 W0_3 2.422330 1_545
S3_1 W0_1 2.422383 1_555
S3_1 W0_5 2.422399 1_555
S3_2 W0_0 2.422330 1_555
S3_2 W0_2 2.422383 1_555
S3_2 W0_6 2.422399 1_555
S3_3 W0_1 2.422330 1_555
S3_3 W0_3 2.422383 1_555
S3_3 W0_7 2.422399 1_555
S3_4 W0_6 2.422330 1_545
S3_4 W0_4 2.422383 1_555
S3_4 W0_0 2.422399 1_655
S3_5 W0_7 2.422330 1_545
S3_5 W0_5 2.422383 1_555
S3_5 W0_1 2.422399 1_655
S3_6 W0_4 2.422330 1_555
S3_6 W0_6 2.422383 1_555
S3_6 W0_2 2.422399 1_655
S3_7 W0_5 2.422330 1_555
S3_7 W0_7 2.422383 1_555
S3_7 W0_3 2.422399 1_655
S5_0 W0_0 2.421966 1_555
S5_0 W0_4 2.421998 1_555
S5_0 W0_2 2.422012 1_545
S5_1 W0_1 2.421966 1_555
S5_1 W0_5 2.421998 1_555
S5_1 W0_3 2.422012 1_545
S5_2 W0_2 2.421966 1_555
S5_2 W0_6 2.421998 1_555
S5_2 W0_0 2.422012 1_555
S5_3 W0_3 2.421966 1_555
S5_3 W0_7 2.421998 1_555
S5_3 W0_1 2.422012 1_555
S5_4 W0_4 2.421966 1_555
S5_4 W0_0 2.421998 1_655
S5_4 W0_6 2.422012 1_545
S5_5 W0_5 2.421966 1_555
S5_5 W0_1 2.421998 1_655
S5_5 W0_7 2.422012 1_545
S5_6 W0_6 2.421966 1_555
S5_6 W0_2 2.421998 1_655
S5_6 W0_4 2.422012 1_555
S5_7 W0_7 2.421966 1_555
S5_7 W0_3 2.421998 1_655
S5_7 W0_5 2.422012 1_555
S6_0 W1_2 2.422013 1_555
S6_0 W1_4 2.422082 1_455
S6_0 W1_0 2.422094 1_555
S6_1 W1_3 2.422013 1_555
S6_1 W1_5 2.422082 1_455
S6_1 W1_1 2.422094 1_555
S6_2 W1_0 2.422013 1_565
S6_2 W1_6 2.422082 1_455
S6_2 W1_2 2.422094 1_555
S6_3 W1_1 2.422013 1_565
S6_3 W1_7 2.422082 1_455
S6_3 W1_3 2.422094 1_555
S6_4 W1_6 2.422013 1_555
S6_4 W1_0 2.422082 1_555
S6_4 W1_4 2.422094 1_555
S6_5 W1_7 2.422013 1_555
S6_5 W1_1 2.422082 1_555
S6_5 W1_5 2.422094 1_555
S6_6 W1_4 2.422013 1_565
S6_6 W1_2 2.422082 1_555
S6_6 W1_6 2.422094 1_555
S6_7 W1_5 2.422013 1_565
S6_7 W1_3 2.422082 1_555
S6_7 W1_7 2.422094 1_555
