# generated using pymatgen
data_Na2Zn5Ge3(SO4)12
_symmetry_space_group_name_H-M   'P 1'
_cell_length_a   17.07820363
_cell_length_b   8.54927265
_cell_length_c   22.24784756
_cell_angle_alpha   90.11557880
_cell_angle_beta   89.89237732
_cell_angle_gamma   120.04180008
_symmetry_Int_Tables_number   1
_chemical_formula_structural   Na2Zn5Ge3(SO4)12
_chemical_formula_sum   'Na6 Zn15 Ge9 S36 O144'
_cell_volume   2811.93840624
_cell_formula_units_Z   3
loop_
 _symmetry_equiv_pos_site_id
 _symmetry_equiv_pos_as_xyz
  1  'x, y, z'
loop_
 _atom_site_type_symbol
 _atom_site_label
 _atom_site_symmetry_multiplicity
 _atom_site_fract_x
 _atom_site_fract_y
 _atom_site_fract_z
 _atom_site_occupancy
  Na  Na0  1  0.00018847  0.00014023  0.50135485  1
  Na  Na1  1  0.50222520  0.00350877  0.99916241  1
  Na  Na2  1  0.33453570  0.33473949  0.83071130  1
  Na  Na3  1  0.83217678  0.33164422  0.83162272  1
  Na  Na4  1  0.33228133  0.33352097  0.33739826  1
  Na  Na5  1  0.83449994  0.33326678  0.33369494  1
  Zn  Zn0  1  0.00086304  0.00161203  0.35418186  1
  Zn  Zn1  1  0.50082063  0.00075287  0.85171679  1
  Zn  Zn2  1  0.00001762  0.99961169  0.64751141  1
  Zn  Zn3  1  0.50359818  0.00438810  0.14818520  1
  Zn  Zn4  1  0.33140569  0.33075663  0.68202919  1
  Zn  Zn5  1  0.83525520  0.33639301  0.68270252  1
  Zn  Zn6  1  0.83105979  0.33167062  0.18233875  1
  Zn  Zn7  1  0.33130768  0.33153687  0.98139811  1
  Zn  Zn8  1  0.83520887  0.33436981  0.98443873  1
  Zn  Zn9  1  0.33560061  0.33736618  0.48639650  1
  Zn  Zn10  1  0.83145118  0.33031402  0.48549286  1
  Zn  Zn11  1  0.16335267  0.66082410  0.31163558  1
  Zn  Zn12  1  0.67016505  0.66983823  0.31199813  1
  Zn  Zn13  1  0.16979655  0.67116538  0.80945001  1
  Zn  Zn14  1  0.66329147  0.66234065  0.80868483  1
  Ge  Ge0  1  0.50063572  0.99808695  0.35402912  1
  Ge  Ge1  1  0.99869366  0.99876335  0.84898264  1
  Ge  Ge2  1  0.50014199  0.99973826  0.65008996  1
  Ge  Ge3  1  0.99603596  0.99795409  0.14975177  1
  Ge  Ge4  1  0.33456868  0.33373310  0.18276775  1
  Ge  Ge5  1  0.16258269  0.66679289  0.01564558  1
  Ge  Ge6  1  0.67103235  0.66744047  0.01626583  1
  Ge  Ge7  1  0.16613089  0.66493232  0.52010529  1
  Ge  Ge8  1  0.66662333  0.66748669  0.52043895  1
  S  S0  1  0.14749112  0.00529470  0.24657333  1
  S  S1  1  0.64422992  -0.00013071  0.25161459  1
  S  S2  1  0.35488122  0.70620294  0.24890089  1
  S  S3  1  0.85575412  0.70878627  0.24980502  1
  S  S4  1  0.99888398  0.28768303  0.24923373  1
  S  S5  1  0.49787084  0.28990093  0.24957684  1
  S  S6  1  0.14481031  0.28827853  0.75122009  1
  S  S7  1  0.64567301  0.28808239  0.74917455  1
  S  S8  1  0.99963246  0.71015035  0.75102806  1
  S  S9  1  0.49828767  0.70916901  0.74926187  1
  S  S10  1  0.35619993  0.00285705  0.74936933  1
  S  S11  1  0.85508890  0.00086821  0.75089360  1
  S  S12  1  0.48389780  0.33205868  0.58294887  1
  S  S13  1  0.98368207  0.33809977  0.58118246  1
  S  S14  1  0.18579043  0.03273727  0.58018276  1
  S  S15  1  0.68174319  0.03155974  0.58368649  1
  S  S16  1  0.33404845  0.63603565  0.58359452  1
  S  S17  1  0.83064177  0.62901464  0.58045397  1
  S  S18  1  0.48127037  0.62360030  0.08209690  1
  S  S19  1  0.98449265  0.63622302  0.08320090  1
  S  S20  1  0.33034507  0.03637570  0.08168283  1
  S  S21  1  0.83308074  0.03171260  0.08339479  1
  S  S22  1  0.18431149  0.33292466  0.08456881  1
  S  S23  1  0.68568377  0.33945349  0.08018184  1
  S  S24  1  0.31024430  0.66699444  0.91829100  1
  S  S25  1  0.81541613  0.67199746  0.91441178  1
  S  S26  1  0.02137832  0.37075764  0.91536075  1
  S  S27  1  0.52236625  0.37828117  0.91744330  1
  S  S28  1  0.16334356  0.95661500  0.91487026  1
  S  S29  1  0.66726220  0.95500664  0.91815331  1
  S  S30  1  0.31424887  0.95726765  0.41414267  1
  S  S31  1  0.81051657  0.95586008  0.41814038  1
  S  S32  1  0.16802420  0.37886379  0.41774617  1
  S  S33  1  0.66399856  0.37210787  0.41480986  1
  S  S34  1  0.02198505  0.66599413  0.41716164  1
  S  S35  1  0.52138841  0.66975196  0.41539268  1
  O  O0  1  0.11330074  0.04815662  0.30038447  1
  O  O1  1  0.60151793  0.03933918  0.30823612  1
  O  O2  1  0.41377149  0.78166445  0.30484786  1
  O  O3  1  0.91311888  0.79103303  0.30250717  1
  O  O4  1  0.47662521  0.17099049  0.30501262  1
  O  O5  1  0.98360411  0.17563872  0.30244116  1
  O  O6  1  0.10377932  0.16827925  0.80899539  1
  O  O7  1  0.60667104  0.17738866  0.80321697  1
  O  O8  1  0.48208934  0.78728203  0.80348148  1
  O  O9  1  0.98060005  0.79160155  0.80895337  1
  O  O10  1  0.41134754  0.03497634  0.80346226  1
  O  O11  1  0.91526645  0.04002231  0.80871580  1
  O  O12  1  0.39869899  0.97108334  0.69291080  1
  O  O13  1  0.89684152  0.97420858  0.69801735  1
  O  O14  1  0.09035972  0.20572037  0.69812870  1
  O  O15  1  0.58690842  0.20293138  0.69294084  1
  O  O16  1  0.01262777  0.81905920  0.69803981  1
  O  O17  1  0.51430448  0.82583860  0.69298460  1
  O  O18  1  0.39578648  0.81291469  0.19522163  1
  O  O19  1  0.89741245  0.82439637  0.19239589  1
  O  O20  1  0.01582755  0.20341705  0.19233129  1
  O  O21  1  0.50968792  0.20888489  0.19519137  1
  O  O22  1  0.09028328  0.97609406  0.19146339  1
  O  O23  1  0.58983502  0.97255519  0.19793425  1
  O  O24  1  0.44751229  0.37183721  0.63639433  1
  O  O25  1  0.94592135  0.37272016  0.63542046  1
  O  O26  1  0.24005138  0.10665562  0.63463486  1
  O  O27  1  0.73799751  0.10499215  0.63705799  1
  O  O28  1  0.31477751  0.52406475  0.63712487  1
  O  O29  1  0.81373043  0.52052457  0.63470458  1
  O  O30  1  0.44047994  0.50565738  0.13926621  1
  O  O31  1  0.94861670  0.52500259  0.13685508  1
  O  O32  1  0.31241202  0.11721947  0.13839344  1
  O  O33  1  0.81478971  0.10472541  0.13762798  1
  O  O34  1  0.24502659  0.37344478  0.13970463  1
  O  O35  1  0.73910389  0.37356190  0.13506691  1
  O  O36  1  0.22168727  0.29396811  0.03184890  1
  O  O37  1  0.72608661  0.30884967  0.02657535  1
  O  O38  1  0.42357159  0.54090504  0.03011586  1
  O  O39  1  0.93070950  0.56473457  0.02883417  1
  O  O40  1  0.34619117  0.14951760  0.02924931  1
  O  O41  1  0.85222556  0.14192559  0.02965863  1
  O  O42  1  0.22564683  0.14289662  0.52607999  1
  O  O43  1  0.71741120  0.13930826  0.52926685  1
  O  O44  1  0.35295610  0.56428327  0.52926837  1
  O  O45  1  0.84506145  0.55000134  0.52592511  1
  O  O46  1  0.42992988  0.29555228  0.52838170  1
  O  O47  1  0.92917720  0.30787659  0.52698803  1
  O  O48  1  0.26773993  0.70042414  0.97640717  1
  O  O49  1  0.77696026  0.70916025  0.97166826  1
  O  O50  1  0.07912023  0.44892142  0.97313402  1
  O  O51  1  0.58031141  0.46248787  0.97470052  1
  O  O52  1  0.14559897  0.84292926  0.97237443  1
  O  O53  1  0.65113276  0.83846417  0.97600459  1
  O  O54  1  0.27613687  0.84412030  0.46962247  1
  O  O55  1  0.76715430  0.83689745  0.47418627  1
  O  O56  1  0.15272907  0.46450962  0.47404663  1
  O  O57  1  0.64599483  0.45079260  0.47040074  1
  O  O58  1  0.08102003  0.69829514  0.47290387  1
  O  O59  1  0.57839833  0.70627040  0.47115675  1
  O  O60  1  0.06237688  0.63999810  0.36272263  1
  O  O61  1  0.56116636  0.64043697  0.36195398  1
  O  O62  1  0.25993429  0.87761768  0.36040232  1
  O  O63  1  0.75716531  0.87546206  0.36411621  1
  O  O64  1  0.18135501  0.48581665  0.36375285  1
  O  O65  1  0.67857942  0.48032870  0.36114102  1
  O  O66  1  0.06310183  0.48549608  0.86365401  1
  O  O67  1  0.56390969  0.48742882  0.86436950  1
  O  O68  1  0.17973233  0.87432811  0.86307378  1
  O  O69  1  0.67980964  0.87108091  0.86506540  1
  O  O70  1  0.25560279  0.64059873  0.86539888  1
  O  O71  1  0.75824867  0.64082981  0.86253203  1
  O  O72  1  0.01569966  0.83200538  0.41484439  1
  O  O73  1  0.51390636  0.83938677  0.40972907  1
  O  O74  1  0.40668094  0.96887787  0.40796720  1
  O  O75  1  0.89979954  0.96903532  0.41642446  1
  O  O76  1  0.08495796  0.20031594  0.41575977  1
  O  O77  1  0.57772370  0.18867889  0.40902753  1
  O  O78  1  0.01468918  0.18946976  0.90985632  1
  O  O79  1  0.51509876  0.19940852  0.91584428  1
  O  O80  1  0.07941272  0.96948625  0.90960625  1
  O  O81  1  0.58438746  0.96775702  0.91699007  1
  O  O82  1  0.39939859  0.83150259  0.91716457  1
  O  O83  1  0.90633550  0.84219705  0.90921551  1
  O  O84  1  0.49599079  0.17083906  0.59212434  1
  O  O85  1  0.99690300  0.18154745  0.58693437  1
  O  O86  1  0.09397196  0.00502088  0.58608888  1
  O  O87  1  0.58892775  0.00937650  0.59254044  1
  O  O88  1  0.41550007  0.82149730  0.59258860  1
  O  O89  1  0.90884341  0.81242384  0.58604874  1
  O  O90  1  0.49086829  0.80226877  0.09060983  1
  O  O91  1  0.99702437  0.82282376  0.09253108  1
  O  O92  1  0.40893638  0.01399979  0.09039269  1
  O  O93  1  0.91591402  0.01045653  0.09177567  1
  O  O94  1  0.09398758  0.17014730  0.09577270  1
  O  O95  1  0.59339876  0.18194145  0.08579843  1
  O  O96  1  0.34825429  0.16537133  0.74172544  1
  O  O97  1  0.84848754  0.16600308  0.74811879  1
  O  O98  1  0.23413169  0.30121300  0.74870679  1
  O  O99  1  0.73478703  0.30323202  0.74117483  1
  O  O100  1  0.41675527  0.53089591  0.74145876  1
  O  O101  1  0.91681107  0.53159215  0.74855123  1
  O  O102  1  0.34799649  0.51950050  0.24307892  1
  O  O103  1  0.84818348  0.53074003  0.24192364  1
  O  O104  1  0.41075936  0.30238042  0.24381642  1
  O  O105  1  0.91715402  0.30179633  0.24114265  1
  O  O106  1  0.24071733  0.17825060  0.23776073  1
  O  O107  1  0.73304320  0.16600433  0.24906314  1
  O  O108  1  0.31772046  0.50426532  0.92569085  1
  O  O109  1  0.82689051  0.51477025  0.92318862  1
  O  O110  1  0.43279380  0.36202975  0.92434977  1
  O  O111  1  0.93182696  0.35045346  0.92471608  1
  O  O112  1  0.24292359  0.13614347  0.92354100  1
  O  O113  1  0.74840005  0.13364885  0.92550312  1
  O  O114  1  0.32806258  0.13962468  0.42205964  1
  O  O115  1  0.81841813  0.13395247  0.42523010  1
  O  O116  1  0.24893661  0.36125693  0.42467965  1
  O  O117  1  0.74200099  0.34696654  0.42250724  1
  O  O118  1  0.43070933  0.51272359  0.42352611  1
  O  O119  1  0.93241200  0.50446550  0.42384249  1
  O  O120  1  0.17533177  0.49671428  0.07739667  1
  O  O121  1  0.67845245  0.50958580  0.07259763  1
  O  O122  1  0.07790708  0.65427448  0.07413194  1
  O  O123  1  0.57123231  0.63691189  0.07669674  1
  O  O124  1  0.24588171  0.85549713  0.07563594  1
  O  O125  1  0.75064245  0.84657065  0.07461334  1
  O  O126  1  0.17961089  0.84905831  0.57234839  1
  O  O127  1  0.67068851  0.84473813  0.57477291  1
  O  O128  1  0.25152733  0.65570738  0.57430100  1
  O  O129  1  0.74448109  0.64214563  0.57343092  1
  O  O130  1  0.07658746  0.50879352  0.57432805  1
  O  O131  1  0.57642142  0.49924575  0.57352906  1
  O  O132  1  0.15939517  0.84958684  0.25119390  1
  O  O133  1  0.65081302  0.83943831  0.26030966  1
  O  O134  1  0.26604114  0.68230840  0.25818414  1
  O  O135  1  0.76784705  0.69667391  0.25311474  1
  O  O136  1  0.08091524  0.46404241  0.25214918  1
  O  O137  1  0.57449074  0.46710790  0.25864380  1
  O  O138  1  0.15158485  0.46283792  0.76015751  1
  O  O139  1  0.65164307  0.46377529  0.75276599  1
  O  O140  1  0.08028396  0.69719784  0.75996434  1
  O  O141  1  0.58055042  0.69804584  0.75251967  1
  O  O142  1  0.26834701  0.83820595  0.75248214  1
  O  O143  1  0.76799414  0.83960259  0.76009394  1
loop_
_geom_bond_atom_site_label_1
_geom_bond_atom_site_label_2
_geom_bond_distance
_geom_bond_site_symmetry_2
Na0 O89 2.460486 1_445
Na0 O86 2.462709 1_555
Na0 O85 2.471501 1_455
Na0 O75 2.476697 1_445
Na0 O76 2.484573 1_555
Na0 O72 2.491772 1_545
Na1 O81 2.412891 1_545
Na1 O79 2.435492 1_555
Na1 O82 2.447420 1_545
Na1 O95 2.467349 1_556
Na1 O92 2.606939 1_556
Na1 O90 2.610620 1_546
Na2 O98 2.422494 1_555
Na2 O100 2.524304 1_555
Na2 O96 2.529283 1_555
Na2 O110 2.613326 1_555
Na2 O112 2.634032 1_555
Na2 O108 2.655232 1_555
Na3 O97 2.432433 1_555
Na3 O101 2.440446 1_555
Na3 O99 2.545721 1_555
Na3 O109 2.595603 1_555
Na3 O113 2.617798 1_555
Na3 O111 2.636208 1_555
Na4 O116 2.485681 1_555
Na4 O114 2.488628 1_555
Na4 O118 2.503235 1_555
Na4 O104 2.558600 1_555
Na4 O102 2.566606 1_555
Na4 O106 2.654056 1_555
Na5 O107 2.472415 1_555
Na5 O119 2.551658 1_555
Na5 O117 2.566306 1_555
Na5 O115 2.582538 1_555
Na5 O105 2.583005 1_555
Na5 O103 2.586598 1_555
Ge0 O1 1.875402 1_565
Ge0 O74 1.915679 1_555
Ge0 O77 1.932761 1_565
Ge0 O73 1.934824 1_555
Ge0 O2 2.017680 1_555
Ge0 O4 2.039002 1_565
Ge1 O11 1.861790 1_565
Ge1 O9 1.863338 1_555
Ge1 O6 1.872858 1_665
Ge1 O83 1.990141 1_555
Ge1 O78 2.028181 1_665
Ge1 O80 2.033704 1_655
Ge2 O12 1.881175 1_555
Ge2 O15 1.882437 1_565
Ge2 O17 1.883129 1_555
Ge2 O87 1.952766 1_565
Ge2 O88 1.960035 1_555
Ge2 O84 1.979812 1_565
Ge3 O19 1.853646 1_555
Ge3 O20 1.870065 1_665
Ge3 O93 1.923824 1_565
Ge3 O22 1.947904 1_655
Ge3 O91 1.969813 1_555
Ge3 O94 1.985344 1_665
Ge4 O106 1.923222 1_555
Ge4 O30 1.925082 1_555
Ge4 O32 1.958791 1_555
Ge4 O34 1.974413 1_555
Ge4 O104 1.991734 1_555
Ge4 O102 2.000799 1_555
Ge5 O48 1.883640 1_554
Ge5 O122 1.906389 1_555
Ge5 O52 1.929422 1_554
Ge5 O50 1.932693 1_554
Ge5 O124 2.026887 1_555
Ge5 O120 2.091708 1_555
Ge6 O53 1.886690 1_554
Ge6 O121 1.893843 1_555
Ge6 O51 1.899071 1_554
Ge6 O49 1.932096 1_554
Ge6 O125 1.947491 1_555
Ge6 O123 2.080405 1_555
Ge7 O126 1.874202 1_555
Ge7 O130 1.879192 1_555
Ge7 O56 1.907749 1_555
Ge7 O128 1.925918 1_555
Ge7 O58 1.928462 1_555
Ge7 O54 2.062790 1_555
Ge8 O129 1.870897 1_555
Ge8 O55 1.901020 1_555
Ge8 O131 1.902232 1_555
Ge8 O127 1.910493 1_555
Ge8 O59 2.022423 1_555
Ge8 O57 2.033503 1_555
O0 S0 1.455443 1_555
O0 Zn0 2.122821 1_555
O1 S1 1.572928 1_555
O2 S2 1.526039 1_555
O3 S3 1.462955 1_555
O3 Zn0 2.026142 1_665
O4 S5 1.523243 1_555
O5 S4 1.462895 1_555
O5 Zn0 2.018112 1_655
O6 S6 1.574117 1_555
O7 S7 1.468086 1_555
O7 Zn1 1.994625 1_555
O8 S9 1.469032 1_555
O8 Zn1 1.998369 1_565
O9 S8 1.572503 1_555
O10 S10 1.467891 1_555
O10 Zn1 2.007017 1_555
O11 S11 1.575410 1_555
O12 S10 1.539783 1_565
O13 S11 1.450094 1_565
O13 Zn2 2.006240 1_655
O14 S6 1.449712 1_555
O14 Zn2 2.007479 1_545
O15 S7 1.540090 1_555
O16 S8 1.449991 1_455
O16 Zn2 2.008363 1_555
O17 S9 1.538799 1_555
O18 S2 1.452477 1_555
O18 Zn3 2.036341 1_565
O19 S3 1.553056 1_555
O20 S4 1.552110 1_455
O21 S5 1.456065 1_555
O21 Zn3 1.992990 1_555
O22 S0 1.509697 1_565
O23 S1 1.459327 1_565
O23 Zn3 1.968959 1_565
O24 S12 1.456985 1_555
O24 Zn4 2.093462 1_555
O25 S13 1.465027 1_555
O25 Zn5 2.044787 1_555
O26 S14 1.463031 1_555
O26 Zn4 2.054685 1_555
O27 S15 1.457537 1_555
O27 Zn5 2.100463 1_555
O28 S16 1.459687 1_555
O28 Zn4 2.070643 1_555
O29 S17 1.461311 1_555
O29 Zn5 2.083550 1_555
O30 S18 1.555074 1_555
O31 S19 1.457027 1_555
O31 Zn6 2.112615 1_555
O32 S20 1.539587 1_555
O33 S21 1.460756 1_555
O33 Zn6 2.069920 1_555
O34 S22 1.530772 1_555
O35 S23 1.464500 1_555
O35 Zn6 2.066758 1_555
O36 S22 1.450013 1_555
O36 Zn7 2.063813 1_554
O37 S23 1.464016 1_555
O37 Zn8 1.996650 1_554
O38 S18 1.453163 1_555
O38 Zn7 2.009007 1_554
O39 S19 1.455786 1_555
O39 Zn8 2.072776 1_554
O40 S20 1.452906 1_555
O40 Zn7 2.005802 1_554
O41 S21 1.455536 1_555
O41 Zn8 2.071225 1_554
O42 S14 1.469263 1_555
O42 Zn9 1.985836 1_555
O43 S15 1.457858 1_555
O43 Zn10 2.055008 1_555
O44 S16 1.461250 1_555
O44 Zn9 2.044253 1_555
O45 S17 1.466567 1_555
O45 Zn10 1.986845 1_555
O46 S12 1.461283 1_555
O46 Zn9 2.044297 1_555
O47 S13 1.465984 1_555
O47 Zn10 2.000406 1_555
O48 S24 1.575773 1_555
O49 S25 1.535928 1_555
O50 S26 1.553243 1_555
O51 S27 1.551767 1_555
O52 S28 1.543326 1_555
O53 S29 1.566581 1_555
O54 S30 1.501423 1_555
O55 S31 1.544370 1_555
O56 S32 1.536182 1_555
O57 S33 1.509632 1_555
O58 S34 1.534684 1_555
O59 S35 1.511028 1_555
O60 S34 1.463356 1_555
O60 Zn11 1.995841 1_555
O61 S35 1.450523 1_555
O61 Zn12 2.070860 1_555
O62 S30 1.456722 1_555
O62 Zn11 2.066544 1_555
O63 S31 1.456352 1_555
O63 Zn12 2.006347 1_555
O64 S32 1.458026 1_555
O64 Zn11 2.036283 1_555
O65 S33 1.454769 1_555
O65 Zn12 2.020348 1_555
O66 S26 1.447385 1_555
O66 Zn13 2.097040 1_555
O67 S27 1.451469 1_555
O67 Zn14 2.027300 1_555
O68 S28 1.447012 1_555
O68 Zn13 2.041121 1_555
O69 S29 1.450960 1_555
O69 Zn14 2.079883 1_555
O70 S24 1.448674 1_555
O70 Zn13 2.038802 1_555
O71 S25 1.448764 1_555
O71 Zn14 2.098974 1_555
O72 S34 1.476950 1_555
O72 Zn0 2.089317 1_565
O73 S35 1.523741 1_555
O74 S30 1.537198 1_555
O75 S31 1.472063 1_555
O75 Zn0 2.117882 1_665
O76 S32 1.475219 1_555
O76 Zn0 2.092956 1_555
O77 S33 1.527450 1_555
O78 S26 1.500727 1_555
O79 S27 1.471385 1_555
O79 Zn1 2.134533 1_555
O80 S28 1.496341 1_555
O81 S29 1.473227 1_555
O81 Zn1 2.153552 1_565
O82 S24 1.467254 1_555
O82 Zn1 2.168781 1_565
O83 S25 1.509773 1_555
O84 S12 1.506776 1_555
O85 S13 1.470399 1_555
O85 Zn2 2.080875 1_645
O86 S14 1.469574 1_555
O86 Zn2 2.088512 1_545
O87 S15 1.511740 1_555
O88 S16 1.510115 1_555
O89 S17 1.469993 1_555
O89 Zn2 2.087954 1_655
O90 S18 1.464311 1_555
O90 Zn3 2.071209 1_565
O91 S19 1.513556 1_555
O92 S20 1.460771 1_555
O92 Zn3 2.101129 1_555
O93 S21 1.525626 1_555
O94 S22 1.492931 1_555
O95 S23 1.479143 1_555
O95 Zn3 2.062099 1_555
O96 S10 1.472250 1_555
O96 Zn4 2.064518 1_555
O97 S11 1.472887 1_555
O97 Zn5 2.151878 1_555
O98 S6 1.474163 1_555
O98 Zn4 2.143898 1_555
O99 S7 1.471857 1_555
O99 Zn5 2.054932 1_555
O100 S9 1.472020 1_555
O100 Zn4 2.073981 1_555
O101 S8 1.473782 1_555
O101 Zn5 2.131103 1_555
O102 S2 1.545856 1_555
O103 S3 1.471871 1_555
O103 Zn6 2.057501 1_555
O104 S5 1.549444 1_555
O105 S4 1.471354 1_555
O105 Zn6 2.079240 1_555
O106 S0 1.550016 1_555
O107 S1 1.471096 1_555
O107 Zn6 2.153379 1_555
O108 S24 1.468926 1_555
O108 Zn7 2.030292 1_555
O109 S25 1.465704 1_555
O109 Zn8 2.117626 1_555
O110 S27 1.472890 1_555
O110 Zn7 2.055113 1_555
O111 S26 1.464780 1_655
O111 Zn8 2.066975 1_555
O112 S28 1.466707 1_545
O112 Zn7 2.049322 1_555
O113 S29 1.469782 1_545
O113 Zn8 2.076730 1_555
O114 S30 1.465610 1_545
O114 Zn9 2.167100 1_555
O115 S31 1.467879 1_545
O115 Zn10 2.069582 1_555
O116 S32 1.471425 1_555
O116 Zn9 2.104536 1_555
O117 S33 1.462130 1_555
O117 Zn10 2.131716 1_555
O118 S35 1.466818 1_555
O118 Zn9 2.098581 1_555
O119 S34 1.467666 1_655
O119 Zn10 2.121299 1_555
O120 S22 1.491904 1_555
O121 S23 1.529784 1_555
O122 S19 1.536903 1_455
O123 S18 1.487336 1_555
O124 S20 1.502195 1_565
O125 S21 1.514662 1_565
O126 S14 1.529856 1_565
O127 S15 1.524114 1_565
O128 S16 1.515172 1_555
O129 S17 1.539016 1_555
O130 S13 1.533609 1_455
O131 S12 1.523912 1_555
O132 S0 1.447607 1_565
O132 Zn11 2.129644 1_555
O133 S1 1.444579 1_565
O133 Zn12 2.005486 1_555
O134 S2 1.440497 1_555
O134 Zn11 2.047924 1_555
O135 S3 1.453956 1_555
O135 Zn12 2.039999 1_555
O136 S4 1.457793 1_455
O136 Zn11 2.047045 1_555
O137 S5 1.436309 1_555
O137 Zn12 2.060636 1_555
O138 S6 1.451227 1_555
O138 Zn13 1.977440 1_555
O139 S7 1.455723 1_555
O139 Zn14 2.030610 1_555
O140 S8 1.450106 1_455
O140 Zn13 1.986595 1_555
O141 S9 1.456784 1_555
O141 Zn14 2.022718 1_555
O142 S10 1.456956 1_565
O142 Zn13 2.017709 1_555
O143 S11 1.449771 1_565
O143 Zn14 1.987152 1_555
