# generated using pymatgen
data_Fe(SbS2)2
_symmetry_space_group_name_H-M   'P 1'
_cell_length_a   3.63153800
_cell_length_b   11.29513500
_cell_length_c   13.73866200
_cell_angle_alpha   90.00000000
_cell_angle_beta   90.00000000
_cell_angle_gamma   90.00000000
_symmetry_Int_Tables_number   1
_chemical_formula_structural   Fe(SbS2)2
_chemical_formula_sum   'Fe4 Sb8 S16'
_cell_volume   563.54221940
_cell_formula_units_Z   4
loop_
 _symmetry_equiv_pos_site_id
 _symmetry_equiv_pos_as_xyz
  1  'x, y, z'
loop_
 _atom_site_type_symbol
 _atom_site_label
 _atom_site_symmetry_multiplicity
 _atom_site_fract_x
 _atom_site_fract_y
 _atom_site_fract_z
 _atom_site_occupancy
  Fe  Fe0  1  0.25000000  0.83027200  0.83745200  1
  Fe  Fe1  1  0.25000000  0.33027200  0.66254800  1
  Fe  Fe2  1  0.75000000  0.16972800  0.16254800  1
  Fe  Fe3  1  0.75000000  0.66972800  0.33745200  1
  Sb  Sb0  1  0.25000000  0.64885700  0.57498700  1
  Sb  Sb1  1  0.25000000  0.14885700  0.92501300  1
  Sb  Sb2  1  0.75000000  0.35114300  0.42501300  1
  Sb  Sb3  1  0.75000000  0.85114300  0.07498700  1
  Sb  Sb4  1  0.75000000  0.53399200  0.88869900  1
  Sb  Sb5  1  0.75000000  0.03399200  0.61130100  1
  Sb  Sb6  1  0.25000000  0.46600800  0.11130100  1
  Sb  Sb7  1  0.25000000  0.96600800  0.38869900  1
  S  S0  1  0.75000000  0.71551400  0.78141800  1
  S  S1  1  0.75000000  0.21551400  0.71858200  1
  S  S2  1  0.25000000  0.28448600  0.21858200  1
  S  S3  1  0.25000000  0.78448600  0.28141800  1
  S  S4  1  0.25000000  0.90406000  0.68723000  1
  S  S5  1  0.25000000  0.40406000  0.81277000  1
  S  S6  1  0.75000000  0.09594000  0.31277000  1
  S  S7  1  0.75000000  0.59594000  0.18723000  1
  S  S8  1  0.25000000  0.73323700  0.98245000  1
  S  S9  1  0.25000000  0.23323700  0.51755000  1
  S  S10  1  0.75000000  0.26676300  0.01755000  1
  S  S11  1  0.75000000  0.76676300  0.48245000  1
  S  S12  1  0.75000000  0.93862600  0.89811900  1
  S  S13  1  0.75000000  0.43862600  0.60188100  1
  S  S14  1  0.25000000  0.06137400  0.10188100  1
  S  S15  1  0.25000000  0.56137400  0.39811900  1
loop_
_geom_bond_atom_site_label_1
_geom_bond_atom_site_label_2
_geom_bond_distance
_geom_bond_site_symmetry_2
Fe0 S4 2.225782 1_555
Fe0 S8 2.273685 1_555
Fe0 S12 2.342985 1_555
Fe0 S12 2.342985 1_455
Fe0 S0 2.360045 1_555
Fe0 S0 2.360045 1_455
Fe1 S5 2.225782 1_555
Fe1 S9 2.273685 1_555
Fe1 S13 2.342985 1_555
Fe1 S13 2.342985 1_455
Fe1 S1 2.360045 1_455
Fe1 S1 2.360045 1_555
Fe2 S6 2.225782 1_555
Fe2 S10 2.273685 1_555
Fe2 S14 2.342985 1_555
Fe2 S14 2.342985 1_655
Fe2 S2 2.360045 1_555
Fe2 S2 2.360045 1_655
Fe3 S7 2.225782 1_555
Fe3 S11 2.273685 1_555
Fe3 S15 2.342985 1_555
Fe3 S15 2.342985 1_655
Fe3 S3 2.360045 1_555
Fe3 S3 2.360045 1_655
S0 Sb4 2.525107 1_555
S1 Sb5 2.525107 1_555
S2 Sb6 2.525107 1_555
S3 Sb7 2.525107 1_555
S4 Sb5 2.557157 1_565
S4 Sb5 2.557157 1_465
S5 Sb4 2.557157 1_455
S5 Sb4 2.557157 1_555
S6 Sb7 2.557157 1_545
S6 Sb7 2.557157 1_645
S7 Sb6 2.557157 1_555
S7 Sb6 2.557157 1_655
S8 Sb3 2.585905 1_556
S8 Sb3 2.585905 1_456
S9 Sb2 2.585905 1_455
S9 Sb2 2.585905 1_555
S10 Sb1 2.585905 1_654
S10 Sb1 2.585905 1_554
S11 Sb0 2.585905 1_655
S11 Sb0 2.585905 1_555
S12 Sb3 2.623159 1_556
S12 Sb1 3.012010 1_565
S12 Sb1 3.012010 1_665
S13 Sb2 2.623159 1_555
S13 Sb0 3.012010 1_555
S13 Sb0 3.012010 1_655
S14 Sb1 2.623159 1_554
S14 Sb3 3.012010 1_545
S14 Sb3 3.012010 1_445
S15 Sb0 2.623159 1_555
S15 Sb2 3.012010 1_455
S15 Sb2 3.012010 1_555
