# generated using pymatgen
data_MgSnBiO4
_symmetry_space_group_name_H-M   'P 1'
_cell_length_a   6.99320672
_cell_length_b   4.27377175
_cell_length_c   4.27377175
_cell_angle_alpha   90.00000055
_cell_angle_beta   72.20778532
_cell_angle_gamma   72.20778532
_symmetry_Int_Tables_number   1
_chemical_formula_structural   MgSnBiO4
_chemical_formula_sum   'Mg1 Sn1 Bi1 O4'
_cell_volume   115.18964335
_cell_formula_units_Z   1
loop_
 _symmetry_equiv_pos_site_id
 _symmetry_equiv_pos_as_xyz
  1  'x, y, z'
loop_
 _atom_site_type_symbol
 _atom_site_label
 _atom_site_symmetry_multiplicity
 _atom_site_fract_x
 _atom_site_fract_y
 _atom_site_fract_z
 _atom_site_occupancy
  Mg  Mg0  1  0.50000000  0.75000000  0.25000000  1
  Sn  Sn0  1  0.50000000  0.25000000  0.75000000  1
  Bi  Bi0  1  0.00000000  0.00000000  0.00000000  1
  O  O0  1  0.84091800  0.07954100  0.57954100  1
  O  O1  1  0.48961300  0.75519400  0.75519400  1
  O  O2  1  0.51038700  0.24480600  0.24480600  1
  O  O3  1  0.15908200  0.42045900  0.92045900  1
loop_
_geom_bond_atom_site_label_1
_geom_bond_atom_site_label_2
_geom_bond_distance
_geom_bond_site_symmetry_2
Mg0 O2 2.137888 1_565
Mg0 O1 2.137888 1_554
Mg0 O1 2.137892 1_555
Mg0 O2 2.137892 1_555
Bi0 O3 2.360679 1_554
Bi0 O0 2.360679 1_454
Bi0 O0 2.360679 1_455
Bi0 O3 2.360679 1_544
O0 Sn0 2.150011 1_555
O1 Sn0 2.137888 1_565
O1 Sn0 2.137892 1_555
O2 Sn0 2.137888 1_554
O2 Sn0 2.137892 1_555
O3 Sn0 2.150011 1_555
