# generated using pymatgen
data_Al13(TlS7)3
_symmetry_space_group_name_H-M   'P 1'
_cell_length_a   14.86421529
_cell_length_b   14.86421529
_cell_length_c   9.38658363
_cell_angle_alpha   78.22679300
_cell_angle_beta   78.22679300
_cell_angle_gamma   61.26299946
_symmetry_Int_Tables_number   1
_chemical_formula_structural   Al13(TlS7)3
_chemical_formula_sum   'Al26 Tl6 S42'
_cell_volume   1766.62006576
_cell_formula_units_Z   2
loop_
 _symmetry_equiv_pos_site_id
 _symmetry_equiv_pos_as_xyz
  1  'x, y, z'
loop_
 _atom_site_type_symbol
 _atom_site_label
 _atom_site_symmetry_multiplicity
 _atom_site_fract_x
 _atom_site_fract_y
 _atom_site_fract_z
 _atom_site_occupancy
  Al  Al0  1  0.82109000  0.35605700  0.30144900  1
  Al  Al1  1  0.35605700  0.82109000  0.30144900  1
  Al  Al2  1  0.77696100  0.28384900  0.96600300  1
  Al  Al3  1  0.28384900  0.77696100  0.96600300  1
  Al  Al4  1  0.79109100  0.53265500  0.94790500  1
  Al  Al5  1  0.53265500  0.79109100  0.94790500  1
  Al  Al6  1  0.13990400  0.89739200  0.63113500  1
  Al  Al7  1  0.89739200  0.13990400  0.63113500  1
  Al  Al8  1  0.84865400  0.59366900  0.28501000  1
  Al  Al9  1  0.59366900  0.84865400  0.28501000  1
  Al  Al10  1  0.59459400  0.59459400  0.28566500  1
  Al  Al11  1  0.39962600  0.90109500  0.63335200  1
  Al  Al12  1  0.90109500  0.39962600  0.63335200  1
  Al  Al13  1  0.51763900  0.05249800  0.96267500  1
  Al  Al14  1  0.05249800  0.51763900  0.96267500  1
  Al  Al15  1  0.28661100  0.28661100  0.95592500  1
  Al  Al16  1  0.09452400  0.84543300  0.28813200  1
  Al  Al17  1  0.84543300  0.09452400  0.28813200  1
  Al  Al18  1  0.58603500  0.09336800  0.29730500  1
  Al  Al19  1  0.09336800  0.58603500  0.29730500  1
  Al  Al20  1  0.65249900  0.15159300  0.63094100  1
  Al  Al21  1  0.15159300  0.65249900  0.63094100  1
  Al  Al22  1  0.40101500  0.14725300  0.62205300  1
  Al  Al23  1  0.14725300  0.40101500  0.62205300  1
  Al  Al24  1  0.53963800  0.29012900  0.93637700  1
  Al  Al25  1  0.29012900  0.53963800  0.93637700  1
  Tl  Tl0  1  0.18284900  0.18284900  0.40594000  1
  Tl  Tl1  1  0.11158800  0.11158800  0.95754100  1
  Tl  Tl2  1  0.54896900  0.54896900  0.72019300  1
  Tl  Tl3  1  0.41912600  0.41912600  0.37937900  1
  Tl  Tl4  1  0.82089300  0.82089300  0.61065600  1
  Tl  Tl5  1  0.88996000  0.88996000  0.03965500  1
  S  S0  1  0.05115400  0.80746100  0.70600300  1
  S  S1  1  0.80746100  0.05115400  0.70600300  1
  S  S2  1  0.35170500  0.11904500  0.04158000  1
  S  S3  1  0.11904500  0.35170500  0.04158000  1
  S  S4  1  0.61743200  0.61743200  0.03344400  1
  S  S5  1  0.91516000  0.42134200  0.37453900  1
  S  S6  1  0.42134200  0.91516000  0.37453900  1
  S  S7  1  0.85754600  0.36335800  0.04825700  1
  S  S8  1  0.36335800  0.85754600  0.04825700  1
  S  S9  1  0.55598200  0.30946100  0.69245100  1
  S  S10  1  0.30946100  0.55598200  0.69245100  1
  S  S11  1  0.30154400  0.81396500  0.71132000  1
  S  S12  1  0.81396500  0.30154400  0.71132000  1
  S  S13  1  0.79822200  0.55451200  0.70738500  1
  S  S14  1  0.55451200  0.79822200  0.70738500  1
  S  S15  1  0.67437000  0.67437000  0.36356000  1
  S  S16  1  0.30554400  0.06249000  0.68799800  1
  S  S17  1  0.06249000  0.30554400  0.68799800  1
  S  S18  1  0.06066700  0.06066700  0.68128300  1
  S  S19  1  0.60907700  0.11728100  0.04052300  1
  S  S20  1  0.11728100  0.60907700  0.04052300  1
  S  S21  1  0.87417100  0.60575000  0.03186600  1
  S  S22  1  0.60575000  0.87417100  0.03186600  1
  S  S23  1  0.11734700  0.87196000  0.04372100  1
  S  S24  1  0.87196000  0.11734700  0.04372100  1
  S  S25  1  0.30874800  0.30874800  0.70253800  1
  S  S26  1  0.05657400  0.55962500  0.71178100  1
  S  S27  1  0.55962500  0.05657400  0.71178100  1
  S  S28  1  0.16662500  0.67166800  0.37426200  1
  S  S29  1  0.67166800  0.16662500  0.37426200  1
  S  S30  1  0.60725700  0.36937600  0.02547800  1
  S  S31  1  0.36937600  0.60725700  0.02547800  1
  S  S32  1  0.36640900  0.36640900  0.03304800  1
  S  S33  1  0.65624700  0.43106900  0.38380700  1
  S  S34  1  0.43106900  0.65624700  0.38380700  1
  S  S35  1  0.92158200  0.67551800  0.35013000  1
  S  S36  1  0.67551800  0.92158200  0.35013000  1
  S  S37  1  0.18196900  0.91215500  0.37528100  1
  S  S38  1  0.91215500  0.18196900  0.37528100  1
  S  S39  1  0.42173300  0.18693100  0.37920800  1
  S  S40  1  0.18693100  0.42173300  0.37920800  1
  S  S41  1  0.92312200  0.92312200  0.35492000  1
loop_
_geom_bond_atom_site_label_1
_geom_bond_atom_site_label_2
_geom_bond_distance
_geom_bond_site_symmetry_2
Al0 S33 2.190050 1_555
Al0 S38 2.300327 1_555
Al0 S5 2.309867 1_555
Al0 S7 2.319362 1_555
Al1 S34 2.190050 1_555
Al1 S37 2.300327 1_555
Al1 S6 2.309867 1_555
Al1 S8 2.319362 1_555
Al2 S30 2.218612 1_556
Al2 S24 2.230352 1_556
Al2 S12 2.330802 1_555
Al2 S7 2.353440 1_556
Al3 S31 2.218612 1_556
Al3 S23 2.230352 1_556
Al3 S11 2.330802 1_555
Al3 S8 2.353440 1_556
Al4 S13 2.202263 1_555
Al4 S7 2.284246 1_556
Al4 S4 2.309773 1_556
Al4 S21 2.315901 1_556
Al5 S14 2.202263 1_555
Al5 S8 2.284246 1_556
Al5 S4 2.309773 1_556
Al5 S22 2.315901 1_556
Al6 S0 2.226002 1_555
Al6 S18 2.233876 1_565
Al6 S11 2.317133 1_555
Al6 S37 2.347523 1_555
Al7 S1 2.226002 1_555
Al7 S18 2.233876 1_655
Al7 S12 2.317133 1_555
Al7 S38 2.347523 1_555
Al8 S35 2.207018 1_555
Al8 S5 2.295747 1_555
Al8 S15 2.299357 1_555
Al8 S21 2.312103 1_555
Al9 S36 2.207018 1_555
Al9 S6 2.295747 1_555
Al9 S15 2.299357 1_555
Al9 S22 2.312103 1_555
Al10 S33 2.210305 1_555
Al10 S34 2.210305 1_555
Al10 S4 2.300083 1_555
Al10 S15 2.325215 1_555
Al11 S14 2.226115 1_555
Al11 S16 2.226535 1_565
Al11 S11 2.309086 1_555
Al11 S6 2.363761 1_555
Al12 S13 2.226115 1_555
Al12 S17 2.226535 1_655
Al12 S12 2.309086 1_555
Al12 S5 2.363761 1_555
Al13 S2 2.194994 1_556
Al13 S19 2.293355 1_556
Al13 S27 2.306018 1_555
Al13 S22 2.338728 1_546
Al14 S3 2.194994 1_556
Al14 S20 2.293355 1_556
Al14 S26 2.306018 1_555
Al14 S21 2.338728 1_456
Al15 S2 2.229187 1_556
Al15 S3 2.229187 1_556
Al15 S25 2.310603 1_555
Al15 S32 2.321973 1_556
Al16 S23 2.230632 1_555
Al16 S41 2.243251 1_455
Al16 S28 2.305026 1_555
Al16 S37 2.312318 1_555
Al17 S24 2.230632 1_555
Al17 S41 2.243251 1_545
Al17 S29 2.305026 1_555
Al17 S38 2.312318 1_555
Al18 S39 2.212185 1_555
Al18 S36 2.240936 1_545
Al18 S29 2.314456 1_555
Al18 S19 2.341750 1_555
Al19 S40 2.212185 1_555
Al19 S35 2.240936 1_455
Al19 S28 2.314456 1_555
Al19 S20 2.341750 1_555
Al20 S9 2.208101 1_555
Al20 S1 2.226481 1_555
Al20 S27 2.342318 1_555
Al20 S29 2.344657 1_555
Al21 S10 2.208101 1_555
Al21 S0 2.226481 1_555
Al21 S26 2.342318 1_555
Al21 S28 2.344657 1_555
Al22 S39 2.231211 1_555
Al22 S16 2.242099 1_555
Al22 S25 2.316373 1_555
Al22 S27 2.318586 1_555
Al23 S40 2.231211 1_555
Al23 S17 2.242099 1_555
Al23 S25 2.316373 1_555
Al23 S26 2.318586 1_555
Al24 S9 2.226130 1_555
Al24 S30 2.231772 1_556
Al24 S32 2.323397 1_556
Al24 S19 2.336424 1_556
Al25 S10 2.226130 1_555
Al25 S31 2.231772 1_556
Al25 S32 2.323397 1_556
Al25 S20 2.336424 1_556
S16 Tl0 3.230549 1_555
S17 Tl0 3.230549 1_555
S18 Tl1 3.165887 1_555
S23 Tl5 3.267394 1_455
S24 Tl5 3.267394 1_545
S35 Tl4 3.231506 1_555
S36 Tl4 3.231506 1_555
S41 Tl4 3.102209 1_555
S41 Tl5 3.266090 1_555
