# generated using pymatgen
data_MgTi4O8
_symmetry_space_group_name_H-M   'P 1'
_cell_length_a   5.91486052
_cell_length_b   6.02174749
_cell_length_c   6.02174800
_cell_angle_alpha   59.99999721
_cell_angle_beta   59.40039361
_cell_angle_gamma   59.40038613
_symmetry_Int_Tables_number   1
_chemical_formula_structural   MgTi4O8
_chemical_formula_sum   'Mg1 Ti4 O8'
_cell_volume   150.27215832
_cell_formula_units_Z   1
loop_
 _symmetry_equiv_pos_site_id
 _symmetry_equiv_pos_as_xyz
  1  'x, y, z'
loop_
 _atom_site_type_symbol
 _atom_site_label
 _atom_site_symmetry_multiplicity
 _atom_site_fract_x
 _atom_site_fract_y
 _atom_site_fract_z
 _atom_site_occupancy
  Mg  Mg0  1  0.50000000  0.00000000  0.00000000  1
  Ti  Ti0  1  0.50000000  0.00000000  0.50000000  1
  Ti  Ti1  1  0.50000000  0.50000000  0.00000000  1
  Ti  Ti2  1  0.00000000  0.50000000  0.50000000  1
  Ti  Ti3  1  0.50000000  0.50000000  0.50000000  1
  O  O0  1  0.27129300  0.25473500  0.25473500  1
  O  O1  1  0.70287200  0.26570900  0.26570900  1
  O  O2  1  0.27129300  0.71923700  0.25473500  1
  O  O3  1  0.27129300  0.25473500  0.71923700  1
  O  O4  1  0.72870700  0.28076300  0.74526500  1
  O  O5  1  0.72870700  0.74526500  0.28076300  1
  O  O6  1  0.29712800  0.73429100  0.73429100  1
  O  O7  1  0.72870700  0.74526500  0.74526500  1
loop_
_geom_bond_atom_site_label_1
_geom_bond_atom_site_label_2
_geom_bond_distance
_geom_bond_site_symmetry_2
Mg0 O0 2.159591 1_555
Mg0 O5 2.159591 1_545
Mg0 O3 2.159591 1_554
Mg0 O7 2.159591 1_544
Mg0 O2 2.159591 1_545
Mg0 O4 2.159591 1_554
O0 Ti0 2.005051 1_555
O0 Ti1 2.005051 1_555
O0 Ti2 2.072021 1_555
O1 Ti1 1.991033 1_555
O1 Ti0 1.991033 1_555
O1 Ti3 1.991038 1_555
O2 Ti1 2.005051 1_555
O2 Ti3 2.005051 1_555
O2 Ti2 2.072021 1_555
O3 Ti0 2.005051 1_555
O3 Ti3 2.005051 1_555
O3 Ti2 2.072021 1_555
O4 Ti3 2.005051 1_555
O4 Ti1 2.005051 1_556
O4 Ti2 2.072021 1_655
O5 Ti0 2.005051 1_565
O5 Ti3 2.005051 1_555
O5 Ti2 2.072021 1_655
O6 Ti1 1.991033 1_556
O6 Ti0 1.991033 1_565
O6 Ti3 1.991038 1_555
O7 Ti0 2.005051 1_565
O7 Ti1 2.005051 1_556
O7 Ti2 2.072021 1_655
