# generated using pymatgen
data_CsBi2
_symmetry_space_group_name_H-M   'P 1'
_cell_length_a   6.90077866
_cell_length_b   6.90077986
_cell_length_c   6.90078005
_cell_angle_alpha   60.00000904
_cell_angle_beta   60.00000335
_cell_angle_gamma   60.00000796
_symmetry_Int_Tables_number   1
_chemical_formula_structural   CsBi2
_chemical_formula_sum   'Cs2 Bi4'
_cell_volume   232.36971506
_cell_formula_units_Z   2
loop_
 _symmetry_equiv_pos_site_id
 _symmetry_equiv_pos_as_xyz
  1  'x, y, z'
loop_
 _atom_site_type_symbol
 _atom_site_label
 _atom_site_symmetry_multiplicity
 _atom_site_fract_x
 _atom_site_fract_y
 _atom_site_fract_z
 _atom_site_occupancy
  Cs  Cs0  1  0.12500000  0.12500000  0.12500000  1
  Cs  Cs1  1  0.87500000  0.87500000  0.87500000  1
  Bi  Bi0  1  -0.00000000  0.50000000  0.50000000  1
  Bi  Bi1  1  0.50000000  0.00000000  0.50000000  1
  Bi  Bi2  1  0.50000000  0.50000000  -0.00000000  1
  Bi  Bi3  1  0.50000000  0.50000000  0.50000000  1
loop_
_geom_bond_atom_site_label_1
_geom_bond_atom_site_label_2
_geom_bond_distance
_geom_bond_site_symmetry_2
Cs0 Cs1 4.225847 1_544
Cs0 Cs1 4.225847 1_444
Cs0 Cs1 4.225848 1_445
Cs0 Cs1 4.225848 1_454
Bi0 Bi3 3.450389 1_455
Bi0 Bi3 3.450389 1_555
Bi0 Bi2 3.450390 1_456
Bi0 Bi2 3.450390 1_555
Bi0 Bi1 3.450390 1_465
Bi0 Bi1 3.450390 1_555
Bi0 Cs0 4.045941 1_555
Bi0 Cs1 4.045941 1_455
Bi0 Cs1 4.045941 1_445
Bi0 Cs0 4.045941 1_565
Bi0 Cs0 4.045941 1_556
Bi0 Cs1 4.045941 1_454
Bi1 Bi3 3.450390 1_545
Bi1 Bi3 3.450390 1_555
Bi1 Bi2 3.450390 1_546
Bi1 Bi2 3.450390 1_555
Bi1 Cs0 4.045940 1_655
Bi1 Cs1 4.045940 1_445
Bi1 Cs0 4.045941 1_555
Bi1 Cs1 4.045941 1_545
Bi1 Cs1 4.045941 1_544
Bi1 Cs0 4.045941 1_556
Bi2 Bi3 3.450390 1_555
Bi2 Bi3 3.450390 1_554
Bi2 Cs1 4.045940 1_554
Bi2 Cs0 4.045940 1_555
Bi2 Cs0 4.045941 1_655
Bi2 Cs1 4.045941 1_454
Bi2 Cs1 4.045941 1_544
Bi2 Cs0 4.045941 1_565
Bi3 Cs0 4.045941 1_655
Bi3 Cs1 4.045941 1_455
Bi3 Cs0 4.045941 1_556
Bi3 Cs1 4.045941 1_554
Bi3 Cs1 4.045941 1_545
Bi3 Cs0 4.045941 1_565
