# generated using pymatgen
data_Na14Sc4Ti4Si9(SO16)3
_symmetry_space_group_name_H-M   'P 1'
_cell_length_a   18.16778167
_cell_length_b   9.07508263
_cell_length_c   22.29191277
_cell_angle_alpha   90.01647694
_cell_angle_beta   89.78354794
_cell_angle_gamma   120.01913491
_symmetry_Int_Tables_number   1
_chemical_formula_structural   Na14Sc4Ti4Si9(SO16)3
_chemical_formula_sum   'Na42 Sc12 Ti12 Si27 S9 O144'
_cell_volume   3182.31263340
_cell_formula_units_Z   3
loop_
 _symmetry_equiv_pos_site_id
 _symmetry_equiv_pos_as_xyz
  1  'x, y, z'
loop_
 _atom_site_type_symbol
 _atom_site_label
 _atom_site_symmetry_multiplicity
 _atom_site_fract_x
 _atom_site_fract_y
 _atom_site_fract_z
 _atom_site_occupancy
  Na  Na0  1  0.81931877  0.00715495  0.25378929  1
  Na  Na1  1  0.17688770  0.35717435  0.25396880  1
  Na  Na2  1  0.68958005  0.36972380  0.25220558  1
  Na  Na3  1  0.99860129  0.62998519  0.24826126  1
  Na  Na4  1  0.49957911  0.63808785  0.24972230  1
  Na  Na5  1  0.31866952  0.62945060  0.75151616  1
  Na  Na6  1  0.99733090  0.35786809  0.74444753  1
  Na  Na7  1  0.49918674  0.36797732  0.74600044  1
  Na  Na8  1  0.18818265  0.00969537  0.74940394  1
  Na  Na9  1  0.68227870  0.00274067  0.75036206  1
  Na  Na10  1  0.14809381  0.32446703  0.58254190  1
  Na  Na11  1  0.65081524  0.32888827  0.58162179  1
  Na  Na12  1  0.33627925  0.98401622  0.58645370  1
  Na  Na13  1  0.83370226  0.97123821  0.58234522  1
  Na  Na14  1  0.14652606  0.97014147  0.08179448  1
  Na  Na15  1  0.65108744  0.97286092  0.07995166  1
  Na  Na16  1  0.33366423  0.69253037  0.08175070  1
  Na  Na17  1  0.83633243  0.68951097  0.08651556  1
  Na  Na18  1  0.48100279  0.67570008  0.91551280  1
  Na  Na19  1  0.98024871  0.67456995  0.92143436  1
  Na  Na20  1  0.34675133  0.02679693  0.90984694  1
  Na  Na21  1  0.84650810  0.02586367  0.91132964  1
  Na  Na22  1  0.17104617  0.29682422  0.91225010  1
  Na  Na23  1  0.66805448  0.29009452  0.91250123  1
  Na  Na24  1  0.48306341  0.29222466  0.42433258  1
  Na  Na25  1  0.97864217  0.28404834  0.41893164  1
  Na  Na26  1  0.16743438  0.04635132  0.41508279  1
  Na  Na27  1  0.67342233  0.04722693  0.41686305  1
  Na  Na28  1  0.34732828  0.66750139  0.41429427  1
  Na  Na29  1  0.84645429  0.66455956  0.41799489  1
  Na  Na30  1  0.99855278  0.99443950  0.50195920  1
  Na  Na31  1  0.50435907  0.00880719  0.50421393  1
  Na  Na32  1  0.00248631  0.99750560  0.00293028  1
  Na  Na33  1  0.50279038  0.00177602  0.99870436  1
  Na  Na34  1  0.32975072  0.33364140  0.82798452  1
  Na  Na35  1  0.82521012  0.33194196  0.82842136  1
  Na  Na36  1  0.32569612  0.31609836  0.33382303  1
  Na  Na37  1  0.82965134  0.32579480  0.33230923  1
  Na  Na38  1  0.15947683  0.65663486  0.16795315  1
  Na  Na39  1  0.66418171  0.65756727  0.16661663  1
  Na  Na40  1  0.16297594  0.66892823  0.66603267  1
  Na  Na41  1  0.66237259  0.66317866  0.66520713  1
  Sc  Sc0  1  0.00016477  0.00804900  0.35095303  1
  Sc  Sc1  1  0.50099779  0.00285781  0.35250734  1
  Sc  Sc2  1  0.00008048  0.99833270  0.85005198  1
  Sc  Sc3  1  0.50086455  0.99330442  0.84965907  1
  Sc  Sc4  1  0.33602930  0.32418116  0.68464015  1
  Sc  Sc5  1  0.83661063  0.34823966  0.18510579  1
  Sc  Sc6  1  0.32841292  0.33908625  0.98313383  1
  Sc  Sc7  1  0.82577595  0.33984378  0.98324129  1
  Sc  Sc8  1  0.32711084  0.31346799  0.48347952  1
  Sc  Sc9  1  0.82891367  0.32787220  0.48566777  1
  Sc  Sc10  1  0.67581696  0.67772228  0.31439089  1
  Sc  Sc11  1  0.17530438  0.67294665  0.81217382  1
  Ti  Ti0  1  0.99754986  0.01187167  0.64355600  1
  Ti  Ti1  1  0.50928258  0.01522976  0.65381666  1
  Ti  Ti2  1  0.00826448  0.00355408  0.15424909  1
  Ti  Ti3  1  0.50401249  0.98607418  0.14750674  1
  Ti  Ti4  1  0.82618512  0.32140060  0.67944228  1
  Ti  Ti5  1  0.32812438  0.34922903  0.18460449  1
  Ti  Ti6  1  0.16577031  0.67056152  0.01968630  1
  Ti  Ti7  1  0.66618899  0.66575796  0.01922477  1
  Ti  Ti8  1  0.16492722  0.66524386  0.52000921  1
  Ti  Ti9  1  0.67478734  0.66030819  0.52547103  1
  Ti  Ti10  1  0.17779702  0.67421193  0.30848164  1
  Ti  Ti11  1  0.67883459  0.68334236  0.80653814  1
  Si  Si0  1  0.15167012  0.00158417  0.25152871  1
  Si  Si1  1  0.64693392  0.99678767  0.25095681  1
  Si  Si2  1  0.35667385  0.71386942  0.24933452  1
  Si  Si3  1  0.85570037  0.71169323  0.24965071  1
  Si  Si4  1  0.00071665  0.29508713  0.25085615  1
  Si  Si5  1  0.14453849  0.29190010  0.74914983  1
  Si  Si6  1  0.65174687  0.30133897  0.75238016  1
  Si  Si7  1  0.50107836  0.70703618  0.75094181  1
  Si  Si8  1  0.35589252  0.00013133  0.74958958  1
  Si  Si9  1  0.85723635  0.00871005  0.74974353  1
  Si  Si10  1  0.48329270  0.33378011  0.58249602  1
  Si  Si11  1  0.98071799  0.34262560  0.58384777  1
  Si  Si12  1  0.18073099  0.02825901  0.58421163  1
  Si  Si13  1  0.68048099  0.02830648  0.58256059  1
  Si  Si14  1  0.83926793  0.62874547  0.58280845  1
  Si  Si15  1  0.48157651  0.62164104  0.08417715  1
  Si  Si16  1  0.98348384  0.63277970  0.08240666  1
  Si  Si17  1  0.18081202  0.33407604  0.08285262  1
  Si  Si18  1  0.67979566  0.33297435  0.08453121  1
  Si  Si19  1  0.31347771  0.66913615  0.91857412  1
  Si  Si20  1  0.80945913  0.66734686  0.91584880  1
  Si  Si21  1  0.16737466  0.95956743  0.91633225  1
  Si  Si22  1  0.66798193  0.95454055  0.91651062  1
  Si  Si23  1  0.30936834  0.95183365  0.41644087  1
  Si  Si24  1  0.81383633  0.96077373  0.41873235  1
  Si  Si25  1  0.16784006  0.38115005  0.41664234  1
  Si  Si26  1  0.66722588  0.37478583  0.41635824  1
  S  S0  1  0.49581083  0.28660302  0.24823032  1
  S  S1  1  0.99681697  0.70451617  0.74900230  1
  S  S2  1  0.33397792  0.63040998  0.58200957  1
  S  S3  1  0.33521058  0.04455575  0.08362420  1
  S  S4  1  0.83436349  0.03792723  0.08197293  1
  S  S5  1  0.02198965  0.37841435  0.91796802  1
  S  S6  1  0.52375020  0.38175960  0.91715356  1
  S  S7  1  0.02510985  0.66587662  0.41578507  1
  S  S8  1  0.52204112  0.66619585  0.41775633  1
  O  O0  1  0.11469916  0.04994689  0.30996500  1
  O  O1  1  0.60368895  0.03261462  0.30896308  1
  O  O2  1  0.41397163  0.78493356  0.30879982  1
  O  O3  1  0.91332798  0.79402456  0.30917618  1
  O  O4  1  0.48434639  0.19059092  0.30490997  1
  O  O5  1  0.98333345  0.18154046  0.31125560  1
  O  O6  1  0.10474654  0.17680015  0.81026220  1
  O  O7  1  0.61143189  0.18085378  0.81137802  1
  O  O8  1  0.48291897  0.78293783  0.81227561  1
  O  O9  1  0.98599101  0.77852934  0.80643265  1
  O  O10  1  0.41161831  0.03025356  0.81037369  1
  O  O11  1  0.91272129  0.04035741  0.81054989  1
  O  O12  1  0.40521533  0.97380531  0.69143586  1
  O  O13  1  0.90323981  0.98024694  0.69150377  1
  O  O14  1  0.08119015  0.18620188  0.69260006  1
  O  O15  1  0.58760200  0.20811838  0.69381239  1
  O  O16  1  0.01052601  0.81691583  0.69804297  1
  O  O17  1  0.51903913  0.84580142  0.69640377  1
  O  O18  1  0.40258391  0.83009907  0.18982059  1
  O  O19  1  0.90543285  0.83630163  0.19080942  1
  O  O20  1  0.01921313  0.19295598  0.19574327  1
  O  O21  1  0.50863465  0.19946828  0.19671033  1
  O  O22  1  0.08796794  0.96837121  0.19284183  1
  O  O23  1  0.58262229  0.97434684  0.19254249  1
  O  O24  1  0.44166890  0.36418886  0.64212195  1
  O  O25  1  0.93254199  0.36200921  0.64340923  1
  O  O26  1  0.24389481  0.10994402  0.64130178  1
  O  O27  1  0.74656875  0.12667952  0.64039025  1
  O  O28  1  0.31942860  0.52368596  0.63550013  1
  O  O29  1  0.81861537  0.48994408  0.63748703  1
  O  O30  1  0.43100002  0.50235567  0.14310917  1
  O  O31  1  0.94296459  0.51929871  0.14201598  1
  O  O32  1  0.32175355  0.13022100  0.13538977  1
  O  O33  1  0.81934189  0.11485334  0.13555772  1
  O  O34  1  0.24852501  0.36677325  0.14010378  1
  O  O35  1  0.74208536  0.37312113  0.14159388  1
  O  O36  1  0.22292891  0.29210706  0.02549411  1
  O  O37  1  0.71834274  0.28548006  0.02523577  1
  O  O38  1  0.42268587  0.54550265  0.02547305  1
  O  O39  1  0.92323578  0.54631539  0.02324041  1
  O  O40  1  0.34681059  0.14003780  0.02750323  1
  O  O41  1  0.84392245  0.13859307  0.02743658  1
  O  O42  1  0.22080831  0.15164436  0.52457201  1
  O  O43  1  0.72049494  0.15262308  0.52451761  1
  O  O44  1  0.34359921  0.54899331  0.52722219  1
  O  O45  1  0.85266486  0.55468263  0.52066481  1
  O  O46  1  0.42191027  0.29617850  0.52343725  1
  O  O47  1  0.92305638  0.29862030  0.52440158  1
  O  O48  1  0.25899605  0.68559986  0.97638087  1
  O  O49  1  0.75958801  0.68798526  0.97538444  1
  O  O50  1  0.07737509  0.46524206  0.97064378  1
  O  O51  1  0.57761045  0.46755035  0.97085382  1
  O  O52  1  0.15580200  0.83305000  0.97505656  1
  O  O53  1  0.65526477  0.83142752  0.97607468  1
  O  O54  1  0.26010751  0.83127458  0.47520779  1
  O  O55  1  0.76035648  0.83306674  0.47574548  1
  O  O56  1  0.15550916  0.47958321  0.47546413  1
  O  O57  1  0.65519874  0.47478803  0.47473013  1
  O  O58  1  0.07812963  0.68817161  0.46969679  1
  O  O59  1  0.57597483  0.68982212  0.46906269  1
  O  O60  1  0.06433264  0.64388538  0.36080932  1
  O  O61  1  0.55692950  0.63864926  0.36068709  1
  O  O62  1  0.24689247  0.85304243  0.35864022  1
  O  O63  1  0.75550508  0.88089335  0.35814414  1
  O  O64  1  0.17796620  0.50167332  0.35749520  1
  O  O65  1  0.67642088  0.48429394  0.35573755  1
  O  O66  1  0.05815125  0.47831765  0.86260745  1
  O  O67  1  0.56058023  0.48200348  0.86225398  1
  O  O68  1  0.17819885  0.86872572  0.85688904  1
  O  O69  1  0.67824651  0.85456743  0.85814212  1
  O  O70  1  0.25424954  0.63009781  0.85921001  1
  O  O71  1  0.74614666  0.63908273  0.85919098  1
  O  O72  1  0.01797306  0.82237114  0.41371414  1
  O  O73  1  0.51310312  0.82177951  0.41365758  1
  O  O74  1  0.40252793  0.96666184  0.41299318  1
  O  O75  1  0.90556199  0.96608861  0.41775947  1
  O  O76  1  0.08426932  0.19139898  0.41638611  1
  O  O77  1  0.58018383  0.18522836  0.41598135  1
  O  O78  1  0.01522220  0.20799166  0.91548933  1
  O  O79  1  0.51680630  0.21125235  0.91541091  1
  O  O80  1  0.08144348  0.97641265  0.91722653  1
  O  O81  1  0.58422703  0.97688298  0.91716391  1
  O  O82  1  0.40515623  0.84546296  0.91929982  1
  O  O83  1  0.90291000  0.83897682  0.91415203  1
  O  O84  1  0.49127926  0.15913842  0.58931675  1
  O  O85  1  0.99146654  0.17017318  0.59143450  1
  O  O86  1  0.08819551  0.01549205  0.59326265  1
  O  O87  1  0.58907171  0.01949259  0.59323757  1
  O  O88  1  0.40804773  0.80383631  0.58658103  1
  O  O89  1  0.91650432  0.82249210  0.59369492  1
  O  O90  1  0.48921004  0.81448525  0.09180344  1
  O  O91  1  0.99225025  0.82376617  0.08856558  1
  O  O92  1  0.40839509  0.01630396  0.08993780  1
  O  O93  1  0.90831576  0.01252145  0.08668763  1
  O  O94  1  0.08983979  0.16092968  0.09266276  1
  O  O95  1  0.58499447  0.16023816  0.09398897  1
  O  O96  1  0.34445674  0.16731891  0.74669901  1
  O  O97  1  0.84472289  0.17588091  0.74317013  1
  O  O98  1  0.23986953  0.31968436  0.74235823  1
  O  O99  1  0.74342967  0.31151179  0.74084997  1
  O  O100  1  0.41654432  0.52204561  0.74327862  1
  O  O101  1  0.92183875  0.53132667  0.74455753  1
  O  O102  1  0.34455947  0.51783907  0.24137524  1
  O  O103  1  0.84423355  0.52165752  0.24575947  1
  O  O104  1  0.42051562  0.30941097  0.24258170  1
  O  O105  1  0.91622709  0.31022241  0.24272971  1
  O  O106  1  0.24510193  0.17293834  0.23650623  1
  O  O107  1  0.74058877  0.16006760  0.24214290  1
  O  O108  1  0.32524559  0.50131874  0.92225695  1
  O  O109  1  0.81926739  0.49701338  0.91865610  1
  O  O110  1  0.43731921  0.35889361  0.92455118  1
  O  O111  1  0.93565754  0.35556056  0.92507132  1
  O  O112  1  0.25504657  0.14354297  0.92220946  1
  O  O113  1  0.75632671  0.13913049  0.92018432  1
  O  O114  1  0.31903569  0.14158808  0.41774627  1
  O  O115  1  0.82609324  0.15182801  0.42167291  1
  O  O116  1  0.25631166  0.37393331  0.41893749  1
  O  O117  1  0.75330053  0.36049089  0.41907813  1
  O  O118  1  0.43432022  0.51475334  0.42313126  1
  O  O119  1  0.93952788  0.51349682  0.42085907  1
  O  O120  1  0.18094143  0.51424338  0.07811324  1
  O  O121  1  0.67531682  0.50837972  0.07349649  1
  O  O122  1  0.08145050  0.66210497  0.07428218  1
  O  O123  1  0.57941768  0.65876942  0.07926471  1
  O  O124  1  0.25529626  0.87074506  0.08028696  1
  O  O125  1  0.75475882  0.86316166  0.07786485  1
  O  O126  1  0.17618374  0.84331530  0.57290462  1
  O  O127  1  0.67887155  0.84747438  0.57745316  1
  O  O128  1  0.25439361  0.64524688  0.57800818  1
  O  O129  1  0.75032336  0.64205727  0.57979674  1
  O  O130  1  0.07917818  0.50352099  0.57789261  1
  O  O131  1  0.57975561  0.49863870  0.57433120  1
  O  O132  1  0.15278783  0.82288130  0.25635189  1
  O  O133  1  0.64579172  0.81600551  0.25026904  1
  O  O134  1  0.25950860  0.68189049  0.25324530  1
  O  O135  1  0.76093875  0.69444380  0.24919176  1
  O  O136  1  0.08690667  0.48445335  0.25570042  1
  O  O137  1  0.57342130  0.45928556  0.25192538  1
  O  O138  1  0.14575913  0.47411493  0.75089100  1
  O  O139  1  0.65242480  0.48266207  0.75737284  1
  O  O140  1  0.07474462  0.68739706  0.75363043  1
  O  O141  1  0.58736312  0.69021146  0.75638487  1
  O  O142  1  0.26090639  0.82760268  0.74938235  1
  O  O143  1  0.76062363  0.83827303  0.75422183  1
loop_
_geom_bond_atom_site_label_1
_geom_bond_atom_site_label_2
_geom_bond_distance
_geom_bond_site_symmetry_2
Na0 O105 2.424256 1_555
Na0 O107 2.455209 1_555
Na0 O135 2.485552 1_545
Na0 O63 2.592398 1_545
Na0 O133 2.735699 1_545
Na0 O33 2.811182 1_555
Na0 O5 2.886852 1_555
Na1 O136 2.428362 1_555
Na1 O134 2.551695 1_555
Na1 O106 2.559703 1_555
Na1 O64 2.649309 1_555
Na1 O102 2.652143 1_555
Na1 O0 2.729045 1_555
Na1 O20 2.804819 1_555
Na1 O34 2.829488 1_555
Na2 O103 2.436597 1_555
Na2 O107 2.508307 1_555
Na2 O135 2.558531 1_555
Na2 O65 2.589959 1_555
Na2 O137 2.613534 1_555
Na2 O35 2.635078 1_555
Na2 O1 2.933559 1_555
Na3 O132 2.457832 1_655
Na3 O103 2.465233 1_555
Na3 O105 2.516270 1_555
Na3 O136 2.543188 1_655
Na3 O31 2.576989 1_555
Na3 O60 2.758328 1_655
Na3 O22 2.931019 1_655
Na3 O3 2.958163 1_555
Na4 O133 2.317785 1_555
Na4 O102 2.466992 1_555
Na4 O137 2.571732 1_555
Na4 O104 2.588440 1_555
Na4 O30 2.683839 1_555
Na4 O61 2.686742 1_555
Na4 O2 2.826056 1_555
Na4 O23 2.931580 1_555
Na5 O100 2.424312 1_555
Na5 O98 2.443122 1_555
Na5 O142 2.495175 1_555
Na5 O70 2.668109 1_555
Na5 O138 2.724916 1_555
Na5 O28 2.760711 1_555
Na5 O8 2.924004 1_555
Na5 O12 3.016940 1_555
Na6 O138 2.358319 1_655
Na6 O97 2.415445 1_555
Na6 O101 2.553281 1_555
Na6 O25 2.554265 1_555
Na6 O140 2.599329 1_655
Na6 O66 2.857555 1_655
Na6 O11 2.896622 1_555
Na6 O14 2.905946 1_655
Na7 O139 2.450328 1_555
Na7 O96 2.469064 1_555
Na7 O100 2.512789 1_555
Na7 O24 2.537257 1_555
Na7 O141 2.546860 1_555
Na7 O67 2.810029 1_555
Na7 O15 2.890480 1_555
Na7 O10 3.014994 1_555
Na8 O96 2.458812 1_555
Na8 O98 2.485227 1_555
Na8 O142 2.580895 1_545
Na8 O26 2.592445 1_555
Na8 O140 2.603548 1_545
Na8 O68 2.678971 1_545
Na9 O99 2.452508 1_555
Na9 O141 2.478028 1_545
Na9 O143 2.527396 1_545
Na9 O97 2.561474 1_555
Na9 O27 2.702693 1_555
Na9 O69 2.736441 1_545
Na9 O17 2.840828 1_545
Na9 O7 2.861238 1_555
Na10 O86 2.459455 1_555
Na10 O85 2.471103 1_455
Na10 O130 2.501098 1_555
Na10 O128 2.566675 1_555
Na10 O56 2.739911 1_555
Na10 O14 2.743039 1_555
Na10 O42 2.816738 1_555
Na10 O28 2.957575 1_555
Na11 O87 2.460860 1_555
Na11 O131 2.461276 1_555
Na11 O129 2.491124 1_555
Na11 O84 2.516382 1_555
Na11 O57 2.707796 1_555
Na11 O15 2.737756 1_555
Na11 O43 2.791883 1_555
Na11 O29 2.924062 1_555
Na12 O84 2.446028 1_565
Na12 O126 2.543983 1_555
Na12 O88 2.550901 1_555
Na12 O128 2.669419 1_555
Na12 O12 2.681848 1_555
Na12 O26 2.742431 1_565
Na12 O46 2.827535 1_565
Na12 O54 2.844454 1_555
Na13 O127 2.454996 1_555
Na13 O89 2.486789 1_555
Na13 O85 2.518381 1_565
Na13 O129 2.587427 1_555
Na13 O55 2.710197 1_555
Na13 O13 2.728313 1_555
Na13 O47 2.879448 1_565
Na13 O27 2.896202 1_565
Na14 O94 2.428818 1_565
Na14 O91 2.432048 1_455
Na14 O122 2.436126 1_555
Na14 O124 2.550066 1_555
Na14 O22 2.687563 1_555
Na14 O52 2.728147 1_554
Na14 O36 2.823121 1_565
Na15 O123 2.471231 1_555
Na15 O125 2.533020 1_555
Na15 O95 2.543859 1_565
Na15 O90 2.559240 1_555
Na15 O53 2.666401 1_554
Na15 O37 2.748041 1_565
Na15 O23 2.799994 1_555
Na15 O33 2.937266 1_565
Na16 O120 2.415109 1_555
Na16 O90 2.477134 1_555
Na16 O92 2.553442 1_565
Na16 O124 2.635961 1_555
Na16 O48 2.701875 1_554
Na16 O18 2.717915 1_555
Na16 O38 2.848309 1_555
Na16 O34 2.869813 1_555
Na17 O91 2.461359 1_555
Na17 O93 2.543100 1_565
Na17 O121 2.557032 1_555
Na17 O125 2.656345 1_555
Na17 O19 2.665101 1_555
Na17 O35 2.783960 1_555
Na17 O49 2.843958 1_554
Na17 O39 2.864625 1_555
Na18 O81 2.420886 1_555
Na18 O108 2.459818 1_555
Na18 O8 2.492254 1_555
Na18 O82 2.530332 1_555
Na18 O110 2.579226 1_555
Na18 O38 2.693801 1_556
Na19 O80 2.419126 1_655
Na19 O83 2.515177 1_555
Na19 O39 2.521007 1_556
Na19 O109 2.537698 1_555
Na19 O111 2.587867 1_555
Na19 O9 2.715500 1_555
Na20 O82 2.372219 1_545
Na20 O112 2.395161 1_555
Na20 O10 2.500041 1_555
Na20 O110 2.634299 1_555
Na20 O79 2.681551 1_555
Na20 O40 2.816463 1_556
Na20 O68 2.908557 1_545
Na21 O113 2.337183 1_555
Na21 O83 2.381151 1_545
Na21 O11 2.516527 1_555
Na21 O111 2.612223 1_555
Na21 O78 2.658683 1_655
Na21 O41 2.791676 1_556
Na21 O69 2.904942 1_545
Na21 O49 3.012513 1_545
Na22 O108 2.478804 1_555
Na22 O80 2.525861 1_545
Na22 O78 2.526753 1_555
Na22 O112 2.537735 1_555
Na22 O6 2.551984 1_555
Na22 O36 2.705819 1_556
Na22 O70 2.871329 1_555
Na23 O109 2.435797 1_555
Na23 O81 2.465186 1_545
Na23 O79 2.469465 1_555
Na23 O7 2.473544 1_555
Na23 O113 2.584325 1_555
Na23 O37 2.684710 1_556
Na24 O77 2.408843 1_555
Na24 O46 2.477429 1_555
Na24 O74 2.571148 1_545
Na24 O118 2.579295 1_555
Na24 O114 2.588030 1_555
Na24 O4 2.820986 1_555
Na24 O57 2.937412 1_555
Na25 O115 2.407470 1_555
Na25 O76 2.450787 1_655
Na25 O75 2.501310 1_545
Na25 O119 2.514542 1_555
Na25 O47 2.584691 1_555
Na25 O5 2.590488 1_555
Na26 O114 2.440456 1_555
Na26 O72 2.446192 1_545
Na26 O76 2.450733 1_555
Na26 O0 2.541302 1_555
Na26 O116 2.578812 1_555
Na26 O42 2.626769 1_555
Na27 O115 2.444108 1_555
Na27 O117 2.462304 1_555
Na27 O77 2.561481 1_555
Na27 O43 2.569265 1_555
Na27 O73 2.591030 1_545
Na27 O1 2.694961 1_555
Na27 O63 2.907276 1_545
Na28 O116 2.331025 1_555
Na28 O74 2.377576 1_555
Na28 O118 2.579299 1_555
Na28 O73 2.609918 1_555
Na28 O2 2.611686 1_555
Na28 O44 2.725030 1_555
Na29 O75 2.387645 1_555
Na29 O117 2.409625 1_555
Na29 O45 2.522112 1_555
Na29 O119 2.657644 1_555
Na29 O3 2.700369 1_555
Na29 O72 2.702377 1_655
Na30 O75 2.456050 1_555
Na30 O76 2.540331 1_665
Na30 O89 2.547598 1_555
Na30 O86 2.558305 1_665
Na30 O85 2.596142 1_565
Na30 O72 2.641366 1_655
Na31 O84 2.415820 1_555
Na31 O77 2.470653 1_555
Na31 O87 2.487962 1_555
Na31 O88 2.571791 1_545
Na31 O74 2.650282 1_545
Na31 O73 2.691928 1_545
Na32 O91 2.422894 1_455
Na32 O80 2.449124 1_554
Na32 O94 2.527181 1_565
Na32 O93 2.576964 1_465
Na32 O83 2.584639 1_454
Na32 O78 2.656746 1_564
Na33 O82 2.407577 1_545
Na33 O81 2.420310 1_545
Na33 O79 2.576898 1_555
Na33 O95 2.585233 1_556
Na33 O90 2.614470 1_546
Na33 O92 2.700812 1_556
Na34 O96 2.455870 1_555
Na34 O98 2.478391 1_555
Na34 O100 2.501410 1_555
Na34 O108 2.619172 1_555
Na34 O112 2.620665 1_555
Na34 O110 2.844125 1_555
Na35 O99 2.408068 1_555
Na35 O97 2.497755 1_555
Na35 O109 2.541728 1_555
Na35 O113 2.569809 1_555
Na35 O101 2.578702 1_555
Na35 O111 2.883800 1_555
Na36 O114 2.414727 1_555
Na36 O116 2.471403 1_555
Na36 O106 2.580118 1_555
Na36 O102 2.661845 1_555
Na36 O104 2.680714 1_555
Na36 O118 2.752443 1_555
Na37 O117 2.486153 1_555
Na37 O115 2.522658 1_555
Na37 O103 2.545379 1_555
Na37 O107 2.551082 1_555
Na37 O105 2.584584 1_555
Na37 O119 2.721844 1_555
Na38 O136 2.434536 1_555
Na38 O120 2.515856 1_555
Na38 O132 2.520724 1_555
Na38 O122 2.542631 1_555
Na38 O134 2.565040 1_555
Na38 O124 2.686457 1_555
Na39 O135 2.454777 1_555
Na39 O133 2.476046 1_555
Na39 O123 2.490556 1_555
Na39 O121 2.540129 1_555
Na39 O137 2.565688 1_555
Na39 O125 2.647414 1_555
Na40 O142 2.480172 1_555
Na40 O130 2.483103 1_555
Na40 O138 2.499193 1_555
Na40 O126 2.547562 1_555
Na40 O140 2.579865 1_555
Na40 O128 2.643344 1_555
Na41 O127 2.491920 1_555
Na41 O141 2.522250 1_555
Na41 O131 2.522919 1_555
Na41 O129 2.549168 1_555
Na41 O139 2.576904 1_555
Na41 O143 2.614492 1_555
O0 Si0 1.621335 1_555
O0 Sc0 2.122142 1_555
O1 Si1 1.625635 1_545
O1 Sc1 1.994553 1_555
O2 Si2 1.610885 1_555
O2 Sc1 2.059656 1_565
O3 Si3 1.625537 1_555
O3 Sc0 2.018112 1_665
O4 S0 1.488644 1_555
O4 Sc1 2.153845 1_555
O5 Si4 1.626766 1_655
O5 Sc0 1.959610 1_655
O6 Si5 1.645417 1_555
O6 Sc2 1.983005 1_545
O7 Si6 1.629089 1_555
O7 Sc3 2.056011 1_545
O8 Si7 1.635881 1_555
O8 Sc3 1.955444 1_555
O9 S1 1.502869 1_555
O9 Sc2 2.116562 1_655
O10 Si8 1.633693 1_555
O10 Sc3 2.015744 1_545
O11 Si9 1.629847 1_555
O11 Sc2 2.014006 1_645
O12 Si8 1.657059 1_565
O12 Ti1 1.922563 1_565
O13 Si9 1.630457 1_565
O13 Ti0 1.911771 1_565
O14 Si5 1.655129 1_555
O14 Ti0 1.900890 1_455
O15 Si6 1.674139 1_555
O15 Ti1 1.843969 1_555
O16 S1 1.461946 1_455
O16 Ti0 2.254290 1_465
O17 Si7 1.660457 1_555
O17 Ti1 1.889877 1_565
O18 Si2 1.637227 1_555
O18 Ti3 1.914879 1_555
O19 Si3 1.668901 1_555
O19 Ti2 1.900055 1_665
O20 Si4 1.670097 1_555
O20 Ti2 1.872951 1_555
O21 S0 1.476608 1_555
O21 Ti3 2.190245 1_545
O22 Si0 1.674495 1_565
O22 Ti2 1.846904 1_565
O23 Si1 1.695738 1_555
O23 Ti3 1.794949 1_555
O24 Si10 1.617319 1_555
O24 Sc4 2.000717 1_555
O25 Si11 1.644699 1_555
O25 Ti4 1.946950 1_555
O26 Si12 1.626452 1_555
O26 Sc4 2.066414 1_555
O27 Si13 1.684929 1_555
O27 Ti4 1.850368 1_555
O28 S2 1.473729 1_555
O28 Sc4 2.262501 1_555
O29 Si14 1.654594 1_555
O29 Ti4 1.856181 1_555
O30 Si15 1.654819 1_555
O30 Ti5 1.915435 1_555
O31 Si16 1.613401 1_555
O31 Sc5 2.012850 1_555
O32 S3 1.477596 1_555
O32 Ti5 2.221880 1_555
O33 S4 1.475254 1_555
O33 Sc5 2.267315 1_555
O34 Si17 1.696057 1_555
O34 Ti5 1.828133 1_555
O35 Si18 1.621588 1_555
O35 Sc5 2.083673 1_555
O36 Si17 1.627690 1_555
O36 Sc6 1.978668 1_554
O37 Si18 1.648664 1_555
O37 Sc7 1.988046 1_554
O38 Si15 1.614003 1_555
O38 Sc6 2.033291 1_554
O39 Si16 1.644478 1_555
O39 Sc7 2.032842 1_554
O40 S3 1.475219 1_555
O40 Sc6 2.227253 1_554
O41 S4 1.477501 1_555
O41 Sc7 2.240731 1_554
O42 Si12 1.652044 1_555
O42 Sc8 1.968551 1_555
O43 Si13 1.627431 1_555
O43 Sc9 2.003162 1_555
O44 S2 1.481613 1_555
O44 Sc8 2.229228 1_555
O45 Si14 1.609551 1_555
O45 Sc9 2.035793 1_555
O46 Si10 1.650275 1_555
O46 Sc8 2.016529 1_555
O47 Si11 1.613870 1_555
O47 Sc9 2.051086 1_555
O48 Si19 1.673566 1_555
O48 Ti6 1.890932 1_556
O49 Si20 1.666713 1_555
O49 Ti7 1.876217 1_556
O50 S5 1.492414 1_555
O50 Ti6 2.064977 1_556
O51 S6 1.497564 1_555
O51 Ti7 2.025734 1_556
O52 Si21 1.683270 1_555
O52 Ti6 1.861837 1_556
O53 Si22 1.674798 1_555
O53 Ti7 1.877733 1_556
O54 Si23 1.651176 1_555
O54 Ti8 1.907539 1_555
O55 Si24 1.663514 1_555
O55 Ti9 1.911222 1_555
O56 Si25 1.662790 1_555
O56 Ti8 1.888390 1_555
O57 Si26 1.661360 1_555
O57 Ti9 1.908676 1_555
O58 S7 1.492214 1_555
O58 Ti8 2.032158 1_555
O59 S8 1.453372 1_555
O59 Ti9 2.318196 1_555
O60 S7 1.478194 1_555
O60 Ti10 2.258349 1_555
O61 S8 1.494982 1_555
O61 Sc10 2.252359 1_555
O62 Si23 1.656652 1_555
O62 Ti10 1.852287 1_555
O63 Si24 1.647527 1_555
O63 Sc10 1.945661 1_555
O64 Si25 1.663209 1_555
O64 Ti10 1.910853 1_555
O65 Si26 1.635433 1_555
O65 Sc10 1.987781 1_555
O66 S5 1.474829 1_555
O66 Sc11 2.266133 1_555
O67 S6 1.469160 1_555
O67 Ti11 2.355885 1_555
O68 Si21 1.622903 1_555
O68 Sc11 2.014683 1_555
O69 Si22 1.648533 1_555
O69 Ti11 1.937385 1_555
O70 Si19 1.632073 1_555
O70 Sc11 1.969100 1_555
O71 Si20 1.643058 1_555
O71 Ti11 1.880714 1_555
O72 S7 1.490049 1_555
O72 Sc0 2.334886 1_565
O73 S8 1.502621 1_555
O73 Sc1 2.229836 1_565
O74 Si23 1.630864 1_555
O74 Sc1 2.126129 1_565
O75 Si24 1.642912 1_555
O75 Sc0 2.154759 1_665
O76 Si25 1.629292 1_555
O76 Sc0 2.168524 1_555
O77 Si26 1.654755 1_555
O77 Sc1 2.107740 1_555
O78 S5 1.489926 1_555
O78 Sc2 2.302485 1_545
O79 S6 1.488775 1_555
O79 Sc3 2.360654 1_545
O80 Si21 1.643048 1_555
O80 Sc2 2.185880 1_555
O81 Si22 1.632559 1_555
O81 Sc3 2.196268 1_555
O82 Si19 1.633536 1_555
O82 Sc3 2.209096 1_555
O83 Si20 1.632032 1_555
O83 Sc2 2.162720 1_655
O84 Si10 1.669264 1_555
O84 Ti1 2.076526 1_555
O85 Si11 1.679945 1_555
O85 Ti0 1.893888 1_555
O86 Si12 1.637987 1_555
O86 Ti0 1.975350 1_455
O87 Si13 1.638627 1_555
O87 Ti1 1.963564 1_555
O88 S2 1.476511 1_555
O88 Ti1 2.407947 1_565
O89 Si14 1.628828 1_555
O89 Ti0 1.958674 1_565
O90 Si15 1.693536 1_555
O90 Ti3 1.903009 1_555
O91 Si16 1.664958 1_555
O91 Ti2 2.101789 1_665
O92 S3 1.481858 1_555
O92 Ti3 2.287745 1_545
O93 S4 1.476602 1_555
O93 Ti2 2.395991 1_655
O94 Si17 1.627095 1_555
O94 Ti2 1.997215 1_555
O95 Si18 1.662585 1_555
O95 Ti3 1.935746 1_545
O96 Si8 1.632453 1_555
O96 Sc4 2.045615 1_555
O97 Si9 1.649301 1_555
O97 Ti4 2.079732 1_555
O98 Si5 1.627036 1_555
O98 Sc4 2.149623 1_555
O99 Si6 1.640723 1_555
O99 Ti4 1.997975 1_555
O100 Si7 1.621191 1_555
O100 Sc4 2.111319 1_555
O101 S1 1.481341 1_555
O101 Ti4 2.336925 1_555
O102 Si2 1.689106 1_555
O102 Ti5 1.891208 1_555
O103 Si3 1.632697 1_555
O103 Sc5 2.026380 1_555
O104 S0 1.488153 1_555
O104 Ti5 2.289541 1_555
O105 Si4 1.618933 1_655
O105 Sc5 2.091637 1_555
O106 Si0 1.663287 1_555
O106 Ti5 1.935612 1_555
O107 Si1 1.613788 1_545
O107 Sc5 2.140047 1_555
O108 Si19 1.642511 1_555
O108 Sc6 2.024605 1_555
O109 Si20 1.643438 1_555
O109 Sc7 2.071818 1_555
O110 S6 1.485934 1_555
O110 Sc6 2.297235 1_555
O111 S5 1.483516 1_655
O111 Sc7 2.320066 1_555
O112 Si21 1.637776 1_545
O112 Sc6 2.101385 1_555
O113 Si22 1.643070 1_545
O113 Sc7 2.144305 1_555
O114 Si23 1.641491 1_545
O114 Sc8 2.091190 1_555
O115 Si24 1.635173 1_545
O115 Sc9 2.123070 1_555
O116 Si25 1.642065 1_555
O116 Sc8 2.178595 1_555
O117 Si26 1.633902 1_555
O117 Sc9 2.144937 1_555
O118 S8 1.500050 1_555
O118 Sc8 2.315582 1_555
O119 S7 1.479866 1_655
O119 Sc9 2.357046 1_555
O120 Si17 1.637301 1_555
O120 Ti6 2.044449 1_555
O121 Si18 1.652572 1_555
O121 Ti7 1.941770 1_555
O122 Si16 1.671854 1_455
O122 Ti6 1.924099 1_555
O123 Si15 1.638444 1_555
O123 Ti7 2.040733 1_555
O124 S3 1.520131 1_565
O124 Ti6 2.197592 1_555
O125 S4 1.523571 1_565
O125 Ti7 2.153499 1_555
O126 Si12 1.657857 1_565
O126 Ti8 1.927107 1_555
O127 Si13 1.630589 1_565
O127 Ti9 2.026514 1_555
O128 S2 1.520658 1_555
O128 Ti8 2.158157 1_555
O129 Si14 1.681210 1_555
O129 Ti9 1.901941 1_555
O130 Si11 1.653587 1_455
O130 Ti8 1.985971 1_555
O131 Si10 1.648349 1_555
O131 Ti9 1.942143 1_555
O132 Si0 1.635571 1_565
O132 Ti10 1.998856 1_555
O133 Si1 1.630399 1_555
O133 Sc10 2.146502 1_555
O134 Si2 1.641426 1_555
O134 Ti10 1.899352 1_555
O135 Si3 1.648945 1_555
O135 Sc10 2.067693 1_555
O136 Si4 1.650928 1_555
O136 Ti10 2.060310 1_555
O137 S0 1.496873 1_555
O137 Sc10 2.378543 1_555
O138 Si5 1.643082 1_555
O138 Sc11 2.108388 1_555
O139 Si6 1.643140 1_555
O139 Ti11 1.968918 1_555
O140 S1 1.503457 1_455
O140 Sc11 2.305626 1_555
O141 Si7 1.654192 1_555
O141 Ti11 2.033042 1_555
O142 Si8 1.651071 1_565
O142 Sc11 2.036775 1_555
O143 Si9 1.662984 1_565
O143 Ti11 1.855356 1_555
