# generated using pymatgen
data_NaTeF5
_symmetry_space_group_name_H-M   'P 1'
_cell_length_a   5.85766374
_cell_length_b   7.05563316
_cell_length_c   10.10977970
_cell_angle_alpha   90.00000000
_cell_angle_beta   90.00000000
_cell_angle_gamma   90.00000000
_symmetry_Int_Tables_number   1
_chemical_formula_structural   NaTeF5
_chemical_formula_sum   'Na4 Te4 F20'
_cell_volume   417.83240826
_cell_formula_units_Z   4
loop_
 _symmetry_equiv_pos_site_id
 _symmetry_equiv_pos_as_xyz
  1  'x, y, z'
loop_
 _atom_site_type_symbol
 _atom_site_label
 _atom_site_symmetry_multiplicity
 _atom_site_fract_x
 _atom_site_fract_y
 _atom_site_fract_z
 _atom_site_occupancy
  Na  Na0  1  0.25000000  0.32229582  0.99757852  1
  Na  Na1  1  0.75000000  0.67770418  0.00242148  1
  Na  Na2  1  0.75000000  0.82229582  0.50242148  1
  Na  Na3  1  0.25000000  0.17770418  0.49757852  1
  Te  Te0  1  0.25000000  0.84693165  0.76514070  1
  Te  Te1  1  0.75000000  0.15306835  0.23485930  1
  Te  Te2  1  0.75000000  0.34693165  0.73485930  1
  Te  Te3  1  0.25000000  0.65306835  0.26514070  1
  F  F0  1  0.01635402  0.85320009  0.90246006  1
  F  F1  1  0.02302575  0.95048313  0.63516961  1
  F  F2  1  0.47697425  0.54951687  0.13516961  1
  F  F3  1  0.97697425  0.45048313  0.86483039  1
  F  F4  1  0.25000000  0.39041514  0.30794601  1
  F  F5  1  0.75000000  0.60958486  0.69205399  1
  F  F6  1  0.75000000  0.89041514  0.19205399  1
  F  F7  1  0.25000000  0.10958486  0.80794601  1
  F  F8  1  0.01635402  0.64679991  0.40246006  1
  F  F9  1  0.51635402  0.35320009  0.59753994  1
  F  F10  1  0.98364598  0.14679991  0.09753994  1
  F  F11  1  0.47697425  0.95048313  0.63516961  1
  F  F12  1  0.98364598  0.35320009  0.59753994  1
  F  F13  1  0.48364598  0.64679991  0.40246006  1
  F  F14  1  0.48364598  0.85320009  0.90246006  1
  F  F15  1  0.51635402  0.14679991  0.09753994  1
  F  F16  1  0.02302575  0.54951687  0.13516961  1
  F  F17  1  0.52302575  0.45048313  0.86483039  1
  F  F18  1  0.97697425  0.04951687  0.36483039  1
  F  F19  1  0.52302575  0.04951687  0.36483039  1
loop_
_geom_bond_atom_site_label_1
_geom_bond_atom_site_label_2
_geom_bond_distance
_geom_bond_site_symmetry_2
F0 Te0 1.949965 1_555
F0 Na1 2.233557 1_456
F1 Te0 2.006993 1_555
F1 Na2 2.275272 1_455
F1 Na3 2.504558 1_565
F2 Te3 2.006993 1_555
F2 Na1 2.275272 1_555
F2 Na0 2.504558 1_554
F3 Te2 2.006993 1_555
F3 Na0 2.275272 1_655
F3 Na1 2.504558 1_556
F4 Te3 1.903042 1_555
F4 Na3 2.434722 1_555
F5 Te2 1.903042 1_555
F5 Na2 2.434722 1_555
F6 Te1 1.903042 1_565
F6 Na1 2.434722 1_555
F7 Te0 1.903042 1_545
F7 Na0 2.434722 1_555
F8 Te3 1.949965 1_555
F8 Na2 2.233557 1_455
F9 Te2 1.949965 1_555
F9 Na3 2.233557 1_555
F10 Te1 1.949965 1_555
F10 Na0 2.233557 1_654
F11 Te0 2.006993 1_555
F11 Na2 2.275272 1_555
F11 Na3 2.504558 1_565
F12 Te2 1.949965 1_555
F12 Na3 2.233557 1_655
F13 Te3 1.949965 1_555
F13 Na2 2.233557 1_555
F14 Te0 1.949965 1_555
F14 Na1 2.233557 1_556
F15 Te1 1.949965 1_555
F15 Na0 2.233557 1_554
F16 Te3 2.006993 1_555
F16 Na1 2.275272 1_455
F16 Na0 2.504558 1_554
F17 Te2 2.006993 1_555
F17 Na0 2.275272 1_555
F17 Na1 2.504558 1_556
F18 Te1 2.006993 1_555
F18 Na3 2.275272 1_655
F18 Na2 2.504558 1_545
F19 Te1 2.006993 1_555
F19 Na3 2.275272 1_555
F19 Na2 2.504558 1_545
