# generated using pymatgen
data_Na2YNbSi2SO12
_symmetry_space_group_name_H-M   'P 1'
_cell_length_a   9.19445417
_cell_length_b   9.19445384
_cell_length_c   22.93738133
_cell_angle_alpha   91.02412886
_cell_angle_beta   88.97587116
_cell_angle_gamma   119.17825585
_symmetry_Int_Tables_number   1
_chemical_formula_structural   Na2YNbSi2SO12
_chemical_formula_sum   'Na12 Y6 Nb6 Si12 S6 O72'
_cell_volume   1692.66098856
_cell_formula_units_Z   6
loop_
 _symmetry_equiv_pos_site_id
 _symmetry_equiv_pos_as_xyz
  1  'x, y, z'
loop_
 _atom_site_type_symbol
 _atom_site_label
 _atom_site_symmetry_multiplicity
 _atom_site_fract_x
 _atom_site_fract_y
 _atom_site_fract_z
 _atom_site_occupancy
  Na  Na0  1  0.97689150  0.62478492  0.24899262  1
  Na  Na1  1  0.37521508  0.02310850  0.74899262  1
  Na  Na2  1  0.64355850  0.95811792  0.58232562  1
  Na  Na3  1  0.04188208  0.35644150  0.08232562  1
  Na  Na4  1  0.31022450  0.29145192  0.91565962  1
  Na  Na5  1  0.70854808  0.68977550  0.41565962  1
  Na  Na6  1  0.01289126  0.98004886  0.49656861  1
  Na  Na7  1  0.01995114  0.98710874  0.99656861  1
  Na  Na8  1  0.67955826  0.31338186  0.82990161  1
  Na  Na9  1  0.68661814  0.32044174  0.32990161  1
  Na  Na10  1  0.34622426  0.64671586  0.16323561  1
  Na  Na11  1  0.35328414  0.65377574  0.66323561  1
  Y  Y0  1  0.99605576  0.00720371  0.35321668  1
  Y  Y1  1  0.99279629  0.00394424  0.85321668  1
  Y  Y2  1  0.66272276  0.34053671  0.68654968  1
  Y  Y3  1  0.65946329  0.33727724  0.18654968  1
  Y  Y4  1  0.32938876  0.67387071  0.01988368  1
  Y  Y5  1  0.32612929  0.67061124  0.51988368  1
  Nb  Nb0  1  0.99858237  0.00512399  0.64649284  1
  Nb  Nb1  1  0.99487601  0.00141763  0.14649284  1
  Nb  Nb2  1  0.66524937  0.33845699  0.97982584  1
  Nb  Nb3  1  0.66154301  0.33475063  0.47982584  1
  Nb  Nb4  1  0.33191537  0.67179099  0.31315984  1
  Nb  Nb5  1  0.32820901  0.66808463  0.81315984  1
  Si  Si0  1  0.70140572  0.71465984  0.25310212  1
  Si  Si1  1  0.01103052  0.30539831  0.25027081  1
  Si  Si2  1  0.28534016  0.29859428  0.75310212  1
  Si  Si3  1  0.69460169  0.98896948  0.75027081  1
  Si  Si4  1  0.36807272  0.04799284  0.58643512  1
  Si  Si5  1  0.67769752  0.63873131  0.58360381  1
  Si  Si6  1  0.95200716  0.63192728  0.08643512  1
  Si  Si7  1  0.36126869  0.32230248  0.08360381  1
  Si  Si8  1  0.03473872  0.38132684  0.91976912  1
  Si  Si9  1  0.34436352  0.97206531  0.91693781  1
  Si  Si10  1  0.61867316  0.96526128  0.41976912  1
  Si  Si11  1  0.02793469  0.65563648  0.41693781  1
  S  S0  1  0.28597865  0.98564098  0.24833596  1
  S  S1  1  0.01435902  0.71402135  0.74833596  1
  S  S2  1  0.95264565  0.31897398  0.58166896  1
  S  S3  1  0.68102602  0.04735435  0.08166896  1
  S  S4  1  0.61931165  0.65230798  0.91500296  1
  S  S5  1  0.34769202  0.38068835  0.41500296  1
  O  O0  1  0.21567913  0.00948862  0.30277500  1
  O  O1  1  0.81198478  0.78788984  0.31041323  1
  O  O2  1  0.00337556  0.20207345  0.30567169  1
  O  O3  1  0.21211016  0.18801522  0.81041323  1
  O  O4  1  0.99051138  0.78432087  0.80277500  1
  O  O5  1  0.79792655  0.99662444  0.80567169  1
  O  O6  1  0.79942215  0.97500617  0.68987318  1
  O  O7  1  0.15657039  0.18431327  0.69703221  1
  O  O8  1  0.03030579  0.82181166  0.69745803  1
  O  O9  1  0.81568673  0.84342961  0.19703221  1
  O  O10  1  0.02499383  0.20057785  0.18987318  1
  O  O11  1  0.17818834  0.96969421  0.19745803  1
  O  O12  1  0.88234613  0.34282162  0.63610800  1
  O  O13  1  0.47865178  0.12122284  0.64374623  1
  O  O14  1  0.67004256  0.53540645  0.63900469  1
  O  O15  1  0.87877716  0.52134822  0.14374623  1
  O  O16  1  0.65717838  0.11765387  0.13610800  1
  O  O17  1  0.46459355  0.32995744  0.13900469  1
  O  O18  1  0.46608915  0.30833917  0.02320618  1
  O  O19  1  0.82323739  0.51764627  0.03036521  1
  O  O20  1  0.69697279  0.15514466  0.03079103  1
  O  O21  1  0.48235373  0.17676261  0.53036521  1
  O  O22  1  0.69166083  0.53391085  0.52320618  1
  O  O23  1  0.84485534  0.30302721  0.53079103  1
  O  O24  1  0.54901213  0.67615562  0.96944200  1
  O  O25  1  0.14531778  0.45455684  0.97708023  1
  O  O26  1  0.33670856  0.86874045  0.97233869  1
  O  O27  1  0.54544316  0.85468222  0.47708023  1
  O  O28  1  0.32384438  0.45098787  0.46944200  1
  O  O29  1  0.13125955  0.66329144  0.47233869  1
  O  O30  1  0.13275515  0.64167317  0.35654018  1
  O  O31  1  0.48990339  0.85098027  0.36369921  1
  O  O32  1  0.36363879  0.48847866  0.36412503  1
  O  O33  1  0.14901973  0.51009661  0.86369921  1
  O  O34  1  0.35832683  0.86724485  0.85654018  1
  O  O35  1  0.51152134  0.63636121  0.86412503  1
  O  O36  1  0.99537834  0.81273567  0.41413968  1
  O  O37  1  0.80491052  0.99258407  0.41237426  1
  O  O38  1  0.21684946  0.20842355  0.40846728  1
  O  O39  1  0.00741593  0.19508948  0.91237426  1
  O  O40  1  0.18726433  0.00462166  0.91413968  1
  O  O41  1  0.79157645  0.78315054  0.90846728  1
  O  O42  1  0.94913723  0.15162480  0.58341894  1
  O  O43  1  0.18427963  0.04213626  0.59188756  1
  O  O44  1  0.85242707  0.82690785  0.58950932  1
  O  O45  1  0.95786374  0.81572037  0.09188756  1
  O  O46  1  0.84837520  0.05086277  0.08341894  1
  O  O47  1  0.17309215  0.14757293  0.08950932  1
  O  O48  1  0.66204534  0.14606867  0.74747268  1
  O  O49  1  0.47157752  0.32591707  0.74570726  1
  O  O50  1  0.88351646  0.54175655  0.74180028  1
  O  O51  1  0.67408293  0.52842248  0.24570726  1
  O  O52  1  0.85393133  0.33795466  0.24747268  1
  O  O53  1  0.45824345  0.11648354  0.24180028  1
  O  O54  1  0.61580423  0.48495780  0.91675194  1
  O  O55  1  0.85094663  0.37546926  0.92522056  1
  O  O56  1  0.51909407  0.16024085  0.92284232  1
  O  O57  1  0.62453074  0.14905337  0.42522056  1
  O  O58  1  0.51504220  0.38419577  0.41675194  1
  O  O59  1  0.83975915  0.48090593  0.42284232  1
  O  O60  1  0.32871134  0.47940267  0.08080668  1
  O  O61  1  0.13824352  0.65925107  0.07904126  1
  O  O62  1  0.55018246  0.87509055  0.07513428  1
  O  O63  1  0.34074893  0.86175648  0.57904126  1
  O  O64  1  0.52059733  0.67128866  0.58080668  1
  O  O65  1  0.12490945  0.44981754  0.57513428  1
  O  O66  1  0.28247023  0.81829180  0.25008594  1
  O  O67  1  0.51761263  0.70880326  0.25855456  1
  O  O68  1  0.18576007  0.49357485  0.25617632  1
  O  O69  1  0.29119674  0.48238737  0.75855456  1
  O  O70  1  0.18170820  0.71752977  0.75008594  1
  O  O71  1  0.50642515  0.81423993  0.75617632  1
loop_
_geom_bond_atom_site_label_1
_geom_bond_atom_site_label_2
_geom_bond_distance
_geom_bond_site_symmetry_2
Na0 O52 2.307679 1_555
Na0 O51 2.478325 1_555
Na0 O66 2.487350 1_655
Na0 O15 2.589456 1_555
Na0 O68 2.729116 1_655
Na0 O30 2.838826 1_655
Na0 O1 2.932226 1_555
Na1 O48 2.307680 1_555
Na1 O49 2.478325 1_555
Na1 O70 2.487350 1_545
Na1 O13 2.589456 1_555
Na1 O71 2.729116 1_545
Na1 O34 2.838826 1_545
Na1 O3 2.932226 1_555
Na2 O64 2.307670 1_555
Na2 O63 2.478335 1_555
Na2 O42 2.487350 1_565
Na2 O27 2.589435 1_555
Na2 O44 2.729116 1_555
Na2 O6 2.838826 1_555
Na2 O13 2.932226 1_565
Na3 O60 2.307671 1_555
Na3 O61 2.478335 1_555
Na3 O46 2.487350 1_455
Na3 O25 2.589435 1_554
Na3 O47 2.729116 1_555
Na3 O10 2.838826 1_555
Na3 O15 2.932226 1_455
Na4 O40 2.307679 1_555
Na4 O39 2.478325 1_555
Na4 O54 2.487356 1_555
Na4 O3 2.589456 1_555
Na4 O56 2.729130 1_555
Na4 O18 2.838812 1_556
Na4 O25 2.932226 1_555
Na5 O36 2.307680 1_555
Na5 O37 2.478325 1_555
Na5 O58 2.487356 1_555
Na5 O1 2.589456 1_555
Na5 O59 2.729130 1_555
Na5 O22 2.838812 1_555
Na5 O27 2.932226 1_555
Na6 O36 2.373310 1_455
Na6 O44 2.583267 1_455
Na6 O43 2.605899 1_565
Na6 O42 2.747433 1_465
Na6 O37 2.784682 1_455
Na6 O38 2.861155 1_565
Na7 O40 2.373310 1_565
Na7 O47 2.583267 1_566
Na7 O45 2.605898 1_456
Na7 O46 2.747433 1_466
Na7 O39 2.784682 1_565
Na7 O41 2.861155 1_455
Na8 O48 2.373310 1_555
Na8 O56 2.583267 1_555
Na8 O55 2.605899 1_555
Na8 O54 2.747433 1_555
Na8 O49 2.784682 1_555
Na8 O50 2.861155 1_555
Na9 O52 2.373310 1_555
Na9 O59 2.583267 1_555
Na9 O57 2.605898 1_555
Na9 O58 2.747433 1_555
Na9 O51 2.784682 1_555
Na9 O53 2.861155 1_555
Na10 O60 2.373310 1_555
Na10 O68 2.583267 1_555
Na10 O67 2.605899 1_555
Na10 O66 2.747433 1_555
Na10 O61 2.784682 1_555
Na10 O62 2.861155 1_555
Na11 O64 2.373310 1_555
Na11 O71 2.583267 1_555
Na11 O69 2.605898 1_555
Na11 O70 2.747433 1_555
Na11 O63 2.784682 1_555
Na11 O65 2.861155 1_555
Nb0 O7 1.956197 1_655
Nb0 O6 1.967291 1_545
Nb0 O43 1.992983 1_655
Nb0 O44 2.009581 1_545
Nb0 O42 2.191902 1_555
Nb0 O8 2.203269 1_645
Nb1 O9 1.956197 1_545
Nb1 O10 1.967291 1_655
Nb1 O45 1.992983 1_545
Nb1 O47 2.009581 1_655
Nb1 O46 2.191902 1_555
Nb1 O11 2.203269 1_645
Nb2 O19 1.956197 1_556
Nb2 O18 1.967291 1_556
Nb2 O55 1.992983 1_555
Nb2 O56 2.009581 1_555
Nb2 O54 2.191902 1_555
Nb2 O20 2.203269 1_556
Nb3 O21 1.956197 1_555
Nb3 O22 1.967291 1_555
Nb3 O57 1.992983 1_555
Nb3 O59 2.009581 1_555
Nb3 O58 2.191902 1_555
Nb3 O23 2.203269 1_555
Nb4 O31 1.956197 1_555
Nb4 O30 1.967291 1_555
Nb4 O67 1.992983 1_555
Nb4 O68 2.009581 1_555
Nb4 O66 2.191902 1_555
Nb4 O32 2.203269 1_555
Nb5 O33 1.956197 1_555
Nb5 O34 1.967291 1_555
Nb5 O69 1.992983 1_555
Nb5 O71 2.009581 1_555
Nb5 O70 2.191902 1_555
Nb5 O35 2.203269 1_555
O0 S0 1.457615 1_545
O0 Y0 2.300591 1_455
O1 Si0 1.601183 1_555
O1 Y0 2.134344 1_565
O2 Si1 1.580206 1_555
O2 Y0 2.086566 1_455
O3 Si2 1.601183 1_555
O3 Y1 2.134344 1_455
O4 S1 1.457615 1_655
O4 Y1 2.300591 1_565
O5 Si3 1.580206 1_555
O5 Y1 2.086566 1_565
O6 Si3 1.712052 1_555
O7 Si2 1.718430 1_555
O8 S1 1.503053 1_555
O9 Si0 1.718430 1_555
O10 Si1 1.712052 1_555
O11 S0 1.503053 1_555
O12 S2 1.457615 1_555
O12 Y2 2.300591 1_555
O13 Si4 1.601183 1_555
O13 Y2 2.134344 1_555
O14 Si5 1.580206 1_555
O14 Y2 2.086566 1_555
O15 Si6 1.601183 1_555
O15 Y3 2.134344 1_555
O16 S3 1.457615 1_555
O16 Y3 2.300591 1_555
O17 Si7 1.580206 1_555
O17 Y3 2.086566 1_555
O18 Si7 1.712052 1_555
O19 Si6 1.718430 1_555
O20 S3 1.503053 1_555
O21 Si4 1.718430 1_555
O22 Si5 1.712052 1_555
O23 S2 1.503053 1_555
O24 S4 1.457615 1_555
O24 Y4 2.300591 1_556
O25 Si8 1.601183 1_555
O25 Y4 2.134344 1_556
O26 Si9 1.580206 1_555
O26 Y4 2.086566 1_556
O27 Si10 1.601183 1_555
O27 Y5 2.134344 1_555
O28 S5 1.457615 1_555
O28 Y5 2.300591 1_555
O29 Si11 1.580206 1_555
O29 Y5 2.086566 1_555
O30 Si11 1.712052 1_555
O31 Si10 1.718430 1_555
O32 S5 1.503053 1_555
O33 Si8 1.718430 1_555
O34 Si9 1.712052 1_555
O35 S4 1.503053 1_555
O36 Si11 1.614226 1_655
O36 Y0 2.286481 1_565
O37 Si10 1.611125 1_555
O37 Y0 2.153822 1_565
O38 S5 1.455493 1_555
O38 Y0 2.344386 1_455
O39 Si8 1.611125 1_555
O39 Y1 2.153822 1_455
O40 Si9 1.614226 1_545
O40 Y1 2.286481 1_455
O41 S4 1.455493 1_555
O41 Y1 2.344386 1_565
O42 S2 1.524456 1_555
O43 Si4 1.666789 1_555
O44 Si5 1.697639 1_555
O45 Si6 1.666789 1_555
O46 S3 1.524456 1_555
O47 Si7 1.697639 1_555
O48 Si3 1.614226 1_545
O48 Y2 2.286481 1_555
O49 Si2 1.611125 1_555
O49 Y2 2.153822 1_555
O50 S1 1.455493 1_655
O50 Y2 2.344386 1_555
O51 Si0 1.611125 1_555
O51 Y3 2.153822 1_555
O52 Si1 1.614226 1_655
O52 Y3 2.286481 1_555
O53 S0 1.455493 1_545
O53 Y3 2.344386 1_555
O54 S4 1.524468 1_555
O55 Si8 1.666774 1_655
O56 Si9 1.697636 1_545
O57 Si10 1.666774 1_545
O58 S5 1.524469 1_555
O59 Si11 1.697636 1_655
O60 Si7 1.614239 1_555
O60 Y4 2.286481 1_555
O61 Si6 1.611111 1_455
O61 Y4 2.153822 1_555
O62 S3 1.455487 1_565
O62 Y4 2.344386 1_555
O63 Si4 1.611110 1_565
O63 Y5 2.153822 1_555
O64 Si5 1.614239 1_555
O64 Y5 2.286481 1_555
O65 S2 1.455488 1_455
O65 Y5 2.344386 1_555
O66 S0 1.524456 1_555
O67 Si0 1.666789 1_555
O68 Si1 1.697639 1_555
O69 Si2 1.666789 1_555
O70 S1 1.524456 1_555
O71 Si3 1.697639 1_555
