# generated using pymatgen
data_MgMn4(CuO4)2
_symmetry_space_group_name_H-M   'P 1'
_cell_length_a   6.27258325
_cell_length_b   5.81950913
_cell_length_c   6.63077261
_cell_angle_alpha   59.67371485
_cell_angle_beta   59.51508716
_cell_angle_gamma   61.75559570
_symmetry_Int_Tables_number   1
_chemical_formula_structural   MgMn4(CuO4)2
_chemical_formula_sum   'Mg1 Mn4 Cu2 O8'
_cell_volume   172.20612064
_cell_formula_units_Z   1
loop_
 _symmetry_equiv_pos_site_id
 _symmetry_equiv_pos_as_xyz
  1  'x, y, z'
loop_
 _atom_site_type_symbol
 _atom_site_label
 _atom_site_symmetry_multiplicity
 _atom_site_fract_x
 _atom_site_fract_y
 _atom_site_fract_z
 _atom_site_occupancy
  Mg  Mg0  1  0.07909336  0.19916395  0.58178412  1
  Mn  Mn0  1  0.02129702  0.91512555  0.08327238  1
  Mn  Mn1  1  0.11434896  0.63899158  0.63660623  1
  Mn  Mn2  1  0.63926878  0.59876838  0.11880744  1
  Mn  Mn3  1  0.60650622  0.14314945  0.62560908  1
  Cu  Cu0  1  0.31456814  0.17427425  0.12047918  1
  Cu  Cu1  1  0.60516995  0.64982834  0.62842182  1
  O  O0  1  0.32984599  0.42252523  0.41607576  1
  O  O1  1  0.31480683  0.90373680  0.42111249  1
  O  O2  1  0.37066396  0.41750363  0.80180172  1
  O  O3  1  0.80998464  0.40765191  0.41314608  1
  O  O4  1  0.41506630  0.86544570  0.85857443  1
  O  O5  1  0.92148084  0.35782639  0.86798945  1
  O  O6  1  0.86006177  0.86125325  0.45792978  1
  O  O7  1  0.89991924  0.87183761  0.85380603  1
loop_
_geom_bond_atom_site_label_1
_geom_bond_atom_site_label_2
_geom_bond_distance
_geom_bond_site_symmetry_2
Mg0 O0 2.027332 1_555
Mg0 O1 2.030381 1_545
Mg0 O3 2.044132 1_455
Mg0 O5 2.105558 1_455
Mg0 O7 2.155185 1_445
Mn0 O6 2.063269 1_455
Mn0 O4 2.104612 1_554
Mn0 O7 2.168448 1_454
Mn0 O5 2.175626 1_464
Mn1 O1 1.945228 1_555
Mn1 O0 1.948184 1_555
Mn1 O2 1.961071 1_555
Mn1 O5 1.987445 1_455
Mn1 O7 1.999939 1_455
Mn1 O6 2.009481 1_455
Mn2 O0 2.159894 1_555
Mn2 O5 2.210027 1_554
Mn2 O3 2.234723 1_555
Mn2 O7 2.238379 1_554
Mn2 O4 2.248542 1_554
Mn2 O1 2.710095 1_555
Mn3 O3 1.956603 1_555
Mn3 O4 1.968150 1_545
Mn3 O2 1.999280 1_555
Mn3 O6 2.008793 1_545
Mn3 O0 2.253889 1_555
Mn3 O7 2.415031 1_545
Cu0 O1 1.812163 1_545
Cu0 O2 1.813565 1_554
Cu1 O2 1.977421 1_555
Cu1 O6 1.992853 1_555
Cu1 O4 1.999147 1_555
Cu1 O3 2.032626 1_555
Cu1 O1 2.309132 1_555
Cu1 O5 2.574575 1_555
