# generated using pymatgen
data_Na2HfMgP2SO12
_symmetry_space_group_name_H-M   'P 1'
_cell_length_a   8.91858913
_cell_length_b   8.86529260
_cell_length_c   22.71345408
_cell_angle_alpha   90.04718085
_cell_angle_beta   90.00000000
_cell_angle_gamma   120.19906940
_symmetry_Int_Tables_number   1
_chemical_formula_structural   Na2HfMgP2SO12
_chemical_formula_sum   'Na12 Hf6 Mg6 P12 S6 O72'
_cell_volume   1552.13028736
_cell_formula_units_Z   6
loop_
 _symmetry_equiv_pos_site_id
 _symmetry_equiv_pos_as_xyz
  1  'x, y, z'
loop_
 _atom_site_type_symbol
 _atom_site_label
 _atom_site_symmetry_multiplicity
 _atom_site_fract_x
 _atom_site_fract_y
 _atom_site_fract_z
 _atom_site_occupancy
  Na  Na0  1  0.99552699  0.63093741  0.24652716  1
  Na  Na1  1  0.63541146  0.63093607  0.74652712  1
  Na  Na2  1  0.66219357  0.96426931  0.57986124  1
  Na  Na3  1  0.30207689  0.96426989  0.07986117  1
  Na  Na4  1  0.32885677  0.29760310  0.91319412  1
  Na  Na5  1  0.96874414  0.29760387  0.41319423  1
  Na  Na6  1  0.99819419  0.98466603  0.49521131  1
  Na  Na7  1  0.98647271  0.98466708  0.99521075  1
  Na  Na8  1  0.66486178  0.31800015  0.82854391  1
  Na  Na9  1  0.65313815  0.31799962  0.32854449  1
  Na  Na10  1  0.33152781  0.65133246  0.16187798  1
  Na  Na11  1  0.31980401  0.65133195  0.66187797  1
  Hf  Hf0  1  0.00054475  0.00839188  0.64786428  1
  Hf  Hf1  1  0.00784588  0.00838963  0.14786349  1
  Hf  Hf2  1  0.66720918  0.34172332  0.98119727  1
  Hf  Hf3  1  0.67451566  0.34172545  0.48119802  1
  Hf  Hf4  1  0.33387343  0.67505653  0.31453098  1
  Hf  Hf5  1  0.34118284  0.67505666  0.81453101  1
  Mg  Mg0  1  0.00026638  0.99713138  0.35127314  1
  Mg  Mg1  1  0.99686286  0.99712794  0.85127255  1
  Mg  Mg2  1  0.66693171  0.33046197  0.68460592  1
  Mg  Mg3  1  0.66353128  0.33046401  0.18460584  1
  Mg  Mg4  1  0.33359503  0.66379466  0.01793991  1
  Mg  Mg5  1  0.33020076  0.66379607  0.51794059  1
  P  P0  1  0.29636378  0.00934325  0.25154035  1
  P  P1  1  0.99534521  0.29028933  0.25315408  1
  P  P2  1  0.29494560  0.29029175  0.75315406  1
  P  P3  1  0.71297550  0.00934044  0.75153903  1
  P  P4  1  0.96303258  0.34267486  0.58487294  1
  P  P5  1  0.66201485  0.62362636  0.58648768  1
  P  P6  1  0.96160882  0.62362543  0.08648764  1
  P  P7  1  0.37964536  0.34267699  0.08487215  1
  P  P8  1  0.62969916  0.67600889  0.91820538  1
  P  P9  1  0.32868235  0.95695758  0.91982114  1
  P  P10  1  0.62827645  0.95695610  0.41982120  1
  P  P11  1  0.04631061  0.67600957  0.41820748  1
  S  S0  1  0.70887959  0.70835529  0.25074813  1
  S  S1  1  -0.00052728  0.70835357  0.75074786  1
  S  S2  1  0.37554520  0.04168857  0.58408161  1
  S  S3  1  0.66614355  0.04168832  0.08408191  1
  S  S4  1  0.04221370  0.37502275  0.91741487  1
  S  S5  1  0.33281185  0.37502473  0.41741484  1
  O  O0  1  0.20261409  0.02405375  0.30428660  1
  O  O1  1  0.81631528  0.78952230  0.30248728  1
  O  O2  1  0.97375407  0.18501806  0.30815125  1
  O  O3  1  0.21126361  0.18501776  0.80815115  1
  O  O4  1  0.97320648  0.78952342  0.80248714  1
  O  O5  1  0.82143902  0.02405438  0.80428661  1
  O  O6  1  0.78990156  0.96667058  0.69449163  1
  O  O7  1  0.17823501  0.20142594  0.69752598  1
  O  O8  1  0.02951135  0.81782145  0.69700207  1
  O  O9  1  0.78830994  0.81782113  0.19700205  1
  O  O10  1  0.02319047  0.20142679  0.19752579  1
  O  O11  1  0.17676793  0.96666980  0.19449140  1
  O  O12  1  0.86928462  0.35739142  0.63762292  1
  O  O13  1  0.48298218  0.12285832  0.63582337  1
  O  O14  1  0.64042157  0.51835575  0.64148777  1
  O  O15  1  0.87793244  0.51835628  0.14148762  1
  O  O16  1  0.63987488  0.12285747  0.13582335  1
  O  O17  1  0.48810588  0.35739144  0.13762354  1
  O  O18  1  0.45657085  0.30000723  0.02782832  1
  O  O19  1  0.84490220  0.53476205  0.03086198  1
  O  O20  1  0.69617884  0.15115866  0.03033864  1
  O  O21  1  0.45497815  0.15115931  0.53033888  1
  O  O22  1  0.68985866  0.53476098  0.53086229  1
  O  O23  1  0.84343590  0.30000769  0.52782807  1
  O  O24  1  0.53595170  0.69072266  0.97095558  1
  O  O25  1  0.14965031  0.45619098  0.96915552  1
  O  O26  1  0.30708897  0.85168547  0.97481955  1
  O  O27  1  0.54459862  0.85168524  0.47481980  1
  O  O28  1  0.30654247  0.45619072  0.46915568  1
  O  O29  1  0.15477251  0.69072201  0.47095496  1
  O  O30  1  0.12323849  0.63333886  0.36115972  1
  O  O31  1  0.51156965  0.86809344  0.36419403  1
  O  O32  1  0.36284549  0.48448878  0.36367047  1
  O  O33  1  0.12164513  0.48448846  0.86367024  1
  O  O34  1  0.35652544  0.86809366  0.86419392  1
  O  O35  1  0.51010195  0.63333918  0.86116019  1
  O  O36  1  0.01966521  0.82951901  0.40920999  1
  O  O37  1  0.81277673  0.98936192  0.41103263  1
  O  O38  1  0.17721396  0.20202191  0.41003996  1
  O  O39  1  0.02480604  0.20202293  0.91003995  1
  O  O40  1  0.17658394  0.98936220  0.91103279  1
  O  O41  1  0.80985237  0.82951815  0.90920981  1
  O  O42  1  0.97135150  0.16658518  0.58955024  1
  O  O43  1  0.19959689  0.02311273  0.58967211  1
  O  O44  1  0.83237830  0.81045398  0.59021290  1
  O  O45  1  0.97807446  0.81045409  0.09021252  1
  O  O46  1  0.82351623  0.02311220  0.08967268  1
  O  O47  1  0.19523338  0.16658640  0.08954999  1
  O  O48  1  0.68633377  0.16285552  0.74254659  1
  O  O49  1  0.47944500  0.32269807  0.74436941  1
  O  O50  1  0.84388301  0.53535928  0.74337641  1
  O  O51  1  0.69147576  0.53535935  0.24337680  1
  O  O52  1  0.84325123  0.32269820  0.24436929  1
  O  O53  1  0.47652063  0.16285477  0.24254662  1
  O  O54  1  0.63802074  0.49992603  0.92288651  1
  O  O55  1  0.86626505  0.35645067  0.92300896  1
  O  O56  1  0.49904660  0.14379060  0.92354904  1
  O  O57  1  0.64474364  0.14379117  0.42354909  1
  O  O58  1  0.49018293  0.35645092  0.42300860  1
  O  O59  1  0.86190321  0.49992488  0.42288682  1
  O  O60  1  0.35300045  0.49618532  0.07587879  1
  O  O61  1  0.14611434  0.65603081  0.07770167  1
  O  O62  1  0.51054998  0.86868930  0.07670905  1
  O  O63  1  0.35814174  0.86868821  0.57670867  1
  O  O64  1  0.50991957  0.65603040  0.57770163  1
  O  O65  1  0.14318741  0.49618692  0.57587894  1
  O  O66  1  0.30468873  0.83325467  0.25621855  1
  O  O67  1  0.53293282  0.68978080  0.25634063  1
  O  O68  1  0.16571510  0.47712339  0.25688049  1
  O  O69  1  0.31140987  0.47712270  0.75688082  1
  O  O70  1  0.15685028  0.68978108  0.75634041  1
  O  O71  1  0.52856833  0.83325460  0.75621848  1
loop_
_geom_bond_atom_site_label_1
_geom_bond_atom_site_label_2
_geom_bond_distance
_geom_bond_site_symmetry_2
Na0 O52 2.362285 1_555
Na0 O51 2.401005 1_555
Na0 O66 2.427393 1_655
Na0 O68 2.510231 1_655
Na0 O15 2.594455 1_555
Na0 O11 2.834483 1_655
Na0 O30 2.837704 1_655
Na0 O1 2.899030 1_555
Na1 O49 2.362276 1_555
Na1 O50 2.400983 1_555
Na1 O71 2.427394 1_555
Na1 O69 2.510227 1_555
Na1 O14 2.594442 1_555
Na1 O6 2.834496 1_555
Na1 O35 2.837716 1_555
Na1 O4 2.899017 1_555
Na2 O64 2.362284 1_555
Na2 O63 2.401006 1_555
Na2 O42 2.427360 1_565
Na2 O44 2.510211 1_555
Na2 O27 2.594500 1_555
Na2 O23 2.834500 1_565
Na2 O6 2.837647 1_555
Na2 O13 2.899075 1_565
Na3 O61 2.362285 1_555
Na3 O62 2.401022 1_555
Na3 O47 2.427375 1_565
Na3 O45 2.510228 1_455
Na3 O26 2.594508 1_554
Na3 O18 2.834490 1_565
Na3 O11 2.837649 1_555
Na3 O16 2.899059 1_565
Na4 O40 2.362300 1_545
Na4 O39 2.401000 1_555
Na4 O54 2.427418 1_555
Na4 O56 2.510236 1_555
Na4 O3 2.594531 1_555
Na4 O35 2.834492 1_555
Na4 O18 2.837743 1_556
Na4 O25 2.899026 1_555
Na5 O37 2.362308 1_545
Na5 O38 2.401005 1_655
Na5 O59 2.427402 1_555
Na5 O57 2.510222 1_555
Na5 O2 2.594537 1_555
Na5 O30 2.834489 1_655
Na5 O23 2.837729 1_555
Na5 O28 2.899055 1_655
Na6 O36 2.450453 1_655
Na6 O37 2.541932 1_555
Na6 O38 2.629775 1_665
Na6 O44 2.633668 1_555
Na6 O43 2.707175 1_665
Na6 O42 2.762695 1_565
Na7 O41 2.450458 1_555
Na7 O40 2.541910 1_655
Na7 O39 2.629771 1_665
Na7 O45 2.633672 1_556
Na7 O46 2.707193 1_566
Na7 O47 2.762697 1_666
Na8 O48 2.450371 1_555
Na8 O49 2.541863 1_555
Na8 O50 2.629726 1_555
Na8 O56 2.633726 1_555
Na8 O55 2.707248 1_555
Na8 O54 2.762792 1_555
Na9 O53 2.450384 1_555
Na9 O52 2.541864 1_555
Na9 O51 2.629733 1_555
Na9 O57 2.633710 1_555
Na9 O58 2.707247 1_555
Na9 O59 2.762779 1_555
Na10 O60 2.450420 1_555
Na10 O61 2.541876 1_555
Na10 O62 2.629743 1_555
Na10 O68 2.633670 1_555
Na10 O67 2.707218 1_555
Na10 O66 2.762729 1_555
Na11 O65 2.450403 1_555
Na11 O64 2.541898 1_555
Na11 O63 2.629739 1_555
Na11 O69 2.633683 1_555
Na11 O70 2.707201 1_555
Na11 O71 2.762739 1_555
Hf0 O7 1.995213 1_555
Hf0 O6 2.022209 1_445
Hf0 O42 2.039443 1_455
Hf0 O44 2.095691 1_445
Hf0 O8 2.146827 1_545
Hf0 O43 2.163982 1_555
Hf1 O10 1.995241 1_555
Hf1 O11 2.022210 1_545
Hf1 O47 2.039448 1_555
Hf1 O45 2.095669 1_445
Hf1 O9 2.146825 1_445
Hf1 O46 2.163958 1_455
Hf2 O19 1.995279 1_556
Hf2 O18 2.022230 1_556
Hf2 O54 2.039437 1_555
Hf2 O56 2.095615 1_555
Hf2 O20 2.146840 1_556
Hf2 O55 2.163934 1_555
Hf3 O22 1.995259 1_555
Hf3 O23 2.022212 1_555
Hf3 O59 2.039420 1_555
Hf3 O57 2.095630 1_555
Hf3 O21 2.146853 1_555
Hf3 O58 2.163972 1_555
Hf4 O31 1.995261 1_555
Hf4 O30 2.022174 1_555
Hf4 O66 2.039416 1_555
Hf4 O68 2.095637 1_555
Hf4 O32 2.146852 1_555
Hf4 O67 2.163997 1_555
Hf5 O34 1.995254 1_555
Hf5 O35 2.022192 1_555
Hf5 O71 2.039428 1_555
Hf5 O69 2.095643 1_555
Hf5 O33 2.146841 1_555
Hf5 O70 2.163983 1_555
Mg0 O0 2.004950 1_565
Mg0 O2 2.046605 1_465
Mg0 O36 2.057059 1_555
Mg0 O1 2.065395 1_455
Mg0 O37 2.127787 1_455
Mg0 O38 2.164201 1_565
Mg1 O5 2.004950 1_565
Mg1 O3 2.046617 1_665
Mg1 O41 2.057054 1_555
Mg1 O4 2.065361 1_555
Mg1 O40 2.127790 1_655
Mg1 O39 2.164239 1_665
Mg2 O12 2.004926 1_555
Mg2 O14 2.046609 1_555
Mg2 O48 2.057087 1_555
Mg2 O13 2.065326 1_555
Mg2 O49 2.127843 1_555
Mg2 O50 2.164291 1_555
Mg3 O17 2.004923 1_555
Mg3 O15 2.046592 1_555
Mg3 O53 2.057105 1_555
Mg3 O16 2.065340 1_555
Mg3 O52 2.127829 1_555
Mg3 O51 2.164288 1_555
Mg4 O24 2.004974 1_554
Mg4 O26 2.046591 1_554
Mg4 O60 2.057094 1_555
Mg4 O25 2.065334 1_554
Mg4 O61 2.127776 1_555
Mg4 O62 2.164271 1_555
Mg5 O29 2.004977 1_555
Mg5 O27 2.046595 1_555
Mg5 O65 2.057080 1_555
Mg5 O28 2.065355 1_555
Mg5 O64 2.127786 1_555
Mg5 O63 2.164235 1_555
O0 P0 1.503615 1_555
O1 S0 1.456676 1_555
O2 P1 1.513150 1_555
O3 P2 1.513161 1_555
O4 S1 1.456684 1_655
O5 P3 1.503649 1_555
O6 P3 1.597818 1_565
O7 P2 1.572883 1_555
O8 S1 1.498068 1_555
O9 S0 1.498068 1_555
O10 P1 1.572872 1_455
O11 P0 1.597843 1_565
O12 P4 1.503692 1_555
O13 S2 1.456732 1_555
O14 P5 1.513198 1_555
O15 P6 1.513190 1_555
O16 S3 1.456728 1_555
O17 P7 1.503701 1_555
O18 P7 1.597749 1_555
O19 P6 1.572821 1_555
O20 S3 1.498038 1_555
O21 S2 1.498027 1_555
O22 P5 1.572828 1_555
O23 P4 1.597778 1_555
O24 P8 1.503685 1_555
O25 S4 1.456708 1_555
O26 P9 1.513174 1_555
O27 P10 1.513172 1_555
O28 S5 1.456704 1_555
O29 P11 1.503642 1_555
O30 P11 1.597837 1_555
O31 P10 1.572848 1_555
O32 S5 1.498030 1_555
O33 S4 1.498042 1_555
O34 P9 1.572852 1_555
O35 P8 1.597784 1_555
O36 P11 1.508678 1_555
O37 P10 1.534444 1_555
O38 S5 1.471232 1_555
O39 S4 1.471196 1_555
O40 P9 1.534472 1_555
O41 P8 1.508663 1_555
O42 P4 1.603301 1_555
O43 S2 1.498575 1_555
O44 P5 1.589683 1_555
O45 P6 1.589686 1_555
O46 S3 1.498579 1_555
O47 P7 1.603321 1_555
O48 P3 1.508692 1_555
O49 P2 1.534424 1_555
O50 S1 1.471150 1_655
O51 S0 1.471167 1_555
O52 P1 1.534446 1_555
O53 P0 1.508684 1_555
O54 P8 1.603259 1_555
O55 S4 1.498599 1_655
O56 P9 1.589716 1_545
O57 P10 1.589740 1_545
O58 S5 1.498559 1_555
O59 P11 1.603278 1_655
O60 P7 1.508653 1_555
O61 P6 1.534484 1_455
O62 S3 1.471192 1_565
O63 S2 1.471211 1_565
O64 P5 1.534434 1_555
O65 P4 1.508676 1_455
O66 P0 1.603321 1_565
O67 S0 1.498571 1_555
O68 P1 1.589741 1_455
O69 P2 1.589714 1_555
O70 S1 1.498607 1_555
O71 P3 1.603282 1_565
