# generated using pymatgen
data_ThSnI6
_symmetry_space_group_name_H-M   'P 1'
_cell_length_a   7.82364584
_cell_length_b   7.82364584
_cell_length_c   14.21970000
_cell_angle_alpha   90.00000000
_cell_angle_beta   90.00000000
_cell_angle_gamma   119.99999864
_symmetry_Int_Tables_number   1
_chemical_formula_structural   ThSnI6
_chemical_formula_sum   'Th2 Sn2 I12'
_cell_volume   753.77102085
_cell_formula_units_Z   2
loop_
 _symmetry_equiv_pos_site_id
 _symmetry_equiv_pos_as_xyz
  1  'x, y, z'
loop_
 _atom_site_type_symbol
 _atom_site_label
 _atom_site_symmetry_multiplicity
 _atom_site_fract_x
 _atom_site_fract_y
 _atom_site_fract_z
 _atom_site_occupancy
  Th  Th0  1  0.66666700  0.33333300  0.75000000  1
  Th  Th1  1  0.33333300  0.66666700  0.25000000  1
  Sn  Sn0  1  0.00000000  0.00000000  0.00000000  1
  Sn  Sn1  1  0.00000000  0.00000000  0.50000000  1
  I  I0  1  0.66255900  0.00804400  0.62585100  1
  I  I1  1  0.99195600  0.65451500  0.62585100  1
  I  I2  1  0.33744100  0.34548500  0.12585100  1
  I  I3  1  0.65451500  0.99195600  0.12585100  1
  I  I4  1  0.00804400  0.66255900  0.12585100  1
  I  I5  1  0.65451500  0.66255900  0.37414900  1
  I  I6  1  0.00804400  0.34548500  0.37414900  1
  I  I7  1  0.33744100  0.99195600  0.37414900  1
  I  I8  1  0.66255900  0.65451500  0.87414900  1
  I  I9  1  0.34548500  0.00804400  0.87414900  1
  I  I10  1  0.99195600  0.33744100  0.87414900  1
  I  I11  1  0.34548500  0.33744100  0.62585100  1
loop_
_geom_bond_atom_site_label_1
_geom_bond_atom_site_label_2
_geom_bond_distance
_geom_bond_site_symmetry_2
I0 Th0 3.084233 1_555
I0 Sn1 3.215951 1_655
I1 Th0 3.084236 1_555
I1 Sn1 3.215951 1_665
I2 Th1 3.084239 1_555
I2 Sn0 3.215951 1_555
I3 Th1 3.084236 1_555
I3 Sn0 3.215951 1_665
I4 Th1 3.084233 1_555
I4 Sn0 3.215951 1_565
I5 Th1 3.084239 1_555
I5 Sn1 3.215951 1_665
I6 Th1 3.084236 1_555
I6 Sn1 3.215951 1_555
I7 Th1 3.084233 1_555
I7 Sn1 3.215951 1_565
I8 Th0 3.084239 1_555
I8 Sn0 3.215951 1_666
I9 Th0 3.084236 1_555
I9 Sn0 3.215951 1_556
I10 Th0 3.084233 1_555
I10 Sn0 3.215951 1_656
I11 Th0 3.084239 1_555
I11 Sn1 3.215951 1_555
