# generated using pymatgen
data_CaMnGe
_symmetry_space_group_name_H-M   'P 1'
_cell_length_a   4.02091600
_cell_length_b   4.02091600
_cell_length_c   7.54491500
_cell_angle_alpha   90.00000000
_cell_angle_beta   90.00000000
_cell_angle_gamma   90.00000000
_symmetry_Int_Tables_number   1
_chemical_formula_structural   CaMnGe
_chemical_formula_sum   'Ca2 Mn2 Ge2'
_cell_volume   121.98441628
_cell_formula_units_Z   2
loop_
 _symmetry_equiv_pos_site_id
 _symmetry_equiv_pos_as_xyz
  1  'x, y, z'
loop_
 _atom_site_type_symbol
 _atom_site_label
 _atom_site_symmetry_multiplicity
 _atom_site_fract_x
 _atom_site_fract_y
 _atom_site_fract_z
 _atom_site_occupancy
  Ca  Ca0  1  0.50000000  0.00000000  0.33393900  1
  Ca  Ca1  1  0.00000000  0.50000000  0.66606100  1
  Mn  Mn0  1  0.50000000  0.50000000  0.00000000  1
  Mn  Mn1  1  0.00000000  0.00000000  0.00000000  1
  Ge  Ge0  1  0.50000000  0.00000000  0.79860400  1
  Ge  Ge1  1  0.00000000  0.50000000  0.20139600  1
loop_
_geom_bond_atom_site_label_1
_geom_bond_atom_site_label_2
_geom_bond_distance
_geom_bond_site_symmetry_2
Ca0 Ge1 3.013957 1_545
Ca0 Ge1 3.013957 1_555
Ca0 Ge1 3.013957 1_655
Ca0 Ge1 3.013957 1_645
Ca0 Mn0 3.223357 1_555
Ca0 Mn1 3.223357 1_555
Ca0 Mn0 3.223357 1_545
Ca0 Mn1 3.223357 1_655
Ca0 Ge0 3.505858 1_555
Ca1 Ge0 3.013957 1_565
Ca1 Ge0 3.013957 1_465
Ca1 Ge0 3.013957 1_555
Ca1 Ge0 3.013957 1_455
Ca1 Mn0 3.223357 1_556
Ca1 Mn1 3.223357 1_556
Ca1 Mn0 3.223357 1_456
Ca1 Mn1 3.223357 1_566
Ca1 Ge1 3.505858 1_555
Ge0 Mn0 2.520093 1_556
Ge0 Mn1 2.520093 1_656
Ge0 Mn1 2.520093 1_556
Ge0 Mn0 2.520093 1_546
Ge1 Mn0 2.520093 1_455
Ge1 Mn1 2.520093 1_565
Ge1 Mn0 2.520093 1_555
Ge1 Mn1 2.520093 1_555
