# generated using pymatgen
data_LiBiO2
_symmetry_space_group_name_H-M   'P 1'
_cell_length_a   4.66726330
_cell_length_b   5.31476186
_cell_length_c   9.79423429
_cell_angle_alpha   105.72070492
_cell_angle_beta   103.75739568
_cell_angle_gamma   90.04649205
_symmetry_Int_Tables_number   1
_chemical_formula_structural   LiBiO2
_chemical_formula_sum   'Li4 Bi4 O8'
_cell_volume   226.59908448
_cell_formula_units_Z   4
loop_
 _symmetry_equiv_pos_site_id
 _symmetry_equiv_pos_as_xyz
  1  'x, y, z'
loop_
 _atom_site_type_symbol
 _atom_site_label
 _atom_site_symmetry_multiplicity
 _atom_site_fract_x
 _atom_site_fract_y
 _atom_site_fract_z
 _atom_site_occupancy
  Li  Li0  1  0.99987367  0.24938584  0.49909478  1
  Li  Li1  1  0.50039588  0.75072456  0.50126016  1
  Li  Li2  1  0.00012633  0.75061416  0.50090522  1
  Li  Li3  1  0.49960412  0.24927544  0.49873984  1
  Bi  Bi0  1  0.08969660  0.33241624  0.17954214  1
  Bi  Bi1  1  0.91030340  0.66758376  0.82045786  1
  Bi  Bi2  1  0.41033148  0.15328081  0.82042507  1
  Bi  Bi3  1  0.58966852  0.84671919  0.17957493  1
  O  O0  1  0.20235760  0.45481817  0.40476850  1
  O  O1  1  0.79764240  0.54518183  0.59523150  1
  O  O2  1  0.29760077  0.05010867  0.59523157  1
  O  O3  1  0.70239923  0.94989133  0.40476843  1
  O  O4  1  0.08244816  0.92691603  0.16463092  1
  O  O5  1  0.91755184  0.07308397  0.83536908  1
  O  O6  1  0.41738826  0.76272003  0.83545804  1
  O  O7  1  0.58261174  0.23727997  0.16454196  1
loop_
_geom_bond_atom_site_label_1
_geom_bond_atom_site_label_2
_geom_bond_distance
_geom_bond_site_symmetry_2
Li0 O2 1.964610 1_655
Li0 O1 1.967710 1_555
Li0 O0 1.974559 1_655
Li0 O3 1.975917 1_545
Li1 O3 1.966407 1_555
Li1 O0 1.966513 1_555
Li1 O2 1.974314 1_565
Li1 O1 1.976139 1_555
Li2 O3 1.964610 1_455
Li2 O0 1.967710 1_555
Li2 O1 1.974559 1_455
Li2 O2 1.975917 1_565
Li3 O2 1.966407 1_555
Li3 O1 1.966513 1_555
Li3 O3 1.974314 1_545
Li3 O0 1.976139 1_555
Bi0 O0 2.058128 1_555
Bi0 O4 2.119920 1_545
Bi0 O7 2.381372 1_455
Bi0 O7 2.385839 1_555
Bi1 O1 2.058128 1_555
Bi1 O5 2.119920 1_565
Bi1 O6 2.381372 1_655
Bi1 O6 2.385839 1_555
Bi2 O2 2.057760 1_555
Bi2 O6 2.120111 1_545
Bi2 O5 2.382854 1_555
Bi2 O5 2.384346 1_455
Bi3 O3 2.057760 1_555
Bi3 O7 2.120111 1_565
Bi3 O4 2.382854 1_555
Bi3 O4 2.384346 1_655
