# generated using pymatgen
data_Na8Y3TaSi4(PO12)2
_symmetry_space_group_name_H-M   'P 1'
_cell_length_a   9.40335013
_cell_length_b   9.41235519
_cell_length_c   22.83957067
_cell_angle_alpha   90.12489012
_cell_angle_beta   90.01376371
_cell_angle_gamma   119.96143881
_symmetry_Int_Tables_number   1
_chemical_formula_structural   Na8Y3TaSi4(PO12)2
_chemical_formula_sum   'Na24 Y9 Ta3 Si12 P6 O72'
_cell_volume   1751.32425207
_cell_formula_units_Z   3
loop_
 _symmetry_equiv_pos_site_id
 _symmetry_equiv_pos_as_xyz
  1  'x, y, z'
loop_
 _atom_site_type_symbol
 _atom_site_label
 _atom_site_symmetry_multiplicity
 _atom_site_fract_x
 _atom_site_fract_y
 _atom_site_fract_z
 _atom_site_occupancy
  Na  Na0  1  0.63183084  0.99764725  0.25733459  1
  Na  Na1  1  0.36737610  0.36832363  0.25277826  1
  Na  Na2  1  0.00168590  0.63161337  0.25279977  1
  Na  Na3  1  0.64120207  0.64280413  0.73927714  1
  Na  Na4  1  0.99566955  0.34994514  0.74204308  1
  Na  Na5  1  0.36137619  0.00867632  0.74957860  1
  Na  Na6  1  0.29649473  0.34164689  0.58184024  1
  Na  Na7  1  0.03692361  0.69852785  0.57752219  1
  Na  Na8  1  0.66599773  0.95656404  0.57761449  1
  Na  Na9  1  0.29262233  0.95657702  0.07587862  1
  Na  Na10  1  0.65822516  0.69550918  0.07908989  1
  Na  Na11  1  0.04669672  0.34590512  0.07945151  1
  Na  Na12  1  0.98218133  0.68192816  0.91428002  1
  Na  Na13  1  0.70439344  0.02712566  0.91056089  1
  Na  Na14  1  0.31678801  0.29278618  0.91094387  1
  Na  Na15  1  0.98386153  0.30689592  0.41958393  1
  Na  Na16  1  0.32882110  0.02077760  0.41953263  1
  Na  Na17  1  0.69052372  0.67558293  0.41921895  1
  Na  Na18  1  0.99552036  0.99880340  0.49874208  1
  Na  Na19  1  0.00514151  0.99988144  0.99605441  1
  Na  Na20  1  0.65973612  0.32480248  0.82839010  1
  Na  Na21  1  0.66427353  0.33095146  0.33760275  1
  Na  Na22  1  0.32442727  0.65747296  0.16533608  1
  Na  Na23  1  0.33467867  0.65720889  0.66022033  1
  Y  Y0  1  0.00050227  0.99974641  0.35074025  1
  Y  Y1  1  0.99980734  0.00247621  0.84843783  1
  Y  Y2  1  0.99482111  0.00263714  0.64962957  1
  Y  Y3  1  0.00224230  0.99924647  0.14445453  1
  Y  Y4  1  0.66691991  0.33477192  0.68363611  1
  Y  Y5  1  0.66741383  0.33649787  0.18250166  1
  Y  Y6  1  0.33231875  0.66501752  0.01512252  1
  Y  Y7  1  0.33375656  0.66439663  0.51421230  1
  Y  Y8  1  0.33305513  0.66527250  0.32192580  1
  Ta  Ta0  1  0.66494579  0.33732695  0.97853399  1
  Ta  Ta1  1  0.67201985  0.33845407  0.48309748  1
  Ta  Ta2  1  0.33575590  0.66516715  0.81922231  1
  Si  Si0  1  0.30373821  0.31118579  0.75280028  1
  Si  Si1  1  0.68605199  0.99102502  0.75287431  1
  Si  Si2  1  0.96404425  0.33223774  0.58516178  1
  Si  Si3  1  0.66965398  0.63314161  0.58485501  1
  Si  Si4  1  0.96051827  0.62924720  0.08204262  1
  Si  Si5  1  0.37002252  0.33123446  0.08232571  1
  Si  Si6  1  0.63033886  0.66070174  0.91965507  1
  Si  Si7  1  0.02972757  0.37064734  0.91879771  1
  Si  Si8  1  0.33972271  0.96852859  0.91961091  1
  Si  Si9  1  0.63820540  0.97883502  0.41772629  1
  Si  Si10  1  0.34056536  0.36084124  0.41744219  1
  Si  Si11  1  0.02263298  0.66108770  0.41790943  1
  P  P0  1  0.30143972  0.99401415  0.24848971  1
  P  P1  1  0.69401942  0.69933362  0.24827780  1
  P  P2  1  0.00357824  0.30401297  0.24845419  1
  P  P3  1  0.01228883  0.69939563  0.75272752  1
  P  P4  1  0.37225276  0.04182880  0.58245913  1
  P  P5  1  0.67035410  0.04627779  0.08008870  1
  O  O0  1  0.21374488  0.00896457  0.30335835  1
  O  O1  1  0.79537342  0.78931715  0.30313459  1
  O  O2  1  0.99363231  0.20345684  0.30317279  1
  O  O3  1  0.22261439  0.19690721  0.80981260  1
  O  O4  1  0.98573326  0.77869991  0.80730717  1
  O  O5  1  0.79745172  0.01904218  0.81039096  1
  O  O6  1  0.76690595  0.95210839  0.69546570  1
  O  O7  1  0.18696123  0.22921851  0.69485073  1
  O  O8  1  0.04114895  0.80753877  0.69793054  1
  O  O9  1  0.78228601  0.79875870  0.19256057  1
  O  O10  1  0.01402642  0.21547646  0.19249304  1
  O  O11  1  0.20056668  0.98323194  0.19296810  1
  O  O12  1  0.88267515  0.34496548  0.64588509  1
  O  O13  1  0.46479435  0.11907257  0.63982457  1
  O  O14  1  0.65079289  0.53606487  0.64527233  1
  O  O15  1  0.88079916  0.52843814  0.14180131  1
  O  O16  1  0.65401278  0.12428561  0.13698288  1
  O  O17  1  0.46730747  0.34427912  0.14231609  1
  O  O18  1  0.48481857  0.32036788  0.02582872  1
  O  O19  1  0.83659528  0.51224832  0.02537134  1
  O  O20  1  0.67857524  0.15775551  0.02640273  1
  O  O21  1  0.47703887  0.15261294  0.52949101  1
  O  O22  1  0.67097480  0.51223377  0.52960183  1
  O  O23  1  0.83940637  0.32528767  0.52979077  1
  O  O24  1  0.56221114  0.69570171  0.97910030  1
  O  O25  1  0.13397589  0.44329279  0.97811300  1
  O  O26  1  0.30881163  0.86642148  0.97911200  1
  O  O27  1  0.55700847  0.85852029  0.47347691  1
  O  O28  1  0.30147081  0.44326759  0.47308787  1
  O  O29  1  0.14072364  0.69892262  0.47429063  1
  O  O30  1  0.09816438  0.61998087  0.35979042  1
  O  O31  1  0.52274533  0.90110766  0.35916242  1
  O  O32  1  0.38054614  0.47701362  0.35922265  1
  O  O33  1  0.13832630  0.50218582  0.86427420  1
  O  O34  1  0.35946841  0.85830202  0.86473841  1
  O  O35  1  0.49640934  0.63776895  0.86545304  1
  O  O36  1  0.98459237  0.81100598  0.41218460  1
  O  O37  1  0.82576675  0.01414270  0.41199452  1
  O  O38  1  0.18714694  0.17419682  0.41218409  1
  O  O39  1  0.99983793  0.18614058  0.91139103  1
  O  O40  1  0.18553450  0.99876245  0.91163337  1
  O  O41  1  0.81625198  0.80732363  0.90966956  1
  O  O42  1  0.97081659  0.16181024  0.58023836  1
  O  O43  1  0.20438790  0.03513589  0.58095392  1
  O  O44  1  0.84483884  0.80533636  0.58054167  1
  O  O45  1  0.95860940  0.80246370  0.07811261  1
  O  O46  1  0.83275693  0.04108325  0.07869441  1
  O  O47  1  0.19196706  0.16157573  0.07777470  1
  O  O48  1  0.65490945  0.14662583  0.74873379  1
  O  O49  1  0.49215795  0.34671861  0.74948711  1
  O  O50  1  0.86429628  0.52338976  0.74813953  1
  O  O51  1  0.67610915  0.52515382  0.24937251  1
  O  O52  1  0.84669389  0.32078191  0.24964619  1
  O  O53  1  0.47735715  0.14731123  0.24868929  1
  O  O54  1  0.62979866  0.48154600  0.92203822  1
  O  O55  1  0.84857892  0.36448475  0.92152170  1
  O  O56  1  0.51673154  0.14805642  0.92214321  1
  O  O57  1  0.65008481  0.16056803  0.42779430  1
  O  O58  1  0.50816214  0.34504529  0.42751353  1
  O  O59  1  0.83878516  0.49114378  0.42758012  1
  O  O60  1  0.35311996  0.49535628  0.08038438  1
  O  O61  1  0.14574127  0.65670890  0.07963742  1
  O  O62  1  0.52049350  0.87282768  0.07715753  1
  O  O63  1  0.35076134  0.86846688  0.57849613  1
  O  O64  1  0.51047045  0.65869409  0.58050105  1
  O  O65  1  0.14517826  0.49646726  0.58097217  1
  O  O66  1  0.31331319  0.83496456  0.24987727  1
  O  O67  1  0.52130316  0.68387934  0.24964758  1
  O  O68  1  0.16084185  0.47654435  0.24970321  1
  O  O69  1  0.30964283  0.49226967  0.76222502  1
  O  O70  1  0.17366104  0.68870366  0.76044223  1
  O  O71  1  0.50204183  0.81995232  0.76220090  1
loop_
_geom_bond_atom_site_label_1
_geom_bond_atom_site_label_2
_geom_bond_distance
_geom_bond_site_symmetry_2
Na0 O53 2.485612 1_565
Na0 O31 2.523121 1_555
Na0 O66 2.600428 1_555
Na0 O67 2.600916 1_555
Na0 O52 2.688504 1_565
Na0 O16 2.964171 1_565
Na1 O51 2.516617 1_555
Na1 O67 2.574633 1_555
Na1 O68 2.605861 1_555
Na1 O32 2.614355 1_555
Na1 O17 2.740506 1_555
Na1 O53 2.748411 1_555
Na2 O52 2.535511 1_455
Na2 O68 2.560581 1_555
Na2 O66 2.579395 1_555
Na2 O30 2.627858 1_555
Na2 O51 2.705261 1_455
Na2 O15 2.747278 1_455
Na3 O14 2.389229 1_555
Na3 O49 2.426301 1_555
Na3 O71 2.634866 1_555
Na3 O6 2.729483 1_555
Na3 O69 2.755793 1_555
Na3 O50 2.839212 1_555
Na4 O12 2.429644 1_555
Na4 O50 2.494810 1_555
Na4 O69 2.601903 1_655
Na4 O7 2.779536 1_655
Na4 O70 2.794266 1_655
Na4 O48 2.798156 1_555
Na5 O48 2.392774 1_555
Na5 O70 2.634617 1_545
Na5 O13 2.704136 1_555
Na5 O71 2.708693 1_545
Na5 O49 2.779884 1_555
Na5 O8 2.887465 1_545
Na5 O34 2.985374 1_545
Na5 O3 3.005557 1_555
Na6 O65 2.493921 1_555
Na6 O43 2.564694 1_555
Na6 O64 2.637742 1_555
Na6 O28 2.655620 1_555
Na6 O42 2.658411 1_455
Na6 O7 2.786993 1_555
Na7 O44 2.468080 1_455
Na7 O29 2.551332 1_555
Na7 O63 2.559890 1_555
Na7 O65 2.567861 1_555
Na7 O43 2.745793 1_565
Na7 O8 2.926465 1_555
Na8 O64 2.430850 1_555
Na8 O42 2.533770 1_565
Na8 O27 2.569748 1_555
Na8 O63 2.649511 1_555
Na8 O44 2.692586 1_555
Na8 O6 2.861159 1_555
Na9 O26 2.397676 1_554
Na9 O61 2.447175 1_555
Na9 O47 2.538620 1_565
Na9 O62 2.626939 1_555
Na9 O45 2.724213 1_455
Na9 O11 2.859914 1_555
Na10 O24 2.455847 1_554
Na10 O45 2.480386 1_555
Na10 O60 2.526429 1_555
Na10 O62 2.573749 1_555
Na10 O9 2.806607 1_555
Na10 O46 2.818073 1_565
Na11 O25 2.475801 1_554
Na11 O60 2.496607 1_555
Na11 O46 2.552200 1_455
Na11 O61 2.589193 1_555
Na11 O47 2.691585 1_555
Na11 O10 2.811542 1_555
Na12 O41 2.382961 1_555
Na12 O4 2.603730 1_555
Na12 O55 2.605009 1_555
Na12 O40 2.618861 1_655
Na12 O54 2.885800 1_555
Na13 O39 2.409420 1_555
Na13 O5 2.464229 1_555
Na13 O56 2.546515 1_555
Na13 O41 2.749610 1_545
Na13 O55 2.771267 1_555
Na13 O20 2.975755 1_556
Na13 O34 2.997245 1_545
Na14 O40 2.402268 1_545
Na14 O3 2.474966 1_555
Na14 O54 2.580404 1_555
Na14 O39 2.627223 1_455
Na14 O56 2.831181 1_555
Na14 O35 3.002246 1_555
Na14 O18 3.005701 1_556
Na15 O37 2.395630 1_555
Na15 O59 2.695119 1_555
Na15 O57 2.732523 1_555
Na15 O38 2.761645 1_655
Na15 O2 2.846690 1_555
Na15 O28 2.867570 1_655
Na15 O23 2.906098 1_555
Na15 O30 2.925554 1_655
Na16 O38 2.410532 1_555
Na16 O57 2.630860 1_555
Na16 O58 2.654987 1_555
Na16 O36 2.831749 1_445
Na16 O21 2.836675 1_555
Na16 O0 2.846198 1_555
Na16 O29 2.921557 1_545
Na16 O31 2.922536 1_545
Na17 O36 2.403655 1_555
Na17 O58 2.707319 1_555
Na17 O59 2.722611 1_555
Na17 O37 2.784563 1_565
Na17 O1 2.847270 1_555
Na17 O27 2.868362 1_555
Na17 O32 2.900437 1_555
Na17 O22 2.913495 1_555
Na18 O42 2.493253 1_565
Na18 O44 2.500595 1_555
Na18 O37 2.593116 1_565
Na18 O43 2.612414 1_665
Na18 O36 2.616590 1_555
Na18 O38 2.631596 1_665
Na19 O47 2.490316 1_566
Na19 O45 2.521951 1_456
Na19 O40 2.571885 1_555
Na19 O39 2.630045 1_465
Na19 O46 2.639451 1_466
Na19 O41 2.664528 1_455
Na20 O48 2.456652 1_555
Na20 O49 2.469458 1_555
Na20 O56 2.635026 1_555
Na20 O50 2.641725 1_555
Na20 O55 2.673864 1_555
Na20 O54 2.689243 1_555
Na21 O58 2.565982 1_555
Na21 O57 2.575624 1_555
Na21 O59 2.589011 1_555
Na21 O53 2.673829 1_555
Na21 O52 2.674339 1_555
Na21 O51 2.688377 1_555
Na22 O68 2.525565 1_555
Na22 O60 2.562097 1_555
Na22 O61 2.576951 1_555
Na22 O66 2.586622 1_555
Na22 O67 2.594947 1_555
Na22 O62 2.801911 1_555
Na23 O64 2.454859 1_555
Na23 O65 2.456437 1_555
Na23 O63 2.678935 1_555
Na23 O69 2.746680 1_555
Na23 O71 2.796981 1_555
Na23 O70 2.840256 1_555
O0 P0 1.544633 1_545
O0 Y0 2.242126 1_545
O1 P1 1.544014 1_555
O1 Y0 2.235930 1_655
O2 P2 1.543769 1_655
O2 Y0 2.234648 1_645
O3 Si0 1.619096 1_555
O3 Y1 2.166822 1_455
O4 P3 1.534845 1_655
O4 Y1 2.247049 1_565
O5 Si1 1.616930 1_545
O5 Y1 2.167095 1_555
O6 Si1 1.645599 1_555
O6 Y2 2.213699 1_565
O7 Si0 1.643609 1_555
O7 Y2 2.240572 1_455
O8 P3 1.551092 1_555
O8 Y2 2.363586 1_465
O9 P1 1.553686 1_555
O9 Y3 2.271076 1_655
O10 P2 1.553998 1_555
O10 Y3 2.263449 1_545
O11 P0 1.555891 1_555
O11 Y3 2.238050 1_555
O12 Si2 1.616976 1_555
O12 Y4 2.162294 1_555
O13 P4 1.538127 1_555
O13 Y4 2.207166 1_555
O14 Si3 1.616858 1_555
O14 Y4 2.162074 1_555
O15 Si4 1.618886 1_555
O15 Y5 2.131094 1_555
O16 P5 1.536193 1_555
O16 Y5 2.196784 1_555
O17 Si5 1.617325 1_555
O17 Y5 2.127336 1_555
O18 Si5 1.717886 1_555
O18 Ta0 1.947517 1_554
O19 Si4 1.719668 1_555
O19 Ta0 1.948704 1_554
O20 P5 1.592185 1_555
O20 Ta0 2.071915 1_554
O21 P4 1.581632 1_555
O21 Ta1 2.085604 1_555
O22 Si3 1.701666 1_555
O22 Ta1 1.952475 1_555
O23 Si2 1.702816 1_555
O23 Ta1 1.955695 1_555
O24 Si6 1.603607 1_555
O24 Y6 2.193577 1_556
O25 Si7 1.609230 1_555
O25 Y6 2.156887 1_556
O26 Si8 1.606805 1_555
O26 Y6 2.178116 1_556
O27 Si9 1.621683 1_555
O27 Y7 2.188214 1_555
O28 Si10 1.622683 1_555
O28 Y7 2.160226 1_555
O29 Si11 1.618786 1_555
O29 Y7 2.195779 1_555
O30 Si11 1.639779 1_555
O30 Y8 2.206871 1_555
O31 Si9 1.644617 1_555
O31 Y8 2.206475 1_555
O32 Si10 1.643497 1_555
O32 Y8 2.204925 1_555
O33 Si7 1.694382 1_555
O33 Ta2 2.005446 1_555
O34 Si8 1.693633 1_555
O34 Ta2 2.005442 1_555
O35 Si6 1.700509 1_555
O35 Ta2 1.962933 1_555
O36 Si11 1.625165 1_655
O36 Y0 2.212066 1_655
O37 Si9 1.628831 1_545
O37 Y0 2.213156 1_645
O38 Si10 1.627708 1_555
O38 Y0 2.203667 1_545
O39 Si7 1.623177 1_655
O39 Y1 2.245987 1_555
O40 Si8 1.621284 1_555
O40 Y1 2.279168 1_465
O41 Si6 1.613861 1_555
O41 Y1 2.270378 1_565
O42 Si2 1.640478 1_555
O42 Y2 2.270528 1_555
O43 P4 1.548363 1_555
O43 Y2 2.416340 1_455
O44 Si3 1.638357 1_555
O44 Y2 2.301684 1_565
O45 Si4 1.642063 1_555
O45 Y3 2.263460 1_655
O46 P5 1.552459 1_555
O46 Y3 2.362017 1_645
O47 Si5 1.640978 1_555
O47 Y3 2.263941 1_545
O48 Si1 1.633600 1_545
O48 Y4 2.274029 1_555
O49 Si0 1.632505 1_555
O49 Y4 2.271630 1_555
O50 P3 1.545470 1_655
O50 Y4 2.337320 1_555
O51 P1 1.562419 1_555
O51 Y5 2.309877 1_555
O52 P2 1.560306 1_655
O52 Y5 2.337633 1_555
O53 P0 1.560215 1_545
O53 Y5 2.341882 1_555
O54 Si6 1.684745 1_555
O54 Ta0 2.018018 1_555
O55 Si7 1.676364 1_655
O55 Ta0 2.074675 1_555
O56 Si8 1.679104 1_545
O56 Ta0 2.069797 1_555
O57 Si9 1.672933 1_545
O57 Ta1 2.021644 1_555
O58 Si10 1.671142 1_555
O58 Ta1 2.021014 1_555
O59 Si11 1.683968 1_655
O59 Ta1 1.972357 1_555
O60 Si5 1.630671 1_555
O60 Y6 2.265472 1_555
O61 Si4 1.629062 1_455
O61 Y6 2.262764 1_555
O62 P5 1.535302 1_565
O62 Y6 2.343943 1_555
O63 P4 1.543241 1_565
O63 Y7 2.356150 1_555
O64 Si3 1.633383 1_555
O64 Y7 2.268168 1_555
O65 Si2 1.634208 1_455
O65 Y7 2.275950 1_555
O66 P0 1.556190 1_555
O66 Y8 2.366611 1_555
O67 P1 1.556904 1_555
O67 Y8 2.362691 1_555
O68 P2 1.557537 1_555
O68 Y8 2.368868 1_555
O69 Si0 1.690667 1_555
O69 Ta2 1.998694 1_555
O70 P3 1.579961 1_555
O70 Ta2 2.124217 1_555
O71 Si1 1.688451 1_555
O71 Ta2 1.999367 1_555
