# generated using pymatgen
data_MgAgPdO2
_symmetry_space_group_name_H-M   'P 1'
_cell_length_a   5.80419826
_cell_length_b   10.50971086
_cell_length_c   11.51403360
_cell_angle_alpha   90.00000000
_cell_angle_beta   90.00000000
_cell_angle_gamma   90.00000000
_symmetry_Int_Tables_number   1
_chemical_formula_structural   MgAgPdO2
_chemical_formula_sum   'Mg8 Ag8 Pd8 O16'
_cell_volume   702.36117895
_cell_formula_units_Z   8
loop_
 _symmetry_equiv_pos_site_id
 _symmetry_equiv_pos_as_xyz
  1  'x, y, z'
loop_
 _atom_site_type_symbol
 _atom_site_label
 _atom_site_symmetry_multiplicity
 _atom_site_fract_x
 _atom_site_fract_y
 _atom_site_fract_z
 _atom_site_occupancy
  Mg  Mg0_0  1  0.00000000  0.00000000  0.25000000  1
  Mg  Mg0_1  1  0.00000000  0.00000000  0.75000000  1
  Mg  Mg0_2  1  0.00000000  0.50000000  0.25000000  1
  Mg  Mg0_3  1  0.00000000  0.50000000  0.75000000  1
  Mg  Mg0_4  1  0.50000000  0.00000000  0.25000000  1
  Mg  Mg0_5  1  0.50000000  0.00000000  0.75000000  1
  Mg  Mg0_6  1  0.50000000  0.50000000  0.25000000  1
  Mg  Mg0_7  1  0.50000000  0.50000000  0.75000000  1
  Ag  Ag0_0  1  0.25000000  0.25000000  0.25000000  1
  Ag  Ag0_1  1  0.25000000  0.25000000  0.75000000  1
  Ag  Ag0_2  1  0.25000000  0.75000000  0.25000000  1
  Ag  Ag0_3  1  0.25000000  0.75000000  0.75000000  1
  Ag  Ag0_4  1  0.75000000  0.25000000  0.25000000  1
  Ag  Ag0_5  1  0.75000000  0.25000000  0.75000000  1
  Ag  Ag0_6  1  0.75000000  0.75000000  0.25000000  1
  Ag  Ag0_7  1  0.75000000  0.75000000  0.75000000  1
  Pd  Pd0_0  1  0.00000000  0.00000000  0.00000000  1
  Pd  Pd0_1  1  0.00000000  0.00000000  0.50000000  1
  Pd  Pd0_2  1  0.00000000  0.50000000  0.00000000  1
  Pd  Pd0_3  1  0.00000000  0.50000000  0.50000000  1
  Pd  Pd0_4  1  0.50000000  0.00000000  0.00000000  1
  Pd  Pd0_5  1  0.50000000  0.00000000  0.50000000  1
  Pd  Pd0_6  1  0.50000000  0.50000000  0.00000000  1
  Pd  Pd0_7  1  0.50000000  0.50000000  0.50000000  1
  O  O0_0  1  0.25000000  0.00000000  0.12738296  1
  O  O0_1  1  0.25000000  0.00000000  0.62738296  1
  O  O0_2  1  0.25000000  0.50000000  0.12738296  1
  O  O0_3  1  0.25000000  0.50000000  0.62738296  1
  O  O0_4  1  0.75000000  0.00000000  0.12738296  1
  O  O0_5  1  0.75000000  0.00000000  0.62738296  1
  O  O0_6  1  0.75000000  0.50000000  0.12738296  1
  O  O0_7  1  0.75000000  0.50000000  0.62738296  1
  O  O1_0  1  0.25000000  0.00000000  0.37261704  1
  O  O1_1  1  0.25000000  0.00000000  0.87261704  1
  O  O1_2  1  0.25000000  0.50000000  0.37261704  1
  O  O1_3  1  0.25000000  0.50000000  0.87261704  1
  O  O1_4  1  0.75000000  0.00000000  0.37261704  1
  O  O1_5  1  0.75000000  0.00000000  0.87261704  1
  O  O1_6  1  0.75000000  0.50000000  0.37261704  1
  O  O1_7  1  0.75000000  0.50000000  0.87261704  1
loop_
_geom_bond_atom_site_label_1
_geom_bond_atom_site_label_2
_geom_bond_distance
_geom_bond_site_symmetry_2
Mg0_0 O0_0 2.024542 1_555
Mg0_0 O1_0 2.024542 1_555
Mg0_0 O1_4 2.024542 1_455
Mg0_0 O0_4 2.024542 1_455
Mg0_1 O1_1 2.024542 1_555
Mg0_1 O1_5 2.024542 1_455
Mg0_1 O0_5 2.024542 1_455
Mg0_1 O0_1 2.024542 1_555
Mg0_2 O1_2 2.024542 1_555
Mg0_2 O1_6 2.024542 1_455
Mg0_2 O0_2 2.024542 1_555
Mg0_2 O0_6 2.024542 1_455
Mg0_3 O1_3 2.024542 1_555
Mg0_3 O1_7 2.024542 1_455
Mg0_3 O0_3 2.024542 1_555
Mg0_3 O0_7 2.024542 1_455
Mg0_4 O0_0 2.024542 1_555
Mg0_4 O1_0 2.024542 1_555
Mg0_4 O0_4 2.024542 1_555
Mg0_4 O1_4 2.024542 1_555
Mg0_5 O1_1 2.024542 1_555
Mg0_5 O1_5 2.024542 1_555
Mg0_5 O0_1 2.024542 1_555
Mg0_5 O0_5 2.024542 1_555
Mg0_6 O0_6 2.024542 1_555
Mg0_6 O1_2 2.024542 1_555
Mg0_6 O1_6 2.024542 1_555
Mg0_6 O0_2 2.024542 1_555
Mg0_7 O1_3 2.024542 1_555
Mg0_7 O1_7 2.024542 1_555
Mg0_7 O0_3 2.024542 1_555
Mg0_7 O0_7 2.024542 1_555
Ag0_0 Ag0_4 2.902099 1_555
Ag0_0 Ag0_4 2.902099 1_455
Ag0_0 Mg0_2 3.001487 1_555
Ag0_0 Mg0_6 3.001487 1_555
Ag0_0 Mg0_0 3.001487 1_555
Ag0_0 Mg0_4 3.001487 1_555
Ag0_1 Ag0_5 2.902099 1_455
Ag0_1 Ag0_5 2.902099 1_555
Ag0_1 Mg0_1 3.001487 1_555
Ag0_1 Mg0_5 3.001487 1_555
Ag0_1 Mg0_3 3.001487 1_555
Ag0_1 Mg0_7 3.001487 1_555
Ag0_2 Ag0_6 2.902099 1_455
Ag0_2 Ag0_6 2.902099 1_555
Ag0_2 Mg0_0 3.001487 1_565
Ag0_2 Mg0_4 3.001487 1_565
Ag0_2 Mg0_2 3.001487 1_555
Ag0_2 Mg0_6 3.001487 1_555
Ag0_3 Ag0_7 2.902099 1_555
Ag0_3 Ag0_7 2.902099 1_455
Ag0_3 Mg0_1 3.001487 1_565
Ag0_3 Mg0_5 3.001487 1_565
Ag0_3 Mg0_3 3.001487 1_555
Ag0_3 Mg0_7 3.001487 1_555
Ag0_4 Mg0_6 3.001487 1_555
Ag0_4 Mg0_2 3.001487 1_655
Ag0_4 Mg0_4 3.001487 1_555
Ag0_4 Mg0_0 3.001487 1_655
Ag0_5 Mg0_1 3.001487 1_655
Ag0_5 Mg0_5 3.001487 1_555
Ag0_5 Mg0_3 3.001487 1_655
Ag0_5 Mg0_7 3.001487 1_555
Ag0_6 Mg0_4 3.001487 1_565
Ag0_6 Mg0_0 3.001487 1_665
Ag0_6 Mg0_6 3.001487 1_555
Ag0_6 Mg0_2 3.001487 1_655
Ag0_7 Mg0_1 3.001487 1_665
Ag0_7 Mg0_5 3.001487 1_565
Ag0_7 Mg0_7 3.001487 1_555
Ag0_7 Mg0_3 3.001487 1_655
O0_0 Pd0_4 2.063184 1_555
O0_0 Pd0_0 2.063184 1_555
O0_1 Pd0_5 2.063184 1_555
O0_1 Pd0_1 2.063184 1_555
O0_2 Pd0_6 2.063184 1_555
O0_2 Pd0_2 2.063184 1_555
O0_3 Pd0_7 2.063184 1_555
O0_3 Pd0_3 2.063184 1_555
O0_4 Pd0_4 2.063184 1_555
O0_4 Pd0_0 2.063184 1_655
O0_5 Pd0_1 2.063184 1_655
O0_5 Pd0_5 2.063184 1_555
O0_6 Pd0_6 2.063184 1_555
O0_6 Pd0_2 2.063184 1_655
O0_7 Pd0_7 2.063184 1_555
O0_7 Pd0_3 2.063184 1_655
O1_0 Pd0_5 2.063184 1_555
O1_0 Pd0_1 2.063184 1_555
O1_1 Pd0_4 2.063184 1_556
O1_1 Pd0_0 2.063184 1_556
O1_2 Pd0_3 2.063184 1_555
O1_2 Pd0_7 2.063184 1_555
O1_3 Pd0_6 2.063184 1_556
O1_3 Pd0_2 2.063184 1_556
O1_4 Pd0_5 2.063184 1_555
O1_4 Pd0_1 2.063184 1_655
O1_5 Pd0_4 2.063184 1_556
O1_5 Pd0_0 2.063184 1_656
O1_6 Pd0_7 2.063184 1_555
O1_6 Pd0_3 2.063184 1_655
O1_7 Pd0_6 2.063184 1_556
O1_7 Pd0_2 2.063184 1_656
