# generated using pymatgen
data_Li2CrPO4F
_symmetry_space_group_name_H-M   'P 1'
_cell_length_a   5.31068400
_cell_length_b   5.56847028
_cell_length_c   7.62224560
_cell_angle_alpha   107.73633880
_cell_angle_beta   107.17042045
_cell_angle_gamma   93.90910532
_symmetry_Int_Tables_number   1
_chemical_formula_structural   Li2CrPO4F
_chemical_formula_sum   'Li4 Cr2 P2 O8 F2'
_cell_volume   202.00561525
_cell_formula_units_Z   2
loop_
 _symmetry_equiv_pos_site_id
 _symmetry_equiv_pos_as_xyz
  1  'x, y, z'
loop_
 _atom_site_type_symbol
 _atom_site_label
 _atom_site_symmetry_multiplicity
 _atom_site_fract_x
 _atom_site_fract_y
 _atom_site_fract_z
 _atom_site_occupancy
  Li  Li0  1  0.16822000  0.54639800  0.12589400  1
  Li  Li1  1  0.52013300  0.18051800  0.85587400  1
  Li  Li2  1  0.49098700  0.91290600  0.47644900  1
  Li  Li3  1  0.76079600  0.44138500  0.67539900  1
  Cr  Cr0  1  0.00811800  0.99994000  0.02021300  1
  Cr  Cr1  1  0.99428800  0.99618600  0.50837200  1
  P  P0  1  0.65056900  0.34868700  0.24886100  1
  P  P1  1  0.35678700  0.66353700  0.78752300  1
  O  O0  1  0.71208100  0.19581000  0.39204600  1
  O  O1  1  0.28945500  0.83158400  0.65376700  1
  O  O2  1  0.36683800  0.38273400  0.67544500  1
  O  O3  1  0.13307300  0.66257700  0.88385200  1
  O  O4  1  0.85583700  0.32733400  0.13647800  1
  O  O5  1  0.63654400  0.78371300  0.93773500  1
  O  O6  1  0.64891600  0.62714900  0.36522700  1
  O  O7  1  0.36869400  0.24005600  0.08560900  1
  F  F0  1  0.81232600  0.11035000  0.72006200  1
  F  F1  1  0.15422100  0.88076300  0.29260600  1
loop_
_geom_bond_atom_site_label_1
_geom_bond_atom_site_label_2
_geom_bond_distance
_geom_bond_site_symmetry_2
Li0 O4 2.027257 1_455
Li0 O7 2.063790 1_555
Li0 O3 2.096993 1_554
Li1 O2 2.056588 1_555
Li1 O7 2.082598 1_556
Li1 O1 2.094461 1_545
Li1 O4 2.214932 1_556
Li1 O5 2.540149 1_545
Li2 O6 1.932362 1_555
Li2 O1 2.082826 1_555
Li2 O0 2.255112 1_565
Li3 O2 2.095530 1_555
Li3 O0 2.103328 1_555
Li3 O3 2.138045 1_655
Cr0 O5 2.054585 1_454
Cr0 O7 2.093887 1_565
Cr0 O4 2.098292 1_465
Cr0 O3 2.106501 1_554
Cr0 F1 2.304730 1_555
Cr0 F0 2.496581 1_464
Cr1 F1 2.023471 1_655
Cr1 O0 2.076303 1_565
Cr1 O1 2.077158 1_655
Cr1 F0 2.078683 1_565
Cr1 O6 2.390803 1_555
Cr1 O2 2.535936 1_665
O0 P0 1.554359 1_555
O1 P1 1.566712 1_555
O2 P1 1.549861 1_555
O3 P1 1.570745 1_555
O4 P0 1.563083 1_555
O5 P1 1.536004 1_555
O6 P0 1.536121 1_555
O7 P0 1.572669 1_555
F0 Li3 1.996215 1_555
F0 Li2 2.048998 1_545
F0 Li1 2.101636 1_555
F1 Li2 1.875654 1_555
F1 Li0 1.928748 1_555
