# generated using pymatgen
data_Na3In2(AsO4)3
_symmetry_space_group_name_H-M   'P 1'
_cell_length_a   9.12429512
_cell_length_b   9.12429512
_cell_length_c   6.86822947
_cell_angle_alpha   73.87572775
_cell_angle_beta   73.87572775
_cell_angle_gamma   92.97643089
_symmetry_Int_Tables_number   1
_chemical_formula_structural   Na3In2(AsO4)3
_chemical_formula_sum   'Na6 In4 As6 O24'
_cell_volume   522.51149472
_cell_formula_units_Z   2
loop_
 _symmetry_equiv_pos_site_id
 _symmetry_equiv_pos_as_xyz
  1  'x, y, z'
loop_
 _atom_site_type_symbol
 _atom_site_label
 _atom_site_symmetry_multiplicity
 _atom_site_fract_x
 _atom_site_fract_y
 _atom_site_fract_z
 _atom_site_occupancy
  Na  Na0  1  0.50000000  0.50000000  -0.00000000  1
  Na  Na1  1  0.27841842  0.72158158  0.75000000  1
  Na  Na2  1  0.01485287  0.98514713  0.75000000  1
  Na  Na3  1  0.98514713  0.01485287  0.25000000  1
  Na  Na4  1  0.72158158  0.27841842  0.25000000  1
  Na  Na5  1  0.50000000  0.50000000  0.50000000  1
  In  In0  1  0.37649052  0.06445256  0.85651778  1
  In  In1  1  0.06445256  0.37649052  0.35651778  1
  In  In2  1  0.62350948  0.93554744  0.14348222  1
  In  In3  1  0.93554744  0.62350948  0.64348222  1
  As  As0  1  0.86699661  0.65853479  0.13177638  1
  As  As1  1  0.72070578  0.27929422  0.75000000  1
  As  As2  1  0.65853479  0.86699661  0.63177638  1
  As  As3  1  0.27929422  0.72070578  0.25000000  1
  As  As4  1  0.13300339  0.34146521  0.86822362  1
  As  As5  1  0.34146521  0.13300339  0.36822362  1
  O  O0  1  0.15342677  0.15872422  0.38618246  1
  O  O1  1  -0.00173614  0.33019548  0.10226235  1
  O  O2  1  0.84127578  0.84657323  0.11381754  1
  O  O3  1  0.66980452  0.00173614  0.39773765  1
  O  O4  1  0.74911060  0.15998769  0.97048198  1
  O  O5  1  0.70452906  0.54453121  0.18193505  1
  O  O6  1  0.40728960  0.04936287  0.17000149  1
  O  O7  1  0.33019548  -0.00173614  0.60226235  1
  O  O8  1  0.95063713  0.59271040  0.32999851  1
  O  O9  1  0.46044774  0.73639164  0.27191889  1
  O  O10  1  0.59271040  0.95063713  0.82999851  1
  O  O11  1  0.26360836  0.53955226  0.22808111  1
  O  O12  1  0.84657323  0.84127578  0.61381754  1
  O  O13  1  0.04936387  0.40728960  0.67000149  1
  O  O14  1  0.29547094  0.45546879  0.81806495  1
  O  O15  1  0.73639164  0.46044774  0.77191889  1
  O  O16  1  0.15998769  0.74911060  0.47048198  1
  O  O17  1  0.84001231  0.25088940  0.52951802  1
  O  O18  1  0.00173614  0.66980452  0.89773765  1
  O  O19  1  0.54453121  0.70452906  0.68193505  1
  O  O20  1  0.53955226  0.26360836  0.72808111  1
  O  O21  1  0.15872422  0.15342677  0.88618246  1
  O  O22  1  0.25088940  0.84001231  0.02951802  1
  O  O23  1  0.45546879  0.29547094  0.31806495  1
loop_
_geom_bond_atom_site_label_1
_geom_bond_atom_site_label_2
_geom_bond_distance
_geom_bond_site_symmetry_2
Na0 O23 2.363004 1_555
Na0 O19 2.363004 1_554
Na0 O15 2.398865 1_554
Na0 O11 2.398865 1_555
Na0 O14 2.589919 1_554
Na0 O5 2.589919 1_555
Na1 O14 2.363796 1_555
Na1 O19 2.363796 1_555
Na1 O18 2.411035 1_555
Na1 O7 2.411035 1_565
Na1 O16 2.414335 1_555
Na1 O22 2.414335 1_556
Na2 O2 2.487952 1_456
Na2 O0 2.487952 1_565
Na2 O12 2.495198 1_455
Na2 O21 2.495198 1_565
Na2 O7 2.756411 1_565
Na2 O18 2.756411 1_555
Na3 O12 2.487952 1_545
Na3 O21 2.487952 1_654
Na3 O2 2.495198 1_545
Na3 O0 2.495198 1_655
Na3 O1 2.756411 1_655
Na3 O3 2.756411 1_555
Na4 O23 2.363796 1_555
Na4 O5 2.363796 1_555
Na4 O3 2.411035 1_555
Na4 O1 2.411035 1_655
Na4 O4 2.414335 1_554
Na4 O17 2.414335 1_555
Na5 O14 2.363004 1_555
Na5 O5 2.363004 1_555
Na5 O20 2.398865 1_555
Na5 O9 2.398865 1_555
Na5 O23 2.589919 1_555
Na5 O19 2.589919 1_555
In0 O20 2.096117 1_555
In0 O7 2.135809 1_555
In0 O22 2.137124 1_546
In0 O21 2.164054 1_555
In0 O6 2.215651 1_556
In0 O10 2.263188 1_545
In1 O11 2.096117 1_555
In1 O1 2.135809 1_555
In1 O17 2.137124 1_455
In1 O0 2.164054 1_555
In1 O13 2.215653 1_555
In1 O8 2.263188 1_455
In2 O9 2.096117 1_555
In2 O3 2.135809 1_565
In2 O4 2.137124 1_564
In2 O2 2.164054 1_555
In2 O10 2.215651 1_554
In2 O6 2.263188 1_565
In3 O15 2.096117 1_555
In3 O18 2.135809 1_655
In3 O16 2.137124 1_655
In3 O12 2.164054 1_555
In3 O8 2.215651 1_555
In3 O13 2.263192 1_655
As0 O5 1.659933 1_555
As0 O18 1.703892 1_654
As0 O2 1.718816 1_555
As0 O8 1.722547 1_555
As1 O4 1.696180 1_555
As1 O17 1.696180 1_555
As1 O20 1.703183 1_555
As1 O15 1.703183 1_555
As2 O19 1.659933 1_555
As2 O3 1.703892 1_565
As2 O12 1.718816 1_555
As2 O10 1.722547 1_555
As3 O22 1.696180 1_555
As3 O16 1.696180 1_555
As3 O11 1.703183 1_555
As3 O9 1.703183 1_555
As4 O14 1.659933 1_555
As4 O1 1.703892 1_556
As4 O21 1.718816 1_555
As4 O13 1.722541 1_555
As5 O23 1.659933 1_555
As5 O7 1.703892 1_555
As5 O0 1.718816 1_555
As5 O6 1.722547 1_555
