# generated using pymatgen
data_Ho2In
_symmetry_space_group_name_H-M   'P 1'
_cell_length_a   5.33523245
_cell_length_b   5.33523303
_cell_length_c   6.68608369
_cell_angle_alpha   90.00000000
_cell_angle_beta   90.00000000
_cell_angle_gamma   120.00000275
_symmetry_Int_Tables_number   1
_chemical_formula_structural   Ho2In
_chemical_formula_sum   'Ho4 In2'
_cell_volume   164.81971825
_cell_formula_units_Z   2
loop_
 _symmetry_equiv_pos_site_id
 _symmetry_equiv_pos_as_xyz
  1  'x, y, z'
loop_
 _atom_site_type_symbol
 _atom_site_label
 _atom_site_symmetry_multiplicity
 _atom_site_fract_x
 _atom_site_fract_y
 _atom_site_fract_z
 _atom_site_occupancy
  Ho  Ho0  1  0.33333300  0.66666700  0.75000000  1
  Ho  Ho1  1  0.66666700  0.33333300  0.25000000  1
  Ho  Ho2  1  0.00000000  0.00000000  0.50000000  1
  Ho  Ho3  1  0.00000000  0.00000000  -0.00000000  1
  In  In0  1  0.66666700  0.33333300  0.75000000  1
  In  In1  1  0.33333300  0.66666700  0.25000000  1
loop_
_geom_bond_atom_site_label_1
_geom_bond_atom_site_label_2
_geom_bond_distance
_geom_bond_site_symmetry_2
Ho0 In0 3.080295 1_455
Ho0 In0 3.080295 1_565
Ho0 In0 3.080304 1_555
Ho0 In1 3.343042 1_556
Ho0 In1 3.343042 1_555
Ho0 Ho3 3.504597 1_566
Ho0 Ho2 3.504597 1_565
Ho0 Ho3 3.504601 1_666
Ho0 Ho2 3.504601 1_665
Ho0 Ho2 3.504601 1_555
Ho0 Ho3 3.504601 1_556
Ho1 In1 3.080295 1_655
Ho1 In1 3.080295 1_545
Ho1 In1 3.080304 1_555
Ho1 In0 3.343042 1_555
Ho1 In0 3.343042 1_554
Ho1 Ho2 3.504597 1_655
Ho1 Ho3 3.504597 1_655
Ho1 Ho2 3.504601 1_555
Ho1 Ho3 3.504601 1_555
Ho1 Ho3 3.504601 1_665
Ho1 Ho2 3.504601 1_665
Ho2 Ho3 3.343042 1_555
Ho2 Ho3 3.343042 1_556
Ho2 In1 3.504597 1_545
Ho2 In0 3.504597 1_455
Ho2 In1 3.504601 1_445
Ho2 In0 3.504601 1_555
Ho2 In1 3.504601 1_555
Ho2 In0 3.504601 1_445
Ho3 In1 3.504597 1_545
Ho3 In0 3.504597 1_454
Ho3 In1 3.504601 1_445
Ho3 In0 3.504601 1_554
Ho3 In0 3.504601 1_444
Ho3 In1 3.504601 1_555
