# generated using pymatgen
data_Hf3Ni7
_symmetry_space_group_name_H-M   'P 1'
_cell_length_a   6.50386000
_cell_length_b   6.57257292
_cell_length_c   7.61440706
_cell_angle_alpha   102.78100775
_cell_angle_beta   104.57866672
_cell_angle_gamma   112.62046310
_symmetry_Int_Tables_number   1
_chemical_formula_structural   Hf3Ni7
_chemical_formula_sum   'Hf6 Ni14'
_cell_volume   271.72986316
_cell_formula_units_Z   2
loop_
 _symmetry_equiv_pos_site_id
 _symmetry_equiv_pos_as_xyz
  1  'x, y, z'
loop_
 _atom_site_type_symbol
 _atom_site_label
 _atom_site_symmetry_multiplicity
 _atom_site_fract_x
 _atom_site_fract_y
 _atom_site_fract_z
 _atom_site_occupancy
  Hf  Hf0  1  0.50038300  0.72733700  0.86880300  1
  Hf  Hf1  1  0.49961700  0.27266300  0.13119700  1
  Hf  Hf2  1  0.90088600  0.54469500  0.77805900  1
  Hf  Hf3  1  0.09911400  0.45530500  0.22194100  1
  Hf  Hf4  1  0.84225600  0.97432800  0.62470300  1
  Hf  Hf5  1  0.15774400  0.02567200  0.37529700  1
  Ni  Ni0  1  0.50000000  0.50000000  0.50000000  1
  Ni  Ni1  1  0.00000000  0.00000000  0.00000000  1
  Ni  Ni2  1  0.77122700  0.06331800  0.21505500  1
  Ni  Ni3  1  0.22877300  0.93668200  0.78494500  1
  Ni  Ni4  1  0.61747500  0.17601000  0.45674100  1
  Ni  Ni5  1  0.38252500  0.82399000  0.54325900  1
  Ni  Ni6  1  0.44532500  0.30007000  0.73480800  1
  Ni  Ni7  1  0.55467500  0.69993000  0.26519200  1
  Ni  Ni8  1  0.18075700  0.35936600  0.90603800  1
  Ni  Ni9  1  0.81924300  0.64063400  0.09396200  1
  Ni  Ni10  1  0.10640200  0.38357200  0.55944500  1
  Ni  Ni11  1  0.89359800  0.61642800  0.44055500  1
  Ni  Ni12  1  0.27831300  0.82709700  0.10745700  1
  Ni  Ni13  1  0.72168700  0.17290300  0.89254300  1
loop_
_geom_bond_atom_site_label_1
_geom_bond_atom_site_label_2
_geom_bond_distance
_geom_bond_site_symmetry_2
Hf0 Ni6 2.613474 1_555
Hf0 Ni8 2.642656 1_555
Hf0 Ni2 2.650327 1_566
Hf0 Ni13 2.659489 1_565
Hf0 Ni3 2.666855 1_555
Hf0 Ni9 2.667640 1_556
Hf0 Ni5 2.692668 1_555
Hf0 Ni12 2.709388 1_556
Hf0 Ni10 2.715251 1_555
Hf0 Ni1 2.804029 1_666
Hf0 Ni0 2.873287 1_555
Hf0 Ni7 3.003336 1_556
Hf1 Ni7 2.613474 1_555
Hf1 Ni9 2.642656 1_555
Hf1 Ni3 2.650327 1_544
Hf1 Ni12 2.659489 1_545
Hf1 Ni2 2.666855 1_555
Hf1 Ni8 2.667640 1_554
Hf1 Ni4 2.692668 1_555
Hf1 Ni13 2.709388 1_554
Hf1 Ni11 2.715251 1_555
Hf1 Ni1 2.804029 1_555
Hf1 Ni0 2.873287 1_555
Hf1 Ni6 3.003336 1_554
Hf2 Ni9 2.587480 1_556
Hf2 Ni3 2.616416 1_655
Hf2 Ni4 2.631768 1_555
Hf2 Ni6 2.661255 1_555
Hf2 Ni8 2.661665 1_655
Hf2 Ni12 2.664129 1_656
Hf2 Ni10 2.666094 1_655
Hf2 Ni11 2.705704 1_555
Hf2 Ni13 2.711590 1_555
Hf2 Ni0 2.779154 1_555
Hf2 Ni1 2.820775 1_666
Hf3 Ni8 2.587480 1_554
Hf3 Ni2 2.616416 1_455
Hf3 Ni5 2.631768 1_555
Hf3 Ni7 2.661255 1_555
Hf3 Ni9 2.661665 1_455
Hf3 Ni13 2.664129 1_454
Hf3 Ni11 2.666094 1_455
Hf3 Ni10 2.705704 1_555
Hf3 Ni12 2.711590 1_555
Hf3 Ni0 2.779154 1_555
Hf3 Ni1 2.820775 1_555
Hf4 Ni8 2.604148 1_665
Hf4 Ni5 2.612256 1_555
Hf4 Ni4 2.613361 1_565
Hf4 Ni7 2.624472 1_555
Hf4 Ni13 2.625325 1_565
Hf4 Ni3 2.633889 1_655
Hf4 Ni11 2.644166 1_555
Hf4 Ni1 2.724858 1_666
Hf4 Ni0 2.804222 1_555
Hf4 Ni10 2.810641 1_665
Hf5 Ni9 2.604148 1_445
Hf5 Ni4 2.612256 1_555
Hf5 Ni5 2.613361 1_545
Hf5 Ni6 2.624472 1_555
Hf5 Ni12 2.625325 1_545
Hf5 Ni2 2.633889 1_455
Hf5 Ni10 2.644166 1_555
Hf5 Ni1 2.724858 1_555
Hf5 Ni0 2.804222 1_555
Hf5 Ni11 2.810641 1_445
Ni0 Ni7 2.459671 1_555
Ni0 Ni6 2.459671 1_555
Ni0 Ni4 2.508927 1_555
Ni0 Ni5 2.508927 1_555
Ni0 Ni10 2.563835 1_555
Ni0 Ni11 2.563835 1_555
Ni1 Ni3 2.543599 1_544
Ni1 Ni2 2.543599 1_455
Ni1 Ni12 2.546687 1_545
Ni1 Ni13 2.546687 1_454
Ni1 Ni8 2.551063 1_554
Ni1 Ni9 2.551063 1_445
Ni10 Ni11 2.586337 1_455
Ni10 Ni6 2.591578 1_555
Ni10 Ni8 2.612755 1_555
Ni10 Ni2 2.685063 1_455
Ni10 Ni4 2.742900 1_455
Ni10 Ni5 2.808888 1_555
Ni11 Ni7 2.591578 1_555
Ni11 Ni9 2.612755 1_555
Ni11 Ni3 2.685063 1_655
Ni11 Ni5 2.742900 1_655
Ni11 Ni4 2.808888 1_555
Ni12 Ni7 2.425876 1_555
Ni12 Ni3 2.686263 1_554
Ni12 Ni9 2.720684 1_455
Ni12 Ni2 2.765018 1_565
Ni12 Ni4 2.766764 1_565
Ni12 Ni8 2.851144 1_554
Ni13 Ni6 2.425876 1_555
Ni13 Ni2 2.686263 1_556
Ni13 Ni8 2.720684 1_655
Ni13 Ni3 2.765018 1_545
Ni13 Ni5 2.766764 1_545
Ni13 Ni9 2.851144 1_556
