# generated using pymatgen
data_Na6MgTi7(PO4)12
_symmetry_space_group_name_H-M   'P 1'
_cell_length_a   17.34350370
_cell_length_b   8.67430588
_cell_length_c   22.15960877
_cell_angle_alpha   90.02835511
_cell_angle_beta   89.98587326
_cell_angle_gamma   119.99587691
_symmetry_Int_Tables_number   1
_chemical_formula_structural   Na6MgTi7(PO4)12
_chemical_formula_sum   'Na18 Mg3 Ti21 P36 O144'
_cell_volume   2887.23596478
_cell_formula_units_Z   3
loop_
 _symmetry_equiv_pos_site_id
 _symmetry_equiv_pos_as_xyz
  1  'x, y, z'
loop_
 _atom_site_type_symbol
 _atom_site_label
 _atom_site_symmetry_multiplicity
 _atom_site_fract_x
 _atom_site_fract_y
 _atom_site_fract_z
 _atom_site_occupancy
  Na  Na0  1  0.68667070  0.36937499  0.24646610  1
  Na  Na1  1  0.99708420  0.62684622  0.24647074  1
  Na  Na2  1  0.99587944  0.36562846  0.74399441  1
  Na  Na3  1  0.49597905  0.36558433  0.74409882  1
  Na  Na4  1  0.18599270  0.00330343  0.74402842  1
  Na  Na5  1  0.68605004  0.00358626  0.74414706  1
  Na  Na6  1  0.00011400  0.99927091  0.49894786  1
  Na  Na7  1  0.50037044  0.00084974  0.49914127  1
  Na  Na8  1  0.99958804  0.99880682  0.00063791  1
  Na  Na9  1  0.50087475  0.00238596  0.00054754  1
  Na  Na10  1  0.33282943  0.34635370  0.83310450  1
  Na  Na11  1  0.83256303  0.34573870  0.83427521  1
  Na  Na12  1  0.33311004  0.33329194  0.33497933  1
  Na  Na13  1  0.83309833  0.31850058  0.33413071  1
  Na  Na14  1  0.17192194  0.66656743  0.16594246  1
  Na  Na15  1  0.66811117  0.68176991  0.16536704  1
  Na  Na16  1  0.17324682  0.66442953  0.66121153  1
  Na  Na17  1  0.67319550  0.66464127  0.66149983  1
  Mg  Mg0  1  0.33268377  0.34035267  0.68483453  1
  Mg  Mg1  1  0.83261673  0.34001547  0.68484756  1
  Mg  Mg2  1  0.83293052  0.32445896  0.18562174  1
  Ti  Ti0  1  0.00185180  0.00329877  0.35527222  1
  Ti  Ti1  1  0.49838385  0.99886394  0.35529566  1
  Ti  Ti2  1  0.00004099  0.99872881  0.85574826  1
  Ti  Ti3  1  0.50048258  0.99877784  0.85571824  1
  Ti  Ti4  1  0.99850338  0.99820266  0.64193702  1
  Ti  Ti5  1  0.49866269  0.99770206  0.64188325  1
  Ti  Ti6  1  0.99811132  0.00128684  0.14466526  1
  Ti  Ti7  1  0.50083789  0.99888410  0.14472846  1
  Ti  Ti8  1  0.33318269  0.33512111  0.18726713  1
  Ti  Ti9  1  0.33354417  0.33192962  0.97957361  1
  Ti  Ti10  1  0.83346138  0.33187950  0.98240588  1
  Ti  Ti11  1  0.33338511  0.33366528  0.48224314  1
  Ti  Ti12  1  0.83357267  0.33527367  0.48156947  1
  Ti  Ti13  1  0.16588890  0.66688797  0.02150417  1
  Ti  Ti14  1  0.66672341  0.66508986  0.02107636  1
  Ti  Ti15  1  0.16611502  0.66726155  0.51975337  1
  Ti  Ti16  1  0.66652812  0.66671254  0.51976583  1
  Ti  Ti17  1  0.17066203  0.66612053  0.31352168  1
  Ti  Ti18  1  0.66543590  0.67283060  0.31458810  1
  Ti  Ti19  1  0.16912825  0.66529509  0.81516747  1
  Ti  Ti20  1  0.66920565  0.66601106  0.81528120  1
  P  P0  1  0.14429340  0.00238952  0.24968225  1
  P  P1  1  0.64180065  0.99570716  0.25081822  1
  P  P2  1  0.35764031  0.71476041  0.24960506  1
  P  P3  1  0.85555762  0.71742764  0.25073082  1
  P  P4  1  0.00119725  0.28699572  0.25100449  1
  P  P5  1  0.49820040  0.28515501  0.25011237  1
  P  P6  1  0.14312410  0.28789215  0.75061930  1
  P  P7  1  0.64315033  0.28817258  0.75055302  1
  P  P8  1  0.99915171  0.71333475  0.75098303  1
  P  P9  1  0.49911647  0.71320272  0.75092874  1
  P  P10  1  0.35617361  0.99362639  0.75051602  1
  P  P11  1  0.85602684  0.99360721  0.75046227  1
  P  P12  1  0.47924866  0.33523234  0.58504558  1
  P  P13  1  0.97907924  0.33548320  0.58490551  1
  P  P14  1  0.18857214  0.04209703  0.58530546  1
  P  P15  1  0.68884989  0.04217006  0.58504553  1
  P  P16  1  0.33184331  0.62176236  0.58362745  1
  P  P17  1  0.83201444  0.62173647  0.58373154  1
  P  P18  1  0.47654918  0.61961138  0.08311741  1
  P  P19  1  0.97867943  0.62443220  0.08494995  1
  P  P20  1  0.33343632  0.04702044  0.08365166  1
  P  P21  1  0.83251358  0.04179096  0.08341967  1
  P  P22  1  0.19008415  0.33392263  0.08317116  1
  P  P23  1  0.68814084  0.33331584  0.08502802  1
  P  P24  1  0.31118689  0.66674007  0.91851941  1
  P  P25  1  0.81121908  0.66523444  0.91801331  1
  P  P26  1  0.02213297  0.37868389  0.91699272  1
  P  P27  1  0.52213530  0.37837065  0.91650016  1
  P  P28  1  0.16739566  0.95539853  0.91670029  1
  P  P29  1  0.66743304  0.95581038  0.91717545  1
  P  P30  1  0.31023077  0.95575835  0.41691725  1
  P  P31  1  0.81109791  0.95629390  0.41712800  1
  P  P32  1  0.16771270  0.37885152  0.41745794  1
  P  P33  1  0.66716735  0.37892983  0.41544252  1
  P  P34  1  0.02246914  0.66511375  0.41528940  1
  P  P35  1  0.52133092  0.66545421  0.41737033  1
  O  O0  1  0.10095564  0.02762262  0.30683191  1
  O  O1  1  0.59355359  0.02015937  0.30595064  1
  O  O2  1  0.41351350  0.80082578  0.30659537  1
  O  O3  1  0.91600254  0.81107273  0.30581035  1
  O  O4  1  0.48488376  0.17040449  0.30660973  1
  O  O5  1  0.99276632  0.17374078  0.30709573  1
  O  O6  1  0.09578223  0.17100757  0.80690468  1
  O  O7  1  0.59575833  0.17106376  0.80687819  1
  O  O8  1  0.49075169  0.80831541  0.80768942  1
  O  O9  1  0.99084442  0.80864590  0.80771597  1
  O  O10  1  0.41481764  0.01898010  0.80645895  1
  O  O11  1  0.91479651  0.01908402  0.80637379  1
  O  O12  1  0.39995915  0.96921249  0.69352043  1
  O  O13  1  0.89996885  0.96918069  0.69353491  1
  O  O14  1  0.08322455  0.20272369  0.69457637  1
  O  O15  1  0.58317483  0.20255387  0.69455211  1
  O  O16  1  0.01646372  0.83366394  0.69517008  1
  O  O17  1  0.51618724  0.83334680  0.69511268  1
  O  O18  1  0.40115264  0.83031658  0.19323956  1
  O  O19  1  0.90040998  0.83015266  0.19350548  1
  O  O20  1  0.01304577  0.19703192  0.19391186  1
  O  O21  1  0.51548461  0.19804544  0.19449611  1
  O  O22  1  0.08358472  0.96804151  0.19423594  1
  O  O23  1  0.58493580  0.97142274  0.19344087  1
  O  O24  1  0.44438737  0.36616455  0.64370323  1
  O  O25  1  0.94434345  0.36608221  0.64370432  1
  O  O26  1  0.23934492  0.11048467  0.64384408  1
  O  O27  1  0.73925880  0.11009925  0.64377695  1
  O  O28  1  0.31431494  0.51469407  0.63996278  1
  O  O29  1  0.81431752  0.51467525  0.64007256  1
  O  O30  1  0.43194598  0.50401414  0.13949858  1
  O  O31  1  0.94449292  0.52247464  0.14353349  1
  O  O32  1  0.31988395  0.13697701  0.13966348  1
  O  O33  1  0.81425547  0.11416771  0.13982124  1
  O  O34  1  0.24820008  0.36146444  0.13959007  1
  O  O35  1  0.73909408  0.36724047  0.14364178  1
  O  O36  1  0.23487536  0.30679392  0.02690128  1
  O  O37  1  0.73595012  0.30651709  0.02978288  1
  O  O38  1  0.41874103  0.53027159  0.02666133  1
  O  O39  1  0.91796435  0.52765842  0.02964872  1
  O  O40  1  0.34691191  0.16258940  0.02694462  1
  O  O41  1  0.84670282  0.16052486  0.02682346  1
  O  O42  1  0.23622015  0.16492754  0.53015055  1
  O  O43  1  0.73639287  0.16542020  0.53001451  1
  O  O44  1  0.34667461  0.53204175  0.52703689  1
  O  O45  1  0.84678264  0.53266129  0.52697137  1
  O  O46  1  0.41811573  0.30887610  0.52986835  1
  O  O47  1  0.91806615  0.30912548  0.52974073  1
  O  O48  1  0.26628484  0.69360412  0.97382412  1
  O  O49  1  0.76594414  0.69222360  0.97298680  1
  O  O50  1  0.08226615  0.47129773  0.97190581  1
  O  O51  1  0.58102812  0.47069306  0.97126584  1
  O  O52  1  0.15509344  0.83771906  0.97163543  1
  O  O53  1  0.65337773  0.83628573  0.97184218  1
  O  O54  1  0.26610589  0.83904832  0.47224995  1
  O  O55  1  0.76632673  0.83942488  0.47232797  1
  O  O56  1  0.15371717  0.46786582  0.47268007  1
  O  O57  1  0.65332323  0.47043408  0.47032438  1
  O  O58  1  0.08168830  0.69253726  0.47041189  1
  O  O59  1  0.58009097  0.69400354  0.47256632  1
  O  O60  1  0.06531245  0.63937037  0.35709673  1
  O  O61  1  0.56717271  0.63955795  0.36064102  1
  O  O62  1  0.25243423  0.86432447  0.35992525  1
  O  O63  1  0.75182662  0.86437244  0.36040813  1
  O  O64  1  0.18042954  0.49547864  0.36052321  1
  O  O65  1  0.67984669  0.48968586  0.35710285  1
  O  O66  1  0.06585827  0.49130800  0.85884421  1
  O  O67  1  0.56495235  0.49052036  0.85831184  1
  O  O68  1  0.18026359  0.86954726  0.85843677  1
  O  O69  1  0.67973704  0.86852244  0.85875072  1
  O  O70  1  0.25233142  0.64063292  0.86158602  1
  O  O71  1  0.75233882  0.64030337  0.86104373  1
  O  O72  1  0.01358051  0.83352792  0.40948838  1
  O  O73  1  0.51260947  0.83329489  0.40996970  1
  O  O74  1  0.40302525  0.97295345  0.40978237  1
  O  O75  1  0.90374289  0.97397837  0.40957151  1
  O  O76  1  0.08377404  0.19320301  0.41064366  1
  O  O77  1  0.58282649  0.19244109  0.40926086  1
  O  O78  1  0.01356519  0.19342198  0.91069492  1
  O  O79  1  0.51289046  0.19263059  0.91053458  1
  O  O80  1  0.08361113  0.97354303  0.91116243  1
  O  O81  1  0.58344397  0.97407084  0.91093961  1
  O  O82  1  0.40346927  0.83378963  0.91106334  1
  O  O83  1  0.90344133  0.83338943  0.91049701  1
  O  O84  1  0.48761824  0.16406994  0.58785365  1
  O  O85  1  0.98771100  0.16444298  0.58794345  1
  O  O86  1  0.09469829  0.02547961  0.58890807  1
  O  O87  1  0.59481219  0.02528722  0.58892496  1
  O  O88  1  0.41789893  0.80964798  0.58820893  1
  O  O89  1  0.91788947  0.80981048  0.58828762  1
  O  O90  1  0.48474480  0.80477732  0.08943018  1
  O  O91  1  0.98863614  0.81241337  0.08769662  1
  O  O92  1  0.41713580  0.02920587  0.09023449  1
  O  O93  1  0.91792772  0.02524223  0.08749457  1
  O  O94  1  0.09750607  0.16724476  0.09001808  1
  O  O95  1  0.59420314  0.16263865  0.08815548  1
  O  O96  1  0.34543945  0.15846801  0.74804395  1
  O  O97  1  0.84544517  0.15850900  0.74795341  1
  O  O98  1  0.23378253  0.30293168  0.74770856  1
  O  O99  1  0.73375574  0.30298999  0.74768233  1
  O  O100  1  0.41934352  0.52705238  0.74830639  1
  O  O101  1  0.91939727  0.52720263  0.74833080  1
  O  O102  1  0.34768731  0.52825097  0.24276774  1
  O  O103  1  0.84584129  0.53188903  0.24775023  1
  O  O104  1  0.41574853  0.30599884  0.24315242  1
  O  O105  1  0.92036688  0.31171075  0.24868449  1
  O  O106  1  0.23694443  0.16878657  0.24277008  1
  O  O107  1  0.73277485  0.16299288  0.24809169  1
  O  O108  1  0.31902725  0.49820660  0.92303502  1
  O  O109  1  0.81936688  0.49783269  0.92285018  1
  O  O110  1  0.42954890  0.36121531  0.92272842  1
  O  O111  1  0.93018765  0.36248083  0.92304384  1
  O  O112  1  0.25103270  0.14077441  0.92270992  1
  O  O113  1  0.75079831  0.14067382  0.92302894  1
  O  O114  1  0.31930685  0.14058515  0.42288826  1
  O  O115  1  0.81935888  0.14051484  0.42296653  1
  O  O116  1  0.25105495  0.36047953  0.42293336  1
  O  O117  1  0.75028590  0.35951071  0.42269907  1
  O  O118  1  0.42940135  0.49723422  0.42295372  1
  O  O119  1  0.92991963  0.49811601  0.42280270  1
  O  O120  1  0.18110841  0.50170288  0.07676158  1
  O  O121  1  0.67493866  0.49515656  0.07288252  1
  O  O122  1  0.07269152  0.64715061  0.07280371  1
  O  O123  1  0.56967828  0.64019663  0.07702063  1
  O  O124  1  0.24989844  0.86155807  0.07690838  1
  O  O125  1  0.75138985  0.85252042  0.07230765  1
  O  O126  1  0.17518526  0.85412981  0.57340049  1
  O  O127  1  0.67539900  0.85396939  0.57328728  1
  O  O128  1  0.25202680  0.65161037  0.57240793  1
  O  O129  1  0.75193316  0.65098010  0.57249048  1
  O  O130  1  0.07315993  0.49751019  0.57363969  1
  O  O131  1  0.57330419  0.49687947  0.57353916  1
  O  O132  1  0.15133479  0.83092853  0.25565748  1
  O  O133  1  0.64809257  0.82466145  0.25673232  1
  O  O134  1  0.26423250  0.69601743  0.25595640  1
  O  O135  1  0.76162650  0.69678244  0.25608685  1
  O  O136  1  0.08670311  0.47501645  0.25585457  1
  O  O137  1  0.58411616  0.46960137  0.25627926  1
  O  O138  1  0.14860919  0.47229710  0.75744938  1
  O  O139  1  0.64846492  0.47230543  0.75739501  1
  O  O140  1  0.08614718  0.69931297  0.75677791  1
  O  O141  1  0.58608922  0.69936462  0.75657547  1
  O  O142  1  0.26189367  0.82577361  0.75662663  1
  O  O143  1  0.76176900  0.82587409  0.75647142  1
loop_
_geom_bond_atom_site_label_1
_geom_bond_atom_site_label_2
_geom_bond_distance
_geom_bond_site_symmetry_2
Na0 O107 2.297158 1_555
Na0 O137 2.347878 1_555
Na0 O103 2.391180 1_555
Na0 O35 2.456530 1_555
Na0 O135 2.471678 1_555
Na0 O65 2.689727 1_555
Na0 O21 2.817424 1_555
Na0 O1 2.938226 1_555
Na1 O103 2.323678 1_555
Na1 O132 2.365763 1_655
Na1 O105 2.368254 1_555
Na1 O31 2.455219 1_555
Na1 O136 2.498173 1_655
Na1 O60 2.700773 1_655
Na1 O22 2.812985 1_655
Na1 O3 2.916206 1_555
Na2 O97 2.314273 1_555
Na2 O138 2.347558 1_655
Na2 O101 2.364689 1_555
Na2 O25 2.396339 1_555
Na2 O140 2.525418 1_655
Na2 O14 2.762042 1_655
Na2 O66 2.795440 1_655
Na2 O11 2.949742 1_555
Na3 O96 2.315607 1_555
Na3 O139 2.343096 1_555
Na3 O100 2.366053 1_555
Na3 O24 2.399075 1_555
Na3 O141 2.525235 1_555
Na3 O15 2.761948 1_555
Na3 O67 2.777325 1_555
Na3 O10 2.949902 1_555
Na4 O98 2.301012 1_555
Na4 O140 2.338074 1_545
Na4 O96 2.396908 1_555
Na4 O26 2.406251 1_555
Na4 O142 2.491943 1_545
Na4 O16 2.767026 1_545
Na4 O68 2.769660 1_545
Na5 O99 2.299351 1_555
Na5 O141 2.339096 1_545
Na5 O97 2.395991 1_555
Na5 O27 2.408454 1_555
Na5 O143 2.490021 1_545
Na5 O17 2.773169 1_545
Na5 O69 2.776432 1_545
Na5 O7 2.960869 1_555
Na6 O85 2.508669 1_465
Na6 O89 2.512442 1_455
Na6 O76 2.515055 1_565
Na6 O86 2.518912 1_565
Na6 O72 2.526677 1_555
Na6 O75 2.529597 1_455
Na7 O84 2.495614 1_555
Na7 O88 2.514362 1_545
Na7 O87 2.517982 1_555
Na7 O73 2.523395 1_545
Na7 O77 2.529728 1_555
Na7 O74 2.534294 1_545
Na8 O91 2.463296 1_555
Na8 O93 2.466956 1_565
Na8 O80 2.533838 1_654
Na8 O83 2.536902 1_554
Na8 O94 2.541557 1_665
Na8 O78 2.544599 1_664
Na9 O95 2.463800 1_555
Na9 O81 2.530568 1_544
Na9 O79 2.530722 1_554
Na9 O90 2.533655 1_545
Na9 O92 2.539527 1_555
Na9 O82 2.540316 1_544
Na10 O100 2.426760 1_555
Na10 O98 2.455133 1_555
Na10 O108 2.464987 1_555
Na10 O110 2.561242 1_555
Na10 O112 2.570578 1_555
Na10 O96 2.570999 1_555
Na11 O109 2.438158 1_555
Na11 O101 2.450337 1_555
Na11 O99 2.474214 1_555
Na11 O111 2.552010 1_555
Na11 O113 2.554035 1_555
Na11 O97 2.589619 1_555
Na12 O116 2.492661 1_555
Na12 O118 2.497203 1_555
Na12 O114 2.499846 1_555
Na12 O104 2.566749 1_555
Na12 O106 2.571428 1_555
Na12 O102 2.583581 1_555
Na13 O115 2.439385 1_555
Na13 O105 2.442756 1_555
Na13 O107 2.476783 1_555
Na13 O119 2.547720 1_555
Na13 O117 2.559320 1_555
Na13 O103 2.594860 1_555
Na14 O134 2.489836 1_555
Na14 O120 2.490144 1_555
Na14 O124 2.509426 1_555
Na14 O136 2.541919 1_555
Na14 O132 2.572614 1_555
Na14 O122 2.638476 1_555
Na15 O133 2.486645 1_555
Na15 O123 2.502507 1_555
Na15 O125 2.528825 1_555
Na15 O135 2.545388 1_555
Na15 O137 2.624753 1_555
Na15 O121 2.650042 1_555
Na16 O128 2.429406 1_555
Na16 O130 2.522149 1_555
Na16 O126 2.538316 1_555
Na16 O142 2.576861 1_555
Na16 O138 2.607519 1_555
Na16 O140 2.704265 1_555
Na17 O129 2.435062 1_555
Na17 O131 2.529117 1_555
Na17 O127 2.541659 1_555
Na17 O143 2.568153 1_555
Na17 O139 2.602045 1_555
Na17 O141 2.695287 1_555
Mg0 O28 1.964841 1_555
Mg0 O26 2.047673 1_555
Mg0 O24 2.049329 1_555
Mg0 O100 2.103570 1_555
Mg0 O98 2.105074 1_555
Mg0 O96 2.202597 1_555
Mg1 O29 1.965447 1_555
Mg1 O27 2.048803 1_555
Mg1 O25 2.049002 1_555
Mg1 O99 2.104853 1_555
Mg1 O101 2.106175 1_555
Mg1 O97 2.199201 1_555
Mg2 O33 1.967233 1_555
Mg2 O31 2.059515 1_555
Mg2 O35 2.063168 1_555
Mg2 O105 2.105607 1_555
Mg2 O107 2.112692 1_555
Mg2 O103 2.185849 1_555
O0 P0 1.542858 1_555
O0 Ti0 1.946214 1_555
O1 P1 1.553854 1_545
O1 Ti1 1.910142 1_545
O2 P2 1.538692 1_555
O2 Ti1 1.937249 1_555
O3 P3 1.548142 1_555
O3 Ti0 1.927481 1_665
O4 P5 1.543618 1_555
O4 Ti1 1.944983 1_545
O5 P4 1.545621 1_655
O5 Ti0 1.893406 1_655
O6 P6 1.557618 1_555
O6 Ti2 1.918732 1_545
O7 P7 1.559254 1_555
O7 Ti3 1.914881 1_545
O8 P9 1.549948 1_555
O8 Ti3 1.900080 1_555
O9 P8 1.550088 1_555
O9 Ti2 1.900629 1_655
O10 P10 1.548009 1_545
O10 Ti3 1.921181 1_545
O11 P11 1.548530 1_545
O11 Ti2 1.917303 1_645
O12 P10 1.541674 1_555
O12 Ti5 1.969061 1_555
O13 P11 1.542004 1_555
O13 Ti4 1.964772 1_555
O14 P6 1.549083 1_555
O14 Ti4 2.014791 1_445
O15 P7 1.549462 1_555
O15 Ti5 2.015608 1_545
O16 P8 1.548228 1_455
O16 Ti4 1.992984 1_455
O17 P9 1.547959 1_555
O17 Ti5 1.987795 1_555
O18 P2 1.542326 1_555
O18 Ti7 1.937955 1_555
O19 P3 1.552254 1_555
O19 Ti6 1.931799 1_565
O20 P4 1.552757 1_555
O20 Ti6 1.923434 1_455
O21 P5 1.550835 1_555
O21 Ti7 1.955704 1_545
O22 P0 1.547128 1_565
O22 Ti6 1.978860 1_465
O23 P1 1.557650 1_555
O23 Ti7 1.922954 1_555
O24 P12 1.512808 1_555
O25 P13 1.513354 1_555
O26 P14 1.512457 1_555
O27 P15 1.513298 1_555
O28 P16 1.494008 1_555
O29 P17 1.493771 1_555
O30 P18 1.545968 1_555
O30 Ti8 1.921545 1_555
O31 P19 1.515079 1_555
O32 P20 1.544989 1_555
O32 Ti8 1.929264 1_555
O33 P21 1.501442 1_555
O34 P22 1.547777 1_555
O34 Ti8 1.917956 1_555
O35 P23 1.514839 1_555
O36 P22 1.547796 1_555
O36 Ti9 1.924094 1_554
O37 P23 1.559556 1_555
O37 Ti10 1.907367 1_554
O38 P18 1.547145 1_555
O38 Ti9 1.920746 1_554
O39 P19 1.559173 1_555
O39 Ti10 1.907437 1_554
O40 P20 1.550963 1_555
O40 Ti9 1.911942 1_554
O41 P21 1.562664 1_555
O41 Ti10 1.890434 1_554
O42 P14 1.559599 1_555
O42 Ti11 1.908824 1_555
O43 P15 1.558638 1_555
O43 Ti12 1.918768 1_555
O44 P16 1.563163 1_555
O44 Ti11 1.897719 1_555
O45 P17 1.562496 1_555
O45 Ti12 1.898029 1_555
O46 P12 1.558660 1_555
O46 Ti11 1.906951 1_555
O47 P13 1.557180 1_555
O47 Ti12 1.916167 1_555
O48 P24 1.530813 1_555
O48 Ti13 1.948783 1_556
O49 P25 1.529193 1_555
O49 Ti14 1.935624 1_556
O50 P26 1.541338 1_555
O50 Ti13 1.930932 1_556
O51 P27 1.529435 1_555
O51 Ti14 1.940058 1_556
O52 P28 1.533878 1_555
O52 Ti13 1.931638 1_556
O53 P29 1.533046 1_555
O53 Ti14 1.947954 1_556
O54 P30 1.529745 1_555
O54 Ti15 1.937215 1_555
O55 P31 1.529891 1_555
O55 Ti16 1.937334 1_555
O56 P32 1.529338 1_555
O56 Ti15 1.937110 1_555
O57 P33 1.534982 1_555
O57 Ti16 1.939066 1_555
O58 P34 1.536080 1_555
O58 Ti15 1.926041 1_555
O59 P35 1.530980 1_555
O59 Ti16 1.937325 1_555
O60 P34 1.558853 1_555
O60 Ti17 1.974863 1_555
O61 P35 1.562266 1_555
O61 Ti18 1.880630 1_555
O62 P30 1.559974 1_555
O62 Ti17 1.893567 1_555
O63 P31 1.566002 1_555
O63 Ti18 1.883190 1_555
O64 P32 1.562655 1_555
O64 Ti17 1.885953 1_555
O65 P33 1.559648 1_555
O65 Ti18 1.967858 1_555
O66 P26 1.565200 1_555
O66 Ti19 1.928787 1_555
O67 P27 1.561700 1_555
O67 Ti20 1.935022 1_555
O68 P28 1.560897 1_555
O68 Ti19 1.937013 1_555
O69 P29 1.566987 1_555
O69 Ti20 1.929935 1_555
O70 P24 1.566571 1_555
O70 Ti19 1.869701 1_555
O71 P25 1.569351 1_555
O71 Ti20 1.865303 1_555
O72 P34 1.549137 1_555
O72 Ti0 1.988677 1_565
O73 P35 1.545919 1_555
O73 Ti1 1.986848 1_555
O74 P30 1.548300 1_555
O74 Ti1 1.967533 1_555
O75 P31 1.544921 1_555
O75 Ti0 1.993581 1_665
O76 P32 1.546357 1_555
O76 Ti0 1.973952 1_555
O77 P33 1.552156 1_555
O77 Ti1 1.983547 1_545
O78 P26 1.544373 1_555
O78 Ti2 1.997931 1_545
O79 P27 1.542900 1_555
O79 Ti3 1.996419 1_545
O80 P28 1.542779 1_555
O80 Ti2 1.993518 1_555
O81 P29 1.548186 1_555
O81 Ti3 1.980670 1_555
O82 P24 1.539422 1_555
O82 Ti3 1.994075 1_555
O83 P25 1.543045 1_555
O83 Ti2 1.983405 1_655
O84 P12 1.563620 1_555
O84 Ti5 1.957291 1_545
O85 P13 1.565364 1_555
O85 Ti4 1.953896 1_545
O86 P14 1.563061 1_555
O86 Ti4 1.955727 1_445
O87 P15 1.565228 1_555
O87 Ti5 1.953349 1_545
O88 P16 1.569018 1_555
O88 Ti5 1.936987 1_555
O89 P17 1.568555 1_555
O89 Ti4 1.937277 1_555
O90 P18 1.546324 1_555
O90 Ti7 1.985623 1_555
O91 P19 1.552663 1_555
O91 Ti6 2.008407 1_565
O92 P20 1.541701 1_555
O92 Ti7 2.004431 1_545
O93 P21 1.560753 1_555
O93 Ti6 1.967786 1_555
O94 P22 1.539607 1_555
O94 Ti6 2.007450 1_455
O95 P23 1.561831 1_555
O95 Ti7 1.977953 1_545
O96 P10 1.532476 1_545
O97 P11 1.531471 1_545
O98 P6 1.512705 1_555
O99 P7 1.512588 1_555
O100 P9 1.513634 1_555
O101 P8 1.513441 1_555
O102 P2 1.546187 1_555
O102 Ti8 1.989754 1_555
O103 P3 1.533529 1_555
O104 P5 1.536244 1_555
O104 Ti8 2.002720 1_555
O105 P4 1.521325 1_655
O106 P0 1.539461 1_555
O106 Ti8 1.993290 1_555
O107 P1 1.519729 1_545
O108 P24 1.537727 1_555
O108 Ti9 2.019520 1_555
O109 P25 1.531459 1_555
O109 Ti10 2.056106 1_555
O110 P27 1.542946 1_555
O110 Ti9 2.000017 1_555
O111 P26 1.535079 1_655
O111 Ti10 2.041838 1_555
O112 P28 1.541171 1_545
O112 Ti9 2.002834 1_555
O113 P29 1.536352 1_545
O113 Ti10 2.039301 1_555
O114 P30 1.536275 1_545
O114 Ti11 2.045421 1_555
O115 P31 1.536788 1_545
O115 Ti12 2.045194 1_555
O116 P32 1.536185 1_555
O116 Ti11 2.038044 1_555
O117 P33 1.541196 1_555
O117 Ti12 2.034066 1_555
O118 P35 1.536380 1_555
O118 Ti11 2.037321 1_555
O119 P34 1.542012 1_655
O119 Ti12 2.030774 1_555
O120 P22 1.545729 1_555
O120 Ti13 2.000551 1_555
O121 P23 1.554826 1_555
O121 Ti14 1.929457 1_555
O122 P19 1.564726 1_455
O122 Ti13 1.912279 1_555
O123 P18 1.539643 1_555
O123 Ti14 2.013001 1_555
O124 P20 1.542366 1_565
O124 Ti13 2.005113 1_555
O125 P21 1.557492 1_565
O125 Ti14 1.923614 1_555
O126 P14 1.550186 1_565
O126 Ti15 1.951590 1_555
O127 P15 1.551199 1_565
O127 Ti16 1.953723 1_555
O128 P16 1.550395 1_555
O128 Ti15 1.950199 1_555
O129 P17 1.551747 1_555
O129 Ti16 1.944435 1_555
O130 P13 1.551522 1_455
O130 Ti15 1.954572 1_555
O131 P12 1.550880 1_555
O131 Ti16 1.955379 1_555
O132 P0 1.557670 1_565
O132 Ti17 2.069162 1_555
O133 P1 1.546785 1_555
O133 Ti18 1.966389 1_555
O134 P2 1.551534 1_555
O134 Ti17 1.976507 1_555
O135 P3 1.551878 1_555
O135 Ti18 2.039491 1_555
O136 P4 1.565984 1_555
O136 Ti17 2.021525 1_555
O137 P5 1.554018 1_555
O137 Ti18 2.068584 1_555
O138 P6 1.561488 1_555
O138 Ti19 1.991885 1_555
O139 P7 1.560504 1_555
O139 Ti20 1.997958 1_555
O140 P8 1.578411 1_455
O140 Ti19 2.063587 1_555
O141 P9 1.576871 1_555
O141 Ti20 2.066967 1_555
O142 P10 1.559355 1_555
O142 Ti19 1.992615 1_555
O143 P11 1.558513 1_555
O143 Ti20 1.993328 1_555
