# generated using pymatgen
data_Na6MgZr7Si6(SO8)6
_symmetry_space_group_name_H-M   'P 1'
_cell_length_a   18.11373971
_cell_length_b   9.04312564
_cell_length_c   23.48377701
_cell_angle_alpha   89.93747441
_cell_angle_beta   90.08003873
_cell_angle_gamma   119.94829866
_symmetry_Int_Tables_number   1
_chemical_formula_structural   Na6MgZr7Si6(SO8)6
_chemical_formula_sum   'Na18 Mg3 Zr21 Si18 S18 O144'
_cell_volume   3333.11900683
_cell_formula_units_Z   3
loop_
 _symmetry_equiv_pos_site_id
 _symmetry_equiv_pos_as_xyz
  1  'x, y, z'
loop_
 _atom_site_type_symbol
 _atom_site_label
 _atom_site_symmetry_multiplicity
 _atom_site_fract_x
 _atom_site_fract_y
 _atom_site_fract_z
 _atom_site_occupancy
  Na  Na0  1  0.68645964  0.37842324  0.25125806  1
  Na  Na1  1  0.99547928  0.64458265  0.25156849  1
  Na  Na2  1  0.99718341  0.35538839  0.75187714  1
  Na  Na3  1  0.49325968  0.35894955  0.74776980  1
  Na  Na4  1  0.19243216  0.01778902  0.75185642  1
  Na  Na5  1  0.68450855  0.00925900  0.74920056  1
  Na  Na6  1  0.99815022  0.99835833  0.49176078  1
  Na  Na7  1  0.50571668  0.00147573  0.49855549  1
  Na  Na8  1  0.00942828  0.01375628  0.99843662  1
  Na  Na9  1  0.50245031  0.99034339  0.99746657  1
  Na  Na10  1  0.33085724  0.33296106  0.82560170  1
  Na  Na11  1  0.82872058  0.32685084  0.82827144  1
  Na  Na12  1  0.33351748  0.33132914  0.32992544  1
  Na  Na13  1  0.83359497  0.33434949  0.33558791  1
  Na  Na14  1  0.17081017  0.66653193  0.16533589  1
  Na  Na15  1  0.66396978  0.66418371  0.17188789  1
  Na  Na16  1  0.17618662  0.66736096  0.66955428  1
  Na  Na17  1  0.66947591  0.66398011  0.66725833  1
  Mg  Mg0  1  0.33341512  0.33827587  0.69147465  1
  Mg  Mg1  1  0.82632519  0.32802246  0.68634881  1
  Mg  Mg2  1  0.83446887  0.33843682  0.18516715  1
  Zr  Zr0  1  0.99977037  0.98594095  0.35611637  1
  Zr  Zr1  1  0.50381778  0.01146920  0.35592193  1
  Zr  Zr2  1  0.00790245  0.02211130  0.85472965  1
  Zr  Zr3  1  0.50429747  0.99943465  0.84717667  1
  Zr  Zr4  1  0.99715006  0.00604295  0.64941962  1
  Zr  Zr5  1  0.49976335  0.00185055  0.65343499  1
  Zr  Zr6  1  0.00472633  0.99595611  0.15040285  1
  Zr  Zr7  1  0.50027128  0.00220307  0.14682443  1
  Zr  Zr8  1  0.33402067  0.33816110  0.18635466  1
  Zr  Zr9  1  0.32547208  0.33181033  0.98345830  1
  Zr  Zr10  1  0.83317913  0.32426219  0.97589939  1
  Zr  Zr11  1  0.33509883  0.34634817  0.47763618  1
  Zr  Zr12  1  0.83130997  0.33087406  0.47397515  1
  Zr  Zr13  1  0.15981428  0.65553854  0.01780875  1
  Zr  Zr14  1  0.65988488  0.67378255  0.02038529  1
  Zr  Zr15  1  0.16109007  0.65555062  0.51714545  1
  Zr  Zr16  1  0.66645262  0.66956679  0.51339997  1
  Zr  Zr17  1  0.16331126  0.66136631  0.31628178  1
  Zr  Zr18  1  0.66778247  0.66373717  0.31697333  1
  Zr  Zr19  1  0.17105363  0.67095671  0.81634449  1
  Zr  Zr20  1  0.67053577  0.67891966  0.80985594  1
  Si  Si0  1  0.14907306  0.00214471  0.25183809  1
  Si  Si1  1  0.85233194  0.70432389  0.24794549  1
  Si  Si2  1  0.49887634  0.29358355  0.24994585  1
  Si  Si3  1  0.14899307  0.29731652  0.74830238  1
  Si  Si4  1  0.65060048  0.29707507  0.74932502  1
  Si  Si5  1  0.49586867  0.70103970  0.74915148  1
  Si  Si6  1  0.35244147  0.99892889  0.75025828  1
  Si  Si7  1  0.85607168  0.00635461  0.75013631  1
  Si  Si8  1  0.47677997  0.62404564  0.08316300  1
  Si  Si9  1  0.18410082  0.33451093  0.08537188  1
  Si  Si10  1  0.02099842  0.37717040  0.91491822  1
  Si  Si11  1  0.16774799  0.96059413  0.91703237  1
  Si  Si12  1  0.66217723  0.95796300  0.91572518  1
  Si  Si13  1  0.81319263  0.95622098  0.41580795  1
  Si  Si14  1  0.16542086  0.37184451  0.41573590  1
  Si  Si15  1  0.66563046  0.37682194  0.41711560  1
  Si  Si16  1  0.02094974  0.66586313  0.41725281  1
  Si  Si17  1  0.52176167  0.66923135  0.41538376  1
  S  S0  1  0.64625185  0.00183637  0.24851048  1
  S  S1  1  0.35530772  0.71232131  0.25060686  1
  S  S2  1  0.99813574  0.28996715  0.24898816  1
  S  S3  1  0.99778723  0.70715629  0.74955874  1
  S  S4  1  0.47823840  0.33322907  0.58446577  1
  S  S5  1  0.97754569  0.33457106  0.58502629  1
  S  S6  1  0.18868781  0.04229495  0.58456430  1
  S  S7  1  0.68802866  0.04235633  0.58456904  1
  S  S8  1  0.33364317  0.62438842  0.58439835  1
  S  S9  1  0.83343161  0.62128135  0.58494947  1
  S  S10  1  0.97656260  0.62081423  0.08437690  1
  S  S11  1  0.33320396  0.04189106  0.08318797  1
  S  S12  1  0.83369246  0.04533788  0.08450597  1
  S  S13  1  0.68974959  0.33466441  0.08397676  1
  S  S14  1  0.31391934  0.66926141  0.91815503  1
  S  S15  1  0.81127092  0.66606978  0.91818492  1
  S  S16  1  0.52062270  0.37472950  0.91711660  1
  S  S17  1  0.31117458  0.95632915  0.41769735  1
  O  O0  1  0.10115433  0.02771002  0.30570227  1
  O  O1  1  0.60612506  0.02897098  0.29960304  1
  O  O2  1  0.40684267  0.79224471  0.30163060  1
  O  O3  1  0.91615930  0.79524457  0.30230846  1
  O  O4  1  0.48818360  0.16774598  0.30381987  1
  O  O5  1  0.98654091  0.19054411  0.30079542  1
  O  O6  1  0.10206334  0.17097452  0.80344288  1
  O  O7  1  0.60442883  0.17151964  0.80436495  1
  O  O8  1  0.48527654  0.79474410  0.80546175  1
  O  O9  1  0.98565481  0.78459333  0.80071888  1
  O  O10  1  0.41384130  0.03063643  0.80571190  1
  O  O11  1  0.91630202  0.02929962  0.80476439  1
  O  O12  1  0.39771968  0.96530430  0.69457559  1
  O  O13  1  0.89912860  0.96960793  0.69358217  1
  O  O14  1  0.08219308  0.19787012  0.69445916  1
  O  O15  1  0.58551638  0.20851203  0.69455636  1
  O  O16  1  0.01361139  0.81850781  0.69827886  1
  O  O17  1  0.52064181  0.83383224  0.69493798  1
  O  O18  1  0.39706647  0.81626446  0.19851032  1
  O  O19  1  0.90021539  0.82644033  0.19211477  1
  O  O20  1  0.01280479  0.21286990  0.19779150  1
  O  O21  1  0.51317393  0.19179753  0.19536559  1
  O  O22  1  0.08581196  0.96166999  0.19558991  1
  O  O23  1  0.59161645  0.97758562  0.19729253  1
  O  O24  1  0.43788139  0.35251710  0.63594851  1
  O  O25  1  0.94027317  0.35731994  0.63721706  1
  O  O26  1  0.23865851  0.12103085  0.63619427  1
  O  O27  1  0.73816053  0.12177071  0.63655123  1
  O  O28  1  0.32107000  0.51889924  0.63444529  1
  O  O29  1  0.82443030  0.51912549  0.63595938  1
  O  O30  1  0.43498501  0.50772045  0.13932877  1
  O  O31  1  0.93827619  0.51931826  0.13637790  1
  O  O32  1  0.32113593  0.12044652  0.13475824  1
  O  O33  1  0.82028434  0.12595167  0.13498228  1
  O  O34  1  0.24578865  0.35849612  0.13927310  1
  O  O35  1  0.73888872  0.35383084  0.13645657  1
  O  O36  1  0.22968328  0.30513480  0.02865445  1
  O  O37  1  0.73048281  0.31016381  0.03323413  1
  O  O38  1  0.42140320  0.53313535  0.02608593  1
  O  O39  1  0.92435522  0.53604571  0.03321692  1
  O  O40  1  0.34784913  0.14702126  0.03194829  1
  O  O41  1  0.84296909  0.14999934  0.03244738  1
  O  O42  1  0.22941490  0.14616445  0.53288924  1
  O  O43  1  0.73076599  0.14755523  0.53361452  1
  O  O44  1  0.34313362  0.54034293  0.53191660  1
  O  O45  1  0.84459420  0.54152702  0.53300690  1
  O  O46  1  0.42525195  0.31291456  0.53284042  1
  O  O47  1  0.92716084  0.31363240  0.53374290  1
  O  O48  1  0.27122842  0.68841049  0.96882103  1
  O  O49  1  0.76970866  0.68691842  0.96931999  1
  O  O50  1  0.07964759  0.46453485  0.97120812  1
  O  O51  1  0.57614135  0.46147243  0.96807462  1
  O  O52  1  0.15808600  0.84134986  0.97239025  1
  O  O53  1  0.65531066  0.84045446  0.97144171  1
  O  O54  1  0.27101329  0.85098199  0.46894310  1
  O  O55  1  0.76792420  0.83999722  0.47283147  1
  O  O56  1  0.15801462  0.47426088  0.47194653  1
  O  O57  1  0.65026501  0.46212528  0.47331024  1
  O  O58  1  0.08257865  0.69311041  0.47218347  1
  O  O59  1  0.57836859  0.69832218  0.47304466  1
  O  O60  1  0.06484023  0.63832548  0.35973583  1
  O  O61  1  0.56352413  0.63564415  0.35946844  1
  O  O62  1  0.25958388  0.87956157  0.36573104  1
  O  O63  1  0.75233084  0.87299265  0.36021468  1
  O  O64  1  0.18506222  0.49953814  0.36107805  1
  O  O65  1  0.68166468  0.48295149  0.35801095  1
  O  O66  1  0.06259130  0.48754105  0.85713232  1
  O  O67  1  0.56160019  0.47743148  0.86517105  1
  O  O68  1  0.18027549  0.87158264  0.85888201  1
  O  O69  1  0.68061899  0.87336860  0.86003983  1
  O  O70  1  0.26095315  0.64136240  0.86598654  1
  O  O71  1  0.75864875  0.63604365  0.86654475  1
  O  O72  1  0.01325289  0.83512810  0.41415939  1
  O  O73  1  0.50531079  0.83011415  0.40773603  1
  O  O74  1  0.39604158  0.97222854  0.41117995  1
  O  O75  1  0.90741420  0.98104213  0.40969117  1
  O  O76  1  0.08099776  0.18988713  0.41077748  1
  O  O77  1  0.58150616  0.18527485  0.41103612  1
  O  O78  1  0.00770006  0.18531199  0.91290677  1
  O  O79  1  0.51220370  0.20407077  0.91333287  1
  O  O80  1  0.08009014  0.96960271  0.91085584  1
  O  O81  1  0.57844982  0.97881781  0.91393038  1
  O  O82  1  0.39777222  0.82290744  0.91242040  1
  O  O83  1  0.89687214  0.81562588  0.91118521  1
  O  O84  1  0.48713557  0.17680067  0.58721658  1
  O  O85  1  0.98889232  0.18049557  0.58902371  1
  O  O86  1  0.10072254  0.01882859  0.58973130  1
  O  O87  1  0.60142520  0.02465552  0.58807617  1
  O  O88  1  0.41098706  0.79615056  0.58732441  1
  O  O89  1  0.91196746  0.79592565  0.59016067  1
  O  O90  1  0.49091695  0.81796595  0.09143715  1
  O  O91  1  0.98529760  0.79305802  0.08810277  1
  O  O92  1  0.41081980  0.02313716  0.09026207  1
  O  O93  1  0.90985722  0.02825733  0.08884036  1
  O  O94  1  0.08884532  0.16508192  0.09025466  1
  O  O95  1  0.60243820  0.17940375  0.08943751  1
  O  O96  1  0.34371010  0.16626106  0.74194544  1
  O  O97  1  0.84937293  0.17715662  0.74168532  1
  O  O98  1  0.23712941  0.30120023  0.74124795  1
  O  O99  1  0.74069671  0.30515652  0.74295282  1
  O  O100  1  0.41921449  0.51102804  0.74274391  1
  O  O101  1  0.92537672  0.53433141  0.74063034  1
  O  O102  1  0.34613757  0.54124146  0.24456860  1
  O  O103  1  0.84364905  0.51387196  0.24133288  1
  O  O104  1  0.41427220  0.30941417  0.24374164  1
  O  O105  1  0.92437568  0.31708535  0.24047245  1
  O  O106  1  0.24205291  0.16804392  0.24260688  1
  O  O107  1  0.73003725  0.15851100  0.24057109  1
  O  O108  1  0.32209090  0.51403490  0.92276832  1
  O  O109  1  0.82029445  0.51107698  0.92627102  1
  O  O110  1  0.43643006  0.36035966  0.92444967  1
  O  O111  1  0.92757654  0.36181728  0.92545804  1
  O  O112  1  0.25386140  0.14918690  0.92340573  1
  O  O113  1  0.74818752  0.14615900  0.92620589  1
  O  O114  1  0.32092305  0.12804644  0.42528036  1
  O  O115  1  0.82143947  0.14366558  0.42625360  1
  O  O116  1  0.25061556  0.35357611  0.42650330  1
  O  O117  1  0.74838784  0.35257414  0.42494384  1
  O  O118  1  0.42761983  0.49610533  0.42634458  1
  O  O119  1  0.92871627  0.49630765  0.42534273  1
  O  O120  1  0.17885650  0.50999707  0.07780646  1
  O  O121  1  0.67983084  0.48673100  0.07600984  1
  O  O122  1  0.06358363  0.64263369  0.07823008  1
  O  O123  1  0.57328336  0.64417554  0.07665454  1
  O  O124  1  0.25825063  0.86965320  0.07673312  1
  O  O125  1  0.75705132  0.87124766  0.07612310  1
  O  O126  1  0.17967487  0.86839589  0.57718511  1
  O  O127  1  0.67857702  0.86888356  0.57913372  1
  O  O128  1  0.25711857  0.64601843  0.57646748  1
  O  O129  1  0.75740626  0.64343813  0.57958677  1
  O  O130  1  0.06613030  0.48816680  0.57881383  1
  O  O131  1  0.56467422  0.48676082  0.57830543  1
  O  O132  1  0.15280732  0.82193316  0.25651327  1
  O  O133  1  0.65393068  0.84851051  0.25344408  1
  O  O134  1  0.26982047  0.69623473  0.25495828  1
  O  O135  1  0.75669963  0.68023268  0.25269866  1
  O  O136  1  0.07611235  0.46715668  0.25436955  1
  O  O137  1  0.58754871  0.47553700  0.25365452  1
  O  O138  1  0.14731579  0.47623494  0.75492468  1
  O  O139  1  0.65009458  0.47539387  0.75894609  1
  O  O140  1  0.07766713  0.69392072  0.75437411  1
  O  O141  1  0.58465362  0.69094870  0.75781124  1
  O  O142  1  0.25530350  0.83110504  0.75507073  1
  O  O143  1  0.76013821  0.83844654  0.75444271  1
loop_
_geom_bond_atom_site_label_1
_geom_bond_atom_site_label_2
_geom_bond_distance
_geom_bond_site_symmetry_2
Na0 O137 2.357074 1_555
Na0 O135 2.366853 1_555
Na0 O103 2.486122 1_555
Na0 O107 2.491975 1_555
Na0 O65 2.696974 1_555
Na0 O35 2.904990 1_555
Na0 O1 2.966210 1_555
Na0 O21 3.021211 1_555
Na1 O103 2.402429 1_555
Na1 O132 2.478535 1_655
Na1 O105 2.586523 1_555
Na1 O136 2.655419 1_655
Na1 O3 2.702456 1_555
Na1 O22 2.817983 1_655
Na1 O60 2.845340 1_655
Na1 O31 2.915715 1_555
Na2 O97 2.348192 1_555
Na2 O138 2.372177 1_655
Na2 O101 2.545531 1_555
Na2 O140 2.654234 1_655
Na2 O66 2.743397 1_655
Na2 O11 2.840478 1_555
Na2 O25 2.885042 1_555
Na2 O14 2.901441 1_655
Na3 O100 2.354797 1_555
Na3 O96 2.383227 1_555
Na3 O139 2.501993 1_555
Na3 O141 2.616878 1_555
Na3 O24 2.800023 1_555
Na3 O10 2.909993 1_555
Na3 O15 2.912804 1_555
Na3 O67 2.992361 1_555
Na4 O98 2.283316 1_555
Na4 O96 2.386071 1_555
Na4 O142 2.464092 1_545
Na4 O140 2.612246 1_545
Na4 O68 2.795928 1_545
Na4 O26 2.858449 1_555
Na4 O6 2.887789 1_555
Na5 O99 2.344764 1_555
Na5 O143 2.527811 1_545
Na5 O141 2.529765 1_545
Na5 O97 2.593896 1_555
Na5 O27 2.827021 1_555
Na5 O7 2.840762 1_555
Na5 O69 2.863110 1_545
Na5 O17 2.871118 1_545
Na6 O72 2.446474 1_655
Na6 O75 2.484991 1_555
Na6 O76 2.504873 1_665
Na6 O85 2.871098 1_565
Na6 O89 2.876723 1_555
Na6 O86 2.902620 1_665
Na7 O77 2.567818 1_555
Na7 O73 2.635529 1_545
Na7 O87 2.664017 1_555
Na7 O84 2.739368 1_555
Na7 O88 2.749203 1_545
Na7 O74 2.773471 1_545
Na8 O78 2.546304 1_555
Na8 O80 2.558759 1_545
Na8 O94 2.573653 1_556
Na8 O91 2.780406 1_446
Na8 O83 2.813264 1_445
Na8 O93 2.832818 1_456
Na9 O81 2.430161 1_555
Na9 O82 2.646927 1_555
Na9 O90 2.648042 1_556
Na9 O79 2.705955 1_565
Na9 O95 2.788124 1_566
Na9 O92 2.845104 1_566
Na10 O100 2.523768 1_555
Na10 O98 2.528638 1_555
Na10 O96 2.558202 1_555
Na10 O112 2.769257 1_555
Na10 O108 2.860437 1_555
Na10 O110 2.936439 1_555
Na11 O99 2.504950 1_555
Na11 O97 2.573091 1_555
Na11 O101 2.746536 1_555
Na11 O113 2.776446 1_555
Na11 O111 2.817832 1_555
Na11 O109 2.891100 1_555
Na12 O104 2.563945 1_555
Na12 O106 2.585465 1_555
Na12 O102 2.689498 1_555
Na12 O118 2.777312 1_555
Na12 O116 2.784151 1_555
Na12 O114 2.831888 1_555
Na13 O119 2.652088 1_555
Na13 O117 2.660155 1_555
Na13 O115 2.677602 1_555
Na13 O103 2.695598 1_555
Na13 O105 2.825771 1_555
Na13 O107 2.836206 1_555
Na14 O120 2.542325 1_555
Na14 O132 2.670582 1_555
Na14 O134 2.688486 1_555
Na14 O124 2.703365 1_555
Na14 O136 2.734712 1_555
Na14 O122 2.752139 1_555
Na15 O137 2.481145 1_555
Na15 O135 2.488399 1_555
Na15 O133 2.605830 1_555
Na15 O123 2.725184 1_555
Na15 O121 2.863095 1_555
Na15 O125 2.873306 1_555
Na16 O142 2.481770 1_555
Na16 O138 2.524477 1_555
Na16 O128 2.693965 1_555
Na16 O140 2.765661 1_555
Na16 O126 2.809177 1_555
Na16 O130 2.812688 1_555
Na17 O143 2.605528 1_555
Na17 O139 2.657847 1_555
Na17 O129 2.667520 1_555
Na17 O141 2.706777 1_555
Na17 O127 2.726001 1_555
Na17 O131 2.737605 1_555
Mg0 O100 1.969839 1_555
Mg0 O98 1.985326 1_555
Mg0 O96 2.035757 1_555
Mg0 O28 2.206967 1_555
Mg0 O24 2.249627 1_555
Mg0 O26 2.263514 1_555
Mg1 O99 1.974951 1_555
Mg1 O97 2.070657 1_555
Mg1 O27 2.102936 1_555
Mg1 O29 2.107765 1_555
Mg1 O101 2.231923 1_555
Mg1 O25 2.263104 1_555
Mg2 O103 2.006203 1_555
Mg2 O31 2.110701 1_555
Mg2 O35 2.135442 1_555
Mg2 O33 2.158330 1_555
Mg2 O105 2.164203 1_555
Mg2 O107 2.201769 1_555
O0 Si0 1.615850 1_555
O0 Zr0 2.056542 1_445
O1 S0 1.486373 1_555
O1 Zr1 2.218568 1_555
O2 S1 1.467880 1_555
O2 Zr1 2.272366 1_565
O3 Si1 1.640609 1_555
O3 Zr0 2.063022 1_555
O4 Si2 1.646390 1_555
O4 Zr1 1.992323 1_555
O5 S2 1.463715 1_555
O5 Zr0 2.367533 1_545
O6 Si3 1.653756 1_555
O6 Zr2 1.970186 1_555
O7 Si4 1.646515 1_555
O7 Zr3 1.976300 1_545
O8 Si5 1.633717 1_555
O8 Zr3 1.967481 1_555
O9 S3 1.462309 1_555
O9 Zr2 2.350525 1_665
O10 Si6 1.641161 1_545
O10 Zr3 2.041819 1_545
O11 Si7 1.627803 1_555
O11 Zr2 2.058190 1_655
O12 Si6 1.651636 1_555
O12 Zr5 1.963051 1_565
O13 Si7 1.656862 1_565
O13 Zr4 1.938290 1_565
O14 Si3 1.668355 1_555
O14 Zr4 1.957636 1_455
O15 Si4 1.655542 1_555
O15 Zr5 1.984776 1_555
O16 S3 1.502160 1_455
O16 Zr4 2.186598 1_465
O17 Si5 1.650618 1_555
O17 Zr5 1.992745 1_565
O18 S1 1.497548 1_555
O18 Zr7 2.158417 1_565
O19 Si1 1.653638 1_555
O19 Zr6 1.999417 1_655
O20 S2 1.479824 1_455
O20 Zr6 2.196677 1_545
O21 Si2 1.672939 1_555
O21 Zr7 1.974108 1_555
O22 Si0 1.664313 1_565
O22 Zr6 1.956803 1_555
O23 S0 1.501588 1_565
O23 Zr7 2.133926 1_565
O24 S4 1.468587 1_555
O25 S5 1.463510 1_555
O26 S6 1.466864 1_555
O27 S7 1.475888 1_555
O28 S8 1.457595 1_555
O29 S9 1.470621 1_555
O30 Si8 1.619898 1_555
O30 Zr8 2.029156 1_555
O31 S10 1.476161 1_555
O32 S11 1.475390 1_555
O32 Zr8 2.223628 1_555
O33 S12 1.474791 1_555
O34 Si9 1.628664 1_555
O34 Zr8 2.024506 1_555
O35 S13 1.478020 1_555
O36 Si9 1.658073 1_555
O36 Zr9 1.944722 1_554
O37 S13 1.476386 1_555
O37 Zr10 2.249305 1_554
O38 Si8 1.629099 1_555
O38 Zr9 2.043692 1_554
O39 S10 1.483376 1_555
O39 Zr10 2.246926 1_554
O40 S11 1.472663 1_555
O40 Zr9 2.219079 1_554
O41 S12 1.502624 1_555
O41 Zr10 2.133570 1_554
O42 S6 1.485706 1_555
O42 Zr11 2.273144 1_555
O43 S7 1.483566 1_555
O43 Zr12 2.239251 1_555
O44 S8 1.503088 1_555
O44 Zr11 2.114980 1_555
O45 S9 1.482294 1_555
O45 Zr12 2.270625 1_555
O46 S4 1.498645 1_555
O46 Zr11 2.219231 1_555
O47 S5 1.464270 1_555
O47 Zr12 2.296035 1_555
O48 S14 1.476611 1_555
O48 Zr13 2.211655 1_556
O49 S15 1.479558 1_555
O49 Zr14 2.275964 1_556
O50 Si10 1.631119 1_555
O50 Zr13 1.945543 1_556
O51 S16 1.506578 1_555
O51 Zr14 2.142058 1_556
O52 Si11 1.640922 1_555
O52 Zr13 2.002645 1_556
O53 Si12 1.649891 1_555
O53 Zr14 1.928818 1_556
O54 S17 1.480897 1_555
O54 Zr15 2.204045 1_555
O55 Si13 1.646150 1_555
O55 Zr16 1.958230 1_555
O56 Si14 1.656954 1_555
O56 Zr15 1.931301 1_555
O57 Si15 1.622239 1_555
O57 Zr16 1.986274 1_555
O58 Si16 1.641033 1_555
O58 Zr15 1.931326 1_555
O59 Si17 1.637598 1_555
O59 Zr16 1.980140 1_555
O60 Si16 1.649216 1_555
O60 Zr17 1.974798 1_555
O61 Si17 1.619197 1_555
O61 Zr18 2.037790 1_555
O62 S17 1.481706 1_555
O62 Zr17 2.201532 1_555
O63 Si13 1.629708 1_555
O63 Zr18 2.015895 1_555
O64 Si14 1.641777 1_555
O64 Zr17 1.993664 1_555
O65 Si15 1.628470 1_555
O65 Zr18 2.017702 1_555
O66 Si10 1.629249 1_555
O66 Zr19 2.068016 1_555
O67 S16 1.487744 1_555
O67 Zr20 2.305054 1_555
O68 Si11 1.658281 1_555
O68 Zr19 2.004575 1_555
O69 Si12 1.632620 1_555
O69 Zr20 2.048794 1_555
O70 S14 1.496913 1_555
O70 Zr19 2.124041 1_555
O71 S15 1.480547 1_555
O71 Zr20 2.254067 1_555
O72 Si16 1.606397 1_555
O72 Zr0 2.026121 1_455
O73 Si17 1.633975 1_555
O73 Zr1 2.052024 1_565
O74 S17 1.478915 1_555
O74 Zr1 2.221589 1_565
O75 Si13 1.613067 1_555
O75 Zr0 2.077327 1_555
O76 Si14 1.595995 1_555
O76 Zr0 2.122403 1_445
O77 Si15 1.645410 1_555
O77 Zr1 1.979107 1_555
O78 Si10 1.628910 1_555
O78 Zr2 2.013579 1_555
O79 S16 1.475862 1_555
O79 Zr3 2.366381 1_545
O80 Si11 1.636246 1_555
O80 Zr2 2.070333 1_565
O81 Si12 1.619521 1_555
O81 Zr3 2.130694 1_555
O82 S14 1.465865 1_555
O82 Zr3 2.355121 1_555
O83 S15 1.472016 1_555
O83 Zr2 2.354093 1_665
O84 S4 1.502876 1_555
O84 Zr5 2.308356 1_555
O85 S5 1.509301 1_555
O85 Zr4 2.180128 1_555
O86 S6 1.503828 1_555
O86 Zr4 2.299622 1_455
O87 S7 1.497626 1_555
O87 Zr5 2.327538 1_555
O88 S8 1.485727 1_555
O88 Zr5 2.338628 1_565
O89 S9 1.513181 1_555
O89 Zr4 2.236148 1_565
O90 Si8 1.652527 1_555
O90 Zr7 2.053925 1_565
O91 S10 1.487639 1_555
O91 Zr6 2.233978 1_655
O92 S11 1.506751 1_555
O92 Zr7 2.173772 1_555
O93 S12 1.466265 1_555
O93 Zr6 2.371025 1_645
O94 Si9 1.642698 1_555
O94 Zr6 2.080997 1_545
O95 S13 1.507361 1_555
O95 Zr7 2.202318 1_555
O96 Si6 1.609700 1_545
O97 Si7 1.620568 1_555
O98 Si3 1.588133 1_555
O99 Si4 1.603954 1_555
O100 Si5 1.587757 1_555
O101 S3 1.469745 1_555
O102 S1 1.478188 1_555
O102 Zr8 2.211775 1_555
O103 Si1 1.656853 1_555
O104 Si2 1.615131 1_555
O104 Zr8 2.089966 1_555
O105 S2 1.487111 1_555
O106 Si0 1.616117 1_555
O106 Zr8 2.080824 1_555
O107 S0 1.482828 1_555
O108 S14 1.487006 1_555
O108 Zr9 2.201349 1_555
O109 S15 1.501792 1_555
O109 Zr10 2.157643 1_555
O110 S16 1.474828 1_555
O110 Zr9 2.348492 1_555
O111 Si10 1.646409 1_655
O111 Zr10 1.966523 1_555
O112 Si11 1.645577 1_545
O112 Zr9 2.063959 1_555
O113 Si12 1.654313 1_545
O113 Zr10 1.961999 1_555
O114 S17 1.483580 1_545
O114 Zr11 2.230050 1_555
O115 Si13 1.644320 1_545
O115 Zr12 1.963503 1_555
O116 Si14 1.651073 1_555
O116 Zr11 1.970427 1_555
O117 Si15 1.629831 1_555
O117 Zr12 1.977216 1_555
O118 Si17 1.661336 1_555
O118 Zr11 1.956929 1_555
O119 Si16 1.618924 1_655
O119 Zr12 2.005485 1_555
O120 Si9 1.645852 1_555
O120 Zr13 2.069852 1_555
O121 S13 1.484711 1_555
O121 Zr14 2.302653 1_555
O122 S10 1.494809 1_455
O122 Zr13 2.206533 1_555
O123 Si8 1.671858 1_555
O123 Zr14 1.965769 1_555
O124 S11 1.476775 1_565
O124 Zr13 2.322735 1_555
O125 S12 1.504083 1_565
O125 Zr14 2.204646 1_555
O126 S6 1.507947 1_565
O126 Zr15 2.272391 1_555
O127 S7 1.496248 1_565
O127 Zr16 2.299973 1_555
O128 S8 1.504746 1_555
O128 Zr15 2.261964 1_555
O129 S9 1.492439 1_555
O129 Zr16 2.359393 1_555
O130 S5 1.516652 1_455
O130 Zr15 2.179400 1_555
O131 S4 1.493232 1_555
O131 Zr16 2.326876 1_555
O132 Si0 1.667969 1_565
O132 Zr17 2.094109 1_555
O133 S0 1.465414 1_565
O133 Zr18 2.343683 1_555
O134 S1 1.484903 1_555
O134 Zr17 2.301052 1_555
O135 Si1 1.638393 1_555
O135 Zr18 2.158958 1_555
O136 S2 1.522743 1_455
O136 Zr17 2.218710 1_555
O137 Si2 1.629738 1_555
O137 Zr18 2.179373 1_555
O138 Si3 1.640919 1_555
O138 Zr19 2.147999 1_555
O139 Si4 1.633106 1_555
O139 Zr20 2.068110 1_555
O140 S3 1.514308 1_455
O140 Zr19 2.316388 1_555
O141 Si5 1.667829 1_555
O141 Zr20 2.022131 1_555
O142 Si6 1.657103 1_555
O142 Zr19 2.071661 1_555
O143 Si7 1.643523 1_565
O143 Zr20 2.018131 1_555
