# generated using pymatgen
data_MgCu6OF11
_symmetry_space_group_name_H-M   'P 1'
_cell_length_a   5.56438147
_cell_length_b   4.96339402
_cell_length_c   8.81305992
_cell_angle_alpha   90.84226622
_cell_angle_beta   88.44200287
_cell_angle_gamma   80.09872302
_symmetry_Int_Tables_number   1
_chemical_formula_structural   MgCu6OF11
_chemical_formula_sum   'Mg1 Cu6 O1 F11'
_cell_volume   239.64063120
_cell_formula_units_Z   1
loop_
 _symmetry_equiv_pos_site_id
 _symmetry_equiv_pos_as_xyz
  1  'x, y, z'
loop_
 _atom_site_type_symbol
 _atom_site_label
 _atom_site_symmetry_multiplicity
 _atom_site_fract_x
 _atom_site_fract_y
 _atom_site_fract_z
 _atom_site_occupancy
  Mg  Mg0  1  0.54805100  0.70676700  0.76914700  1
  Cu  Cu0  1  0.99316800  0.00859900  0.99126400  1
  Cu  Cu1  1  0.41081000  0.48165600  0.13640500  1
  Cu  Cu2  1  0.33993300  0.96308800  0.33883600  1
  Cu  Cu3  1  0.83645900  0.50182800  0.31105800  1
  Cu  Cu4  1  0.14152700  0.50341100  0.67087400  1
  Cu  Cu5  1  0.77729200  0.15141200  0.58121900  1
  O  O0  1  0.57725800  0.72437900  0.23334700  1
  F  F0  1  0.21510000  0.20835700  0.09025200  1
  F  F1  1  0.11284500  0.71470300  0.25750500  1
  F  F2  1  0.72531700  0.26574200  0.07526000  1
  F  F3  1  0.06216200  0.23048600  0.42068300  1
  F  F4  1  0.57485700  0.19470600  0.40426100  1
  F  F5  1  0.31438800  0.78704300  0.60186400  1
  F  F6  1  0.81327000  0.70633900  0.60622200  1
  F  F7  1  0.48359800  0.31888200  0.72351700  1
  F  F8  1  0.27586100  0.73249100  0.91972300  1
  F  F9  1  0.98174300  0.22046400  0.74862800  1
  F  F10  1  0.77886200  0.78797800  0.90899600  1
loop_
_geom_bond_atom_site_label_1
_geom_bond_atom_site_label_2
_geom_bond_distance
_geom_bond_site_symmetry_2
Cu0 F10 1.902501 1_545
Cu0 F2 1.912158 1_556
Cu0 F0 1.929592 1_656
Cu0 F8 1.982244 1_645
Cu0 F9 2.394360 1_555
Cu1 O0 1.853537 1_555
Cu1 F0 1.925443 1_555
Cu1 F2 1.946343 1_555
Cu1 F1 2.105681 1_555
Cu1 F8 2.363668 1_554
Cu2 O0 1.837050 1_555
Cu2 F3 1.968880 1_565
Cu2 F4 1.975137 1_565
Cu2 F1 2.046789 1_555
Cu2 F5 2.498308 1_555
Cu2 F0 2.575727 1_565
Cu3 O0 1.815896 1_555
Cu3 F3 1.961390 1_655
Cu3 F1 2.058717 1_655
Cu3 F4 2.419137 1_555
Cu3 F2 2.514273 1_555
Cu4 F9 1.912305 1_455
Cu4 F5 1.932861 1_555
Cu4 F6 2.028838 1_455
Cu4 F7 2.034224 1_555
Cu5 F4 1.941473 1_555
Cu5 F9 1.949091 1_555
Cu5 F7 2.079685 1_555
Cu5 F3 2.185562 1_655
Cu5 F6 2.198467 1_545
F5 Mg0 1.991502 1_555
F6 Mg0 2.030579 1_555
F7 Mg0 2.054110 1_555
F8 Mg0 1.972427 1_555
F10 Mg0 1.892223 1_555
