# generated using pymatgen
data_Na10Zr4Ta4Si11SO48
_symmetry_space_group_name_H-M   'P 1'
_cell_length_a   18.16842089
_cell_length_b   9.09374784
_cell_length_c   22.74016906
_cell_angle_alpha   90.00214382
_cell_angle_beta   89.94428546
_cell_angle_gamma   119.98268289
_symmetry_Int_Tables_number   1
_chemical_formula_structural   Na10Zr4Ta4Si11SO48
_chemical_formula_sum   'Na30 Zr12 Ta12 Si33 S3 O144'
_cell_volume   3254.31736944
_cell_formula_units_Z   3
loop_
 _symmetry_equiv_pos_site_id
 _symmetry_equiv_pos_as_xyz
  1  'x, y, z'
loop_
 _atom_site_type_symbol
 _atom_site_label
 _atom_site_symmetry_multiplicity
 _atom_site_fract_x
 _atom_site_fract_y
 _atom_site_fract_z
 _atom_site_occupancy
  Na  Na0  1  0.32147783  0.99979828  0.24960817  1
  Na  Na1  1  0.82136417  0.00026166  0.25032703  1
  Na  Na2  1  0.81942938  0.63933669  0.74887148  1
  Na  Na3  1  0.49834885  0.36523206  0.74917044  1
  Na  Na4  1  0.01656163  0.70169054  0.58402698  1
  Na  Na5  1  0.33351598  0.97088884  0.58742772  1
  Na  Na6  1  0.83346984  0.96306077  0.58270593  1
  Na  Na7  1  0.33215468  0.69638858  0.08607453  1
  Na  Na8  1  0.83156139  0.69598131  0.08710382  1
  Na  Na9  1  0.01658499  0.33521515  0.08532022  1
  Na  Na10  1  0.51279167  0.33141077  0.08519602  1
  Na  Na11  1  0.98541817  0.66112411  0.91248607  1
  Na  Na12  1  0.34989209  0.03441738  0.91472288  1
  Na  Na13  1  0.85162782  0.03267822  0.91660736  1
  Na  Na14  1  0.48351320  0.30405839  0.41340373  1
  Na  Na15  1  0.98400651  0.30535794  0.41263610  1
  Na  Na16  1  0.34908675  0.66705011  0.41464435  1
  Na  Na17  1  0.84841409  0.66671228  0.41457113  1
  Na  Na18  1  0.01627845  0.01690741  0.49903925  1
  Na  Na19  1  0.51542013  0.00261315  0.50176123  1
  Na  Na20  1  0.01775719  0.01715025  0.00006982  1
  Na  Na21  1  0.51299279  0.99635188  0.99887959  1
  Na  Na22  1  0.33062221  0.34993995  0.83280561  1
  Na  Na23  1  0.82929127  0.31987878  0.82984925  1
  Na  Na24  1  0.33433627  0.34651932  0.32940584  1
  Na  Na25  1  0.83404691  0.34720020  0.32871227  1
  Na  Na26  1  0.16103967  0.65438613  0.17038492  1
  Na  Na27  1  0.66007219  0.65287975  0.17128502  1
  Na  Na28  1  0.16880711  0.66563033  0.67303660  1
  Na  Na29  1  0.65828877  0.66754351  0.66400515  1
  Zr  Zr0  1  0.99692548  0.99680268  0.35588738  1
  Zr  Zr1  1  0.49685381  0.99770657  0.35629100  1
  Zr  Zr2  1  0.99702453  0.99582027  0.85480118  1
  Zr  Zr3  1  0.99824713  0.99360409  0.64472412  1
  Zr  Zr4  1  0.99845718  0.00235044  0.14366381  1
  Zr  Zr5  1  0.49774897  0.00235936  0.14407778  1
  Zr  Zr6  1  0.33661873  0.33434653  0.68611614  1
  Zr  Zr7  1  0.33885400  0.34712790  0.18506440  1
  Zr  Zr8  1  0.83822881  0.34660154  0.18465497  1
  Zr  Zr9  1  0.16523233  0.65295996  0.31525084  1
  Zr  Zr10  1  0.66513740  0.65305065  0.31505288  1
  Zr  Zr11  1  0.16943803  0.67821463  0.81398810  1
  Ta  Ta0  1  0.50174720  0.00060019  0.85492516  1
  Ta  Ta1  1  0.50121930  0.99846541  0.64553711  1
  Ta  Ta2  1  0.83214381  0.33047929  0.68815134  1
  Ta  Ta3  1  0.33498233  0.34083820  0.97779026  1
  Ta  Ta4  1  0.82988439  0.33042553  0.97760631  1
  Ta  Ta5  1  0.33385448  0.33301477  0.48202998  1
  Ta  Ta6  1  0.83023442  0.32645351  0.48043333  1
  Ta  Ta7  1  0.16873385  0.67038168  0.01890417  1
  Ta  Ta8  1  0.66541165  0.66838840  0.01874824  1
  Ta  Ta9  1  0.16677607  0.66360887  0.52199130  1
  Ta  Ta10  1  0.66424837  0.66489610  0.52233143  1
  Ta  Ta11  1  0.66473329  0.66942323  0.81153752  1
  Si  Si0  1  0.35114562  0.70258842  0.25046202  1
  Si  Si1  1  0.85120921  0.70307278  0.24998732  1
  Si  Si2  1  0.99969982  0.29683406  0.24981542  1
  Si  Si3  1  0.49970731  0.29715999  0.24994937  1
  Si  Si4  1  0.64315806  0.28671156  0.74992012  1
  Si  Si5  1  0.00074494  0.70081585  0.74864898  1
  Si  Si6  1  0.49894426  0.71350321  0.75140620  1
  Si  Si7  1  0.35550151  0.99578705  0.74971518  1
  Si  Si8  1  0.85165478  0.00071060  0.75021913  1
  Si  Si9  1  0.48241827  0.33512697  0.58462419  1
  Si  Si10  1  0.97831736  0.33717156  0.58361650  1
  Si  Si11  1  0.18877957  0.04292733  0.58313504  1
  Si  Si12  1  0.68770069  0.04354387  0.58454848  1
  Si  Si13  1  0.33437816  0.62455396  0.58356600  1
  Si  Si14  1  0.82872157  0.61589644  0.58398556  1
  Si  Si15  1  0.48157549  0.62604086  0.08109226  1
  Si  Si16  1  0.98115505  0.62521710  0.07860994  1
  Si  Si17  1  0.32882768  0.04223847  0.08299987  1
  Si  Si18  1  0.82819626  0.04020298  0.08344965  1
  Si  Si19  1  0.18971635  0.33516021  0.08060580  1
  Si  Si20  1  0.68771424  0.33499076  0.08073600  1
  Si  Si21  1  0.31327292  0.66549513  0.91536274  1
  Si  Si22  1  0.80695804  0.65556260  0.91462702  1
  Si  Si23  1  0.02217461  0.37702447  0.91808293  1
  Si  Si24  1  0.52223759  0.37732856  0.91557749  1
  Si  Si25  1  0.16921835  0.96359605  0.91743223  1
  Si  Si26  1  0.66494769  0.95499700  0.91607843  1
  Si  Si27  1  0.30795277  0.96125280  0.41591243  1
  Si  Si28  1  0.80792214  0.95755347  0.41695182  1
  Si  Si29  1  0.16898032  0.37410040  0.41974042  1
  Si  Si30  1  0.66815943  0.37595411  0.41985725  1
  Si  Si31  1  0.02086158  0.66492534  0.42062485  1
  Si  Si32  1  0.52187838  0.66691681  0.41970397  1
  S  S0  1  0.14522255  0.99969785  0.24998547  1
  S  S1  1  0.64546685  0.00014144  0.24995729  1
  S  S2  1  0.14537489  0.28822276  0.75011017  1
  O  O0  1  0.10190546  0.01094189  0.30336906  1
  O  O1  1  0.60210962  0.01133982  0.30340111  1
  O  O2  1  0.40622727  0.79789348  0.31005301  1
  O  O3  1  0.90602393  0.79725162  0.30975542  1
  O  O4  1  0.49453035  0.18426985  0.30835245  1
  O  O5  1  0.99403384  0.18376606  0.30829317  1
  O  O6  1  0.10117722  0.18762102  0.80303845  1
  O  O7  1  0.59675641  0.17249682  0.80832725  1
  O  O8  1  0.49280090  0.81463559  0.80898451  1
  O  O9  1  0.98637336  0.79347521  0.80659875  1
  O  O10  1  0.41583962  0.01815197  0.80788714  1
  O  O11  1  0.90695061  0.02594822  0.80969065  1
  O  O12  1  0.40630682  0.98635678  0.69030466  1
  O  O13  1  0.89574358  0.96808588  0.69281304  1
  O  O14  1  0.09545488  0.20129107  0.69695712  1
  O  O15  1  0.58232740  0.19408937  0.69288800  1
  O  O16  1  0.00866199  0.81351026  0.69016065  1
  O  O17  1  0.51045289  0.83099905  0.69314493  1
  O  O18  1  0.40207878  0.81587799  0.19203743  1
  O  O19  1  0.90238001  0.81595521  0.19150519  1
  O  O20  1  0.00719783  0.20145262  0.19026830  1
  O  O21  1  0.50744634  0.20282728  0.19023003  1
  O  O22  1  0.09634135  0.98870697  0.19667372  1
  O  O23  1  0.59656356  0.98909932  0.19657955  1
  O  O24  1  0.44196106  0.36333790  0.64445644  1
  O  O25  1  0.92841193  0.36579892  0.63924380  1
  O  O26  1  0.24993467  0.12545279  0.63961571  1
  O  O27  1  0.75087596  0.14110437  0.64011875  1
  O  O28  1  0.31919874  0.50579842  0.63995868  1
  O  O29  1  0.81819041  0.50437479  0.64312295  1
  O  O30  1  0.44222001  0.50450904  0.13872485  1
  O  O31  1  0.93880937  0.49965960  0.13517581  1
  O  O32  1  0.31667367  0.12199532  0.14347739  1
  O  O33  1  0.81545296  0.12003597  0.14345374  1
  O  O34  1  0.25137153  0.37537038  0.13698655  1
  O  O35  1  0.75068673  0.37629950  0.13630586  1
  O  O36  1  0.23984928  0.31727649  0.02346018  1
  O  O37  1  0.73779426  0.31661692  0.02278230  1
  O  O38  1  0.41997791  0.52370946  0.02536244  1
  O  O39  1  0.91967435  0.52671500  0.02101480  1
  O  O40  1  0.34487231  0.16676848  0.02609755  1
  O  O41  1  0.84066034  0.16346758  0.02614829  1
  O  O42  1  0.23980775  0.16431052  0.52649786  1
  O  O43  1  0.73606934  0.16032467  0.52651434  1
  O  O44  1  0.34679204  0.53332864  0.52466085  1
  O  O45  1  0.84337158  0.52247144  0.52705391  1
  O  O46  1  0.41998295  0.31004955  0.52813050  1
  O  O47  1  0.91951945  0.31128464  0.52507613  1
  O  O48  1  0.26669734  0.69381396  0.97386432  1
  O  O49  1  0.76134959  0.68496330  0.97210291  1
  O  O50  1  0.07960064  0.47024109  0.97702337  1
  O  O51  1  0.58020557  0.47151059  0.97372800  1
  O  O52  1  0.15644082  0.83526906  0.97291952  1
  O  O53  1  0.65527607  0.83679213  0.97326397  1
  O  O54  1  0.25756204  0.83513570  0.47237092  1
  O  O55  1  0.76160323  0.83754517  0.47492038  1
  O  O56  1  0.15575331  0.47579377  0.47557048  1
  O  O57  1  0.65813396  0.48154193  0.47523256  1
  O  O58  1  0.07660221  0.68236980  0.48006304  1
  O  O59  1  0.58132162  0.68827417  0.47735485  1
  O  O60  1  0.06433120  0.62409293  0.36539714  1
  O  O61  1  0.56396545  0.62547318  0.36388445  1
  O  O62  1  0.25582221  0.88089495  0.35571385  1
  O  O63  1  0.75553779  0.87780446  0.35684329  1
  O  O64  1  0.18995376  0.49694855  0.36247424  1
  O  O65  1  0.69003122  0.49709399  0.36203931  1
  O  O66  1  0.06443674  0.50536922  0.86328780  1
  O  O67  1  0.56898020  0.49499937  0.85726042  1
  O  O68  1  0.18961032  0.88284003  0.86024933  1
  O  O69  1  0.67983737  0.85760007  0.85997004  1
  O  O70  1  0.25355757  0.63364319  0.85912298  1
  O  O71  1  0.75164175  0.63951403  0.85551138  1
  O  O72  1  0.00629505  0.82682848  0.41600919  1
  O  O73  1  0.50716675  0.82830722  0.41563745  1
  O  O74  1  0.40211704  0.97488221  0.41493402  1
  O  O75  1  0.90311345  0.97630947  0.41487480  1
  O  O76  1  0.08197357  0.19373618  0.41515497  1
  O  O77  1  0.58120144  0.19536679  0.41594800  1
  O  O78  1  0.00649318  0.18452845  0.91415725  1
  O  O79  1  0.50989683  0.18652087  0.90964945  1
  O  O80  1  0.08080511  0.96662447  0.91314725  1
  O  O81  1  0.58272303  0.97848819  0.91058023  1
  O  O82  1  0.40551516  0.84397582  0.91042164  1
  O  O83  1  0.90135757  0.82647019  0.91192869  1
  O  O84  1  0.48639381  0.15870600  0.58794418  1
  O  O85  1  0.98255234  0.16430715  0.58917756  1
  O  O86  1  0.09311639  0.01455806  0.58525056  1
  O  O87  1  0.59450220  0.02419251  0.59130107  1
  O  O88  1  0.41726001  0.81735727  0.58999653  1
  O  O89  1  0.91508991  0.80441396  0.58629449  1
  O  O90  1  0.48535541  0.80682854  0.08502590  1
  O  O91  1  0.98422719  0.80580271  0.08369935  1
  O  O92  1  0.41456552  0.02260214  0.08544934  1
  O  O93  1  0.91523735  0.02577670  0.08470302  1
  O  O94  1  0.09399793  0.17352451  0.08471009  1
  O  O95  1  0.59271631  0.17269611  0.08427292  1
  O  O96  1  0.35160484  0.17174510  0.74831162  1
  O  O97  1  0.83981350  0.16675578  0.74227046  1
  O  O98  1  0.22963956  0.30169951  0.74846937  1
  O  O99  1  0.73956644  0.31790930  0.74289388  1
  O  O100  1  0.41753125  0.52255558  0.74878821  1
  O  O101  1  0.90963832  0.51697358  0.74334096  1
  O  O102  1  0.33777842  0.51223087  0.24825401  1
  O  O103  1  0.83805918  0.51280367  0.24754912  1
  O  O104  1  0.40839847  0.29382934  0.24932546  1
  O  O105  1  0.90857012  0.29449434  0.24863569  1
  O  O106  1  0.23093636  0.15262914  0.24829758  1
  O  O107  1  0.73102399  0.15306351  0.24817275  1
  O  O108  1  0.32788930  0.50344785  0.92379832  1
  O  O109  1  0.82182921  0.49219060  0.91940138  1
  O  O110  1  0.42604054  0.34900833  0.92192431  1
  O  O111  1  0.92512667  0.35346645  0.92437024  1
  O  O112  1  0.25410652  0.14885968  0.92579858  1
  O  O113  1  0.75438046  0.13737634  0.92179760  1
  O  O114  1  0.32749123  0.15670638  0.42507786  1
  O  O115  1  0.82519924  0.15219921  0.42491536  1
  O  O116  1  0.25506439  0.36174739  0.42736682  1
  O  O117  1  0.75397841  0.36156259  0.42719127  1
  O  O118  1  0.42731961  0.49459467  0.42668914  1
  O  O119  1  0.92475119  0.49373042  0.42613996  1
  O  O120  1  0.18056591  0.50706753  0.07370686  1
  O  O121  1  0.67878315  0.50659307  0.07335804  1
  O  O122  1  0.07442307  0.63994446  0.07347132  1
  O  O123  1  0.57438596  0.63947039  0.07381899  1
  O  O124  1  0.24913732  0.84710852  0.07515270  1
  O  O125  1  0.74937642  0.84573969  0.07377391  1
  O  O126  1  0.17997977  0.85358460  0.57534532  1
  O  O127  1  0.68415775  0.86016232  0.57821674  1
  O  O128  1  0.25234348  0.65568092  0.57531531  1
  O  O129  1  0.74936016  0.65129759  0.57827484  1
  O  O130  1  0.07157930  0.50973840  0.57910728  1
  O  O131  1  0.57629961  0.50261194  0.57687455  1
  O  O132  1  0.15394790  0.84615978  0.25177931  1
  O  O133  1  0.65457683  0.84710959  0.25171487  1
  O  O134  1  0.26136339  0.70558959  0.25128360  1
  O  O135  1  0.76152286  0.70624362  0.25081919  1
  O  O136  1  0.08144433  0.48752916  0.25239933  1
  O  O137  1  0.58167177  0.48755106  0.25222214  1
  O  O138  1  0.15229080  0.45734789  0.75242354  1
  O  O139  1  0.65070858  0.47595334  0.75571869  1
  O  O140  1  0.08229608  0.67527165  0.75177454  1
  O  O141  1  0.58418166  0.69059366  0.75696466  1
  O  O142  1  0.26331893  0.82541489  0.75117731  1
  O  O143  1  0.75862867  0.82291789  0.75654246  1
loop_
_geom_bond_atom_site_label_1
_geom_bond_atom_site_label_2
_geom_bond_distance
_geom_bond_site_symmetry_2
Na0 O104 2.328738 1_565
Na0 O134 2.330614 1_555
Na0 O106 2.631270 1_565
Na0 O132 2.639747 1_555
Na0 O62 2.668227 1_555
Na0 O32 2.676687 1_565
Na1 O135 2.329282 1_545
Na1 O105 2.331055 1_555
Na1 O133 2.627713 1_545
Na1 O107 2.628097 1_555
Na1 O63 2.683451 1_545
Na1 O33 2.687368 1_555
Na2 O101 2.400529 1_555
Na2 O143 2.424977 1_555
Na2 O99 2.535551 1_555
Na2 O139 2.659960 1_555
Na2 O29 2.694780 1_555
Na2 O71 2.719131 1_555
Na2 O13 2.887718 1_555
Na2 O9 2.940423 1_555
Na3 O96 2.348597 1_555
Na3 O139 2.431796 1_555
Na3 O100 2.510470 1_555
Na3 O141 2.570295 1_555
Na3 O24 2.589814 1_555
Na3 O67 2.751978 1_555
Na4 O130 2.408811 1_555
Na4 O89 2.448498 1_455
Na4 O86 2.464757 1_565
Na4 O126 2.581105 1_555
Na4 O58 2.645101 1_555
Na4 O16 2.650393 1_555
Na5 O84 2.427066 1_565
Na5 O126 2.454005 1_555
Na5 O128 2.498563 1_555
Na5 O88 2.528047 1_555
Na5 O12 2.657408 1_555
Na5 O26 2.796363 1_565
Na5 O54 2.928824 1_555
Na5 O46 2.992028 1_565
Na6 O127 2.389257 1_555
Na6 O85 2.398696 1_565
Na6 O129 2.460337 1_555
Na6 O89 2.534866 1_555
Na6 O13 2.739580 1_555
Na6 O55 2.744418 1_555
Na7 O120 2.427076 1_555
Na7 O90 2.441829 1_555
Na7 O124 2.506424 1_555
Na7 O92 2.569590 1_565
Na7 O18 2.688297 1_555
Na7 O34 2.780502 1_555
Na7 O48 2.811408 1_554
Na8 O91 2.434696 1_555
Na8 O121 2.447900 1_555
Na8 O125 2.491880 1_555
Na8 O93 2.598363 1_565
Na8 O19 2.661747 1_555
Na8 O35 2.754965 1_555
Na8 O49 2.890497 1_554
Na9 O122 2.438249 1_555
Na9 O93 2.475959 1_455
Na9 O94 2.491439 1_555
Na9 O120 2.594820 1_555
Na9 O20 2.645063 1_555
Na9 O50 2.733681 1_554
Na9 O31 2.761721 1_455
Na10 O123 2.456285 1_555
Na10 O92 2.462118 1_555
Na10 O95 2.507364 1_555
Na10 O121 2.627164 1_555
Na10 O21 2.639670 1_555
Na10 O30 2.759994 1_555
Na10 O51 2.825439 1_554
Na10 O40 2.966104 1_555
Na11 O80 2.430980 1_655
Na11 O111 2.456994 1_555
Na11 O109 2.579538 1_555
Na11 O83 2.624641 1_555
Na11 O9 2.688140 1_555
Na11 O66 2.710727 1_655
Na11 O39 2.747150 1_556
Na12 O82 2.403977 1_545
Na12 O112 2.446295 1_555
Na12 O110 2.483883 1_555
Na12 O79 2.521478 1_555
Na12 O10 2.744304 1_555
Na12 O68 2.812399 1_545
Na12 O40 2.824958 1_556
Na12 O48 3.000691 1_545
Na13 O113 2.392282 1_555
Na13 O78 2.437831 1_655
Na13 O83 2.457075 1_545
Na13 O111 2.535982 1_555
Na13 O11 2.642345 1_555
Na13 O41 2.809797 1_556
Na14 O77 2.425682 1_555
Na14 O118 2.429659 1_555
Na14 O114 2.470534 1_555
Na14 O74 2.593124 1_545
Na14 O4 2.673999 1_555
Na14 O61 2.770322 1_555
Na14 O46 2.863324 1_555
Na15 O76 2.451054 1_655
Na15 O119 2.455659 1_555
Na15 O115 2.514884 1_555
Na15 O75 2.592447 1_545
Na15 O5 2.661989 1_555
Na15 O60 2.730277 1_655
Na15 O47 2.823235 1_555
Na16 O116 2.443112 1_555
Na16 O74 2.463533 1_555
Na16 O73 2.488037 1_555
Na16 O118 2.604510 1_555
Na16 O2 2.628921 1_555
Na16 O44 2.772867 1_555
Na16 O64 2.774136 1_555
Na17 O117 2.442743 1_555
Na17 O75 2.473396 1_555
Na17 O72 2.484936 1_655
Na17 O119 2.578482 1_555
Na17 O3 2.634280 1_555
Na17 O65 2.767118 1_555
Na17 O45 2.855057 1_555
Na18 O76 2.393035 1_555
Na18 O86 2.414100 1_555
Na18 O72 2.504549 1_545
Na18 O85 2.681783 1_455
Na18 O75 2.697324 1_445
Na18 O89 2.737415 1_445
Na19 O87 2.443902 1_555
Na19 O73 2.476568 1_545
Na19 O77 2.492139 1_555
Na19 O84 2.622945 1_555
Na19 O88 2.652370 1_545
Na19 O74 2.772852 1_545
Na20 O94 2.383637 1_555
Na20 O80 2.439649 1_544
Na20 O78 2.547116 1_554
Na20 O91 2.551359 1_445
Na20 O93 2.705284 1_455
Na20 O83 2.799886 1_444
Na21 O81 2.421560 1_555
Na21 O95 2.474698 1_566
Na21 O90 2.488675 1_556
Na21 O82 2.661295 1_555
Na21 O79 2.684921 1_565
Na21 O92 2.747743 1_566
Na22 O100 2.474795 1_555
Na22 O108 2.510295 1_555
Na22 O98 2.537505 1_555
Na22 O96 2.660601 1_555
Na22 O110 2.670947 1_555
Na22 O112 2.683651 1_555
Na23 O97 2.491367 1_555
Na23 O99 2.558291 1_555
Na23 O101 2.567679 1_555
Na23 O113 2.591488 1_555
Na23 O109 2.613876 1_555
Na23 O111 2.687136 1_555
Na24 O102 2.363492 1_555
Na24 O104 2.448667 1_555
Na24 O106 2.595336 1_555
Na24 O116 2.692393 1_555
Na24 O118 2.700847 1_555
Na24 O114 2.741050 1_555
Na25 O103 2.360067 1_555
Na25 O105 2.454095 1_555
Na25 O107 2.584232 1_555
Na25 O119 2.685514 1_555
Na25 O117 2.707738 1_555
Na25 O115 2.769660 1_555
Na26 O136 2.381969 1_555
Na26 O134 2.466096 1_555
Na26 O132 2.589927 1_555
Na26 O122 2.674093 1_555
Na26 O120 2.688339 1_555
Na26 O124 2.740998 1_555
Na27 O137 2.351924 1_555
Na27 O135 2.452836 1_555
Na27 O133 2.578868 1_555
Na27 O123 2.677275 1_555
Na27 O121 2.700838 1_555
Na27 O125 2.788292 1_555
Na28 O142 2.393604 1_555
Na28 O140 2.411708 1_555
Na28 O138 2.523427 1_555
Na28 O130 2.682667 1_555
Na28 O128 2.716710 1_555
Na28 O126 2.747794 1_555
Na29 O131 2.483302 1_555
Na29 O127 2.504102 1_555
Na29 O141 2.569416 1_555
Na29 O129 2.607348 1_555
Na29 O139 2.676569 1_555
Na29 O143 2.679682 1_555
O0 S0 1.477183 1_545
O0 Zr0 2.197992 1_445
O1 S1 1.478582 1_555
O1 Zr1 2.208508 1_545
O2 Si0 1.650644 1_555
O2 Zr1 2.032555 1_555
O3 Si1 1.650036 1_555
O3 Zr0 2.031970 1_555
O4 Si3 1.652251 1_555
O4 Zr1 2.034770 1_545
O5 Si2 1.652336 1_555
O5 Zr0 2.038218 1_545
O6 S2 1.481340 1_555
O6 Zr2 2.169226 1_445
O7 Si4 1.635954 1_555
O7 Ta0 1.961047 1_555
O8 Si6 1.635497 1_555
O8 Ta0 1.924358 1_565
O9 Si5 1.653451 1_655
O9 Zr2 2.066203 1_555
O10 Si7 1.665230 1_545
O10 Ta0 1.964178 1_555
O11 Si8 1.631903 1_555
O11 Zr2 2.063230 1_545
O12 Si7 1.661709 1_555
O12 Ta1 1.956757 1_555
O13 Si8 1.633785 1_565
O13 Zr3 2.069320 1_555
O14 S2 1.481202 1_555
O14 Zr3 2.183365 1_445
O15 Si4 1.638660 1_555
O15 Ta1 1.969380 1_545
O16 Si5 1.640830 1_555
O16 Zr3 2.023801 1_455
O17 Si6 1.648308 1_555
O17 Ta1 1.942994 1_555
O18 Si0 1.651572 1_555
O18 Zr5 2.033924 1_565
O19 Si1 1.652435 1_555
O19 Zr4 2.035416 1_565
O20 Si2 1.649899 1_455
O20 Zr4 2.034553 1_455
O21 Si3 1.649240 1_555
O21 Zr5 2.033484 1_555
O22 S0 1.477086 1_555
O22 Zr4 2.203619 1_465
O23 S1 1.478439 1_565
O23 Zr5 2.209888 1_565
O24 Si9 1.625984 1_555
O24 Zr6 2.030315 1_555
O25 Si10 1.650365 1_555
O25 Ta2 1.958056 1_555
O26 Si11 1.617609 1_555
O26 Zr6 2.054262 1_555
O27 Si12 1.639017 1_555
O27 Ta2 1.949473 1_555
O28 Si13 1.608897 1_555
O28 Zr6 2.031446 1_555
O29 Si14 1.636839 1_555
O29 Ta2 2.003687 1_555
O30 Si15 1.630570 1_555
O30 Zr7 1.998875 1_555
O31 Si16 1.634137 1_555
O31 Zr8 1.999153 1_555
O32 Si17 1.620364 1_555
O32 Zr7 2.103372 1_555
O33 Si18 1.615496 1_555
O33 Zr8 2.107725 1_555
O34 Si19 1.620393 1_555
O34 Zr7 2.049124 1_555
O35 Si20 1.618695 1_555
O35 Zr8 2.060145 1_555
O36 Si19 1.640277 1_555
O36 Ta3 1.933465 1_554
O37 Si20 1.655956 1_555
O37 Ta4 1.912376 1_554
O38 Si15 1.638984 1_555
O38 Ta3 1.938270 1_554
O39 Si16 1.663783 1_555
O39 Ta4 1.978508 1_554
O40 Si17 1.646571 1_555
O40 Ta3 2.007371 1_554
O41 Si18 1.658774 1_555
O41 Ta4 1.964591 1_554
O42 Si11 1.646724 1_555
O42 Ta5 1.916379 1_555
O43 Si12 1.645225 1_555
O43 Ta6 1.928913 1_555
O44 Si13 1.649152 1_555
O44 Ta5 1.971205 1_555
O45 Si14 1.641334 1_555
O45 Ta6 1.983296 1_555
O46 Si9 1.653303 1_555
O46 Ta5 1.980178 1_555
O47 Si10 1.649286 1_555
O47 Ta6 1.976846 1_555
O48 Si21 1.663660 1_555
O48 Ta7 1.969687 1_556
O49 Si22 1.638808 1_555
O49 Ta8 1.979867 1_556
O50 Si23 1.649924 1_555
O50 Ta7 1.974602 1_556
O51 Si24 1.640863 1_555
O51 Ta8 1.970478 1_556
O52 Si25 1.654269 1_555
O52 Ta7 1.930542 1_556
O53 Si26 1.639597 1_555
O53 Ta8 1.931664 1_556
O54 Si27 1.658380 1_555
O54 Ta9 1.962639 1_555
O55 Si28 1.648305 1_555
O55 Ta10 1.994189 1_555
O56 Si29 1.657179 1_555
O56 Ta9 1.931299 1_555
O57 Si30 1.647757 1_555
O57 Ta10 1.937672 1_555
O58 Si31 1.649169 1_555
O58 Ta9 1.976026 1_555
O59 Si32 1.647995 1_555
O59 Ta10 1.919480 1_555
O60 Si31 1.621733 1_555
O60 Zr9 2.060321 1_555
O61 Si32 1.619901 1_555
O61 Zr10 2.051834 1_555
O62 Si27 1.617314 1_555
O62 Zr9 2.108324 1_555
O63 Si28 1.616386 1_555
O63 Zr10 2.103756 1_555
O64 Si29 1.631789 1_555
O64 Zr9 2.001414 1_555
O65 Si30 1.631472 1_555
O65 Zr10 1.999935 1_555
O66 Si23 1.614610 1_555
O66 Zr11 2.089439 1_555
O67 Si24 1.647589 1_555
O67 Ta11 1.965227 1_555
O68 Si25 1.624316 1_555
O68 Zr11 2.005641 1_555
O69 Si26 1.650555 1_555
O69 Ta11 1.935904 1_555
O70 Si21 1.607840 1_555
O70 Zr11 2.043455 1_555
O71 Si22 1.641494 1_555
O71 Ta11 1.999865 1_555
O72 Si31 1.624270 1_555
O72 Zr0 2.133297 1_455
O73 Si32 1.620527 1_555
O73 Zr1 2.125697 1_555
O74 Si27 1.652496 1_555
O74 Zr1 2.102979 1_555
O75 Si28 1.651491 1_555
O75 Zr0 2.101709 1_555
O76 Si29 1.615189 1_555
O76 Zr0 2.156233 1_445
O77 Si30 1.614908 1_555
O77 Zr1 2.161130 1_545
O78 Si23 1.629415 1_555
O78 Zr2 2.121688 1_445
O79 Si24 1.640248 1_555
O79 Ta0 2.044277 1_555
O80 Si25 1.623288 1_555
O80 Zr2 2.134417 1_455
O81 Si26 1.616264 1_555
O81 Ta0 2.026313 1_565
O82 Si21 1.654257 1_555
O82 Ta0 2.045739 1_565
O83 Si22 1.642081 1_555
O83 Zr2 2.097804 1_555
O84 Si9 1.643357 1_555
O84 Ta1 2.074685 1_545
O85 Si10 1.616779 1_555
O85 Zr3 2.128337 1_545
O86 Si11 1.625229 1_555
O86 Zr3 2.122146 1_445
O87 Si12 1.619687 1_555
O87 Ta1 2.011931 1_545
O88 Si13 1.650636 1_555
O88 Ta1 2.031533 1_555
O89 Si14 1.647870 1_555
O89 Zr3 2.100901 1_555
O90 Si15 1.613299 1_555
O90 Zr5 2.148454 1_565
O91 Si16 1.619171 1_555
O91 Zr4 2.158597 1_565
O92 Si17 1.655194 1_555
O92 Zr5 2.092230 1_555
O93 Si18 1.651147 1_555
O93 Zr4 2.110693 1_555
O94 Si19 1.624312 1_555
O94 Zr4 2.128010 1_455
O95 Si20 1.617832 1_555
O95 Zr5 2.133141 1_555
O96 Si7 1.636961 1_545
O96 Zr6 2.159675 1_555
O97 Si8 1.638216 1_555
O97 Ta2 1.989603 1_555
O98 S2 1.473974 1_555
O98 Zr6 2.300941 1_555
O99 Si4 1.636112 1_555
O99 Ta2 2.048311 1_555
O100 Si6 1.624709 1_555
O100 Zr6 2.147247 1_555
O101 Si5 1.668520 1_655
O101 Ta2 2.012543 1_555
O102 Si0 1.624165 1_555
O102 Zr7 2.085308 1_555
O103 Si1 1.625054 1_555
O103 Zr8 2.081914 1_555
O104 Si3 1.644086 1_555
O104 Zr7 2.140685 1_555
O105 Si2 1.645398 1_555
O105 Zr8 2.140922 1_555
O106 S0 1.481885 1_545
O106 Zr7 2.359862 1_555
O107 S1 1.480252 1_555
O107 Zr8 2.355010 1_555
O108 Si21 1.634047 1_555
O108 Ta3 1.975251 1_555
O109 Si22 1.641112 1_555
O109 Ta4 2.037890 1_555
O110 Si24 1.640554 1_555
O110 Ta3 2.056573 1_555
O111 Si23 1.672488 1_655
O111 Ta4 2.034037 1_555
O112 Si25 1.629953 1_545
O112 Ta3 2.010986 1_555
O113 Si26 1.647631 1_545
O113 Ta4 2.042202 1_555
O114 Si27 1.642596 1_545
O114 Ta5 2.018938 1_555
O115 Si28 1.645964 1_545
O115 Ta6 1.992101 1_555
O116 Si29 1.632470 1_555
O116 Ta5 2.009958 1_555
O117 Si30 1.637220 1_555
O117 Ta6 1.983099 1_555
O118 Si32 1.655621 1_555
O118 Ta5 2.031868 1_555
O119 Si31 1.664648 1_655
O119 Ta6 2.042632 1_555
O120 Si19 1.660099 1_555
O120 Ta7 2.030928 1_555
O121 Si20 1.656146 1_555
O121 Ta8 2.030752 1_555
O122 Si16 1.635794 1_455
O122 Ta7 2.018474 1_555
O123 Si15 1.636840 1_555
O123 Ta8 1.983383 1_555
O124 Si17 1.646055 1_565
O124 Ta7 2.002470 1_555
O125 Si18 1.641911 1_565
O125 Ta8 2.009607 1_555
O126 Si11 1.657271 1_565
O126 Ta9 2.024935 1_555
O127 Si12 1.642730 1_565
O127 Ta10 2.063431 1_555
O128 Si13 1.661009 1_555
O128 Ta9 2.002034 1_555
O129 Si14 1.632115 1_555
O129 Ta10 2.054225 1_555
O130 Si10 1.638982 1_455
O130 Ta9 2.052613 1_555
O131 Si9 1.631887 1_555
O131 Ta10 1.977105 1_555
O132 S0 1.482401 1_555
O132 Zr9 2.360681 1_555
O133 S1 1.481845 1_565
O133 Zr10 2.358966 1_555
O134 Si0 1.645098 1_555
O134 Zr9 2.134263 1_555
O135 Si1 1.644150 1_555
O135 Zr10 2.140708 1_555
O136 Si2 1.625554 1_455
O136 Zr9 2.082901 1_555
O137 Si3 1.625152 1_555
O137 Zr10 2.080638 1_555
O138 S2 1.480135 1_555
O138 Zr11 2.338025 1_555
O139 Si4 1.661874 1_555
O139 Ta11 2.079397 1_555
O140 Si5 1.611992 1_555
O140 Zr11 2.114439 1_555
O141 Si6 1.667476 1_555
O141 Ta11 2.001027 1_555
O142 Si7 1.616456 1_555
O142 Zr11 2.110609 1_555
O143 Si8 1.661219 1_565
O143 Ta11 2.009623 1_555
