# generated using pymatgen
data_Na6Ca3ZrSi2(SO6)4
_symmetry_space_group_name_H-M   'P 1'
_cell_length_a   9.39152076
_cell_length_b   9.41251578
_cell_length_c   23.43030784
_cell_angle_alpha   90.20797272
_cell_angle_beta   89.83584686
_cell_angle_gamma   119.91474206
_symmetry_Int_Tables_number   1
_chemical_formula_structural   Na6Ca3ZrSi2(SO6)4
_chemical_formula_sum   'Na18 Ca9 Zr3 Si6 S12 O72'
_cell_volume   1795.22774796
_cell_formula_units_Z   3
loop_
 _symmetry_equiv_pos_site_id
 _symmetry_equiv_pos_as_xyz
  1  'x, y, z'
loop_
 _atom_site_type_symbol
 _atom_site_label
 _atom_site_symmetry_multiplicity
 _atom_site_fract_x
 _atom_site_fract_y
 _atom_site_fract_z
 _atom_site_occupancy
  Na  Na0  1  0.63210152  0.99598544  0.26158774  1
  Na  Na1  1  0.36805951  0.36409816  0.23997841  1
  Na  Na2  1  0.64155535  0.65260007  0.73830731  1
  Na  Na3  1  0.32454289  0.35379235  0.58989111  1
  Na  Na4  1  0.01661599  0.70023080  0.58318851  1
  Na  Na5  1  0.66562873  0.93860573  0.58464441  1
  Na  Na6  1  0.29707904  0.97517976  0.07257132  1
  Na  Na7  1  0.05670396  0.33744516  0.07244371  1
  Na  Na8  1  0.99409437  0.67688920  0.91575400  1
  Na  Na9  1  0.71186938  0.03946797  0.90095658  1
  Na  Na10  1  0.29910870  0.28350484  0.91846827  1
  Na  Na11  1  0.69399426  0.69350405  0.42263526  1
  Na  Na12  1  0.97272980  0.99133219  0.49614546  1
  Na  Na13  1  0.02314581  0.02167894  0.99440973  1
  Na  Na14  1  0.67340232  0.29788504  0.82426913  1
  Na  Na15  1  0.67544683  0.31517949  0.33724021  1
  Na  Na16  1  0.33736791  0.64753877  0.15984674  1
  Na  Na17  1  0.36241201  0.67958387  0.67107376  1
  Ca  Ca0  1  0.00201847  0.00433425  0.35126327  1
  Ca  Ca1  1  0.00022558  0.00990724  0.84569865  1
  Ca  Ca2  1  0.98118414  0.99335541  0.65552605  1
  Ca  Ca3  1  0.00209354  0.99716968  0.14696315  1
  Ca  Ca4  1  0.66400390  0.32256262  0.68659101  1
  Ca  Ca5  1  0.66747544  0.34440381  0.18160759  1
  Ca  Ca6  1  0.33749301  0.66179324  0.01606513  1
  Ca  Ca7  1  0.34329903  0.67287744  0.51191003  1
  Ca  Ca8  1  0.33534857  0.68225855  0.32407294  1
  Zr  Zr0  1  0.65522206  0.32646770  0.98090135  1
  Zr  Zr1  1  0.66588031  0.32926488  0.48173324  1
  Zr  Zr2  1  0.32433494  0.67772418  0.81950796  1
  Si  Si0  1  0.68056928  0.98898329  0.75301566  1
  Si  Si1  1  0.66623328  0.62838259  0.58390753  1
  Si  Si2  1  0.36481966  0.33350473  0.08619293  1
  Si  Si3  1  0.03132369  0.37012312  0.92080795  1
  Si  Si4  1  0.33298832  0.96669679  0.92237767  1
  Si  Si5  1  0.64520571  0.97881757  0.41682193  1
  S  S0  1  0.30350473  0.99943715  0.24849025  1
  S  S1  1  0.69605799  0.69825813  0.25232133  1
  S  S2  1  0.00110190  0.29907681  0.24859247  1
  S  S3  1  0.30696013  0.31500752  0.75114070  1
  S  S4  1  0.00458274  0.69841163  0.75104174  1
  S  S5  1  0.96083329  0.33582576  0.58098531  1
  S  S6  1  0.37085024  0.04073245  0.58121016  1
  S  S7  1  0.96182829  0.62722595  0.08075662  1
  S  S8  1  0.66799745  0.04421246  0.08337050  1
  S  S9  1  0.62840929  0.65928286  0.91586371  1
  S  S10  1  0.34149098  0.36371334  0.41761785  1
  S  S11  1  0.02061775  0.65939708  0.42012510  1
  O  O0  1  0.21664731  0.01578450  0.29804762  1
  O  O1  1  0.78775244  0.77741355  0.30512330  1
  O  O2  1  0.98211526  0.19406739  0.29823909  1
  O  O3  1  0.22590410  0.21385505  0.80181100  1
  O  O4  1  0.98996879  0.78285853  0.80215302  1
  O  O5  1  0.78114511  0.99734917  0.81049529  1
  O  O6  1  0.75356296  0.95071559  0.69401485  1
  O  O7  1  0.21446172  0.23660764  0.69782766  1
  O  O8  1  0.03005276  0.79595179  0.69840519  1
  O  O9  1  0.78165130  0.79974540  0.20188690  1
  O  O10  1  0.01874077  0.22149855  0.19528581  1
  O  O11  1  0.21279466  0.98692602  0.19502193  1
  O  O12  1  0.88446806  0.35423023  0.63303914  1
  O  O13  1  0.47168362  0.11142636  0.63247887  1
  O  O14  1  0.64818061  0.52385276  0.64089340  1
  O  O15  1  0.88242248  0.52812915  0.13161186  1
  O  O16  1  0.65324461  0.12206535  0.13589198  1
  O  O17  1  0.45561903  0.33849717  0.14545882  1
  O  O18  1  0.48145271  0.32699111  0.03039525  1
  O  O19  1  0.86513121  0.54100396  0.02846567  1
  O  O20  1  0.68434583  0.15121753  0.03229287  1
  O  O21  1  0.46403554  0.14347196  0.53042725  1
  O  O22  1  0.67431922  0.51731505  0.52788595  1
  O  O23  1  0.85163591  0.31337323  0.53066580  1
  O  O24  1  0.55791457  0.69114230  0.96611629  1
  O  O25  1  0.13712789  0.44066111  0.97847729  1
  O  O26  1  0.31201375  0.86978697  0.98078587  1
  O  O27  1  0.55401061  0.86536784  0.47245937  1
  O  O28  1  0.31838401  0.44052261  0.46930460  1
  O  O29  1  0.11201369  0.67480585  0.47308878  1
  O  O30  1  0.09931262  0.63464007  0.36966512  1
  O  O31  1  0.54441398  0.90988948  0.35662064  1
  O  O32  1  0.36684900  0.46659936  0.36626508  1
  O  O33  1  0.13538196  0.49887475  0.86717166  1
  O  O34  1  0.36221637  0.86699402  0.86797092  1
  O  O35  1  0.52256832  0.63161572  0.86445145  1
  O  O36  1  0.99702887  0.80278736  0.41447306  1
  O  O37  1  0.82310876  0.98535888  0.41517530  1
  O  O38  1  0.20516271  0.19640366  0.41208638  1
  O  O39  1  0.99922107  0.18398358  0.91257543  1
  O  O40  1  0.17438138  0.98941157  0.91243418  1
  O  O41  1  0.79883834  0.79617367  0.90834418  1
  O  O42  1  0.98086033  0.18827412  0.58287254  1
  O  O43  1  0.21303554  0.04159974  0.58408969  1
  O  O44  1  0.83754781  0.80871444  0.57950930  1
  O  O45  1  0.97606817  0.79188842  0.08322798  1
  O  O46  1  0.82035394  0.03358988  0.08329313  1
  O  O47  1  0.18749229  0.15885762  0.07830987  1
  O  O48  1  0.65601652  0.14662697  0.74952503  1
  O  O49  1  0.47790636  0.34521647  0.74861149  1
  O  O50  1  0.85287618  0.53700077  0.74713921  1
  O  O51  1  0.67313019  0.53000396  0.24925453  1
  O  O52  1  0.84907920  0.31160293  0.24642233  1
  O  O53  1  0.47240468  0.14988412  0.24774900  1
  O  O54  1  0.63738521  0.50382651  0.92245663  1
  O  O55  1  0.85026259  0.36629699  0.92456088  1
  O  O56  1  0.50654815  0.15137777  0.92383828  1
  O  O57  1  0.66458261  0.16564340  0.42655010  1
  O  O58  1  0.50178101  0.36012355  0.42337008  1
  O  O59  1  0.84938241  0.50936895  0.42393507  1
  O  O60  1  0.33445203  0.48936949  0.08478287  1
  O  O61  1  0.13031986  0.64946905  0.07838275  1
  O  O62  1  0.51843462  0.88273398  0.07819997  1
  O  O63  1  0.33798605  0.86986109  0.57486862  1
  O  O64  1  0.49983210  0.64648766  0.58074205  1
  O  O65  1  0.12273191  0.48577956  0.57364293  1
  O  O66  1  0.32541761  0.85296131  0.25175265  1
  O  O67  1  0.52696755  0.68101849  0.25396345  1
  O  O68  1  0.15364870  0.46211325  0.25403376  1
  O  O69  1  0.31848224  0.48009812  0.75662059  1
  O  O70  1  0.15238632  0.67672486  0.75669237  1
  O  O71  1  0.49819880  0.80844366  0.75976028  1
loop_
_geom_bond_atom_site_label_1
_geom_bond_atom_site_label_2
_geom_bond_distance
_geom_bond_site_symmetry_2
Na0 O31 2.372724 1_555
Na0 O66 2.509034 1_555
Na0 O53 2.574111 1_565
Na0 O67 2.621713 1_555
Na0 O52 2.658860 1_565
Na1 O17 2.412915 1_555
Na1 O51 2.496605 1_555
Na1 O67 2.605446 1_555
Na1 O68 2.619403 1_555
Na1 O53 2.652053 1_555
Na2 O71 2.485479 1_555
Na2 O49 2.521713 1_555
Na2 O14 2.595430 1_555
Na2 O69 2.666518 1_555
Na2 O6 2.669842 1_555
Na2 O50 2.706164 1_555
Na3 O64 2.413430 1_555
Na3 O43 2.584300 1_555
Na3 O7 2.747560 1_555
Na3 O65 2.763445 1_555
Na3 O42 2.803188 1_455
Na3 O14 2.895297 1_555
Na3 O28 2.952510 1_555
Na4 O44 2.364853 1_455
Na4 O63 2.624675 1_555
Na4 O65 2.668250 1_555
Na4 O29 2.776831 1_555
Na4 O43 2.795596 1_565
Na4 O8 2.825988 1_555
Na5 O64 2.392009 1_555
Na5 O44 2.466340 1_555
Na5 O6 2.679169 1_555
Na5 O42 2.711011 1_565
Na5 O27 2.786594 1_555
Na5 O63 2.820730 1_555
Na6 O26 2.397965 1_554
Na6 O47 2.416311 1_565
Na6 O62 2.627335 1_555
Na6 O45 2.634141 1_455
Na6 O61 2.661388 1_555
Na7 O60 2.283298 1_555
Na7 O25 2.373974 1_554
Na7 O47 2.532840 1_555
Na7 O46 2.615624 1_455
Na7 O61 2.663688 1_555
Na8 O55 2.545150 1_555
Na8 O40 2.561073 1_655
Na8 O41 2.590405 1_555
Na8 O33 2.838837 1_655
Na8 O4 2.852976 1_555
Na8 O54 2.908055 1_555
Na8 O19 2.922000 1_556
Na8 O26 3.021899 1_655
Na9 O5 2.305677 1_545
Na9 O39 2.355277 1_555
Na9 O56 2.670419 1_555
Na9 O55 2.731745 1_555
Na9 O41 2.794729 1_545
Na9 O34 2.950291 1_545
Na10 O40 2.412202 1_545
Na10 O39 2.489681 1_455
Na10 O56 2.788727 1_555
Na10 O54 2.798430 1_555
Na10 O3 2.814546 1_555
Na10 O25 2.948961 1_555
Na10 O18 3.048996 1_556
Na11 O37 2.393155 1_555
Na11 O36 2.504504 1_555
Na11 O58 2.730559 1_555
Na11 O59 2.767284 1_555
Na11 O27 2.794046 1_555
Na11 O1 2.878933 1_555
Na11 O22 2.930399 1_555
Na12 O37 2.347885 1_555
Na12 O44 2.493006 1_555
Na12 O36 2.690774 1_555
Na12 O42 2.720967 1_565
Na12 O38 2.858361 1_665
Na12 O43 2.918492 1_665
Na13 O47 2.434141 1_556
Na13 O40 2.491811 1_545
Na13 O39 2.535129 1_455
Na13 O46 2.857518 1_456
Na13 O45 2.877143 1_446
Na13 O41 2.922821 1_445
Na14 O48 2.207325 1_555
Na14 O50 2.720429 1_555
Na14 O49 2.748093 1_555
Na14 O55 2.764051 1_555
Na14 O56 2.765291 1_555
Na15 O57 2.499443 1_555
Na15 O59 2.673836 1_555
Na15 O52 2.687470 1_555
Na15 O53 2.737426 1_555
Na15 O58 2.752223 1_555
Na15 O51 2.900590 1_555
Na16 O60 2.291520 1_555
Na16 O61 2.735213 1_555
Na16 O67 2.755096 1_555
Na16 O62 2.776579 1_555
Na16 O68 2.809945 1_555
Na16 O66 2.927982 1_555
Na17 O71 2.422682 1_555
Na17 O64 2.573478 1_555
Na17 O69 2.638811 1_555
Na17 O70 2.800075 1_555
Na17 O63 2.963673 1_555
Ca0 O37 2.187631 1_445
Ca0 O2 2.262331 1_455
Ca0 O0 2.323613 1_555
Ca0 O1 2.342821 1_445
Ca0 O38 2.344307 1_555
Ca0 O36 2.392867 1_445
Ca1 O5 2.166576 1_445
Ca1 O39 2.266443 1_455
Ca1 O3 2.275591 1_555
Ca1 O4 2.323115 1_445
Ca1 O40 2.342835 1_545
Ca1 O41 2.447289 1_445
Ca2 O6 2.163321 1_555
Ca2 O8 2.353542 1_655
Ca2 O44 2.380201 1_555
Ca2 O7 2.452994 1_665
Ca2 O42 2.508409 1_565
Ca2 O43 2.597571 1_665
Ca3 O47 2.300872 1_565
Ca3 O11 2.323094 1_555
Ca3 O10 2.327912 1_565
Ca3 O45 2.352303 1_455
Ca3 O9 2.358000 1_455
Ca3 O46 2.420353 1_465
Ca4 O48 2.194421 1_555
Ca4 O14 2.248256 1_555
Ca4 O13 2.287759 1_555
Ca4 O12 2.307037 1_555
Ca4 O49 2.359372 1_555
Ca4 O50 2.378137 1_555
Ca5 O17 2.139665 1_555
Ca5 O15 2.226441 1_555
Ca5 O16 2.291379 1_555
Ca5 O51 2.335538 1_555
Ca5 O53 2.401845 1_555
Ca5 O52 2.419475 1_555
Ca6 O25 2.176796 1_554
Ca6 O26 2.247985 1_554
Ca6 O24 2.269212 1_554
Ca6 O60 2.280259 1_555
Ca6 O61 2.385556 1_555
Ca6 O62 2.408175 1_555
Ca7 O27 2.116284 1_555
Ca7 O64 2.281346 1_555
Ca7 O28 2.304234 1_555
Ca7 O29 2.365706 1_555
Ca7 O63 2.385006 1_555
Ca7 O65 2.418094 1_555
Ca8 O31 2.197282 1_555
Ca8 O30 2.292347 1_555
Ca8 O66 2.373130 1_555
Ca8 O32 2.408420 1_555
Ca8 O67 2.437410 1_555
Ca8 O68 2.522530 1_555
O0 S0 1.468266 1_545
O1 S1 1.478759 1_555
O2 S2 1.480952 1_655
O3 S3 1.474989 1_555
O4 S4 1.478421 1_655
O5 Si0 1.626193 1_555
O6 Si0 1.657700 1_555
O7 S3 1.489859 1_555
O8 S4 1.486140 1_555
O9 S1 1.480518 1_555
O10 S2 1.494479 1_555
O11 S0 1.487968 1_555
O12 S5 1.466033 1_555
O13 S6 1.467900 1_555
O14 Si1 1.619071 1_555
O15 S7 1.468037 1_555
O16 S8 1.471152 1_555
O17 Si2 1.619872 1_555
O18 Si2 1.723645 1_555
O18 Zr0 2.001312 1_554
O19 S7 1.499497 1_555
O19 Zr0 2.287277 1_554
O20 S8 1.524369 1_555
O20 Zr0 2.170722 1_554
O21 S6 1.508337 1_555
O21 Zr1 2.156138 1_555
O22 Si1 1.700076 1_555
O22 Zr1 2.038458 1_555
O23 S5 1.508432 1_555
O23 Zr1 2.157129 1_555
O24 S9 1.451063 1_555
O25 Si3 1.611552 1_555
O26 Si4 1.603746 1_555
O27 Si5 1.632391 1_555
O28 S10 1.478178 1_555
O29 S11 1.475938 1_555
O30 S11 1.470749 1_555
O31 Si5 1.641651 1_555
O32 S10 1.489646 1_555
O33 Si3 1.681003 1_555
O33 Zr2 2.062236 1_555
O34 Si4 1.681464 1_555
O34 Zr2 1.986243 1_555
O35 S9 1.501112 1_555
O35 Zr2 2.362978 1_555
O36 S11 1.479155 1_655
O37 Si5 1.641289 1_555
O38 S10 1.457550 1_555
O39 Si3 1.633636 1_655
O40 Si4 1.624433 1_555
O41 S9 1.481936 1_555
O42 S5 1.492388 1_555
O43 S6 1.487545 1_555
O44 Si1 1.660339 1_555
O45 S7 1.488639 1_555
O46 S8 1.483252 1_555
O47 Si2 1.666988 1_555
O48 Si0 1.613645 1_545
O49 S3 1.485286 1_555
O50 S4 1.478926 1_655
O51 S1 1.489546 1_555
O52 S2 1.491054 1_655
O53 S0 1.510396 1_545
O54 S9 1.515510 1_555
O54 Zr0 2.233152 1_555
O55 Si3 1.684817 1_655
O55 Zr0 2.131472 1_555
O56 Si4 1.689240 1_545
O56 Zr0 2.037821 1_555
O57 Si5 1.689834 1_545
O57 Zr1 2.002668 1_555
O58 S10 1.528845 1_555
O58 Zr1 2.188810 1_555
O59 S11 1.524235 1_655
O59 Zr1 2.183359 1_555
O60 Si2 1.628646 1_555
O61 S7 1.489977 1_455
O62 S8 1.472421 1_565
O63 S6 1.485755 1_565
O64 Si1 1.656245 1_555
O65 S5 1.480994 1_455
O66 S0 1.494282 1_555
O67 S1 1.514028 1_555
O68 S2 1.493471 1_555
O69 S3 1.507903 1_555
O69 Zr2 2.347959 1_555
O70 S4 1.506614 1_555
O70 Zr2 2.184580 1_555
O71 Si0 1.715682 1_555
O71 Zr2 2.033554 1_555
