# generated using pymatgen
data_Al2SiSn2S5O24
_symmetry_space_group_name_H-M   'P 1'
_cell_length_a   8.55532287
_cell_length_b   8.55892214
_cell_length_c   22.20561396
_cell_angle_alpha   89.71887209
_cell_angle_beta   89.81106221
_cell_angle_gamma   120.21263548
_symmetry_Int_Tables_number   1
_chemical_formula_structural   Al2SiSn2S5O24
_chemical_formula_sum   'Al6 Si3 Sn6 S15 O72'
_cell_volume   1405.07485573
_cell_formula_units_Z   3
loop_
 _symmetry_equiv_pos_site_id
 _symmetry_equiv_pos_as_xyz
  1  'x, y, z'
loop_
 _atom_site_type_symbol
 _atom_site_label
 _atom_site_symmetry_multiplicity
 _atom_site_fract_x
 _atom_site_fract_y
 _atom_site_fract_z
 _atom_site_occupancy
  Al  Al0  1  0.99320059  0.00007410  0.35504629  1
  Al  Al1  1  0.00289850  0.00199073  0.85276008  1
  Al  Al2  1  0.67799895  0.33751022  0.68874919  1
  Al  Al3  1  0.65891912  0.33612710  0.18666669  1
  Al  Al4  1  0.65762079  0.33037584  0.97923894  1
  Al  Al5  1  0.33073966  0.66450317  0.81473321  1
  Si  Si0  1  0.95647139  0.33854177  0.58809928  1
  Si  Si1  1  0.39256455  0.33473449  0.08276142  1
  Si  Si2  1  0.63317542  0.95790015  0.41520643  1
  Sn  Sn0  1  0.99543346  0.00397504  0.64897927  1
  Sn  Sn1  1  0.00724546  0.00772746  0.14241512  1
  Sn  Sn2  1  0.67211432  0.32091741  0.47853074  1
  Sn  Sn3  1  0.33508982  0.66103369  0.02122369  1
  Sn  Sn4  1  0.33505272  0.66641166  0.52193854  1
  Sn  Sn5  1  0.33865334  0.67052308  0.31297204  1
  S  S0  1  0.29243884  0.00640215  0.25119260  1
  S  S1  1  0.71864022  0.70624411  0.24924266  1
  S  S2  1  0.99138608  0.28999252  0.25077218  1
  S  S3  1  0.29824006  0.29724666  0.75392228  1
  S  S4  1  0.00057017  0.70835387  0.75371010  1
  S  S5  1  0.70110899  0.99691315  0.75485390  1
  S  S6  1  0.38124220  0.04956454  0.58847231  1
  S  S7  1  0.66622515  0.61273956  0.58690798  1
  S  S8  1  0.94252886  0.60909052  0.08290818  1
  S  S9  1  0.66569429  0.05755564  0.08307927  1
  S  S10  1  0.63121999  0.66969577  0.91255740  1
  S  S11  1  0.03563447  0.37007567  0.91342752  1
  S  S12  1  0.33288094  0.95754437  0.91381555  1
  S  S13  1  0.32657750  0.36295838  0.41495559  1
  S  S14  1  0.03925809  0.67664808  0.41350552  1
  O  O0  1  0.20333932  0.03276410  0.30373160  1
  O  O1  1  0.83243525  0.79749098  0.30144550  1
  O  O2  1  0.96690658  0.17540162  0.30346529  1
  O  O3  1  0.20741320  0.17115450  0.80515709  1
  O  O4  1  0.97060402  0.80243317  0.80427992  1
  O  O5  1  0.82893945  0.03321643  0.80460817  1
  O  O6  1  0.76677829  0.94670331  0.69931822  1
  O  O7  1  0.18341107  0.22793424  0.69883752  1
  O  O8  1  0.04676441  0.82342498  0.69743462  1
  O  O9  1  0.78951074  0.82193209  0.19352825  1
  O  O10  1  0.03431955  0.22024386  0.19544849  1
  O  O11  1  0.17817786  0.96679157  0.19634799  1
  O  O12  1  0.85947704  0.36353582  0.64602672  1
  O  O13  1  0.49115633  0.14165026  0.64131890  1
  O  O14  1  0.63825049  0.49923295  0.64030490  1
  O  O15  1  0.86807030  0.50035438  0.13802635  1
  O  O16  1  0.64660686  0.13872467  0.13859158  1
  O  O17  1  0.50469046  0.36130529  0.14345477  1
  O  O18  1  0.47879214  0.30688708  0.02218576  1
  O  O19  1  0.84163982  0.52672767  0.02741664  1
  O  O20  1  0.70081961  0.16649338  0.02784596  1
  O  O21  1  0.44395684  0.15696456  0.53183354  1
  O  O22  1  0.69144882  0.54066984  0.52952065  1
  O  O23  1  0.84772742  0.29967164  0.52538392  1
  O  O24  1  0.56385959  0.71910327  0.96785559  1
  O  O25  1  0.15094764  0.43970483  0.96850234  1
  O  O26  1  0.28631976  0.84150057  0.97005896  1
  O  O27  1  0.54790114  0.83176764  0.47627135  1
  O  O28  1  0.28067645  0.43444699  0.46857343  1
  O  O29  1  0.14873460  0.70955845  0.46843467  1
  O  O30  1  0.11003915  0.62274988  0.36096780  1
  O  O31  1  0.50102749  0.87818399  0.35684426  1
  O  O32  1  0.36553412  0.47825068  0.36005167  1
  O  O33  1  0.12567811  0.49547310  0.86189134  1
  O  O34  1  0.36287074  0.86437474  0.86279587  1
  O  O35  1  0.50441304  0.63353299  0.86221635  1
  O  O36  1  0.03832896  0.84327756  0.40078271  1
  O  O37  1  0.82302121  0.97202888  0.40333117  1
  O  O38  1  0.17334937  0.18410490  0.40312121  1
  O  O39  1  0.01610478  0.19175041  0.90138459  1
  O  O40  1  0.17448978  0.97878107  0.90259622  1
  O  O41  1  0.81014461  0.82992723  0.90033160  1
  O  O42  1  0.97797865  0.16016862  0.59139802  1
  O  O43  1  0.19540482  0.01772665  0.59450228  1
  O  O44  1  0.83380089  0.79083109  0.59279176  1
  O  O45  1  0.95093106  0.78582925  0.08827269  1
  O  O46  1  0.82138086  0.02694352  0.08803498  1
  O  O47  1  0.18873449  0.15614288  0.08505277  1
  O  O48  1  0.68323050  0.15694368  0.74466515  1
  O  O49  1  0.47538409  0.31244514  0.74291262  1
  O  O50  1  0.83464038  0.53333533  0.74542616  1
  O  O51  1  0.70949593  0.53157461  0.24197928  1
  O  O52  1  0.83049662  0.30591712  0.24098014  1
  O  O53  1  0.47287845  0.16519048  0.24333577  1
  O  O54  1  0.65003843  0.50994223  0.92237240  1
  O  O55  1  0.85828130  0.35475167  0.92443341  1
  O  O56  1  0.49854504  0.13283763  0.92220881  1
  O  O57  1  0.63676327  0.14878884  0.41725334  1
  O  O58  1  0.49374574  0.35842668  0.42404515  1
  O  O59  1  0.85302820  0.52606477  0.42046847  1
  O  O60  1  0.36773167  0.51343261  0.07923748  1
  O  O61  1  0.12951268  0.63946527  0.07760397  1
  O  O62  1  0.49622603  0.88004888  0.07729673  1
  O  O63  1  0.37549446  0.87590413  0.58315772  1
  O  O64  1  0.50574546  0.63316016  0.58385066  1
  O  O65  1  0.15492056  0.51984977  0.58106607  1
  O  O66  1  0.30436097  0.83904664  0.25491435  1
  O  O67  1  0.53290960  0.67823195  0.25427336  1
  O  O68  1  0.15399207  0.47391582  0.25753665  1
  O  O69  1  0.31750221  0.47572774  0.76559315  1
  O  O70  1  0.15919106  0.68717244  0.76451222  1
  O  O71  1  0.52215415  0.83658794  0.76665700  1
loop_
_geom_bond_atom_site_label_1
_geom_bond_atom_site_label_2
_geom_bond_distance
_geom_bond_site_symmetry_2
Al0 O37 1.721173 1_545
Al0 O36 1.868737 1_645
Al0 O38 1.892126 1_655
Al0 O2 1.984674 1_555
Al0 O1 1.986383 1_545
Al0 O0 2.021363 1_655
Al1 O41 1.879682 1_445
Al1 O39 1.910434 1_555
Al1 O4 1.922911 1_445
Al1 O3 1.923093 1_555
Al1 O40 1.929054 1_545
Al1 O5 1.958997 1_455
Al2 O12 1.732147 1_555
Al2 O14 1.910578 1_555
Al2 O13 1.950948 1_555
Al2 O50 1.990050 1_555
Al2 O48 1.995814 1_555
Al2 O49 2.026535 1_555
Al3 O17 1.732247 1_555
Al3 O15 1.945557 1_555
Al3 O51 1.946624 1_555
Al3 O16 1.960777 1_555
Al3 O53 1.970388 1_555
Al3 O52 2.016626 1_555
Al4 O18 1.723234 1_556
Al4 O20 1.943843 1_556
Al4 O19 1.952774 1_556
Al4 O56 2.007750 1_555
Al4 O54 2.010632 1_555
Al4 O55 2.023604 1_555
Al5 O71 1.880521 1_555
Al5 O69 1.909975 1_555
Al5 O33 1.919900 1_555
Al5 O34 1.920321 1_555
Al5 O70 1.931465 1_555
Al5 O35 1.947735 1_555
O0 S0 1.470675 1_555
O1 S1 1.467170 1_555
O2 S2 1.468085 1_555
O3 S3 1.483578 1_555
O4 S4 1.479802 1_655
O5 S5 1.477348 1_545
O6 S5 1.504903 1_555
O6 Sn0 2.081274 1_565
O7 S3 1.497245 1_555
O7 Sn0 2.101540 1_455
O8 S4 1.510198 1_555
O8 Sn0 2.099612 1_465
O9 S1 1.502487 1_555
O9 Sn1 2.067383 1_665
O10 S2 1.491778 1_455
O10 Sn1 2.085120 1_555
O11 S0 1.494010 1_565
O11 Sn1 2.053944 1_565
O12 Si0 1.601025 1_555
O13 S6 1.467304 1_555
O14 S7 1.469631 1_555
O15 S8 1.468660 1_555
O16 S9 1.466310 1_555
O17 Si1 1.606327 1_555
O18 Si1 1.607458 1_555
O19 S8 1.470882 1_555
O20 S9 1.472511 1_555
O21 S6 1.484081 1_555
O21 Sn2 2.095714 1_555
O22 S7 1.480142 1_555
O22 Sn2 2.134473 1_555
O23 Si0 1.617786 1_555
O23 Sn2 1.912120 1_555
O24 S10 1.504805 1_555
O24 Sn3 2.117066 1_556
O25 S11 1.499160 1_555
O25 Sn3 2.114563 1_556
O26 S12 1.513707 1_555
O26 Sn3 2.117836 1_556
O27 Si2 1.650104 1_555
O27 Sn4 1.930626 1_555
O28 S13 1.480556 1_555
O28 Sn4 2.158593 1_555
O29 S14 1.479770 1_555
O29 Sn4 2.165506 1_555
O30 S14 1.490738 1_555
O30 Sn5 2.074993 1_555
O31 Si2 1.632558 1_555
O31 Sn5 1.891791 1_555
O32 S13 1.491885 1_555
O32 Sn5 2.054154 1_555
O33 S11 1.484927 1_555
O34 S12 1.482600 1_555
O35 S10 1.481824 1_555
O36 S14 1.456471 1_555
O37 Si2 1.587877 1_555
O38 S13 1.455156 1_555
O39 S11 1.475326 1_555
O40 S12 1.476833 1_555
O41 S10 1.475979 1_555
O42 Si0 1.628400 1_555
O42 Sn0 1.905191 1_555
O43 S6 1.477218 1_555
O43 Sn0 2.046074 1_455
O44 S7 1.483149 1_555
O44 Sn0 2.071656 1_565
O45 S8 1.483235 1_555
O45 Sn1 2.095208 1_665
O46 S9 1.485513 1_555
O46 Sn1 2.070665 1_655
O47 Si1 1.641952 1_555
O47 Sn1 1.906046 1_555
O48 S5 1.469240 1_545
O49 S3 1.473886 1_555
O50 S4 1.468757 1_655
O51 S1 1.466918 1_555
O52 S2 1.466628 1_555
O53 S0 1.464570 1_555
O54 S10 1.470318 1_555
O55 S11 1.475170 1_655
O56 S12 1.469313 1_545
O57 Si2 1.619439 1_545
O57 Sn2 1.920251 1_555
O58 S13 1.464687 1_555
O58 Sn2 2.096899 1_555
O59 S14 1.467397 1_655
O59 Sn2 2.090557 1_555
O60 Si1 1.648174 1_555
O60 Sn3 1.917011 1_555
O61 S8 1.490109 1_455
O61 Sn3 2.085961 1_555
O62 S9 1.487623 1_565
O62 Sn3 2.097178 1_555
O63 S6 1.467573 1_565
O63 Sn4 2.141337 1_555
O64 S7 1.470430 1_555
O64 Sn4 2.128686 1_555
O65 Si0 1.630737 1_455
O65 Sn4 1.922835 1_555
O66 S0 1.488249 1_565
O66 Sn5 2.058815 1_555
O67 S1 1.486604 1_555
O67 Sn5 2.083223 1_555
O68 S2 1.495201 1_455
O68 Sn5 2.049498 1_555
O69 S3 1.476045 1_555
O70 S4 1.476928 1_555
O71 S5 1.474830 1_555
