# generated using pymatgen
data_GdMnSi
_symmetry_space_group_name_H-M   'P 1'
_cell_length_a   4.02183223
_cell_length_b   4.02183223
_cell_length_c   7.31126300
_cell_angle_alpha   90.00000000
_cell_angle_beta   90.00000000
_cell_angle_gamma   90.00000000
_symmetry_Int_Tables_number   1
_chemical_formula_structural   GdMnSi
_chemical_formula_sum   'Gd2 Mn2 Si2'
_cell_volume   118.26066229
_cell_formula_units_Z   2
loop_
 _symmetry_equiv_pos_site_id
 _symmetry_equiv_pos_as_xyz
  1  'x, y, z'
loop_
 _atom_site_type_symbol
 _atom_site_label
 _atom_site_symmetry_multiplicity
 _atom_site_fract_x
 _atom_site_fract_y
 _atom_site_fract_z
 _atom_site_occupancy
  Gd  Gd0  1  0.75000000  0.75000000  0.34308320  1
  Gd  Gd1  1  0.25000000  0.25000000  0.65691680  1
  Mn  Mn0  1  0.75000000  0.25000000  0.00000000  1
  Mn  Mn1  1  0.25000000  0.75000000  0.00000000  1
  Si  Si0  1  0.75000000  0.75000000  0.78780974  1
  Si  Si1  1  0.25000000  0.25000000  0.21219026  1
loop_
_geom_bond_atom_site_label_1
_geom_bond_atom_site_label_2
_geom_bond_distance
_geom_bond_site_symmetry_2
Gd0 Si1 3.000567 1_655
Gd0 Si1 3.000567 1_565
Gd0 Si1 3.000567 1_665
Gd0 Si1 3.000567 1_555
Gd0 Si0 3.251513 1_555
Gd1 Si0 3.000567 1_455
Gd1 Si0 3.000567 1_545
Gd1 Si0 3.000567 1_555
Gd1 Si0 3.000567 1_445
Gd1 Si1 3.251513 1_555
Mn0 Si1 2.539795 1_555
Mn0 Si0 2.539795 1_544
Mn0 Si0 2.539795 1_554
Mn0 Si1 2.539795 1_655
Mn1 Si1 2.539795 1_555
Mn1 Si0 2.539795 1_554
Mn1 Si0 2.539795 1_454
Mn1 Si1 2.539795 1_565
