# generated using pymatgen
data_LuBH4
_symmetry_space_group_name_H-M   'P 1'
_cell_length_a   3.96072882
_cell_length_b   5.54741300
_cell_length_c   6.75490787
_cell_angle_alpha   114.24435895
_cell_angle_beta   107.05237807
_cell_angle_gamma   89.99988297
_symmetry_Int_Tables_number   1
_chemical_formula_structural   LuBH4
_chemical_formula_sum   'Lu3 B3 H12'
_cell_volume   128.13776751
_cell_formula_units_Z   3
loop_
 _symmetry_equiv_pos_site_id
 _symmetry_equiv_pos_as_xyz
  1  'x, y, z'
loop_
 _atom_site_type_symbol
 _atom_site_label
 _atom_site_symmetry_multiplicity
 _atom_site_fract_x
 _atom_site_fract_y
 _atom_site_fract_z
 _atom_site_occupancy
  Lu  Lu0  1  0.00000100  0.54510700  0.00000100  1
  Lu  Lu1  1  0.33668300  0.88876300  0.67347100  1
  Lu  Lu2  1  0.66330100  0.21529200  0.32652900  1
  B  B0  1  0.00001600  0.05724000  0.00000100  1
  B  B1  1  0.33441600  0.38468300  0.66898600  1
  B  B2  1  0.66557900  0.71567500  0.33100600  1
  H  H0  1  0.90653300  0.09621500  0.81291100  1
  H  H1  1  0.09347800  0.28331400  0.18710000  1
  H  H2  1  0.74167000  0.91691100  0.00010400  1
  H  H3  1  0.25835500  0.91679900  0.99990500  1
  H  H4  1  0.07675000  0.52046700  0.67367900  1
  H  H5  1  0.92323000  0.84677400  0.32632100  1
  H  H6  1  0.42109600  0.33121000  0.84229500  1
  H  H7  1  0.57889800  0.48891000  0.15770100  1
  H  H8  1  0.59718500  0.52003200  0.67356200  1
  H  H9  1  0.40282400  0.84645400  0.32643900  1
  H  H10  1  0.23960700  0.17309000  0.47961400  1
  H  H11  1  0.76037700  0.69346400  0.52037700  1
loop_
_geom_bond_atom_site_label_1
_geom_bond_atom_site_label_2
_geom_bond_distance
_geom_bond_site_symmetry_2
B0 H2 1.286036 1_445
B0 H3 1.286042 1_544
B0 H0 1.315650 1_454
B0 H1 1.315697 1_555
B1 H4 1.268567 1_555
B1 H8 1.268842 1_555
B1 H6 1.275085 1_555
B1 H10 1.280736 1_555
B2 H5 1.268521 1_555
B2 H9 1.268813 1_555
B2 H7 1.275005 1_555
B2 H11 1.280711 1_555
H0 Lu0 2.253065 1_656
H0 Lu1 2.272693 1_645
H0 Lu1 2.273476 1_545
H1 Lu0 2.253085 1_555
H1 Lu2 2.272760 1_455
H1 Lu2 2.273390 1_555
H2 Lu2 2.258778 1_565
H2 Lu1 2.259829 1_554
H2 Lu0 2.302225 1_655
H3 Lu1 2.258797 1_555
H3 Lu2 2.259736 1_566
H3 Lu0 2.302201 1_556
H4 Lu0 2.261738 1_556
H4 Lu1 2.288526 1_555
H4 Lu2 2.352460 1_455
H5 Lu0 2.261724 1_655
H5 Lu2 2.288585 1_565
H5 Lu1 2.352453 1_655
H6 Lu1 2.216800 1_545
H6 Lu0 2.308339 1_556
H6 Lu0 2.308565 1_656
H7 Lu2 2.216811 1_555
H7 Lu0 2.308355 1_655
H7 Lu0 2.308542 1_555
H8 Lu0 2.260949 1_656
H8 Lu1 2.291135 1_555
H8 Lu2 2.350972 1_555
H9 Lu0 2.260916 1_555
H9 Lu2 2.291177 1_565
H9 Lu1 2.350990 1_555
H10 Lu2 2.269102 1_455
H10 Lu2 2.270866 1_555
H10 Lu1 2.398198 1_545
H11 Lu1 2.269117 1_655
H11 Lu1 2.270908 1_555
H11 Lu2 2.398119 1_555
