# generated using pymatgen
data_Na3CaInP2SO12
_symmetry_space_group_name_H-M   'P 1'
_cell_length_a   9.30792755
_cell_length_b   9.25452660
_cell_length_c   22.99565438
_cell_angle_alpha   90.49397161
_cell_angle_beta   90.00000000
_cell_angle_gamma   120.19106265
_symmetry_Int_Tables_number   1
_chemical_formula_structural   Na3CaInP2SO12
_chemical_formula_sum   'Na18 Ca6 In6 P12 S6 O72'
_cell_volume   1712.07443575
_cell_formula_units_Z   6
loop_
 _symmetry_equiv_pos_site_id
 _symmetry_equiv_pos_as_xyz
  1  'x, y, z'
loop_
 _atom_site_type_symbol
 _atom_site_label
 _atom_site_symmetry_multiplicity
 _atom_site_fract_x
 _atom_site_fract_y
 _atom_site_fract_z
 _atom_site_occupancy
  Na  Na0  1  0.35836302  0.35294071  0.24606702  1
  Na  Na1  1  0.00322357  0.63643014  0.24493984  1
  Na  Na2  1  0.63320657  0.63643014  0.74493984  1
  Na  Na3  1  0.99457769  0.35294071  0.74606702  1
  Na  Na4  1  0.02503002  0.68627371  0.57940002  1
  Na  Na5  1  0.66989057  0.96976314  0.57827284  1
  Na  Na6  1  0.29987357  0.96976314  0.07827284  1
  Na  Na7  1  0.66124469  0.68627371  0.07940002  1
  Na  Na8  1  0.69169602  0.01960771  0.91273402  1
  Na  Na9  1  0.33655657  0.30309714  0.91160684  1
  Na  Na10  1  0.96653957  0.30309714  0.41160684  1
  Na  Na11  1  0.32791069  0.01960771  0.41273402  1
  Na  Na12  1  0.97847557  0.98395283  0.49822679  1
  Na  Na13  1  0.00547726  0.98395283  0.99822679  1
  Na  Na14  1  0.64514257  0.31728583  0.83155979  1
  Na  Na15  1  0.67214426  0.31728583  0.33155979  1
  Na  Na16  1  0.31180857  0.65061983  0.16489379  1
  Na  Na17  1  0.33881026  0.65061983  0.66489379  1
  Ca  Ca0  1  0.98827061  0.99302572  0.35061178  1
  Ca  Ca1  1  0.00475511  0.99302572  0.85061178  1
  Ca  Ca2  1  0.65493761  0.32635872  0.68394478  1
  Ca  Ca3  1  0.67142211  0.32635872  0.18394478  1
  Ca  Ca4  1  0.32160361  0.65969272  0.01727878  1
  Ca  Ca5  1  0.33808811  0.65969272  0.51727878  1
  In  In0  1  0.00152160  0.01254541  0.65213675  1
  In  In1  1  0.01102381  0.01254541  0.15213675  1
  In  In2  1  0.66818860  0.34587841  0.98546975  1
  In  In3  1  0.67769081  0.34587841  0.48546975  1
  In  In4  1  0.33485460  0.67921241  0.31880375  1
  In  In5  1  0.34435681  0.67921241  0.81880375  1
  P  P0  1  0.29649402  0.99508241  0.25197013  1
  P  P1  1  0.01113776  0.30801001  0.25462553  1
  P  P2  1  0.29687225  0.30801001  0.75462553  1
  P  P3  1  0.69858839  0.99508241  0.75197013  1
  P  P4  1  0.96316102  0.32841541  0.58530313  1
  P  P5  1  0.67780476  0.64134301  0.58795853  1
  P  P6  1  0.96353925  0.64134301  0.08795853  1
  P  P7  1  0.36525539  0.32841541  0.08530313  1
  P  P8  1  0.62982702  0.66174941  0.91863713  1
  P  P9  1  0.34447076  0.97467701  0.92129253  1
  P  P10  1  0.63020525  0.97467701  0.42129253  1
  P  P11  1  0.03192139  0.66174941  0.41863713  1
  S  S0  1  0.69325744  0.70141133  0.24725464  1
  S  S1  1  0.00815389  0.70141133  0.74725464  1
  S  S2  1  0.35992444  0.03474433  0.58058764  1
  S  S3  1  0.67482089  0.03474433  0.08058764  1
  S  S4  1  0.02659044  0.36807833  0.91392164  1
  S  S5  1  0.34148689  0.36807833  0.41392164  1
  O  O0  1  0.21232456  0.01199412  0.30639869  1
  O  O1  1  0.79763351  0.78648610  0.29787406  1
  O  O2  1  0.99291609  0.21493723  0.31028783  1
  O  O3  1  0.22202115  0.21493723  0.81028783  1
  O  O4  1  0.98885259  0.78648610  0.79787406  1
  O  O5  1  0.79966956  0.01199412  0.80639869  1
  O  O6  1  0.77902757  0.96438914  0.69604321  1
  O  O7  1  0.18430526  0.21725283  0.70027884  1
  O  O8  1  0.02931623  0.79759203  0.69297262  1
  O  O9  1  0.76827580  0.79759203  0.19297262  1
  O  O10  1  0.03294757  0.21725283  0.20027884  1
  O  O11  1  0.18536157  0.96438914  0.19604321  1
  O  O12  1  0.87899156  0.34532712  0.63973169  1
  O  O13  1  0.46430051  0.11981910  0.63120706  1
  O  O14  1  0.65958309  0.54827023  0.64362083  1
  O  O15  1  0.88868815  0.54827023  0.14362083  1
  O  O16  1  0.65551959  0.11981910  0.13120706  1
  O  O17  1  0.46633656  0.34532712  0.13973169  1
  O  O18  1  0.44569457  0.29772214  0.02937621  1
  O  O19  1  0.85097226  0.55058583  0.03361184  1
  O  O20  1  0.69598323  0.13092503  0.02630562  1
  O  O21  1  0.43494280  0.13092503  0.52630562  1
  O  O22  1  0.69961457  0.55058583  0.53361184  1
  O  O23  1  0.85202857  0.29772214  0.52937621  1
  O  O24  1  0.54565756  0.67866112  0.97306569  1
  O  O25  1  0.13096651  0.45315310  0.96454106  1
  O  O26  1  0.32624909  0.88160423  0.97695483  1
  O  O27  1  0.55535415  0.88160423  0.47695483  1
  O  O28  1  0.32218559  0.45315310  0.46454106  1
  O  O29  1  0.13300256  0.67866112  0.47306569  1
  O  O30  1  0.11236057  0.63105614  0.36271021  1
  O  O31  1  0.51763826  0.88391983  0.36694584  1
  O  O32  1  0.36264923  0.46425903  0.35963962  1
  O  O33  1  0.10160880  0.46425903  0.85963962  1
  O  O34  1  0.36628057  0.88391983  0.86694584  1
  O  O35  1  0.51869457  0.63105614  0.86271021  1
  O  O36  1  0.02132419  0.82140645  0.41373999  1
  O  O37  1  0.81017209  0.01066501  0.41521092  1
  O  O38  1  0.19096001  0.19989366  0.41114572  1
  O  O39  1  0.00893365  0.19989366  0.91114572  1
  O  O40  1  0.20049292  0.01066501  0.91521092  1
  O  O41  1  0.80008226  0.82140645  0.91373999  1
  O  O42  1  0.97360999  0.16360068  0.58643655  1
  O  O43  1  0.18922078  0.01215680  0.58594643  1
  O  O44  1  0.84802514  0.81622738  0.58783267  1
  O  O45  1  0.96820224  0.81622738  0.08783267  1
  O  O46  1  0.82293602  0.01215680  0.08594643  1
  O  O47  1  0.18999069  0.16360068  0.08643655  1
  O  O48  1  0.68799119  0.15473945  0.74707299  1
  O  O49  1  0.47683909  0.34399801  0.74854392  1
  O  O50  1  0.85762701  0.53322666  0.74447872  1
  O  O51  1  0.67560065  0.53322666  0.24447872  1
  O  O52  1  0.86715992  0.34399801  0.24854392  1
  O  O53  1  0.46674926  0.15473945  0.24707299  1
  O  O54  1  0.64027699  0.49693368  0.91976955  1
  O  O55  1  0.85588778  0.34548980  0.91927943  1
  O  O56  1  0.51469214  0.14956038  0.92116567  1
  O  O57  1  0.63486924  0.14956038  0.42116567  1
  O  O58  1  0.48960302  0.34548980  0.41927943  1
  O  O59  1  0.85665769  0.49693368  0.41976955  1
  O  O60  1  0.35465719  0.48807345  0.08040699  1
  O  O61  1  0.14350509  0.67733201  0.08187792  1
  O  O62  1  0.52429301  0.86656066  0.07781272  1
  O  O63  1  0.34226665  0.86656066  0.57781272  1
  O  O64  1  0.53382592  0.67733201  0.58187792  1
  O  O65  1  0.13341526  0.48807345  0.58040699  1
  O  O66  1  0.30694299  0.83026768  0.25310355  1
  O  O67  1  0.52255378  0.67882380  0.25261343  1
  O  O68  1  0.18135814  0.48289438  0.25449967  1
  O  O69  1  0.30153524  0.48289438  0.75449967  1
  O  O70  1  0.15626902  0.67882380  0.75261343  1
  O  O71  1  0.52332369  0.83026768  0.75310355  1
loop_
_geom_bond_atom_site_label_1
_geom_bond_atom_site_label_2
_geom_bond_distance
_geom_bond_site_symmetry_2
Na0 O68 2.487421 1_555
Na0 O53 2.498945 1_555
Na0 O51 2.559340 1_555
Na0 O67 2.609667 1_555
Na0 O17 2.657538 1_555
Na0 O32 2.792136 1_555
Na0 O10 2.830501 1_555
Na1 O52 2.343417 1_455
Na1 O66 2.477660 1_555
Na1 O15 2.514563 1_455
Na1 O68 2.681676 1_555
Na1 O51 2.698550 1_455
Na1 O11 2.869487 1_555
Na1 O30 2.902055 1_555
Na2 O49 2.343417 1_555
Na2 O71 2.477667 1_555
Na2 O14 2.514565 1_555
Na2 O69 2.681684 1_555
Na2 O50 2.698559 1_555
Na2 O6 2.869487 1_555
Na2 O35 2.902058 1_555
Na3 O69 2.487412 1_655
Na3 O48 2.498938 1_555
Na3 O50 2.559332 1_555
Na3 O70 2.609667 1_655
Na3 O12 2.657535 1_555
Na3 O33 2.792134 1_655
Na3 O7 2.830501 1_655
Na4 O44 2.487421 1_455
Na4 O65 2.498929 1_555
Na4 O63 2.559332 1_555
Na4 O43 2.609667 1_565
Na4 O29 2.657512 1_555
Na4 O8 2.792136 1_555
Na4 O22 2.830501 1_455
Na5 O64 2.343410 1_555
Na5 O42 2.477660 1_565
Na5 O27 2.514543 1_555
Na5 O44 2.681676 1_555
Na5 O63 2.698561 1_555
Na5 O23 2.869487 1_565
Na5 O6 2.902055 1_555
Na6 O61 2.343410 1_555
Na6 O47 2.477667 1_565
Na6 O26 2.514538 1_554
Na6 O45 2.681684 1_455
Na6 O62 2.698543 1_555
Na6 O18 2.869487 1_565
Na6 O11 2.902058 1_555
Na7 O45 2.487412 1_555
Na7 O60 2.498944 1_555
Na7 O62 2.559348 1_555
Na7 O46 2.609667 1_565
Na7 O24 2.657519 1_554
Na7 O9 2.792134 1_555
Na7 O19 2.830501 1_555
Na8 O56 2.487403 1_555
Na8 O41 2.498945 1_545
Na8 O39 2.559340 1_655
Na8 O55 2.609658 1_555
Na8 O5 2.657538 1_555
Na8 O20 2.792110 1_556
Na8 O34 2.830501 1_545
Na9 O40 2.343417 1_555
Na9 O54 2.477664 1_555
Na9 O3 2.514563 1_555
Na9 O56 2.681690 1_555
Na9 O39 2.698550 1_555
Na9 O35 2.869487 1_555
Na9 O18 2.902039 1_556
Na10 O37 2.343417 1_555
Na10 O59 2.477650 1_555
Na10 O2 2.514565 1_555
Na10 O57 2.681673 1_555
Na10 O38 2.698559 1_655
Na10 O30 2.869487 1_655
Na10 O23 2.902032 1_555
Na11 O57 2.487420 1_555
Na11 O36 2.498938 1_545
Na11 O38 2.559332 1_555
Na11 O58 2.609658 1_555
Na11 O0 2.657535 1_555
Na11 O21 2.792113 1_555
Na11 O31 2.830501 1_545
Na12 O44 2.507809 1_555
Na12 O37 2.560693 1_565
Na12 O36 2.597993 1_655
Na12 O42 2.626461 1_565
Na12 O43 2.731473 1_665
Na12 O38 2.830026 1_665
Na13 O45 2.507809 1_456
Na13 O40 2.560693 1_565
Na13 O41 2.597993 1_455
Na13 O47 2.626461 1_566
Na13 O46 2.731473 1_466
Na13 O39 2.830026 1_565
Na14 O56 2.507809 1_555
Na14 O49 2.560693 1_555
Na14 O48 2.597993 1_555
Na14 O54 2.626461 1_555
Na14 O55 2.731473 1_555
Na14 O50 2.830026 1_555
Na15 O57 2.507809 1_555
Na15 O52 2.560693 1_555
Na15 O53 2.597993 1_555
Na15 O59 2.626461 1_555
Na15 O58 2.731473 1_555
Na15 O51 2.830026 1_555
Na16 O68 2.507809 1_555
Na16 O61 2.560693 1_555
Na16 O60 2.597993 1_555
Na16 O66 2.626461 1_555
Na16 O67 2.731473 1_555
Na16 O62 2.830026 1_555
Na17 O69 2.507809 1_555
Na17 O64 2.560693 1_555
Na17 O65 2.597993 1_555
Na17 O71 2.626461 1_555
Na17 O70 2.731473 1_555
Na17 O63 2.830026 1_555
Ca0 O1 2.195829 1_555
Ca0 O2 2.241173 1_565
Ca0 O0 2.246910 1_665
Ca0 O37 2.291160 1_565
Ca0 O36 2.292550 1_655
Ca0 O38 2.341700 1_665
Ca1 O4 2.195829 1_455
Ca1 O3 2.241173 1_565
Ca1 O5 2.246910 1_465
Ca1 O40 2.291160 1_565
Ca1 O41 2.292550 1_455
Ca1 O39 2.341700 1_565
Ca2 O13 2.195829 1_555
Ca2 O14 2.241173 1_555
Ca2 O12 2.246910 1_555
Ca2 O49 2.291160 1_555
Ca2 O48 2.292550 1_555
Ca2 O50 2.341700 1_555
Ca3 O16 2.195829 1_555
Ca3 O15 2.241173 1_555
Ca3 O17 2.246910 1_555
Ca3 O52 2.291160 1_555
Ca3 O53 2.292550 1_555
Ca3 O51 2.341700 1_555
Ca4 O25 2.195829 1_554
Ca4 O26 2.241173 1_554
Ca4 O24 2.246910 1_554
Ca4 O61 2.291160 1_555
Ca4 O60 2.292550 1_555
Ca4 O62 2.341700 1_555
Ca5 O28 2.195829 1_555
Ca5 O27 2.241173 1_555
Ca5 O29 2.246910 1_555
Ca5 O64 2.291160 1_555
Ca5 O65 2.292550 1_555
Ca5 O63 2.341700 1_555
In0 O7 2.105054 1_555
In0 O6 2.141582 1_445
In0 O42 2.169336 1_455
In0 O44 2.207188 1_445
In0 O43 2.318474 1_555
In0 O8 2.335777 1_545
In1 O10 2.105054 1_555
In1 O11 2.141582 1_545
In1 O47 2.169336 1_555
In1 O45 2.207188 1_445
In1 O46 2.318474 1_455
In1 O9 2.335777 1_445
In2 O19 2.105054 1_556
In2 O18 2.141582 1_556
In2 O54 2.169336 1_555
In2 O56 2.207188 1_555
In2 O55 2.318474 1_555
In2 O20 2.335777 1_556
In3 O22 2.105054 1_555
In3 O23 2.141582 1_555
In3 O59 2.169336 1_555
In3 O57 2.207188 1_555
In3 O58 2.318474 1_555
In3 O21 2.335777 1_555
In4 O31 2.105054 1_555
In4 O30 2.141582 1_555
In4 O66 2.169336 1_555
In4 O68 2.207188 1_555
In4 O67 2.318474 1_555
In4 O32 2.335777 1_555
In5 O34 2.105054 1_555
In5 O35 2.141582 1_555
In5 O71 2.169336 1_555
In5 O69 2.207188 1_555
In5 O70 2.318474 1_555
In5 O33 2.335777 1_555
O0 P0 1.524722 1_545
O1 S0 1.460677 1_555
O2 P1 1.510343 1_655
O3 P2 1.510343 1_555
O4 S1 1.460677 1_655
O5 P3 1.524722 1_545
O6 P3 1.582045 1_555
O7 P2 1.569045 1_555
O8 S1 1.494000 1_555
O9 S0 1.494000 1_555
O10 P1 1.569045 1_555
O11 P0 1.582045 1_555
O12 P4 1.524722 1_555
O13 S2 1.460677 1_555
O14 P5 1.510343 1_555
O15 P6 1.510343 1_555
O16 S3 1.460677 1_555
O17 P7 1.524722 1_555
O18 P7 1.582045 1_555
O19 P6 1.569045 1_555
O20 S3 1.494000 1_555
O21 S2 1.494000 1_555
O22 P5 1.569045 1_555
O23 P4 1.582045 1_555
O24 P8 1.524722 1_555
O25 S4 1.460677 1_555
O26 P9 1.510343 1_555
O27 P10 1.510343 1_555
O28 S5 1.460677 1_555
O29 P11 1.524722 1_555
O30 P11 1.582045 1_555
O31 P10 1.569045 1_555
O32 S5 1.494000 1_555
O33 S4 1.494000 1_555
O34 P9 1.569045 1_555
O35 P8 1.582045 1_555
O36 P11 1.534607 1_555
O37 P10 1.541488 1_545
O38 S5 1.481445 1_555
O39 S4 1.481449 1_555
O40 P9 1.541479 1_545
O41 P8 1.534612 1_555
O42 P4 1.576868 1_555
O43 S2 1.499955 1_555
O44 P5 1.597110 1_555
O45 P6 1.597114 1_555
O46 S3 1.499946 1_555
O47 P7 1.576873 1_555
O48 P3 1.534607 1_545
O49 P2 1.541488 1_555
O50 S1 1.481445 1_655
O51 S0 1.481449 1_555
O52 P1 1.541479 1_655
O53 P0 1.534612 1_545
O54 P8 1.576882 1_555
O55 S4 1.499941 1_655
O56 P9 1.597110 1_545
O57 P10 1.597101 1_545
O58 S5 1.499959 1_555
O59 P11 1.576871 1_655
O60 P7 1.534619 1_555
O61 P6 1.541474 1_455
O62 S3 1.481443 1_565
O63 S2 1.481435 1_565
O64 P5 1.541492 1_555
O65 P4 1.534609 1_455
O66 P0 1.576868 1_555
O67 S0 1.499955 1_555
O68 P1 1.597110 1_555
O69 P2 1.597114 1_555
O70 S1 1.499946 1_555
O71 P3 1.576873 1_555
