# generated using pymatgen
data_Ti11O14
_symmetry_space_group_name_H-M   'P 1'
_cell_length_a   5.06739977
_cell_length_b   5.11193106
_cell_length_c   10.63477836
_cell_angle_alpha   85.75283435
_cell_angle_beta   103.81997588
_cell_angle_gamma   109.63418834
_symmetry_Int_Tables_number   1
_chemical_formula_structural   Ti11O14
_chemical_formula_sum   'Ti11 O14'
_cell_volume   251.95077277
_cell_formula_units_Z   1
loop_
 _symmetry_equiv_pos_site_id
 _symmetry_equiv_pos_as_xyz
  1  'x, y, z'
loop_
 _atom_site_type_symbol
 _atom_site_label
 _atom_site_symmetry_multiplicity
 _atom_site_fract_x
 _atom_site_fract_y
 _atom_site_fract_z
 _atom_site_occupancy
  Ti  Ti0  1  0.84702956  0.99200292  0.71870042  1
  Ti  Ti1  1  0.57080049  0.01518746  0.14084053  1
  Ti  Ti2  1  0.71446324  0.98328805  0.43007833  1
  Ti  Ti3  1  0.52463061  0.48556268  0.01628492  1
  Ti  Ti4  1  0.91414832  0.49310089  0.86600853  1
  Ti  Ti5  1  0.76037506  0.51302813  0.55464541  1
  Ti  Ti6  1  0.14259248  0.99945340  0.28529743  1
  Ti  Ti7  1  0.43798922  0.00575443  0.85219653  1
  Ti  Ti8  1  0.23686473  0.50696604  0.43128987  1
  Ti  Ti9  1  0.04823792  0.49142838  0.13969898  1
  Ti  Ti10  1  0.37143538  0.50585795  0.70472667  1
  O  O0  1  0.39008188  0.74946294  0.28232922  1
  O  O1  1  0.26085471  0.74085887  0.00264870  1
  O  O2  1  0.46134205  0.24356911  0.42302646  1
  O  O3  1  0.31373456  0.24716107  0.14387333  1
  O  O4  1  0.82383504  0.75516688  0.14776454  1
  O  O5  1  0.97135277  0.75151897  0.42689749  1
  O  O6  1  0.09442870  0.73393779  0.71833926  1
  O  O7  1  0.89492496  0.24915305  0.28870493  1
  O  O8  1  0.67042113  0.74112040  0.86335075  1
  O  O9  1  0.75948984  0.22103401  -0.00026390  1
  O  O10  1  0.02425477  0.25771447  0.56828757  1
  O  O11  1  0.52537367  0.77797549  0.57090953  1
  O  O12  1  0.19099576  0.26440296  0.85231160  1
  O  O13  1  0.61485015  0.25713063  0.70779688  1
loop_
_geom_bond_atom_site_label_1
_geom_bond_atom_site_label_2
_geom_bond_distance
_geom_bond_site_symmetry_2
O0 Ti8 2.073404 1_555
O0 Ti6 2.075786 1_555
O0 Ti2 2.079303 1_555
O0 Ti1 2.113651 1_565
O0 Ti9 2.132356 1_555
O1 Ti1 2.077403 1_565
O1 Ti4 2.088045 1_454
O1 Ti9 2.112502 1_555
O1 Ti3 2.136004 1_555
O1 Ti7 2.178952 1_564
O2 Ti5 2.005591 1_555
O2 Ti6 2.024233 1_545
O2 Ti8 2.051638 1_555
O2 Ti2 2.123055 1_545
O3 Ti3 2.010227 1_555
O3 Ti1 2.041566 1_555
O3 Ti6 2.054425 1_545
O3 Ti9 2.112683 1_555
O4 Ti3 2.005421 1_555
O4 Ti6 2.023395 1_655
O4 Ti9 2.052349 1_655
O4 Ti1 2.121811 1_565
O5 Ti5 2.011886 1_555
O5 Ti2 2.040318 1_555
O5 Ti6 2.056578 1_655
O5 Ti8 2.113517 1_655
O6 Ti0 2.103927 1_455
O6 Ti4 2.111808 1_455
O6 Ti7 2.114576 1_565
O6 Ti10 2.138379 1_555
O6 Ti5 2.184033 1_455
O7 Ti9 2.073496 1_655
O7 Ti6 2.076267 1_645
O7 Ti1 2.079771 1_555
O7 Ti2 2.112526 1_545
O7 Ti8 2.131845 1_655
O8 Ti4 2.040583 1_555
O8 Ti7 2.052229 1_565
O8 Ti0 2.099126 1_555
O8 Ti10 2.107729 1_555
O8 Ti3 2.123307 1_556
O9 Ti1 2.012166 1_555
O9 Ti4 2.019421 1_554
O9 Ti7 2.038838 1_554
O9 Ti9 2.042589 1_655
O9 Ti3 2.119623 1_555
O10 Ti2 2.077465 1_445
O10 Ti10 2.088766 1_555
O10 Ti8 2.111709 1_555
O10 Ti5 2.136498 1_455
O10 Ti0 2.180588 1_445
O11 Ti2 2.009913 1_555
O11 Ti10 2.019081 1_555
O11 Ti0 2.038744 1_555
O11 Ti8 2.041535 1_555
O11 Ti5 2.121181 1_555
O12 Ti7 2.104241 1_555
O12 Ti10 2.112632 1_555
O12 Ti0 2.115397 1_445
O12 Ti4 2.140363 1_455
O12 Ti3 2.185501 1_556
O13 Ti10 2.041512 1_555
O13 Ti0 2.053713 1_545
O13 Ti7 2.098574 1_555
O13 Ti4 2.106731 1_555
O13 Ti5 2.125496 1_555
