# generated using pymatgen
data_Na5ZrGa3(PO4)6
_symmetry_space_group_name_H-M   'P 1'
_cell_length_a   8.77851292
_cell_length_b   8.77091365
_cell_length_c   22.20996409
_cell_angle_alpha   89.91549588
_cell_angle_beta   90.00071981
_cell_angle_gamma   119.99855347
_symmetry_Int_Tables_number   1
_chemical_formula_structural   Na5ZrGa3(PO4)6
_chemical_formula_sum   'Na15 Zr3 Ga9 P18 O72'
_cell_volume   1480.98268841
_cell_formula_units_Z   3
loop_
 _symmetry_equiv_pos_site_id
 _symmetry_equiv_pos_as_xyz
  1  'x, y, z'
loop_
 _atom_site_type_symbol
 _atom_site_label
 _atom_site_symmetry_multiplicity
 _atom_site_fract_x
 _atom_site_fract_y
 _atom_site_fract_z
 _atom_site_occupancy
  Na  Na0  1  0.63306133  0.99924670  0.25234809  1
  Na  Na1  1  0.36590122  0.36693963  0.25279569  1
  Na  Na2  1  0.00085290  0.63449832  0.25239474  1
  Na  Na3  1  0.63805142  0.63222420  0.74807206  1
  Na  Na4  1  0.99763133  0.36248254  0.74821021  1
  Na  Na5  1  0.03157210  0.69987395  0.58206495  1
  Na  Na6  1  0.66558934  0.96758254  0.58179838  1
  Na  Na7  1  0.66581720  0.69875585  0.08244508  1
  Na  Na8  1  0.03182502  0.33174107  0.08261682  1
  Na  Na9  1  0.00851076  0.00932880  0.49621895  1
  Na  Na10  1  0.00784161  0.99905728  0.99612917  1
  Na  Na11  1  0.65767301  0.32375500  0.83208361  1
  Na  Na12  1  0.66647399  0.33335873  0.33519423  1
  Na  Na13  1  0.33243304  0.67445608  0.16573946  1
  Na  Na14  1  0.33309927  0.66543248  0.66222771  1
  Zr  Zr0  1  0.66543513  0.33297175  0.97887658  1
  Zr  Zr1  1  0.66409642  0.33233839  0.47724701  1
  Zr  Zr2  1  0.33402208  0.67362968  0.81406418  1
  Ga  Ga0  1  0.00051358  -0.00004887  0.35469532  1
  Ga  Ga1  1  0.00250585  0.00119818  0.85288694  1
  Ga  Ga2  1  0.00735335  0.00635840  0.64891754  1
  Ga  Ga3  1  0.00531450  0.99916368  0.15082427  1
  Ga  Ga4  1  0.65870253  0.32675021  0.68274229  1
  Ga  Ga5  1  0.66541553  0.33148634  0.18237006  1
  Ga  Ga6  1  0.33267913  0.67309276  0.01502401  1
  Ga  Ga7  1  0.33254430  0.65969809  0.51398561  1
  Ga  Ga8  1  0.33319377  0.66672634  0.32027957  1
  P  P0  1  0.28948769  0.00049089  0.25056673  1
  P  P1  1  0.71096894  0.71033897  0.24977484  1
  P  P2  1  0.99927251  0.28916188  0.24979710  1
  P  P3  1  0.28975817  0.27964949  0.74956228  1
  P  P4  1  0.99470555  0.71253968  0.74813242  1
  P  P5  1  0.71819625  0.00729624  0.74813562  1
  P  P6  1  0.96405127  0.33374834  0.58569071  1
  P  P7  1  0.37037451  0.03949909  0.58510741  1
  P  P8  1  0.66372610  0.62727185  0.58590807  1
  P  P9  1  0.96534249  0.63188452  0.08593225  1
  P  P10  1  0.66402287  0.03566514  0.08626461  1
  P  P11  1  0.36907674  0.33034168  0.08599348  1
  P  P12  1  0.63224405  0.67751590  0.91762603  1
  P  P13  1  0.04504922  0.36808996  0.91792718  1
  P  P14  1  0.32247271  0.95593556  0.91832413  1
  P  P15  1  0.62597972  0.94951985  0.41533962  1
  P  P16  1  0.32359457  0.37432182  0.41446849  1
  P  P17  1  0.05030290  0.67585315  0.41553253  1
  O  O0  1  0.20848326  0.03999981  0.30507769  1
  O  O1  1  0.83288742  0.79388516  0.30380687  1
  O  O2  1  0.96117060  0.16705464  0.30380422  1
  O  O3  1  0.20721763  0.17272263  0.80642707  1
  O  O4  1  0.96184039  0.79457693  0.80382863  1
  O  O5  1  0.83251698  0.03902831  0.80408493  1
  O  O6  1  0.79361020  0.96773390  0.69109628  1
  O  O7  1  0.17093995  0.20597540  0.69389258  1
  O  O8  1  0.02668665  0.82073193  0.69031466  1
  O  O9  1  0.78702864  0.82379191  0.19170747  1
  O  O10  1  0.03637291  0.21324796  0.19173287  1
  O  O11  1  0.17220366  0.96045823  0.19402838  1
  O  O12  1  0.88236487  0.37088678  0.64250927  1
  O  O13  1  0.49352755  0.12120548  0.64000771  1
  O  O14  1  0.63491484  0.51562620  0.64346050  1
  O  O15  1  0.88255385  0.51172575  0.14243106  1
  O  O16  1  0.63427523  0.11859402  0.14338782  1
  O  O17  1  0.48874181  0.36954826  0.14233978  1
  O  O18  1  0.45614520  0.30184347  0.03079323  1
  O  O19  1  0.84281821  0.54563692  0.03139201  1
  O  O20  1  0.70229047  0.15798648  0.03171936  1
  O  O21  1  0.45535162  0.15390824  0.52913872  1
  O  O22  1  0.70131374  0.54244637  0.53141548  1
  O  O23  1  0.84130277  0.29793659  0.53110953  1
  O  O24  1  0.54411272  0.69900288  0.97490505  1
  O  O25  1  0.15551452  0.45604389  0.97506547  1
  O  O26  1  0.29785150  0.84247560  0.97408726  1
  O  O27  1  0.54200919  0.84311172  0.47357843  1
  O  O28  1  0.29887606  0.45985668  0.47101608  1
  O  O29  1  0.15746952  0.69934739  0.47360798  1
  O  O30  1  0.12725311  0.64028159  0.35768385  1
  O  O31  1  0.51326602  0.87234895  0.35759219  1
  O  O32  1  0.35992997  0.48549195  0.35607515  1
  O  O33  1  0.12516923  0.48201972  0.86046203  1
  O  O34  1  0.35819361  0.87548253  0.86171234  1
  O  O35  1  0.51836755  0.64370665  0.86028760  1
  O  O36  1  0.02998402  0.83890690  0.40970966  1
  O  O37  1  0.80914069  0.96966717  0.40954620  1
  O  O38  1  0.16090695  0.19075886  0.40915400  1
  O  O39  1  0.02667486  0.18647545  0.91119845  1
  O  O40  1  0.15915142  0.97302111  0.91083887  1
  O  O41  1  0.81358250  0.84100563  0.91065363  1
  O  O42  1  0.97450487  0.16380084  0.59164351  1
  O  O43  1  0.18439013  0.01521569  0.59119213  1
  O  O44  1  0.83208524  0.81262835  0.59094908  1
  O  O45  1  0.97487094  0.81180250  0.09214516  1
  O  O46  1  0.83272735  0.01954400  0.09175230  1
  O  O47  1  0.18286807  0.16829381  0.09188173  1
  O  O48  1  0.69866073  0.17269641  0.74227002  1
  O  O49  1  0.47918021  0.31113932  0.74314324  1
  O  O50  1  0.83019418  0.52341582  0.74352913  1
  O  O51  1  0.68994678  0.52270343  0.24295590  1
  O  O52  1  0.83283897  0.31034308  0.24316482  1
  O  O53  1  0.47671946  0.16699898  0.24307036  1
  O  O54  1  0.64699858  0.50927067  0.92220337  1
  O  O55  1  0.86236004  0.35367179  0.92266164  1
  O  O56  1  0.49081252  0.13833164  0.92261234  1
  O  O57  1  0.64316134  0.13480651  0.42048789  1
  O  O58  1  0.49202048  0.35810211  0.42029967  1
  O  O59  1  0.86536276  0.50777142  0.42102049  1
  O  O60  1  0.35343062  0.49911714  0.07877877  1
  O  O61  1  0.14452091  0.64101908  0.07783031  1
  O  O62  1  0.50224412  0.84983981  0.07823884  1
  O  O63  1  0.35324717  0.85428497  0.57816357  1
  O  O64  1  0.50210713  0.65180977  0.57794383  1
  O  O65  1  0.14420539  0.50346063  0.57746394  1
  O  O66  1  0.31200133  0.83499085  0.25645653  1
  O  O67  1  0.52381958  0.68892785  0.25575137  1
  O  O68  1  0.16477488  0.47671385  0.25576415  1
  O  O69  1  0.31148064  0.46999815  0.75448928  1
  O  O70  1  0.15605140  0.68334486  0.75301520  1
  O  O71  1  0.53363434  0.83781048  0.75343701  1
loop_
_geom_bond_atom_site_label_1
_geom_bond_atom_site_label_2
_geom_bond_distance
_geom_bond_site_symmetry_2
Na0 O67 2.392241 1_555
Na0 O52 2.403287 1_565
Na0 O66 2.442697 1_555
Na0 O53 2.471694 1_565
Na0 O31 2.574962 1_555
Na0 O16 2.633185 1_565
Na0 O2 2.744867 1_565
Na0 O9 2.845177 1_555
Na1 O68 2.397653 1_555
Na1 O53 2.403208 1_555
Na1 O67 2.446932 1_555
Na1 O51 2.473700 1_555
Na1 O32 2.531239 1_555
Na1 O17 2.675239 1_555
Na1 O0 2.740183 1_555
Na1 O10 2.851405 1_555
Na2 O66 2.399706 1_555
Na2 O51 2.403950 1_455
Na2 O68 2.445927 1_555
Na2 O52 2.471707 1_455
Na2 O30 2.578028 1_555
Na2 O15 2.663131 1_455
Na2 O1 2.738288 1_455
Na2 O11 2.793848 1_555
Na3 O50 2.318611 1_555
Na3 O71 2.399847 1_555
Na3 O49 2.441621 1_555
Na3 O69 2.486754 1_555
Na3 O14 2.534510 1_555
Na3 O35 2.726204 1_555
Na3 O4 2.756480 1_555
Na3 O6 2.845430 1_555
Na4 O48 2.304007 1_555
Na4 O69 2.429369 1_655
Na4 O70 2.439823 1_655
Na4 O50 2.497579 1_555
Na4 O12 2.571890 1_555
Na4 O33 2.720695 1_655
Na4 O5 2.750854 1_555
Na4 O7 2.783455 1_655
Na5 O65 2.379002 1_555
Na5 O43 2.404579 1_565
Na5 O44 2.411647 1_455
Na5 O63 2.447684 1_555
Na5 O8 2.637949 1_555
Na5 O29 2.651248 1_555
Na5 O22 2.752959 1_455
Na5 O12 2.837839 1_455
Na6 O42 2.387024 1_565
Na6 O64 2.400794 1_555
Na6 O63 2.405759 1_555
Na6 O44 2.451568 1_555
Na6 O27 2.639931 1_555
Na6 O6 2.674737 1_555
Na6 O23 2.750179 1_565
Na6 O13 2.794400 1_565
Na7 O45 2.387630 1_555
Na7 O62 2.393530 1_555
Na7 O60 2.406589 1_555
Na7 O46 2.446490 1_565
Na7 O24 2.616950 1_554
Na7 O9 2.657964 1_555
Na7 O19 2.755873 1_555
Na7 O17 2.832631 1_555
Na8 O61 2.379944 1_555
Na8 O47 2.399057 1_555
Na8 O46 2.409699 1_455
Na8 O60 2.447078 1_555
Na8 O25 2.623395 1_554
Na8 O10 2.643664 1_555
Na8 O20 2.750528 1_455
Na8 O15 2.837031 1_455
Na9 O38 2.433813 1_555
Na9 O36 2.500344 1_545
Na9 O37 2.506556 1_445
Na9 O43 2.599300 1_555
Na9 O42 2.613320 1_455
Na9 O44 2.668189 1_445
Na10 O40 2.389449 1_555
Na10 O39 2.450871 1_565
Na10 O41 2.465264 1_455
Na10 O47 2.610634 1_566
Na10 O45 2.615948 1_456
Na10 O46 2.680166 1_466
Na11 O49 2.489312 1_555
Na11 O48 2.519613 1_555
Na11 O56 2.538017 1_555
Na11 O50 2.562520 1_555
Na11 O54 2.612408 1_555
Na11 O55 2.621944 1_555
Na12 O57 2.509419 1_555
Na12 O58 2.509752 1_555
Na12 O59 2.521873 1_555
Na12 O51 2.577801 1_555
Na12 O52 2.578281 1_555
Na12 O53 2.582340 1_555
Na13 O62 2.462409 1_555
Na13 O61 2.477317 1_555
Na13 O66 2.516974 1_555
Na13 O60 2.534082 1_555
Na13 O68 2.570862 1_555
Na13 O67 2.573495 1_555
Na14 O64 2.428501 1_555
Na14 O63 2.441070 1_555
Na14 O65 2.442182 1_555
Na14 O70 2.598321 1_555
Na14 O71 2.614586 1_555
Na14 O69 2.614872 1_555
Ga0 O38 1.973801 1_555
Ga0 O36 1.978729 1_545
Ga0 O37 1.982381 1_445
Ga0 O0 2.007113 1_555
Ga0 O2 2.011528 1_455
Ga0 O1 2.013932 1_445
Ga1 O3 1.962023 1_555
Ga1 O40 1.986836 1_545
Ga1 O4 1.989423 1_445
Ga1 O5 2.001433 1_455
Ga1 O39 2.006119 1_555
Ga1 O41 2.008817 1_445
Ga2 O7 1.901676 1_555
Ga2 O8 1.948537 1_545
Ga2 O6 1.968883 1_445
Ga2 O43 1.985970 1_555
Ga2 O42 2.000298 1_455
Ga2 O44 2.074673 1_445
Ga3 O11 1.917989 1_555
Ga3 O9 1.977612 1_455
Ga3 O10 1.979586 1_565
Ga3 O47 2.006491 1_565
Ga3 O45 2.009376 1_455
Ga3 O46 2.078156 1_465
Ga4 O13 1.909066 1_555
Ga4 O14 1.972510 1_555
Ga4 O12 2.010558 1_555
Ga4 O49 2.021312 1_555
Ga4 O48 2.040930 1_555
Ga4 O50 2.115325 1_555
Ga5 O16 1.950725 1_555
Ga5 O17 1.955534 1_555
Ga5 O15 1.975364 1_555
Ga5 O53 2.060929 1_555
Ga5 O52 2.071092 1_555
Ga5 O51 2.077345 1_555
Ga6 O26 1.891417 1_554
Ga6 O24 1.966790 1_554
Ga6 O25 1.968469 1_554
Ga6 O61 2.070626 1_555
Ga6 O62 2.071004 1_555
Ga6 O60 2.153658 1_555
Ga7 O28 1.886086 1_555
Ga7 O27 1.952518 1_555
Ga7 O29 1.954663 1_555
Ga7 O65 2.080352 1_555
Ga7 O64 2.083491 1_555
Ga7 O63 2.162085 1_555
Ga8 O32 1.892954 1_555
Ga8 O31 1.895200 1_555
Ga8 O30 1.895373 1_555
Ga8 O66 2.119055 1_555
Ga8 O68 2.135330 1_555
Ga8 O67 2.136724 1_555
O0 P0 1.529435 1_555
O1 P1 1.529992 1_555
O2 P2 1.528301 1_555
O3 P3 1.522060 1_555
O4 P4 1.530160 1_555
O5 P5 1.533111 1_555
O6 P5 1.547449 1_565
O7 P3 1.537074 1_555
O8 P4 1.535682 1_455
O9 P1 1.559206 1_555
O10 P2 1.559447 1_455
O11 P0 1.549166 1_565
O12 P6 1.564484 1_555
O13 P7 1.548207 1_555
O14 P8 1.550941 1_555
O15 P9 1.563242 1_555
O16 P10 1.549040 1_555
O17 P11 1.558173 1_555
O18 P11 1.530266 1_555
O18 Zr0 2.068125 1_554
O19 P9 1.544513 1_555
O19 Zr0 2.089583 1_554
O20 P10 1.538599 1_555
O20 Zr0 2.080591 1_554
O21 P7 1.535074 1_555
O21 Zr1 2.064580 1_555
O22 P8 1.541210 1_555
O22 Zr1 2.086786 1_555
O23 P6 1.546596 1_555
O23 Zr1 2.100073 1_555
O24 P12 1.548872 1_555
O25 P13 1.549434 1_555
O26 P14 1.533689 1_555
O27 P15 1.547913 1_555
O28 P16 1.533890 1_555
O29 P17 1.548588 1_555
O30 P17 1.554464 1_555
O31 P15 1.554021 1_555
O32 P16 1.555556 1_555
O33 P13 1.554229 1_555
O33 Zr2 2.039995 1_555
O34 P14 1.549541 1_555
O34 Zr2 1.982234 1_555
O35 P12 1.553604 1_555
O35 Zr2 2.040962 1_555
O36 P17 1.532432 1_555
O37 P15 1.532607 1_555
O38 P16 1.531997 1_555
O39 P13 1.526282 1_555
O40 P14 1.523287 1_555
O41 P12 1.526780 1_555
O42 P6 1.544012 1_555
O43 P7 1.543186 1_555
O44 P8 1.561339 1_555
O45 P9 1.544317 1_555
O46 P10 1.561241 1_555
O47 P11 1.544503 1_555
O48 P5 1.548922 1_555
O49 P3 1.549935 1_555
O50 P4 1.566104 1_555
O51 P1 1.569228 1_555
O52 P2 1.569133 1_555
O53 P0 1.568776 1_555
O54 P12 1.547701 1_555
O54 Zr0 2.060607 1_555
O55 P13 1.547964 1_655
O55 Zr0 2.065373 1_555
O56 P14 1.545516 1_545
O56 Zr0 2.053109 1_555
O57 P15 1.559591 1_545
O57 Zr1 2.076694 1_555
O58 P16 1.559913 1_555
O58 Zr1 2.067134 1_555
O59 P17 1.558887 1_655
O59 Zr1 2.079575 1_555
O60 P11 1.561565 1_555
O61 P9 1.544936 1_455
O62 P10 1.546408 1_565
O63 P7 1.562653 1_565
O64 P8 1.547819 1_555
O65 P6 1.547716 1_455
O66 P0 1.565116 1_565
O67 P1 1.563139 1_555
O68 P2 1.563710 1_455
O69 P3 1.586777 1_555
O69 Zr2 2.152528 1_555
O70 P4 1.563981 1_455
O70 Zr2 2.102208 1_555
O71 P5 1.561981 1_565
O71 Zr2 2.104387 1_555
