# generated using pymatgen
data_MgMo3W(SeS3)2
_symmetry_space_group_name_H-M   'P 1'
_cell_length_a   3.21923700
_cell_length_b   3.21924922
_cell_length_c   44.87842002
_cell_angle_alpha   90.00136056
_cell_angle_beta   90.00236566
_cell_angle_gamma   119.99982577
_symmetry_Int_Tables_number   1
_chemical_formula_structural   MgMo3W(SeS3)2
_chemical_formula_sum   'Mg1 Mo3 W1 Se2 S6'
_cell_volume   402.78798017
_cell_formula_units_Z   1
loop_
 _symmetry_equiv_pos_site_id
 _symmetry_equiv_pos_as_xyz
  1  'x, y, z'
loop_
 _atom_site_type_symbol
 _atom_site_label
 _atom_site_symmetry_multiplicity
 _atom_site_fract_x
 _atom_site_fract_y
 _atom_site_fract_z
 _atom_site_occupancy
  Mg  Mg0  1  0.00004500  0.00009300  0.56307600  1
  Mo  Mo0  1  0.33345600  0.66684000  0.09343100  1
  Mo  Mo1  1  0.66657700  0.33319300  0.28186300  1
  Mo  Mo2  1  0.66661900  0.33324900  0.66583900  1
  W  W0  1  0.33333400  0.66668100  0.46048700  1
  Se  Se0  1  0.33331900  0.66661300  0.70394800  1
  Se  Se1  1  0.33325000  0.66655600  0.62721900  1
  S  S0  1  0.33327600  0.66655000  0.31653200  1
  S  S1  1  0.66674900  0.33347100  0.05877000  1
  S  S2  1  0.66662900  0.33332100  0.42577600  1
  S  S3  1  0.66684300  0.33356000  0.12810100  1
  S  S4  1  0.66669700  0.33337000  0.49544200  1
  S  S5  1  0.33320800  0.66650100  0.24719200  1
loop_
_geom_bond_atom_site_label_1
_geom_bond_atom_site_label_2
_geom_bond_distance
_geom_bond_site_symmetry_2
Mo0 S1 2.423662 1_565
Mo0 S1 2.423673 1_555
Mo0 S1 2.423685 1_455
Mo0 S3 2.423889 1_455
Mo0 S3 2.423918 1_555
Mo0 S3 2.423989 1_565
Mo1 S0 2.423895 1_555
Mo1 S0 2.423898 1_655
Mo1 S0 2.423918 1_545
Mo1 S5 2.423957 1_655
Mo1 S5 2.423958 1_545
Mo1 S5 2.423969 1_555
Mo2 Se0 2.525766 1_655
Mo2 Se0 2.525781 1_555
Mo2 Se0 2.525781 1_545
Mo2 Se1 2.541353 1_545
Mo2 Se1 2.541364 1_655
Mo2 Se1 2.541364 1_555
S2 W0 2.425099 1_555
S2 W0 2.425121 1_655
S2 W0 2.425122 1_545
S4 W0 2.432152 1_545
S4 W0 2.432163 1_555
S4 W0 2.432171 1_655
