# generated using pymatgen
data_PrAl4
_symmetry_space_group_name_H-M   'P 1'
_cell_length_a   4.26675532
_cell_length_b   4.26675523
_cell_length_c   6.43143184
_cell_angle_alpha   109.37269483
_cell_angle_beta   109.37265903
_cell_angle_gamma   89.99999584
_symmetry_Int_Tables_number   1
_chemical_formula_structural   PrAl4
_chemical_formula_sum   'Pr1 Al4'
_cell_volume   103.40282752
_cell_formula_units_Z   1
loop_
 _symmetry_equiv_pos_site_id
 _symmetry_equiv_pos_as_xyz
  1  'x, y, z'
loop_
 _atom_site_type_symbol
 _atom_site_label
 _atom_site_symmetry_multiplicity
 _atom_site_fract_x
 _atom_site_fract_y
 _atom_site_fract_z
 _atom_site_occupancy
  Pr  Pr0  1  -0.00000000  -0.00000000  -0.00000000  1
  Al  Al0  1  0.61203493  0.61203493  0.22406986  1
  Al  Al1  1  0.25000000  0.75000000  0.50000000  1
  Al  Al2  1  0.75000000  0.25000000  0.50000000  1
  Al  Al3  1  0.38796507  0.38796507  0.77593014  1
loop_
_geom_bond_atom_site_label_1
_geom_bond_atom_site_label_2
_geom_bond_distance
_geom_bond_site_symmetry_2
Al0 Al3 2.545367 1_554
Al0 Al2 2.647177 1_565
Al0 Al1 2.647177 1_555
Al0 Al1 2.647178 1_655
Al0 Al2 2.647178 1_555
Al0 Pr0 3.274495 1_655
Al0 Pr0 3.274496 1_555
Al0 Pr0 3.274496 1_665
Al0 Pr0 3.274496 1_565
Al1 Al3 2.647177 1_565
Al1 Al3 2.647178 1_555
Al1 Pr0 3.551967 1_555
Al1 Pr0 3.551968 1_566
Al1 Pr0 3.551968 1_666
Al1 Pr0 3.551969 1_565
Al2 Al3 2.647177 1_555
Al2 Al3 2.647178 1_655
Al2 Pr0 3.551967 1_666
Al2 Pr0 3.551968 1_655
Al2 Pr0 3.551968 1_555
Al2 Pr0 3.551969 1_656
Al3 Pr0 3.274495 1_566
Al3 Pr0 3.274496 1_666
Al3 Pr0 3.274496 1_556
Al3 Pr0 3.274496 1_656
