# generated using pymatgen
data_Sr2SmCu3(PbO4)2
_symmetry_space_group_name_H-M   'P 1'
_cell_length_a   3.85388900
_cell_length_b   3.85388900
_cell_length_c   16.08424800
_cell_angle_alpha   90.00000000
_cell_angle_beta   90.00000000
_cell_angle_gamma   90.00000000
_symmetry_Int_Tables_number   1
_chemical_formula_structural   Sr2SmCu3(PbO4)2
_chemical_formula_sum   'Sr2 Sm1 Cu3 Pb2 O8'
_cell_volume   238.89065687
_cell_formula_units_Z   1
loop_
 _symmetry_equiv_pos_site_id
 _symmetry_equiv_pos_as_xyz
  1  'x, y, z'
loop_
 _atom_site_type_symbol
 _atom_site_label
 _atom_site_symmetry_multiplicity
 _atom_site_fract_x
 _atom_site_fract_y
 _atom_site_fract_z
 _atom_site_occupancy
  Sr  Sr0  1  0.00000000  0.00000000  0.77742700  1
  Sr  Sr1  1  0.00000000  0.00000000  0.22257300  1
  Sm  Sm0  1  0.00000000  0.00000000  0.00000000  1
  Cu  Cu0  1  0.00000000  0.00000000  0.50000000  1
  Cu  Cu1  1  0.50000000  0.50000000  0.89294700  1
  Cu  Cu2  1  0.50000000  0.50000000  0.10705300  1
  Pb  Pb0  1  0.50000000  0.50000000  0.38808000  1
  Pb  Pb1  1  0.50000000  0.50000000  0.61192000  1
  O  O0  1  0.00000000  0.50000000  0.90542300  1
  O  O1  1  0.50000000  0.00000000  0.09457700  1
  O  O2  1  0.00000000  0.50000000  0.09457700  1
  O  O3  1  0.50000000  0.00000000  0.90542300  1
  O  O4  1  0.00000000  0.00000000  0.38434500  1
  O  O5  1  0.50000000  0.50000000  0.74769400  1
  O  O6  1  0.50000000  0.50000000  0.25230600  1
  O  O7  1  0.00000000  0.00000000  0.61565500  1
loop_
_geom_bond_atom_site_label_1
_geom_bond_atom_site_label_2
_geom_bond_distance
_geom_bond_site_symmetry_2
Cu0 O7 1.860224 1_555
Cu0 O4 1.860224 1_555
Cu1 O3 1.937365 1_555
Cu1 O0 1.937365 1_555
Cu1 O3 1.937365 1_565
Cu1 O0 1.937365 1_655
Cu1 O5 2.336285 1_555
Cu2 O2 1.937365 1_655
Cu2 O1 1.937365 1_555
Cu2 O1 1.937365 1_565
Cu2 O2 1.937365 1_555
Cu2 O6 2.336285 1_555
O0 Sm0 2.455028 1_556
O0 Sm0 2.455028 1_566
O0 Sr0 2.819830 1_565
O0 Sr0 2.819830 1_555
O1 Sm0 2.455028 1_555
O1 Sm0 2.455028 1_655
O1 Sr1 2.819830 1_655
O1 Sr1 2.819830 1_555
O2 Sm0 2.455028 1_555
O2 Sm0 2.455028 1_565
O2 Sr1 2.819830 1_565
O2 Sr1 2.819830 1_555
O3 Sm0 2.455028 1_656
O3 Sm0 2.455028 1_556
O3 Sr0 2.819830 1_655
O3 Sr0 2.819830 1_555
O4 Sr1 2.601981 1_555
O4 Pb0 2.725773 1_445
O4 Pb0 2.725773 1_455
O4 Pb0 2.725773 1_555
O4 Pb0 2.725773 1_545
O5 Pb1 2.183823 1_555
O5 Sr0 2.766756 1_555
O5 Sr0 2.766756 1_565
O5 Sr0 2.766756 1_665
O5 Sr0 2.766756 1_655
O6 Pb0 2.183823 1_555
O6 Sr1 2.766756 1_665
O6 Sr1 2.766756 1_555
O6 Sr1 2.766756 1_655
O6 Sr1 2.766756 1_565
O7 Sr0 2.601981 1_555
O7 Pb1 2.725773 1_455
O7 Pb1 2.725773 1_445
O7 Pb1 2.725773 1_545
O7 Pb1 2.725773 1_555
