# generated using pymatgen
data_Na6Mg7Zr(SO4)12
_symmetry_space_group_name_H-M   'P 1'
_cell_length_a   17.46983177
_cell_length_b   8.72327334
_cell_length_c   22.69458358
_cell_angle_alpha   89.97447328
_cell_angle_beta   90.03668529
_cell_angle_gamma   119.93577373
_symmetry_Int_Tables_number   1
_chemical_formula_structural   Na6Mg7Zr(SO4)12
_chemical_formula_sum   'Na18 Mg21 Zr3 S36 O144'
_cell_volume   2997.10298606
_cell_formula_units_Z   3
loop_
 _symmetry_equiv_pos_site_id
 _symmetry_equiv_pos_as_xyz
  1  'x, y, z'
loop_
 _atom_site_type_symbol
 _atom_site_label
 _atom_site_symmetry_multiplicity
 _atom_site_fract_x
 _atom_site_fract_y
 _atom_site_fract_z
 _atom_site_occupancy
  Na  Na0  1  0.32213693  0.64353424  0.74969684  1
  Na  Na1  1  0.64850274  0.32942615  0.58443962  1
  Na  Na2  1  0.98711503  0.66673199  0.91703841  1
  Na  Na3  1  0.66591302  0.30331236  0.91475773  1
  Na  Na4  1  0.16737192  0.02899432  0.41690547  1
  Na  Na5  1  0.66618105  0.02791978  0.41718022  1
  Na  Na6  1  0.99457459  0.00237324  0.49366627  1
  Na  Na7  1  0.48436167  0.98081505  0.50114485  1
  Na  Na8  1  0.00330783  0.01812110  0.99556326  1
  Na  Na9  1  0.49042017  0.98376443  0.99333689  1
  Na  Na10  1  0.33792563  0.32540378  0.83633758  1
  Na  Na11  1  0.83046491  0.31635187  0.82931461  1
  Na  Na12  1  0.34014196  0.34552828  0.33331301  1
  Na  Na13  1  0.84073712  0.34643376  0.33267762  1
  Na  Na14  1  0.16781505  0.66684248  0.16662040  1
  Na  Na15  1  0.66584201  0.66608856  0.16689501  1
  Na  Na16  1  0.16639841  0.67336048  0.66342702  1
  Na  Na17  1  0.66147893  0.67387758  0.66979470  1
  Mg  Mg0  1  0.99644334  0.99915304  0.35102983  1
  Mg  Mg1  1  0.49566093  0.99939346  0.35152611  1
  Mg  Mg2  1  0.00082056  0.00750655  0.85112741  1
  Mg  Mg3  1  0.49677634  0.99579500  0.84955540  1
  Mg  Mg4  1  0.49729000  0.99355665  0.64998754  1
  Mg  Mg5  1  0.33762277  0.33223887  0.68219323  1
  Mg  Mg6  1  0.83094246  0.32863936  0.68526548  1
  Mg  Mg7  1  0.33337841  0.33321325  0.18443006  1
  Mg  Mg8  1  0.83320311  0.33314215  0.18466917  1
  Mg  Mg9  1  0.33343749  0.33593467  0.98083523  1
  Mg  Mg10  1  0.83323546  0.32444132  0.98302133  1
  Mg  Mg11  1  0.33826277  0.34389615  0.48344766  1
  Mg  Mg12  1  0.83761154  0.33748417  0.48146503  1
  Mg  Mg13  1  0.16937131  0.66743323  0.01659120  1
  Mg  Mg14  1  0.66521218  0.66862656  0.01672591  1
  Mg  Mg15  1  0.16896705  0.66315149  0.51699253  1
  Mg  Mg16  1  0.66515400  0.67058622  0.51610235  1
  Mg  Mg17  1  0.16672542  0.66380422  0.31692452  1
  Mg  Mg18  1  0.66656819  0.66342153  0.31640437  1
  Mg  Mg19  1  0.16758182  0.67263650  0.81803954  1
  Mg  Mg20  1  0.66409567  0.66429047  0.81546698  1
  Zr  Zr0  1  0.00050090  0.00134711  0.64763303  1
  Zr  Zr1  1  0.00061969  0.00031044  0.14784402  1
  Zr  Zr2  1  0.49959181  -0.00010237  0.14731665  1
  S  S0  1  0.14979597  0.00061711  0.25324899  1
  S  S1  1  0.64954575  0.00111297  0.25311229  1
  S  S2  1  0.35100313  0.70104320  0.25216845  1
  S  S3  1  0.85118670  0.70159371  0.25213864  1
  S  S4  1  0.99957504  0.29822165  0.25222666  1
  S  S5  1  0.49971264  0.29791904  0.25215949  1
  S  S6  1  0.14950796  0.29817916  0.75224643  1
  S  S7  1  0.64783334  0.29568146  0.74997510  1
  S  S8  1  0.99950129  0.70078203  0.75317653  1
  S  S9  1  0.50076064  0.70632496  0.74956289  1
  S  S10  1  0.35233245  0.00160118  0.75020519  1
  S  S11  1  0.85159972  0.00005974  0.75250651  1
  S  S12  1  0.48127114  0.33348334  0.58282377  1
  S  S13  1  0.97968100  0.34152652  0.58342821  1
  S  S14  1  0.18976669  0.03898667  0.58194363  1
  S  S15  1  0.68699248  0.03842126  0.58254133  1
  S  S16  1  0.33269895  0.62766880  0.58498680  1
  S  S17  1  0.83110072  0.61998723  0.58237469  1
  S  S18  1  0.47975944  0.61846728  0.08304183  1
  S  S19  1  0.98043672  0.61970379  0.08181269  1
  S  S20  1  0.32933426  0.04120178  0.08267029  1
  S  S21  1  0.82948219  0.03833892  0.08353243  1
  S  S22  1  0.19080629  0.34081942  0.08291958  1
  S  S23  1  0.69007745  0.34093959  0.08203566  1
  S  S24  1  0.31424601  0.66578754  0.91548863  1
  S  S25  1  0.81366351  0.66935281  0.91716409  1
  S  S26  1  0.02046691  0.37323184  0.91709147  1
  S  S27  1  0.51946748  0.37341610  0.91671325  1
  S  S28  1  0.16702941  0.96225174  0.91697416  1
  S  S29  1  0.66658028  0.95976575  0.91638175  1
  S  S30  1  0.31357765  0.96042918  0.41707713  1
  S  S31  1  0.81336349  0.95846360  0.41702102  1
  S  S32  1  0.16666003  0.37204971  0.41661290  1
  S  S33  1  0.66684988  0.37202059  0.41778425  1
  S  S34  1  0.02014201  0.66523412  0.41658428  1
  S  S35  1  0.51921836  0.66594381  0.41542626  1
  O  O0  1  0.10750622  0.02327069  0.30595292  1
  O  O1  1  0.60746704  0.02364076  0.30605108  1
  O  O2  1  0.40627626  0.78742052  0.30359954  1
  O  O3  1  0.90651419  0.78813263  0.30354975  1
  O  O4  1  0.48826714  0.18767722  0.30358694  1
  O  O5  1  0.98777026  0.18762073  0.30362501  1
  O  O6  1  0.10601723  0.18758923  0.80341598  1
  O  O7  1  0.60632403  0.18985477  0.80373203  1
  O  O8  1  0.48517440  0.78733726  0.80207470  1
  O  O9  1  0.98821254  0.78491150  0.80616933  1
  O  O10  1  0.40509046  0.02578516  0.80346764  1
  O  O11  1  0.90682436  0.02337789  0.80383574  1
  O  O12  1  0.39278095  0.96995950  0.69771095  1
  O  O13  1  0.89607166  0.97755597  0.69786471  1
  O  O14  1  0.09411913  0.21173171  0.69768439  1
  O  O15  1  0.59540282  0.21217084  0.69605340  1
  O  O16  1  0.01089441  0.81660918  0.69973592  1
  O  O17  1  0.51242449  0.81214178  0.69631343  1
  O  O18  1  0.39523306  0.81344855  0.19750506  1
  O  O19  1  0.89534577  0.81379024  0.19757751  1
  O  O20  1  0.01103203  0.20929040  0.19752664  1
  O  O21  1  0.51115233  0.20904705  0.19752614  1
  O  O22  1  0.09217025  0.97819353  0.19962211  1
  O  O23  1  0.59210981  0.97893886  0.19957767  1
  O  O24  1  0.44192611  0.35847554  0.63625955  1
  O  O25  1  0.93803158  0.35950631  0.63682675  1
  O  O26  1  0.24142131  0.12628778  0.63458171  1
  O  O27  1  0.74203439  0.12577002  0.63445167  1
  O  O28  1  0.32116477  0.52482625  0.64002694  1
  O  O29  1  0.81990113  0.51615063  0.63564995  1
  O  O30  1  0.43865415  0.51842544  0.13680613  1
  O  O31  1  0.93668258  0.51553610  0.13430488  1
  O  O32  1  0.32050825  0.12300305  0.13663451  1
  O  O33  1  0.82052659  0.12189391  0.13683917  1
  O  O34  1  0.24062969  0.35835986  0.13674934  1
  O  O35  1  0.74225485  0.35766251  0.13449205  1
  O  O36  1  0.22860126  0.30955530  0.03012841  1
  O  O37  1  0.72677972  0.31163958  0.02758048  1
  O  O38  1  0.42648967  0.54292054  0.03011453  1
  O  O39  1  0.92876303  0.54670208  0.02738845  1
  O  O40  1  0.34441012  0.14854776  0.03001259  1
  O  O41  1  0.84564842  0.14487553  0.03036017  1
  O  O42  1  0.22595334  0.14138188  0.52755303  1
  O  O43  1  0.72626446  0.14725827  0.52814675  1
  O  O44  1  0.34389660  0.54027801  0.53290044  1
  O  O45  1  0.84613004  0.54345680  0.52963129  1
  O  O46  1  0.42838030  0.30897158  0.52987673  1
  O  O47  1  0.92654464  0.30922067  0.53029463  1
  O  O48  1  0.27079068  0.68979121  0.96732443  1
  O  O49  1  0.77338465  0.69294157  0.97040054  1
  O  O50  1  0.07291873  0.45519111  0.97037458  1
  O  O51  1  0.57593581  0.45430398  0.96933828  1
  O  O52  1  0.15050054  0.84779092  0.96913373  1
  O  O53  1  0.65558812  0.85749713  0.96998988  1
  O  O54  1  0.27229601  0.85376938  0.47014128  1
  O  O55  1  0.77241624  0.85246694  0.47026145  1
  O  O56  1  0.15381510  0.45184758  0.46961816  1
  O  O57  1  0.65579602  0.45042706  0.47239696  1
  O  O58  1  0.07601368  0.69552878  0.46915798  1
  O  O59  1  0.57501415  0.69784307  0.46824582  1
  O  O60  1  0.06109685  0.64191373  0.36308004  1
  O  O61  1  0.56086282  0.64200121  0.36244708  1
  O  O62  1  0.25766821  0.87946943  0.36417208  1
  O  O63  1  0.75750470  0.87746337  0.36429286  1
  O  O64  1  0.17844592  0.47633540  0.36327085  1
  O  O65  1  0.67848080  0.48099434  0.36571829  1
  O  O66  1  0.06085830  0.48462745  0.86429807  1
  O  O67  1  0.56097727  0.47988629  0.86358545  1
  O  O68  1  0.17817455  0.88015536  0.86338417  1
  O  O69  1  0.67948349  0.87913986  0.86347685  1
  O  O70  1  0.26300561  0.64217387  0.86031778  1
  O  O71  1  0.75881449  0.63990638  0.86458493  1
  O  O72  1  0.01277837  0.82990086  0.41095250  1
  O  O73  1  0.51194102  0.83011713  0.40968124  1
  O  O74  1  0.40228893  0.98094597  0.41079106  1
  O  O75  1  0.90235091  0.98032373  0.41077396  1
  O  O76  1  0.08739050  0.18856663  0.41115067  1
  O  O77  1  0.58779217  0.19027089  0.41183337  1
  O  O78  1  0.00905502  0.19454284  0.91077388  1
  O  O79  1  0.51254177  0.19483662  0.91090018  1
  O  O80  1  0.08451496  0.97640451  0.91124877  1
  O  O81  1  0.58783267  0.98469719  0.91086748  1
  O  O82  1  0.40333499  0.82606826  0.91077103  1
  O  O83  1  0.90481070  0.82344897  0.91103600  1
  O  O84  1  0.49313566  0.17459890  0.58839305  1
  O  O85  1  0.98946116  0.17590716  0.58951970  1
  O  O86  1  0.09770712  0.02050669  0.58882296  1
  O  O87  1  0.59836551  0.02485976  0.58881873  1
  O  O88  1  0.41266233  0.80606245  0.58935266  1
  O  O89  1  0.91153019  0.80386441  0.58859487  1
  O  O90  1  0.48971641  0.80361476  0.08896876  1
  O  O91  1  0.98961904  0.80322572  0.08826740  1
  O  O92  1  0.41183312  0.02090388  0.08854198  1
  O  O93  1  0.91191362  0.01895641  0.08930735  1
  O  O94  1  0.09827089  0.17532367  0.08891940  1
  O  O95  1  0.59875489  0.17616713  0.08852760  1
  O  O96  1  0.34094136  0.15746030  0.74331450  1
  O  O97  1  0.84448440  0.16008120  0.74479540  1
  O  O98  1  0.23798101  0.31822302  0.74468360  1
  O  O99  1  0.73730449  0.31343334  0.74510762  1
  O  O100  1  0.41873552  0.52753304  0.74401151  1
  O  O101  1  0.92010341  0.52735048  0.74455014  1
  O  O102  1  0.34329859  0.52643478  0.24427647  1
  O  O103  1  0.84360292  0.52720971  0.24411502  1
  O  O104  1  0.42032433  0.31365306  0.24442311  1
  O  O105  1  0.92029916  0.31431222  0.24440878  1
  O  O106  1  0.23643562  0.15962806  0.24475963  1
  O  O107  1  0.73635708  0.16018583  0.24480350  1
  O  O108  1  0.32326828  0.50579269  0.92147387  1
  O  O109  1  0.82344691  0.50629351  0.92249331  1
  O  O110  1  0.43079199  0.35199426  0.92327808  1
  O  O111  1  0.93095334  0.35870038  0.92229876  1
  O  O112  1  0.24497973  0.13926231  0.92342314  1
  O  O113  1  0.74589869  0.14402129  0.92148842  1
  O  O114  1  0.32103227  0.13924788  0.42278459  1
  O  O115  1  0.82067009  0.13724227  0.42259011  1
  O  O116  1  0.24564703  0.34744386  0.42216992  1
  O  O117  1  0.74608033  0.34742638  0.42196461  1
  O  O118  1  0.43053674  0.50957278  0.42195510  1
  O  O119  1  0.93100839  0.50943339  0.42256310  1
  O  O120  1  0.17757093  0.49413064  0.07763881  1
  O  O121  1  0.67758652  0.49524833  0.07756992  1
  O  O122  1  0.06981846  0.64462023  0.07722071  1
  O  O123  1  0.56937293  0.64416700  0.07793179  1
  O  O124  1  0.25257183  0.86178013  0.07741242  1
  O  O125  1  0.75227834  0.85980478  0.07801576  1
  O  O126  1  0.17621003  0.85902806  0.57771751  1
  O  O127  1  0.67695471  0.86102184  0.57688502  1
  O  O128  1  0.25257440  0.64558532  0.57915249  1
  O  O129  1  0.75189958  0.63977582  0.57686567  1
  O  O130  1  0.06911798  0.49497454  0.57796443  1
  O  O131  1  0.57253071  0.49184371  0.57719930  1
  O  O132  1  0.15622237  0.83907634  0.25540614  1
  O  O133  1  0.65637059  0.83982431  0.25532548  1
  O  O134  1  0.26383409  0.68780668  0.25539926  1
  O  O135  1  0.76396487  0.68808190  0.25540093  1
  O  O136  1  0.08013966  0.47259303  0.25529721  1
  O  O137  1  0.58038891  0.47221115  0.25510974  1
  O  O138  1  0.15812454  0.47544236  0.75579995  1
  O  O139  1  0.65760385  0.47476764  0.75500688  1
  O  O140  1  0.08007794  0.68752338  0.75555915  1
  O  O141  1  0.57916257  0.68533035  0.75587859  1
  O  O142  1  0.26314138  0.83643688  0.75589442  1
  O  O143  1  0.76434047  0.83980216  0.75556093  1
loop_
_geom_bond_atom_site_label_1
_geom_bond_atom_site_label_2
_geom_bond_distance
_geom_bond_site_symmetry_2
Na0 O100 2.364997 1_555
Na0 O142 2.375913 1_555
Na0 O98 2.462416 1_555
Na0 O138 2.487193 1_555
Na0 O28 2.692948 1_555
Na0 O70 2.713100 1_555
Na0 O12 2.741304 1_555
Na0 O8 2.744095 1_555
Na1 O87 2.347988 1_555
Na1 O84 2.353875 1_555
Na1 O131 2.381627 1_555
Na1 O129 2.396022 1_555
Na1 O15 2.716005 1_555
Na1 O57 2.731263 1_555
Na1 O29 2.845897 1_555
Na1 O43 2.856824 1_555
Na2 O111 2.359177 1_555
Na2 O80 2.371135 1_655
Na2 O83 2.432342 1_555
Na2 O109 2.481089 1_555
Na2 O39 2.709778 1_556
Na2 O9 2.715155 1_555
Na2 O52 2.745436 1_655
Na2 O66 2.768026 1_655
Na3 O79 2.356143 1_555
Na3 O81 2.410299 1_545
Na3 O113 2.417462 1_555
Na3 O109 2.424080 1_555
Na3 O7 2.717094 1_555
Na3 O37 2.758898 1_556
Na3 O71 2.791973 1_555
Na3 O51 2.794700 1_555
Na4 O114 2.360464 1_555
Na4 O72 2.376305 1_545
Na4 O116 2.410361 1_555
Na4 O76 2.418232 1_555
Na4 O42 2.704009 1_555
Na4 O0 2.716862 1_555
Na4 O62 2.771157 1_545
Na4 O58 2.789438 1_545
Na5 O73 2.371951 1_545
Na5 O115 2.374752 1_555
Na5 O77 2.414772 1_555
Na5 O117 2.417758 1_555
Na5 O1 2.715271 1_555
Na5 O43 2.726882 1_555
Na5 O59 2.755499 1_545
Na5 O63 2.793250 1_545
Na6 O75 2.420503 1_545
Na6 O76 2.479269 1_655
Na6 O72 2.523738 1_645
Na6 O85 2.677654 1_555
Na6 O89 2.690346 1_545
Na6 O86 2.765080 1_655
Na7 O88 2.448449 1_555
Na7 O74 2.501672 1_555
Na7 O84 2.558452 1_565
Na7 O73 2.627691 1_555
Na7 O87 2.702791 1_565
Na7 O77 2.723594 1_565
Na8 O78 2.434069 1_555
Na8 O80 2.515122 1_545
Na8 O83 2.570385 1_445
Na8 O94 2.617072 1_556
Na8 O93 2.662983 1_456
Na8 O91 2.747237 1_446
Na9 O82 2.372319 1_555
Na9 O79 2.515419 1_565
Na9 O81 2.527704 1_555
Na9 O92 2.665809 1_566
Na9 O90 2.675401 1_556
Na9 O95 2.809536 1_566
Na10 O110 2.489903 1_555
Na10 O112 2.559100 1_555
Na10 O108 2.584639 1_555
Na10 O96 2.585693 1_555
Na10 O100 2.647334 1_555
Na10 O98 2.695442 1_555
Na11 O97 2.435908 1_555
Na11 O99 2.501237 1_555
Na11 O113 2.569602 1_555
Na11 O101 2.581597 1_555
Na11 O111 2.649546 1_555
Na11 O109 2.727333 1_555
Na12 O118 2.516263 1_555
Na12 O102 2.546938 1_555
Na12 O104 2.549885 1_555
Na12 O116 2.612247 1_555
Na12 O114 2.621163 1_555
Na12 O106 2.648945 1_555
Na13 O105 2.533006 1_555
Na13 O119 2.535841 1_555
Na13 O103 2.539188 1_555
Na13 O117 2.619009 1_555
Na13 O115 2.641170 1_555
Na13 O107 2.642581 1_555
Na14 O134 2.568362 1_555
Na14 O120 2.576109 1_555
Na14 O132 2.581725 1_555
Na14 O124 2.582756 1_555
Na14 O136 2.584174 1_555
Na14 O122 2.597987 1_555
Na15 O137 2.564731 1_555
Na15 O133 2.570076 1_555
Na15 O123 2.574379 1_555
Na15 O125 2.580399 1_555
Na15 O135 2.584076 1_555
Na15 O121 2.584757 1_555
Na16 O126 2.481269 1_555
Na16 O128 2.520173 1_555
Na16 O130 2.535849 1_555
Na16 O140 2.617522 1_555
Na16 O142 2.623422 1_555
Na16 O138 2.672923 1_555
Na17 O141 2.458016 1_555
Na17 O143 2.552414 1_555
Na17 O139 2.577011 1_555
Na17 O127 2.596403 1_555
Na17 O131 2.624535 1_555
Na17 O129 2.739594 1_555
Mg0 O5 2.032271 1_565
Mg0 O3 2.032495 1_555
Mg0 O75 2.073777 1_555
Mg0 O0 2.109575 1_665
Mg0 O76 2.120196 1_665
Mg0 O72 2.128121 1_655
Mg1 O4 2.026809 1_565
Mg1 O2 2.039211 1_555
Mg1 O74 2.058233 1_555
Mg1 O73 2.102426 1_555
Mg1 O1 2.124856 1_565
Mg1 O77 2.135572 1_565
Mg2 O11 2.022886 1_455
Mg2 O6 2.034025 1_555
Mg2 O78 2.069432 1_555
Mg2 O9 2.105843 1_445
Mg2 O80 2.113322 1_545
Mg2 O83 2.133745 1_445
Mg3 O8 2.035318 1_555
Mg3 O10 2.035640 1_565
Mg3 O82 2.091833 1_555
Mg3 O7 2.092196 1_565
Mg3 O79 2.133814 1_565
Mg3 O81 2.150978 1_555
Mg4 O17 2.023711 1_555
Mg4 O12 2.043532 1_555
Mg4 O88 2.083377 1_555
Mg4 O15 2.098743 1_565
Mg4 O84 2.136752 1_565
Mg4 O87 2.154341 1_565
Mg5 O24 2.011303 1_555
Mg5 O26 2.050755 1_555
Mg5 O28 2.073908 1_555
Mg5 O96 2.082842 1_555
Mg5 O100 2.113928 1_555
Mg5 O98 2.201575 1_555
Mg6 O27 2.032309 1_555
Mg6 O25 2.068952 1_555
Mg6 O29 2.072107 1_555
Mg6 O99 2.079447 1_555
Mg6 O97 2.094804 1_555
Mg6 O101 2.132078 1_555
Mg7 O32 2.044414 1_555
Mg7 O30 2.048483 1_555
Mg7 O34 2.048589 1_555
Mg7 O102 2.103783 1_555
Mg7 O104 2.108509 1_555
Mg7 O106 2.115966 1_555
Mg8 O35 2.050270 1_555
Mg8 O33 2.053609 1_555
Mg8 O31 2.058228 1_555
Mg8 O103 2.100892 1_555
Mg8 O105 2.103998 1_555
Mg8 O107 2.110619 1_555
Mg9 O38 2.055118 1_556
Mg9 O36 2.059240 1_556
Mg9 O40 2.065230 1_556
Mg9 O108 2.074267 1_555
Mg9 O112 2.093431 1_555
Mg9 O110 2.093649 1_555
Mg10 O41 1.998013 1_556
Mg10 O37 2.070953 1_556
Mg10 O39 2.080442 1_556
Mg10 O113 2.087496 1_555
Mg10 O111 2.096689 1_555
Mg10 O109 2.168220 1_555
Mg11 O44 2.009290 1_555
Mg11 O46 2.039094 1_555
Mg11 O118 2.076228 1_555
Mg11 O42 2.124586 1_555
Mg11 O116 2.144726 1_555
Mg11 O114 2.153661 1_555
Mg12 O47 2.020519 1_555
Mg12 O45 2.044516 1_555
Mg12 O119 2.063343 1_555
Mg12 O115 2.099918 1_555
Mg12 O43 2.106961 1_555
Mg12 O117 2.126826 1_555
Mg13 O48 2.021093 1_554
Mg13 O50 2.062294 1_554
Mg13 O52 2.063897 1_554
Mg13 O124 2.105286 1_555
Mg13 O120 2.106998 1_555
Mg13 O122 2.148251 1_555
Mg14 O53 2.035295 1_554
Mg14 O51 2.043001 1_554
Mg14 O49 2.079366 1_554
Mg14 O123 2.103425 1_555
Mg14 O125 2.120650 1_555
Mg14 O121 2.136569 1_555
Mg15 O56 2.034218 1_555
Mg15 O54 2.039392 1_555
Mg15 O58 2.085778 1_555
Mg15 O128 2.089847 1_555
Mg15 O130 2.134691 1_555
Mg15 O126 2.149637 1_555
Mg16 O59 2.021671 1_555
Mg16 O55 2.035847 1_555
Mg16 O127 2.089229 1_555
Mg16 O57 2.094523 1_555
Mg16 O131 2.110660 1_555
Mg16 O129 2.161921 1_555
Mg17 O64 2.038372 1_555
Mg17 O60 2.046819 1_555
Mg17 O62 2.056622 1_555
Mg17 O136 2.123103 1_555
Mg17 O134 2.125968 1_555
Mg17 O132 2.144365 1_555
Mg18 O65 2.038851 1_555
Mg18 O61 2.048125 1_555
Mg18 O63 2.056771 1_555
Mg18 O137 2.115867 1_555
Mg18 O135 2.120265 1_555
Mg18 O133 2.143012 1_555
Mg19 O68 2.009304 1_555
Mg19 O70 2.051852 1_555
Mg19 O66 2.053574 1_555
Mg19 O142 2.106703 1_555
Mg19 O140 2.135308 1_555
Mg19 O138 2.167876 1_555
Mg20 O67 2.033260 1_555
Mg20 O69 2.066543 1_555
Mg20 O141 2.081601 1_555
Mg20 O71 2.091566 1_555
Mg20 O139 2.107966 1_555
Mg20 O143 2.141144 1_555
O0 S0 1.470566 1_555
O1 S1 1.472394 1_555
O2 S2 1.461404 1_555
O3 S3 1.461688 1_555
O4 S5 1.460943 1_555
O5 S4 1.461073 1_555
O6 S6 1.457760 1_555
O7 S7 1.482716 1_555
O8 S9 1.478851 1_555
O9 S8 1.472883 1_555
O10 S10 1.469643 1_555
O11 S11 1.460150 1_555
O12 S10 1.480143 1_565
O13 S11 1.527608 1_565
O13 Zr0 2.072559 1_665
O14 S6 1.519639 1_555
O14 Zr0 2.082545 1_555
O15 S7 1.483433 1_555
O16 S8 1.526409 1_455
O16 Zr0 2.078034 1_565
O17 S9 1.471592 1_555
O18 S2 1.530186 1_555
O18 Zr2 2.075574 1_565
O19 S3 1.527367 1_555
O19 Zr1 2.078001 1_665
O20 S4 1.529408 1_455
O20 Zr1 2.073235 1_555
O21 S5 1.527767 1_555
O21 Zr2 2.074053 1_555
O22 S0 1.528078 1_565
O22 Zr1 2.069154 1_565
O23 S1 1.524877 1_565
O23 Zr2 2.084405 1_565
O24 S12 1.463384 1_555
O25 S13 1.462125 1_555
O26 S14 1.461127 1_555
O27 S15 1.470096 1_555
O28 S16 1.491516 1_555
O29 S17 1.463905 1_555
O30 S18 1.463133 1_555
O31 S19 1.461547 1_555
O32 S20 1.464129 1_555
O33 S21 1.460865 1_555
O34 S22 1.462640 1_555
O35 S23 1.461319 1_555
O36 S22 1.458337 1_555
O37 S23 1.472615 1_555
O38 S18 1.459559 1_555
O39 S19 1.473612 1_555
O40 S20 1.458636 1_555
O41 S21 1.461885 1_555
O42 S14 1.468879 1_555
O43 S15 1.498640 1_555
O44 S16 1.471960 1_555
O45 S17 1.457211 1_555
O46 S12 1.464573 1_555
O47 S13 1.460467 1_555
O48 S24 1.471080 1_555
O49 S25 1.463901 1_555
O50 S26 1.469204 1_555
O51 S27 1.483889 1_555
O52 S28 1.480945 1_555
O53 S29 1.463301 1_555
O54 S30 1.471892 1_555
O55 S31 1.471920 1_555
O56 S32 1.462514 1_555
O57 S33 1.474490 1_555
O58 S34 1.479011 1_555
O59 S35 1.480733 1_555
O60 S34 1.474552 1_555
O61 S35 1.473611 1_555
O62 S30 1.484971 1_555
O63 S31 1.481408 1_555
O64 S32 1.465557 1_555
O65 S33 1.465498 1_555
O66 S26 1.481005 1_555
O67 S27 1.473140 1_555
O68 S28 1.473151 1_555
O69 S29 1.465052 1_555
O70 S24 1.492048 1_555
O71 S25 1.470090 1_555
O72 S34 1.510121 1_555
O73 S35 1.505220 1_555
O74 S30 1.475671 1_555
O75 S31 1.475674 1_555
O76 S32 1.510857 1_555
O77 S33 1.501300 1_555
O78 S26 1.476489 1_555
O79 S27 1.506926 1_555
O80 S28 1.512433 1_555
O81 S29 1.501299 1_555
O82 S24 1.488915 1_555
O83 S25 1.491849 1_555
O84 S12 1.505470 1_555
O85 S13 1.543290 1_555
O85 Zr0 2.094349 1_655
O86 S14 1.542213 1_555
O86 Zr0 2.100598 1_555
O87 S15 1.499659 1_555
O88 S16 1.487699 1_555
O89 S17 1.522367 1_555
O89 Zr0 2.122670 1_665
O90 S18 1.541636 1_555
O90 Zr2 2.102820 1_565
O91 S19 1.534268 1_555
O91 Zr1 2.119606 1_665
O92 S20 1.542956 1_555
O92 Zr2 2.107325 1_555
O93 S21 1.536976 1_555
O93 Zr1 2.107493 1_655
O94 S22 1.544952 1_555
O94 Zr1 2.105003 1_555
O95 S23 1.531140 1_555
O95 Zr2 2.118502 1_555
O96 S10 1.477288 1_555
O97 S11 1.472270 1_555
O98 S6 1.476323 1_555
O99 S7 1.495970 1_555
O100 S9 1.507027 1_555
O101 S8 1.468548 1_555
O102 S2 1.471666 1_555
O103 S3 1.470995 1_555
O104 S5 1.470649 1_555
O105 S4 1.470683 1_555
O106 S0 1.468608 1_555
O107 S1 1.469988 1_555
O108 S24 1.486800 1_555
O109 S25 1.519720 1_555
O110 S27 1.472520 1_555
O111 S26 1.509253 1_655
O112 S28 1.470182 1_545
O113 S29 1.514614 1_545
O114 S30 1.504787 1_545
O115 S31 1.505288 1_545
O116 S32 1.503807 1_555
O117 S33 1.505680 1_555
O118 S35 1.474365 1_555
O119 S34 1.475860 1_655
O120 S22 1.471342 1_555
O121 S23 1.470655 1_555
O122 S19 1.468941 1_455
O123 S18 1.471231 1_555
O124 S20 1.472211 1_565
O125 S21 1.470979 1_565
O126 S14 1.469248 1_565
O127 S15 1.473535 1_565
O128 S16 1.489759 1_555
O129 S17 1.482566 1_555
O130 S13 1.470070 1_455
O131 S12 1.506111 1_555
O132 S0 1.469208 1_565
O133 S1 1.470933 1_565
O134 S2 1.470496 1_555
O135 S3 1.470400 1_555
O136 S4 1.470631 1_455
O137 S5 1.470981 1_555
O138 S6 1.479201 1_555
O139 S7 1.488858 1_555
O140 S8 1.469761 1_455
O141 S9 1.476536 1_555
O142 S10 1.509916 1_565
O143 S11 1.468350 1_565
