# generated using pymatgen
data_KBrO3
_symmetry_space_group_name_H-M   'P 1'
_cell_length_a   4.39401031
_cell_length_b   4.39401048
_cell_length_c   4.39400993
_cell_angle_alpha   85.10928319
_cell_angle_beta   85.10928450
_cell_angle_gamma   85.10928800
_symmetry_Int_Tables_number   1
_chemical_formula_structural   KBrO3
_chemical_formula_sum   'K1 Br1 O3'
_cell_volume   83.95967617
_cell_formula_units_Z   1
loop_
 _symmetry_equiv_pos_site_id
 _symmetry_equiv_pos_as_xyz
  1  'x, y, z'
loop_
 _atom_site_type_symbol
 _atom_site_label
 _atom_site_symmetry_multiplicity
 _atom_site_fract_x
 _atom_site_fract_y
 _atom_site_fract_z
 _atom_site_occupancy
  K  K0  1  0.01559889  0.01559889  0.01559889  1
  Br  Br0  1  0.50568188  0.50568188  0.50568188  1
  O  O0  1  0.12570132  0.56900846  0.56900846  1
  O  O1  1  0.56900846  0.56900846  0.12570132  1
  O  O2  1  0.56900846  0.12570132  0.56900846  1
loop_
_geom_bond_atom_site_label_1
_geom_bond_atom_site_label_2
_geom_bond_distance
_geom_bond_site_symmetry_2
K0 O2 2.875468 1_454
K0 O1 2.875468 1_445
K0 O0 2.875468 1_544
K0 O0 3.036931 1_545
K0 O2 3.036931 1_455
K0 O2 3.036931 1_554
K0 O0 3.036931 1_554
K0 O1 3.036931 1_545
K0 O1 3.036931 1_455
Br0 O1 1.672517 1_555
Br0 O0 1.672517 1_555
Br0 O2 1.672517 1_555
