# generated using pymatgen
data_ZnP3W3O13
_symmetry_space_group_name_H-M   'P 1'
_cell_length_a   6.51473664
_cell_length_b   7.80398971
_cell_length_c   10.45574384
_cell_angle_alpha   75.95737267
_cell_angle_beta   90.00000000
_cell_angle_gamma   90.00000000
_symmetry_Int_Tables_number   1
_chemical_formula_structural   ZnP3W3O13
_chemical_formula_sum   'Zn2 P6 W6 O26'
_cell_volume   515.69380825
_cell_formula_units_Z   2
loop_
 _symmetry_equiv_pos_site_id
 _symmetry_equiv_pos_as_xyz
  1  'x, y, z'
loop_
 _atom_site_type_symbol
 _atom_site_label
 _atom_site_symmetry_multiplicity
 _atom_site_fract_x
 _atom_site_fract_y
 _atom_site_fract_z
 _atom_site_occupancy
  Zn  Zn0  1  0.75000000  0.06238442  0.29254647  1
  Zn  Zn1  1  0.25000000  0.93761558  0.70745353  1
  P  P0  1  0.25000000  0.80591105  0.44701852  1
  P  P1  1  0.75000000  0.19408895  0.55298148  1
  P  P2  1  0.25000000  0.32371281  0.77909422  1
  P  P3  1  0.75000000  0.67628719  0.22090578  1
  P  P4  1  0.75000000  0.73853200  0.84897492  1
  P  P5  1  0.25000000  0.26146800  0.15102508  1
  W  W0  1  0.25000000  0.60603665  0.18128876  1
  W  W1  1  0.75000000  0.39396335  0.81871124  1
  W  W2  1  0.25000000  0.19186494  0.49089583  1
  W  W3  1  0.50000000  0.00000000  -0.00000000  1
  W  W4  1  0.75000000  0.80813506  0.50910417  1
  W  W5  1  -0.00000000  0.00000000  -0.00000000  1
  O  O0  1  0.75000000  0.67331118  0.71797173  1
  O  O1  1  0.55583866  0.23973814  0.46774794  1
  O  O2  1  0.25000000  0.32517538  0.63270622  1
  O  O3  1  0.55636795  0.84664761  0.86298952  1
  O  O4  1  0.75000000  0.29532498  0.65903028  1
  O  O5  1  0.75000000  0.15814109  0.93636959  1
  O  O6  1  0.25000000  0.70467502  0.34096972  1
  O  O7  1  0.05636795  0.15335239  0.13701048  1
  O  O8  1  0.25000000  0.00669979  0.38576940  1
  O  O9  1  0.75000000  0.99330021  0.61423060  1
  O  O10  1  0.06062695  0.40951382  0.81488750  1
  O  O11  1  0.25000000  0.84185891  0.06363041  1
  O  O12  1  0.56062695  0.59048618  0.18511250  1
  O  O13  1  0.75000000  0.55650492  0.94634547  1
  O  O14  1  0.75000000  0.67482462  0.36729378  1
  O  O15  1  0.44363205  0.15335239  0.13701048  1
  O  O16  1  0.94416134  0.23973814  0.46774794  1
  O  O17  1  0.44416134  0.76026186  0.53225206  1
  O  O18  1  0.43937305  0.40951382  0.81488750  1
  O  O19  1  0.25000000  0.32668882  0.28202827  1
  O  O20  1  0.75000000  0.87776924  0.12976020  1
  O  O21  1  0.25000000  0.12223076  0.87023980  1
  O  O22  1  0.93937305  0.59048618  0.18511250  1
  O  O23  1  0.94363205  0.84664761  0.86298952  1
  O  O24  1  0.05583866  0.76026186  0.53225206  1
  O  O25  1  0.25000000  0.44349508  0.05365453  1
loop_
_geom_bond_atom_site_label_1
_geom_bond_atom_site_label_2
_geom_bond_distance
_geom_bond_site_symmetry_2
W2 Zn1 2.623657 1_545
W4 Zn0 2.623657 1_565
O0 P4 1.572758 1_555
O0 W1 2.178908 1_555
O0 W4 2.182025 1_555
O1 P1 1.538519 1_555
O1 W2 2.030804 1_555
O2 P2 1.527866 1_555
O2 W2 2.007342 1_555
O3 P4 1.544229 1_555
O3 W3 2.109801 1_566
O3 Zn1 2.563597 1_555
O4 P1 1.509560 1_555
O4 W1 2.000937 1_555
O5 W1 1.949772 1_555
O5 W5 2.054231 1_656
O5 W3 2.054231 1_556
O6 P0 1.509560 1_555
O6 W0 2.000937 1_555
O7 P5 1.544229 1_555
O7 W5 2.109801 1_555
O7 Zn0 2.563597 1_455
O8 P0 1.542233 1_545
O8 W2 2.016702 1_555
O9 P1 1.542233 1_565
O9 W4 2.016702 1_555
O10 P2 1.494013 1_555
O10 W1 2.027102 1_455
O11 W0 1.949772 1_555
O11 W5 2.054231 1_565
O11 W3 2.054231 1_565
O12 P3 1.494013 1_555
O12 W0 2.027102 1_555
O13 P4 1.533813 1_555
O13 W1 2.052177 1_555
O14 P3 1.527866 1_555
O14 W4 2.007342 1_555
O15 P5 1.544229 1_555
O15 W3 2.109801 1_555
O15 Zn0 2.563597 1_555
O16 P1 1.538519 1_555
O16 W2 2.030804 1_655
O17 P0 1.538519 1_555
O17 W4 2.030804 1_555
O18 P2 1.494013 1_555
O18 W1 2.027102 1_555
O19 P5 1.572758 1_555
O19 W0 2.178908 1_555
O19 W2 2.182025 1_555
O20 P3 1.628909 1_555
O20 W3 2.185225 1_565
O20 W5 2.185225 1_665
O20 Zn0 2.482483 1_565
O21 P2 1.628909 1_555
O21 W5 2.185225 1_556
O21 W3 2.185225 1_556
O21 Zn1 2.482483 1_545
O22 P3 1.494013 1_555
O22 W0 2.027102 1_655
O23 P4 1.544229 1_555
O23 W5 2.109801 1_666
O23 Zn1 2.563597 1_655
O24 P0 1.538519 1_555
O24 W4 2.030804 1_455
O25 P5 1.533813 1_555
O25 W0 2.052177 1_555
