# generated using pymatgen
data_Na10Zn3Si6Sn5(SO8)6
_symmetry_space_group_name_H-M   'P 1'
_cell_length_a   17.98771564
_cell_length_b   9.02805626
_cell_length_c   22.66203730
_cell_angle_alpha   89.81884654
_cell_angle_beta   89.36225133
_cell_angle_gamma   119.85462460
_symmetry_Int_Tables_number   1
_chemical_formula_structural   Na10Zn3Si6Sn5(SO8)6
_chemical_formula_sum   'Na30 Zn9 Si18 Sn15 S18 O144'
_cell_volume   3191.43068438
_cell_formula_units_Z   3
loop_
 _symmetry_equiv_pos_site_id
 _symmetry_equiv_pos_as_xyz
  1  'x, y, z'
loop_
 _atom_site_type_symbol
 _atom_site_label
 _atom_site_symmetry_multiplicity
 _atom_site_fract_x
 _atom_site_fract_y
 _atom_site_fract_z
 _atom_site_occupancy
  Na  Na0  1  0.31825849  0.00312728  0.24477933  1
  Na  Na1  1  0.19543026  0.37232703  0.24650584  1
  Na  Na2  1  0.68988247  0.37081099  0.24575958  1
  Na  Na3  1  0.99775293  0.63966642  0.24962453  1
  Na  Na4  1  0.31694415  0.61779186  0.75410006  1
  Na  Na5  1  0.81771162  0.62561342  0.74814325  1
  Na  Na6  1  0.99419910  0.36095959  0.75122955  1
  Na  Na7  1  0.49787688  0.37714873  0.74351250  1
  Na  Na8  1  0.18247819  0.01066241  0.74763655  1
  Na  Na9  1  0.68636329  0.01164893  0.74915247  1
  Na  Na10  1  0.64659944  0.34517567  0.57783049  1
  Na  Na11  1  0.32477768  0.68933589  0.07929748  1
  Na  Na12  1  0.82637192  0.68959959  0.08600472  1
  Na  Na13  1  0.16538025  0.31416950  0.92113728  1
  Na  Na14  1  0.99044813  0.30574175  0.41972953  1
  Na  Na15  1  0.16414262  0.02833176  0.41869798  1
  Na  Na16  1  0.66395099  0.03124528  0.41332812  1
  Na  Na17  1  0.84343206  0.66527293  0.41726856  1
  Na  Na18  1  0.00118809  0.00147929  0.49984056  1
  Na  Na19  1  0.49327957  0.01023823  0.49551800  1
  Na  Na20  1  0.00556692  0.01948619  -0.00001739  1
  Na  Na21  1  0.50221232  0.01951108  0.99604071  1
  Na  Na22  1  0.34233989  0.35466613  0.83426284  1
  Na  Na23  1  0.83684495  0.33321658  0.82966945  1
  Na  Na24  1  0.33823040  0.35866005  0.32740598  1
  Na  Na25  1  0.83163287  0.33223850  0.33137861  1
  Na  Na26  1  0.16827770  0.66479451  0.15856379  1
  Na  Na27  1  0.66430638  0.66511189  0.16062099  1
  Na  Na28  1  0.16230174  0.65911086  0.66113634  1
  Na  Na29  1  0.65930542  0.66488154  0.66156959  1
  Zn  Zn0  1  0.49793065  0.00019018  0.35156371  1
  Zn  Zn1  1  0.34115837  0.35622355  0.68362652  1
  Zn  Zn2  1  0.83630522  0.33702995  0.69208646  1
  Zn  Zn3  1  0.32739326  0.34593142  0.18607025  1
  Zn  Zn4  1  0.82882520  0.34197360  0.18057889  1
  Zn  Zn5  1  0.16540076  0.62925347  0.01321016  1
  Zn  Zn6  1  0.65550093  0.62915884  0.01810363  1
  Zn  Zn7  1  0.16067267  0.65265604  0.51177236  1
  Zn  Zn8  1  0.66092441  0.64686771  0.51397289  1
  Si  Si0  1  0.14958007  0.99802821  0.25190512  1
  Si  Si1  1  0.35963410  0.71283710  0.25303616  1
  Si  Si2  1  0.85280272  0.70740554  0.24858153  1
  Si  Si3  1  0.14980054  0.29656062  0.74882484  1
  Si  Si4  1  0.64574021  0.29140220  0.75001660  1
  Si  Si5  1  0.00362093  0.71263460  0.75210518  1
  Si  Si6  1  0.49912908  0.71373528  0.75001553  1
  Si  Si7  1  0.85197598  0.99604988  0.74999979  1
  Si  Si8  1  0.48072372  0.33645594  0.58640971  1
  Si  Si9  1  0.18439482  0.33171203  0.08486300  1
  Si  Si10  1  0.68480127  0.33372855  0.08584483  1
  Si  Si11  1  0.31607083  0.67388824  0.91873081  1
  Si  Si12  1  0.01210762  0.36082376  0.91837459  1
  Si  Si13  1  0.51787655  0.36858296  0.91730789  1
  Si  Si14  1  0.81037537  0.95521348  0.42028221  1
  Si  Si15  1  0.17036907  0.37442091  0.41826076  1
  Si  Si16  1  0.65930818  0.35908984  0.41818392  1
  Si  Si17  1  0.02412173  0.66859962  0.41857844  1
  Sn  Sn0  1  0.00065757  0.99495883  0.35316857  1
  Sn  Sn1  1  0.99922621  0.00628435  0.84934247  1
  Sn  Sn2  1  0.50150695  0.99969561  0.85561311  1
  Sn  Sn3  1  0.00165169  0.00139545  0.65277465  1
  Sn  Sn4  1  0.50100314  0.00766319  0.64770713  1
  Sn  Sn5  1  0.00569396  0.99851598  0.14815119  1
  Sn  Sn6  1  0.50168506  0.00464963  0.14812888  1
  Sn  Sn7  1  0.33514632  0.34084939  0.98049082  1
  Sn  Sn8  1  0.82974853  0.32480291  0.98276111  1
  Sn  Sn9  1  0.33637824  0.33832225  0.48555575  1
  Sn  Sn10  1  0.83357735  0.33492226  0.48039759  1
  Sn  Sn11  1  0.17276426  0.66753768  0.31774279  1
  Sn  Sn12  1  0.67439091  0.67406185  0.31814430  1
  Sn  Sn13  1  0.15793611  0.64629983  0.82011506  1
  Sn  Sn14  1  0.66004176  0.65960435  0.81427052  1
  S  S0  1  0.64750461  0.99399662  0.25139324  1
  S  S1  1  0.99787322  0.29157057  0.24987029  1
  S  S2  1  0.50209753  0.30002104  0.25138403  1
  S  S3  1  0.35142552  0.99652059  0.75116215  1
  S  S4  1  0.98032677  0.32995120  0.58491398  1
  S  S5  1  0.18310505  0.03382047  0.58505222  1
  S  S6  1  0.68747219  0.03820548  0.58455145  1
  S  S7  1  0.33161391  0.63378350  0.58425932  1
  S  S8  1  0.83792094  0.63244440  0.58529279  1
  S  S9  1  0.48133035  0.62764210  0.08579486  1
  S  S10  1  0.98139230  0.62610179  0.08379183  1
  S  S11  1  0.33357773  0.04346645  0.08565483  1
  S  S12  1  0.83385177  0.04082764  0.08552881  1
  S  S13  1  0.81489286  0.66812333  0.91820477  1
  S  S14  1  0.16550753  0.95576623  0.91766453  1
  S  S15  1  0.66877788  0.95769841  0.91901849  1
  S  S16  1  0.31510082  0.96409707  0.41977005  1
  S  S17  1  0.51971382  0.66323263  0.41689899  1
  O  O0  1  0.10819523  0.04339314  0.30958955  1
  O  O1  1  0.61018545  0.02423128  0.30501610  1
  O  O2  1  0.41547487  0.81459379  0.30795731  1
  O  O3  1  0.91106672  0.79465446  0.30728992  1
  O  O4  1  0.48945722  0.19517718  0.30397350  1
  O  O5  1  0.98566646  0.19277638  0.30573226  1
  O  O6  1  0.11087770  0.17895894  0.80912133  1
  O  O7  1  0.60205936  0.16114398  0.80556839  1
  O  O8  1  0.47854732  0.79968010  0.80597711  1
  O  O9  1  0.98113764  0.79556249  0.80887754  1
  O  O10  1  0.40686663  0.02841580  0.80266783  1
  O  O11  1  0.91496522  0.04493030  0.80646402  1
  O  O12  1  0.38780753  0.95841641  0.69688428  1
  O  O13  1  0.88980025  0.94117447  0.69214799  1
  O  O14  1  0.08168544  0.21804955  0.69383980  1
  O  O15  1  0.58533500  0.22011643  0.69065678  1
  O  O16  1  0.02891470  0.83786117  0.69320156  1
  O  O17  1  0.51850958  0.83535095  0.69014668  1
  O  O18  1  0.39560170  0.83596539  0.19023247  1
  O  O19  1  0.89522977  0.82529728  0.18827551  1
  O  O20  1  0.01414914  0.20975487  0.19811022  1
  O  O21  1  0.52428715  0.22684447  0.19756546  1
  O  O22  1  0.08243456  0.94782614  0.19649574  1
  O  O23  1  0.59419332  0.97042188  0.19760925  1
  O  O24  1  0.43560502  0.34834042  0.64652167  1
  O  O25  1  0.93543780  0.34380990  0.63713133  1
  O  O26  1  0.23237607  0.12003885  0.63749205  1
  O  O27  1  0.73724718  0.12426791  0.63683485  1
  O  O28  1  0.31878379  0.53174974  0.63818169  1
  O  O29  1  0.82800303  0.52380916  0.63682104  1
  O  O30  1  0.44125934  0.52128331  0.13803058  1
  O  O31  1  0.94386265  0.52771568  0.13912860  1
  O  O32  1  0.32947685  0.12671288  0.14037158  1
  O  O33  1  0.82641051  0.12742312  0.13802298  1
  O  O34  1  0.23988071  0.35957165  0.14323895  1
  O  O35  1  0.73963318  0.36444767  0.14534540  1
  O  O36  1  0.22741151  0.29741363  0.02361854  1
  O  O37  1  0.72946451  0.29765852  0.02670833  1
  O  O38  1  0.42731896  0.55406845  0.03140151  1
  O  O39  1  0.92328178  0.54243276  0.03214826  1
  O  O40  1  0.34868711  0.15210368  0.03162363  1
  O  O41  1  0.85111860  0.14749265  0.03016834  1
  O  O42  1  0.22236642  0.14056089  0.52863668  1
  O  O43  1  0.72721502  0.15218612  0.52906608  1
  O  O44  1  0.34713424  0.55338119  0.53013893  1
  O  O45  1  0.85000447  0.55293683  0.52846596  1
  O  O46  1  0.42008562  0.29949341  0.52650242  1
  O  O47  1  0.92879115  0.30629813  0.52867627  1
  O  O48  1  0.27716141  0.70609208  0.97780996  1
  O  O49  1  0.77582229  0.69353360  0.97150173  1
  O  O50  1  0.07574138  0.44623918  0.97148935  1
  O  O51  1  0.57539162  0.45295673  0.97291405  1
  O  O52  1  0.15459634  0.85049833  0.96898086  1
  O  O53  1  0.66166992  0.85496208  0.97061985  1
  O  O54  1  0.27250114  0.85817535  0.47101568  1
  O  O55  1  0.76794486  0.82746842  0.47466882  1
  O  O56  1  0.14714885  0.45263978  0.47343963  1
  O  O57  1  0.64880270  0.43849087  0.47818283  1
  O  O58  1  0.08708782  0.71952607  0.47276956  1
  O  O59  1  0.57254858  0.68879664  0.46863181  1
  O  O60  1  0.06013914  0.62231896  0.35725788  1
  O  O61  1  0.55786942  0.63272657  0.36108310  1
  O  O62  1  0.26161712  0.89412163  0.36356594  1
  O  O63  1  0.74958904  0.89111323  0.36019593  1
  O  O64  1  0.18660244  0.47998110  0.35479601  1
  O  O65  1  0.68440237  0.48501287  0.35769048  1
  O  O66  1  0.04630407  0.46597193  0.85443279  1
  O  O67  1  0.55424383  0.48306407  0.85469252  1
  O  O68  1  0.17835508  0.88300789  0.86021937  1
  O  O69  1  0.68242639  0.88701216  0.86157055  1
  O  O70  1  0.25600252  0.63635206  0.85747970  1
  O  O71  1  0.76454675  0.64605545  0.86290667  1
  O  O72  1  0.00713318  0.83082686  0.41231338  1
  O  O73  1  0.51118289  0.81634692  0.41051474  1
  O  O74  1  0.40108582  0.98780963  0.41221291  1
  O  O75  1  0.90785557  0.98439665  0.40976558  1
  O  O76  1  0.08278560  0.18266320  0.41087256  1
  O  O77  1  0.58252854  0.16399935  0.40854908  1
  O  O78  1  0.01006099  0.17278586  0.91312140  1
  O  O79  1  0.51003652  0.18050214  0.90973311  1
  O  O80  1  0.08768009  0.97831529  0.91265414  1
  O  O81  1  0.59082876  0.97456246  0.91485806  1
  O  O82  1  0.41254691  0.83635124  0.91234736  1
  O  O83  1  0.90290718  0.82063925  0.91248270  1
  O  O84  1  0.49168805  0.15762187  0.58569577  1
  O  O85  1  0.98657216  0.16787437  0.58618668  1
  O  O86  1  0.09472740  0.02205379  0.58588995  1
  O  O87  1  0.60112006  0.03132408  0.58515169  1
  O  O88  1  0.41330174  0.80544414  0.58712673  1
  O  O89  1  0.91851443  0.80466135  0.58641843  1
  O  O90  1  0.48278255  0.79899083  0.08957975  1
  O  O91  1  0.98006689  0.79505466  0.08586585  1
  O  O92  1  0.41296007  0.01917943  0.08594448  1
  O  O93  1  0.91214583  0.01658981  0.08765977  1
  O  O94  1  0.08606404  0.15380066  0.08685125  1
  O  O95  1  0.58811294  0.15492675  0.08913836  1
  O  O96  1  0.34019519  0.14610535  0.74462122  1
  O  O97  1  0.84080438  0.16135082  0.74300987  1
  O  O98  1  0.24224303  0.30921407  0.74054901  1
  O  O99  1  0.74041679  0.31446860  0.74396702  1
  O  O100  1  0.41712113  0.52243800  0.74791595  1
  O  O101  1  0.92144745  0.52413141  0.74570684  1
  O  O102  1  0.34439710  0.52160991  0.24765904  1
  O  O103  1  0.84601095  0.51885538  0.24686556  1
  O  O104  1  0.42482109  0.31137679  0.24170803  1
  O  O105  1  0.92306182  0.31489617  0.24339759  1
  O  O106  1  0.24562104  0.15867194  0.24686429  1
  O  O107  1  0.73454504  0.14456282  0.24382037  1
  O  O108  1  0.31599351  0.48812378  0.91995332  1
  O  O109  1  0.82281856  0.50926575  0.92168129  1
  O  O110  1  0.41928696  0.34275795  0.92249254  1
  O  O111  1  0.91579719  0.34340586  0.92398079  1
  O  O112  1  0.24237926  0.13273524  0.91938698  1
  O  O113  1  0.74660516  0.13503432  0.92035395  1
  O  O114  1  0.31877323  0.13606401  0.42275238  1
  O  O115  1  0.82451907  0.15062333  0.42504501  1
  O  O116  1  0.25388909  0.34064519  0.42538640  1
  O  O117  1  0.75253254  0.35260554  0.42167709  1
  O  O118  1  0.43178580  0.50508295  0.42107862  1
  O  O119  1  0.92805878  0.49532177  0.42395192  1
  O  O120  1  0.17754364  0.50527796  0.08156604  1
  O  O121  1  0.68219991  0.51170938  0.08027592  1
  O  O122  1  0.06813950  0.65768707  0.07545038  1
  O  O123  1  0.56931527  0.66090238  0.07828229  1
  O  O124  1  0.25743411  0.87355796  0.08088300  1
  O  O125  1  0.75782637  0.87069424  0.07913144  1
  O  O126  1  0.17486399  0.86474310  0.57925533  1
  O  O127  1  0.67794339  0.87059460  0.57691805  1
  O  O128  1  0.25675611  0.65641159  0.57676939  1
  O  O129  1  0.76076803  0.64755963  0.58110292  1
  O  O130  1  0.06544668  0.48240503  0.57995530  1
  O  O131  1  0.57790729  0.50134840  0.58042747  1
  O  O132  1  0.15189723  0.81721884  0.25837345  1
  O  O133  1  0.65092640  0.83037464  0.25479453  1
  O  O134  1  0.26003484  0.69556374  0.25414554  1
  O  O135  1  0.75423695  0.68130617  0.25201586  1
  O  O136  1  0.07843249  0.46405360  0.25295493  1
  O  O137  1  0.58139476  0.47509569  0.25555226  1
  O  O138  1  0.15947611  0.48883140  0.75369015  1
  O  O139  1  0.65516891  0.48214884  0.75583921  1
  O  O140  1  0.09429961  0.70593078  0.75787457  1
  O  O141  1  0.58934559  0.70724038  0.75367462  1
  O  O142  1  0.26499713  0.83908941  0.75773064  1
  O  O143  1  0.75842485  0.82220072  0.75971691  1
loop_
_geom_bond_atom_site_label_1
_geom_bond_atom_site_label_2
_geom_bond_distance
_geom_bond_site_symmetry_2
Na0 O106 2.346724 1_555
Na0 O134 2.438858 1_545
Na0 O104 2.471538 1_555
Na0 O32 2.575365 1_555
Na0 O132 2.615816 1_545
Na0 O18 2.793731 1_545
Na0 O62 2.859553 1_545
Na1 O102 2.324542 1_555
Na1 O34 2.486161 1_555
Na1 O106 2.503918 1_555
Na1 O134 2.554935 1_555
Na1 O136 2.620149 1_555
Na1 O64 2.674391 1_555
Na2 O103 2.436966 1_555
Na2 O35 2.447271 1_555
Na2 O135 2.448139 1_555
Na2 O107 2.540278 1_555
Na2 O137 2.562158 1_555
Na2 O65 2.760277 1_555
Na2 O21 2.825178 1_555
Na3 O103 2.384100 1_555
Na3 O132 2.426095 1_655
Na3 O105 2.550832 1_555
Na3 O136 2.630180 1_655
Na3 O22 2.688629 1_655
Na3 O31 2.706681 1_555
Na3 O60 2.732577 1_655
Na3 O3 2.869746 1_555
Na4 O100 2.355273 1_555
Na4 O98 2.438963 1_555
Na4 O138 2.469006 1_555
Na4 O142 2.594109 1_555
Na4 O70 2.616601 1_555
Na4 O28 2.746254 1_555
Na4 O8 2.804358 1_555
Na4 O12 2.966165 1_555
Na5 O99 2.439046 1_555
Na5 O101 2.454460 1_555
Na5 O143 2.497417 1_555
Na5 O139 2.544289 1_555
Na5 O29 2.723440 1_555
Na5 O13 2.769573 1_555
Na5 O71 2.799285 1_555
Na5 O9 2.915990 1_555
Na6 O101 2.412483 1_555
Na6 O97 2.441021 1_555
Na6 O66 2.534832 1_655
Na6 O138 2.600270 1_655
Na6 O140 2.718506 1_655
Na6 O11 2.761824 1_555
Na6 O25 2.779831 1_555
Na6 O14 2.796255 1_655
Na7 O100 2.394812 1_555
Na7 O24 2.433507 1_555
Na7 O139 2.516094 1_555
Na7 O96 2.550324 1_555
Na7 O141 2.602339 1_555
Na7 O67 2.719820 1_555
Na7 O15 2.847589 1_555
Na8 O98 2.356892 1_555
Na8 O140 2.404514 1_545
Na8 O96 2.467726 1_555
Na8 O142 2.636143 1_545
Na8 O26 2.657691 1_555
Na8 O16 2.717228 1_545
Na8 O68 2.781224 1_545
Na8 O6 2.798301 1_555
Na9 O99 2.404623 1_555
Na9 O97 2.411563 1_555
Na9 O141 2.414127 1_545
Na9 O143 2.621902 1_545
Na9 O27 2.712110 1_555
Na9 O69 2.767681 1_545
Na9 O7 2.785875 1_555
Na9 O17 2.959125 1_545
Na10 O131 2.291617 1_555
Na10 O57 2.400748 1_555
Na10 O84 2.439877 1_555
Na10 O129 2.469516 1_555
Na10 O87 2.532102 1_555
Na10 O15 2.776155 1_555
Na11 O120 2.322252 1_555
Na11 O48 2.493340 1_554
Na11 O124 2.498007 1_555
Na11 O90 2.515367 1_555
Na11 O92 2.590706 1_565
Na11 O18 2.847621 1_555
Na11 O38 2.877149 1_555
Na11 O34 2.948245 1_555
Na12 O121 2.276769 1_555
Na12 O91 2.434921 1_555
Na12 O125 2.495423 1_555
Na12 O93 2.562031 1_565
Na12 O19 2.641528 1_555
Na12 O49 2.765047 1_554
Na12 O35 2.868499 1_555
Na12 O39 2.926146 1_555
Na13 O108 2.359857 1_555
Na13 O78 2.435183 1_555
Na13 O112 2.619320 1_555
Na13 O36 2.623949 1_556
Na13 O80 2.640938 1_545
Na13 O50 2.684261 1_555
Na13 O6 2.789045 1_555
Na13 O70 2.898156 1_555
Na14 O76 2.421803 1_655
Na14 O119 2.471620 1_555
Na14 O75 2.528866 1_545
Na14 O115 2.591048 1_555
Na14 O47 2.696380 1_555
Na14 O56 2.747765 1_655
Na14 O5 2.766910 1_555
Na14 O60 2.848193 1_655
Na15 O114 2.450258 1_555
Na15 O116 2.460796 1_555
Na15 O76 2.479647 1_555
Na15 O72 2.484689 1_545
Na15 O58 2.699729 1_545
Na15 O0 2.708249 1_555
Na15 O42 2.710770 1_555
Na15 O62 2.859939 1_545
Na16 O77 2.311614 1_555
Na16 O73 2.452779 1_545
Na16 O117 2.529756 1_555
Na16 O115 2.548296 1_555
Na16 O1 2.637632 1_555
Na16 O63 2.707745 1_545
Na16 O43 2.866014 1_555
Na16 O59 2.949762 1_545
Na17 O117 2.459869 1_555
Na17 O75 2.518110 1_555
Na17 O72 2.554816 1_655
Na17 O119 2.650157 1_555
Na17 O45 2.739082 1_555
Na17 O3 2.748729 1_555
Na17 O55 2.762666 1_555
Na17 O65 2.849443 1_555
Na18 O76 2.533368 1_555
Na18 O86 2.536216 1_555
Na18 O72 2.549147 1_545
Na18 O89 2.549623 1_445
Na18 O85 2.560298 1_455
Na18 O75 2.613354 1_445
Na19 O84 2.449786 1_555
Na19 O77 2.466213 1_555
Na19 O74 2.468393 1_545
Na19 O88 2.656889 1_545
Na19 O73 2.728991 1_545
Na19 O87 2.765448 1_555
Na20 O78 2.380049 1_554
Na20 O94 2.402691 1_555
Na20 O93 2.579549 1_455
Na20 O80 2.592786 1_544
Na20 O91 2.670906 1_445
Na20 O83 2.714459 1_444
Na21 O79 2.393761 1_555
Na21 O82 2.523026 1_545
Na21 O95 2.557629 1_556
Na21 O92 2.578920 1_556
Na21 O81 2.583351 1_545
Na21 O90 2.800585 1_546
Na22 O100 2.413884 1_555
Na22 O108 2.451558 1_555
Na22 O110 2.476601 1_555
Na22 O98 2.697329 1_555
Na22 O112 2.698225 1_555
Na22 O96 2.761747 1_555
Na23 O101 2.492094 1_555
Na23 O97 2.528950 1_555
Na23 O111 2.555795 1_555
Na23 O99 2.567899 1_555
Na23 O113 2.659037 1_555
Na23 O109 2.710394 1_555
Na24 O102 2.293215 1_555
Na24 O106 2.541736 1_555
Na24 O116 2.633529 1_555
Na24 O118 2.639743 1_555
Na24 O104 2.641936 1_555
Na24 O114 2.843465 1_555
Na25 O103 2.471495 1_555
Na25 O117 2.538472 1_555
Na25 O105 2.624863 1_555
Na25 O115 2.640750 1_555
Na25 O107 2.647706 1_555
Na25 O119 2.671216 1_555
Na26 O120 2.322691 1_555
Na26 O124 2.475890 1_555
Na26 O122 2.599521 1_555
Na26 O134 2.668357 1_555
Na26 O136 2.730294 1_555
Na26 O132 2.739549 1_555
Na27 O121 2.404904 1_555
Na27 O123 2.531719 1_555
Na27 O125 2.546699 1_555
Na27 O135 2.601736 1_555
Na27 O137 2.674584 1_555
Na27 O133 2.684187 1_555
Na28 O130 2.507521 1_555
Na28 O126 2.547930 1_555
Na28 O128 2.551847 1_555
Na28 O138 2.581594 1_555
Na28 O140 2.634756 1_555
Na28 O142 2.822857 1_555
Na29 O131 2.372717 1_555
Na29 O141 2.551926 1_555
Na29 O127 2.566121 1_555
Na29 O129 2.625365 1_555
Na29 O139 2.672646 1_555
Na29 O143 2.780346 1_555
O0 Si0 1.648045 1_545
O0 Sn0 2.005219 1_545
O1 S0 1.472487 1_545
O1 Zn0 2.179874 1_555
O2 Si1 1.586922 1_555
O2 Zn0 1.884886 1_565
O3 Si2 1.644599 1_555
O3 Sn0 2.023848 1_655
O4 S2 1.463060 1_555
O4 Zn0 2.131667 1_555
O5 S1 1.496010 1_555
O5 Sn0 2.211694 1_645
O6 Si3 1.647435 1_555
O6 Sn1 2.031675 1_455
O7 Si4 1.622912 1_555
O7 Sn2 2.000326 1_545
O8 Si6 1.621484 1_555
O8 Sn2 1.994317 1_555
O9 Si5 1.635639 1_655
O9 Sn1 1.991822 1_565
O10 S3 1.477156 1_545
O10 Sn2 2.210852 1_545
O11 Si7 1.629082 1_545
O11 Sn1 1.979979 1_555
O12 S3 1.506163 1_555
O12 Sn4 2.151876 1_565
O13 Si7 1.657410 1_555
O13 Sn3 2.001905 1_665
O14 Si3 1.652647 1_555
O14 Sn3 2.000559 1_555
O15 Si4 1.657165 1_555
O15 Sn4 2.018728 1_555
O16 Si5 1.652837 1_555
O16 Sn3 1.995462 1_565
O17 Si6 1.663363 1_555
O17 Sn4 1.982218 1_565
O18 Si1 1.712716 1_555
O18 Sn6 1.981895 1_565
O19 Si2 1.655860 1_555
O19 Sn5 2.019325 1_655
O20 S1 1.490077 1_455
O20 Sn5 2.161158 1_545
O21 S2 1.529728 1_555
O21 Sn6 2.157964 1_555
O22 Si0 1.653270 1_555
O22 Sn5 1.993648 1_555
O23 S0 1.508293 1_555
O23 Sn6 2.161730 1_565
O24 Si8 1.609017 1_555
O24 Zn1 1.920228 1_555
O25 S4 1.465673 1_555
O25 Zn2 2.139126 1_555
O26 S5 1.464961 1_555
O26 Zn1 2.318237 1_555
O27 S6 1.464933 1_555
O27 Zn2 2.256019 1_555
O28 S7 1.473098 1_555
O28 Zn1 2.089891 1_555
O29 S8 1.473517 1_555
O29 Zn2 2.162371 1_555
O30 S9 1.458630 1_555
O30 Zn3 2.144231 1_555
O31 S10 1.481363 1_555
O31 Zn4 2.113831 1_555
O32 S11 1.472042 1_555
O32 Zn3 2.253170 1_555
O33 S12 1.466573 1_555
O33 Zn4 2.147746 1_555
O34 Si9 1.609682 1_555
O34 Zn3 1.913510 1_555
O35 Si10 1.620968 1_555
O35 Zn4 1.898490 1_555
O36 Si9 1.684723 1_555
O36 Sn7 2.015764 1_554
O37 Si10 1.669356 1_555
O37 Sn8 1.955574 1_554
O38 S9 1.514563 1_555
O38 Sn7 2.159764 1_554
O39 S10 1.509843 1_555
O39 Sn8 2.169871 1_554
O40 S11 1.501568 1_555
O40 Sn7 2.170883 1_554
O41 S12 1.511184 1_555
O41 Sn8 2.115509 1_554
O42 S5 1.535081 1_555
O42 Sn9 2.155374 1_555
O43 S6 1.546105 1_555
O43 Sn10 2.097044 1_555
O44 S7 1.519489 1_555
O44 Sn9 2.114395 1_555
O45 S8 1.541390 1_555
O45 Sn10 2.142344 1_555
O46 Si8 1.678588 1_555
O46 Sn9 1.950806 1_555
O47 S4 1.536272 1_555
O47 Sn10 2.162790 1_555
O48 Si11 1.597216 1_555
O48 Zn5 1.933480 1_556
O49 S13 1.465857 1_555
O49 Zn6 2.197782 1_556
O50 Si12 1.584754 1_555
O50 Zn5 1.901512 1_556
O51 Si13 1.577666 1_555
O51 Zn6 1.848428 1_556
O52 S14 1.447878 1_555
O52 Zn5 2.325992 1_556
O53 S15 1.454595 1_555
O53 Zn6 2.254830 1_556
O54 S16 1.447044 1_555
O54 Zn7 2.138683 1_555
O55 Si14 1.589150 1_555
O55 Zn8 1.996332 1_555
O56 Si15 1.588835 1_555
O56 Zn7 1.910983 1_555
O57 Si16 1.591744 1_555
O57 Zn8 1.962051 1_555
O58 Si17 1.586970 1_555
O58 Zn7 1.927673 1_555
O59 S17 1.462557 1_555
O59 Zn8 2.087865 1_555
O60 Si17 1.666905 1_555
O60 Sn11 2.051003 1_555
O61 S17 1.522481 1_555
O61 Sn12 2.157025 1_555
O62 S16 1.540850 1_555
O62 Sn11 2.147714 1_555
O63 Si14 1.671153 1_555
O63 Sn12 1.994802 1_555
O64 Si15 1.663414 1_555
O64 Sn11 2.012342 1_555
O65 Si16 1.685529 1_555
O65 Sn12 2.012089 1_555
O66 Si12 1.664141 1_555
O66 Sn13 1.997471 1_555
O67 Si13 1.675293 1_555
O67 Sn14 1.983231 1_555
O68 S14 1.526260 1_555
O68 Sn13 2.183115 1_555
O69 S15 1.522022 1_555
O69 Sn14 2.174085 1_555
O70 Si11 1.697312 1_555
O70 Sn13 2.006795 1_555
O71 S13 1.509127 1_555
O71 Sn14 2.244474 1_555
O72 Si17 1.644331 1_555
O72 Sn0 2.041703 1_555
O73 S17 1.471638 1_555
O73 Zn0 2.232336 1_565
O74 S16 1.459992 1_555
O74 Zn0 2.165194 1_565
O75 Si14 1.652618 1_555
O75 Sn0 2.057620 1_655
O76 Si15 1.673133 1_555
O76 Sn0 2.080562 1_545
O77 Si16 1.626212 1_555
O77 Zn0 1.996428 1_555
O78 Si12 1.684216 1_555
O78 Sn1 2.028535 1_455
O79 Si13 1.642117 1_555
O79 Sn2 1.989919 1_545
O80 S14 1.517001 1_555
O80 Sn1 2.258848 1_465
O81 S15 1.487755 1_555
O81 Sn2 2.201049 1_555
O82 Si11 1.625638 1_555
O82 Sn2 1.995287 1_555
O83 S13 1.497717 1_555
O83 Sn1 2.212882 1_565
O84 Si8 1.721326 1_555
O84 Sn4 2.013674 1_555
O85 S4 1.522492 1_555
O85 Sn3 2.238374 1_655
O86 S5 1.539484 1_555
O86 Sn3 2.183144 1_555
O87 S6 1.523209 1_555
O87 Sn4 2.203797 1_555
O88 S7 1.516788 1_555
O88 Sn4 2.214296 1_565
O89 S8 1.508854 1_555
O89 Sn3 2.252739 1_665
O90 S9 1.536795 1_555
O90 Sn6 2.172682 1_565
O91 S10 1.538181 1_555
O91 Sn5 2.183296 1_655
O92 S11 1.548855 1_555
O92 Sn6 2.192610 1_555
O93 S12 1.530319 1_555
O93 Sn5 2.249604 1_645
O94 Si9 1.696958 1_555
O94 Sn5 1.977460 1_545
O95 Si10 1.684447 1_555
O95 Sn6 1.971565 1_555
O96 S3 1.468852 1_545
O96 Zn1 2.336573 1_555
O97 Si7 1.609458 1_545
O97 Zn2 1.993027 1_555
O98 Si3 1.617723 1_555
O98 Zn1 2.050262 1_555
O99 Si4 1.613679 1_555
O99 Zn2 2.000589 1_555
O100 Si6 1.620688 1_555
O100 Zn1 2.063545 1_555
O101 Si5 1.613673 1_655
O101 Zn2 2.038185 1_555
O102 Si1 1.612898 1_555
O102 Zn3 2.024264 1_555
O103 Si2 1.645461 1_555
O103 Zn4 2.106241 1_555
O104 S2 1.462631 1_555
O104 Zn3 2.312873 1_555
O105 S1 1.470737 1_555
O105 Zn4 2.328914 1_555
O106 Si0 1.612755 1_545
O106 Zn3 2.093835 1_555
O107 S0 1.483968 1_545
O107 Zn4 2.242089 1_555
O108 Si11 1.676541 1_555
O108 Sn7 2.055162 1_555
O109 S13 1.512114 1_555
O109 Sn8 2.213783 1_555
O110 Si13 1.672320 1_555
O110 Sn7 1.986988 1_555
O111 Si12 1.663083 1_655
O111 Sn8 1.972883 1_555
O112 S14 1.506064 1_545
O112 Sn7 2.275646 1_555
O113 S15 1.514511 1_545
O113 Sn8 2.164136 1_555
O114 S16 1.522475 1_545
O114 Sn9 2.216070 1_555
O115 Si14 1.656393 1_545
O115 Sn10 2.028877 1_555
O116 Si15 1.684413 1_555
O116 Sn9 2.034014 1_555
O117 Si16 1.709481 1_555
O117 Sn10 2.048190 1_555
O118 S17 1.515453 1_555
O118 Sn9 2.169051 1_555
O119 Si17 1.658534 1_655
O119 Sn10 2.027623 1_555
O120 Si9 1.633360 1_555
O120 Zn5 1.984961 1_555
O121 Si10 1.635144 1_555
O121 Zn6 1.962834 1_555
O122 S10 1.449809 1_455
O122 Zn5 2.347474 1_555
O123 S9 1.464398 1_555
O123 Zn6 2.177869 1_555
O124 S11 1.467391 1_565
O124 Zn5 2.529790 1_555
O125 S12 1.471371 1_565
O125 Zn6 2.476958 1_555
O126 S5 1.464811 1_565
O126 Zn7 2.368695 1_555
O127 S6 1.446779 1_565
O127 Zn8 2.370763 1_555
O128 S7 1.470510 1_555
O128 Zn7 2.270797 1_555
O129 S8 1.464595 1_555
O129 Zn8 2.364230 1_555
O130 S4 1.465742 1_455
O130 Zn7 2.233582 1_555
O131 Si8 1.641014 1_555
O131 Zn8 2.051372 1_555
O132 Si0 1.659571 1_555
O132 Sn11 2.069275 1_555
O133 S0 1.510537 1_555
O133 Sn12 2.196444 1_555
O134 Si1 1.719147 1_555
O134 Sn11 2.038959 1_555
O135 Si2 1.669102 1_555
O135 Sn12 2.042265 1_555
O136 S1 1.511928 1_455
O136 Sn11 2.319210 1_555
O137 S2 1.516927 1_555
O137 Sn12 2.261466 1_555
O138 Si3 1.660246 1_555
O138 Sn13 2.083176 1_555
O139 Si4 1.650109 1_555
O139 Sn14 2.050357 1_555
O140 Si5 1.668602 1_555
O140 Sn13 2.057735 1_555
O141 Si6 1.655735 1_555
O141 Sn14 2.065782 1_555
O142 S3 1.500929 1_555
O142 Sn13 2.307263 1_555
O143 Si7 1.644275 1_555
O143 Sn14 2.041692 1_555
