# generated using pymatgen
data_K4MgNb2(AgS4)2
_symmetry_space_group_name_H-M   'P 1'
_cell_length_a   6.03054173
_cell_length_b   7.59125306
_cell_length_c   12.01509943
_cell_angle_alpha   83.52626177
_cell_angle_beta   75.47390079
_cell_angle_gamma   63.30864477
_symmetry_Int_Tables_number   1
_chemical_formula_structural   K4MgNb2(AgS4)2
_chemical_formula_sum   'K4 Mg1 Nb2 Ag2 S8'
_cell_volume   475.72123120
_cell_formula_units_Z   1
loop_
 _symmetry_equiv_pos_site_id
 _symmetry_equiv_pos_as_xyz
  1  'x, y, z'
loop_
 _atom_site_type_symbol
 _atom_site_label
 _atom_site_symmetry_multiplicity
 _atom_site_fract_x
 _atom_site_fract_y
 _atom_site_fract_z
 _atom_site_occupancy
  K  K0  1  0.17898500  0.24975600  0.64214800  1
  K  K1  1  0.80574600  0.75003000  0.38859500  1
  K  K2  1  0.55343900  0.25021900  0.89217200  1
  K  K3  1  0.44918300  0.74949200  0.10267100  1
  Mg  Mg0  1  0.75089700  0.25007600  0.49767600  1
  Nb  Nb0  1  0.37550900  0.25004200  0.24849400  1
  Nb  Nb1  1  0.62615600  0.75000100  0.74729900  1
  Ag  Ag0  1  0.88977500  0.25009800  0.21982800  1
  Ag  Ag1  1  0.12331400  0.75014400  0.75248700  1
  S  S0  1  0.89861500  0.54143500  0.86149400  1
  S  S1  1  0.78047200  0.96319500  0.62570900  1
  S  S2  1  0.59354100  0.53683000  0.62568700  1
  S  S3  1  0.23976600  0.95826000  0.86160500  1
  S  S4  1  0.10652300  0.46821300  0.13614400  1
  S  S5  1  0.75672900  0.03201900  0.13607600  1
  S  S6  1  0.44130400  0.42972500  0.37816400  1
  S  S7  1  0.18004600  0.07046500  0.37819500  1
loop_
_geom_bond_atom_site_label_1
_geom_bond_atom_site_label_2
_geom_bond_distance
_geom_bond_site_symmetry_2
K0 S3 3.228636 1_545
K0 S0 3.228689 1_455
K0 S1 3.252263 1_545
K0 S2 3.254857 1_455
K0 S7 3.586883 1_555
K0 S6 3.588407 1_555
K1 S1 3.370229 1_555
K1 S2 3.371105 1_555
K1 S6 3.474695 1_655
K1 S7 3.477468 1_565
K1 S4 3.504931 1_655
K1 S5 3.506002 1_565
K2 S5 3.423158 1_556
K2 S4 3.423309 1_556
K2 S0 3.594653 1_555
K2 S3 3.594950 1_545
K2 S0 3.649787 1_455
K2 S3 3.654829 1_645
K2 S2 3.682051 1_555
K2 S1 3.683241 1_545
K3 S0 3.388801 1_554
K3 S3 3.390822 1_554
K3 S5 3.513091 1_565
K3 S4 3.513484 1_555
K3 S4 3.665686 1_655
K3 S5 3.675094 1_465
Mg0 S6 2.454267 1_555
Mg0 S7 2.454645 1_655
Mg0 S2 2.484304 1_555
Mg0 S1 2.484808 1_545
Nb0 S5 2.318847 1_555
Nb0 S4 2.318899 1_555
Nb0 S7 2.391521 1_555
Nb0 S6 2.391833 1_555
Nb1 S3 2.321635 1_555
Nb1 S0 2.322287 1_555
Nb1 S2 2.399107 1_555
Nb1 S1 2.399467 1_555
Ag0 S4 2.524019 1_655
Ag0 S5 2.524078 1_555
Ag0 S6 2.735676 1_555
Ag0 S7 2.736002 1_655
Ag1 S0 2.575319 1_455
Ag1 S3 2.575597 1_555
Ag1 S1 2.689049 1_455
Ag1 S2 2.692294 1_555
