# generated using pymatgen
data_YSiPd2
_symmetry_space_group_name_H-M   'P 1'
_cell_length_a   5.51644822
_cell_length_b   6.93853665
_cell_length_c   7.32967336
_cell_angle_alpha   90.00000000
_cell_angle_beta   90.00000000
_cell_angle_gamma   90.00000000
_symmetry_Int_Tables_number   1
_chemical_formula_structural   YSiPd2
_chemical_formula_sum   'Y4 Si4 Pd8'
_cell_volume   280.55115036
_cell_formula_units_Z   4
loop_
 _symmetry_equiv_pos_site_id
 _symmetry_equiv_pos_as_xyz
  1  'x, y, z'
loop_
 _atom_site_type_symbol
 _atom_site_label
 _atom_site_symmetry_multiplicity
 _atom_site_fract_x
 _atom_site_fract_y
 _atom_site_fract_z
 _atom_site_occupancy
  Y  Y0  1  0.14227652  0.25000000  0.02930465  1
  Y  Y1  1  0.35772348  0.25000000  0.52930465  1
  Y  Y2  1  0.64227652  0.75000000  0.47069535  1
  Y  Y3  1  0.85772348  0.75000000  0.97069535  1
  Si  Si0  1  0.35741041  0.75000000  0.12331187  1
  Si  Si1  1  0.64258959  0.25000000  0.87668813  1
  Si  Si2  1  0.85741041  0.25000000  0.37668813  1
  Si  Si3  1  0.14258959  0.75000000  0.62331187  1
  Pd  Pd0  1  0.09399431  0.55223874  0.32341543  1
  Pd  Pd1  1  0.09399431  0.94776126  0.32341543  1
  Pd  Pd2  1  0.40600569  0.55223874  0.82341543  1
  Pd  Pd3  1  0.90600569  0.44776126  0.67658457  1
  Pd  Pd4  1  0.59399431  0.44776126  0.17658457  1
  Pd  Pd5  1  0.90600569  0.05223874  0.67658457  1
  Pd  Pd6  1  0.40600569  0.94776126  0.82341543  1
  Pd  Pd7  1  0.59399431  0.05223874  0.17658457  1
loop_
_geom_bond_atom_site_label_1
_geom_bond_atom_site_label_2
_geom_bond_distance
_geom_bond_site_symmetry_2
Si0 Y3 2.974829 1_454
Si0 Y3 2.978030 1_554
Si0 Y2 2.992094 1_555
Si1 Y0 2.974829 1_656
Si1 Y0 2.978030 1_556
Si1 Y1 2.992094 1_555
Si2 Y1 2.974829 1_555
Si2 Y1 2.978030 1_655
Si2 Y0 2.992094 1_655
Si3 Y2 2.974829 1_555
Si3 Y2 2.978030 1_455
Si3 Y3 2.992094 1_455
Pd0 Si0 2.479035 1_555
Pd0 Si2 2.500713 1_455
Pd0 Si3 2.605102 1_555
Pd0 Pd1 2.744348 1_555
Pd0 Pd3 2.881296 1_455
Pd0 Y1 2.965093 1_555
Pd0 Y0 3.019262 1_555
Pd0 Y2 3.042641 1_455
Pd0 Pd4 3.048207 1_455
Pd0 Pd4 3.048207 1_555
Pd0 Y3 3.203989 1_454
Pd0 Y2 3.492311 1_555
Pd1 Si0 2.479035 1_555
Pd1 Si2 2.500713 1_465
Pd1 Si3 2.605102 1_555
Pd1 Pd5 2.881296 1_465
Pd1 Y1 2.965093 1_565
Pd1 Y0 3.019262 1_565
Pd1 Y2 3.042641 1_455
Pd1 Pd7 3.048207 1_565
Pd1 Pd7 3.048207 1_465
Pd1 Y3 3.203989 1_454
Pd1 Y2 3.492311 1_555
Pd2 Si3 2.479035 1_555
Pd2 Si1 2.500713 1_555
Pd2 Si0 2.605102 1_556
Pd2 Pd6 2.744348 1_555
Pd2 Pd4 2.881296 1_556
Pd2 Y0 2.965093 1_556
Pd2 Y1 3.019262 1_555
Pd2 Y3 3.042641 1_555
Pd2 Pd3 3.048207 1_555
Pd2 Pd3 3.048207 1_455
Pd2 Y2 3.203989 1_555
Pd2 Y3 3.492311 1_455
Pd3 Si1 2.479035 1_555
Pd3 Si3 2.500713 1_655
Pd3 Si2 2.605102 1_555
Pd3 Pd5 2.744348 1_555
Pd3 Y2 2.965093 1_555
Pd3 Y3 3.019262 1_555
Pd3 Y1 3.042641 1_655
Pd3 Y0 3.203989 1_656
Pd3 Y1 3.492311 1_555
Pd4 Si2 2.479035 1_555
Pd4 Si0 2.500713 1_555
Pd4 Si1 2.605102 1_554
Pd4 Pd7 2.744348 1_555
Pd4 Y3 2.965093 1_554
Pd4 Y2 3.019262 1_555
Pd4 Y0 3.042641 1_555
Pd4 Y1 3.203989 1_555
Pd4 Y0 3.492311 1_655
Pd5 Si1 2.479035 1_555
Pd5 Si3 2.500713 1_645
Pd5 Si2 2.605102 1_555
Pd5 Y2 2.965093 1_545
Pd5 Y3 3.019262 1_545
Pd5 Y1 3.042641 1_655
Pd5 Pd6 3.048207 1_545
Pd5 Pd6 3.048207 1_645
Pd5 Y0 3.203989 1_656
Pd5 Y1 3.492311 1_555
Pd6 Si3 2.479035 1_555
Pd6 Si1 2.500713 1_565
Pd6 Si0 2.605102 1_556
Pd6 Pd7 2.881296 1_566
Pd6 Y0 2.965093 1_566
Pd6 Y1 3.019262 1_565
Pd6 Y3 3.042641 1_555
Pd6 Y2 3.203989 1_555
Pd6 Y3 3.492311 1_455
Pd7 Si2 2.479035 1_555
Pd7 Si0 2.500713 1_545
Pd7 Si1 2.605102 1_554
Pd7 Y3 2.965093 1_544
Pd7 Y2 3.019262 1_545
Pd7 Y0 3.042641 1_555
Pd7 Y1 3.203989 1_555
Pd7 Y0 3.492311 1_655
