# generated using pymatgen
data_Ba3Cr2O8
_symmetry_space_group_name_H-M   'P 1'
_cell_length_a   5.76624791
_cell_length_b   7.90367868
_cell_length_c   9.78442541
_cell_angle_alpha   67.76853696
_cell_angle_beta   89.99992707
_cell_angle_gamma   90.00332486
_symmetry_Int_Tables_number   1
_chemical_formula_structural   Ba3Cr2O8
_chemical_formula_sum   'Ba6 Cr4 O16'
_cell_volume   412.77254005
_cell_formula_units_Z   2
loop_
 _symmetry_equiv_pos_site_id
 _symmetry_equiv_pos_as_xyz
  1  'x, y, z'
loop_
 _atom_site_type_symbol
 _atom_site_label
 _atom_site_symmetry_multiplicity
 _atom_site_fract_x
 _atom_site_fract_y
 _atom_site_fract_z
 _atom_site_occupancy
  Ba  Ba0  1  0.98546996  0.99695775  0.00366339  1
  Ba  Ba1  1  0.48505594  0.50334796  0.49603633  1
  Ba  Ba2  1  -0.00140306  0.58691718  0.79382918  1
  Ba  Ba3  1  0.49881445  0.08838797  0.29431579  1
  Ba  Ba4  1  -0.00118691  0.41161754  0.20563903  1
  Ba  Ba5  1  0.49860333  0.91307469  0.70618070  1
  Cr  Cr0  1  0.50013428  0.68476838  0.09304103  1
  Cr  Cr1  1  0.00000621  0.81524129  0.40696062  1
  Cr  Cr2  1  0.99854923  0.18678157  0.59207770  1
  Cr  Cr3  1  0.49854961  0.31323590  0.90790712  1
  O  O0  1  0.01046376  0.35382789  0.65976654  1
  O  O1  1  0.52748566  0.83358090  0.17848124  1
  O  O2  1  0.02774395  0.66601915  0.32191773  1
  O  O3  1  0.50989797  0.14588323  0.84059825  1
  O  O4  1  0.23737208  0.78927000  0.51827058  1
  O  O5  1  0.74090301  0.29224553  0.01377639  1
  O  O6  1  0.75837078  0.78833569  0.51348281  1
  O  O7  1  0.25313587  0.28805654  0.01188211  1
  O  O8  1  0.99385706  0.03155746  0.27411067  1
  O  O9  1  0.49722771  0.52779176  0.77453822  1
  O  O10  1  0.24087792  0.20778642  0.48608147  1
  O  O11  1  0.73757875  0.71085872  0.98182237  1
  O  O12  1  0.75299201  0.21219115  0.48808913  1
  O  O13  1  0.25860063  0.71179380  0.98639628  1
  O  O14  1  -0.00301401  0.97208366  0.72539338  1
  O  O15  1  0.49391781  0.46838786  0.22574195  1
loop_
_geom_bond_atom_site_label_1
_geom_bond_atom_site_label_2
_geom_bond_distance
_geom_bond_site_symmetry_2
Ba0 O11 2.750877 1_554
Ba0 O5 2.760540 1_565
Ba0 O8 2.761687 1_565
Ba0 O7 2.796727 1_665
Ba0 O14 2.803795 1_654
Ba0 O13 2.806660 1_654
Ba1 O4 2.750699 1_555
Ba1 O10 2.760566 1_555
Ba1 O15 2.761563 1_555
Ba1 O12 2.797215 1_555
Ba1 O9 2.804664 1_555
Ba1 O6 2.806599 1_555
Ba2 O0 2.635877 1_555
Ba2 O11 2.823467 1_455
Ba2 O14 2.858904 1_555
Ba2 O13 2.859886 1_555
Ba2 O4 2.908561 1_555
Ba2 O5 2.910404 1_456
Ba2 O7 2.910779 1_556
Ba2 O9 2.930502 1_555
Ba2 O6 2.945036 1_455
Ba2 O9 2.945944 1_455
Ba3 O1 2.663631 1_545
Ba3 O15 2.818958 1_555
Ba3 O10 2.821924 1_555
Ba3 O12 2.846740 1_555
Ba3 O8 2.908018 1_555
Ba3 O6 2.935108 1_545
Ba3 O5 2.955058 1_555
Ba3 O4 2.956857 1_545
Ba3 O8 2.964107 1_455
Ba3 O7 2.972249 1_555
Ba4 O2 2.663867 1_555
Ba4 O8 2.819587 1_455
Ba4 O5 2.822417 1_455
Ba4 O7 2.845960 1_555
Ba4 O15 2.908107 1_555
Ba4 O13 2.936480 1_554
Ba4 O10 2.954359 1_555
Ba4 O11 2.956302 1_454
Ba4 O15 2.963598 1_455
Ba4 O12 2.972325 1_455
Ba5 O3 2.636468 1_565
Ba5 O4 2.822786 1_555
Ba5 O6 2.859594 1_555
Ba5 O9 2.859926 1_555
Ba5 O11 2.909568 1_555
Ba5 O12 2.911443 1_565
Ba5 O10 2.911452 1_565
Ba5 O14 2.928781 1_655
Ba5 O13 2.943205 1_555
Ba5 O14 2.947138 1_555
Cr0 O1 1.688525 1_555
Cr0 O13 1.704566 1_554
Cr0 O11 1.712161 1_554
Cr0 O15 1.712205 1_555
Cr1 O2 1.688664 1_555
Cr1 O6 1.704447 1_455
Cr1 O8 1.712395 1_465
Cr1 O4 1.712460 1_555
Cr2 O0 1.687648 1_655
Cr2 O14 1.704739 1_645
Cr2 O10 1.710371 1_655
Cr2 O12 1.710522 1_555
Cr3 O3 1.687223 1_555
Cr3 O9 1.704144 1_555
Cr3 O5 1.709813 1_556
Cr3 O7 1.709940 1_556
