# generated using pymatgen
data_MgFe2(HO2)2
_symmetry_space_group_name_H-M   'P 1'
_cell_length_a   6.37874012
_cell_length_b   6.37874012
_cell_length_c   4.48419400
_cell_angle_alpha   90.00000000
_cell_angle_beta   90.00000000
_cell_angle_gamma   29.97908805
_symmetry_Int_Tables_number   1
_chemical_formula_structural   MgFe2(HO2)2
_chemical_formula_sum   'Mg1 Fe2 H2 O4'
_cell_volume   91.16949560
_cell_formula_units_Z   1
loop_
 _symmetry_equiv_pos_site_id
 _symmetry_equiv_pos_as_xyz
  1  'x, y, z'
loop_
 _atom_site_type_symbol
 _atom_site_label
 _atom_site_symmetry_multiplicity
 _atom_site_fract_x
 _atom_site_fract_y
 _atom_site_fract_z
 _atom_site_occupancy
  Mg  Mg0  1  0.45900200  0.45900200  0.75000000  1
  Fe  Fe0  1  0.28640800  0.28640800  0.25000000  1
  Fe  Fe1  1  0.69447500  0.69447500  0.75000000  1
  H  H0  1  0.00582000  0.00582000  0.42893800  1
  H  H1  1  0.00582000  0.00582000  0.07106200  1
  O  O0  1  0.69918400  0.69918400  0.25000000  1
  O  O1  1  0.30479900  0.30479900  0.75000000  1
  O  O2  1  0.95236500  0.95236500  0.25000000  1
  O  O3  1  0.05046100  0.05046100  0.75000000  1
loop_
_geom_bond_atom_site_label_1
_geom_bond_atom_site_label_2
_geom_bond_distance
_geom_bond_site_symmetry_2
Mg0 O1 1.900302 1_555
Mg0 O3 1.998051 1_565
Mg0 O3 1.998051 1_655
Fe0 O0 1.969083 1_545
Fe0 O0 1.969083 1_455
Fe0 O1 2.253523 1_554
Fe0 O1 2.253523 1_555
Fe0 O2 2.627648 1_455
Fe0 O2 2.627648 1_545
Fe1 O1 2.137827 1_565
Fe1 O1 2.137827 1_655
Fe1 O0 2.242848 1_555
Fe1 O0 2.242848 1_556
Fe1 O3 2.423136 1_565
Fe1 O3 2.423136 1_655
H0 O2 1.038162 1_445
H0 O3 1.541230 1_555
H1 O2 1.038162 1_445
H1 O3 1.541230 1_554
