# generated using pymatgen
data_Zn(InSe2)2
_symmetry_space_group_name_H-M   'P 1'
_cell_length_a   5.74329487
_cell_length_b   5.74329452
_cell_length_c   7.09250194
_cell_angle_alpha   113.88391519
_cell_angle_beta   113.88391413
_cell_angle_gamma   90.00000101
_symmetry_Int_Tables_number   1
_chemical_formula_structural   Zn(InSe2)2
_chemical_formula_sum   'Zn1 In2 Se4'
_cell_volume   191.80078595
_cell_formula_units_Z   1
loop_
 _symmetry_equiv_pos_site_id
 _symmetry_equiv_pos_as_xyz
  1  'x, y, z'
loop_
 _atom_site_type_symbol
 _atom_site_label
 _atom_site_symmetry_multiplicity
 _atom_site_fract_x
 _atom_site_fract_y
 _atom_site_fract_z
 _atom_site_occupancy
  Zn  Zn0  1  0.00000000  -0.00000000  -0.00000000  1
  In  In0  1  0.50000000  0.50000000  -0.00000000  1
  In  In1  1  0.25000000  0.75000000  0.50000000  1
  Se  Se0  1  0.39101634  0.34853592  0.26038497  1
  Se  Se1  1  0.86936863  0.91184804  0.26038497  1
  Se  Se2  1  0.08815196  0.60898366  0.73961503  1
  Se  Se3  1  0.65146408  0.13063137  0.73961503  1
loop_
_geom_bond_atom_site_label_1
_geom_bond_atom_site_label_2
_geom_bond_distance
_geom_bond_site_symmetry_2
In0 Se2 2.606925 1_554
In0 Se1 2.606925 1_555
In0 Se0 2.606928 1_555
In0 Se3 2.606928 1_554
In1 Se2 2.608057 1_555
In1 Se1 2.608057 1_455
In1 Se0 2.608061 1_555
In1 Se3 2.608061 1_565
Se0 Zn0 2.471619 1_555
Se1 Zn0 2.471622 1_665
Se2 Zn0 2.471622 1_566
Se3 Zn0 2.471619 1_656
