# generated using pymatgen
data_Ce
_symmetry_space_group_name_H-M   'P 1'
_cell_length_a   6.60781108
_cell_length_b   6.60781314
_cell_length_c   6.60781338
_cell_angle_alpha   60.00000953
_cell_angle_beta   59.99999917
_cell_angle_gamma   60.00000369
_symmetry_Int_Tables_number   1
_chemical_formula_structural   Ce
_chemical_formula_sum   Ce8
_cell_volume   204.01316003
_cell_formula_units_Z   8
loop_
 _symmetry_equiv_pos_site_id
 _symmetry_equiv_pos_as_xyz
  1  'x, y, z'
loop_
 _atom_site_type_symbol
 _atom_site_label
 _atom_site_symmetry_multiplicity
 _atom_site_fract_x
 _atom_site_fract_y
 _atom_site_fract_z
 _atom_site_occupancy
  Ce  Ce0_0  1  0.00000000  0.00000000  0.00000000  1
  Ce  Ce0_1  1  0.00000000  0.00000000  0.50000000  1
  Ce  Ce0_2  1  0.00000000  0.50000000  0.00000000  1
  Ce  Ce0_3  1  0.00000000  0.50000000  0.50000000  1
  Ce  Ce0_4  1  0.50000000  0.00000000  0.00000000  1
  Ce  Ce0_5  1  0.50000000  0.00000000  0.50000000  1
  Ce  Ce0_6  1  0.50000000  0.50000000  0.00000000  1
  Ce  Ce0_7  1  0.50000000  0.50000000  0.50000000  1
loop_
_geom_bond_atom_site_label_1
_geom_bond_atom_site_label_2
_geom_bond_distance
_geom_bond_site_symmetry_2
Ce0_0 Ce0_4 3.303906 1_455
Ce0_0 Ce0_4 3.303906 1_555
Ce0_0 Ce0_5 3.303906 1_455
Ce0_0 Ce0_5 3.303906 1_554
Ce0_0 Ce0_6 3.303906 1_455
Ce0_0 Ce0_6 3.303906 1_545
Ce0_0 Ce0_2 3.303907 1_545
Ce0_0 Ce0_2 3.303907 1_555
Ce0_0 Ce0_1 3.303907 1_555
Ce0_0 Ce0_1 3.303907 1_554
Ce0_0 Ce0_3 3.303907 1_545
Ce0_0 Ce0_3 3.303907 1_554
Ce0_1 Ce0_5 3.303906 1_455
Ce0_1 Ce0_5 3.303906 1_555
Ce0_1 Ce0_4 3.303906 1_555
Ce0_1 Ce0_4 3.303906 1_456
Ce0_1 Ce0_7 3.303906 1_455
Ce0_1 Ce0_7 3.303906 1_545
Ce0_1 Ce0_3 3.303907 1_545
Ce0_1 Ce0_3 3.303907 1_555
Ce0_1 Ce0_2 3.303907 1_555
Ce0_1 Ce0_2 3.303907 1_546
Ce0_2 Ce0_6 3.303906 1_455
Ce0_2 Ce0_6 3.303906 1_555
Ce0_2 Ce0_7 3.303906 1_455
Ce0_2 Ce0_7 3.303906 1_554
Ce0_2 Ce0_4 3.303906 1_555
Ce0_2 Ce0_4 3.303906 1_465
Ce0_2 Ce0_3 3.303907 1_555
Ce0_2 Ce0_3 3.303907 1_554
Ce0_3 Ce0_7 3.303906 1_455
Ce0_3 Ce0_7 3.303906 1_555
Ce0_3 Ce0_6 3.303906 1_456
Ce0_3 Ce0_6 3.303906 1_555
Ce0_3 Ce0_5 3.303906 1_555
Ce0_3 Ce0_5 3.303906 1_465
Ce0_4 Ce0_6 3.303907 1_545
Ce0_4 Ce0_6 3.303907 1_555
Ce0_4 Ce0_5 3.303907 1_555
Ce0_4 Ce0_5 3.303907 1_554
Ce0_4 Ce0_7 3.303907 1_545
Ce0_4 Ce0_7 3.303907 1_554
Ce0_5 Ce0_7 3.303907 1_555
Ce0_5 Ce0_7 3.303907 1_545
Ce0_5 Ce0_6 3.303907 1_546
Ce0_5 Ce0_6 3.303907 1_555
Ce0_6 Ce0_7 3.303907 1_555
Ce0_6 Ce0_7 3.303907 1_554
