# generated using pymatgen
data_Na3LaNbSi2PO12
_symmetry_space_group_name_H-M   'P 1'
_cell_length_a   9.45859705
_cell_length_b   9.45859670
_cell_length_c   22.55401777
_cell_angle_alpha   91.12375957
_cell_angle_beta   88.87624038
_cell_angle_gamma   120.01883325
_symmetry_Int_Tables_number   1
_chemical_formula_structural   Na3LaNbSi2PO12
_chemical_formula_sum   'Na18 La6 Nb6 Si12 P6 O72'
_cell_volume   1746.68327707
_cell_formula_units_Z   6
loop_
 _symmetry_equiv_pos_site_id
 _symmetry_equiv_pos_as_xyz
  1  'x, y, z'
loop_
 _atom_site_type_symbol
 _atom_site_label
 _atom_site_symmetry_multiplicity
 _atom_site_fract_x
 _atom_site_fract_y
 _atom_site_fract_z
 _atom_site_occupancy
  Na  Na0  1  0.98779290  0.98683645  0.50005483  1
  Na  Na1  1  0.01316355  0.01220710  0.00005483  1
  Na  Na2  1  0.65445990  0.32016945  0.83338783  1
  Na  Na3  1  0.67983055  0.34554010  0.33338783  1
  Na  Na4  1  0.32112590  0.65350345  0.16672183  1
  Na  Na5  1  0.34649655  0.67887410  0.66672183  1
  Na  Na6  1  0.66724761  0.01442926  0.24839489  1
  Na  Na7  1  0.97756615  0.63008323  0.24366815  1
  Na  Na8  1  0.98557074  0.33275239  0.74839489  1
  Na  Na9  1  0.36991677  0.02243385  0.74366815  1
  Na  Na10  1  0.33391461  0.34776226  0.58172789  1
  Na  Na11  1  0.64423315  0.96341623  0.57700115  1
  Na  Na12  1  0.65223774  0.66608539  0.08172789  1
  Na  Na13  1  0.03658377  0.35576685  0.07700115  1
  Na  Na14  1  0.00058061  0.68109626  0.91506189  1
  Na  Na15  1  0.31089915  0.29675023  0.91033515  1
  Na  Na16  1  0.31890374  0.99941939  0.41506189  1
  Na  Na17  1  0.70324977  0.68910085  0.41033515  1
  La  La0  1  0.00348028  0.01735753  0.34821619  1
  La  La1  1  0.98264247  0.99651972  0.84821619  1
  La  La2  1  0.67014728  0.35069053  0.68154919  1
  La  La3  1  0.64930947  0.32985272  0.18154919  1
  La  La4  1  0.33681328  0.68402453  0.01488319  1
  La  La5  1  0.31597547  0.66318672  0.51488319  1
  Nb  Nb0  1  0.99577648  0.98778220  0.64927162  1
  Nb  Nb1  1  0.01221780  0.00422352  0.14927162  1
  Nb  Nb2  1  0.66244348  0.32111520  0.98260462  1
  Nb  Nb3  1  0.67888480  0.33755652  0.48260462  1
  Nb  Nb4  1  0.32910948  0.65444920  0.31593862  1
  Nb  Nb5  1  0.34555080  0.67089052  0.81593862  1
  Si  Si0  1  0.69058582  0.71108894  0.25266949  1
  Si  Si1  1  0.01197013  0.30974695  0.24766733  1
  Si  Si2  1  0.28891106  0.30941418  0.75266949  1
  Si  Si3  1  0.69025305  0.98802987  0.74766733  1
  Si  Si4  1  0.35725282  0.04442194  0.58600249  1
  Si  Si5  1  0.67863713  0.64307995  0.58100033  1
  Si  Si6  1  0.95557806  0.64274718  0.08600249  1
  Si  Si7  1  0.35692005  0.32136287  0.08100033  1
  Si  Si8  1  0.02391882  0.37775594  0.91933649  1
  Si  Si9  1  0.34530313  0.97641395  0.91433433  1
  Si  Si10  1  0.62224406  0.97608118  0.41933649  1
  Si  Si11  1  0.02358605  0.65469687  0.41433433  1
  P  P0  1  0.28695792  0.96596346  0.25179113  1
  P  P1  1  0.03403654  0.71304208  0.75179113  1
  P  P2  1  0.95362492  0.29929646  0.58512413  1
  P  P3  1  0.70070354  0.04637508  0.08512413  1
  P  P4  1  0.62029092  0.63263046  0.91845813  1
  P  P5  1  0.36736954  0.37970908  0.41845813  1
  O  O0  1  0.22904885  0.98716946  0.31279949  1
  O  O1  1  0.77911039  0.78973071  0.31396908  1
  O  O2  1  0.95338246  0.19216751  0.30343477  1
  O  O3  1  0.21026929  0.22088961  0.81396908  1
  O  O4  1  0.01283054  0.77095115  0.81279949  1
  O  O5  1  0.80783249  0.04661754  0.80343477  1
  O  O6  1  0.80060354  0.96676760  0.69015183  1
  O  O7  1  0.15259207  0.18734162  0.69743447  1
  O  O8  1  0.02859404  0.83267130  0.70241169  1
  O  O9  1  0.81265838  0.84740793  0.19743447  1
  O  O10  1  0.03323240  0.19939646  0.19015183  1
  O  O11  1  0.16732870  0.97140596  0.20241169  1
  O  O12  1  0.89571585  0.32050246  0.64613249  1
  O  O13  1  0.44577739  0.12306371  0.64730208  1
  O  O14  1  0.62004946  0.52550051  0.63676777  1
  O  O15  1  0.87693629  0.55422261  0.14730208  1
  O  O16  1  0.67949754  0.10428415  0.14613249  1
  O  O17  1  0.47449949  0.37995054  0.13676777  1
  O  O18  1  0.46727054  0.30010060  0.02348483  1
  O  O19  1  0.81925907  0.52067462  0.03076747  1
  O  O20  1  0.69526104  0.16600430  0.03574469  1
  O  O21  1  0.47932538  0.18074093  0.53076747  1
  O  O22  1  0.69989940  0.53272946  0.52348483  1
  O  O23  1  0.83399570  0.30473896  0.53574469  1
  O  O24  1  0.56238185  0.65383646  0.97946649  1
  O  O25  1  0.11244339  0.45639771  0.98063608  1
  O  O26  1  0.28671546  0.85883451  0.97010177  1
  O  O27  1  0.54360229  0.88755661  0.48063608  1
  O  O28  1  0.34616354  0.43761815  0.47946649  1
  O  O29  1  0.14116549  0.71328454  0.47010177  1
  O  O30  1  0.13393654  0.63343460  0.35681883  1
  O  O31  1  0.48592507  0.85400862  0.36410147  1
  O  O32  1  0.36192704  0.49933830  0.36907869  1
  O  O33  1  0.14599138  0.51407493  0.86410147  1
  O  O34  1  0.36656540  0.86606346  0.85681883  1
  O  O35  1  0.50066170  0.63807296  0.86907869  1
  O  O36  1  0.97741104  0.79564589  0.40663142  1
  O  O37  1  0.80172939  0.99700627  0.41490642  1
  O  O38  1  0.23728440  0.20079851  0.40886360  1
  O  O39  1  0.00299373  0.19827061  0.91490642  1
  O  O40  1  0.20435411  0.02258896  0.90663142  1
  O  O41  1  0.79920149  0.76271560  0.90886360  1
  O  O42  1  0.93590958  0.12566774  0.58022165  1
  O  O43  1  0.18009347  0.04686453  0.58720539  1
  O  O44  1  0.85991820  0.81193556  0.59023655  1
  O  O45  1  0.95313547  0.81990653  0.08720539  1
  O  O46  1  0.87433226  0.06409042  0.08022165  1
  O  O47  1  0.18806444  0.14008180  0.09023655  1
  O  O48  1  0.64407804  0.12897889  0.73996442  1
  O  O49  1  0.46839639  0.33033927  0.74823942  1
  O  O50  1  0.90395140  0.53413151  0.74219660  1
  O  O51  1  0.66966073  0.53160361  0.24823942  1
  O  O52  1  0.87102111  0.35592196  0.23996442  1
  O  O53  1  0.46586849  0.09604860  0.24219660  1
  O  O54  1  0.60257658  0.45900074  0.91355465  1
  O  O55  1  0.84676047  0.38019753  0.92053839  1
  O  O56  1  0.52658520  0.14526856  0.92356955  1
  O  O57  1  0.61980247  0.15323953  0.42053839  1
  O  O58  1  0.54099926  0.39742342  0.41355465  1
  O  O59  1  0.85473144  0.47341480  0.42356955  1
  O  O60  1  0.31074404  0.46231289  0.07329842  1
  O  O61  1  0.13506239  0.66367327  0.08157342  1
  O  O62  1  0.57061740  0.86746551  0.07553060  1
  O  O63  1  0.33632673  0.86493761  0.58157342  1
  O  O64  1  0.53768711  0.68925596  0.57329842  1
  O  O65  1  0.13253449  0.42938260  0.57553060  1
  O  O66  1  0.26924258  0.79233474  0.24688865  1
  O  O67  1  0.51342647  0.71353153  0.25387239  1
  O  O68  1  0.19325120  0.47860256  0.25690355  1
  O  O69  1  0.28646847  0.48657353  0.75387239  1
  O  O70  1  0.20766526  0.73075742  0.74688865  1
  O  O71  1  0.52139744  0.80674880  0.75690355  1
loop_
_geom_bond_atom_site_label_1
_geom_bond_atom_site_label_2
_geom_bond_distance
_geom_bond_site_symmetry_2
Na0 O42 2.398168 1_565
Na0 O44 2.523908 1_555
Na0 O43 2.560752 1_665
Na0 O37 2.665293 1_555
Na0 O36 2.720416 1_555
Na0 O38 3.014803 1_665
Na1 O46 2.398168 1_455
Na1 O47 2.523908 1_555
Na1 O45 2.560752 1_445
Na1 O39 2.665293 1_554
Na1 O40 2.720416 1_554
Na1 O41 3.014803 1_444
Na2 O54 2.398168 1_555
Na2 O56 2.523908 1_555
Na2 O55 2.560752 1_555
Na2 O49 2.665293 1_555
Na2 O48 2.720416 1_555
Na2 O50 3.014803 1_555
Na3 O58 2.398168 1_555
Na3 O59 2.523908 1_555
Na3 O57 2.560752 1_555
Na3 O51 2.665293 1_555
Na3 O52 2.720416 1_555
Na3 O53 3.014803 1_555
Na4 O66 2.398168 1_555
Na4 O68 2.523908 1_555
Na4 O67 2.560752 1_555
Na4 O61 2.665293 1_555
Na4 O60 2.720416 1_555
Na4 O62 3.014803 1_555
Na5 O70 2.398168 1_555
Na5 O71 2.523908 1_555
Na5 O69 2.560752 1_555
Na5 O63 2.665293 1_555
Na5 O64 2.720416 1_555
Na5 O65 3.014803 1_555
Na6 O53 2.393671 1_555
Na6 O16 2.454229 1_555
Na6 O67 2.468957 1_545
Na6 O2 2.681318 1_555
Na6 O9 2.783749 1_545
Na6 O52 2.822196 1_555
Na7 O52 2.264322 1_555
Na7 O15 2.341214 1_555
Na7 O66 2.395599 1_655
Na7 O51 2.576380 1_555
Na8 O50 2.393671 1_555
Na8 O12 2.454229 1_555
Na8 O69 2.468957 1_655
Na8 O5 2.681318 1_555
Na8 O7 2.783749 1_655
Na8 O48 2.822196 1_555
Na9 O48 2.264322 1_555
Na9 O13 2.341214 1_555
Na9 O70 2.395599 1_545
Na9 O49 2.576380 1_555
Na10 O65 2.393685 1_555
Na10 O28 2.454213 1_555
Na10 O43 2.468957 1_555
Na10 O14 2.681318 1_555
Na10 O21 2.783749 1_555
Na10 O64 2.822201 1_555
Na11 O64 2.264312 1_555
Na11 O27 2.341195 1_555
Na11 O42 2.395599 1_565
Na11 O63 2.576391 1_555
Na12 O62 2.393685 1_555
Na12 O24 2.454213 1_554
Na12 O45 2.468957 1_555
Na12 O17 2.681318 1_555
Na12 O19 2.783749 1_555
Na12 O60 2.822201 1_555
Na13 O60 2.264312 1_555
Na13 O25 2.341195 1_554
Na13 O46 2.395599 1_455
Na13 O61 2.576391 1_555
Na14 O41 2.393671 1_455
Na14 O4 2.454229 1_555
Na14 O55 2.468964 1_455
Na14 O26 2.681318 1_555
Na14 O33 2.783749 1_555
Na14 O40 2.822196 1_565
Na15 O40 2.264322 1_555
Na15 O3 2.341214 1_555
Na15 O54 2.395605 1_555
Na15 O39 2.576380 1_555
Na16 O38 2.393671 1_565
Na16 O0 2.454229 1_555
Na16 O57 2.468964 1_565
Na16 O29 2.681318 1_555
Na16 O31 2.783749 1_555
Na16 O36 2.822196 1_455
Na17 O36 2.264322 1_555
Na17 O1 2.341214 1_555
Na17 O58 2.395605 1_555
Na17 O37 2.576380 1_555
La0 O2 2.201541 1_455
La0 O1 2.272277 1_445
La0 O37 2.339280 1_445
La0 O36 2.402622 1_445
La0 O0 2.409449 1_545
La0 O38 2.440979 1_555
La1 O5 2.201541 1_565
La1 O3 2.272277 1_665
La1 O39 2.339280 1_665
La1 O40 2.402622 1_665
La1 O4 2.409449 1_655
La1 O41 2.440979 1_555
La2 O14 2.201541 1_555
La2 O13 2.272277 1_555
La2 O49 2.339280 1_555
La2 O48 2.402622 1_555
La2 O12 2.409449 1_555
La2 O50 2.440979 1_555
La3 O17 2.201541 1_555
La3 O15 2.272277 1_555
La3 O51 2.339280 1_555
La3 O52 2.402622 1_555
La3 O16 2.409449 1_555
La3 O53 2.440979 1_555
La4 O26 2.201541 1_554
La4 O25 2.272277 1_554
La4 O61 2.339280 1_555
La4 O60 2.402622 1_555
La4 O24 2.409449 1_554
La4 O62 2.440979 1_555
La5 O29 2.201541 1_555
La5 O27 2.272277 1_555
La5 O63 2.339280 1_555
La5 O64 2.402622 1_555
La5 O28 2.409449 1_555
La5 O65 2.440979 1_555
Nb0 O6 1.967445 1_555
Nb0 O44 2.008050 1_555
Nb0 O7 2.030845 1_665
Nb0 O8 2.055363 1_655
Nb0 O43 2.066730 1_665
Nb0 O42 2.302203 1_565
Nb1 O10 1.967445 1_555
Nb1 O47 2.008050 1_555
Nb1 O9 2.030845 1_445
Nb1 O11 2.055363 1_545
Nb1 O45 2.066730 1_445
Nb1 O46 2.302203 1_455
Nb2 O18 1.967445 1_556
Nb2 O56 2.008050 1_555
Nb2 O19 2.030845 1_556
Nb2 O20 2.055363 1_556
Nb2 O55 2.066730 1_555
Nb2 O54 2.302203 1_555
Nb3 O22 1.967445 1_555
Nb3 O59 2.008050 1_555
Nb3 O21 2.030845 1_555
Nb3 O23 2.055363 1_555
Nb3 O57 2.066730 1_555
Nb3 O58 2.302203 1_555
Nb4 O30 1.967445 1_555
Nb4 O68 2.008050 1_555
Nb4 O31 2.030845 1_555
Nb4 O32 2.055363 1_555
Nb4 O67 2.066730 1_555
Nb4 O66 2.302203 1_555
Nb5 O34 1.967445 1_555
Nb5 O71 2.008050 1_555
Nb5 O33 2.030845 1_555
Nb5 O35 2.055363 1_555
Nb5 O69 2.066730 1_555
Nb5 O70 2.302203 1_555
O0 P0 1.517603 1_555
O1 Si0 1.596162 1_555
O2 Si1 1.592742 1_655
O3 Si2 1.596162 1_555
O4 P1 1.517603 1_555
O5 Si3 1.592742 1_545
O6 Si3 1.720266 1_555
O7 Si2 1.750604 1_555
O8 P1 1.622744 1_555
O9 Si0 1.750604 1_555
O10 Si1 1.720266 1_555
O11 P0 1.622744 1_555
O12 P2 1.517603 1_555
O13 Si4 1.596162 1_555
O14 Si5 1.592742 1_555
O15 Si6 1.596162 1_555
O16 P3 1.517603 1_555
O17 Si7 1.592742 1_555
O18 Si7 1.720266 1_555
O19 Si6 1.750604 1_555
O20 P3 1.622744 1_555
O21 Si4 1.750604 1_555
O22 Si5 1.720266 1_555
O23 P2 1.622744 1_555
O24 P4 1.517603 1_555
O25 Si8 1.596162 1_555
O26 Si9 1.592742 1_555
O27 Si10 1.596162 1_555
O28 P5 1.517603 1_555
O29 Si11 1.592742 1_555
O30 Si11 1.720266 1_555
O31 Si10 1.750604 1_555
O32 P5 1.622744 1_555
O33 Si8 1.750604 1_555
O34 Si9 1.720266 1_555
O35 P4 1.622744 1_555
O36 Si11 1.610268 1_655
O37 Si10 1.609097 1_555
O38 P5 1.528782 1_555
O39 Si8 1.609097 1_555
O40 Si9 1.610268 1_545
O41 P4 1.528782 1_555
O42 P2 1.567055 1_555
O43 Si4 1.687038 1_555
O44 Si5 1.671874 1_555
O45 Si6 1.687038 1_555
O46 P3 1.567055 1_555
O47 Si7 1.671874 1_555
O48 Si3 1.610268 1_545
O49 Si2 1.609097 1_555
O50 P1 1.528782 1_655
O51 Si0 1.609097 1_555
O52 Si1 1.610268 1_655
O53 P0 1.528782 1_545
O54 P4 1.567070 1_555
O55 Si8 1.687024 1_655
O56 Si9 1.671872 1_545
O57 Si10 1.687024 1_545
O58 P5 1.567070 1_555
O59 Si11 1.671872 1_655
O60 Si7 1.610281 1_555
O61 Si6 1.609083 1_455
O62 P3 1.528775 1_565
O63 Si4 1.609083 1_565
O64 Si5 1.610281 1_555
O65 P2 1.528775 1_455
O66 P0 1.567055 1_555
O67 Si0 1.687038 1_555
O68 Si1 1.671874 1_555
O69 Si2 1.687038 1_555
O70 P1 1.567055 1_555
O71 Si3 1.671874 1_555
