# generated using pymatgen
data_Hf3Te2
_symmetry_space_group_name_H-M   'P 1'
_cell_length_a   3.68365216
_cell_length_b   3.68365197
_cell_length_c   9.71149645
_cell_angle_alpha   100.89541274
_cell_angle_beta   100.89538045
_cell_angle_gamma   89.94782242
_symmetry_Int_Tables_number   1
_chemical_formula_structural   Hf3Te2
_chemical_formula_sum   'Hf3 Te2'
_cell_volume   126.98720841
_cell_formula_units_Z   1
loop_
 _symmetry_equiv_pos_site_id
 _symmetry_equiv_pos_as_xyz
  1  'x, y, z'
loop_
 _atom_site_type_symbol
 _atom_site_label
 _atom_site_symmetry_multiplicity
 _atom_site_fract_x
 _atom_site_fract_y
 _atom_site_fract_z
 _atom_site_occupancy
  Hf  Hf0  1  0.40762354  0.40762329  0.81518912  1
  Hf  Hf1  1  0.59237656  0.59237680  0.18481107  1
  Hf  Hf2  1  -0.00000002  -0.00000003  -0.00000004  1
  Te  Te0  1  0.83779172  0.83779102  0.67503347  1
  Te  Te1  1  0.16220821  0.16220892  0.32496639  1
loop_
_geom_bond_atom_site_label_1
_geom_bond_atom_site_label_2
_geom_bond_distance
_geom_bond_site_symmetry_2
Hf0 Te0 2.915280 1_455
Hf0 Te0 2.915281 1_545
Hf0 Te0 2.917150 1_555
Hf0 Te0 2.917647 1_445
Hf1 Te1 2.915278 1_655
Hf1 Te1 2.915279 1_565
Hf1 Te1 2.917149 1_555
Hf1 Te1 2.917646 1_665
Hf2 Te1 3.041176 1_555
Hf2 Te0 3.041177 1_444
