# generated using pymatgen
data_Ba3MgNb2CoO9
_symmetry_space_group_name_H-M   'P 1'
_cell_length_a   5.74999280
_cell_length_b   6.15066352
_cell_length_c   7.94112376
_cell_angle_alpha   104.77961582
_cell_angle_beta   90.02774015
_cell_angle_gamma   117.85181446
_symmetry_Int_Tables_number   1
_chemical_formula_structural   Ba3MgNb2CoO9
_chemical_formula_sum   'Ba3 Mg1 Nb2 Co1 O9'
_cell_volume   237.73480050
_cell_formula_units_Z   1
loop_
 _symmetry_equiv_pos_site_id
 _symmetry_equiv_pos_as_xyz
  1  'x, y, z'
loop_
 _atom_site_type_symbol
 _atom_site_label
 _atom_site_symmetry_multiplicity
 _atom_site_fract_x
 _atom_site_fract_y
 _atom_site_fract_z
 _atom_site_occupancy
  Ba  Ba0  1  0.72485333  0.44934947  0.30721307  1
  Ba  Ba1  1  -0.00000000  0.00000100  -0.00000000  1
  Ba  Ba2  1  0.27514567  0.55065153  0.69278693  1
  Mg  Mg0  1  0.50000000  -0.00000000  0.50000000  1
  Nb  Nb0  1  0.36968654  0.73947013  0.15524154  1
  Nb  Nb1  1  0.63031346  0.26052987  0.84475846  1
  Co  Co0  1  -0.00000000  -0.00000000  0.50000000  1
  O  O0  1  0.50000000  0.50000000  -0.00000000  1
  O  O1  1  0.28768029  0.57530368  0.34855794  1
  O  O2  1  0.71232071  0.42469532  0.65144206  1
  O  O3  1  -0.00000000  0.49999900  -0.00000000  1
  O  O4  1  0.24519496  0.98007572  0.30580421  1
  O  O5  1  0.26467310  0.02008945  0.69370721  1
  O  O6  1  0.75480604  0.01992428  0.69419679  1
  O  O7  1  0.73532690  0.97991055  0.30629279  1
  O  O8  1  0.50000000  -0.00000000  -0.00000000  1
loop_
_geom_bond_atom_site_label_1
_geom_bond_atom_site_label_2
_geom_bond_distance
_geom_bond_site_symmetry_2
Ba0 O2 2.775254 1_555
Ba0 O8 2.912033 1_555
Ba0 O0 2.912293 1_555
Ba0 O3 2.912520 1_655
Ba0 O4 2.912585 1_545
Ba0 O7 2.914145 1_545
Ba0 Co0 2.943329 1_665
Ba0 O1 2.950913 1_655
Ba0 O1 2.952538 1_555
Ba0 O7 3.237494 1_555
Ba0 O4 3.240470 1_655
Ba1 O6 2.865293 1_454
Ba1 O4 2.865308 1_545
Ba1 O5 2.868570 1_554
Ba1 O7 2.868570 1_445
Ba1 O8 2.874994 1_455
Ba1 O8 2.874999 1_555
Ba1 O3 3.075319 1_555
Ba1 O3 3.075344 1_545
Ba1 O0 3.076025 1_555
Ba1 O0 3.076032 1_445
Ba2 O1 2.775250 1_555
Ba2 O8 2.912029 1_566
Ba2 O0 2.912299 1_556
Ba2 O3 2.912518 1_556
Ba2 O6 2.912585 1_565
Ba2 O5 2.914136 1_565
Ba2 Co0 2.943333 1_555
Ba2 O2 2.950898 1_455
Ba2 O2 2.952557 1_555
Ba2 O5 3.237502 1_555
Ba2 O6 3.240470 1_455
Mg0 O4 2.067224 1_545
Mg0 O6 2.067234 1_555
Mg0 O5 2.067295 1_555
Mg0 O7 2.067295 1_545
Mg0 O2 2.275123 1_555
Mg0 O1 2.275127 1_545
Nb0 O1 1.986271 1_555
Nb0 O4 2.054240 1_555
Nb0 O7 2.057530 1_555
Nb0 O3 2.086475 1_555
Nb0 O0 2.087189 1_555
Nb0 O8 2.129764 1_565
Nb1 O2 1.986268 1_555
Nb1 O6 2.054240 1_555
Nb1 O5 2.057530 1_555
Nb1 O3 2.086474 1_656
Nb1 O0 2.087189 1_556
Nb1 O8 2.129764 1_556
Co0 O5 2.103004 1_555
Co0 O7 2.103004 1_445
Co0 O4 2.109039 1_545
Co0 O6 2.109041 1_455
