# generated using pymatgen
data_MgMn4Zn2O8
_symmetry_space_group_name_H-M   'P 1'
_cell_length_a   6.09694534
_cell_length_b   6.09694803
_cell_length_c   6.43286441
_cell_angle_alpha   61.80686395
_cell_angle_beta   61.80691087
_cell_angle_gamma   58.86027124
_symmetry_Int_Tables_number   1
_chemical_formula_structural   MgMn4Zn2O8
_chemical_formula_sum   'Mg1 Mn4 Zn2 O8'
_cell_volume   171.94255615
_cell_formula_units_Z   1
loop_
 _symmetry_equiv_pos_site_id
 _symmetry_equiv_pos_as_xyz
  1  'x, y, z'
loop_
 _atom_site_type_symbol
 _atom_site_label
 _atom_site_symmetry_multiplicity
 _atom_site_fract_x
 _atom_site_fract_y
 _atom_site_fract_z
 _atom_site_occupancy
  Mg  Mg0  1  0.16480500  0.16480500  0.61513500  1
  Mn  Mn0  1  0.95063500  0.95063500  0.09233100  1
  Mn  Mn1  1  0.28009900  0.28009900  0.14973200  1
  Mn  Mn2  1  0.62000600  0.62000600  0.12258700  1
  Mn  Mn3  1  0.62609800  0.62609800  0.63162200  1
  Zn  Zn0  1  0.13246800  0.65723800  0.61475100  1
  Zn  Zn1  1  0.65723800  0.13246800  0.61475100  1
  O  O0  1  0.39166000  0.39166000  0.35657800  1
  O  O1  1  0.37695700  0.88687500  0.39650000  1
  O  O2  1  0.41156500  0.41156400  0.78725400  1
  O  O3  1  0.88687600  0.37695500  0.39650000  1
  O  O4  1  0.36308600  0.86872600  0.87160300  1
  O  O5  1  0.86872400  0.36308700  0.87160300  1
  O  O6  1  0.84130400  0.84130500  0.46102100  1
  O  O7  1  0.84514600  0.84514600  0.90345000  1
loop_
_geom_bond_atom_site_label_1
_geom_bond_atom_site_label_2
_geom_bond_distance
_geom_bond_site_symmetry_2
Mg0 O0 2.055146 1_555
Mg0 O4 2.062879 1_545
Mg0 O5 2.062886 1_455
Mg0 O3 2.188295 1_455
Mg0 O1 2.188301 1_545
Mn0 O6 1.996416 1_555
Mn0 O7 2.051409 1_554
Mn0 O4 2.141620 1_654
Mn0 O5 2.141624 1_564
Mn1 O2 1.963301 1_554
Mn1 O3 2.107582 1_455
Mn1 O1 2.107585 1_545
Mn1 O0 2.210130 1_555
Mn2 O7 2.011869 1_554
Mn2 O0 2.046133 1_555
Mn2 O5 2.231487 1_554
Mn2 O4 2.231488 1_554
Mn2 O1 2.386675 1_555
Mn2 O3 2.386676 1_555
Mn3 O6 1.925354 1_555
Mn3 O2 1.928423 1_555
Mn3 O5 2.123257 1_555
Mn3 O4 2.123268 1_555
Mn3 O1 2.126903 1_555
Mn3 O3 2.126913 1_555
O0 Zn1 2.300436 1_555
O0 Zn0 2.300438 1_555
O1 Zn0 2.115904 1_555
O2 Zn1 1.986983 1_555
O2 Zn0 1.986986 1_555
O3 Zn1 2.115900 1_555
O4 Zn1 2.490860 1_565
O5 Zn0 2.490864 1_655
O6 Zn1 1.984553 1_565
O6 Zn0 1.984555 1_655
O7 Zn1 2.165875 1_565
O7 Zn0 2.165877 1_655
