# generated using pymatgen
data_BaLaMg(CoO3)2
_symmetry_space_group_name_H-M   'P 1'
_cell_length_a   3.90305163
_cell_length_b   3.90305163
_cell_length_c   9.86314394
_cell_angle_alpha   79.05101733
_cell_angle_beta   79.05101733
_cell_angle_gamma   90.15935182
_symmetry_Int_Tables_number   1
_chemical_formula_structural   BaLaMg(CoO3)2
_chemical_formula_sum   'Ba1 La1 Mg1 Co2 O6'
_cell_volume   144.71513536
_cell_formula_units_Z   1
loop_
 _symmetry_equiv_pos_site_id
 _symmetry_equiv_pos_as_xyz
  1  'x, y, z'
loop_
 _atom_site_type_symbol
 _atom_site_label
 _atom_site_symmetry_multiplicity
 _atom_site_fract_x
 _atom_site_fract_y
 _atom_site_fract_z
 _atom_site_occupancy
  Ba  Ba0  1  0.16814994  0.16814994  0.55492099  1
  La  La0  1  0.99157178  0.99157178  0.94488233  1
  Mg  Mg0  1  0.78124905  0.78124905  0.32073613  1
  Co  Co0  1  0.57367454  0.57367454  0.75627453  1
  Co  Co1  1  0.34632082  0.34632082  0.19695848  1
  O  O0  1  0.67976056  0.67976056  0.53231034  1
  O  O1  1  0.56525465  0.06200592  0.77947875  1
  O  O2  1  0.06200592  0.56525465  0.77947875  1
  O  O3  1  0.31463975  0.81634602  0.25215596  1
  O  O4  1  0.45102098  0.45102098  0.98898178  1
  O  O5  1  0.81634602  0.31463975  0.25215596  1
loop_
_geom_bond_atom_site_label_1
_geom_bond_atom_site_label_2
_geom_bond_distance
_geom_bond_site_symmetry_2
Ba0 O0 2.760391 1_445
Ba0 O0 2.768391 1_555
Ba0 O0 2.772047 1_545
Ba0 O0 2.772047 1_455
Ba0 O2 2.877604 1_545
Ba0 O1 2.877604 1_455
Ba0 O2 2.904904 1_555
Ba0 O1 2.904904 1_555
La0 O1 2.487822 1_665
La0 O2 2.487822 1_665
La0 O1 2.523704 1_565
La0 O2 2.523704 1_655
La0 O4 2.682427 1_665
La0 O4 2.797309 1_655
La0 O4 2.797309 1_565
La0 O4 2.893048 1_555
Mg0 O0 2.009879 1_555
Mg0 O5 2.056021 1_555
Mg0 O3 2.056021 1_555
Mg0 O5 2.058809 1_565
Mg0 O3 2.058809 1_655
Co0 O1 1.961995 1_565
Co0 O2 1.961995 1_655
Co0 O2 1.965934 1_555
Co0 O1 1.965934 1_555
Co0 O0 2.127600 1_555
Co0 O4 2.211414 1_555
Co1 O4 1.975866 1_554
Co1 O3 2.008054 1_555
Co1 O5 2.008054 1_555
Co1 O5 2.033635 1_455
Co1 O3 2.033635 1_545
