# generated using pymatgen
data_Na3ZnGe3P5SO24
_symmetry_space_group_name_H-M   'P 1'
_cell_length_a   8.51995224
_cell_length_b   8.50190539
_cell_length_c   21.90309924
_cell_angle_alpha   89.60137499
_cell_angle_beta   90.46572517
_cell_angle_gamma   119.88508278
_symmetry_Int_Tables_number   1
_chemical_formula_structural   Na3ZnGe3P5SO24
_chemical_formula_sum   'Na9 Zn3 Ge9 P15 S3 O72'
_cell_volume   1375.54430545
_cell_formula_units_Z   3
loop_
 _symmetry_equiv_pos_site_id
 _symmetry_equiv_pos_as_xyz
  1  'x, y, z'
loop_
 _atom_site_type_symbol
 _atom_site_label
 _atom_site_symmetry_multiplicity
 _atom_site_fract_x
 _atom_site_fract_y
 _atom_site_fract_z
 _atom_site_occupancy
  Na  Na0  1  0.99226884  0.36588304  0.74705926  1
  Na  Na1  1  0.30916246  0.97355143  0.08539379  1
  Na  Na2  1  0.32678214  0.03333658  0.41302749  1
  Na  Na3  1  0.98909445  0.99894963  0.49789498  1
  Na  Na4  1  0.99216754  0.00050107  0.99875702  1
  Na  Na5  1  0.65795760  0.33314099  0.83117323  1
  Na  Na6  1  0.66999830  0.33599433  0.32916250  1
  Na  Na7  1  0.33365829  0.66004163  0.16682336  1
  Na  Na8  1  0.34156374  0.66945737  0.66566988  1
  Zn  Zn0  1  0.99785915  0.99975172  0.35478584  1
  Zn  Zn1  1  0.66601059  0.34102562  0.68610681  1
  Zn  Zn2  1  0.66190414  0.32829730  0.18209177  1
  Ge  Ge0  1  0.00107022  0.99990615  0.85460099  1
  Ge  Ge1  1  0.98884388  0.99712332  0.64834228  1
  Ge  Ge2  1  0.00018390  0.99744498  0.14717733  1
  Ge  Ge3  1  0.66832276  0.33443284  0.98046252  1
  Ge  Ge4  1  0.68038110  0.34527223  0.48082499  1
  Ge  Ge5  1  0.33426887  0.66374568  0.01703682  1
  Ge  Ge6  1  0.33435709  0.65935329  0.51894277  1
  Ge  Ge7  1  0.33207708  0.67272202  0.31572952  1
  Ge  Ge8  1  0.33701074  0.66966248  0.81395131  1
  P  P0  1  0.29280126  0.99872830  0.25226107  1
  P  P1  1  0.28635522  0.28441082  0.75192855  1
  P  P2  1  0.00487727  0.72071601  0.75199805  1
  P  P3  1  0.70781883  0.99225178  0.75222254  1
  P  P4  1  0.96182810  0.33481452  0.58420388  1
  P  P5  1  0.66668521  0.62650350  0.58319873  1
  P  P6  1  0.95617907  0.61987858  0.08289685  1
  P  P7  1  0.66966864  0.04018178  0.08232910  1
  P  P8  1  0.37631825  0.33929963  0.08259708  1
  P  P9  1  0.62187245  0.66611277  0.91650981  1
  P  P10  1  0.04332237  0.37778688  0.91592786  1
  P  P11  1  0.33491635  0.95687843  0.91657648  1
  P  P12  1  0.62164237  0.95531438  0.41949331  1
  P  P13  1  0.33879134  0.38474610  0.41730658  1
  P  P14  1  0.04463322  0.65928343  0.41835790  1
  S  S0  1  0.70660952  0.70917665  0.25120557  1
  S  S1  1  0.00326688  0.29333889  0.25089523  1
  S  S2  1  0.37284421  0.03906044  0.58277989  1
  O  O0  1  0.20921499  0.02277422  0.30937489  1
  O  O1  1  0.81306859  0.79090216  0.30574833  1
  O  O2  1  0.97556091  0.18577493  0.30555660  1
  O  O3  1  0.19760793  0.16933935  0.80988411  1
  O  O4  1  0.97232176  0.80463047  0.80937220  1
  O  O5  1  0.83438416  0.03299434  0.80867424  1
  O  O6  1  0.78696443  0.95445636  0.69346210  1
  O  O7  1  0.15880103  0.20574408  0.69404532  1
  O  O8  1  0.04224383  0.83854909  0.69300358  1
  O  O9  1  0.78452789  0.82652203  0.19342036  1
  O  O10  1  0.03760660  0.21254078  0.19344370  1
  O  O11  1  0.17137177  0.96093576  0.19139271  1
  O  O12  1  0.89124698  0.36991024  0.64243108  1
  O  O13  1  0.48300333  0.11353419  0.63704458  1
  O  O14  1  0.62433067  0.51375136  0.63978169  1
  O  O15  1  0.88764998  0.51186008  0.14021871  1
  O  O16  1  0.61785035  0.10561223  0.13811681  1
  O  O17  1  0.48448119  0.37713037  0.14003705  1
  O  O18  1  0.45495501  0.28900034  0.02569723  1
  O  O19  1  0.83652698  0.54157657  0.02436891  1
  O  O20  1  0.70766235  0.16162025  0.02417149  1
  O  O21  1  0.45087011  0.15193680  0.52517914  1
  O  O22  1  0.70436304  0.54443263  0.52468033  1
  O  O23  1  0.83663777  0.29432695  0.52653960  1
  O  O24  1  0.54017431  0.70457038  0.97326017  1
  O  O25  1  0.16526634  0.46181006  0.97257576  1
  O  O26  1  0.29810314  0.83976279  0.97521693  1
  O  O27  1  0.53052217  0.83707561  0.47612961  1
  O  O28  1  0.30449855  0.46648037  0.47458810  1
  O  O29  1  0.17034105  0.69898501  0.47469508  1
  O  O30  1  0.12449499  0.62163520  0.35989309  1
  O  O31  1  0.49514471  0.87831641  0.36129272  1
  O  O32  1  0.37691273  0.50554655  0.35904525  1
  O  O33  1  0.12367322  0.49485114  0.85721940  1
  O  O34  1  0.37155514  0.87226567  0.86010886  1
  O  O35  1  0.50082450  0.62719615  0.85909300  1
  O  O36  1  0.02568193  0.82661512  0.41468295  1
  O  O37  1  0.80526910  0.97510361  0.41392585  1
  O  O38  1  0.17602054  0.19586161  0.41372535  1
  O  O39  1  0.02500249  0.18733059  0.91008995  1
  O  O40  1  0.16256349  0.97428654  0.91039072  1
  O  O41  1  0.81185002  0.83709319  0.90979843  1
  O  O42  1  0.98213629  0.16091987  0.58874819  1
  O  O43  1  0.18939892  0.02221679  0.58727315  1
  O  O44  1  0.84159746  0.81842529  0.58857990  1
  O  O45  1  0.98214428  0.81793679  0.08821514  1
  O  O46  1  0.84127401  0.02073612  0.09029275  1
  O  O47  1  0.18337405  0.16231420  0.08858339  1
  O  O48  1  0.69129396  0.16094427  0.74665344  1
  O  O49  1  0.47001154  0.30349534  0.74723023  1
  O  O50  1  0.84324737  0.53072526  0.74849550  1
  O  O51  1  0.68724692  0.53037422  0.24409004  1
  O  O52  1  0.84730561  0.31874770  0.24359185  1
  O  O53  1  0.47967314  0.16117402  0.24502505  1
  O  O54  1  0.63895118  0.49346584  0.92417675  1
  O  O55  1  0.85446723  0.36060251  0.92340762  1
  O  O56  1  0.50599578  0.14656297  0.92397748  1
  O  O57  1  0.62900321  0.14379710  0.42606837  1
  O  O58  1  0.51247953  0.36476410  0.42462565  1
  O  O59  1  0.85699013  0.48429968  0.42371387  1
  O  O60  1  0.35138008  0.50554762  0.07198652  1
  O  O61  1  0.15295980  0.65275454  0.07254551  1
  O  O62  1  0.49760470  0.84885082  0.07162777  1
  O  O63  1  0.35183814  0.85388765  0.57505574  1
  O  O64  1  0.49872979  0.65255909  0.57380013  1
  O  O65  1  0.15176521  0.50558719  0.57386963  1
  O  O66  1  0.30262905  0.81610678  0.25571884  1
  O  O67  1  0.52180011  0.69594753  0.25476487  1
  O  O68  1  0.17712848  0.47615252  0.25472112  1
  O  O69  1  0.29478694  0.47421081  0.75783254  1
  O  O70  1  0.18010037  0.70219425  0.75771729  1
  O  O71  1  0.52086321  0.81728095  0.75853273  1
loop_
_geom_bond_atom_site_label_1
_geom_bond_atom_site_label_2
_geom_bond_distance
_geom_bond_site_symmetry_2
Na0 O48 2.271333 1_555
Na0 O69 2.274794 1_655
Na0 O50 2.313354 1_555
Na0 O12 2.447446 1_555
Na0 O70 2.496875 1_655
Na0 O33 2.654638 1_655
Na0 O7 2.681211 1_655
Na0 O5 2.797011 1_555
Na1 O47 2.333601 1_565
Na1 O62 2.345458 1_555
Na1 O61 2.382531 1_555
Na1 O45 2.417705 1_455
Na1 O16 2.556784 1_565
Na1 O11 2.587545 1_555
Na1 O26 2.655935 1_554
Na1 O18 2.665168 1_565
Na2 O57 2.275021 1_555
Na2 O36 2.275718 1_545
Na2 O38 2.308404 1_555
Na2 O0 2.458038 1_555
Na2 O58 2.463397 1_555
Na2 O31 2.647616 1_545
Na2 O21 2.664321 1_555
Na2 O29 2.807427 1_545
Na3 O37 2.349164 1_555
Na3 O44 2.440546 1_555
Na3 O42 2.445642 1_565
Na3 O36 2.463191 1_655
Na3 O38 2.466919 1_665
Na3 O43 2.529556 1_665
Na4 O39 2.428184 1_655
Na4 O41 2.439039 1_545
Na4 O46 2.443189 1_556
Na4 O45 2.466586 1_546
Na4 O47 2.483876 1_656
Na4 O40 2.505505 1_645
Na5 O49 2.358929 1_555
Na5 O50 2.440257 1_555
Na5 O48 2.472185 1_555
Na5 O56 2.505133 1_555
Na5 O54 2.509535 1_555
Na5 O55 2.549697 1_555
Na6 O53 2.412988 1_555
Na6 O51 2.438102 1_555
Na6 O52 2.467187 1_555
Na6 O59 2.529384 1_555
Na6 O58 2.571539 1_555
Na6 O57 2.586949 1_555
Na7 O67 2.417279 1_555
Na7 O68 2.418973 1_555
Na7 O66 2.452640 1_555
Na7 O60 2.510698 1_555
Na7 O61 2.548177 1_555
Na7 O62 2.577165 1_555
Na8 O64 2.470284 1_555
Na8 O71 2.474281 1_555
Na8 O63 2.495638 1_555
Na8 O69 2.509274 1_555
Na8 O65 2.517925 1_555
Na8 O70 2.543444 1_555
Ge0 O4 1.846999 1_455
Ge0 O3 1.855149 1_565
Ge0 O5 1.865168 1_465
Ge0 O40 1.923905 1_555
Ge0 O39 1.938297 1_565
Ge0 O41 1.939418 1_455
Ge1 O6 1.862135 1_555
Ge1 O8 1.888694 1_655
Ge1 O7 1.920031 1_665
Ge1 O44 1.922784 1_555
Ge1 O42 1.923317 1_565
Ge1 O43 2.103409 1_665
Ge2 O11 1.893544 1_555
Ge2 O46 1.913366 1_465
Ge2 O45 1.952203 1_455
Ge2 O9 1.965348 1_455
Ge2 O47 1.968569 1_565
Ge2 O10 1.977957 1_565
Ge3 O19 1.888443 1_556
Ge3 O20 1.911409 1_556
Ge3 O54 1.928625 1_555
Ge3 O18 1.939010 1_556
Ge3 O56 1.947547 1_555
Ge3 O55 1.950162 1_555
Ge4 O59 1.861095 1_555
Ge4 O22 1.872480 1_555
Ge4 O23 1.873357 1_555
Ge4 O58 1.947772 1_555
Ge4 O57 1.958821 1_555
Ge4 O21 2.067598 1_555
Ge5 O60 1.857105 1_555
Ge5 O25 1.872479 1_554
Ge5 O24 1.879726 1_554
Ge5 O26 1.899809 1_554
Ge5 O62 1.913031 1_555
Ge5 O61 1.938626 1_555
Ge6 O28 1.816559 1_555
Ge6 O27 1.856053 1_555
Ge6 O29 1.856936 1_555
Ge6 O64 1.860268 1_555
Ge6 O65 1.886375 1_555
Ge6 O63 2.011965 1_555
Ge7 O30 1.873162 1_555
Ge7 O66 1.885165 1_555
Ge7 O31 1.887645 1_555
Ge7 O32 1.892766 1_555
Ge7 O68 2.031058 1_555
Ge7 O67 2.036726 1_555
Ge8 O35 1.879004 1_555
Ge8 O71 1.884891 1_555
Ge8 O34 1.894723 1_555
Ge8 O70 1.928149 1_555
Ge8 O33 1.930588 1_555
Ge8 O69 1.956295 1_555
O0 P0 1.508974 1_545
O0 Zn0 1.986318 1_445
O1 S0 1.448647 1_555
O1 Zn0 1.999608 1_555
O2 S1 1.449029 1_655
O2 Zn0 1.993096 1_545
O3 P1 1.549644 1_555
O4 P2 1.542882 1_655
O5 P3 1.556822 1_545
O6 P3 1.565314 1_555
O7 P1 1.581396 1_555
O8 P2 1.563809 1_555
O9 S0 1.540796 1_555
O10 S1 1.535989 1_555
O11 P0 1.613473 1_555
O12 P4 1.507897 1_555
O12 Zn1 2.053043 1_555
O13 S2 1.447276 1_555
O13 Zn1 2.079231 1_555
O14 P5 1.493699 1_555
O14 Zn1 1.950694 1_555
O15 P6 1.490695 1_555
O15 Zn2 1.998387 1_555
O16 P7 1.503472 1_555
O16 Zn2 1.991069 1_555
O17 P8 1.492298 1_555
O17 Zn2 1.975688 1_555
O18 P8 1.578441 1_555
O19 P6 1.562092 1_555
O20 P7 1.564850 1_555
O21 S2 1.521726 1_555
O22 P5 1.573246 1_555
O23 P4 1.571517 1_555
O24 P9 1.543696 1_555
O25 P10 1.543050 1_555
O26 P11 1.554686 1_555
O27 P12 1.540359 1_555
O28 P13 1.537137 1_555
O29 P14 1.551688 1_555
O30 P14 1.562740 1_555
O31 P12 1.581563 1_555
O32 P13 1.563591 1_555
O33 P10 1.558934 1_555
O34 P11 1.545020 1_555
O35 P9 1.548978 1_555
O36 P14 1.511142 1_555
O36 Zn0 2.063955 1_455
O37 P12 1.493761 1_555
O37 Zn0 2.025433 1_555
O38 P13 1.512913 1_555
O38 Zn0 2.055877 1_445
O39 P10 1.553497 1_555
O40 P11 1.552300 1_555
O41 P9 1.552669 1_555
O42 P4 1.574232 1_555
O43 S2 1.500751 1_555
O44 P5 1.572834 1_555
O45 P6 1.590292 1_555
O46 P7 1.559402 1_555
O47 P8 1.587286 1_555
O48 P3 1.513328 1_545
O48 Zn1 2.108300 1_555
O49 P1 1.494897 1_555
O49 Zn1 2.045036 1_555
O50 P2 1.514839 1_655
O50 Zn1 2.078197 1_555
O51 S0 1.454430 1_555
O51 Zn2 2.121402 1_555
O52 S1 1.456033 1_655
O52 Zn2 2.099518 1_555
O53 P0 1.509059 1_545
O53 Zn2 2.034374 1_555
O54 P9 1.553353 1_555
O55 P10 1.551410 1_655
O56 P11 1.552070 1_545
O57 P12 1.579707 1_545
O58 P13 1.578196 1_555
O59 P14 1.553502 1_655
O60 P8 1.546228 1_555
O61 P6 1.574390 1_455
O62 P7 1.572719 1_565
O63 S2 1.503854 1_565
O64 P5 1.565119 1_555
O65 P4 1.561408 1_455
O66 P0 1.597255 1_555
O67 S0 1.524265 1_555
O68 S1 1.523963 1_555
O69 P1 1.585251 1_555
O70 P2 1.581193 1_555
O71 P3 1.551980 1_555
