# generated using pymatgen
data_Na2Ca5Sn3(SO4)12
_symmetry_space_group_name_H-M   'P 1'
_cell_length_a   17.98927689
_cell_length_b   9.00659885
_cell_length_c   23.83168511
_cell_angle_alpha   90.11967969
_cell_angle_beta   90.02788888
_cell_angle_gamma   120.03943398
_symmetry_Int_Tables_number   1
_chemical_formula_structural   Na2Ca5Sn3(SO4)12
_chemical_formula_sum   'Na6 Ca15 Sn9 S36 O144'
_cell_volume   3342.60895695
_cell_formula_units_Z   3
loop_
 _symmetry_equiv_pos_site_id
 _symmetry_equiv_pos_as_xyz
  1  'x, y, z'
loop_
 _atom_site_type_symbol
 _atom_site_label
 _atom_site_symmetry_multiplicity
 _atom_site_fract_x
 _atom_site_fract_y
 _atom_site_fract_z
 _atom_site_occupancy
  Na  Na0  1  0.99988266  0.99994031  0.50322344  1
  Na  Na1  1  0.50492950  0.00866307  0.99666932  1
  Na  Na2  1  0.33438767  0.33526307  0.82575516  1
  Na  Na3  1  0.83257167  0.33110796  0.82732848  1
  Na  Na4  1  0.33245003  0.33602455  0.33928557  1
  Na  Na5  1  0.83414632  0.33100378  0.33365852  1
  Ca  Ca0  1  0.00322404  0.00261618  0.35578940  1
  Ca  Ca1  1  0.50096624  0.00044797  0.85446165  1
  Ca  Ca2  1  0.99949233  0.99877475  0.64644627  1
  Ca  Ca3  1  0.50264568  0.00468038  0.14659897  1
  Ca  Ca4  1  0.32907705  0.32933776  0.67903492  1
  Ca  Ca5  1  0.83745113  0.33797367  0.68013826  1
  Ca  Ca6  1  0.82834838  0.32775494  0.17983155  1
  Ca  Ca7  1  0.32732628  0.32807379  0.98155940  1
  Ca  Ca8  1  0.83904594  0.33813858  0.98479746  1
  Ca  Ca9  1  0.33945981  0.34194890  0.48753064  1
  Ca  Ca10  1  0.82773610  0.32553359  0.48631519  1
  Ca  Ca11  1  0.16260178  0.66363191  0.30822966  1
  Ca  Ca12  1  0.67056712  0.66695448  0.30981382  1
  Ca  Ca13  1  0.17187291  0.67455583  0.80768041  1
  Ca  Ca14  1  0.66168606  0.65935448  0.80692163  1
  Sn  Sn0  1  0.49741361  0.99614283  0.35211894  1
  Sn  Sn1  1  0.99895933  0.99927203  0.85074665  1
  Sn  Sn2  1  0.50044662  0.00048653  0.65001044  1
  Sn  Sn3  1  0.99767612  0.99736522  0.14991540  1
  Sn  Sn4  1  0.33619040  0.33572329  0.17922511  1
  Sn  Sn5  1  0.16045027  0.66524252  0.01408031  1
  Sn  Sn6  1  0.67373820  0.67011746  0.01371223  1
  Sn  Sn7  1  0.17042870  0.66955335  0.51625035  1
  Sn  Sn8  1  0.66225527  0.66298841  0.51644152  1
  S  S0  1  0.15267341  0.01813943  0.24309036  1
  S  S1  1  0.64482289  0.00952572  0.25530794  1
  S  S2  1  0.35738183  0.69490137  0.24967021  1
  S  S3  1  0.85816748  0.70918037  0.24783259  1
  S  S4  1  0.99729556  0.28361938  0.24689187  1
  S  S5  1  0.48935949  0.28397622  0.25064243  1
  S  S6  1  0.14631282  0.28122552  0.75508803  1
  S  S7  1  0.64561048  0.28442971  0.74729141  1
  S  S8  1  0.99459027  0.70660310  0.75475989  1
  S  S9  1  0.49629738  0.70894060  0.74724777  1
  S  S10  1  0.35845221  0.00712305  0.74740054  1
  S  S11  1  0.85814696  0.01084557  0.75461276  1
  S  S12  1  0.49047979  0.33168757  0.58310771  1
  S  S13  1  0.99152481  0.34487609  0.57808223  1
  S  S14  1  0.18193228  0.01918403  0.57712305  1
  S  S15  1  0.67465970  0.01673061  0.58383184  1
  S  S16  1  0.33465250  0.65071737  0.58342161  1
  S  S17  1  0.82677636  0.63689395  0.57776536  1
  S  S18  1  0.48531005  0.62221910  0.08186195  1
  S  S19  1  0.99128246  0.64943544  0.08338583  1
  S  S20  1  0.32563215  0.02735729  0.08161208  1
  S  S21  1  0.83349100  0.01843290  0.08305289  1
  S  S22  1  0.18119752  0.33509233  0.08659046  1
  S  S23  1  0.68186393  0.34592203  0.07715651  1
  S  S24  1  0.31032108  0.67220319  0.92159925  1
  S  S25  1  0.81879560  0.67882808  0.91393333  1
  S  S26  1  0.02299486  0.36565394  0.91504514  1
  S  S27  1  0.52302003  0.37662662  0.92043279  1
  S  S28  1  0.15874216  0.95387315  0.91476962  1
  S  S29  1  0.66584906  0.95317355  0.92101177  1
  S  S30  1  0.31781792  0.95800431  0.41323820  1
  S  S31  1  0.81088417  0.95285679  0.42029141  1
  S  S32  1  0.16791326  0.37865022  0.41957058  1
  S  S33  1  0.65938127  0.36365840  0.41438649  1
  S  S34  1  0.02228573  0.66763998  0.41961605  1
  S  S35  1  0.52169839  0.67738001  0.41444876  1
  O  O0  1  0.11789657  0.05263579  0.29354509  1
  O  O1  1  0.60160599  0.03705895  0.30763467  1
  O  O2  1  0.41265431  0.77174664  0.30218205  1
  O  O3  1  0.91241840  0.79790704  0.29624449  1
  O  O4  1  0.47302147  0.17253642  0.30244688  1
  O  O5  1  0.98809398  0.17868982  0.29596670  1
  O  O6  1  0.10499690  0.17376895  0.80855632  1
  O  O7  1  0.60360521  0.18015731  0.79706044  1
  O  O8  1  0.48620279  0.79251524  0.79728275  1
  O  O9  1  0.98177517  0.78892700  0.80831773  1
  O  O10  1  0.41015716  0.02627745  0.79738983  1
  O  O11  1  0.91274312  0.03815905  0.80821336  1
  O  O12  1  0.40104346  0.99018493  0.69424669  1
  O  O13  1  0.90160938  0.99596869  0.70514159  1
  O  O14  1  0.09637442  0.19457685  0.70524576  1
  O  O15  1  0.59371932  0.19899294  0.69424805  1
  O  O16  1  0.00153540  0.80712247  0.70518542  1
  O  O17  1  0.50543660  0.81233623  0.69443911  1
  O  O18  1  0.39844562  0.79545375  0.19995627  1
  O  O19  1  0.89937517  0.80954401  0.19351345  1
  O  O20  1  0.00845943  0.20076349  0.19332543  1
  O  O21  1  0.49811381  0.20314854  0.20026588  1
  O  O22  1  0.09960010  0.99759756  0.19174079  1
  O  O23  1  0.59527254  0.99518473  0.20508679  1
  O  O24  1  0.45360877  0.36726269  0.63241250  1
  O  O25  1  0.95338323  0.36804245  0.62956040  1
  O  O26  1  0.23116253  0.09383068  0.62886509  1
  O  O27  1  0.72909347  0.09193439  0.63318610  1
  O  O28  1  0.31676403  0.54276246  0.63308903  1
  O  O29  1  0.81593676  0.53755211  0.62891422  1
  O  O30  1  0.44577118  0.51494854  0.13634863  1
  O  O31  1  0.95515216  0.54261481  0.13303243  1
  O  O32  1  0.31160094  0.10738780  0.13487739  1
  O  O33  1  0.81659456  0.08924063  0.13356483  1
  O  O34  1  0.23954721  0.37219288  0.13765531  1
  O  O35  1  0.73011013  0.36949361  0.12933174  1
  O  O36  1  0.21671929  0.29580506  0.03789010  1
  O  O37  1  0.72495132  0.32629881  0.02803169  1
  O  O38  1  0.42845513  0.53471907  0.03469049  1
  O  O39  1  0.94027704  0.58058483  0.03261345  1
  O  O40  1  0.33858869  0.13637496  0.03341086  1
  O  O41  1  0.85032995  0.12520205  0.03359096  1
  O  O42  1  0.22443204  0.12397983  0.52758962  1
  O  O43  1  0.70922328  0.12018680  0.53327540  1
  O  O44  1  0.35219205  0.57924438  0.53336170  1
  O  O45  1  0.83629469  0.55393335  0.52756947  1
  O  O46  1  0.43883004  0.29768031  0.53226304  1
  O  O47  1  0.93902751  0.32522685  0.52856679  1
  O  O48  1  0.26699949  0.68919921  0.97623080  1
  O  O49  1  0.78203316  0.70877275  0.96799963  1
  O  O50  1  0.07467049  0.43956987  0.97029881  1
  O  O51  1  0.57483521  0.46530340  0.97376130  1
  O  O52  1  0.14513413  0.85143745  0.96911977  1
  O  O53  1  0.65722597  0.85122020  0.97552796  1
  O  O54  1  0.28002535  0.85446067  0.46551699  1
  O  O55  1  0.76558223  0.84819069  0.47297395  1
  O  O56  1  0.16111232  0.46661982  0.47272453  1
  O  O57  1  0.64685258  0.44405470  0.46670150  1
  O  O58  1  0.07612888  0.68380943  0.47127906  1
  O  O59  1  0.57296913  0.70258928  0.46781077  1
  O  O60  1  0.06520029  0.65736176  0.36867076  1
  O  O61  1  0.56395431  0.65698900  0.36558735  1
  O  O62  1  0.26660725  0.87526905  0.36339693  1
  O  O63  1  0.76196573  0.86569893  0.37002367  1
  O  O64  1  0.17314329  0.47719684  0.36964097  1
  O  O65  1  0.67021397  0.46677041  0.36481965  1
  O  O66  1  0.06694574  0.47610097  0.86793896  1
  O  O67  1  0.56690627  0.47470161  0.87082787  1
  O  O68  1  0.17119936  0.86888306  0.86740587  1
  O  O69  1  0.67068000  0.86250656  0.87188353  1
  O  O70  1  0.26042362  0.66089727  0.87249000  1
  O  O71  1  0.76394926  0.65588392  0.86623113  1
  O  O72  1  0.01616688  0.82533608  0.42040897  1
  O  O73  1  0.51553753  0.83894998  0.41011683  1
  O  O74  1  0.40478612  0.96586469  0.40849142  1
  O  O75  1  0.89623315  0.96715365  0.42115006  1
  O  O76  1  0.08912991  0.20884380  0.42061934  1
  O  O77  1  0.57697091  0.19113782  0.40915663  1
  O  O78  1  0.01696093  0.19355504  0.90995761  1
  O  O79  1  0.51596152  0.20620839  0.92158978  1
  O  O80  1  0.07868166  0.96549207  0.90971070  1
  O  O81  1  0.58716075  0.96599151  0.92236850  1
  O  O82  1  0.39565025  0.82773304  0.92303272  1
  O  O83  1  0.90485981  0.84126225  0.90932191  1
  O  O84  1  0.50485946  0.18300122  0.59280552  1
  O  O85  1  0.00527947  0.19651198  0.58189861  1
  O  O86  1  0.09326096  0.98686168  0.58097605  1
  O  O87  1  0.58587556  0.99098755  0.59327473  1
  O  O88  1  0.40968301  0.82811674  0.59314582  1
  O  O89  1  0.90025225  0.81373081  0.58164599  1
  O  O90  1  0.49495296  0.79233465  0.08976388  1
  O  O91  1  0.00661030  0.82873896  0.09299710  1
  O  O92  1  0.39914178  0.00255079  0.08958257  1
  O  O93  1  0.91008160  0.99253878  0.09165501  1
  O  O94  1  0.09516425  0.18442126  0.09893586  1
  O  O95  1  0.59302566  0.19895984  0.08046672  1
  O  O96  1  0.35045596  0.16191637  0.74216102  1
  O  O97  1  0.85036272  0.16638165  0.75294199  1
  O  O98  1  0.23230622  0.29727319  0.75390079  1
  O  O99  1  0.73067023  0.29992242  0.74123480  1
  O  O100  1  0.41861490  0.53835408  0.74137559  1
  O  O101  1  0.91673794  0.53517467  0.75335488  1
  O  O102  1  0.35041548  0.51775623  0.24420509  1
  O  O103  1  0.85041714  0.53906456  0.24218242  1
  O  O104  1  0.40711676  0.29642707  0.24537794  1
  O  O105  1  0.91935654  0.29686957  0.24045396  1
  O  O106  1  0.24012979  0.18069765  0.23473181  1
  O  O107  1  0.73047982  0.16564972  0.25453785  1
  O  O108  1  0.31644388  0.51630988  0.92631934  1
  O  O109  1  0.83164414  0.53153428  0.92142109  1
  O  O110  1  0.43790711  0.36210126  0.92510834  1
  O  O111  1  0.93709344  0.34231928  0.92274486  1
  O  O112  1  0.23318365  0.12678671  0.92188472  1
  O  O113  1  0.74356254  0.12219164  0.92626626  1
  O  O114  1  0.33299486  0.13329430  0.41972018  1
  O  O115  1  0.81745757  0.12178024  0.42465982  1
  O  O116  1  0.24554111  0.36301930  0.42401336  1
  O  O117  1  0.73275278  0.33666202  0.42076340  1
  O  O118  1  0.43496094  0.52872557  0.42084798  1
  O  O119  1  0.93713603  0.51295693  0.42410253  1
  O  O120  1  0.17097486  0.48839367  0.07800097  1
  O  O121  1  0.67634819  0.50840236  0.07144663  1
  O  O122  1  0.08035992  0.67062420  0.07432500  1
  O  O123  1  0.57041295  0.63504358  0.07589321  1
  O  O124  1  0.24526405  0.85613305  0.07484133  1
  O  O125  1  0.75660184  0.84197418  0.07381397  1
  O  O126  1  0.17769409  0.84708536  0.57108503  1
  O  O127  1  0.66206914  0.83853661  0.57449531  1
  O  O128  1  0.25817931  0.67372212  0.57360723  1
  O  O129  1  0.74505312  0.64833832  0.57209910  1
  O  O130  1  0.07939406  0.50603956  0.57260570  1
  O  O131  1  0.57860546  0.48665399  0.57331596  1
  O  O132  1  0.16437271  0.87039853  0.24678394  1
  O  O133  1  0.64913712  0.85463466  0.26302583  1
  O  O134  1  0.27251967  0.67012661  0.25890692  1
  O  O135  1  0.77448862  0.69800590  0.25000702  1
  O  O136  1  0.07499500  0.45192669  0.24901521  1
  O  O137  1  0.56162539  0.45374366  0.25960151  1
  O  O138  1  0.15126585  0.44571201  0.76221580  1
  O  O139  1  0.65059652  0.45093298  0.74958413  1
  O  O140  1  0.07209130  0.69691987  0.76198075  1
  O  O141  1  0.57435385  0.69808390  0.74938725  1
  O  O142  1  0.27498868  0.85074239  0.74903952  1
  O  O143  1  0.77590767  0.85618795  0.76234246  1
loop_
_geom_bond_atom_site_label_1
_geom_bond_atom_site_label_2
_geom_bond_distance
_geom_bond_site_symmetry_2
Na0 O86 2.542664 1_655
Na0 O85 2.544256 1_665
Na0 O89 2.554376 1_555
Na0 O75 2.613879 1_555
Na0 O72 2.627319 1_655
Na0 O76 2.643341 1_665
Na1 O81 2.457705 1_545
Na1 O79 2.463047 1_555
Na1 O82 2.525287 1_545
Na1 O95 2.588515 1_556
Na1 O90 2.901542 1_546
Na1 O92 2.902992 1_556
Na2 O98 2.405638 1_555
Na2 O100 2.632276 1_555
Na2 O96 2.632360 1_555
Na2 O110 2.945380 1_555
Na2 O112 2.947545 1_555
Na2 O108 3.003044 1_555
Na3 O97 2.431295 1_555
Na3 O101 2.451202 1_555
Na3 O99 2.669721 1_555
Na3 O109 2.881051 1_555
Na3 O111 2.919106 1_555
Na3 O113 2.944419 1_555
Na4 O116 2.638600 1_555
Na4 O118 2.639924 1_555
Na4 O114 2.653496 1_555
Na4 O102 2.721127 1_555
Na4 O104 2.723806 1_555
Na4 O106 2.929007 1_555
Na5 O107 2.540739 1_555
Na5 O119 2.775892 1_555
Na5 O117 2.781195 1_555
Na5 O115 2.792076 1_555
Na5 O103 2.796125 1_555
Na5 O105 2.801841 1_555
Ca0 O3 2.247870 1_445
Ca0 O5 2.250040 1_455
Ca0 O76 2.310213 1_555
Ca0 O72 2.314593 1_545
Ca0 O75 2.371129 1_445
Ca0 O0 2.394613 1_555
Ca1 O7 2.218089 1_555
Ca1 O8 2.219386 1_545
Ca1 O10 2.225376 1_555
Ca1 O79 2.356501 1_555
Ca1 O81 2.366650 1_545
Ca1 O82 2.396383 1_545
Ca2 O16 2.239206 1_655
Ca2 O13 2.239612 1_555
Ca2 O14 2.240802 1_665
Ca2 O89 2.314583 1_555
Ca2 O85 2.318375 1_665
Ca2 O86 2.339745 1_655
Ca3 O23 2.206265 1_545
Ca3 O21 2.230271 1_555
Ca3 O18 2.271010 1_545
Ca3 O90 2.288116 1_545
Ca3 O92 2.296795 1_555
Ca3 O95 2.314052 1_555
Ca4 O96 2.296610 1_555
Ca4 O26 2.297387 1_555
Ca4 O100 2.301245 1_555
Ca4 O28 2.319015 1_555
Ca4 O24 2.368067 1_555
Ca4 O98 2.408122 1_555
Ca5 O99 2.296321 1_555
Ca5 O25 2.305215 1_555
Ca5 O29 2.361430 1_555
Ca5 O27 2.371729 1_555
Ca5 O101 2.383663 1_555
Ca5 O97 2.413078 1_555
Ca6 O103 2.284476 1_555
Ca6 O105 2.302238 1_555
Ca6 O35 2.319008 1_555
Ca6 O33 2.326017 1_555
Ca6 O31 2.405019 1_555
Ca6 O107 2.416902 1_555
Ca7 O40 2.215379 1_556
Ca7 O38 2.230429 1_556
Ca7 O108 2.233167 1_555
Ca7 O112 2.256158 1_555
Ca7 O110 2.292370 1_555
Ca7 O36 2.295861 1_556
Ca8 O37 2.251453 1_556
Ca8 O111 2.288144 1_555
Ca8 O113 2.306628 1_555
Ca8 O39 2.321497 1_556
Ca8 O41 2.338872 1_556
Ca8 O109 2.361342 1_555
Ca9 O42 2.233802 1_555
Ca9 O46 2.281324 1_555
Ca9 O44 2.305009 1_555
Ca9 O118 2.329623 1_555
Ca9 O116 2.345549 1_555
Ca9 O114 2.434145 1_555
Ca10 O45 2.212757 1_555
Ca10 O47 2.241809 1_555
Ca10 O115 2.282457 1_555
Ca10 O43 2.298163 1_555
Ca10 O117 2.353647 1_555
Ca10 O119 2.368131 1_555
Ca11 O60 2.247632 1_555
Ca11 O136 2.255846 1_555
Ca11 O134 2.276340 1_555
Ca11 O62 2.297601 1_555
Ca11 O64 2.307862 1_555
Ca11 O132 2.359114 1_555
Ca12 O133 2.215655 1_555
Ca12 O65 2.228810 1_555
Ca12 O63 2.237588 1_555
Ca12 O135 2.255087 1_555
Ca12 O137 2.276077 1_555
Ca12 O61 2.298629 1_555
Ca13 O138 2.187430 1_555
Ca13 O140 2.193110 1_555
Ca13 O142 2.230868 1_555
Ca13 O68 2.258370 1_555
Ca13 O70 2.265570 1_555
Ca13 O66 2.335698 1_555
Ca14 O143 2.203753 1_555
Ca14 O141 2.240189 1_555
Ca14 O139 2.246071 1_555
Ca14 O67 2.273017 1_555
Ca14 O71 2.332018 1_555
Ca14 O69 2.337161 1_555
O0 S0 1.458600 1_555
O1 S1 1.553601 1_555
O1 Sn0 2.021109 1_545
O2 S2 1.529695 1_555
O2 Sn0 2.174560 1_555
O3 S3 1.461639 1_555
O4 S5 1.525835 1_555
O4 Sn0 2.196165 1_545
O5 S4 1.461689 1_555
O6 S6 1.548761 1_555
O6 Sn1 2.031411 1_445
O7 S7 1.467921 1_555
O8 S9 1.467904 1_555
O9 S8 1.549033 1_555
O9 Sn1 2.027917 1_555
O10 S10 1.466828 1_555
O11 S11 1.553199 1_555
O11 Sn1 2.024708 1_545
O12 S10 1.527128 1_565
O12 Sn2 2.038077 1_565
O13 S11 1.457524 1_565
O14 S6 1.456083 1_555
O15 S7 1.528763 1_555
O15 Sn2 2.027376 1_555
O16 S8 1.456853 1_455
O17 S9 1.526409 1_555
O17 Sn2 2.039727 1_565
O18 S2 1.450887 1_555
O19 S3 1.541860 1_555
O19 Sn3 2.020501 1_555
O20 S4 1.540517 1_455
O20 Sn3 2.024832 1_445
O21 S5 1.451694 1_555
O22 S0 1.504792 1_565
O22 Sn3 2.085615 1_455
O23 S1 1.458334 1_565
O24 S12 1.461244 1_555
O25 S13 1.470535 1_555
O26 S14 1.468404 1_555
O27 S15 1.460340 1_555
O28 S16 1.463523 1_555
O29 S17 1.467839 1_555
O30 S18 1.563202 1_555
O30 Sn4 2.087757 1_555
O31 S19 1.458553 1_555
O32 S20 1.540550 1_555
O32 Sn4 2.149803 1_555
O33 S21 1.462675 1_555
O34 S22 1.529820 1_555
O34 Sn4 2.164088 1_555
O35 S23 1.468951 1_555
O36 S22 1.451188 1_555
O37 S23 1.462809 1_555
O38 S18 1.455714 1_555
O39 S19 1.454867 1_555
O40 S20 1.453893 1_555
O41 S21 1.455817 1_555
O42 S14 1.466949 1_555
O43 S15 1.460086 1_555
O44 S16 1.462098 1_555
O45 S17 1.463965 1_555
O46 S12 1.462121 1_555
O47 S13 1.465055 1_555
O48 S24 1.563802 1_555
O48 Sn5 2.030401 1_556
O49 S25 1.532402 1_555
O49 Sn6 2.104255 1_556
O50 S26 1.554618 1_555
O50 Sn5 2.109616 1_556
O51 S27 1.539868 1_555
O51 Sn6 2.044485 1_556
O52 S28 1.538824 1_555
O52 Sn5 2.122755 1_556
O53 S29 1.554919 1_555
O53 Sn6 2.016905 1_556
O54 S30 1.501684 1_555
O54 Sn7 2.201320 1_555
O55 S31 1.538147 1_555
O55 Sn8 2.053143 1_555
O56 S32 1.529829 1_555
O56 Sn7 2.032222 1_555
O57 S33 1.513079 1_555
O57 Sn8 2.193856 1_555
O58 S34 1.527138 1_555
O58 Sn7 2.063909 1_555
O59 S35 1.519032 1_555
O59 Sn8 2.150283 1_555
O60 S34 1.466499 1_555
O61 S35 1.451635 1_555
O62 S30 1.456973 1_555
O63 S31 1.459168 1_555
O64 S32 1.460625 1_555
O65 S33 1.455827 1_555
O66 S26 1.446728 1_555
O67 S27 1.451942 1_555
O68 S28 1.441749 1_555
O69 S29 1.453389 1_555
O70 S24 1.446648 1_555
O71 S25 1.449944 1_555
O72 S34 1.478565 1_555
O73 S35 1.517440 1_555
O73 Sn0 2.119206 1_555
O74 S30 1.534526 1_555
O74 Sn0 2.050500 1_555
O75 S31 1.475252 1_555
O76 S32 1.475916 1_555
O77 S33 1.523297 1_555
O77 Sn0 2.109978 1_545
O78 S26 1.503268 1_555
O78 Sn1 2.140064 1_445
O79 S27 1.475743 1_555
O80 S28 1.500176 1_555
O80 Sn1 2.135565 1_455
O81 S29 1.477087 1_555
O82 S24 1.471938 1_555
O83 S25 1.510800 1_555
O83 Sn1 2.106694 1_555
O84 S12 1.503907 1_555
O84 Sn2 2.108525 1_555
O85 S13 1.478714 1_455
O86 S14 1.474097 1_565
O87 S15 1.511668 1_565
O87 Sn2 2.080975 1_565
O88 S16 1.505780 1_555
O88 Sn2 2.088975 1_565
O89 S17 1.477803 1_555
O90 S18 1.464834 1_555
O91 S19 1.512950 1_455
O91 Sn3 2.099619 1_455
O92 S20 1.459601 1_555
O93 S21 1.521977 1_565
O93 Sn3 2.083682 1_555
O94 S22 1.490893 1_555
O94 Sn3 2.107727 1_445
O95 S23 1.481538 1_555
O96 S10 1.476978 1_555
O97 S11 1.476552 1_555
O98 S6 1.480195 1_555
O99 S7 1.472493 1_555
O100 S9 1.477259 1_555
O101 S8 1.476900 1_555
O102 S2 1.541799 1_555
O102 Sn4 2.172673 1_555
O103 S3 1.473209 1_555
O104 S5 1.543756 1_555
O104 Sn4 2.165910 1_555
O105 S4 1.473418 1_555
O106 S0 1.534213 1_555
O106 Sn4 2.068773 1_555
O107 S1 1.477427 1_555
O108 S24 1.466859 1_555
O109 S25 1.467351 1_555
O110 S27 1.474293 1_555
O111 S26 1.463245 1_655
O112 S28 1.469047 1_545
O113 S29 1.468257 1_545
O114 S30 1.469114 1_545
O115 S31 1.469272 1_545
O116 S32 1.475773 1_555
O117 S33 1.464794 1_555
O118 S35 1.469694 1_555
O119 S34 1.470685 1_655
O120 S22 1.495820 1_555
O120 Sn5 2.281494 1_555
O121 S23 1.521868 1_555
O121 Sn6 2.023241 1_555
O122 S19 1.531403 1_455
O122 Sn5 2.052104 1_555
O123 S18 1.483439 1_555
O123 Sn6 2.273204 1_555
O124 S20 1.503657 1_565
O124 Sn5 2.177557 1_555
O125 S21 1.511576 1_565
O125 Sn6 2.085196 1_555
O126 S14 1.519813 1_565
O126 Sn7 2.015778 1_555
O127 S15 1.520231 1_565
O127 Sn8 2.100037 1_555
O128 S16 1.508458 1_555
O128 Sn7 2.073664 1_555
O129 S17 1.530280 1_555
O129 Sn8 2.047166 1_555
O130 S13 1.525262 1_455
O130 Sn7 2.061618 1_555
O131 S12 1.517282 1_555
O131 Sn8 2.059638 1_555
O132 S0 1.450348 1_565
O133 S1 1.447567 1_565
O134 S2 1.445083 1_555
O135 S3 1.458501 1_555
O136 S4 1.460282 1_455
O137 S5 1.442839 1_555
O138 S6 1.448553 1_555
O139 S7 1.457703 1_555
O140 S8 1.450015 1_455
O141 S9 1.456468 1_555
O142 S10 1.456937 1_565
O143 S11 1.449498 1_565
