# generated using pymatgen
data_CaAl12O19
_symmetry_space_group_name_H-M   'P 1'
_cell_length_a   5.61588022
_cell_length_b   5.61588022
_cell_length_c   22.05087000
_cell_angle_alpha   90.00000000
_cell_angle_beta   90.00000000
_cell_angle_gamma   120.00000261
_symmetry_Int_Tables_number   1
_chemical_formula_structural   CaAl12O19
_chemical_formula_sum   'Ca2 Al24 O38'
_cell_volume   602.27109697
_cell_formula_units_Z   2
loop_
 _symmetry_equiv_pos_site_id
 _symmetry_equiv_pos_as_xyz
  1  'x, y, z'
loop_
 _atom_site_type_symbol
 _atom_site_label
 _atom_site_symmetry_multiplicity
 _atom_site_fract_x
 _atom_site_fract_y
 _atom_site_fract_z
 _atom_site_occupancy
  Ca  Ca0  1  0.66666700  0.33333300  0.25000000  1
  Ca  Ca1  1  0.33333300  0.66666700  0.75000000  1
  Al  Al0  1  0.00000000  0.00000000  0.75000000  1
  Al  Al1  1  0.00000000  0.00000000  0.25000000  1
  Al  Al2  1  0.00000000  0.00000000  0.50000000  1
  Al  Al3  1  0.00000000  0.00000000  0.00000000  1
  Al  Al4  1  0.33333300  0.66666700  0.30896900  1
  Al  Al5  1  0.66666700  0.33333300  0.80896900  1
  Al  Al6  1  0.66666700  0.33333300  0.69103100  1
  Al  Al7  1  0.33333300  0.66666700  0.19103100  1
  Al  Al8  1  0.33333300  0.66666700  0.47195400  1
  Al  Al9  1  0.66666700  0.33333300  0.97195400  1
  Al  Al10  1  0.66666700  0.33333300  0.52804600  1
  Al  Al11  1  0.33333300  0.66666700  0.02804600  1
  Al  Al12  1  0.16834500  0.83165500  0.60956900  1
  Al  Al13  1  0.16834500  0.33668900  0.60956900  1
  Al  Al14  1  0.66331100  0.83165500  0.60956900  1
  Al  Al15  1  0.33668900  0.16834500  0.10956900  1
  Al  Al16  1  0.83165500  0.66331100  0.39043100  1
  Al  Al17  1  0.83165500  0.16834500  0.10956900  1
  Al  Al18  1  0.83165500  0.66331100  0.10956900  1
  Al  Al19  1  0.16834500  0.83165500  0.89043100  1
  Al  Al20  1  0.66331100  0.83165500  0.89043100  1
  Al  Al21  1  0.33668900  0.16834500  0.39043100  1
  Al  Al22  1  0.83165500  0.16834500  0.39043100  1
  Al  Al23  1  0.16834500  0.33668900  0.89043100  1
  O  O0  1  0.81841200  0.63682400  0.75000000  1
  O  O1  1  0.18158800  0.81841200  0.25000000  1
  O  O2  1  0.63682400  0.81841200  0.25000000  1
  O  O3  1  0.36317600  0.18158800  0.75000000  1
  O  O4  1  0.81841200  0.18158800  0.75000000  1
  O  O5  1  0.18158800  0.36317600  0.25000000  1
  O  O6  1  0.00000000  0.00000000  0.35007000  1
  O  O7  1  0.00000000  0.00000000  0.85007000  1
  O  O8  1  0.00000000  0.00000000  0.64993000  1
  O  O9  1  0.00000000  0.00000000  0.14993000  1
  O  O10  1  0.33333300  0.66666700  0.55475600  1
  O  O11  1  0.66666700  0.33333300  0.05475600  1
  O  O12  1  0.66666700  0.33333300  0.44524400  1
  O  O13  1  0.33333300  0.66666700  0.94524400  1
  O  O14  1  0.50350500  0.49649500  0.35044300  1
  O  O15  1  0.15516600  0.84483400  0.44772100  1
  O  O16  1  0.50350500  0.00701000  0.35044300  1
  O  O17  1  0.00701000  0.50350500  0.85044300  1
  O  O18  1  0.49649500  0.99299000  0.64955700  1
  O  O19  1  0.49649500  0.50350500  0.85044300  1
  O  O20  1  0.49649500  0.99299000  0.85044300  1
  O  O21  1  0.50350500  0.49649500  0.14955700  1
  O  O22  1  0.99299000  0.49649500  0.14955700  1
  O  O23  1  0.00701000  0.50350500  0.64955700  1
  O  O24  1  0.49649500  0.50350500  0.64955700  1
  O  O25  1  0.50350500  0.00701000  0.14955700  1
  O  O26  1  0.15516600  0.31033300  0.05227900  1
  O  O27  1  0.84483400  0.15516600  0.55227900  1
  O  O28  1  0.31033300  0.15516600  0.55227900  1
  O  O29  1  0.68966700  0.84483400  0.05227900  1
  O  O30  1  0.15516600  0.84483400  0.05227900  1
  O  O31  1  0.84483400  0.68966700  0.94772100  1
  O  O32  1  0.84483400  0.15516600  0.94772100  1
  O  O33  1  0.84483400  0.68966700  0.55227900  1
  O  O34  1  0.31033300  0.15516600  0.94772100  1
  O  O35  1  0.68966700  0.84483400  0.44772100  1
  O  O36  1  0.15516600  0.31033300  0.44772100  1
  O  O37  1  0.99299000  0.49649500  0.35044300  1
loop_
_geom_bond_atom_site_label_1
_geom_bond_atom_site_label_2
_geom_bond_distance
_geom_bond_site_symmetry_2
Ca0 O37 2.724771 1_555
Ca0 O22 2.724771 1_555
Ca0 O25 2.724771 1_555
Ca0 O16 2.724771 1_555
Ca0 O14 2.724774 1_555
Ca0 O21 2.724774 1_555
Ca0 O2 2.811686 1_545
Ca0 O5 2.811686 1_655
Ca0 O1 2.811688 1_545
Ca0 O1 2.811688 1_655
Ca0 O5 2.811692 1_555
Ca0 O2 2.811692 1_555
Ca1 O23 2.724771 1_555
Ca1 O20 2.724771 1_555
Ca1 O17 2.724771 1_555
Ca1 O18 2.724771 1_555
Ca1 O24 2.724774 1_555
Ca1 O19 2.724774 1_555
Ca1 O0 2.811686 1_455
Ca1 O3 2.811686 1_565
Ca1 O4 2.811688 1_565
Ca1 O4 2.811688 1_455
Ca1 O3 2.811692 1_555
Ca1 O0 2.811692 1_555
Al0 O3 1.766305 1_555
Al0 O0 1.766305 1_445
Al0 O4 1.766305 1_455
Al0 O7 2.206631 1_555
Al0 O8 2.206631 1_555
Al1 O2 1.766305 1_445
Al1 O5 1.766305 1_555
Al1 O1 1.766305 1_545
Al1 O9 2.206631 1_555
Al1 O6 2.206631 1_555
Al2 O27 1.899190 1_455
Al2 O15 1.899190 1_545
Al2 O28 1.899194 1_555
Al2 O33 1.899194 1_445
Al2 O35 1.899194 1_445
Al2 O36 1.899194 1_555
Al3 O32 1.899190 1_454
Al3 O30 1.899190 1_545
Al3 O31 1.899194 1_444
Al3 O34 1.899194 1_554
Al3 O26 1.899194 1_555
Al3 O29 1.899194 1_445
Al4 O37 1.891098 1_455
Al4 O16 1.891098 1_565
Al4 O14 1.891103 1_555
Al4 O1 1.967096 1_555
Al4 O2 1.967100 1_555
Al4 O5 1.967100 1_555
Al5 O17 1.891098 1_655
Al5 O20 1.891098 1_545
Al5 O19 1.891103 1_555
Al5 O4 1.967096 1_555
Al5 O0 1.967100 1_555
Al5 O3 1.967100 1_555
Al6 O18 1.891098 1_545
Al6 O23 1.891098 1_655
Al6 O24 1.891103 1_555
Al6 O4 1.967096 1_555
Al6 O3 1.967100 1_555
Al6 O0 1.967100 1_555
Al7 O22 1.891098 1_455
Al7 O25 1.891098 1_565
Al7 O21 1.891103 1_555
Al7 O1 1.967096 1_555
Al7 O2 1.967100 1_555
Al7 O5 1.967100 1_555
Al8 O36 1.813540 1_555
Al8 O35 1.813540 1_555
Al8 O15 1.813540 1_555
Al8 O10 1.825856 1_555
Al9 O34 1.813540 1_555
Al9 O31 1.813540 1_555
Al9 O32 1.813540 1_555
Al9 O11 1.825856 1_556
Al10 O28 1.813540 1_555
Al10 O33 1.813540 1_555
Al10 O27 1.813540 1_555
Al10 O12 1.825856 1_555
Al11 O26 1.813540 1_555
Al11 O29 1.813540 1_555
Al11 O30 1.813540 1_555
Al11 O13 1.825856 1_554
Al12 O18 1.823412 1_555
Al12 O23 1.823412 1_555
Al12 O8 1.863724 1_565
Al12 O10 2.009078 1_555
Al12 O28 2.020843 1_565
Al12 O33 2.020843 1_455
Al13 O24 1.823412 1_555
Al13 O23 1.823416 1_555
Al13 O8 1.863719 1_555
Al13 O10 2.009086 1_555
Al13 O27 2.020843 1_455
Al13 O28 2.020843 1_555
Al14 O24 1.823412 1_555
Al14 O18 1.823416 1_555
Al14 O8 1.863719 1_665
Al14 O10 2.009086 1_555
Al14 O27 2.020843 1_565
Al14 O33 2.020843 1_555
Al15 O21 1.823412 1_555
Al15 O25 1.823416 1_555
Al15 O9 1.863719 1_555
Al15 O11 2.009086 1_555
Al15 O30 2.020843 1_545
Al15 O26 2.020843 1_555
Al16 O14 1.823412 1_555
Al16 O37 1.823416 1_555
Al16 O6 1.863719 1_665
Al16 O12 2.009086 1_555
Al16 O15 2.020843 1_655
Al16 O35 2.020843 1_555
Al17 O25 1.823412 1_555
Al17 O22 1.823412 1_555
Al17 O9 1.863724 1_655
Al17 O11 2.009078 1_555
Al17 O26 2.020843 1_655
Al17 O29 2.020843 1_545
Al18 O21 1.823412 1_555
Al18 O22 1.823416 1_555
Al18 O9 1.863719 1_665
Al18 O11 2.009086 1_555
Al18 O30 2.020843 1_655
Al18 O29 2.020843 1_555
Al19 O20 1.823412 1_555
Al19 O17 1.823412 1_555
Al19 O7 1.863724 1_565
Al19 O13 2.009078 1_555
Al19 O34 2.020843 1_565
Al19 O31 2.020843 1_455
Al20 O19 1.823412 1_555
Al20 O20 1.823416 1_555
Al20 O7 1.863719 1_665
Al20 O13 2.009086 1_555
Al20 O32 2.020843 1_565
Al20 O31 2.020843 1_555
Al21 O14 1.823412 1_555
Al21 O16 1.823416 1_555
Al21 O6 1.863719 1_555
Al21 O12 2.009086 1_555
Al21 O15 2.020843 1_545
Al21 O36 2.020843 1_555
Al22 O16 1.823412 1_555
Al22 O37 1.823412 1_555
Al22 O6 1.863724 1_655
Al22 O12 2.009078 1_555
Al22 O36 2.020843 1_655
Al22 O35 2.020843 1_545
Al23 O19 1.823412 1_555
Al23 O17 1.823416 1_555
Al23 O7 1.863719 1_555
Al23 O13 2.009086 1_555
Al23 O32 2.020843 1_455
Al23 O34 2.020843 1_555
