# generated using pymatgen
data_Na14Y4Si9Ge4(SO16)3
_symmetry_space_group_name_H-M   'P 1'
_cell_length_a   18.31671814
_cell_length_b   9.10648118
_cell_length_c   22.33464576
_cell_angle_alpha   89.92962167
_cell_angle_beta   88.75006576
_cell_angle_gamma   119.95874570
_symmetry_Int_Tables_number   1
_chemical_formula_structural   Na14Y4Si9Ge4(SO16)3
_chemical_formula_sum   'Na42 Y12 Si27 Ge12 S9 O144'
_cell_volume   3226.58019618
_cell_formula_units_Z   3
loop_
 _symmetry_equiv_pos_site_id
 _symmetry_equiv_pos_as_xyz
  1  'x, y, z'
loop_
 _atom_site_type_symbol
 _atom_site_label
 _atom_site_symmetry_multiplicity
 _atom_site_fract_x
 _atom_site_fract_y
 _atom_site_fract_z
 _atom_site_occupancy
  Na  Na0  1  0.82393995  0.01551437  0.25410783  1
  Na  Na1  1  0.17806518  0.35731063  0.25558317  1
  Na  Na2  1  0.69154842  0.36909899  0.25328415  1
  Na  Na3  1  0.00111656  0.63074165  0.24724972  1
  Na  Na4  1  0.49696470  0.63796496  0.24789345  1
  Na  Na5  1  0.32303304  0.63017707  0.74958812  1
  Na  Na6  1  0.99437127  0.35335735  0.73883546  1
  Na  Na7  1  0.50286155  0.37380898  0.74355846  1
  Na  Na8  1  0.18967328  0.01194985  0.74864579  1
  Na  Na9  1  0.68218140  0.00417467  0.74818357  1
  Na  Na10  1  0.14561929  0.32120967  0.58041677  1
  Na  Na11  1  0.65706678  0.32951157  0.58234680  1
  Na  Na12  1  0.33652099  0.98409981  0.58690632  1
  Na  Na13  1  0.83390484  0.97261721  0.58422418  1
  Na  Na14  1  0.15281641  0.97893326  0.07967769  1
  Na  Na15  1  0.64901954  0.96972643  0.07829240  1
  Na  Na16  1  0.33252619  0.69379730  0.08135800  1
  Na  Na17  1  0.83687967  0.69135590  0.08752559  1
  Na  Na18  1  0.47789435  0.67150836  0.91681329  1
  Na  Na19  1  0.97812059  0.67703733  0.92472570  1
  Na  Na20  1  0.34397476  0.02432503  0.90779754  1
  Na  Na21  1  0.84572018  0.02668162  0.90986841  1
  Na  Na22  1  0.17274495  0.29348495  0.91029357  1
  Na  Na23  1  0.66846686  0.28409470  0.91061483  1
  Na  Na24  1  0.48223644  0.28864760  0.42873257  1
  Na  Na25  1  0.97661303  0.28066477  0.42129716  1
  Na  Na26  1  0.16767931  0.05403301  0.41485915  1
  Na  Na27  1  0.67413348  0.05014466  0.41730918  1
  Na  Na28  1  0.34776728  0.66712007  0.41390160  1
  Na  Na29  1  0.84569963  0.66476789  0.42032277  1
  Na  Na30  1  0.99663694  0.99331957  0.50574115  1
  Na  Na31  1  0.50612763  0.00829915  0.50844086  1
  Na  Na32  1  0.00291545  0.99820538  0.00623883  1
  Na  Na33  1  0.50253041  0.99730698  0.00229415  1
  Na  Na34  1  0.32895265  0.33389946  0.82575125  1
  Na  Na35  1  0.82110528  0.33223812  0.82398434  1
  Na  Na36  1  0.32142390  0.30852491  0.33074045  1
  Na  Na37  1  0.82853222  0.32289013  0.33183027  1
  Na  Na38  1  0.15868939  0.65658375  0.16604207  1
  Na  Na39  1  0.66541160  0.66011912  0.16416610  1
  Na  Na40  1  0.16362187  0.66948829  0.66203181  1
  Na  Na41  1  0.66250976  0.66331802  0.66527901  1
  Y  Y0  1  0.00461905  0.01138314  0.35127364  1
  Y  Y1  1  0.49845748  0.00444023  0.35218767  1
  Y  Y2  1  0.99591679  0.99395002  0.84877354  1
  Y  Y3  1  0.50438604  0.99739811  0.84999740  1
  Y  Y4  1  0.33693882  0.32666332  0.67790600  1
  Y  Y5  1  0.83738875  0.34687625  0.17864455  1
  Y  Y6  1  0.32822070  0.33399788  0.98834348  1
  Y  Y7  1  0.82317962  0.33861085  0.98558017  1
  Y  Y8  1  0.32573536  0.31078730  0.48554038  1
  Y  Y9  1  0.82971984  0.33286188  0.49154835  1
  Y  Y10  1  0.67386352  0.67615574  0.31291902  1
  Y  Y11  1  0.17323315  0.66901212  0.80974612  1
  Si  Si0  1  0.16104202  0.00592539  0.24873794  1
  Si  Si1  1  0.64665060  0.99573374  0.24798105  1
  Si  Si2  1  0.35528796  0.70978281  0.24739733  1
  Si  Si3  1  0.85937294  0.71840495  0.24647515  1
  Si  Si4  1  0.00638013  0.30307351  0.25214373  1
  Si  Si5  1  0.14245231  0.28801345  0.74556110  1
  Si  Si6  1  0.66019417  0.31736798  0.75054717  1
  Si  Si7  1  0.50603617  0.70967263  0.75287431  1
  Si  Si8  1  0.35946118  0.00094556  0.74683937  1
  Si  Si9  1  0.85449460  0.01382621  0.74721540  1
  Si  Si10  1  0.49400390  0.33326375  0.58218988  1
  Si  Si11  1  0.98329832  0.33983535  0.58442556  1
  Si  Si12  1  0.16956741  0.00737834  0.58399018  1
  Si  Si13  1  0.67618005  0.01667945  0.58528184  1
  Si  Si14  1  0.84170459  0.63795132  0.58542203  1
  Si  Si15  1  0.48260451  0.62811673  0.08537125  1
  Si  Si16  1  0.99336254  0.65265522  0.08172971  1
  Si  Si17  1  0.17548246  0.33476058  0.08518246  1
  Si  Si18  1  0.66734722  0.32897173  0.08475377  1
  Si  Si19  1  0.31187606  0.67026428  0.92219621  1
  Si  Si20  1  0.80020193  0.66411229  0.91534410  1
  Si  Si21  1  0.16543522  0.95514264  0.91811855  1
  Si  Si22  1  0.66736217  0.93931885  0.91736088  1
  Si  Si23  1  0.30003155  0.93753529  0.41525368  1
  Si  Si24  1  0.81313469  0.95824447  0.42251586  1
  Si  Si25  1  0.16819121  0.39581210  0.41695816  1
  Si  Si26  1  0.66726647  0.37565157  0.41912647  1
  Ge  Ge0  1  0.99585363  0.00945432  0.64524759  1
  Ge  Ge1  1  0.51870926  0.03181851  0.65874807  1
  Ge  Ge2  1  0.01824610  0.00702464  0.15874039  1
  Ge  Ge3  1  0.50363260  0.98310016  0.15004606  1
  Ge  Ge4  1  0.82467091  0.31299754  0.67547528  1
  Ge  Ge5  1  0.32569408  0.35943806  0.18059249  1
  Ge  Ge6  1  0.16322984  0.66219971  0.01881007  1
  Ge  Ge7  1  0.65946567  0.65498394  0.01901440  1
  Ge  Ge8  1  0.15887693  0.66283908  0.51869866  1
  Ge  Ge9  1  0.68070873  0.66199278  0.52847523  1
  Ge  Ge10  1  0.18068270  0.67576224  0.30551465  1
  Ge  Ge11  1  0.68137849  0.68896620  0.80468388  1
  S  S0  1  0.49251524  0.28865025  0.24514518  1
  S  S1  1  0.99343999  0.69532728  0.74685103  1
  S  S2  1  0.33180368  0.64424146  0.58038792  1
  S  S3  1  0.33581712  0.03555002  0.08578171  1
  S  S4  1  0.83183237  0.01985691  0.08024494  1
  S  S5  1  0.02121720  0.37542935  0.92114585  1
  S  S6  1  0.52566114  0.38478798  0.91772919  1
  S  S7  1  0.02673559  0.66448171  0.41543945  1
  S  S8  1  0.51996592  0.66541713  0.41920537  1
  O  O0  1  0.12930172  0.06242149  0.30811566  1
  O  O1  1  0.60942479  0.03000532  0.30947890  1
  O  O2  1  0.40928520  0.76997391  0.30702291  1
  O  O3  1  0.90899632  0.79120428  0.30795602  1
  O  O4  1  0.48255258  0.20182440  0.30353632  1
  O  O5  1  0.98607530  0.20307050  0.31537310  1
  O  O6  1  0.11008387  0.19320602  0.81091751  1
  O  O7  1  0.62513079  0.20071435  0.81109655  1
  O  O8  1  0.48511875  0.76523694  0.81702585  1
  O  O9  1  0.98455502  0.76262014  0.80621895  1
  O  O10  1  0.40530594  0.02213770  0.81019848  1
  O  O11  1  0.90566210  0.05469359  0.80929421  1
  O  O12  1  0.41587436  0.98274843  0.69022980  1
  O  O13  1  0.90452931  0.98558207  0.69131693  1
  O  O14  1  0.07835247  0.17131129  0.69219330  1
  O  O15  1  0.59331530  0.22771321  0.69504180  1
  O  O16  1  0.00423923  0.81200543  0.69768772  1
  O  O17  1  0.52614608  0.86077326  0.70241611  1
  O  O18  1  0.40412831  0.83330073  0.18831598  1
  O  O19  1  0.91511433  0.84763495  0.18818513  1
  O  O20  1  0.02717843  0.19475833  0.20062747  1
  O  O21  1  0.50282848  0.19258495  0.19507347  1
  O  O22  1  0.09545247  0.96343971  0.19256445  1
  O  O23  1  0.58443678  0.97882189  0.19111802  1
  O  O24  1  0.45496510  0.36897762  0.64163079  1
  O  O25  1  0.93119119  0.36174439  0.64247201  1
  O  O26  1  0.23590290  0.08658519  0.63836690  1
  O  O27  1  0.74647209  0.11512034  0.63920809  1
  O  O28  1  0.32010977  0.53885924  0.63486988  1
  O  O29  1  0.81741333  0.48136948  0.63423794  1
  O  O30  1  0.42853438  0.49765914  0.14325294  1
  O  O31  1  0.95594684  0.53999286  0.14152659  1
  O  O32  1  0.32406931  0.13295702  0.13514808  1
  O  O33  1  0.82007286  0.10091860  0.13465697  1
  O  O34  1  0.24803024  0.38520075  0.13852104  1
  O  O35  1  0.73266175  0.37846178  0.13910993  1
  O  O36  1  0.20949625  0.27988397  0.02694138  1
  O  O37  1  0.70335563  0.27323657  0.02641512  1
  O  O38  1  0.42862200  0.56404391  0.02596347  1
  O  O39  1  0.93046244  0.56899503  0.02489616  1
  O  O40  1  0.34828786  0.12264495  0.02733639  1
  O  O41  1  0.83949033  0.12219687  0.02617554  1
  O  O42  1  0.20723641  0.13369288  0.52516914  1
  O  O43  1  0.70794277  0.13723925  0.52596926  1
  O  O44  1  0.33993965  0.55787451  0.52624602  1
  O  O45  1  0.85939659  0.58636065  0.52002756  1
  O  O46  1  0.42976458  0.28744081  0.52570372  1
  O  O47  1  0.93053456  0.29604611  0.52422974  1
  O  O48  1  0.25738208  0.68359092  0.98179762  1
  O  O49  1  0.75284732  0.67848913  0.97733127  1
  O  O50  1  0.07562186  0.46398654  0.97297433  1
  O  O51  1  0.57476243  0.46733055  0.97255836  1
  O  O52  1  0.15752644  0.83102635  0.97646251  1
  O  O53  1  0.65346630  0.82425155  0.97987840  1
  O  O54  1  0.25209355  0.82581089  0.47643192  1
  O  O55  1  0.75923852  0.83353545  0.48112447  1
  O  O56  1  0.15452156  0.48436446  0.47835371  1
  O  O57  1  0.66228996  0.48581668  0.47704267  1
  O  O58  1  0.07557494  0.68085146  0.47038413  1
  O  O59  1  0.57338752  0.68055343  0.46881685  1
  O  O60  1  0.06683348  0.64808150  0.35966551  1
  O  O61  1  0.55371879  0.64585722  0.36016457  1
  O  O62  1  0.24452790  0.84991248  0.35512657  1
  O  O63  1  0.76137353  0.88466333  0.36085181  1
  O  O64  1  0.17864894  0.50627868  0.35440300  1
  O  O65  1  0.66933871  0.46188949  0.35452068  1
  O  O66  1  0.05701138  0.46972497  0.86430195  1
  O  O67  1  0.56378583  0.48213844  0.86232296  1
  O  O68  1  0.17184284  0.87417065  0.85495654  1
  O  O69  1  0.67772327  0.84774389  0.85625866  1
  O  O70  1  0.25833578  0.63703801  0.86195247  1
  O  O71  1  0.74390701  0.64085437  0.85606206  1
  O  O72  1  0.02101512  0.82208001  0.41527430  1
  O  O73  1  0.51027278  0.81920362  0.41847096  1
  O  O74  1  0.39319772  0.95581411  0.41521277  1
  O  O75  1  0.90341110  0.96147009  0.42349789  1
  O  O76  1  0.08692721  0.20463197  0.41953770  1
  O  O77  1  0.58018133  0.18877099  0.42407823  1
  O  O78  1  0.01319786  0.20538748  0.92038694  1
  O  O79  1  0.51960921  0.21527743  0.91778917  1
  O  O80  1  0.08020079  0.97292617  0.92232130  1
  O  O81  1  0.58612445  0.96764652  0.92032609  1
  O  O82  1  0.40191632  0.84647150  0.92491015  1
  O  O83  1  0.89392079  0.83272583  0.91580011  1
  O  O84  1  0.50260541  0.16002684  0.59237945  1
  O  O85  1  0.99479679  0.16998965  0.59323418  1
  O  O86  1  0.07903512  0.00183956  0.59580620  1
  O  O87  1  0.58544643  0.00938410  0.60053164  1
  O  O88  1  0.40540731  0.81402196  0.58335192  1
  O  O89  1  0.91663341  0.83162806  0.59932293  1
  O  O90  1  0.49135432  0.82000449  0.09396275  1
  O  O91  1  0.00334568  0.84391862  0.09094792  1
  O  O92  1  0.40866912  0.00781382  0.09250119  1
  O  O93  1  0.90564786  0.99792295  0.08276857  1
  O  O94  1  0.08557983  0.16088415  0.09972648  1
  O  O95  1  0.57356854  0.15236075  0.09639693  1
  O  O96  1  0.34529156  0.16348314  0.74512085  1
  O  O97  1  0.84122474  0.18133264  0.73690190  1
  O  O98  1  0.23849843  0.32189055  0.73965790  1
  O  O99  1  0.74904990  0.31744624  0.73501713  1
  O  O100  1  0.42299789  0.52749790  0.74147533  1
  O  O101  1  0.91980263  0.52343216  0.74286610  1
  O  O102  1  0.34267688  0.51382559  0.23909183  1
  O  O103  1  0.84514268  0.52748817  0.24398633  1
  O  O104  1  0.41897866  0.31353994  0.24031301  1
  O  O105  1  0.92375217  0.31902728  0.24065260  1
  O  O106  1  0.25276502  0.18429420  0.23084611  1
  O  O107  1  0.74145257  0.15564789  0.24099848  1
  O  O108  1  0.32532068  0.50622058  0.92403717  1
  O  O109  1  0.81217893  0.49609385  0.91615243  1
  O  O110  1  0.43952093  0.36065908  0.92389316  1
  O  O111  1  0.93646272  0.35709013  0.92800249  1
  O  O112  1  0.25285396  0.13872028  0.92089305  1
  O  O113  1  0.75371470  0.12586525  0.91877890  1
  O  O114  1  0.31223421  0.12946497  0.41548741  1
  O  O115  1  0.82594929  0.14842924  0.42444782  1
  O  O116  1  0.25439676  0.38226634  0.41775739  1
  O  O117  1  0.75289187  0.36149601  0.41887173  1
  O  O118  1  0.43355723  0.51328531  0.42402966  1
  O  O119  1  0.94164357  0.51428202  0.41974592  1
  O  O120  1  0.17333715  0.51256117  0.07703536  1
  O  O121  1  0.66466900  0.50667801  0.07304595  1
  O  O122  1  0.08956109  0.67255652  0.07361361  1
  O  O123  1  0.57968959  0.66116717  0.08017334  1
  O  O124  1  0.25646369  0.86486754  0.08544268  1
  O  O125  1  0.75227953  0.84840334  0.07873016  1
  O  O126  1  0.16666071  0.82409751  0.57241879  1
  O  O127  1  0.67500290  0.83535459  0.57854211  1
  O  O128  1  0.25239074  0.65513824  0.57861787  1
  O  O129  1  0.75258664  0.64926172  0.58418292  1
  O  O130  1  0.08143103  0.50196098  0.57831792  1
  O  O131  1  0.58907385  0.50261797  0.57365015  1
  O  O132  1  0.16007324  0.82387531  0.25519501  1
  O  O133  1  0.64408964  0.81488659  0.24401820  1
  O  O134  1  0.25938183  0.68072868  0.24996570  1
  O  O135  1  0.76727679  0.70611226  0.24198316  1
  O  O136  1  0.09321418  0.49668978  0.25521228  1
  O  O137  1  0.57113208  0.45896367  0.24536133  1
  O  O138  1  0.14162913  0.46634014  0.74221800  1
  O  O139  1  0.65931702  0.49852987  0.75662537  1
  O  O140  1  0.07177677  0.68168620  0.74743304  1
  O  O141  1  0.59278252  0.69074402  0.75609116  1
  O  O142  1  0.26741385  0.82836949  0.74126155  1
  O  O143  1  0.75913013  0.84460368  0.75096513  1
loop_
_geom_bond_atom_site_label_1
_geom_bond_atom_site_label_2
_geom_bond_distance
_geom_bond_site_symmetry_2
Na0 O107 2.437437 1_555
Na0 O105 2.449338 1_555
Na0 O135 2.486501 1_545
Na0 O63 2.631931 1_545
Na0 O33 2.790287 1_555
Na0 O133 2.874577 1_545
Na0 O5 2.954014 1_555
Na1 O136 2.448944 1_555
Na1 O134 2.553055 1_555
Na1 O64 2.589522 1_555
Na1 O106 2.604237 1_555
Na1 O102 2.629902 1_555
Na1 O0 2.633772 1_555
Na1 O20 2.720760 1_555
Na1 O34 2.840733 1_555
Na2 O103 2.441190 1_555
Na2 O65 2.509958 1_555
Na2 O107 2.540488 1_555
Na2 O35 2.632231 1_555
Na2 O135 2.671641 1_555
Na2 O137 2.717577 1_555
Na2 O1 2.939781 1_555
Na3 O105 2.465806 1_455
Na3 O31 2.519980 1_455
Na3 O103 2.525427 1_455
Na3 O136 2.537093 1_555
Na3 O132 2.551645 1_555
Na3 O60 2.778635 1_555
Na3 O22 2.885633 1_555
Na4 O133 2.349165 1_555
Na4 O102 2.477327 1_555
Na4 O104 2.567939 1_555
Na4 O137 2.591222 1_555
Na4 O30 2.683521 1_555
Na4 O61 2.722702 1_555
Na4 O2 2.758268 1_555
Na4 O23 2.957116 1_555
Na5 O100 2.440432 1_555
Na5 O98 2.450144 1_555
Na5 O142 2.484700 1_555
Na5 O28 2.688117 1_555
Na5 O70 2.766043 1_555
Na6 O138 2.361566 1_655
Na6 O97 2.437478 1_555
Na6 O25 2.484704 1_555
Na6 O101 2.525893 1_555
Na6 O140 2.601176 1_655
Na6 O11 2.824532 1_555
Na6 O14 2.946359 1_655
Na6 O66 3.037306 1_655
Na7 O24 2.450095 1_555
Na7 O100 2.479606 1_555
Na7 O139 2.524719 1_555
Na7 O141 2.528920 1_555
Na7 O96 2.544412 1_555
Na7 O15 2.795706 1_555
Na7 O67 2.879350 1_555
Na8 O96 2.469160 1_555
Na8 O98 2.505230 1_555
Na8 O26 2.564299 1_555
Na8 O68 2.620748 1_545
Na8 O142 2.686567 1_545
Na8 O140 2.688031 1_545
Na9 O143 2.480151 1_545
Na9 O141 2.485454 1_545
Na9 O99 2.493503 1_555
Na9 O97 2.534902 1_555
Na9 O27 2.648045 1_555
Na9 O17 2.705884 1_545
Na9 O69 2.780155 1_545
Na9 O7 2.842500 1_555
Na10 O85 2.403144 1_455
Na10 O130 2.455381 1_555
Na10 O86 2.549640 1_555
Na10 O128 2.670227 1_555
Na10 O56 2.676546 1_555
Na10 O42 2.753474 1_555
Na10 O14 2.791334 1_555
Na11 O131 2.458531 1_555
Na11 O84 2.459090 1_555
Na11 O129 2.540995 1_555
Na11 O87 2.557102 1_555
Na11 O43 2.665238 1_555
Na11 O15 2.709821 1_555
Na11 O57 2.722631 1_555
Na11 O29 2.824469 1_555
Na12 O88 2.438221 1_555
Na12 O128 2.605049 1_555
Na12 O84 2.642947 1_565
Na12 O26 2.686403 1_565
Na12 O126 2.724925 1_555
Na12 O46 2.755547 1_565
Na12 O12 2.757240 1_555
Na12 O54 2.916542 1_555
Na13 O89 2.454115 1_555
Na13 O127 2.536301 1_555
Na13 O129 2.551268 1_555
Na13 O85 2.586970 1_565
Na13 O55 2.681702 1_555
Na13 O13 2.718748 1_555
Na13 O27 2.783996 1_565
Na13 O47 2.878070 1_565
Na14 O91 2.382831 1_555
Na14 O122 2.433959 1_555
Na14 O94 2.545285 1_565
Na14 O124 2.584506 1_555
Na14 O36 2.659524 1_565
Na14 O22 2.686315 1_555
Na14 O52 2.692752 1_554
Na15 O123 2.437918 1_555
Na15 O90 2.518657 1_555
Na15 O53 2.588461 1_554
Na15 O125 2.624099 1_555
Na15 O95 2.666921 1_565
Na15 O37 2.677065 1_565
Na15 O23 2.779305 1_555
Na16 O92 2.493584 1_565
Na16 O120 2.538024 1_555
Na16 O124 2.557103 1_555
Na16 O90 2.561404 1_555
Na16 O48 2.618008 1_554
Na16 O34 2.735649 1_555
Na16 O18 2.742396 1_555
Na16 O38 2.830341 1_555
Na17 O93 2.423441 1_555
Na17 O125 2.590589 1_555
Na17 O91 2.648142 1_655
Na17 O19 2.691620 1_555
Na17 O35 2.748418 1_555
Na17 O121 2.762309 1_555
Na17 O39 2.818398 1_555
Na17 O49 2.902753 1_554
Na18 O8 2.362810 1_555
Na18 O81 2.424166 1_555
Na18 O108 2.424911 1_555
Na18 O110 2.557150 1_555
Na18 O82 2.590820 1_555
Na18 O38 2.594471 1_556
Na19 O80 2.392223 1_655
Na19 O39 2.405624 1_556
Na19 O83 2.573903 1_555
Na19 O111 2.617870 1_555
Na19 O109 2.648474 1_555
Na19 O9 2.741616 1_555
Na20 O82 2.372454 1_545
Na20 O112 2.381684 1_555
Na20 O10 2.435101 1_555
Na20 O110 2.692497 1_555
Na20 O79 2.805012 1_555
Na20 O40 2.807216 1_556
Na21 O113 2.280674 1_555
Na21 O83 2.340651 1_545
Na21 O11 2.434672 1_555
Na21 O111 2.649043 1_555
Na21 O78 2.675887 1_655
Na21 O41 2.758490 1_556
Na22 O6 2.479286 1_555
Na22 O112 2.505030 1_555
Na22 O108 2.507806 1_555
Na22 O80 2.550127 1_545
Na22 O78 2.619919 1_555
Na22 O36 2.723051 1_556
Na22 O70 2.903551 1_555
Na23 O109 2.368712 1_555
Na23 O7 2.371960 1_555
Na23 O79 2.475234 1_555
Na23 O81 2.503891 1_545
Na23 O113 2.608934 1_555
Na23 O37 2.691096 1_556
Na24 O46 2.348019 1_555
Na24 O77 2.382930 1_555
Na24 O118 2.610759 1_555
Na24 O74 2.650351 1_545
Na24 O114 2.723621 1_555
Na24 O4 2.907452 1_555
Na25 O115 2.396472 1_555
Na25 O76 2.440829 1_655
Na25 O47 2.459961 1_555
Na25 O5 2.496952 1_555
Na25 O119 2.509820 1_555
Na25 O75 2.520630 1_545
Na26 O114 2.380726 1_555
Na26 O72 2.451548 1_545
Na26 O76 2.469632 1_555
Na26 O0 2.511992 1_555
Na26 O42 2.584284 1_555
Na26 O116 2.593203 1_555
Na27 O117 2.457365 1_555
Na27 O115 2.468420 1_555
Na27 O43 2.545990 1_555
Na27 O77 2.595544 1_555
Na27 O73 2.669104 1_545
Na27 O1 2.673411 1_555
Na28 O116 2.285481 1_555
Na28 O74 2.328344 1_555
Na28 O2 2.582302 1_555
Na28 O73 2.585498 1_555
Na28 O118 2.587716 1_555
Na28 O44 2.672439 1_555
Na29 O75 2.360920 1_555
Na29 O45 2.393970 1_555
Na29 O117 2.414899 1_555
Na29 O119 2.714938 1_555
Na29 O3 2.738804 1_555
Na29 O72 2.786768 1_655
Na30 O75 2.453080 1_555
Na30 O86 2.519166 1_665
Na30 O89 2.527421 1_555
Na30 O85 2.543055 1_565
Na30 O76 2.611218 1_665
Na30 O72 2.716157 1_655
Na31 O84 2.349050 1_555
Na31 O77 2.396985 1_555
Na31 O88 2.435379 1_545
Na31 O87 2.541156 1_555
Na31 O73 2.672326 1_545
Na31 O74 2.836497 1_545
Na32 O91 2.357702 1_555
Na32 O80 2.404292 1_554
Na32 O93 2.440969 1_455
Na32 O94 2.598517 1_565
Na32 O78 2.625312 1_564
Na32 O83 2.741407 1_454
Na33 O82 2.426274 1_554
Na33 O81 2.461904 1_554
Na33 O95 2.528992 1_565
Na33 O90 2.546393 1_555
Na33 O79 2.635330 1_564
Na33 O92 2.652875 1_565
Na34 O96 2.487613 1_555
Na34 O98 2.532386 1_555
Na34 O100 2.536869 1_555
Na34 O112 2.646620 1_555
Na34 O108 2.718844 1_555
Na34 O110 2.944113 1_555
Na35 O99 2.376121 1_555
Na35 O101 2.507539 1_555
Na35 O97 2.507634 1_555
Na35 O109 2.593716 1_555
Na35 O113 2.664098 1_555
Na36 O114 2.444231 1_555
Na36 O116 2.541244 1_555
Na36 O106 2.558692 1_555
Na36 O104 2.652340 1_555
Na36 O102 2.658144 1_555
Na36 O118 2.899652 1_555
Na37 O117 2.488594 1_555
Na37 O107 2.588778 1_555
Na37 O115 2.591890 1_555
Na37 O103 2.609996 1_555
Na37 O105 2.663961 1_555
Na37 O119 2.786607 1_555
Na38 O136 2.381061 1_555
Na38 O120 2.465477 1_555
Na38 O122 2.486613 1_555
Na38 O132 2.501493 1_555
Na38 O124 2.550262 1_555
Na38 O134 2.590405 1_555
Na39 O133 2.417684 1_555
Na39 O135 2.457688 1_555
Na39 O121 2.466505 1_555
Na39 O123 2.475492 1_555
Na39 O125 2.499496 1_555
Na39 O137 2.514395 1_555
Na40 O126 2.429251 1_555
Na40 O130 2.434266 1_555
Na40 O138 2.451155 1_555
Na40 O128 2.492450 1_555
Na40 O142 2.498975 1_555
Na40 O140 2.554963 1_555
Na41 O127 2.423797 1_555
Na41 O141 2.452385 1_555
Na41 O129 2.469890 1_555
Na41 O131 2.510080 1_555
Na41 O139 2.513431 1_555
Na41 O143 2.599516 1_555
Ge0 O14 1.844928 1_655
Ge0 O13 1.861527 1_545
Ge0 O89 1.871405 1_545
Ge0 O85 1.874082 1_555
Ge0 O86 1.891531 1_655
Ge0 O16 2.215157 1_645
Ge1 O15 1.823181 1_555
Ge1 O12 1.828337 1_545
Ge1 O87 1.845909 1_555
Ge1 O17 1.899985 1_545
Ge1 O84 2.001544 1_555
Ge2 O19 1.820087 1_445
Ge2 O22 1.826080 1_545
Ge2 O94 1.849369 1_555
Ge2 O20 1.885722 1_555
Ge2 O91 2.047415 1_545
Ge3 O23 1.774921 1_555
Ge3 O18 1.832843 1_555
Ge3 O95 1.846350 1_565
Ge3 O90 1.873164 1_555
Ge3 O21 2.164006 1_565
Ge3 O92 2.283830 1_565
Ge4 O29 1.849954 1_555
Ge4 O27 1.852350 1_555
Ge4 O25 1.902265 1_555
Ge4 O99 1.914296 1_555
Ge4 O97 1.946530 1_555
Ge4 O101 2.400115 1_555
Ge5 O34 1.831044 1_555
Ge5 O102 1.834652 1_555
Ge5 O30 1.840917 1_555
Ge5 O106 1.841284 1_555
Ge5 O32 2.286901 1_555
Ge5 O104 2.384262 1_555
Ge6 O48 1.815848 1_554
Ge6 O122 1.839360 1_555
Ge6 O52 1.852102 1_554
Ge6 O120 1.959702 1_555
Ge6 O50 2.016054 1_554
Ge6 O124 2.346728 1_555
Ge7 O53 1.822684 1_554
Ge7 O49 1.844596 1_554
Ge7 O121 1.849036 1_555
Ge7 O51 1.957168 1_554
Ge7 O123 1.999880 1_555
Ge7 O125 2.210302 1_555
Ge8 O56 1.826769 1_555
Ge8 O54 1.845106 1_555
Ge8 O126 1.849071 1_555
Ge8 O130 1.941359 1_555
Ge8 O58 1.959802 1_555
Ge8 O128 2.224759 1_555
Ge9 O55 1.820203 1_555
Ge9 O131 1.852338 1_555
Ge9 O57 1.867663 1_555
Ge9 O129 1.875743 1_555
Ge9 O127 1.979324 1_555
Ge9 O59 2.472613 1_555
Ge10 O62 1.821816 1_555
Ge10 O134 1.864396 1_555
Ge10 O64 1.874136 1_555
Ge10 O132 1.936011 1_555
Ge10 O136 1.990467 1_555
Ge10 O60 2.288921 1_555
Ge11 O71 1.837871 1_555
Ge11 O143 1.838968 1_555
Ge11 O69 1.876012 1_555
Ge11 O139 1.909573 1_555
Ge11 O141 1.978538 1_555
Ge11 O67 2.380204 1_555
O0 Si0 1.621178 1_555
O0 Y0 2.281124 1_555
O1 Si1 1.619151 1_545
O1 Y1 2.130175 1_555
O2 Si2 1.603104 1_555
O2 Y1 2.199626 1_565
O3 Si3 1.614335 1_555
O3 Y0 2.143650 1_665
O4 S0 1.483997 1_555
O4 Y1 2.242436 1_555
O5 Si4 1.611716 1_655
O5 Y0 2.099052 1_655
O6 Si5 1.635719 1_555
O6 Y2 2.123605 1_445
O7 Si6 1.626956 1_555
O7 Y3 2.212864 1_545
O8 Si7 1.620865 1_555
O8 Y3 2.099176 1_555
O9 S1 1.500790 1_555
O9 Y2 2.227130 1_555
O10 Si8 1.623441 1_555
O10 Y3 2.147722 1_545
O11 Si9 1.627541 1_555
O11 Y2 2.189104 1_545
O12 Si8 1.675800 1_565
O13 Si9 1.628206 1_565
O14 Si5 1.657299 1_555
O15 Si6 1.665499 1_555
O16 S1 1.466813 1_455
O17 Si7 1.664621 1_555
O18 Si2 1.657288 1_555
O19 Si3 1.691295 1_555
O20 Si4 1.673586 1_555
O21 S0 1.486573 1_555
O22 Si0 1.664270 1_565
O23 Si1 1.680351 1_555
O24 Si10 1.603590 1_555
O24 Y4 2.137599 1_555
O25 Si11 1.663838 1_555
O26 Si12 1.631808 1_555
O26 Y4 2.240444 1_555
O27 Si13 1.682116 1_555
O28 S2 1.492642 1_555
O28 Y4 2.314347 1_555
O29 Si14 1.661710 1_555
O30 Si15 1.681882 1_555
O31 Si16 1.600125 1_555
O31 Y5 2.144635 1_555
O32 S3 1.493822 1_555
O33 S4 1.489225 1_555
O33 Y5 2.322074 1_555
O34 Si17 1.690201 1_555
O35 Si18 1.623093 1_555
O35 Y5 2.272982 1_555
O36 Si17 1.614667 1_555
O36 Y6 2.135870 1_554
O37 Si18 1.639766 1_555
O37 Y7 2.147007 1_554
O38 Si15 1.600500 1_555
O38 Y6 2.168085 1_554
O39 Si16 1.645783 1_555
O39 Y7 2.235260 1_554
O40 S3 1.479421 1_555
O40 Y6 2.305291 1_554
O41 S4 1.485211 1_555
O41 Y7 2.321797 1_554
O42 Si12 1.639881 1_555
O42 Y8 2.124143 1_555
O43 Si13 1.619745 1_555
O43 Y9 2.166356 1_555
O44 S2 1.488149 1_555
O44 Y8 2.321168 1_555
O45 Si14 1.609991 1_555
O45 Y9 2.189650 1_555
O46 Si10 1.651042 1_555
O46 Y8 2.226973 1_555
O47 Si11 1.604277 1_555
O47 Y9 2.175231 1_555
O48 Si19 1.687150 1_555
O49 Si20 1.657618 1_555
O50 S5 1.494440 1_555
O51 S6 1.499542 1_555
O52 Si21 1.679626 1_555
O53 Si22 1.681365 1_555
O54 Si23 1.650808 1_555
O55 Si24 1.672729 1_555
O56 Si25 1.668139 1_555
O57 Si26 1.666544 1_555
O58 S7 1.497862 1_555
O59 S8 1.455072 1_555
O60 S7 1.477694 1_555
O61 S8 1.492581 1_555
O61 Y10 2.307387 1_555
O62 Si23 1.650965 1_555
O63 Si24 1.633834 1_555
O63 Y10 2.088260 1_555
O64 Si25 1.671254 1_555
O65 Si26 1.632583 1_555
O65 Y10 2.123229 1_555
O66 S5 1.475735 1_555
O66 Y11 2.309303 1_555
O67 S6 1.464999 1_555
O68 Si21 1.621522 1_555
O68 Y11 2.135821 1_555
O69 Si22 1.656324 1_555
O70 Si19 1.620472 1_555
O70 Y11 2.099046 1_555
O71 Si20 1.644180 1_555
O72 S7 1.490264 1_555
O72 Y0 2.373816 1_565
O73 S8 1.497154 1_555
O73 Y1 2.335892 1_565
O74 Si23 1.629747 1_555
O74 Y1 2.218594 1_565
O75 Si24 1.639726 1_555
O75 Y0 2.295962 1_665
O76 Si25 1.630259 1_555
O76 Y0 2.269688 1_555
O77 Si26 1.653315 1_555
O77 Y1 2.288769 1_555
O78 S5 1.480766 1_555
O78 Y2 2.405571 1_445
O79 S6 1.491380 1_555
O79 Y3 2.404208 1_545
O80 Si21 1.648815 1_555
O80 Y2 2.350191 1_455
O81 Si22 1.632244 1_555
O81 Y3 2.299770 1_555
O82 Si19 1.630946 1_555
O82 Y3 2.343532 1_555
O83 Si20 1.634882 1_555
O83 Y2 2.240537 1_555
O84 Si10 1.677585 1_555
O85 Si11 1.673841 1_555
O86 Si12 1.649041 1_555
O87 Si13 1.657543 1_555
O88 S2 1.461069 1_555
O89 Si14 1.641049 1_555
O90 Si15 1.684770 1_555
O91 Si16 1.671497 1_455
O92 S3 1.487359 1_555
O93 S4 1.464293 1_565
O94 Si17 1.641829 1_555
O95 Si18 1.680815 1_555
O96 Si8 1.625927 1_555
O96 Y4 2.171834 1_555
O97 Si9 1.676558 1_555
O98 Si5 1.629492 1_555
O98 Y4 2.228985 1_555
O99 Si6 1.656329 1_555
O100 Si7 1.621176 1_555
O100 Y4 2.251702 1_555
O101 S1 1.474579 1_555
O102 Si2 1.692080 1_555
O103 Si3 1.625411 1_555
O103 Y5 2.153318 1_555
O104 S0 1.479354 1_555
O105 Si4 1.616799 1_655
O105 Y5 2.231619 1_555
O106 Si0 1.692413 1_555
O107 Si1 1.619367 1_545
O107 Y5 2.211540 1_555
O108 Si19 1.631462 1_555
O108 Y6 2.146243 1_555
O109 Si20 1.650720 1_555
O109 Y7 2.190562 1_555
O110 S6 1.483542 1_555
O110 Y6 2.379898 1_555
O111 S5 1.480536 1_655
O111 Y7 2.349869 1_555
O112 Si21 1.641212 1_545
O112 Y6 2.232264 1_555
O113 Si22 1.645398 1_545
O113 Y7 2.286103 1_555
O114 Si23 1.647637 1_545
O114 Y8 2.202508 1_555
O115 Si24 1.628219 1_545
O115 Y9 2.228553 1_555
O116 Si25 1.644549 1_555
O116 Y8 2.314397 1_555
O117 Si26 1.636456 1_555
O117 Y9 2.268967 1_555
O118 S8 1.496049 1_555
O118 Y8 2.329452 1_555
O119 S7 1.474213 1_655
O119 Y9 2.443643 1_555
O120 Si17 1.649059 1_555
O121 Si18 1.663856 1_555
O122 Si16 1.684500 1_455
O123 Si15 1.650061 1_555
O124 S3 1.507561 1_565
O125 S4 1.514008 1_565
O126 Si12 1.663804 1_565
O127 Si13 1.647690 1_565
O128 S2 1.507941 1_555
O129 Si14 1.686955 1_555
O130 Si11 1.663607 1_455
O131 Si10 1.658238 1_555
O132 Si0 1.655129 1_565
O133 Si1 1.626541 1_555
O133 Y10 2.231942 1_555
O134 Si2 1.640304 1_555
O135 Si3 1.639218 1_555
O135 Y10 2.219596 1_555
O136 Si4 1.687422 1_555
O137 S0 1.499607 1_555
O137 Y10 2.478616 1_555
O138 Si5 1.633142 1_555
O138 Y11 2.234732 1_555
O139 Si6 1.663515 1_555
O140 S1 1.501096 1_455
O140 Y11 2.393820 1_555
O141 Si7 1.684636 1_555
O142 Si8 1.640496 1_565
O142 Y11 2.191026 1_555
O143 Si9 1.654631 1_565
