# generated using pymatgen
data_Sb6Pb4S13
_symmetry_space_group_name_H-M   'P 1'
_cell_length_a   3.95840800
_cell_length_b   17.02271537
_cell_length_c   17.99103748
_cell_angle_alpha   91.10548671
_cell_angle_beta   96.28374906
_cell_angle_gamma   96.58401631
_symmetry_Int_Tables_number   1
_chemical_formula_structural   Sb6Pb4S13
_chemical_formula_sum   'Sb12 Pb8 S26'
_cell_volume   1196.43420258
_cell_formula_units_Z   2
loop_
 _symmetry_equiv_pos_site_id
 _symmetry_equiv_pos_as_xyz
  1  'x, y, z'
loop_
 _atom_site_type_symbol
 _atom_site_label
 _atom_site_symmetry_multiplicity
 _atom_site_fract_x
 _atom_site_fract_y
 _atom_site_fract_z
 _atom_site_occupancy
  Sb  Sb0  1  0.62293800  0.75487600  0.50434400  1
  Sb  Sb1  1  0.79560900  0.90872900  0.70258600  1
  Sb  Sb2  1  0.24967900  0.43258200  0.05303200  1
  Sb  Sb3  1  0.33651000  0.36214900  0.29354200  1
  Sb  Sb4  1  0.24899000  0.15103100  0.34918400  1
  Sb  Sb5  1  0.85113900  0.82401700  0.89394800  1
  Sb  Sb6  1  0.67435700  0.66813300  0.69937200  1
  Sb  Sb7  1  0.15758700  0.21359000  0.10813400  1
  Sb  Sb8  1  0.05484300  0.79872700  0.30542800  1
  Sb  Sb9  1  0.41067900  0.28288600  0.52773600  1
  Sb  Sb10  1  0.08198700  0.29175000  0.87521800  1
  Sb  Sb11  1  0.62294500  0.02239800  0.18759900  1
  Pb  Pb0  1  0.43899100  0.77918400  0.09702600  1
  Pb  Pb1  1  0.23998200  0.96842600  0.50566900  1
  Pb  Pb2  1  0.25677500  0.60898500  0.89733800  1
  Pb  Pb3  1  0.42128600  0.12167100  0.71525100  1
  Pb  Pb4  1  0.07274800  0.45613300  0.68419500  1
  Pb  Pb5  1  0.89116300  0.55919900  0.21505700  1
  Pb  Pb6  1  0.51480400  0.07443900  0.94510700  1
  Pb  Pb7  1  0.97673400  0.49381200  0.45364500  1
  S  S0  1  0.15835300  0.01424400  0.29026700  1
  S  S1  1  0.69867500  0.17064900  0.21706800  1
  S  S2  1  0.94023700  0.25681700  0.61731000  1
  S  S3  1  0.71487500  0.45618100  0.96335700  1
  S  S4  1  0.01853600  0.87000800  0.16796100  1
  S  S5  1  0.11327100  0.60252900  0.61607600  1
  S  S6  1  0.77329900  0.11231200  0.43341200  1
  S  S7  1  0.54993300  0.31411200  0.78643200  1
  S  S8  1  0.49039000  0.71184400  0.26005700  1
  S  S9  1  0.38294500  0.97542700  0.78525500  1
  S  S10  1  0.79538200  0.39498400  0.18979600  1
  S  S11  1  0.87031100  0.33555700  0.40001000  1
  S  S12  1  0.23040600  0.84379200  0.60161700  1
  S  S13  1  0.62269400  0.23382200  0.00902300  1
  S  S14  1  0.27457900  0.73450900  0.80010500  1
  S  S15  1  0.49673500  0.42697200  0.56100600  1
  S  S16  1  0.43302600  0.88777800  0.97528500  1
  S  S17  1  0.06136200  0.69422200  0.42291700  1
  S  S18  1  0.84229800  0.70753200  0.97290200  1
  S  S19  1  0.82957300  0.02902300  0.62623400  1
  S  S20  1  0.33955600  0.56942700  0.10114800  1
  S  S21  1  0.07492500  0.06856000  0.07711000  1
  S  S22  1  0.42124400  0.50291000  0.33375300  1
  S  S23  1  0.66513900  0.54897200  0.77616000  1
  S  S24  1  0.65280600  0.87263600  0.42591400  1
  S  S25  1  0.99770400  0.14596500  0.84491700  1
loop_
_geom_bond_atom_site_label_1
_geom_bond_atom_site_label_2
_geom_bond_distance
_geom_bond_site_symmetry_2
Pb0 S4 2.784137 1_655
Pb0 S4 2.787098 1_555
Pb0 S16 2.893069 1_554
Pb0 S8 3.164027 1_555
Pb0 S18 3.183234 1_454
Pb0 S18 3.185126 1_554
Pb1 S12 2.760370 1_555
Pb1 S24 2.902096 1_555
Pb1 S24 2.903544 1_455
Pb1 S19 3.077213 1_565
Pb1 S19 3.078562 1_465
Pb2 S14 2.787027 1_555
Pb2 S18 2.892205 1_555
Pb2 S18 2.895774 1_455
Pb2 S23 3.077941 1_555
Pb2 S23 3.086903 1_455
Pb3 S9 2.807646 1_545
Pb3 S19 2.952588 1_555
Pb3 S19 2.961845 1_455
Pb3 S25 3.066015 1_555
Pb3 S25 3.066347 1_455
Pb4 S5 2.794140 1_555
Pb4 S23 2.984402 1_455
Pb4 S23 2.988937 1_555
Pb4 S15 2.989644 1_555
Pb4 S15 2.991489 1_455
Pb5 S10 2.799051 1_555
Pb5 S20 2.849409 1_555
Pb5 S20 2.849493 1_655
Pb5 S22 3.072499 1_655
Pb5 S22 3.078667 1_555
Pb6 S13 2.893471 1_556
Pb6 S25 2.947992 1_555
Pb6 S25 2.961396 1_455
Pb6 S21 3.077881 1_656
Pb6 S21 3.091326 1_556
Pb6 S16 3.219486 1_545
Pb6 S9 3.265982 1_545
Pb7 S11 2.813594 1_555
Pb7 S22 2.924686 1_655
Pb7 S22 2.926476 1_555
Pb7 S15 3.002311 1_655
Pb7 S15 3.004656 1_555
S0 Sb4 2.510789 1_555
S0 Sb11 2.672671 1_455
S0 Sb11 2.740091 1_555
S1 Sb11 2.545541 1_555
S1 Sb7 2.864486 1_655
S1 Sb7 2.908299 1_555
S1 Sb4 3.093624 1_655
S1 Sb4 3.122534 1_555
S2 Sb9 2.586401 1_555
S2 Sb9 2.599378 1_655
S3 Sb2 2.580864 1_556
S3 Sb2 2.591952 1_656
S4 Sb8 2.772644 1_555
S5 Sb6 2.657783 1_555
S5 Sb6 2.731624 1_455
S6 Sb4 2.579702 1_655
S6 Sb4 2.588799 1_555
S7 Sb10 2.569614 1_655
S7 Sb10 2.576237 1_555
S8 Sb8 2.577270 1_655
S8 Sb8 2.583088 1_555
S9 Sb1 2.657335 1_555
S9 Sb1 2.734769 1_455
S10 Sb3 2.764985 1_555
S10 Sb3 2.797148 1_655
S11 Sb3 2.775881 1_555
S11 Sb3 2.809829 1_655
S11 Sb9 3.164685 1_555
S11 Sb9 3.178519 1_655
S12 Sb1 2.827185 1_555
S12 Sb1 2.920124 1_455
S12 Sb0 2.966525 1_555
S12 Sb0 3.045933 1_455
S13 Sb7 2.673129 1_655
S13 Sb7 2.699001 1_555
S14 Sb6 2.832694 1_555
S14 Sb6 2.927264 1_455
S14 Sb5 2.939482 1_555
S14 Sb5 3.014529 1_455
S15 Sb9 2.489446 1_555
S16 Sb5 2.634288 1_555
S16 Sb5 2.693027 1_455
S17 Sb0 2.618411 1_555
S17 Sb0 2.670777 1_455
S17 Sb8 2.788723 1_555
S18 Sb5 2.460580 1_555
S19 Sb1 2.486770 1_545
S20 Sb2 2.442765 1_555
S21 Sb7 2.497038 1_555
S21 Sb11 2.878581 1_455
S21 Sb11 2.963430 1_555
S22 Sb3 2.464349 1_555
S23 Sb6 2.475205 1_555
S24 Sb0 2.472796 1_555
S24 Sb8 3.150141 1_655
S24 Sb8 3.158002 1_555
S25 Sb10 2.507036 1_655
