# generated using pymatgen
data_In(IO3)3
_symmetry_space_group_name_H-M   'P 1'
_cell_length_a   9.60421282
_cell_length_b   9.60328794
_cell_length_c   5.23200055
_cell_angle_alpha   89.98909396
_cell_angle_beta   90.01117344
_cell_angle_gamma   119.99934877
_symmetry_Int_Tables_number   1
_chemical_formula_structural   In(IO3)3
_chemical_formula_sum   'In2 I6 O18'
_cell_volume   417.91020628
_cell_formula_units_Z   2
loop_
 _symmetry_equiv_pos_site_id
 _symmetry_equiv_pos_as_xyz
  1  'x, y, z'
loop_
 _atom_site_type_symbol
 _atom_site_label
 _atom_site_symmetry_multiplicity
 _atom_site_fract_x
 _atom_site_fract_y
 _atom_site_fract_z
 _atom_site_occupancy
  In  In0  1  0.66666534  0.33330285  0.69577465  1
  In  In1  1  0.33337651  0.66671166  0.19575814  1
  I  I0  1  0.68397633  0.02020515  0.32715025  1
  I  I1  1  0.31603593  0.97982990  0.82701642  1
  I  I2  1  0.02012776  0.33624384  0.82711183  1
  I  I3  1  0.33630132  0.31618814  0.32708723  1
  I  I4  1  0.97985127  0.66380087  0.32715312  1
  I  I5  1  0.66371500  0.68384920  0.82707472  1
  O  O0  1  0.76836866  0.82955438  0.06940346  1
  O  O1  1  0.93876893  0.76839651  0.56951644  1
  O  O2  1  0.82966528  0.06118369  0.56949979  1
  O  O3  1  0.17045157  0.93888450  0.06945648  1
  O  O4  1  0.06110797  0.23149940  0.06945827  1
  O  O5  1  0.23161351  0.17042450  0.56936894  1
  O  O6  1  0.71433529  0.53352532  0.93719665  1
  O  O7  1  0.18077183  0.71432683  0.43724789  1
  O  O8  1  0.53979829  0.42041718  0.46732771  1
  O  O9  1  0.11946940  0.53976860  0.96728285  1
  O  O10  1  0.42029725  0.88056654  0.96723305  1
  O  O11  1  0.57967129  0.11942948  0.46720656  1
  O  O12  1  0.88048159  0.46019275  0.46713640  1
  O  O13  1  0.46020241  0.57959011  0.96725959  1
  O  O14  1  0.28567819  0.46649454  0.43722579  1
  O  O15  1  0.81921815  0.28562886  0.93721546  1
  O  O16  1  0.46642097  0.18074509  0.93706576  1
  O  O17  1  0.53362895  0.81923712  0.43717053  1
loop_
_geom_bond_atom_site_label_1
_geom_bond_atom_site_label_2
_geom_bond_distance
_geom_bond_site_symmetry_2
In0 O16 2.149769 1_555
In0 O15 2.149842 1_555
In0 O6 2.150028 1_555
In0 O12 2.151970 1_555
In0 O11 2.152015 1_555
In0 O8 2.152086 1_555
In1 O14 2.149739 1_555
In1 O17 2.149999 1_555
In1 O7 2.150510 1_555
In1 O10 2.151564 1_554
In1 O9 2.151940 1_554
In1 O13 2.152422 1_554
I0 O2 1.780261 1_555
I0 O17 1.831468 1_545
I0 O11 1.844878 1_555
I1 O3 1.780257 1_556
I1 O16 1.831330 1_565
I1 O10 1.844871 1_555
I2 O4 1.780352 1_556
I2 O15 1.831344 1_455
I2 O9 1.844927 1_555
I3 O5 1.780354 1_555
I3 O14 1.831435 1_555
I3 O8 1.844867 1_555
I4 O1 1.780326 1_555
I4 O7 1.831471 1_655
I4 O12 1.845027 1_555
I5 O0 1.780290 1_556
I5 O6 1.831312 1_555
I5 O13 1.845025 1_555
