# generated using pymatgen
data_SrBe13
_symmetry_space_group_name_H-M   'P 1'
_cell_length_a   7.36698613
_cell_length_b   7.36698572
_cell_length_c   7.36698627
_cell_angle_alpha   60.00000206
_cell_angle_beta   60.00000391
_cell_angle_gamma   60.00000074
_symmetry_Int_Tables_number   1
_chemical_formula_structural   SrBe13
_chemical_formula_sum   'Sr2 Be26'
_cell_volume   282.71871935
_cell_formula_units_Z   2
loop_
 _symmetry_equiv_pos_site_id
 _symmetry_equiv_pos_as_xyz
  1  'x, y, z'
loop_
 _atom_site_type_symbol
 _atom_site_label
 _atom_site_symmetry_multiplicity
 _atom_site_fract_x
 _atom_site_fract_y
 _atom_site_fract_z
 _atom_site_occupancy
  Sr  Sr0  1  0.25000000  0.25000000  0.25000000  1
  Sr  Sr1  1  0.75000000  0.75000000  0.75000000  1
  Be  Be0  1  0.00000000  0.00000000  -0.00000000  1
  Be  Be1  1  0.50000000  0.50000000  0.50000000  1
  Be  Be2  1  0.28619926  0.93486623  0.06513377  1
  Be  Be3  1  0.56513377  0.43486623  0.78619926  1
  Be  Be4  1  0.78619926  0.21380074  0.56513377  1
  Be  Be5  1  0.56513377  0.78619926  0.21380074  1
  Be  Be6  1  0.43486623  0.21380074  0.78619926  1
  Be  Be7  1  0.43486623  0.78619926  0.56513377  1
  Be  Be8  1  0.78619926  0.43486623  0.21380074  1
  Be  Be9  1  0.06513377  0.28619926  0.93486623  1
  Be  Be10  1  0.93486623  0.06513377  0.28619926  1
  Be  Be11  1  0.71380074  0.28619926  0.06513377  1
  Be  Be12  1  0.93486623  0.71380074  0.06513377  1
  Be  Be13  1  0.71380074  0.93486623  0.28619926  1
  Be  Be14  1  0.06513377  0.93486623  0.71380074  1
  Be  Be15  1  0.28619926  0.06513377  0.71380074  1
  Be  Be16  1  0.28619926  0.71380074  0.93486623  1
  Be  Be17  1  0.78619926  0.56513377  0.43486623  1
  Be  Be18  1  0.21380074  0.78619926  0.43486623  1
  Be  Be19  1  0.21380074  0.56513377  0.78619926  1
  Be  Be20  1  0.56513377  0.21380074  0.43486623  1
  Be  Be21  1  0.43486623  0.56513377  0.21380074  1
  Be  Be22  1  0.21380074  0.43486623  0.56513377  1
  Be  Be23  1  0.06513377  0.71380074  0.28619926  1
  Be  Be24  1  0.71380074  0.06513377  0.93486623  1
  Be  Be25  1  0.93486623  0.28619926  0.71380074  1
loop_
_geom_bond_atom_site_label_1
_geom_bond_atom_site_label_2
_geom_bond_distance
_geom_bond_site_symmetry_2
Be0 Be12 2.162338 1_445
Be0 Be9 2.162338 1_554
Be0 Be11 2.162338 1_455
Be0 Be16 2.162338 1_544
Be0 Be24 2.162338 1_454
Be0 Be2 2.162338 1_545
Be0 Be23 2.162338 1_545
Be0 Be25 2.162338 1_454
Be0 Be14 2.162338 1_544
Be0 Be10 2.162338 1_455
Be0 Be13 2.162338 1_445
Be0 Be15 2.162338 1_554
Be1 Be20 2.162338 1_555
Be1 Be7 2.162338 1_555
Be1 Be4 2.162338 1_555
Be1 Be18 2.162338 1_555
Be1 Be22 2.162338 1_555
Be1 Be17 2.162338 1_555
Be1 Be6 2.162338 1_555
Be1 Be5 2.162338 1_555
Be1 Be21 2.162338 1_555
Be1 Be3 2.162338 1_555
Be1 Be8 2.162338 1_555
Be1 Be19 2.162338 1_555
Be2 Be21 2.247519 1_555
Be2 Be9 2.266318 1_564
Be2 Be23 2.303169 1_555
Be2 Be5 2.328554 1_555
Be2 Be6 2.328554 1_564
Be2 Sr0 3.081419 1_565
Be2 Sr1 3.081419 1_554
Be3 Be6 2.266318 1_555
Be3 Be7 2.266318 1_555
Be3 Be4 2.303169 1_555
Be3 Sr1 3.081419 1_555
Be3 Sr0 3.081419 1_556
Be4 Be8 2.266318 1_555
Be4 Be6 2.266318 1_555
Be4 Sr1 3.081419 1_545
Be4 Sr0 3.081419 1_655
Be5 Be8 2.266318 1_555
Be5 Be7 2.266318 1_555
Be5 Sr0 3.081419 1_565
Be5 Sr1 3.081419 1_554
Be6 Be9 2.247519 1_555
Be6 Sr1 3.081419 1_545
Be6 Sr0 3.081419 1_556
Be7 Sr0 3.081419 1_565
Be7 Sr1 3.081419 1_555
Be8 Be9 2.328554 1_654
Be8 Sr0 3.081419 1_655
Be8 Sr1 3.081419 1_554
Be9 Sr1 3.081419 1_455
Be9 Sr0 3.081419 1_556
Be10 Be8 2.247519 1_555
Be10 Be20 2.247519 1_555
Be10 Be23 2.266318 1_645
Be10 Be13 2.266318 1_545
Be10 Be2 2.266318 1_645
Be10 Be9 2.266318 1_654
Be10 Be11 2.303169 1_555
Be10 Be18 2.328554 1_645
Be10 Be4 2.328554 1_555
Be10 Sr0 3.081419 1_655
Be10 Sr1 3.081419 1_545
Be11 Be8 2.247519 1_555
Be11 Be20 2.247519 1_555
Be11 Be24 2.266318 1_554
Be11 Be13 2.266318 1_545
Be11 Be9 2.266318 1_654
Be11 Be25 2.266318 1_554
Be11 Be21 2.328554 1_555
Be11 Be3 2.328554 1_554
Be11 Sr1 3.081419 1_554
Be11 Sr0 3.081419 1_555
Be12 Be5 2.247519 1_555
Be12 Be17 2.247519 1_555
Be12 Be24 2.266318 1_564
Be12 Be23 2.266318 1_655
Be12 Be16 2.266318 1_654
Be12 Be14 2.266318 1_654
Be12 Be13 2.303169 1_555
Be12 Be8 2.328554 1_555
Be12 Be19 2.328554 1_654
Be12 Sr0 3.081419 1_655
Be12 Sr1 3.081419 1_554
Be13 Be17 2.247519 1_555
Be13 Be5 2.247519 1_555
Be13 Be23 2.266318 1_655
Be13 Be24 2.266318 1_564
Be13 Be20 2.328554 1_565
Be13 Be7 2.328554 1_555
Be13 Sr0 3.081419 1_565
Be13 Sr1 3.081419 1_555
Be14 Be19 2.247519 1_555
Be14 Be7 2.247519 1_555
Be14 Be25 2.266318 1_465
Be14 Be15 2.266318 1_565
Be14 Be24 2.266318 1_465
Be14 Be16 2.303169 1_555
Be14 Be4 2.328554 1_465
Be14 Be18 2.328554 1_555
Be14 Sr1 3.081419 1_455
Be14 Sr0 3.081419 1_565
Be15 Be22 2.247519 1_555
Be15 Be6 2.247519 1_555
Be15 Be16 2.266318 1_545
Be15 Be25 2.266318 1_455
Be15 Be2 2.266318 1_546
Be15 Be9 2.303169 1_555
Be15 Be7 2.328554 1_545
Be15 Be20 2.328554 1_555
Be15 Sr1 3.081419 1_545
Be15 Sr0 3.081419 1_555
Be16 Be19 2.247519 1_555
Be16 Be7 2.247519 1_555
Be16 Be2 2.266318 1_556
Be16 Be23 2.266318 1_556
Be16 Be3 2.328554 1_555
Be16 Be21 2.328554 1_556
Be16 Sr0 3.081419 1_556
Be16 Sr1 3.081419 1_555
Be17 Be4 2.266318 1_555
Be17 Be8 2.266318 1_555
Be17 Be7 2.266318 1_555
Be17 Be3 2.266318 1_555
Be17 Be5 2.303169 1_555
Be17 Be25 2.328554 1_555
Be17 Be23 2.328554 1_655
Be17 Sr1 3.081419 1_555
Be17 Sr0 3.081419 1_655
Be18 Be23 2.247519 1_555
Be18 Be2 2.247519 1_555
Be18 Be22 2.266318 1_555
Be18 Be7 2.266318 1_555
Be18 Be19 2.266318 1_555
Be18 Be5 2.266318 1_555
Be18 Be21 2.303169 1_555
Be18 Sr0 3.081419 1_565
Be18 Sr1 3.081419 1_455
Be19 Be6 2.266318 1_555
Be19 Be22 2.266318 1_555
Be19 Be3 2.266318 1_555
Be19 Be7 2.303169 1_555
Be19 Be9 2.328554 1_555
Be19 Sr1 3.081419 1_455
Be19 Sr0 3.081419 1_556
Be20 Be21 2.266318 1_555
Be20 Be4 2.266318 1_555
Be20 Be22 2.266318 1_555
Be20 Be6 2.266318 1_555
Be20 Be8 2.303169 1_555
Be20 Sr1 3.081419 1_545
Be20 Sr0 3.081419 1_555
Be21 Be23 2.247519 1_555
Be21 Be5 2.266318 1_555
Be21 Be8 2.266318 1_555
Be21 Be22 2.266318 1_555
Be21 Sr0 3.081419 1_555
Be21 Sr1 3.081419 1_554
Be22 Be9 2.247519 1_555
Be22 Be6 2.303169 1_555
Be22 Be23 2.328554 1_555
Be22 Be25 2.328554 1_455
Be22 Sr0 3.081419 1_555
Be22 Sr1 3.081419 1_455
Be23 Sr0 3.081419 1_555
Be23 Sr1 3.081419 1_455
Be24 Be3 2.247519 1_555
Be24 Be4 2.247519 1_555
Be24 Be25 2.303169 1_555
Be24 Be6 2.328554 1_555
Be24 Be5 2.328554 1_546
Be24 Sr1 3.081419 1_545
Be24 Sr0 3.081419 1_556
Be25 Be4 2.247519 1_555
Be25 Be3 2.247519 1_555
Be25 Be9 2.266318 1_655
Be25 Sr1 3.081419 1_555
Be25 Sr0 3.081419 1_655
