# generated using pymatgen
data_Na6La2Y2Si3(SO8)3
_symmetry_space_group_name_H-M   'P 1'
_cell_length_a   9.56007682
_cell_length_b   9.52391858
_cell_length_c   23.76839350
_cell_angle_alpha   90.03394689
_cell_angle_beta   90.07608441
_cell_angle_gamma   119.82908080
_symmetry_Int_Tables_number   1
_chemical_formula_structural   Na6La2Y2Si3(SO8)3
_chemical_formula_sum   'Na18 La6 Y6 Si9 S9 O72'
_cell_volume   1877.37958328
_cell_formula_units_Z   3
loop_
 _symmetry_equiv_pos_site_id
 _symmetry_equiv_pos_as_xyz
  1  'x, y, z'
loop_
 _atom_site_type_symbol
 _atom_site_label
 _atom_site_symmetry_multiplicity
 _atom_site_fract_x
 _atom_site_fract_y
 _atom_site_fract_z
 _atom_site_occupancy
  Na  Na0  1  0.63676680  0.01816888  0.26485564  1
  Na  Na1  1  0.33885210  0.34016487  0.25769773  1
  Na  Na2  1  0.65964529  0.65966995  0.72906732  1
  Na  Na3  1  0.97337030  0.35912951  0.73825732  1
  Na  Na4  1  0.00834519  0.67318866  0.59617621  1
  Na  Na5  1  0.68510054  0.97448996  0.58359100  1
  Na  Na6  1  0.32225561  0.97312643  0.10342991  1
  Na  Na7  1  0.01580364  0.31605437  0.08539108  1
  Na  Na8  1  0.96961700  0.64225860  0.89336008  1
  Na  Na9  1  0.71515925  0.04879977  0.90495318  1
  Na  Na10  1  0.94827026  0.28776660  0.42544713  1
  Na  Na11  1  0.35467718  0.02976735  0.40925288  1
  Na  Na12  1  0.95729422  0.99101240  0.50790267  1
  Na  Na13  1  0.97986303  0.02153278  0.99766578  1
  Na  Na14  1  0.67296022  0.32259233  0.81776161  1
  Na  Na15  1  0.67658292  0.32308866  0.33344409  1
  Na  Na16  1  0.31993420  0.67700480  0.17809555  1
  Na  Na17  1  0.33348988  0.66406860  0.66411973  1
  La  La0  1  0.00385441  0.01096467  0.84027689  1
  La  La1  1  0.99197563  0.99896590  0.15926096  1
  La  La2  1  0.67452672  0.33040958  0.98540936  1
  La  La3  1  0.33957259  0.65767483  0.01687314  1
  La  La4  1  0.35442507  0.65903237  0.51880103  1
  La  La5  1  0.32168736  0.67064959  0.81026148  1
  Y  Y0  1  0.98906547  0.99558382  0.34681613  1
  Y  Y1  1  0.99685429  0.99830465  0.64921253  1
  Y  Y2  1  0.67220012  0.33760272  0.67998131  1
  Y  Y3  1  0.67239870  0.32468655  0.18807043  1
  Y  Y4  1  0.67118740  0.33929205  0.48775321  1
  Y  Y5  1  0.32888306  0.68045553  0.31714552  1
  Si  Si0  1  0.30730294  0.00317432  0.24939687  1
  Si  Si1  1  0.00709448  0.31033866  0.24849914  1
  Si  Si2  1  0.99072269  0.68898212  0.74949209  1
  Si  Si3  1  0.69512036  0.00217399  0.74958868  1
  Si  Si4  1  0.96862251  0.33354193  0.58169237  1
  Si  Si5  1  0.67518945  0.63971120  0.58718393  1
  Si  Si6  1  0.66460111  0.02615661  0.08365790  1
  Si  Si7  1  0.02799733  0.35804294  0.92057647  1
  Si  Si8  1  0.64134232  0.98061816  0.41614271  1
  S  S0  1  0.68480126  0.68784357  0.25275888  1
  S  S1  1  0.31054588  0.30404666  0.74636830  1
  S  S2  1  0.36641960  0.03861365  0.58057655  1
  S  S3  1  0.97127363  0.63779873  0.08471854  1
  S  S4  1  0.36409619  0.33026708  0.08831650  1
  S  S5  1  0.64686047  0.67236943  0.91367932  1
  S  S6  1  0.32647491  0.96788162  0.92156092  1
  S  S7  1  0.33125616  0.35464282  0.41002934  1
  S  S8  1  0.03203943  0.66719410  0.41782596  1
  O  O0  1  0.20145641  0.01312951  0.30196629  1
  O  O1  1  0.79147345  0.77240497  0.30090329  1
  O  O2  1  0.97591190  0.17404964  0.29708984  1
  O  O3  1  0.24376569  0.22579888  0.80124181  1
  O  O4  1  0.99457494  0.77503127  0.81073828  1
  O  O5  1  0.78743809  0.02334619  0.81120030  1
  O  O6  1  0.81000588  0.99426708  0.69979042  1
  O  O7  1  0.20383529  0.20809865  0.69996012  1
  O  O8  1  0.00547848  0.80709594  0.69762982  1
  O  O9  1  0.75152102  0.78216099  0.20061333  1
  O  O10  1  0.03319354  0.24124853  0.18787477  1
  O  O11  1  0.21459133  0.98484858  0.18932187  1
  O  O12  1  0.87438158  0.35163969  0.63669260  1
  O  O13  1  0.47055871  0.12935233  0.62846332  1
  O  O14  1  0.65986185  0.54211894  0.64488367  1
  O  O15  1  0.86737261  0.53894210  0.13164495  1
  O  O16  1  0.65311264  0.13543106  0.13559347  1
  O  O17  1  0.45822502  0.33899484  0.13896257  1
  O  O18  1  0.45429487  0.33932918  0.03655372  1
  O  O19  1  0.89201733  0.56894822  0.03017895  1
  O  O20  1  0.67772830  0.12262490  0.02428859  1
  O  O21  1  0.44057747  0.12498999  0.52688354  1
  O  O22  1  0.67201726  0.53098686  0.53312462  1
  O  O23  1  0.86106421  0.31409012  0.52399234  1
  O  O24  1  0.55973466  0.67930215  0.96457291  1
  O  O25  1  0.11482358  0.44246843  0.98145310  1
  O  O26  1  0.32183005  0.88224668  0.97476375  1
  O  O27  1  0.55250768  0.88223373  0.47357332  1
  O  O28  1  0.30289497  0.43110606  0.45928827  1
  O  O29  1  0.12422976  0.68954257  0.47007042  1
  O  O30  1  0.11870023  0.64234228  0.36985325  1
  O  O31  1  0.52719961  0.88403277  0.36103929  1
  O  O32  1  0.34769695  0.44983974  0.35863010  1
  O  O33  1  0.13034159  0.47726813  0.86847318  1
  O  O34  1  0.34832351  0.88214454  0.87343312  1
  O  O35  1  0.55766587  0.66557518  0.86266990  1
  O  O36  1  0.01984381  0.81446995  0.40815411  1
  O  O37  1  0.82718107  0.00937923  0.41215693  1
  O  O38  1  0.18571971  0.18779307  0.40589759  1
  O  O39  1  0.99648204  0.17213192  0.91784884  1
  O  O40  1  0.17332393  0.96994788  0.91749122  1
  O  O41  1  0.80938872  0.82223414  0.91530800  1
  O  O42  1  0.97867365  0.16673790  0.58509724  1
  O  O43  1  0.20269883  0.01649170  0.58543191  1
  O  O44  1  0.84775184  0.81377195  0.58461042  1
  O  O45  1  0.00965502  0.80847517  0.08735900  1
  O  O46  1  0.83376392  0.01980832  0.08653142  1
  O  O47  1  0.20745455  0.17329890  0.08632459  1
  O  O48  1  0.67778930  0.16396356  0.74368074  1
  O  O49  1  0.47410437  0.32634695  0.74179459  1
  O  O50  1  0.81975456  0.51401848  0.74839062  1
  O  O51  1  0.66304241  0.52310388  0.24764803  1
  O  O52  1  0.84078875  0.32208508  0.24825378  1
  O  O53  1  0.48441321  0.17525265  0.24993333  1
  O  O54  1  0.67123851  0.52970508  0.91617908  1
  O  O55  1  0.84634898  0.34631232  0.91639129  1
  O  O56  1  0.46793663  0.13425704  0.92158892  1
  O  O57  1  0.65304233  0.16239856  0.41584514  1
  O  O58  1  0.47506009  0.33479605  0.41675568  1
  O  O59  1  0.86957724  0.51867420  0.42004235  1
  O  O60  1  0.32738208  0.46527462  0.08994846  1
  O  O61  1  0.12791407  0.63493146  0.08843809  1
  O  O62  1  0.49244381  0.85176398  0.08496264  1
  O  O63  1  0.35302886  0.87500957  0.58008374  1
  O  O64  1  0.53004154  0.68704474  0.58660548  1
  O  O65  1  0.14094244  0.50651549  0.57925170  1
  O  O66  1  0.34788371  0.85374565  0.25398531  1
  O  O67  1  0.52278668  0.67144134  0.26075415  1
  O  O68  1  0.17488814  0.48105508  0.25906967  1
  O  O69  1  0.32198692  0.46656640  0.74528560  1
  O  O70  1  0.13722988  0.64388717  0.74512860  1
  O  O71  1  0.52635283  0.82667546  0.74796335  1
loop_
_geom_bond_atom_site_label_1
_geom_bond_atom_site_label_2
_geom_bond_distance
_geom_bond_site_symmetry_2
Na0 O66 2.416904 1_545
Na0 O31 2.575693 1_545
Na0 O53 2.579226 1_555
Na0 O52 2.593265 1_555
Na0 O2 2.916631 1_555
Na0 O67 2.919090 1_545
Na1 O68 2.520154 1_555
Na1 O53 2.571384 1_555
Na1 O32 2.600390 1_555
Na1 O51 2.707162 1_555
Na1 O67 2.744420 1_555
Na1 O0 2.910513 1_555
Na2 O14 2.292748 1_555
Na2 O71 2.524354 1_555
Na2 O50 2.566962 1_555
Na2 O49 2.777816 1_555
Na2 O69 2.837126 1_555
Na2 O6 2.855464 1_555
Na2 O8 2.974952 1_655
Na3 O70 2.368121 1_655
Na3 O48 2.496513 1_555
Na3 O50 2.558611 1_555
Na3 O12 2.579683 1_555
Na3 O69 2.964493 1_655
Na4 O44 2.503920 1_455
Na4 O65 2.508173 1_555
Na4 O8 2.733733 1_555
Na4 O12 2.837418 1_455
Na4 O43 2.857688 1_565
Na4 O63 2.898690 1_555
Na5 O64 2.379158 1_555
Na5 O42 2.473476 1_565
Na5 O44 2.670052 1_555
Na5 O63 2.826633 1_555
Na5 O27 2.845560 1_555
Na5 O6 2.975934 1_555
Na6 O11 2.315013 1_555
Na6 O62 2.459260 1_555
Na6 O45 2.621096 1_555
Na6 O47 2.661862 1_565
Na6 O61 2.827875 1_555
Na6 O16 2.847223 1_565
Na7 O46 2.470891 1_455
Na7 O10 2.566613 1_555
Na7 O60 2.586849 1_555
Na7 O61 2.671795 1_555
Na7 O25 2.706404 1_554
Na7 O47 2.772005 1_555
Na8 O4 2.283950 1_555
Na8 O55 2.516329 1_555
Na8 O54 2.557923 1_555
Na8 O33 2.753777 1_655
Na8 O40 2.794644 1_655
Na8 O41 2.858263 1_555
Na9 O39 2.358291 1_555
Na9 O5 2.381574 1_555
Na9 O55 2.477574 1_555
Na9 O41 2.731661 1_545
Na9 O56 2.884525 1_555
Na9 O20 2.986347 1_556
Na10 O37 2.326828 1_555
Na10 O57 2.467615 1_555
Na10 O23 2.540966 1_555
Na10 O59 2.657946 1_555
Na10 O38 2.903107 1_655
Na11 O57 2.484040 1_555
Na11 O58 2.543325 1_555
Na11 O38 2.701609 1_555
Na11 O36 2.814562 1_545
Na11 O31 2.870619 1_545
Na11 O0 2.903808 1_555
Na11 O21 2.926406 1_555
Na12 O44 2.349544 1_555
Na12 O42 2.421616 1_565
Na12 O37 2.639355 1_565
Na12 O43 2.894882 1_665
Na13 O39 2.336414 1_555
Na13 O46 2.529330 1_556
Na13 O41 2.645831 1_545
Na13 O47 2.849467 1_656
Na13 O40 2.864543 1_645
Na14 O48 2.334814 1_555
Na14 O50 2.340153 1_555
Na14 O49 2.633288 1_555
Na14 O55 2.812619 1_555
Na15 O57 2.427084 1_555
Na15 O52 2.566659 1_555
Na15 O53 2.590588 1_555
Na15 O59 2.770721 1_555
Na15 O58 2.805141 1_555
Na15 O51 2.837817 1_555
Na16 O66 2.388739 1_555
Na16 O68 2.558645 1_555
Na16 O61 2.707120 1_555
Na16 O62 2.770112 1_555
Na16 O67 2.777726 1_555
Na16 O60 2.932419 1_555
Na17 O64 2.563928 1_555
Na17 O71 2.629677 1_555
Na17 O70 2.629815 1_555
Na17 O65 2.635853 1_555
Na17 O69 2.659147 1_555
Na17 O63 2.773615 1_555
La0 O5 2.238553 1_455
La0 O4 2.312900 1_445
La0 O3 2.376349 1_555
La0 O39 2.421795 1_455
La0 O41 2.560420 1_445
La0 O40 2.601579 1_545
La1 O10 2.243915 1_665
La1 O11 2.310554 1_655
La1 O46 2.368023 1_565
La1 O9 2.408379 1_555
La1 O45 2.557881 1_655
La1 O47 2.572137 1_665
La2 O20 2.198495 1_556
La2 O55 2.274249 1_555
La2 O19 2.430787 1_556
La2 O56 2.451492 1_555
La2 O18 2.470304 1_556
La2 O54 2.524726 1_555
La3 O25 2.266784 1_554
La3 O62 2.339781 1_555
La3 O24 2.365102 1_554
La3 O26 2.442948 1_554
La3 O60 2.485942 1_555
La3 O61 2.570652 1_555
La4 O64 2.243630 1_555
La4 O27 2.294318 1_555
La4 O65 2.323947 1_555
La4 O28 2.426187 1_555
La4 O63 2.525211 1_555
La4 O29 2.626552 1_555
La5 O70 2.261948 1_555
La5 O33 2.304504 1_555
La5 O71 2.312332 1_555
La5 O34 2.421093 1_555
La5 O69 2.482931 1_555
La5 O35 2.597017 1_555
O0 Si0 1.640982 1_555
O0 Y0 2.226103 1_445
O1 S0 1.475396 1_555
O1 Y0 2.296628 1_555
O2 Si1 1.650842 1_655
O2 Y0 2.125161 1_545
O3 S1 1.481243 1_555
O4 Si2 1.661484 1_555
O5 Si3 1.668307 1_555
O6 Si3 1.642729 1_565
O6 Y1 2.138900 1_555
O7 S1 1.469996 1_555
O7 Y1 2.328129 1_445
O8 Si2 1.627593 1_455
O8 Y1 2.190658 1_455
O9 S0 1.477604 1_555
O10 Si1 1.653696 1_555
O11 Si0 1.642362 1_565
O12 Si4 1.645514 1_555
O12 Y2 2.135622 1_555
O13 S2 1.474240 1_555
O13 Y2 2.310078 1_555
O14 Si5 1.622573 1_555
O14 Y2 2.175767 1_555
O15 S3 1.480183 1_555
O15 Y3 2.379689 1_555
O16 Si6 1.652730 1_555
O16 Y3 2.122425 1_555
O17 S4 1.479310 1_555
O17 Y3 2.417582 1_555
O18 S4 1.481084 1_555
O19 S3 1.478727 1_555
O20 Si6 1.654812 1_555
O21 S2 1.493814 1_555
O21 Y4 2.328615 1_555
O22 Si5 1.640487 1_555
O22 Y4 2.116456 1_555
O23 Si4 1.667014 1_555
O23 Y4 2.127004 1_555
O24 S5 1.489529 1_555
O25 Si7 1.661511 1_555
O26 S6 1.493841 1_555
O27 Si8 1.635693 1_555
O28 S7 1.473390 1_555
O29 S8 1.474524 1_555
O30 S8 1.496598 1_555
O30 Y5 2.240620 1_555
O31 Si8 1.657850 1_555
O31 Y5 2.185763 1_555
O32 S7 1.482992 1_555
O32 Y5 2.494736 1_555
O33 Si7 1.637055 1_555
O34 S6 1.479238 1_555
O35 S5 1.464073 1_555
O36 S8 1.482177 1_555
O36 Y0 2.386243 1_455
O37 Si8 1.660353 1_545
O37 Y0 2.243388 1_545
O38 S7 1.506835 1_555
O38 Y0 2.328888 1_445
O39 Si7 1.642899 1_655
O40 S6 1.477066 1_555
O41 S5 1.498817 1_555
O42 Si4 1.640584 1_555
O42 Y1 2.281530 1_545
O43 S2 1.476467 1_555
O43 Y1 2.422782 1_445
O44 Si5 1.659255 1_555
O44 Y1 2.230937 1_555
O45 S3 1.478956 1_455
O46 Si6 1.649445 1_555
O47 S4 1.500751 1_555
O48 Si3 1.635735 1_555
O48 Y2 2.262878 1_555
O49 S1 1.473761 1_555
O49 Y2 2.358427 1_555
O50 Si2 1.655053 1_555
O50 Y2 2.255989 1_555
O51 S0 1.481455 1_555
O51 Y3 2.397825 1_555
O52 Si1 1.648405 1_655
O52 Y3 2.161473 1_555
O53 Si0 1.671012 1_555
O53 Y3 2.209592 1_555
O54 S5 1.489649 1_555
O55 Si7 1.686588 1_655
O56 S6 1.485898 1_545
O57 Si8 1.678452 1_545
O57 Y4 2.344055 1_555
O58 S7 1.486360 1_555
O58 Y4 2.505338 1_555
O59 S8 1.493515 1_655
O59 Y4 2.427729 1_555
O60 S4 1.492290 1_555
O61 S3 1.513732 1_455
O62 Si6 1.658039 1_565
O63 S2 1.498633 1_565
O64 Si5 1.658668 1_555
O65 Si4 1.652773 1_455
O66 Si0 1.654413 1_565
O66 Y5 2.171610 1_555
O67 S0 1.489843 1_555
O67 Y5 2.324860 1_555
O68 Si1 1.638186 1_555
O68 Y5 2.211202 1_555
O69 S1 1.496670 1_555
O70 Si2 1.660032 1_455
O71 Si3 1.647818 1_565
