# generated using pymatgen
data_Rb8Mg(FeO4)2
_symmetry_space_group_name_H-M   'P 1'
_cell_length_a   6.79145046
_cell_length_b   6.66416969
_cell_length_c   10.38401253
_cell_angle_alpha   70.70864607
_cell_angle_beta   85.42511281
_cell_angle_gamma   63.53220472
_symmetry_Int_Tables_number   1
_chemical_formula_structural   Rb8Mg(FeO4)2
_chemical_formula_sum   'Rb8 Mg1 Fe2 O8'
_cell_volume   395.82235359
_cell_formula_units_Z   1
loop_
 _symmetry_equiv_pos_site_id
 _symmetry_equiv_pos_as_xyz
  1  'x, y, z'
loop_
 _atom_site_type_symbol
 _atom_site_label
 _atom_site_symmetry_multiplicity
 _atom_site_fract_x
 _atom_site_fract_y
 _atom_site_fract_z
 _atom_site_occupancy
  Rb  Rb0  1  0.26868337  0.77198166  0.03834158  1
  Rb  Rb1  1  0.20258801  0.46399522  0.45969868  1
  Rb  Rb2  1  0.30035211  0.28465917  0.83142161  1
  Rb  Rb3  1  0.18803824  0.94317095  0.61810385  1
  Rb  Rb4  1  0.75820273  0.90307813  0.39803465  1
  Rb  Rb5  1  0.82358945  0.66611564  0.07308582  1
  Rb  Rb6  1  0.71135256  0.46050885  0.67883371  1
  Rb  Rb7  1  0.73455340  0.25428118  0.03156572  1
  Mg  Mg0  1  0.63865763  0.40634409  0.37044731  1
  Fe  Fe0  1  0.25243850  0.13105351  0.25314472  1
  Fe  Fe1  1  0.75055709  0.90766658  0.72827457  1
  O  O0  1  0.15103310  0.20454352  0.07531341  1
  O  O1  1  0.96708367  0.27636590  0.33758449  1
  O  O2  1  0.43111953  0.30447127  0.25549763  1
  O  O3  1  0.61995993  0.19404873  0.56168089  1
  O  O4  1  0.44607601  0.77109629  0.33224672  1
  O  O5  1  0.55403930  0.78314904  0.82722785  1
  O  O6  1  0.97424041  0.67367246  0.66104130  1
  O  O7  1  0.86743497  0.99979781  0.84970548  1
loop_
_geom_bond_atom_site_label_1
_geom_bond_atom_site_label_2
_geom_bond_distance
_geom_bond_site_symmetry_2
Mg0 O1 2.047807 1_555
Mg0 O3 2.055385 1_555
Mg0 O4 2.094839 1_555
Mg0 O2 2.351407 1_555
Fe0 O0 1.851688 1_555
Fe0 O1 2.019758 1_455
Fe0 O2 2.020468 1_555
Fe0 O4 2.053494 1_545
Fe1 O6 1.914517 1_555
Fe1 O7 1.924226 1_555
Fe1 O5 1.931507 1_555
Fe1 O3 1.994002 1_565
O0 Rb2 2.628093 1_554
O0 Rb7 2.754347 1_455
O0 Rb0 2.779345 1_545
O0 Rb5 2.875992 1_455
O1 Rb5 2.949007 1_555
O1 Rb1 2.980502 1_655
O1 Rb3 3.020067 1_645
O2 Rb4 2.625328 1_545
O2 Rb1 2.743893 1_555
O2 Rb0 2.949517 1_555
O2 Rb7 2.983409 1_555
O3 Rb1 2.658402 1_555
O3 Rb6 2.747485 1_555
O3 Rb4 2.798039 1_545
O4 Rb4 2.832631 1_555
O4 Rb1 3.090706 1_555
O4 Rb0 3.366594 1_555
O5 Rb0 2.812493 1_556
O5 Rb6 2.831578 1_555
O5 Rb5 2.938452 1_556
O5 Rb3 2.999922 1_555
O5 Rb2 3.015236 1_565
O5 Rb7 3.170045 1_556
O6 Rb3 2.687900 1_655
O6 Rb2 2.689350 1_655
O6 Rb6 2.697126 1_555
O6 Rb4 2.798150 1_555
O6 Rb1 2.865347 1_655
O7 Rb5 2.736043 1_556
O7 Rb6 2.738220 1_565
O7 Rb7 2.781505 1_566
O7 Rb0 2.960825 1_656
O7 Rb3 3.114323 1_655
