# generated using pymatgen
data_NaNO3
_symmetry_space_group_name_H-M   'P 1'
_cell_length_a   5.06347124
_cell_length_b   6.14151269
_cell_length_c   17.15083790
_cell_angle_alpha   83.41298689
_cell_angle_beta   81.51764738
_cell_angle_gamma   65.65701800
_symmetry_Int_Tables_number   1
_chemical_formula_structural   NaNO3
_chemical_formula_sum   'Na8 N8 O24'
_cell_volume   479.75224000
_cell_formula_units_Z   8
loop_
 _symmetry_equiv_pos_site_id
 _symmetry_equiv_pos_as_xyz
  1  'x, y, z'
loop_
 _atom_site_type_symbol
 _atom_site_label
 _atom_site_symmetry_multiplicity
 _atom_site_fract_x
 _atom_site_fract_y
 _atom_site_fract_z
 _atom_site_occupancy
  Na  Na0  1  0.00426693  0.00279237  0.99926170  1
  Na  Na1  1  0.24999563  0.37899446  0.12341438  1
  Na  Na2  1  0.50017161  0.75085543  0.24783037  1
  Na  Na3  1  0.75133190  0.12382466  0.37320097  1
  Na  Na4  1  0.00421103  0.49731515  0.49769254  1
  Na  Na5  1  0.25606107  0.87182462  0.62323569  1
  Na  Na6  1  0.50899490  0.24653448  0.74792092  1
  Na  Na7  1  0.75889964  0.62290109  0.87317582  1
  N  N0  1  0.62229275  0.69796105  0.06096402  1
  N  N1  1  0.12616388  0.43844291  0.31098005  1
  N  N2  1  0.86976381  0.07044871  0.18635184  1
  N  N3  1  0.62939434  0.18611232  0.56085600  1
  N  N4  1  0.37807991  0.81114448  0.43580174  1
  N  N5  1  0.13324021  0.93516735  0.81136031  1
  N  N6  1  0.88135040  0.56029075  0.68572299  1
  N  N7  1  0.38160947  0.31595799  0.93644164  1
  O  O0  1  0.48824476  0.63960327  0.12182616  1
  O  O1  1  0.87076090  0.69492799  0.06374797  1
  O  O2  1  0.50700561  0.76047174  0.99739307  1
  O  O3  1  0.00297665  0.37330991  0.37271643  1
  O  O4  1  0.00176384  0.50255002  0.24889201  1
  O  O5  1  0.37399282  0.43953864  0.31141293  1
  O  O6  1  0.62139454  0.06874311  0.18781086  1
  O  O7  1  0.00071351  0.00477966  0.24732449  1
  O  O8  1  0.98652933  0.13850941  0.12394489  1
  O  O9  1  0.50415076  0.12410067  0.62280557  1
  O  O10  1  0.50601351  0.24853169  0.49857398  1
  O  O11  1  0.87787651  0.18590067  0.56123585  1
  O  O12  1  0.12881567  0.81221947  0.43618965  1
  O  O13  1  0.50342158  0.74875473  0.49777889  1
  O  O14  1  0.50211514  0.87250494  0.37347511  1
  O  O15  1  0.00920153  0.87359361  0.87365947  1
  O  O16  1  0.00915067  0.99574789  0.74918723  1
  O  O17  1  0.38131911  0.93615768  0.81123856  1
  O  O18  1  0.63252817  0.56029106  0.68619826  1
  O  O19  1  0.00736911  0.49760053  0.74757759  1
  O  O20  1  0.00390837  0.62312369  0.62340261  1
  O  O21  1  0.13280357  0.31530370  0.93767815  1
  O  O22  1  0.50660841  0.25956424  0.99844703  1
  O  O23  1  0.50535444  0.37352886  0.87334729  1
loop_
_geom_bond_atom_site_label_1
_geom_bond_atom_site_label_2
_geom_bond_distance
_geom_bond_site_symmetry_2
Na0 O2 2.357888 1_545
Na0 O22 2.359277 1_455
Na0 O8 2.359279 1_456
Na0 O21 2.363213 1_555
Na0 O1 2.368233 1_446
Na0 O15 2.372902 1_545
Na1 O1 2.356251 1_455
Na1 O6 2.358570 1_555
Na1 O22 2.360812 1_554
Na1 O4 2.361637 1_555
Na1 O8 2.361949 1_455
Na1 O0 2.364284 1_555
Na2 O0 2.356273 1_555
Na2 O5 2.361379 1_555
Na2 O7 2.362176 1_565
Na2 O14 2.362965 1_555
Na2 O6 2.363970 1_565
Na2 O4 2.364473 1_655
Na3 O10 2.357692 1_555
Na3 O3 2.361100 1_655
Na3 O14 2.361576 1_545
Na3 O7 2.363606 1_655
Na3 O12 2.366877 1_645
Na3 O5 2.367474 1_555
Na4 O3 2.357284 1_555
Na4 O11 2.362102 1_455
Na4 O13 2.363443 1_455
Na4 O12 2.364872 1_555
Na4 O10 2.365644 1_555
Na4 O20 2.371859 1_555
Na5 O13 2.359542 1_555
Na5 O20 2.359809 1_555
Na5 O9 2.361725 1_565
Na5 O18 2.363690 1_555
Na5 O11 2.367146 1_465
Na5 O16 2.367420 1_555
Na6 O18 2.356969 1_555
Na6 O17 2.358952 1_545
Na6 O9 2.360404 1_555
Na6 O16 2.362053 1_645
Na6 O23 2.365911 1_555
Na6 O19 2.366989 1_555
Na7 O21 2.359426 1_655
Na7 O17 2.362824 1_555
Na7 O15 2.364640 1_655
Na7 O19 2.365988 1_655
Na7 O2 2.366921 1_555
Na7 O23 2.369080 1_555
N0 O1 1.258439 1_555
N0 O2 1.258521 1_554
N0 O0 1.258749 1_555
N1 O4 1.258155 1_555
N1 O3 1.258527 1_555
N1 O5 1.258782 1_555
N2 O7 1.258252 1_655
N2 O6 1.258506 1_555
N2 O8 1.258689 1_555
N3 O9 1.258407 1_555
N3 O10 1.258478 1_555
N3 O11 1.258624 1_555
N4 O12 1.258473 1_555
N4 O14 1.258476 1_555
N4 O13 1.258808 1_555
N5 O17 1.258353 1_555
N5 O16 1.258638 1_555
N5 O15 1.258670 1_555
N6 O20 1.258397 1_655
N6 O19 1.258681 1_655
N6 O18 1.258727 1_555
N7 O23 1.258345 1_555
N7 O21 1.258526 1_555
N7 O22 1.258895 1_555
