# generated using pymatgen
data_BaPrMg(CoO3)2
_symmetry_space_group_name_H-M   'P 1'
_cell_length_a   3.60849752
_cell_length_b   4.12139604
_cell_length_c   10.90073580
_cell_angle_alpha   90.00000000
_cell_angle_beta   90.00000000
_cell_angle_gamma   90.00000000
_symmetry_Int_Tables_number   1
_chemical_formula_structural   BaPrMg(CoO3)2
_chemical_formula_sum   'Ba1 Pr1 Mg1 Co2 O6'
_cell_volume   162.11625940
_cell_formula_units_Z   1
loop_
 _symmetry_equiv_pos_site_id
 _symmetry_equiv_pos_as_xyz
  1  'x, y, z'
loop_
 _atom_site_type_symbol
 _atom_site_label
 _atom_site_symmetry_multiplicity
 _atom_site_fract_x
 _atom_site_fract_y
 _atom_site_fract_z
 _atom_site_occupancy
  Ba  Ba0  1  0.00000000  0.00000000  0.86175574  1
  Pr  Pr0  1  0.00000000  0.00000000  0.48220096  1
  Mg  Mg0  1  0.00000000  0.50000000  0.10814149  1
  Co  Co0  1  0.50000000  0.50000000  0.67348390  1
  Co  Co1  1  0.50000000  0.50000000  0.31533576  1
  O  O0  1  0.00000000  0.50000000  0.73808219  1
  O  O1  1  0.50000000  0.00000000  0.67064157  1
  O  O2  1  0.00000000  0.50000000  0.28484871  1
  O  O3  1  0.50000000  0.00000000  0.33638500  1
  O  O4  1  0.50000000  0.50000000  0.50127457  1
  O  O5  1  0.50000000  0.50000000  0.02785210  1
loop_
_geom_bond_atom_site_label_1
_geom_bond_atom_site_label_2
_geom_bond_distance
_geom_bond_site_symmetry_2
Ba0 O0 2.462506 1_545
Ba0 O0 2.462506 1_555
Ba0 O1 2.755974 1_455
Ba0 O1 2.755974 1_555
Ba0 O5 3.283285 1_446
Ba0 O5 3.283285 1_546
Ba0 O5 3.283285 1_556
Ba0 O5 3.283285 1_456
Mg0 O2 1.926239 1_555
Mg0 O5 2.005321 1_555
Mg0 O5 2.005321 1_455
Co0 O4 1.877208 1_555
Co0 O0 1.936793 1_655
Co0 O0 1.936793 1_555
Co0 O1 2.060931 1_555
Co0 O1 2.060931 1_565
Co1 O2 1.834600 1_655
Co1 O2 1.834600 1_555
Co1 O4 2.026870 1_555
Co1 O3 2.073433 1_555
Co1 O3 2.073433 1_565
O1 Pr0 2.734010 1_655
O1 Pr0 2.734010 1_555
O2 Pr0 2.979010 1_565
O2 Pr0 2.979010 1_555
O3 Pr0 2.404543 1_555
O3 Pr0 2.404543 1_655
O4 Pr0 2.746820 1_665
O4 Pr0 2.746820 1_655
O4 Pr0 2.746820 1_565
O4 Pr0 2.746820 1_555
