# generated using pymatgen
data_Na9Mg4Ta8Si3(P5O24)3
_symmetry_space_group_name_H-M   'P 1'
_cell_length_a   8.80198137
_cell_length_b   8.80705169
_cell_length_c   22.63319998
_cell_angle_alpha   89.90379252
_cell_angle_beta   90.14425950
_cell_angle_gamma   120.03018727
_symmetry_Int_Tables_number   1
_chemical_formula_structural   Na9Mg4Ta8Si3(P5O24)3
_chemical_formula_sum   'Na9 Mg4 Ta8 Si3 P15 O72'
_cell_volume   1518.98668860
_cell_formula_units_Z   1
loop_
 _symmetry_equiv_pos_site_id
 _symmetry_equiv_pos_as_xyz
  1  'x, y, z'
loop_
 _atom_site_type_symbol
 _atom_site_label
 _atom_site_symmetry_multiplicity
 _atom_site_fract_x
 _atom_site_fract_y
 _atom_site_fract_z
 _atom_site_occupancy
  Na  Na0  1  0.98539156  0.62739289  0.24343545  1
  Na  Na1  1  0.37318581  0.01638949  0.74362216  1
  Na  Na2  1  0.32016936  0.03098687  0.41067603  1
  Na  Na3  1  0.99314313  0.00436019  0.49360204  1
  Na  Na4  1  0.00012081  0.99867421  0.99234134  1
  Na  Na5  1  0.67901321  0.34543091  0.82470783  1
  Na  Na6  1  0.66446601  0.33079603  0.32385884  1
  Na  Na7  1  0.34065230  0.66751537  0.16497835  1
  Na  Na8  1  0.33313374  0.66073120  0.66469469  1
  Mg  Mg0  1  0.99623885  0.00256996  0.35411792  1
  Mg  Mg1  1  0.99879147  0.99841590  0.85458853  1
  Mg  Mg2  1  0.67126762  0.33550902  0.68568913  1
  Mg  Mg3  1  0.66356834  0.32872752  0.18509022  1
  Ta  Ta0  1  0.00188595  0.00141915  0.64638884  1
  Ta  Ta1  1  0.00031855  0.00058359  0.14578875  1
  Ta  Ta2  1  0.66882484  0.33751468  0.97910556  1
  Ta  Ta3  1  0.66435239  0.33514890  0.48037256  1
  Ta  Ta4  1  0.33135060  0.66746216  0.02100832  1
  Ta  Ta5  1  0.33245591  0.66402307  0.52162090  1
  Ta  Ta6  1  0.33828341  0.66251531  0.31065995  1
  Ta  Ta7  1  0.33333626  0.66372239  0.81102943  1
  Si  Si0  1  0.37781013  0.04456042  0.58730257  1
  Si  Si1  1  0.95375188  0.62194314  0.08750236  1
  Si  Si2  1  0.32948787  0.37149301  0.41705803  1
  P  P0  1  0.29423635  0.00642215  0.25325305  1
  P  P1  1  0.71420575  0.71246786  0.25177107  1
  P  P2  1  0.99442532  0.28506175  0.25228629  1
  P  P3  1  0.28910223  0.28719911  0.75259859  1
  P  P4  1  0.99243791  0.70741633  0.75291637  1
  P  P5  1  0.71624603  0.00506076  0.75310485  1
  P  P6  1  0.95275486  0.33256595  0.58515940  1
  P  P7  1  0.66774888  0.62151522  0.58567997  1
  P  P8  1  0.66749473  0.04771406  0.08423681  1
  P  P9  1  0.38062585  0.33371218  0.08428617  1
  P  P10  1  0.62323870  0.66779284  0.91704932  1
  P  P11  1  0.04447669  0.37558868  0.91672964  1
  P  P12  1  0.33279460  0.95642078  0.91590043  1
  P  P13  1  0.62360240  0.95353511  0.41714460  1
  P  P14  1  0.04310239  0.66182073  0.41556951  1
  O  O0  1  0.21094839  0.01988454  0.30998808  1
  O  O1  1  0.82635828  0.79677339  0.30531167  1
  O  O2  1  0.97925227  0.18195588  0.30661773  1
  O  O3  1  0.20382217  0.17405554  0.80579544  1
  O  O4  1  0.97865726  0.79634372  0.80743915  1
  O  O5  1  0.82078250  0.02147008  0.80736225  1
  O  O6  1  0.79906388  0.97260236  0.69581898  1
  O  O7  1  0.16977985  0.20021054  0.69537397  1
  O  O8  1  0.03140324  0.83202518  0.69624423  1
  O  O9  1  0.80244918  0.83098833  0.19474471  1
  O  O10  1  0.02583597  0.20140218  0.19514160  1
  O  O11  1  0.16692484  0.97304615  0.19775058  1
  O  O12  1  0.88221828  0.37018642  0.63925583  1
  O  O13  1  0.48313010  0.11450521  0.64678434  1
  O  O14  1  0.63281110  0.51232661  0.63946877  1
  O  O15  1  0.88830503  0.51763824  0.14729421  1
  O  O16  1  0.62684987  0.11534503  0.13860833  1
  O  O17  1  0.48846486  0.36915920  0.13872384  1
  O  O18  1  0.46496308  0.30254999  0.02769633  1
  O  O19  1  0.82978116  0.52432270  0.02806840  1
  O  O20  1  0.69196526  0.16142538  0.02772509  1
  O  O21  1  0.47147859  0.16557478  0.52642745  1
  O  O22  1  0.69751510  0.53570213  0.52866813  1
  O  O23  1  0.84113426  0.30820940  0.52815655  1
  O  O24  1  0.52397084  0.67983703  0.97139771  1
  O  O25  1  0.15833558  0.47711726  0.97117856  1
  O  O26  1  0.32088573  0.84019000  0.96983333  1
  O  O27  1  0.52380240  0.84245597  0.47186257  1
  O  O28  1  0.31674588  0.47940053  0.47309153  1
  O  O29  1  0.16326524  0.68669377  0.46962426  1
  O  O30  1  0.13180335  0.63755643  0.35904109  1
  O  O31  1  0.49925991  0.86945389  0.36208069  1
  O  O32  1  0.36283976  0.50212885  0.35936898  1
  O  O33  1  0.13488547  0.49626112  0.86175681  1
  O  O34  1  0.36049846  0.86754282  0.85986815  1
  O  O35  1  0.50266092  0.63902455  0.86175865  1
  O  O36  1  0.02675789  0.82386953  0.41234183  1
  O  O37  1  0.79925256  0.96782086  0.41321949  1
  O  O38  1  0.17016532  0.17660992  0.41552425  1
  O  O39  1  0.02743558  0.19830366  0.91380843  1
  O  O40  1  0.17150380  0.97245709  0.91378692  1
  O  O41  1  0.80231815  0.82565978  0.91354218  1
  O  O42  1  0.97083757  0.16508534  0.58992389  1
  O  O43  1  0.17947964  0.02348697  0.59064328  1
  O  O44  1  0.83114324  0.80913363  0.59015786  1
  O  O45  1  0.97813104  0.82114289  0.09045032  1
  O  O46  1  0.83550230  0.03073068  0.08935246  1
  O  O47  1  0.19209075  0.17080525  0.08982844  1
  O  O48  1  0.67707591  0.15355190  0.74647788  1
  O  O49  1  0.47185542  0.31519399  0.74382974  1
  O  O50  1  0.84338057  0.52529036  0.74348452  1
  O  O51  1  0.68543611  0.52920288  0.24354731  1
  O  O52  1  0.84431249  0.32237070  0.24599915  1
  O  O53  1  0.47506849  0.15906023  0.24365822  1
  O  O54  1  0.62827070  0.49194499  0.92312996  1
  O  O55  1  0.86270835  0.36704978  0.92380729  1
  O  O56  1  0.50539601  0.13609796  0.92384806  1
  O  O57  1  0.63148914  0.13505729  0.42407860  1
  O  O58  1  0.51467650  0.36389334  0.42300793  1
  O  O59  1  0.86545386  0.49090437  0.42373268  1
  O  O60  1  0.35426060  0.49409305  0.07147034  1
  O  O61  1  0.15191669  0.65355951  0.07204098  1
  O  O62  1  0.51199489  0.85773554  0.07130271  1
  O  O63  1  0.34580040  0.84715538  0.57277422  1
  O  O64  1  0.50779361  0.64869399  0.57349570  1
  O  O65  1  0.14214609  0.49071728  0.57345563  1
  O  O66  1  0.29663037  0.82532382  0.25512626  1
  O  O67  1  0.52996262  0.70519366  0.25548905  1
  O  O68  1  0.17025592  0.47751793  0.25601448  1
  O  O69  1  0.29912577  0.47239711  0.75719200  1
  O  O70  1  0.17478254  0.70330691  0.75698754  1
  O  O71  1  0.52388140  0.82870538  0.75788352  1
loop_
_geom_bond_atom_site_label_1
_geom_bond_atom_site_label_2
_geom_bond_distance
_geom_bond_site_symmetry_2
Na0 O52 2.328688 1_555
Na0 O51 2.330940 1_555
Na0 O15 2.360177 1_555
Na0 O66 2.414896 1_655
Na0 O68 2.572391 1_655
Na0 O11 2.831695 1_655
Na0 O1 2.872801 1_555
Na0 O30 2.895401 1_655
Na1 O48 2.320221 1_555
Na1 O49 2.322063 1_555
Na1 O13 2.377874 1_555
Na1 O70 2.433994 1_545
Na1 O71 2.605062 1_545
Na1 O8 2.817264 1_545
Na1 O3 2.866983 1_555
Na1 O34 2.914886 1_545
Na2 O38 2.257485 1_555
Na2 O36 2.298614 1_545
Na2 O57 2.433894 1_555
Na2 O0 2.454129 1_555
Na2 O58 2.565416 1_555
Na2 O31 2.824370 1_545
Na2 O21 2.907748 1_555
Na2 O29 2.947180 1_545
Na3 O38 2.343276 1_655
Na3 O37 2.400552 1_545
Na3 O36 2.545629 1_645
Na3 O42 2.661884 1_555
Na3 O43 2.692386 1_655
Na3 O44 2.704527 1_545
Na4 O40 2.419398 1_555
Na4 O41 2.423223 1_455
Na4 O39 2.424209 1_565
Na4 O45 2.664656 1_456
Na4 O46 2.725389 1_466
Na4 O47 2.729517 1_566
Na5 O50 2.385704 1_555
Na5 O48 2.443782 1_555
Na5 O49 2.499071 1_555
Na5 O55 2.712262 1_555
Na5 O54 2.723646 1_555
Na5 O56 2.820029 1_555
Na6 O52 2.397679 1_555
Na6 O53 2.414942 1_555
Na6 O51 2.461638 1_555
Na6 O58 2.694593 1_555
Na6 O57 2.773180 1_555
Na6 O59 2.778748 1_555
Na7 O67 2.552427 1_555
Na7 O68 2.605165 1_555
Na7 O66 2.607155 1_555
Na7 O61 2.641654 1_555
Na7 O60 2.649801 1_555
Na7 O62 2.655473 1_555
Na8 O69 2.591931 1_555
Na8 O65 2.608798 1_555
Na8 O64 2.610583 1_555
Na8 O63 2.615886 1_555
Na8 O71 2.638666 1_555
Na8 O70 2.643316 1_555
Mg0 O2 1.975862 1_555
Mg0 O1 2.006717 1_545
Mg0 O38 2.066987 1_655
Mg0 O0 2.076777 1_655
Mg0 O37 2.090091 1_545
Mg0 O36 2.167965 1_645
Mg1 O5 1.986945 1_565
Mg1 O4 2.006772 1_555
Mg1 O3 2.019749 1_665
Mg1 O41 2.111200 1_555
Mg1 O40 2.120162 1_655
Mg1 O39 2.126293 1_665
Mg2 O13 2.019493 1_555
Mg2 O12 2.021519 1_555
Mg2 O14 2.038205 1_555
Mg2 O50 2.064639 1_555
Mg2 O48 2.130218 1_555
Mg2 O49 2.130950 1_555
Mg3 O15 2.030385 1_555
Mg3 O16 2.034672 1_555
Mg3 O17 2.035552 1_555
Mg3 O53 2.065374 1_555
Mg3 O52 2.124241 1_555
Mg3 O51 2.138062 1_555
O0 P0 1.514147 1_555
O1 P1 1.502531 1_555
O2 P2 1.493401 1_555
O3 P3 1.502631 1_555
O4 P4 1.500000 1_555
O5 P5 1.495781 1_555
O6 P5 1.583905 1_565
O6 Ta0 2.014627 1_665
O7 P3 1.599564 1_555
O7 Ta0 1.971520 1_555
O8 P4 1.608726 1_455
O8 Ta0 1.986765 1_565
O9 P1 1.596168 1_555
O9 Ta1 1.972917 1_665
O10 P2 1.581454 1_455
O10 Ta1 2.008470 1_555
O11 P0 1.607677 1_565
O11 Ta1 1.984640 1_565
O12 P6 1.485068 1_555
O13 Si0 1.573591 1_555
O14 P7 1.484371 1_555
O15 Si1 1.573901 1_555
O16 P8 1.488323 1_555
O17 P9 1.488391 1_555
O18 P9 1.573766 1_555
O18 Ta2 1.994962 1_554
O19 Si1 1.672381 1_555
O19 Ta2 1.899270 1_554
O20 P8 1.570493 1_555
O20 Ta2 1.991675 1_554
O21 Si0 1.683820 1_555
O21 Ta3 1.914418 1_555
O22 P7 1.583672 1_555
O22 Ta3 1.971959 1_555
O23 P6 1.568245 1_555
O23 Ta3 2.001838 1_555
O24 P10 1.544800 1_555
O24 Ta4 1.992839 1_556
O25 P11 1.556646 1_555
O25 Ta4 1.960560 1_556
O26 P12 1.561391 1_555
O26 Ta4 1.948833 1_556
O27 P13 1.550385 1_555
O27 Ta5 1.982151 1_555
O28 Si2 1.623441 1_555
O28 Ta5 1.910379 1_555
O29 P14 1.557537 1_555
O29 Ta5 1.982572 1_555
O30 P14 1.570059 1_555
O30 Ta6 2.039560 1_555
O31 P13 1.576206 1_555
O31 Ta6 2.024301 1_555
O32 Si2 1.665388 1_555
O32 Ta6 1.885869 1_555
O33 P11 1.569983 1_555
O33 Ta7 1.992581 1_555
O34 P12 1.573661 1_555
O34 Ta7 2.019164 1_555
O35 P10 1.575387 1_555
O35 Ta7 1.975320 1_555
O36 P14 1.505974 1_555
O37 P13 1.489970 1_555
O38 Si2 1.582554 1_555
O39 P11 1.493518 1_555
O40 P12 1.496010 1_555
O41 P10 1.493538 1_555
O42 P6 1.564282 1_555
O42 Ta0 2.042533 1_655
O43 Si0 1.662517 1_555
O43 Ta0 1.943760 1_555
O44 P7 1.558917 1_555
O44 Ta0 2.048515 1_665
O45 Si1 1.658856 1_555
O45 Ta1 1.949576 1_665
O46 P8 1.563041 1_555
O46 Ta1 2.044918 1_655
O47 P9 1.563787 1_555
O47 Ta1 2.042655 1_555
O48 P5 1.517236 1_555
O49 P3 1.514008 1_555
O50 P4 1.494352 1_555
O51 P1 1.515098 1_555
O52 P2 1.519035 1_555
O53 P0 1.498950 1_555
O54 P10 1.577114 1_555
O54 Ta2 2.014980 1_555
O55 P11 1.572224 1_655
O55 Ta2 2.027758 1_555
O56 P12 1.561350 1_545
O56 Ta2 2.055339 1_555
O57 P13 1.573188 1_545
O57 Ta3 2.075553 1_555
O58 Si2 1.669630 1_555
O58 Ta3 1.951807 1_555
O59 P14 1.545848 1_655
O59 Ta3 2.057541 1_555
O60 P9 1.568271 1_555
O60 Ta4 1.994390 1_555
O61 Si1 1.661023 1_455
O61 Ta4 1.912764 1_555
O62 P8 1.570342 1_565
O62 Ta4 1.990596 1_555
O63 Si0 1.649623 1_565
O63 Ta5 1.942032 1_555
O64 P7 1.565481 1_555
O64 Ta5 1.994352 1_555
O65 P6 1.570384 1_455
O65 Ta5 1.989167 1_555
O66 P0 1.606079 1_565
O66 Ta6 2.070747 1_555
O67 P1 1.593045 1_555
O67 Ta6 1.980231 1_555
O68 P2 1.627724 1_455
O68 Ta6 1.989295 1_555
O69 P3 1.592294 1_555
O69 Ta7 1.977854 1_555
O70 P4 1.625789 1_455
O70 Ta7 2.010528 1_555
O71 P5 1.630667 1_565
O71 Ta7 1.983973 1_555
