# generated using pymatgen
data_CuCl
_symmetry_space_group_name_H-M   'P 1'
_cell_length_a   6.51142611
_cell_length_b   6.51142611
_cell_length_c   6.51142611
_cell_angle_alpha   90.00000000
_cell_angle_beta   90.00000000
_cell_angle_gamma   90.00000000
_symmetry_Int_Tables_number   1
_chemical_formula_structural   CuCl
_chemical_formula_sum   'Cu8 Cl8'
_cell_volume   276.07580678
_cell_formula_units_Z   8
loop_
 _symmetry_equiv_pos_site_id
 _symmetry_equiv_pos_as_xyz
  1  'x, y, z'
loop_
 _atom_site_type_symbol
 _atom_site_label
 _atom_site_symmetry_multiplicity
 _atom_site_fract_x
 _atom_site_fract_y
 _atom_site_fract_z
 _atom_site_occupancy
  Cu  Cu0  1  0.61971916  0.88028084  0.11971916  1
  Cu  Cu1  1  0.88028084  0.11971916  0.61971916  1
  Cu  Cu2  1  0.11971916  0.61971916  0.88028084  1
  Cu  Cu3  1  0.38028084  0.38028084  0.38028084  1
  Cu  Cu4  1  0.38028084  0.11971916  0.88028084  1
  Cu  Cu5  1  0.11971916  0.88028084  0.38028084  1
  Cu  Cu6  1  0.88028084  0.38028084  0.11971916  1
  Cu  Cu7  1  0.61971916  0.61971916  0.61971916  1
  Cl  Cl0  1  0.15688217  0.34311783  0.65688217  1
  Cl  Cl1  1  0.34311783  0.65688217  0.15688217  1
  Cl  Cl2  1  0.65688217  0.15688217  0.34311783  1
  Cl  Cl3  1  0.84311783  0.84311783  0.84311783  1
  Cl  Cl4  1  0.84311783  0.65688217  0.34311783  1
  Cl  Cl5  1  0.65688217  0.34311783  0.84311783  1
  Cl  Cl6  1  0.34311783  0.84311783  0.65688217  1
  Cl  Cl7  1  0.15688217  0.15688217  0.15688217  1
loop_
_geom_bond_atom_site_label_1
_geom_bond_atom_site_label_2
_geom_bond_distance
_geom_bond_site_symmetry_2
Cl0 Cu2 2.327745 1_555
Cl0 Cu3 2.327745 1_555
Cl0 Cu1 2.327745 1_455
Cl0 Cu4 2.519517 1_555
Cl1 Cu0 2.327745 1_555
Cl1 Cu3 2.327745 1_555
Cl1 Cu2 2.327745 1_554
Cl1 Cu5 2.519517 1_555
Cl2 Cu1 2.327745 1_555
Cl2 Cu3 2.327745 1_555
Cl2 Cu0 2.327745 1_545
Cl2 Cu6 2.519517 1_555
Cl3 Cu0 2.327745 1_556
Cl3 Cu2 2.327745 1_655
Cl3 Cu1 2.327745 1_565
Cl3 Cu7 2.519517 1_555
Cl4 Cu7 2.327745 1_555
Cl4 Cu5 2.327745 1_655
Cl4 Cu6 2.327745 1_555
Cl4 Cu0 2.519517 1_555
Cl5 Cu7 2.327745 1_555
Cl5 Cu6 2.327745 1_556
Cl5 Cu4 2.327745 1_555
Cl5 Cu1 2.519517 1_555
Cl6 Cu4 2.327745 1_565
Cl6 Cu7 2.327745 1_555
Cl6 Cu5 2.327745 1_555
Cl6 Cu2 2.519517 1_555
Cl7 Cu5 2.327745 1_545
Cl7 Cu4 2.327745 1_554
Cl7 Cu6 2.327745 1_455
Cl7 Cu3 2.519517 1_555
