# generated using pymatgen
data_Li3Mn2(PO4)3
_symmetry_space_group_name_H-M   'P 1'
_cell_length_a   9.05940112
_cell_length_b   9.05940112
_cell_length_c   9.05940148
_cell_angle_alpha   55.95080042
_cell_angle_beta   55.95080042
_cell_angle_gamma   55.95079365
_symmetry_Int_Tables_number   1
_chemical_formula_structural   Li3Mn2(PO4)3
_chemical_formula_sum   'Li6 Mn4 P6 O24'
_cell_volume   476.42405937
_cell_formula_units_Z   2
loop_
 _symmetry_equiv_pos_site_id
 _symmetry_equiv_pos_as_xyz
  1  'x, y, z'
loop_
 _atom_site_type_symbol
 _atom_site_label
 _atom_site_symmetry_multiplicity
 _atom_site_fract_x
 _atom_site_fract_y
 _atom_site_fract_z
 _atom_site_occupancy
  Li  Li0  1  0.73554500  0.07829900  0.33756900  1
  Li  Li1  1  0.26445500  0.92170100  0.66243100  1
  Li  Li2  1  0.33756900  0.73554500  0.07829900  1
  Li  Li3  1  0.92170100  0.66243100  0.26445500  1
  Li  Li4  1  0.07829900  0.33756900  0.73554500  1
  Li  Li5  1  0.66243100  0.26445500  0.92170100  1
  Mn  Mn0  1  0.34656900  0.34656900  0.34656900  1
  Mn  Mn1  1  0.65343100  0.65343100  0.65343100  1
  Mn  Mn2  1  0.14618100  0.14618100  0.14618100  1
  Mn  Mn3  1  0.85381900  0.85381900  0.85381900  1
  P  P0  1  0.45856300  0.04355200  0.74745700  1
  P  P1  1  0.54143700  0.95644800  0.25254300  1
  P  P2  1  0.25254300  0.54143700  0.95644800  1
  P  P3  1  0.95644800  0.25254300  0.54143700  1
  P  P4  1  0.04355200  0.74745700  0.45856300  1
  P  P5  1  0.74745700  0.45856300  0.04355200  1
  O  O0  1  0.54158600  0.15251900  0.20915800  1
  O  O1  1  0.38944700  0.98834100  0.20142100  1
  O  O2  1  0.16714100  0.53208200  0.49527700  1
  O  O3  1  0.45841400  0.84748100  0.79084200  1
  O  O4  1  0.50472300  0.83285900  0.46791800  1
  O  O5  1  0.83285900  0.46791800  0.50472300  1
  O  O6  1  0.86303200  0.12806200  0.74676100  1
  O  O7  1  0.25323900  0.13696800  0.87193800  1
  O  O8  1  0.15251900  0.20915800  0.54158600  1
  O  O9  1  0.46791800  0.50472300  0.83285900  1
  O  O10  1  0.01165900  0.79857900  0.61055300  1
  O  O11  1  0.61055300  0.01165900  0.79857900  1
  O  O12  1  0.20915800  0.54158600  0.15251900  1
  O  O13  1  0.12806200  0.74676100  0.86303200  1
  O  O14  1  0.84748100  0.79084200  0.45841400  1
  O  O15  1  0.49527700  0.16714100  0.53208200  1
  O  O16  1  0.20142100  0.38944700  0.98834100  1
  O  O17  1  0.79084200  0.45841400  0.84748100  1
  O  O18  1  0.98834100  0.20142100  0.38944700  1
  O  O19  1  0.79857900  0.61055300  0.01165900  1
  O  O20  1  0.87193800  0.25323900  0.13696800  1
  O  O21  1  0.74676100  0.86303200  0.12806200  1
  O  O22  1  0.53208200  0.49527700  0.16714100  1
  O  O23  1  0.13696800  0.87193800  0.25323900  1
loop_
_geom_bond_atom_site_label_1
_geom_bond_atom_site_label_2
_geom_bond_distance
_geom_bond_site_symmetry_2
Li0 O20 1.947895 1_555
Li0 O15 1.955034 1_555
Li0 O14 2.025354 1_545
Li0 O0 2.232287 1_555
Li1 O13 1.947895 1_555
Li1 O4 1.955034 1_555
Li1 O8 2.025354 1_565
Li1 O3 2.232287 1_555
Li2 O23 1.947895 1_555
Li2 O22 1.955034 1_555
Li2 O3 2.025354 1_554
Li2 O12 2.232287 1_555
Li3 O21 1.947895 1_555
Li3 O5 1.955034 1_555
Li3 O12 2.025354 1_655
Li3 O14 2.232287 1_555
Li4 O7 1.947895 1_555
Li4 O2 1.955034 1_555
Li4 O17 2.025354 1_455
Li4 O8 2.232287 1_555
Li5 O6 1.947895 1_555
Li5 O9 1.955034 1_555
Li5 O0 2.025354 1_556
Li5 O17 2.232287 1_555
Mn0 O0 2.066716 1_555
Mn0 O12 2.066716 1_555
Mn0 O8 2.066716 1_555
Mn0 O2 2.075031 1_555
Mn0 O15 2.075031 1_555
Mn0 O22 2.075031 1_555
Mn1 O3 2.066716 1_555
Mn1 O17 2.066716 1_555
Mn1 O14 2.066716 1_555
Mn1 O5 2.075031 1_555
Mn1 O4 2.075031 1_555
Mn1 O9 2.075031 1_555
Mn2 O1 2.014167 1_545
Mn2 O18 2.014167 1_455
Mn2 O16 2.014167 1_554
Mn2 O20 2.136230 1_455
Mn2 O23 2.136230 1_545
Mn2 O7 2.136230 1_554
Mn3 O11 2.014167 1_565
Mn3 O10 2.014167 1_655
Mn3 O19 2.014167 1_556
Mn3 O13 2.136230 1_655
Mn3 O6 2.136230 1_565
Mn3 O21 2.136230 1_556
O0 P1 1.590587 1_545
O1 P1 1.520754 1_555
O2 P4 1.554101 1_555
O3 P0 1.590587 1_565
O4 P1 1.554101 1_555
O5 P3 1.554101 1_555
O6 P3 1.550774 1_555
O7 P0 1.550774 1_555
O8 P3 1.590587 1_455
O9 P2 1.554101 1_555
O10 P4 1.520754 1_555
O11 P0 1.520754 1_555
O12 P2 1.590587 1_554
O13 P2 1.550774 1_555
O14 P4 1.590587 1_655
O15 P0 1.554101 1_555
O16 P2 1.520754 1_555
O17 P5 1.590587 1_556
O18 P3 1.520754 1_555
O19 P5 1.520754 1_555
O20 P5 1.550774 1_555
O21 P1 1.550774 1_555
O22 P5 1.554101 1_555
O23 P4 1.550774 1_555
