# generated using pymatgen
data_MgFe2S2(O4F)2
_symmetry_space_group_name_H-M   'P 1'
_cell_length_a   5.13864317
_cell_length_b   5.62350489
_cell_length_c   7.59287150
_cell_angle_alpha   67.73397737
_cell_angle_beta   69.85123860
_cell_angle_gamma   88.56907705
_symmetry_Int_Tables_number   1
_chemical_formula_structural   MgFe2S2(O4F)2
_chemical_formula_sum   'Mg1 Fe2 S2 O8 F2'
_cell_volume   189.21361082
_cell_formula_units_Z   1
loop_
 _symmetry_equiv_pos_site_id
 _symmetry_equiv_pos_as_xyz
  1  'x, y, z'
loop_
 _atom_site_type_symbol
 _atom_site_label
 _atom_site_symmetry_multiplicity
 _atom_site_fract_x
 _atom_site_fract_y
 _atom_site_fract_z
 _atom_site_occupancy
  Mg  Mg0  1  0.00000000  0.50000000  0.00000000  1
  Fe  Fe0  1  0.00000000  0.50000000  0.50000000  1
  Fe  Fe1  1  0.00000000  0.00000000  0.00000000  1
  S  S0  1  0.63097400  0.89268700  0.74403600  1
  S  S1  1  0.36902600  0.10731300  0.25596400  1
  O  O0  1  0.72846100  0.76478400  0.60201200  1
  O  O1  1  0.27153900  0.23521600  0.39798800  1
  O  O2  1  0.67744800  0.17552700  0.65011500  1
  O  O3  1  0.32255200  0.82447300  0.34988500  1
  O  O4  1  0.31956600  0.81464200  0.85795700  1
  O  O5  1  0.68043400  0.18535800  0.14204300  1
  O  O6  1  0.76706600  0.79590200  0.90372900  1
  O  O7  1  0.23293400  0.20409800  0.09627100  1
  F  F0  1  0.92564700  0.61759100  0.22892500  1
  F  F1  1  0.07435300  0.38240900  0.77107500  1
loop_
_geom_bond_atom_site_label_1
_geom_bond_atom_site_label_2
_geom_bond_distance
_geom_bond_site_symmetry_2
Mg0 O6 2.077858 1_454
Mg0 O7 2.077858 1_555
Mg0 O4 2.114094 1_554
Mg0 O5 2.114094 1_455
Fe0 O3 2.156222 1_555
Fe0 O2 2.156222 1_455
Fe0 O0 2.188555 1_455
Fe0 O1 2.188555 1_555
Fe1 O5 2.119587 1_455
Fe1 O4 2.119587 1_544
Fe1 O6 2.142786 1_444
Fe1 O7 2.142786 1_555
O0 S0 1.459042 1_555
O1 S1 1.459042 1_555
O2 S0 1.462026 1_545
O3 S1 1.462026 1_565
O4 S0 1.515032 1_555
O5 S1 1.515032 1_555
O6 S0 1.523339 1_555
O7 S1 1.523339 1_555
F0 Mg0 2.001376 1_655
F0 Fe0 2.077816 1_655
F0 Fe1 2.131362 1_665
F1 Mg0 2.001376 1_556
F1 Fe0 2.077816 1_555
F1 Fe1 2.131362 1_556
