# generated using pymatgen
data_NaLaZrSi(SO6)2
_symmetry_space_group_name_H-M   'P 1'
_cell_length_a   9.29347921
_cell_length_b   9.35686138
_cell_length_c   24.23354919
_cell_angle_alpha   90.46792608
_cell_angle_beta   90.00000000
_cell_angle_gamma   119.77617403
_symmetry_Int_Tables_number   1
_chemical_formula_structural   NaLaZrSi(SO6)2
_chemical_formula_sum   'Na6 La6 Zr6 Si6 S12 O72'
_cell_volume   1828.99308277
_cell_formula_units_Z   6
loop_
 _symmetry_equiv_pos_site_id
 _symmetry_equiv_pos_as_xyz
  1  'x, y, z'
loop_
 _atom_site_type_symbol
 _atom_site_label
 _atom_site_symmetry_multiplicity
 _atom_site_fract_x
 _atom_site_fract_y
 _atom_site_fract_z
 _atom_site_occupancy
  Na  Na0  1  0.03374324  0.01098083  0.50009680  1
  Na  Na1  1  0.97723759  0.01098083  0.00009680  1
  Na  Na2  1  0.70434349  0.33633814  0.83199086  1
  Na  Na3  1  0.63199565  0.33633814  0.33199086  1
  Na  Na4  1  0.34292146  0.70538982  0.16558100  1
  Na  Na5  1  0.36246736  0.70538982  0.66558100  1
  La  La0  1  0.99852154  0.99763454  0.64658140  1
  La  La1  1  0.99911300  0.99763454  0.14658140  1
  La  La2  1  0.67819148  0.32353739  0.97966104  1
  La  La3  1  0.64534691  0.32353739  0.47966104  1
  La  La4  1  0.33731965  0.66878055  0.31323210  1
  La  La5  1  0.33145990  0.66878055  0.81323210  1
  Zr  Zr0  1  0.02480422  0.01431446  0.35190032  1
  Zr  Zr1  1  0.98951024  0.01431446  0.85190032  1
  Zr  Zr2  1  0.65503852  0.30562755  0.68466818  1
  Zr  Zr3  1  0.65059003  0.30562755  0.18466818  1
  Zr  Zr4  1  0.33034287  0.66349883  0.01790085  1
  Zr  Zr5  1  0.33315496  0.66349883  0.51790085  1
  Si  Si0  1  0.30260260  0.00774756  0.24811865  1
  Si  Si1  1  0.70514496  0.00774756  0.74811865  1
  Si  Si2  1  0.36941257  0.02043118  0.58210799  1
  Si  Si3  1  0.65101961  0.02043118  0.08210799  1
  Si  Si4  1  0.04750288  0.36925953  0.91493581  1
  Si  Si5  1  0.32175565  0.36925953  0.41493581  1
  S  S0  1  0.71601160  0.69438160  0.25123237  1
  S  S1  1  0.98102729  0.28613250  0.25149033  1
  S  S2  1  0.30510522  0.28613250  0.75149033  1
  S  S3  1  0.97837001  0.69438160  0.75123237  1
  S  S4  1  0.96917827  0.35237888  0.58306661  1
  S  S5  1  0.64814809  0.61834180  0.58423993  1
  S  S6  1  0.97019471  0.61834180  0.08423993  1
  S  S7  1  0.38320161  0.35237888  0.08306661  1
  S  S8  1  0.63740728  0.68467908  0.91784808  1
  S  S9  1  0.31117538  0.95087770  0.91844622  1
  S  S10  1  0.63970132  0.95087770  0.41844622  1
  S  S11  1  0.04727080  0.68467908  0.41784808  1
  O  O0  1  0.20229922  0.02727874  0.30438858  1
  O  O1  1  0.81569477  0.78693605  0.30133261  1
  O  O2  1  0.96546038  0.18131612  0.30083922  1
  O  O3  1  0.21585574  0.18131612  0.80083922  1
  O  O4  1  0.97124128  0.78693605  0.80133261  1
  O  O5  1  0.82497952  0.02727874  0.80438858  1
  O  O6  1  0.79554657  0.99341531  0.69389938  1
  O  O7  1  0.21230447  0.21256212  0.70038607  1
  O  O8  1  0.00053960  0.78833888  0.70046656  1
  O  O9  1  0.78779928  0.78833888  0.20046656  1
  O  O10  1  0.00025765  0.21256212  0.20038607  1
  O  O11  1  0.19786874  0.99341531  0.19389938  1
  O  O12  1  0.88011930  0.36599495  0.63360586  1
  O  O13  1  0.49086715  0.12627039  0.63780326  1
  O  O14  1  0.63547992  0.51908187  0.63394145  1
  O  O15  1  0.88360295  0.51908187  0.13394145  1
  O  O16  1  0.63540424  0.12627039  0.13780326  1
  O  O17  1  0.48587665  0.36599495  0.13360586  1
  O  O18  1  0.45813507  0.33525681  0.03274529  1
  O  O19  1  0.87630895  0.54901387  0.03339949  1
  O  O20  1  0.67356422  0.13092380  0.02910759  1
  O  O21  1  0.45736058  0.13092380  0.52910759  1
  O  O22  1  0.67270593  0.54901387  0.53339949  1
  O  O23  1  0.87712274  0.33525681  0.53274529  1
  O  O24  1  0.54898929  0.70306705  0.96771944  1
  O  O25  1  0.16300366  0.47122267  0.97089407  1
  O  O26  1  0.30465167  0.84879101  0.96786354  1
  O  O27  1  0.54413834  0.84879101  0.46786354  1
  O  O28  1  0.30821801  0.47122267  0.47089407  1
  O  O29  1  0.15407676  0.70306705  0.46771944  1
  O  O30  1  0.11866243  0.66605260  0.36745320  1
  O  O31  1  0.54367877  0.88482068  0.36814417  1
  O  O32  1  0.33157424  0.46754015  0.36028303  1
  O  O33  1  0.13596490  0.46754015  0.86028303  1
  O  O34  1  0.34114091  0.88482068  0.86814417  1
  O  O35  1  0.54738917  0.66605260  0.86745320  1
  O  O36  1  0.03350921  0.83971135  0.41421334  1
  O  O37  1  0.80067263  0.95077212  0.41415509  1
  O  O38  1  0.14760140  0.18272965  0.41064045  1
  O  O39  1  0.03512825  0.18272965  0.91064045  1
  O  O40  1  0.15009950  0.95077212  0.91415509  1
  O  O41  1  0.80620214  0.83971135  0.91421334  1
  O  O42  1  0.99766330  0.21144218  0.58822646  1
  O  O43  1  0.18296950  0.99266035  0.58591723  1
  O  O44  1  0.78623214  0.78968333  0.58839734  1
  O  O45  1  0.00345118  0.78968333  0.08839734  1
  O  O46  1  0.80969085  0.99266035  0.08591723  1
  O  O47  1  0.21377888  0.21144218  0.08822646  1
  O  O48  1  0.70150289  0.18617187  0.74413268  1
  O  O49  1  0.47255844  0.29671904  0.74714844  1
  O  O50  1  0.82059457  0.53065632  0.74673063  1
  O  O51  1  0.71006274  0.53065632  0.24673063  1
  O  O52  1  0.82416160  0.29671904  0.24714844  1
  O  O53  1  0.48466998  0.18617187  0.24413268  1
  O  O54  1  0.66268329  0.54189258  0.92483810  1
  O  O55  1  0.85854476  0.33747529  0.91559573  1
  O  O56  1  0.44736755  0.12266050  0.92462816  1
  O  O57  1  0.67529395  0.12266050  0.42462816  1
  O  O58  1  0.47893152  0.33747529  0.41559573  1
  O  O59  1  0.87921029  0.54189258  0.42483810  1
  O  O60  1  0.37239979  0.50851852  0.07996972  1
  O  O61  1  0.13673328  0.62618346  0.07893952  1
  O  O62  1  0.47571734  0.84130912  0.07615953  1
  O  O63  1  0.36559078  0.84130912  0.57615953  1
  O  O64  1  0.48944919  0.62618346  0.57893952  1
  O  O65  1  0.13611773  0.50851852  0.57996972  1
  O  O66  1  0.33658797  0.85454921  0.25180742  1
  O  O67  1  0.54573282  0.66558303  0.25461724  1
  O  O68  1  0.12083460  0.45306707  0.25651154  1
  O  O69  1  0.33223147  0.45306707  0.75651154  1
  O  O70  1  0.11984920  0.66558303  0.75461724  1
  O  O71  1  0.51796024  0.85454921  0.75180742  1
loop_
_geom_bond_atom_site_label_1
_geom_bond_atom_site_label_2
_geom_bond_distance
_geom_bond_site_symmetry_2
Na0 O43 2.553414 1_545
Na0 O38 2.601868 1_555
Na0 O36 2.615695 1_545
Na0 O37 2.848764 1_445
Na0 O42 2.958222 1_455
Na1 O46 2.553414 1_545
Na1 O39 2.601868 1_654
Na1 O41 2.615695 1_544
Na1 O40 2.848764 1_644
Na1 O47 2.958222 1_655
Na2 O55 2.478537 1_555
Na2 O48 2.534243 1_555
Na2 O50 2.617713 1_555
Na2 O49 2.863427 1_555
Na3 O58 2.478537 1_555
Na3 O53 2.534243 1_555
Na3 O51 2.617713 1_555
Na3 O52 2.863427 1_555
Na4 O62 2.514458 1_555
Na4 O66 2.520240 1_555
Na4 O61 2.682092 1_555
Na4 O60 2.865558 1_555
Na4 O67 3.009520 1_555
Na5 O63 2.514458 1_555
Na5 O71 2.520240 1_555
Na5 O64 2.682092 1_555
Na5 O65 2.865558 1_555
Na5 O70 3.009520 1_555
La0 O6 2.191234 1_555
La0 O43 2.275931 1_655
La0 O8 2.370427 1_655
La0 O7 2.383369 1_665
La0 O44 2.410160 1_555
La0 O42 2.462561 1_565
La1 O11 2.191234 1_655
La1 O46 2.275931 1_555
La1 O9 2.370427 1_555
La1 O10 2.383369 1_665
La1 O45 2.410160 1_655
La1 O47 2.462561 1_665
La2 O20 2.155022 1_556
La2 O55 2.241182 1_555
La2 O19 2.373594 1_556
La2 O56 2.422291 1_555
La2 O18 2.463682 1_556
La2 O54 2.509377 1_555
La3 O21 2.155022 1_555
La3 O58 2.241182 1_555
La3 O22 2.373594 1_555
La3 O57 2.422291 1_555
La3 O23 2.463682 1_555
La3 O59 2.509377 1_555
La4 O32 2.187178 1_555
La4 O66 2.300255 1_555
La4 O31 2.374997 1_555
La4 O30 2.409476 1_555
La4 O67 2.413906 1_555
La4 O68 2.435655 1_555
La5 O33 2.187178 1_555
La5 O71 2.300255 1_555
La5 O34 2.374997 1_555
La5 O35 2.409476 1_555
La5 O70 2.413906 1_555
La5 O69 2.435655 1_555
O0 Si0 1.710825 1_555
O0 Zr0 1.965942 1_555
O1 S0 1.506069 1_555
O1 Zr0 2.378155 1_665
O2 S1 1.513675 1_555
O2 Zr0 2.272575 1_655
O3 S2 1.513675 1_555
O3 Zr1 2.272575 1_455
O4 S3 1.506069 1_555
O4 Zr1 2.378155 1_565
O5 Si1 1.710825 1_555
O5 Zr1 1.965942 1_555
O6 Si1 1.599767 1_565
O7 S2 1.465542 1_555
O8 S3 1.471933 1_455
O9 S0 1.471933 1_555
O10 S1 1.465542 1_455
O11 Si0 1.599767 1_565
O12 S4 1.517713 1_555
O12 Zr2 2.250267 1_555
O13 Si2 1.715921 1_555
O13 Zr2 1.964635 1_555
O14 S5 1.495598 1_555
O14 Zr2 2.435966 1_555
O15 S6 1.495598 1_555
O15 Zr3 2.435966 1_555
O16 Si3 1.715921 1_555
O16 Zr3 1.964635 1_555
O17 S7 1.517713 1_555
O17 Zr3 2.250267 1_555
O18 S7 1.450980 1_555
O19 S6 1.457674 1_555
O20 Si3 1.602800 1_555
O21 Si2 1.602800 1_555
O22 S5 1.457674 1_555
O23 S4 1.450980 1_555
O24 S8 1.517384 1_555
O24 Zr4 2.237189 1_556
O25 Si4 1.692056 1_555
O25 Zr4 2.034828 1_556
O26 S9 1.520332 1_555
O26 Zr4 2.231311 1_556
O27 S10 1.520332 1_555
O27 Zr5 2.231311 1_555
O28 Si5 1.692056 1_555
O28 Zr5 2.034828 1_555
O29 S11 1.517384 1_555
O29 Zr5 2.237189 1_555
O30 S11 1.439929 1_555
O31 S10 1.450584 1_555
O32 Si5 1.595197 1_555
O33 Si4 1.595197 1_555
O34 S9 1.450584 1_555
O35 S8 1.439929 1_555
O36 S11 1.521432 1_555
O36 Zr0 2.264400 1_565
O37 S10 1.500083 1_555
O37 Zr0 2.398514 1_665
O38 Si5 1.693491 1_555
O38 Zr0 1.997275 1_555
O39 Si4 1.693495 1_555
O39 Zr1 1.997275 1_455
O40 S9 1.500073 1_555
O40 Zr1 2.398514 1_465
O41 S8 1.521437 1_555
O41 Zr1 2.264400 1_565
O42 S4 1.474510 1_555
O43 Si2 1.622193 1_565
O44 S5 1.476885 1_555
O45 S6 1.476888 1_455
O46 Si3 1.622184 1_565
O47 S7 1.474516 1_555
O48 Si1 1.690100 1_555
O48 Zr2 2.004510 1_555
O49 S2 1.513200 1_555
O49 Zr2 2.244360 1_555
O50 S3 1.508303 1_555
O50 Zr2 2.406922 1_555
O51 S0 1.508308 1_555
O51 Zr3 2.406922 1_555
O52 S1 1.513191 1_555
O52 Zr3 2.244360 1_555
O53 Si0 1.690105 1_555
O53 Zr3 2.004510 1_555
O54 S8 1.477926 1_555
O55 Si4 1.629070 1_655
O56 S9 1.477645 1_545
O57 S10 1.477639 1_545
O58 Si5 1.629089 1_555
O59 S11 1.477915 1_655
O60 S7 1.515791 1_555
O60 Zr4 2.262009 1_555
O61 S6 1.518120 1_455
O61 Zr4 2.220777 1_555
O62 Si3 1.663744 1_565
O62 Zr4 2.077414 1_555
O63 Si2 1.663735 1_565
O63 Zr5 2.077414 1_555
O64 S5 1.518139 1_555
O64 Zr5 2.220778 1_555
O65 S4 1.515781 1_455
O65 Zr5 2.262009 1_555
O66 Si0 1.616884 1_565
O67 S0 1.469836 1_555
O68 S1 1.457372 1_455
O69 S2 1.457376 1_555
O70 S3 1.469826 1_455
O71 Si1 1.616890 1_565
