# generated using pymatgen
data_Na10Zr5Zn3(PO4)12
_symmetry_space_group_name_H-M   'P 1'
_cell_length_a   18.04228323
_cell_length_b   9.02808126
_cell_length_c   22.72797392
_cell_angle_alpha   89.98968539
_cell_angle_beta   89.98033964
_cell_angle_gamma   120.04949200
_symmetry_Int_Tables_number   1
_chemical_formula_structural   Na10Zr5Zn3(PO4)12
_chemical_formula_sum   'Na30 Zr15 Zn9 P36 O144'
_cell_volume   3204.50861405
_cell_formula_units_Z   3
loop_
 _symmetry_equiv_pos_site_id
 _symmetry_equiv_pos_as_xyz
  1  'x, y, z'
loop_
 _atom_site_type_symbol
 _atom_site_label
 _atom_site_symmetry_multiplicity
 _atom_site_fract_x
 _atom_site_fract_y
 _atom_site_fract_z
 _atom_site_occupancy
  Na  Na0  1  0.32128218  0.01292557  0.24798479  1
  Na  Na1  1  0.68651977  0.35838556  0.24782168  1
  Na  Na2  1  0.31784237  0.62421566  0.74749867  1
  Na  Na3  1  0.81769267  0.62373171  0.74750760  1
  Na  Na4  1  0.15484640  0.35102046  0.57828447  1
  Na  Na5  1  0.65462435  0.34956255  0.57738247  1
  Na  Na6  1  0.01970486  0.69029326  0.57866550  1
  Na  Na7  1  0.51995899  0.69138751  0.57848625  1
  Na  Na8  1  0.32517814  0.95879832  0.57852675  1
  Na  Na9  1  0.82491233  0.96065179  0.57838059  1
  Na  Na10  1  0.15465885  0.95956480  0.07840928  1
  Na  Na11  1  0.65523241  0.96107143  0.07878176  1
  Na  Na12  1  0.32496354  0.68951179  0.07875377  1
  Na  Na13  1  0.82519622  0.69046567  0.07835953  1
  Na  Na14  1  0.01945325  0.34958745  0.07851456  1
  Na  Na15  1  0.51953224  0.34889595  0.07928522  1
  Na  Na16  1  0.65922653  0.02772151  0.41074158  1
  Na  Na17  1  0.35413350  0.67960712  0.40987560  1
  Na  Na18  1  0.00011893  0.99926962  0.49346529  1
  Na  Na19  1  0.49934625  0.01512474  0.48762728  1
  Na  Na20  1  0.99991922  0.99953045  0.99495698  1
  Na  Na21  1  0.49988346  0.99948097  0.99533521  1
  Na  Na22  1  0.33370963  0.31940411  0.82729577  1
  Na  Na23  1  0.83360173  0.31953513  0.82727488  1
  Na  Na24  1  0.33547481  0.33950310  0.32254754  1
  Na  Na25  1  0.84384454  0.34122071  0.32343471  1
  Na  Na26  1  0.16196002  0.65381477  0.16355687  1
  Na  Na27  1  0.66566657  0.67846382  0.16364324  1
  Na  Na28  1  0.16114585  0.66732567  0.66449748  1
  Na  Na29  1  0.66121875  0.66781376  0.66449569  1
  Zr  Zr0  1  0.00010693  0.99960562  0.35151056  1
  Zr  Zr1  1  0.00093072  0.00266902  0.85336066  1
  Zr  Zr2  1  0.50094047  0.00283223  0.85327639  1
  Zr  Zr3  1  0.00160280  0.00373393  0.65048392  1
  Zr  Zr4  1  0.50172435  0.00258814  0.64971747  1
  Zr  Zr5  1  0.99984007  0.99938772  0.15060094  1
  Zr  Zr6  1  0.50010635  0.99705323  0.15128430  1
  Zr  Zr7  1  0.33310451  0.33407314  0.97888542  1
  Zr  Zr8  1  0.83333325  0.33462541  0.97892451  1
  Zr  Zr9  1  0.33282523  0.32469799  0.47945610  1
  Zr  Zr10  1  0.83581297  0.34032195  0.47932903  1
  Zr  Zr11  1  0.16405473  0.66116892  0.31411937  1
  Zr  Zr12  1  0.66455374  0.66752947  0.31523767  1
  Zr  Zr13  1  0.16395096  0.66758001  0.81610080  1
  Zr  Zr14  1  0.66381373  0.66727253  0.81613967  1
  Zn  Zn0  1  0.49922531  0.00686362  0.34729274  1
  Zn  Zn1  1  0.33373557  0.32428033  0.68464461  1
  Zn  Zn2  1  0.83363201  0.32357209  0.68441983  1
  Zn  Zn3  1  0.33468398  0.34651787  0.18375630  1
  Zn  Zn4  1  0.83699810  0.32898425  0.18392571  1
  Zn  Zn5  1  0.16671191  0.66706884  0.00932047  1
  Zn  Zn6  1  0.66661281  0.66692071  0.00930800  1
  Zn  Zn7  1  0.16514215  0.66641538  0.50899281  1
  Zn  Zn8  1  0.66682476  0.66283767  0.50842240  1
  P  P0  1  0.15022219  0.00327093  0.24974616  1
  P  P1  1  0.65000846  0.00397798  0.25269206  1
  P  P2  1  0.35241838  0.70022505  0.25366258  1
  P  P3  1  0.85122303  0.69951561  0.25007426  1
  P  P4  1  0.99741963  0.29431494  0.24969741  1
  P  P5  1  0.49822290  0.29442755  0.25060951  1
  P  P6  1  0.15050591  0.29817433  0.75008163  1
  P  P7  1  0.65034166  0.29781192  0.74992664  1
  P  P8  1  0.99867312  0.70169919  0.74939574  1
  P  P9  1  0.49866174  0.70169027  0.74941472  1
  P  P10  1  0.35213051  0.00280104  0.75001170  1
  P  P11  1  0.85188828  0.00266985  0.75018222  1
  P  P12  1  0.48048962  0.33675211  0.58574493  1
  P  P13  1  0.98022736  0.33665243  0.58528014  1
  P  P14  1  0.18739503  0.03888975  0.58548375  1
  P  P15  1  0.68776142  0.03965278  0.58380569  1
  P  P16  1  0.33240426  0.62578241  0.58538400  1
  P  P17  1  0.83242147  0.62711795  0.58729482  1
  P  P18  1  0.48034025  0.62413826  0.08470155  1
  P  P19  1  0.97994519  0.62420126  0.08525733  1
  P  P20  1  0.33210849  0.03886445  0.08659676  1
  P  P21  1  0.83211876  0.03965780  0.08471081  1
  P  P22  1  0.18739386  0.33523531  0.08489738  1
  P  P23  1  0.68726936  0.33576980  0.08659288  1
  P  P24  1  0.31344659  0.66743861  0.91809499  1
  P  P25  1  0.81338708  0.66739966  0.91808933  1
  P  P26  1  0.01999550  0.37277879  0.92017917  1
  P  P27  1  0.52005056  0.37269196  0.92024712  1
  P  P28  1  0.16616061  0.95999050  0.92004296  1
  P  P29  1  0.66614147  0.96015420  0.92003837  1
  P  P30  1  0.31474259  0.95757686  0.41774115  1
  P  P31  1  0.81371825  0.95926863  0.42030422  1
  P  P32  1  0.16569008  0.37241430  0.42045778  1
  P  P33  1  0.66418628  0.36750197  0.41849849  1
  P  P34  1  0.02100573  0.67027616  0.41965304  1
  P  P35  1  0.51936972  0.66979895  0.42023586  1
  O  O0  1  0.09928520  0.01558834  0.30221291  1
  O  O1  1  0.60675372  0.02576878  0.30744030  1
  O  O2  1  0.40317148  0.78602766  0.30920636  1
  O  O3  1  0.90848701  0.80161739  0.30252284  1
  O  O4  1  0.48519180  0.17932379  0.30294066  1
  O  O5  1  0.99224334  0.18117088  0.30256489  1
  O  O6  1  0.09945830  0.18343132  0.80208897  1
  O  O7  1  0.59942378  0.18351326  0.80210916  1
  O  O8  1  0.49045064  0.80346815  0.80131055  1
  O  O9  1  0.99053666  0.80372090  0.80126905  1
  O  O10  1  0.40909300  0.01483519  0.80251821  1
  O  O11  1  0.90910758  0.01501868  0.80252309  1
  O  O12  1  0.39445314  0.97406682  0.69331564  1
  O  O13  1  0.89419111  0.97404182  0.69340152  1
  O  O14  1  0.09662978  0.21457213  0.69270194  1
  O  O15  1  0.59641277  0.21409499  0.69265301  1
  O  O16  1  0.01110866  0.81106730  0.69215260  1
  O  O17  1  0.51115324  0.81078614  0.69215331  1
  O  O18  1  0.39647047  0.81871488  0.19759326  1
  O  O19  1  0.89355526  0.80773263  0.19313529  1
  O  O20  1  0.00960832  0.20992232  0.19269233  1
  O  O21  1  0.51437352  0.21239536  0.19346309  1
  O  O22  1  0.09628504  0.98039987  0.19285955  1
  O  O23  1  0.59313368  0.97824116  0.19608510  1
  O  O24  1  0.43945984  0.36720718  0.63905126  1
  O  O25  1  0.93932570  0.36682190  0.63881527  1
  O  O26  1  0.24307072  0.12182512  0.63894320  1
  O  O27  1  0.74479389  0.12613490  0.63650553  1
  O  O28  1  0.31974533  0.51948676  0.64076400  1
  O  O29  1  0.81968298  0.52319840  0.64311909  1
  O  O30  1  0.43979006  0.51268604  0.13831093  1
  O  O31  1  0.93857286  0.51334294  0.13892050  1
  O  O32  1  0.31912073  0.11593920  0.14277476  1
  O  O33  1  0.81669442  0.11993823  0.13843432  1
  O  O34  1  0.24276330  0.36345641  0.13848958  1
  O  O35  1  0.73906079  0.36227737  0.14265939  1
  O  O36  1  0.22902774  0.30316190  0.02953368  1
  O  O37  1  0.73204625  0.30569274  0.03267114  1
  O  O38  1  0.42220361  0.54151913  0.02953836  1
  O  O39  1  0.92226161  0.54160956  0.02984280  1
  O  O40  1  0.34739616  0.15891985  0.03277908  1
  O  O41  1  0.84885681  0.15654209  0.02969198  1
  O  O42  1  0.22895975  0.15400806  0.52996173  1
  O  O43  1  0.72715294  0.15027368  0.52691687  1
  O  O44  1  0.34713227  0.54005744  0.53006474  1
  O  O45  1  0.84760963  0.53743313  0.53329097  1
  O  O46  1  0.42219368  0.30269959  0.53037332  1
  O  O47  1  0.92229137  0.30366362  0.52995447  1
  O  O48  1  0.27547865  0.69200863  0.97481830  1
  O  O49  1  0.77548560  0.69195019  0.97483018  1
  O  O50  1  0.06881627  0.44518079  0.97746916  1
  O  O51  1  0.56883467  0.44513476  0.97753426  1
  O  O52  1  0.15303393  0.86198080  0.97734406  1
  O  O53  1  0.65307185  0.86212748  0.97731629  1
  O  O54  1  0.27407632  0.85298195  0.47414921  1
  O  O55  1  0.77776161  0.86299704  0.47809033  1
  O  O56  1  0.15284326  0.44390744  0.47802452  1
  O  O57  1  0.65554957  0.44775359  0.47573088  1
  O  O58  1  0.06836471  0.69446336  0.47772148  1
  O  O59  1  0.57114397  0.69437448  0.47664981  1
  O  O60  1  0.06811347  0.64869006  0.36648748  1
  O  O61  1  0.56583876  0.64655791  0.36639347  1
  O  O62  1  0.25847595  0.86812036  0.36256095  1
  O  O63  1  0.75359536  0.86523672  0.36759488  1
  O  O64  1  0.17912490  0.49176102  0.36742196  1
  O  O65  1  0.67549032  0.48022410  0.36344464  1
  O  O66  1  0.06751870  0.48746757  0.86633444  1
  O  O67  1  0.56734348  0.48761436  0.86640351  1
  O  O68  1  0.17617698  0.86544223  0.86616802  1
  O  O69  1  0.67634052  0.86572957  0.86615931  1
  O  O70  1  0.25870973  0.64780903  0.86249381  1
  O  O71  1  0.75865990  0.64761072  0.86249940  1
  O  O72  1  0.00935703  0.82772005  0.41049778  1
  O  O73  1  0.50855632  0.82739058  0.41338559  1
  O  O74  1  0.40300369  0.97330865  0.41177690  1
  O  O75  1  0.90414280  0.98493509  0.41050159  1
  O  O76  1  0.08858972  0.19125469  0.41065733  1
  O  O77  1  0.58837040  0.18506888  0.41246043  1
  O  O78  1  0.00915857  0.19235702  0.91080328  1
  O  O79  1  0.50916285  0.19232496  0.91086257  1
  O  O80  1  0.08710379  0.98257205  0.91043842  1
  O  O81  1  0.58703449  0.98253270  0.91039610  1
  O  O82  1  0.40426716  0.82637663  0.91001136  1
  O  O83  1  0.90431502  0.82616300  0.90999780  1
  O  O84  1  0.48716465  0.16872534  0.58950829  1
  O  O85  1  0.98709170  0.16845694  0.58926024  1
  O  O86  1  0.09652851  0.02573400  0.58891029  1
  O  O87  1  0.59704499  0.02688465  0.58862827  1
  O  O88  1  0.41629286  0.80859618  0.58864761  1
  O  O89  1  0.91646065  0.80937494  0.58896984  1
  O  O90  1  0.48678649  0.80589178  0.08908658  1
  O  O91  1  0.98713539  0.80678383  0.08906134  1
  O  O92  1  0.41601661  0.02366165  0.08909171  1
  O  O93  1  0.91623634  0.02520893  0.08895118  1
  O  O94  1  0.09605434  0.16697736  0.08890903  1
  O  O95  1  0.59622710  0.16675323  0.08883808  1
  O  O96  1  0.34248310  0.15901666  0.74676507  1
  O  O97  1  0.84232712  0.15892149  0.74666268  1
  O  O98  1  0.24005666  0.32212636  0.74736312  1
  O  O99  1  0.73991365  0.32157038  0.74736964  1
  O  O100  1  0.41639192  0.52958534  0.74656610  1
  O  O101  1  0.91650823  0.52954585  0.74660747  1
  O  O102  1  0.33945803  0.52240987  0.24589849  1
  O  O103  1  0.83954176  0.52105847  0.24776091  1
  O  O104  1  0.41917750  0.31226333  0.24364735  1
  O  O105  1  0.91831307  0.31061069  0.24734102  1
  O  O106  1  0.24017648  0.15709160  0.24771776  1
  O  O107  1  0.73715217  0.16583473  0.24541174  1
  O  O108  1  0.32207169  0.50455574  0.92101108  1
  O  O109  1  0.82192622  0.50448740  0.92103926  1
  O  O110  1  0.42992187  0.35485337  0.92179836  1
  O  O111  1  0.93001424  0.35558149  0.92159995  1
  O  O112  1  0.24794021  0.13932644  0.92168983  1
  O  O113  1  0.74764202  0.13995210  0.92185694  1
  O  O114  1  0.32192791  0.13750123  0.42162210  1
  O  O115  1  0.81793148  0.13679905  0.42227605  1
  O  O116  1  0.25073088  0.36555058  0.42276653  1
  O  O117  1  0.74771905  0.35176462  0.42150965  1
  O  O118  1  0.42783051  0.50760934  0.42283759  1
  O  O119  1  0.93059451  0.50628627  0.42141835  1
  O  O120  1  0.17335991  0.48942525  0.07797500  1
  O  O121  1  0.67366574  0.49001830  0.07831712  1
  O  O122  1  0.07122115  0.65267339  0.07839421  1
  O  O123  1  0.57182268  0.65402297  0.07780122  1
  O  O124  1  0.25487018  0.85691092  0.07835453  1
  O  O125  1  0.75515623  0.85700603  0.07761020  1
  O  O126  1  0.17318041  0.85676558  0.57846742  1
  O  O127  1  0.67296320  0.85670548  0.57822262  1
  O  O128  1  0.25498176  0.65318198  0.57851596  1
  O  O129  1  0.75478025  0.65261459  0.57899612  1
  O  O130  1  0.07155337  0.49045928  0.57818082  1
  O  O131  1  0.57163425  0.49020430  0.57815776  1
  O  O132  1  0.15714733  0.83790139  0.25495857  1
  O  O133  1  0.65714296  0.83888860  0.25590539  1
  O  O134  1  0.26411248  0.69813906  0.25536720  1
  O  O135  1  0.76114924  0.68352492  0.25583540  1
  O  O136  1  0.08100277  0.47098371  0.25534413  1
  O  O137  1  0.58377515  0.47035430  0.25541712  1
  O  O138  1  0.15809718  0.47783542  0.75511813  1
  O  O139  1  0.65812025  0.47775259  0.75516635  1
  O  O140  1  0.08042286  0.68808208  0.75489404  1
  O  O141  1  0.58035051  0.68783879  0.75497779  1
  O  O142  1  0.26509432  0.83058458  0.75520762  1
  O  O143  1  0.76498447  0.83049324  0.75526785  1
loop_
_geom_bond_atom_site_label_1
_geom_bond_atom_site_label_2
_geom_bond_distance
_geom_bond_site_symmetry_2
Na0 O104 2.377399 1_555
Na0 O106 2.396421 1_555
Na0 O134 2.496508 1_545
Na0 O132 2.569995 1_545
Na0 O32 2.572921 1_555
Na0 O4 2.848938 1_555
Na0 O62 2.878805 1_545
Na0 O18 2.933935 1_545
Na1 O107 2.334492 1_555
Na1 O103 2.391338 1_555
Na1 O137 2.522807 1_555
Na1 O135 2.550426 1_555
Na1 O35 2.564687 1_555
Na1 O65 2.893987 1_555
Na1 O1 2.931498 1_555
Na1 O21 2.968783 1_555
Na2 O100 2.326612 1_555
Na2 O98 2.361026 1_555
Na2 O142 2.486643 1_555
Na2 O138 2.503663 1_555
Na2 O28 2.610219 1_555
Na2 O70 2.870616 1_555
Na2 O8 2.961292 1_555
Na2 O12 3.004705 1_555
Na3 O101 2.328151 1_555
Na3 O99 2.361582 1_555
Na3 O143 2.489516 1_555
Na3 O139 2.501137 1_555
Na3 O29 2.547032 1_555
Na3 O71 2.870483 1_555
Na3 O9 2.964264 1_555
Na3 O13 3.007529 1_555
Na4 O130 2.395369 1_555
Na4 O128 2.402059 1_555
Na4 O56 2.434494 1_555
Na4 O86 2.587408 1_555
Na4 O85 2.634933 1_455
Na4 O14 2.843302 1_555
Na4 O42 2.922231 1_555
Na4 O28 2.941627 1_555
Na5 O131 2.399697 1_555
Na5 O129 2.408523 1_555
Na5 O57 2.471474 1_555
Na5 O87 2.568993 1_555
Na5 O84 2.632328 1_555
Na5 O15 2.858858 1_555
Na5 O43 2.936441 1_555
Na5 O29 2.981077 1_555
Na6 O126 2.399693 1_555
Na6 O130 2.412524 1_555
Na6 O58 2.449749 1_555
Na6 O89 2.585716 1_455
Na6 O86 2.634990 1_565
Na6 O16 2.834782 1_555
Na6 O25 2.873344 1_455
Na6 O45 2.884491 1_455
Na7 O127 2.392052 1_555
Na7 O131 2.421610 1_555
Na7 O59 2.486808 1_555
Na7 O88 2.579395 1_555
Na7 O87 2.635004 1_565
Na7 O17 2.834343 1_555
Na7 O24 2.882714 1_555
Na7 O44 2.921849 1_555
Na8 O128 2.391057 1_555
Na8 O126 2.416458 1_555
Na8 O54 2.551601 1_555
Na8 O84 2.578604 1_565
Na8 O88 2.612835 1_555
Na8 O12 2.866614 1_555
Na8 O26 2.903324 1_565
Na8 O46 2.907921 1_565
Na9 O129 2.410597 1_555
Na9 O127 2.412463 1_555
Na9 O55 2.438758 1_555
Na9 O85 2.577922 1_565
Na9 O89 2.628839 1_555
Na9 O27 2.868620 1_565
Na9 O13 2.874372 1_555
Na9 O47 2.904571 1_565
Na10 O122 2.401150 1_555
Na10 O124 2.409575 1_555
Na10 O52 2.455232 1_554
Na10 O94 2.581520 1_565
Na10 O91 2.630744 1_455
Na10 O22 2.847396 1_555
Na10 O36 2.913103 1_565
Na10 O32 2.957397 1_565
Na11 O123 2.402429 1_555
Na11 O125 2.414536 1_555
Na11 O53 2.466477 1_554
Na11 O95 2.571674 1_565
Na11 O90 2.643722 1_555
Na11 O33 2.863670 1_565
Na11 O37 2.894563 1_565
Na11 O23 2.925624 1_555
Na12 O120 2.407650 1_555
Na12 O124 2.407805 1_555
Na12 O48 2.529706 1_554
Na12 O90 2.571344 1_555
Na12 O92 2.625241 1_565
Na12 O34 2.886673 1_555
Na12 O38 2.908804 1_555
Na12 O18 2.969305 1_555
Na13 O125 2.400137 1_555
Na13 O121 2.407167 1_555
Na13 O49 2.520861 1_554
Na13 O91 2.574168 1_555
Na13 O93 2.630233 1_565
Na13 O19 2.853489 1_555
Na13 O39 2.906059 1_555
Na13 O35 2.952136 1_555
Na14 O120 2.407035 1_555
Na14 O122 2.408338 1_555
Na14 O50 2.457702 1_554
Na14 O93 2.576455 1_455
Na14 O94 2.639284 1_555
Na14 O20 2.851284 1_555
Na14 O31 2.891357 1_455
Na14 O41 2.893648 1_455
Na15 O121 2.410149 1_555
Na15 O123 2.424212 1_555
Na15 O51 2.473478 1_554
Na15 O92 2.581999 1_555
Na15 O95 2.635313 1_555
Na15 O21 2.854001 1_555
Na15 O30 2.861168 1_555
Na15 O40 2.893554 1_555
Na16 O77 2.339344 1_555
Na16 O73 2.395928 1_545
Na16 O1 2.528583 1_555
Na16 O115 2.532620 1_555
Na16 O117 2.547590 1_555
Na16 O43 2.888471 1_555
Na16 O63 2.917740 1_545
Na16 O59 3.005554 1_545
Na17 O74 2.338526 1_555
Na17 O73 2.413792 1_555
Na17 O2 2.467257 1_555
Na17 O116 2.511420 1_555
Na17 O118 2.516727 1_555
Na18 O72 2.498323 1_555
Na18 O76 2.514000 1_565
Na18 O75 2.519654 1_455
Na18 O89 2.708108 1_455
Na18 O86 2.715707 1_565
Na18 O85 2.736606 1_465
Na19 O77 2.319828 1_555
Na19 O74 2.341155 1_545
Na19 O73 2.455671 1_545
Na19 O84 2.763892 1_555
Na19 O88 2.862076 1_545
Na19 O87 2.864156 1_555
Na20 O78 2.534663 1_665
Na20 O80 2.535155 1_655
Na20 O83 2.540319 1_555
Na20 O94 2.689083 1_666
Na20 O93 2.691767 1_566
Na20 O91 2.692971 1_556
Na21 O79 2.540038 1_565
Na21 O81 2.541977 1_555
Na21 O82 2.546055 1_555
Na21 O95 2.681978 1_566
Na21 O92 2.684543 1_566
Na21 O90 2.689861 1_556
Na22 O96 2.387894 1_555
Na22 O98 2.489948 1_555
Na22 O100 2.520821 1_555
Na22 O112 2.667832 1_555
Na22 O110 2.678699 1_555
Na22 O108 2.779825 1_555
Na23 O97 2.390300 1_555
Na23 O99 2.487765 1_555
Na23 O101 2.519963 1_555
Na23 O113 2.670797 1_555
Na23 O111 2.676491 1_555
Na23 O109 2.779785 1_555
Na24 O102 2.376302 1_555
Na24 O106 2.393340 1_555
Na24 O104 2.434565 1_555
Na24 O118 2.783288 1_555
Na24 O116 2.817660 1_555
Na24 O114 2.829799 1_555
Na25 O105 2.289766 1_555
Na25 O103 2.392799 1_555
Na25 O107 2.511589 1_555
Na25 O119 2.701400 1_555
Na25 O115 2.793713 1_555
Na25 O117 2.854530 1_555
Na26 O120 2.516907 1_555
Na26 O122 2.532204 1_555
Na26 O136 2.606165 1_555
Na26 O124 2.615378 1_555
Na26 O134 2.678710 1_555
Na26 O132 2.689005 1_555
Na27 O123 2.519959 1_555
Na27 O125 2.533534 1_555
Na27 O133 2.596606 1_555
Na27 O121 2.631160 1_555
Na27 O137 2.698161 1_555
Na27 O135 2.698889 1_555
Na28 O126 2.534157 1_555
Na28 O130 2.535665 1_555
Na28 O140 2.578528 1_555
Na28 O128 2.629785 1_555
Na28 O138 2.660094 1_555
Na28 O142 2.678725 1_555
Na29 O127 2.536622 1_555
Na29 O131 2.538084 1_555
Na29 O141 2.579310 1_555
Na29 O129 2.621901 1_555
Na29 O139 2.663965 1_555
Na29 O143 2.677369 1_555
O0 P0 1.542912 1_555
O0 Zr0 2.053811 1_545
O1 P1 1.532728 1_555
O1 Zn0 2.068933 1_555
O2 P2 1.524128 1_555
O2 Zn0 2.066141 1_565
O3 P3 1.544529 1_555
O3 Zr0 2.051826 1_655
O4 P5 1.518041 1_555
O4 Zn0 1.974554 1_555
O5 P4 1.549143 1_555
O5 Zr0 2.043755 1_645
O6 P6 1.536831 1_555
O6 Zr1 2.067305 1_555
O7 P7 1.537789 1_555
O7 Zr2 2.065334 1_555
O8 P9 1.547268 1_555
O8 Zr2 2.080884 1_565
O9 P8 1.547763 1_555
O9 Zr1 2.080025 1_665
O10 P10 1.543122 1_555
O10 Zr2 2.066355 1_555
O11 P11 1.542396 1_555
O11 Zr1 2.068422 1_655
O12 P10 1.583875 1_565
O12 Zr4 2.072079 1_565
O13 P11 1.584852 1_565
O13 Zr3 2.063327 1_665
O14 P6 1.575357 1_555
O14 Zr3 2.053486 1_555
O15 P7 1.573897 1_555
O15 Zr4 2.061994 1_555
O16 P8 1.579681 1_455
O16 Zr3 2.061587 1_565
O17 P9 1.578492 1_555
O17 Zr4 2.062073 1_565
O18 P2 1.596028 1_555
O18 Zr6 2.044338 1_555
O19 P3 1.569753 1_555
O19 Zr5 2.069015 1_555
O20 P4 1.573348 1_455
O20 Zr5 2.055305 1_445
O21 P5 1.592653 1_555
O21 Zr6 2.065073 1_545
O22 P0 1.568761 1_565
O22 Zr5 2.068716 1_455
O23 P1 1.588849 1_565
O23 Zr6 2.041898 1_555
O24 P12 1.514855 1_555
O24 Zn1 2.029957 1_555
O25 P13 1.516589 1_555
O25 Zn2 2.028808 1_555
O26 P14 1.514554 1_555
O26 Zn1 2.025591 1_555
O27 P15 1.516455 1_555
O27 Zn2 2.018127 1_555
O28 P16 1.528793 1_555
O28 Zn1 2.146915 1_555
O29 P17 1.525201 1_555
O29 Zn2 2.155539 1_555
O30 P18 1.514587 1_555
O30 Zn3 2.015567 1_555
O31 P19 1.515641 1_555
O31 Zn4 2.029378 1_555
O32 P20 1.527338 1_555
O32 Zn3 2.166860 1_555
O33 P21 1.515170 1_555
O33 Zn4 2.018319 1_555
O34 P22 1.514122 1_555
O34 Zn3 2.021745 1_555
O35 P23 1.526825 1_555
O35 Zn4 2.150647 1_555
O36 P22 1.564849 1_555
O36 Zr7 2.098247 1_554
O37 P23 1.564438 1_555
O37 Zr8 2.102447 1_554
O38 P18 1.564019 1_555
O38 Zr7 2.098561 1_554
O39 P19 1.565064 1_555
O39 Zr8 2.098778 1_554
O40 P20 1.564249 1_555
O40 Zr7 2.115474 1_554
O41 P21 1.564773 1_555
O41 Zr8 2.108361 1_554
O42 P14 1.566283 1_555
O42 Zr9 2.076025 1_555
O43 P15 1.569180 1_555
O43 Zr10 2.141555 1_555
O44 P16 1.567308 1_555
O44 Zr9 2.160620 1_555
O45 P17 1.568285 1_555
O45 Zr10 2.082753 1_555
O46 P12 1.569004 1_555
O46 Zr9 2.073749 1_555
O47 P13 1.565809 1_555
O47 Zr10 2.094307 1_555
O48 P24 1.527153 1_555
O48 Zn5 2.018166 1_556
O49 P25 1.526800 1_555
O49 Zn6 2.019401 1_556
O50 P26 1.524150 1_555
O50 Zn5 2.028430 1_556
O51 P27 1.523906 1_555
O51 Zn6 2.026494 1_556
O52 P28 1.524669 1_555
O52 Zn5 2.029810 1_556
O53 P29 1.524436 1_555
O53 Zn6 2.031031 1_556
O54 P30 1.542301 1_555
O54 Zn7 2.002520 1_555
O55 P31 1.528237 1_555
O55 Zn8 2.030566 1_555
O56 P32 1.527120 1_555
O56 Zn7 2.033270 1_555
O57 P33 1.534436 1_555
O57 Zn8 1.992244 1_555
O58 P34 1.527619 1_555
O58 Zn7 2.015359 1_555
O59 P35 1.535952 1_555
O59 Zn8 2.018828 1_555
O60 P34 1.544579 1_555
O60 Zr11 2.056431 1_555
O61 P35 1.555645 1_555
O61 Zr12 2.054396 1_555
O62 P30 1.560713 1_555
O62 Zr11 2.102260 1_555
O63 P31 1.552907 1_555
O63 Zr12 2.076812 1_555
O64 P32 1.552562 1_555
O64 Zr11 2.072860 1_555
O65 P33 1.560256 1_555
O65 Zr12 2.105359 1_555
O66 P26 1.553903 1_555
O66 Zr13 2.034530 1_555
O67 P27 1.553810 1_555
O67 Zr14 2.033711 1_555
O68 P28 1.554127 1_555
O68 Zr13 2.034881 1_555
O69 P29 1.554814 1_555
O69 Zr14 2.036909 1_555
O70 P24 1.558627 1_555
O70 Zr13 2.091268 1_555
O71 P25 1.558027 1_555
O71 Zr14 2.091757 1_555
O72 P34 1.551451 1_555
O72 Zr0 2.119451 1_555
O73 P35 1.537678 1_555
O73 Zn0 2.276547 1_565
O74 P30 1.532228 1_555
O74 Zn0 2.173712 1_565
O75 P31 1.544712 1_555
O75 Zr0 2.140470 1_655
O76 P32 1.543191 1_555
O76 Zr0 2.141347 1_545
O77 P33 1.531839 1_555
O77 Zn0 2.186324 1_555
O78 P26 1.555001 1_555
O78 Zr1 2.098944 1_555
O79 P27 1.554176 1_555
O79 Zr2 2.099634 1_555
O80 P28 1.554077 1_555
O80 Zr1 2.101641 1_565
O81 P29 1.554006 1_555
O81 Zr2 2.101949 1_565
O82 P24 1.556497 1_555
O82 Zr2 2.111341 1_565
O83 P25 1.557044 1_555
O83 Zr1 2.109674 1_665
O84 P12 1.583007 1_555
O84 Zr4 2.141360 1_555
O85 P13 1.586698 1_555
O85 Zr3 2.146111 1_655
O86 P14 1.585192 1_555
O86 Zr3 2.142132 1_555
O87 P15 1.585911 1_555
O87 Zr4 2.134017 1_555
O88 P16 1.587032 1_555
O88 Zr4 2.160663 1_565
O89 P17 1.584097 1_555
O89 Zr3 2.167076 1_665
O90 P18 1.588994 1_555
O90 Zr6 2.149488 1_555
O91 P19 1.589757 1_555
O91 Zr5 2.152747 1_555
O92 P20 1.588106 1_555
O92 Zr6 2.173450 1_545
O93 P21 1.589969 1_555
O93 Zr5 2.155551 1_545
O94 P22 1.588832 1_555
O94 Zr5 2.153086 1_445
O95 P23 1.587086 1_555
O95 Zr6 2.169271 1_545
O96 P10 1.506847 1_555
O96 Zn1 2.116512 1_555
O97 P11 1.506577 1_555
O97 Zn2 2.113863 1_555
O98 P6 1.520226 1_555
O98 Zn1 2.203284 1_555
O99 P7 1.521145 1_555
O99 Zn2 2.207745 1_555
O100 P9 1.520524 1_555
O100 Zn1 2.207765 1_555
O101 P8 1.519820 1_555
O101 Zn2 2.215664 1_555
O102 P2 1.512312 1_555
O102 Zn3 2.094694 1_555
O103 P3 1.517525 1_555
O103 Zn4 2.243942 1_555
O104 P5 1.521523 1_555
O104 Zn3 2.178507 1_555
O105 P4 1.507293 1_555
O105 Zn4 2.121877 1_555
O106 P0 1.519015 1_555
O106 Zn3 2.241070 1_555
O107 P1 1.527577 1_555
O107 Zn4 2.169739 1_555
O108 P24 1.555696 1_555
O108 Zr7 2.108322 1_555
O109 P25 1.555104 1_555
O109 Zr8 2.107238 1_555
O110 P27 1.552144 1_555
O110 Zr7 2.107159 1_555
O111 P26 1.551877 1_655
O111 Zr8 2.108044 1_555
O112 P28 1.551582 1_545
O112 Zr7 2.106817 1_555
O113 P29 1.551912 1_545
O113 Zr8 2.107697 1_555
O114 P30 1.565992 1_545
O114 Zr9 2.071431 1_555
O115 P31 1.566727 1_545
O115 Zr10 2.137544 1_555
O116 P32 1.567174 1_555
O116 Zr9 2.130307 1_555
O117 P33 1.584551 1_555
O117 Zr10 2.104672 1_555
O118 P35 1.566272 1_555
O118 Zr9 2.117528 1_555
O119 P34 1.560672 1_655
O119 Zr10 2.081677 1_555
O120 P22 1.542591 1_555
O120 Zn5 2.283235 1_555
O121 P23 1.541787 1_555
O121 Zn6 2.286844 1_555
O122 P19 1.542175 1_455
O122 Zn5 2.285521 1_555
O123 P18 1.541275 1_555
O123 Zn6 2.271666 1_555
O124 P20 1.543764 1_565
O124 Zn5 2.280722 1_555
O125 P21 1.542869 1_565
O125 Zn6 2.272443 1_555
O126 P14 1.540294 1_565
O126 Zn7 2.284533 1_555
O127 P15 1.540725 1_565
O127 Zn8 2.323653 1_555
O128 P16 1.543703 1_555
O128 Zn7 2.309554 1_555
O129 P17 1.540769 1_555
O129 Zn8 2.290854 1_555
O130 P13 1.541919 1_455
O130 Zn7 2.271207 1_555
O131 P12 1.539924 1_555
O131 Zn8 2.281944 1_555
O132 P0 1.563768 1_565
O132 Zr11 2.137236 1_555
O133 P1 1.560584 1_565
O133 Zr12 2.106233 1_555
O134 P2 1.584354 1_555
O134 Zr11 2.132655 1_555
O135 P3 1.563310 1_555
O135 Zr12 2.151100 1_555
O136 P4 1.557536 1_455
O136 Zr11 2.098437 1_555
O137 P5 1.569093 1_555
O137 Zr12 2.131989 1_555
O138 P6 1.562153 1_555
O138 Zr13 2.164814 1_555
O139 P7 1.563550 1_555
O139 Zr14 2.164128 1_555
O140 P8 1.545293 1_455
O140 Zr13 2.126336 1_555
O141 P9 1.545500 1_555
O141 Zr14 2.125044 1_555
O142 P10 1.565845 1_565
O142 Zr13 2.172368 1_555
O143 P11 1.564275 1_565
O143 Zr14 2.172808 1_555
