# generated using pymatgen
data_Na10Zr4Nb4Si11SO48
_symmetry_space_group_name_H-M   'P 1'
_cell_length_a   18.21786067
_cell_length_b   9.12047487
_cell_length_c   22.82440748
_cell_angle_alpha   90.01064046
_cell_angle_beta   89.94595239
_cell_angle_gamma   119.98400194
_symmetry_Int_Tables_number   1
_chemical_formula_structural   Na10Zr4Nb4Si11SO48
_chemical_formula_sum   'Na30 Zr12 Nb12 Si33 S3 O144'
_cell_volume   3284.84395202
_cell_formula_units_Z   3
loop_
 _symmetry_equiv_pos_site_id
 _symmetry_equiv_pos_as_xyz
  1  'x, y, z'
loop_
 _atom_site_type_symbol
 _atom_site_label
 _atom_site_symmetry_multiplicity
 _atom_site_fract_x
 _atom_site_fract_y
 _atom_site_fract_z
 _atom_site_occupancy
  Na  Na0  1  0.32179330  0.99980089  0.24957475  1
  Na  Na1  1  0.82166925  0.00020069  0.25040665  1
  Na  Na2  1  0.81864372  0.63700720  0.74885750  1
  Na  Na3  1  0.49847014  0.36495012  0.74922407  1
  Na  Na4  1  0.01695897  0.70174737  0.58381657  1
  Na  Na5  1  0.33326422  0.96892589  0.58666924  1
  Na  Na6  1  0.83287581  0.96158201  0.58239269  1
  Na  Na7  1  0.33158327  0.69670097  0.08567774  1
  Na  Na8  1  0.83137256  0.69648780  0.08654803  1
  Na  Na9  1  0.01731226  0.33559736  0.08500101  1
  Na  Na10  1  0.51330824  0.33131749  0.08483465  1
  Na  Na11  1  0.98487475  0.66057683  0.91279204  1
  Na  Na12  1  0.35067896  0.03617349  0.91548500  1
  Na  Na13  1  0.85232155  0.03505571  0.91675696  1
  Na  Na14  1  0.48294870  0.30365056  0.41392007  1
  Na  Na15  1  0.98335408  0.30488626  0.41307308  1
  Na  Na16  1  0.34969507  0.66662663  0.41493727  1
  Na  Na17  1  0.84900702  0.66651816  0.41513361  1
  Na  Na18  1  0.01525818  0.01564455  0.49887144  1
  Na  Na19  1  0.51453490  0.00253092  0.50191470  1
  Na  Na20  1  0.01689422  0.01648872  0.00040772  1
  Na  Na21  1  0.51201728  0.99656794  0.99857528  1
  Na  Na22  1  0.33066208  0.34832026  0.83358795  1
  Na  Na23  1  0.82932883  0.32094695  0.83014021  1
  Na  Na24  1  0.33459128  0.34659760  0.32963839  1
  Na  Na25  1  0.83447482  0.34730480  0.32901624  1
  Na  Na26  1  0.16127376  0.65443295  0.16994824  1
  Na  Na27  1  0.66043855  0.65306455  0.17119759  1
  Na  Na28  1  0.16831737  0.66541184  0.67268117  1
  Na  Na29  1  0.65951071  0.66749076  0.66355437  1
  Zr  Zr0  1  0.99659469  0.99650743  0.35567719  1
  Zr  Zr1  1  0.49660269  0.99738598  0.35596370  1
  Zr  Zr2  1  0.99714155  0.99611226  0.85480650  1
  Zr  Zr3  1  0.99813054  0.99328939  0.64476762  1
  Zr  Zr4  1  0.99826907  0.00252322  0.14399396  1
  Zr  Zr5  1  0.49753112  0.00254804  0.14424654  1
  Zr  Zr6  1  0.33631545  0.33455939  0.68595458  1
  Zr  Zr7  1  0.33876695  0.34677442  0.18514844  1
  Zr  Zr8  1  0.83835658  0.34660360  0.18489002  1
  Zr  Zr9  1  0.16514438  0.65320660  0.31502703  1
  Zr  Zr10  1  0.66523281  0.65314315  0.31495317  1
  Zr  Zr11  1  0.16912023  0.67755922  0.81399532  1
  Nb  Nb0  1  0.50136918  0.00054262  0.85469006  1
  Nb  Nb1  1  0.50086164  0.99787853  0.64575763  1
  Nb  Nb2  1  0.83299962  0.33097273  0.68810852  1
  Nb  Nb3  1  0.33459291  0.34083762  0.97826703  1
  Nb  Nb4  1  0.83018235  0.33078124  0.97834870  1
  Nb  Nb5  1  0.33338463  0.33240998  0.48196016  1
  Nb  Nb6  1  0.83046014  0.32663238  0.48050958  1
  Nb  Nb7  1  0.16856207  0.67009959  0.01883638  1
  Nb  Nb8  1  0.66569644  0.66883445  0.01877377  1
  Nb  Nb9  1  0.16695157  0.66379452  0.52129343  1
  Nb  Nb10  1  0.66396450  0.66444923  0.52177185  1
  Nb  Nb11  1  0.66490982  0.66973849  0.81174886  1
  Si  Si0  1  0.35127172  0.70292320  0.25040961  1
  Si  Si1  1  0.85134250  0.70342391  0.24999820  1
  Si  Si2  1  0.99969601  0.29632473  0.24983525  1
  Si  Si3  1  0.49973244  0.29671166  0.24991979  1
  Si  Si4  1  0.64348199  0.28685282  0.74990821  1
  Si  Si5  1  0.00132482  0.70289355  0.74875177  1
  Si  Si6  1  0.49858613  0.71224129  0.75133044  1
  Si  Si7  1  0.35487119  0.99615358  0.74965331  1
  Si  Si8  1  0.85241538  0.00081446  0.75024211  1
  Si  Si9  1  0.48166517  0.33463958  0.58447684  1
  Si  Si10  1  0.97846586  0.33625199  0.58337654  1
  Si  Si11  1  0.18849743  0.04279852  0.58331133  1
  Si  Si12  1  0.68798225  0.04432286  0.58459663  1
  Si  Si13  1  0.33399814  0.62416055  0.58349872  1
  Si  Si14  1  0.82918995  0.61645039  0.58391379  1
  Si  Si15  1  0.48115463  0.62620966  0.08153516  1
  Si  Si16  1  0.98107876  0.62568234  0.07944405  1
  Si  Si17  1  0.32929890  0.04260720  0.08322380  1
  Si  Si18  1  0.82882788  0.04065295  0.08383354  1
  Si  Si19  1  0.18928040  0.33408076  0.08127976  1
  Si  Si20  1  0.68749517  0.33413746  0.08151382  1
  Si  Si21  1  0.31271150  0.66562551  0.91531386  1
  Si  Si22  1  0.80777150  0.65733750  0.91495892  1
  Si  Si23  1  0.02228654  0.37681792  0.91790046  1
  Si  Si24  1  0.52206329  0.37736767  0.91584113  1
  Si  Si25  1  0.16880660  0.96268366  0.91735535  1
  Si  Si26  1  0.66506988  0.95525145  0.91623026  1
  Si  Si27  1  0.30848559  0.96082744  0.41559927  1
  Si  Si28  1  0.80820632  0.95689609  0.41663497  1
  Si  Si29  1  0.16854615  0.37367210  0.41893833  1
  Si  Si30  1  0.66777443  0.37563896  0.41931503  1
  Si  Si31  1  0.02119111  0.66602007  0.41998752  1
  Si  Si32  1  0.52172497  0.66725982  0.41887391  1
  S  S0  1  0.14516394  -0.00016608  0.25001359  1
  S  S1  1  0.64532056  0.00008025  0.24993811  1
  S  S2  1  0.14525227  0.28821286  0.75009233  1
  O  O0  1  0.10243013  0.01291233  0.30320285  1
  O  O1  1  0.60262399  0.01314021  0.30318134  1
  O  O2  1  0.40673610  0.79716598  0.30980825  1
  O  O3  1  0.90652750  0.79689024  0.30953332  1
  O  O4  1  0.49332189  0.18273511  0.30812051  1
  O  O5  1  0.99297617  0.18229114  0.30810239  1
  O  O6  1  0.10160967  0.18731273  0.80295586  1
  O  O7  1  0.59643976  0.17183841  0.80792202  1
  O  O8  1  0.49202422  0.81429169  0.80840339  1
  O  O9  1  0.98647897  0.79434916  0.80662553  1
  O  O10  1  0.41514978  0.01873750  0.80768377  1
  O  O11  1  0.90755781  0.02610523  0.80960380  1
  O  O12  1  0.40580357  0.98556583  0.69070979  1
  O  O13  1  0.89610395  0.96834338  0.69276094  1
  O  O14  1  0.09490060  0.20218307  0.69704438  1
  O  O15  1  0.58223862  0.19340425  0.69325502  1
  O  O16  1  0.00942870  0.81551615  0.69042532  1
  O  O17  1  0.51003565  0.82991870  0.69327488  1
  O  O18  1  0.40163871  0.81718331  0.19218988  1
  O  O19  1  0.90182814  0.81737147  0.19173177  1
  O  O20  1  0.00792462  0.20186940  0.19047520  1
  O  O21  1  0.50828435  0.20323244  0.19042767  1
  O  O22  1  0.09593164  0.98687152  0.19687328  1
  O  O23  1  0.59613201  0.98722422  0.19676979  1
  O  O24  1  0.44103165  0.36349341  0.64392926  1
  O  O25  1  0.92866784  0.36468313  0.63893083  1
  O  O26  1  0.25003542  0.12653287  0.63935406  1
  O  O27  1  0.75103115  0.14235203  0.63999159  1
  O  O28  1  0.31937639  0.50575939  0.63971074  1
  O  O29  1  0.81915382  0.50519278  0.64267695  1
  O  O30  1  0.44166134  0.50363974  0.13872710  1
  O  O31  1  0.93852843  0.50010589  0.13579605  1
  O  O32  1  0.31707186  0.12293126  0.14329830  1
  O  O33  1  0.81620154  0.12155572  0.14335727  1
  O  O34  1  0.25113172  0.37396630  0.13726891  1
  O  O35  1  0.75054423  0.37492751  0.13674782  1
  O  O36  1  0.23946741  0.31588417  0.02427422  1
  O  O37  1  0.73814536  0.31579487  0.02387445  1
  O  O38  1  0.41938404  0.52477590  0.02573457  1
  O  O39  1  0.91989240  0.52817431  0.02178383  1
  O  O40  1  0.34517230  0.16606161  0.02635692  1
  O  O41  1  0.84142257  0.16321410  0.02655968  1
  O  O42  1  0.23957068  0.16395100  0.52670956  1
  O  O43  1  0.73650466  0.16182854  0.52684670  1
  O  O44  1  0.34587258  0.53264638  0.52467520  1
  O  O45  1  0.84409745  0.52410759  0.52705928  1
  O  O46  1  0.42008263  0.31031981  0.52770842  1
  O  O47  1  0.91972699  0.30996734  0.52503893  1
  O  O48  1  0.26652466  0.69319963  0.97391058  1
  O  O49  1  0.76239187  0.68643039  0.97239763  1
  O  O50  1  0.07934906  0.47002448  0.97671695  1
  O  O51  1  0.58016408  0.47176344  0.97365881  1
  O  O52  1  0.15590590  0.83500157  0.97297022  1
  O  O53  1  0.65561078  0.83693250  0.97322043  1
  O  O54  1  0.25893544  0.83600908  0.47221830  1
  O  O55  1  0.76203257  0.83715736  0.47438123  1
  O  O56  1  0.15547969  0.47515138  0.47493437  1
  O  O57  1  0.65706302  0.47981780  0.47485417  1
  O  O58  1  0.07726356  0.68356362  0.47897772  1
  O  O59  1  0.58154245  0.68808264  0.47630773  1
  O  O60  1  0.06473035  0.62573787  0.36492552  1
  O  O61  1  0.56426840  0.62648654  0.36342159  1
  O  O62  1  0.25570847  0.87932686  0.35596615  1
  O  O63  1  0.75552401  0.87716202  0.35685628  1
  O  O64  1  0.18930168  0.49701136  0.36206497  1
  O  O65  1  0.68976275  0.49752996  0.36189306  1
  O  O66  1  0.06476473  0.50469322  0.86323767  1
  O  O67  1  0.56943194  0.49450710  0.85782571  1
  O  O68  1  0.18884076  0.88052718  0.86054588  1
  O  O69  1  0.67943214  0.85748391  0.86012320  1
  O  O70  1  0.25302772  0.63386767  0.85923226  1
  O  O71  1  0.75218651  0.64101183  0.85628462  1
  O  O72  1  0.00622769  0.82711279  0.41594506  1
  O  O73  1  0.50705020  0.82840419  0.41562356  1
  O  O74  1  0.40254730  0.97460414  0.41460174  1
  O  O75  1  0.90326620  0.97557172  0.41460814  1
  O  O76  1  0.08137130  0.19381227  0.41500293  1
  O  O77  1  0.58099346  0.19518366  0.41547711  1
  O  O78  1  0.00640671  0.18455572  0.91428333  1
  O  O79  1  0.50984885  0.18709993  0.91009593  1
  O  O80  1  0.08065709  0.96630804  0.91327102  1
  O  O81  1  0.58260962  0.97718690  0.91108558  1
  O  O82  1  0.40445066  0.84383429  0.91068434  1
  O  O83  1  0.90175848  0.82882967  0.91199237  1
  O  O84  1  0.48493863  0.15802438  0.58755264  1
  O  O85  1  0.98215895  0.16308656  0.58907129  1
  O  O86  1  0.09289992  0.01401106  0.58508732  1
  O  O87  1  0.59503692  0.02534436  0.59093363  1
  O  O88  1  0.41654805  0.81690083  0.58930228  1
  O  O89  1  0.91573421  0.80442014  0.58654343  1
  O  O90  1  0.48476276  0.80667114  0.08525533  1
  O  O91  1  0.98392551  0.80584751  0.08425134  1
  O  O92  1  0.41508603  0.02332757  0.08565441  1
  O  O93  1  0.91568932  0.02611798  0.08499672  1
  O  O94  1  0.09362133  0.17316038  0.08472000  1
  O  O95  1  0.59255796  0.17239758  0.08425184  1
  O  O96  1  0.35206398  0.17268141  0.74767666  1
  O  O97  1  0.84051580  0.16637451  0.74250697  1
  O  O98  1  0.22955954  0.30288594  0.74765851  1
  O  O99  1  0.73952204  0.31789930  0.74358175  1
  O  O100  1  0.41745316  0.52191435  0.74861246  1
  O  O101  1  0.91066542  0.51954806  0.74329821  1
  O  O102  1  0.33808984  0.51296132  0.24783056  1
  O  O103  1  0.83823881  0.51341540  0.24735708  1
  O  O104  1  0.40847662  0.29308675  0.24872655  1
  O  O105  1  0.90856795  0.29356563  0.24827478  1
  O  O106  1  0.23099012  0.15205324  0.24758947  1
  O  O107  1  0.73110308  0.15243711  0.24744418  1
  O  O108  1  0.32660318  0.50329907  0.92397974  1
  O  O109  1  0.82242843  0.49446927  0.91975694  1
  O  O110  1  0.42639509  0.35026363  0.92169891  1
  O  O111  1  0.92601548  0.35486404  0.92475321  1
  O  O112  1  0.25395335  0.14662300  0.92572174  1
  O  O113  1  0.75438488  0.13647221  0.92181920  1
  O  O114  1  0.32736283  0.15512044  0.42466240  1
  O  O115  1  0.82526077  0.15075947  0.42477331  1
  O  O116  1  0.25459077  0.36202084  0.42657747  1
  O  O117  1  0.75367965  0.36258148  0.42708645  1
  O  O118  1  0.42766065  0.49540580  0.42623180  1
  O  O119  1  0.92582674  0.49468497  0.42606404  1
  O  O120  1  0.18048992  0.50567811  0.07412328  1
  O  O121  1  0.67909907  0.50548333  0.07351614  1
  O  O122  1  0.07368958  0.63887954  0.07405813  1
  O  O123  1  0.57347454  0.63848647  0.07378569  1
  O  O124  1  0.24981049  0.84826903  0.07529466  1
  O  O125  1  0.74995525  0.84705357  0.07439960  1
  O  O126  1  0.18028964  0.85483871  0.57520914  1
  O  O127  1  0.68502427  0.86222048  0.57818966  1
  O  O128  1  0.25206102  0.65447380  0.57530998  1
  O  O129  1  0.74980812  0.65086865  0.57835263  1
  O  O130  1  0.07054237  0.50969103  0.57892012  1
  O  O131  1  0.57532730  0.50205622  0.57667975  1
  O  O132  1  0.15443209  0.84703713  0.25251777  1
  O  O133  1  0.65493338  0.84773626  0.25240902  1
  O  O134  1  0.26171165  0.70636483  0.25178339  1
  O  O135  1  0.76187599  0.70705494  0.25134006  1
  O  O136  1  0.08134009  0.48670339  0.25257926  1
  O  O137  1  0.58163403  0.48679150  0.25253632  1
  O  O138  1  0.15258326  0.45754559  0.75300926  1
  O  O139  1  0.65046243  0.47473092  0.75553777  1
  O  O140  1  0.08228561  0.67577101  0.75198214  1
  O  O141  1  0.58375714  0.69066966  0.75701169  1
  O  O142  1  0.26317902  0.82557846  0.75133119  1
  O  O143  1  0.75957869  0.82366871  0.75656299  1
loop_
_geom_bond_atom_site_label_1
_geom_bond_atom_site_label_2
_geom_bond_distance
_geom_bond_site_symmetry_2
Na0 O104 2.329626 1_565
Na0 O134 2.331325 1_555
Na0 O106 2.638743 1_565
Na0 O132 2.644912 1_555
Na0 O62 2.688263 1_555
Na0 O32 2.692676 1_565
Na1 O135 2.329016 1_545
Na1 O105 2.331035 1_555
Na1 O133 2.634476 1_545
Na1 O107 2.635272 1_555
Na1 O63 2.694151 1_545
Na1 O33 2.704908 1_555
Na2 O101 2.401836 1_555
Na2 O143 2.432619 1_555
Na2 O99 2.523847 1_555
Na2 O139 2.658565 1_555
Na2 O29 2.707181 1_555
Na2 O71 2.741865 1_555
Na2 O13 2.915220 1_555
Na2 O9 2.961081 1_555
Na3 O96 2.348519 1_555
Na3 O139 2.433123 1_555
Na3 O100 2.517950 1_555
Na3 O141 2.580251 1_555
Na3 O24 2.619502 1_555
Na3 O67 2.773069 1_555
Na4 O130 2.396346 1_555
Na4 O89 2.450969 1_455
Na4 O86 2.467333 1_565
Na4 O126 2.586182 1_555
Na4 O58 2.671586 1_555
Na4 O16 2.675267 1_555
Na5 O84 2.418035 1_565
Na5 O126 2.453695 1_555
Na5 O128 2.498128 1_555
Na5 O88 2.516164 1_555
Na5 O12 2.685848 1_555
Na5 O26 2.825895 1_565
Na5 O54 2.914092 1_555
Na5 O46 3.013768 1_565
Na6 O127 2.376191 1_555
Na6 O85 2.408749 1_565
Na6 O129 2.458267 1_555
Na6 O89 2.550522 1_555
Na6 O55 2.751770 1_555
Na6 O13 2.758780 1_555
Na7 O120 2.426842 1_555
Na7 O90 2.448655 1_555
Na7 O124 2.499109 1_555
Na7 O92 2.580501 1_565
Na7 O18 2.711009 1_555
Na7 O48 2.807371 1_554
Na7 O34 2.808000 1_555
Na8 O91 2.439376 1_555
Na8 O121 2.447430 1_555
Na8 O125 2.489870 1_555
Na8 O93 2.604470 1_565
Na8 O19 2.686458 1_555
Na8 O35 2.786380 1_555
Na8 O49 2.875190 1_554
Na9 O122 2.434878 1_555
Na9 O93 2.484245 1_455
Na9 O94 2.487180 1_555
Na9 O120 2.587421 1_555
Na9 O20 2.665362 1_555
Na9 O50 2.738570 1_554
Na9 O31 2.793560 1_455
Na10 O123 2.458467 1_555
Na10 O92 2.463493 1_555
Na10 O95 2.505398 1_555
Na10 O121 2.629786 1_555
Na10 O21 2.659962 1_555
Na10 O30 2.780923 1_555
Na10 O51 2.828296 1_554
Na10 O40 2.971212 1_555
Na11 O80 2.440688 1_655
Na11 O111 2.451535 1_555
Na11 O109 2.568371 1_555
Na11 O83 2.640174 1_555
Na11 O9 2.706766 1_555
Na11 O66 2.735576 1_655
Na11 O39 2.759512 1_556
Na12 O82 2.401308 1_545
Na12 O112 2.438817 1_555
Na12 O110 2.485904 1_555
Na12 O79 2.515587 1_555
Na12 O10 2.764043 1_555
Na12 O40 2.816824 1_556
Na12 O68 2.846625 1_545
Na13 O113 2.387753 1_555
Na13 O78 2.432332 1_655
Na13 O83 2.460403 1_545
Na13 O111 2.535685 1_555
Na13 O11 2.660479 1_555
Na13 O41 2.813639 1_556
Na14 O118 2.431481 1_555
Na14 O77 2.436510 1_555
Na14 O114 2.467842 1_555
Na14 O74 2.599691 1_545
Na14 O4 2.699938 1_555
Na14 O61 2.798377 1_555
Na14 O46 2.850357 1_555
Na15 O119 2.448542 1_555
Na15 O76 2.454599 1_655
Na15 O115 2.508878 1_555
Na15 O75 2.602095 1_545
Na15 O5 2.686142 1_555
Na15 O60 2.762385 1_655
Na15 O47 2.815083 1_555
Na16 O116 2.445182 1_555
Na16 O74 2.472612 1_555
Na16 O73 2.483447 1_555
Na16 O118 2.596222 1_555
Na16 O2 2.648533 1_555
Na16 O44 2.772605 1_555
Na16 O64 2.806336 1_555
Na17 O117 2.441777 1_555
Na17 O75 2.477394 1_555
Na17 O72 2.481201 1_655
Na17 O119 2.582626 1_555
Na17 O3 2.659363 1_555
Na17 O65 2.793790 1_555
Na17 O45 2.847081 1_555
Na18 O76 2.407516 1_555
Na18 O86 2.428910 1_555
Na18 O72 2.506563 1_545
Na18 O85 2.686546 1_455
Na18 O75 2.693876 1_445
Na18 O89 2.739758 1_445
Na19 O87 2.454145 1_555
Na19 O73 2.490526 1_545
Na19 O77 2.513156 1_555
Na19 O84 2.623699 1_555
Na19 O88 2.646703 1_545
Na19 O74 2.772507 1_545
Na20 O94 2.388842 1_555
Na20 O80 2.457848 1_544
Na20 O78 2.558284 1_554
Na20 O91 2.561172 1_445
Na20 O93 2.699949 1_455
Na20 O83 2.796402 1_444
Na21 O81 2.427962 1_555
Na21 O95 2.490187 1_566
Na21 O90 2.510023 1_556
Na21 O82 2.661356 1_555
Na21 O79 2.677632 1_565
Na21 O92 2.748116 1_566
Na22 O100 2.502331 1_555
Na22 O108 2.522506 1_555
Na22 O98 2.579632 1_555
Na22 O110 2.657476 1_555
Na22 O96 2.680453 1_555
Na22 O112 2.680583 1_555
Na23 O97 2.512979 1_555
Na23 O99 2.557607 1_555
Na23 O101 2.592004 1_555
Na23 O113 2.602578 1_555
Na23 O109 2.627065 1_555
Na23 O111 2.706288 1_555
Na24 O102 2.386833 1_555
Na24 O104 2.472269 1_555
Na24 O106 2.622170 1_555
Na24 O116 2.690377 1_555
Na24 O118 2.698765 1_555
Na24 O114 2.746291 1_555
Na25 O103 2.381334 1_555
Na25 O105 2.472784 1_555
Na25 O107 2.613744 1_555
Na25 O119 2.693118 1_555
Na25 O117 2.719377 1_555
Na25 O115 2.778199 1_555
Na26 O136 2.405634 1_555
Na26 O134 2.490196 1_555
Na26 O132 2.621109 1_555
Na26 O122 2.671407 1_555
Na26 O120 2.686824 1_555
Na26 O124 2.745743 1_555
Na27 O137 2.372209 1_555
Na27 O135 2.469813 1_555
Na27 O133 2.602827 1_555
Na27 O123 2.695745 1_555
Na27 O121 2.711622 1_555
Na27 O125 2.789590 1_555
Na28 O142 2.413428 1_555
Na28 O140 2.425714 1_555
Na28 O138 2.548531 1_555
Na28 O130 2.692063 1_555
Na28 O128 2.724405 1_555
Na28 O126 2.757851 1_555
Na29 O131 2.500425 1_555
Na29 O127 2.518144 1_555
Na29 O129 2.598844 1_555
Na29 O141 2.604864 1_555
Na29 O139 2.690125 1_555
Na29 O143 2.696226 1_555
Nb0 O8 1.934242 1_545
Nb0 O7 1.967883 1_555
Nb0 O10 1.977274 1_555
Nb0 O81 2.052203 1_545
Nb0 O79 2.062768 1_555
Nb0 O82 2.065851 1_545
Nb1 O17 1.951328 1_555
Nb1 O12 1.966364 1_555
Nb1 O15 1.978150 1_565
Nb1 O87 2.034353 1_565
Nb1 O88 2.052568 1_555
Nb1 O84 2.099370 1_565
Nb2 O27 1.957097 1_555
Nb2 O25 1.962872 1_555
Nb2 O97 2.005110 1_555
Nb2 O29 2.016290 1_555
Nb2 O101 2.029044 1_555
Nb2 O99 2.076162 1_555
Nb3 O36 1.939111 1_556
Nb3 O38 1.945921 1_556
Nb3 O108 1.992134 1_555
Nb3 O40 2.022625 1_556
Nb3 O112 2.033649 1_555
Nb3 O110 2.079358 1_555
Nb4 O37 1.917677 1_556
Nb4 O41 1.975427 1_556
Nb4 O39 1.989099 1_556
Nb4 O111 2.050739 1_555
Nb4 O109 2.061324 1_555
Nb4 O113 2.066093 1_555
Nb5 O42 1.922882 1_555
Nb5 O44 1.980391 1_555
Nb5 O46 1.986660 1_555
Nb5 O116 2.030366 1_555
Nb5 O114 2.039387 1_555
Nb5 O118 2.054818 1_555
Nb6 O43 1.932167 1_555
Nb6 O47 1.987714 1_555
Nb6 O45 1.996735 1_555
Nb6 O117 2.003162 1_555
Nb6 O115 2.011938 1_555
Nb6 O119 2.060822 1_555
Nb7 O52 1.938738 1_554
Nb7 O48 1.975271 1_554
Nb7 O50 1.983303 1_554
Nb7 O124 2.022568 1_555
Nb7 O122 2.039876 1_555
Nb7 O120 2.053124 1_555
Nb8 O53 1.935925 1_554
Nb8 O51 1.980387 1_554
Nb8 O49 1.990816 1_554
Nb8 O123 2.001803 1_555
Nb8 O125 2.029612 1_555
Nb8 O121 2.050672 1_555
Nb9 O56 1.940052 1_555
Nb9 O54 1.973863 1_555
Nb9 O58 1.983065 1_555
Nb9 O128 2.016615 1_555
Nb9 O126 2.045970 1_555
Nb9 O130 2.078270 1_555
Nb10 O59 1.924695 1_555
Nb10 O57 1.945801 1_555
Nb10 O131 1.994533 1_555
Nb10 O55 2.006798 1_555
Nb10 O129 2.079985 1_555
Nb10 O127 2.089813 1_555
Nb11 O69 1.941179 1_555
Nb11 O67 1.975951 1_555
Nb11 O71 2.012345 1_555
Nb11 O141 2.017108 1_555
Nb11 O143 2.026931 1_555
Nb11 O139 2.100120 1_555
O0 S0 1.478218 1_555
O0 Zr0 2.209475 1_445
O1 S1 1.478788 1_555
O1 Zr1 2.218313 1_545
O2 Si0 1.652842 1_555
O2 Zr1 2.034485 1_555
O3 Si1 1.652102 1_555
O3 Zr0 2.032943 1_555
O4 Si3 1.654617 1_555
O4 Zr1 2.038508 1_545
O5 Si2 1.654776 1_555
O5 Zr0 2.041330 1_545
O6 S2 1.483958 1_555
O6 Zr2 2.177829 1_445
O7 Si4 1.639505 1_555
O8 Si6 1.639501 1_555
O9 Si5 1.654742 1_655
O9 Zr2 2.067775 1_555
O10 Si7 1.667106 1_545
O11 Si8 1.633697 1_555
O11 Zr2 2.062109 1_545
O12 Si7 1.663553 1_555
O13 Si8 1.635830 1_565
O13 Zr3 2.068831 1_555
O14 S2 1.485073 1_555
O14 Zr3 2.192592 1_445
O15 Si4 1.641687 1_555
O16 Si5 1.642471 1_555
O16 Zr3 2.022824 1_455
O17 Si6 1.651520 1_555
O18 Si0 1.654143 1_555
O18 Zr5 2.037782 1_565
O19 Si1 1.654516 1_555
O19 Zr4 2.038940 1_565
O20 Si2 1.651823 1_455
O20 Zr4 2.035201 1_455
O21 Si3 1.651336 1_555
O21 Zr5 2.034903 1_555
O22 S0 1.478361 1_565
O22 Zr4 2.213734 1_465
O23 S1 1.478651 1_565
O23 Zr5 2.222256 1_565
O24 Si9 1.628273 1_555
O24 Zr6 2.030395 1_555
O25 Si10 1.652550 1_555
O26 Si11 1.619526 1_555
O26 Zr6 2.055074 1_555
O27 Si12 1.641083 1_555
O28 Si13 1.611070 1_555
O28 Zr6 2.032283 1_555
O29 Si14 1.636033 1_555
O30 Si15 1.632849 1_555
O30 Zr7 1.999891 1_555
O31 Si16 1.636531 1_555
O31 Zr8 1.997254 1_555
O32 Si17 1.621284 1_555
O32 Zr7 2.104770 1_555
O33 Si18 1.616115 1_555
O33 Zr8 2.108656 1_555
O34 Si19 1.621088 1_555
O34 Zr7 2.050318 1_555
O35 Si20 1.619414 1_555
O35 Zr8 2.061510 1_555
O36 Si19 1.644912 1_555
O37 Si20 1.661962 1_555
O38 Si15 1.644997 1_555
O39 Si16 1.666412 1_555
O40 Si17 1.646355 1_555
O41 Si18 1.659717 1_555
O42 Si11 1.651163 1_555
O43 Si12 1.648878 1_555
O44 Si13 1.650926 1_555
O45 Si14 1.641515 1_555
O46 Si9 1.655483 1_555
O47 Si10 1.649753 1_555
O48 Si21 1.664102 1_555
O49 Si22 1.640026 1_555
O50 Si23 1.650584 1_555
O51 Si24 1.641474 1_555
O52 Si25 1.658038 1_555
O53 Si26 1.643298 1_555
O54 Si27 1.658934 1_555
O55 Si28 1.648532 1_555
O56 Si29 1.663119 1_555
O57 Si30 1.652944 1_555
O58 Si31 1.649572 1_555
O59 Si32 1.654630 1_555
O60 Si31 1.622587 1_555
O60 Zr9 2.060196 1_555
O61 Si32 1.620789 1_555
O61 Zr10 2.053155 1_555
O62 Si27 1.617806 1_555
O62 Zr9 2.109423 1_555
O63 Si28 1.617433 1_555
O63 Zr10 2.106659 1_555
O64 Si29 1.633382 1_555
O64 Zr9 2.000961 1_555
O65 Si30 1.633561 1_555
O65 Zr10 1.999318 1_555
O66 Si23 1.616265 1_555
O66 Zr11 2.089010 1_555
O67 Si24 1.648145 1_555
O68 Si25 1.627282 1_555
O68 Zr11 2.004997 1_555
O69 Si26 1.653986 1_555
O70 Si21 1.610068 1_555
O70 Zr11 2.042914 1_555
O71 Si22 1.640994 1_555
O72 Si31 1.625398 1_555
O72 Zr0 2.140597 1_455
O73 Si32 1.621678 1_555
O73 Zr1 2.135462 1_555
O74 Si27 1.654527 1_555
O74 Zr1 2.100093 1_555
O75 Si28 1.653862 1_555
O75 Zr0 2.099471 1_555
O76 Si29 1.617860 1_555
O76 Zr0 2.163843 1_445
O77 Si30 1.617207 1_555
O77 Zr1 2.166586 1_545
O78 Si23 1.630429 1_555
O78 Zr2 2.129524 1_445
O79 Si24 1.640761 1_555
O80 Si25 1.625431 1_555
O80 Zr2 2.141680 1_455
O81 Si26 1.615953 1_555
O82 Si21 1.652499 1_555
O83 Si22 1.644916 1_555
O83 Zr2 2.097017 1_555
O84 Si9 1.642947 1_555
O85 Si10 1.619281 1_555
O85 Zr3 2.133254 1_545
O86 Si11 1.626812 1_555
O86 Zr3 2.131086 1_445
O87 Si12 1.620069 1_555
O88 Si13 1.651448 1_555
O89 Si14 1.651359 1_555
O89 Zr3 2.098814 1_555
O90 Si15 1.616268 1_555
O90 Zr5 2.154738 1_565
O91 Si16 1.621596 1_555
O91 Zr4 2.162534 1_565
O92 Si17 1.658725 1_555
O92 Zr5 2.090142 1_555
O93 Si18 1.652912 1_555
O93 Zr4 2.109596 1_555
O94 Si19 1.624975 1_555
O94 Zr4 2.136382 1_455
O95 Si20 1.618961 1_555
O95 Zr5 2.141883 1_555
O96 Si7 1.636807 1_545
O96 Zr6 2.161396 1_555
O97 Si8 1.638774 1_555
O98 S2 1.474577 1_555
O98 Zr6 2.298443 1_555
O99 Si4 1.632984 1_555
O100 Si6 1.624015 1_555
O100 Zr6 2.151412 1_555
O101 Si5 1.667153 1_655
O102 Si0 1.626950 1_555
O102 Zr7 2.088590 1_555
O103 Si1 1.627972 1_555
O103 Zr8 2.085654 1_555
O104 Si3 1.646464 1_555
O104 Zr7 2.140943 1_555
O105 Si2 1.648145 1_555
O105 Zr8 2.141328 1_555
O106 S0 1.485064 1_555
O106 Zr7 2.355983 1_555
O107 S1 1.485171 1_555
O107 Zr8 2.351500 1_555
O108 Si21 1.633932 1_555
O109 Si22 1.639016 1_555
O110 Si24 1.638756 1_555
O111 Si23 1.670044 1_655
O112 Si25 1.629861 1_545
O113 Si26 1.645569 1_545
O114 Si27 1.640757 1_545
O115 Si28 1.645664 1_545
O116 Si29 1.632765 1_555
O117 Si30 1.637595 1_555
O118 Si32 1.654210 1_555
O119 Si31 1.662993 1_655
O120 Si19 1.659024 1_555
O121 Si20 1.654692 1_555
O122 Si16 1.634865 1_455
O123 Si15 1.638210 1_555
O124 Si17 1.645078 1_565
O125 Si18 1.641129 1_565
O126 Si11 1.655007 1_565
O127 Si12 1.641101 1_565
O128 Si13 1.659102 1_555
O129 Si14 1.631000 1_555
O130 Si10 1.635222 1_455
O131 Si9 1.634033 1_555
O132 S0 1.486295 1_565
O132 Zr9 2.354818 1_555
O133 S1 1.485825 1_565
O133 Zr10 2.357372 1_555
O134 Si0 1.647773 1_555
O134 Zr9 2.134632 1_555
O135 Si1 1.646945 1_555
O135 Zr10 2.140060 1_555
O136 Si2 1.627849 1_455
O136 Zr9 2.086755 1_555
O137 Si3 1.627874 1_555
O137 Zr10 2.084394 1_555
O138 S2 1.483658 1_555
O138 Zr11 2.334613 1_555
O139 Si4 1.658626 1_555
O140 Si5 1.614603 1_555
O140 Zr11 2.117694 1_555
O141 Si6 1.663912 1_555
O142 Si7 1.616949 1_555
O142 Zr11 2.118574 1_555
O143 Si8 1.661329 1_565
