# generated using pymatgen
data_LiH2SO4
_symmetry_space_group_name_H-M   'P 1'
_cell_length_a   6.13531000
_cell_length_b   10.19366300
_cell_length_c   10.59534500
_cell_angle_alpha   90.00000000
_cell_angle_beta   90.00000000
_cell_angle_gamma   90.00000000
_symmetry_Int_Tables_number   1
_chemical_formula_structural   LiH2SO4
_chemical_formula_sum   'Li8 H16 S8 O32'
_cell_volume   662.64646526
_cell_formula_units_Z   8
loop_
 _symmetry_equiv_pos_site_id
 _symmetry_equiv_pos_as_xyz
  1  'x, y, z'
loop_
 _atom_site_type_symbol
 _atom_site_label
 _atom_site_symmetry_multiplicity
 _atom_site_fract_x
 _atom_site_fract_y
 _atom_site_fract_z
 _atom_site_occupancy
  Li  Li0  1  0.94060300  0.16449700  0.57344200  1
  Li  Li1  1  0.44060300  0.33550300  0.92655800  1
  Li  Li2  1  0.55939700  0.66449700  0.42655800  1
  Li  Li3  1  0.05939700  0.83550300  0.07344200  1
  Li  Li4  1  0.05939700  0.83550300  0.42655800  1
  Li  Li5  1  0.55939700  0.66449700  0.07344200  1
  Li  Li6  1  0.44060300  0.33550300  0.57344200  1
  Li  Li7  1  0.94060300  0.16449700  0.92655800  1
  H  H0  1  0.29714200  0.74878600  0.89280200  1
  H  H1  1  0.79714200  0.75121400  0.60719800  1
  H  H2  1  0.20285800  0.24878600  0.10719800  1
  H  H3  1  0.70285800  0.25121400  0.39280200  1
  H  H4  1  0.70285800  0.25121400  0.10719800  1
  H  H5  1  0.20285800  0.24878600  0.39280200  1
  H  H6  1  0.79714200  0.75121400  0.89280200  1
  H  H7  1  0.29714200  0.74878600  0.60719800  1
  H  H8  1  0.20848800  0.61924600  0.95164400  1
  H  H9  1  0.70848800  0.88075400  0.54835600  1
  H  H10  1  0.29151200  0.11924600  0.04835600  1
  H  H11  1  0.79151200  0.38075400  0.45164400  1
  H  H12  1  0.79151200  0.38075400  0.04835600  1
  H  H13  1  0.29151200  0.11924600  0.45164400  1
  H  H14  1  0.70848800  0.88075400  0.95164400  1
  H  H15  1  0.20848800  0.61924600  0.54835600  1
  S  S0  1  0.96651500  0.59121100  0.25000000  1
  S  S1  1  0.46651500  0.90878900  0.25000000  1
  S  S2  1  0.53348500  0.09121100  0.75000000  1
  S  S3  1  0.03348500  0.40878900  0.75000000  1
  S  S4  1  0.26069300  0.46608800  0.25000000  1
  S  S5  1  0.76069300  0.03391200  0.25000000  1
  S  S6  1  0.23930700  0.96608800  0.75000000  1
  S  S7  1  0.73930700  0.53391200  0.75000000  1
  O  O0  1  0.76592000  0.79408400  0.52520100  1
  O  O1  1  0.26592000  0.70591600  0.97479900  1
  O  O2  1  0.73408000  0.29408400  0.47479900  1
  O  O3  1  0.23408000  0.20591600  0.02520100  1
  O  O4  1  0.23408000  0.20591600  0.47479900  1
  O  O5  1  0.73408000  0.29408400  0.02520100  1
  O  O6  1  0.26592000  0.70591600  0.52520100  1
  O  O7  1  0.76592000  0.79408400  0.97479900  1
  O  O8  1  0.04467900  0.72851800  0.25000000  1
  O  O9  1  0.54467900  0.77148200  0.25000000  1
  O  O10  1  0.45532100  0.22851800  0.75000000  1
  O  O11  1  0.95532100  0.27148200  0.75000000  1
  O  O12  1  0.14678300  0.44437800  0.63284000  1
  O  O13  1  0.64678300  0.05562200  0.86716000  1
  O  O14  1  0.35321700  0.94437800  0.36716000  1
  O  O15  1  0.85321700  0.55562200  0.13284000  1
  O  O16  1  0.85321700  0.55562200  0.36716000  1
  O  O17  1  0.35321700  0.94437800  0.13284000  1
  O  O18  1  0.64678300  0.05562200  0.63284000  1
  O  O19  1  0.14678300  0.44437800  0.86716000  1
  O  O20  1  0.16588400  0.33249300  0.25000000  1
  O  O21  1  0.66588400  0.16750700  0.25000000  1
  O  O22  1  0.33411600  0.83249300  0.75000000  1
  O  O23  1  0.83411600  0.66750700  0.75000000  1
  O  O24  1  0.62294800  0.50313200  0.63324200  1
  O  O25  1  0.12294800  0.99686800  0.86675800  1
  O  O26  1  0.87705200  0.00313200  0.36675800  1
  O  O27  1  0.37705200  0.49686800  0.13324200  1
  O  O28  1  0.37705200  0.49686800  0.36675800  1
  O  O29  1  0.87705200  0.00313200  0.13324200  1
  O  O30  1  0.12294800  0.99686800  0.63324200  1
  O  O31  1  0.62294800  0.50313200  0.86675800  1
loop_
_geom_bond_atom_site_label_1
_geom_bond_atom_site_label_2
_geom_bond_distance
_geom_bond_site_symmetry_2
Li0 O2 2.107796 1_555
Li0 O4 2.124306 1_655
Li0 O30 2.138428 1_645
Li0 O11 2.167253 1_555
Li0 O18 2.208495 1_555
Li1 O3 2.107796 1_556
Li1 O5 2.124306 1_556
Li1 O31 2.138428 1_555
Li1 O10 2.167253 1_555
Li1 O19 2.208495 1_555
Li2 O0 2.107796 1_555
Li2 O6 2.124306 1_555
Li2 O28 2.138428 1_555
Li2 O9 2.167253 1_555
Li2 O16 2.208495 1_555
Li3 O1 2.107796 1_554
Li3 O7 2.124306 1_454
Li3 O29 2.138428 1_465
Li3 O8 2.167253 1_555
Li3 O17 2.208495 1_555
Li4 O6 2.107796 1_555
Li4 O0 2.124306 1_455
Li4 O26 2.138428 1_465
Li4 O8 2.167253 1_555
Li4 O14 2.208495 1_555
Li5 O7 2.107796 1_554
Li5 O1 2.124306 1_554
Li5 O27 2.138428 1_555
Li5 O9 2.167253 1_555
Li5 O15 2.208495 1_555
Li6 O4 2.107796 1_555
Li6 O2 2.124306 1_555
Li6 O24 2.138428 1_555
Li6 O10 2.167253 1_555
Li6 O12 2.208495 1_555
Li7 O5 2.107796 1_556
Li7 O3 2.124306 1_656
Li7 O25 2.138428 1_645
Li7 O11 2.167253 1_555
Li7 O13 2.208495 1_555
H0 O1 0.991189 1_555
H1 O0 0.991189 1_555
H2 O3 0.991189 1_555
H3 O2 0.991189 1_555
H4 O5 0.991189 1_555
H5 O4 0.991189 1_555
H6 O7 0.991189 1_555
H7 O6 0.991189 1_555
H8 O1 0.982290 1_555
H9 O0 0.982290 1_555
H10 O3 0.982290 1_555
H11 O2 0.982290 1_555
H12 O5 0.982290 1_555
H13 O4 0.982290 1_555
H14 O7 0.982290 1_555
H15 O6 0.982290 1_555
O8 S0 1.479537 1_455
O9 S1 1.479537 1_555
O10 S2 1.479537 1_555
O11 S3 1.479537 1_655
O12 S3 1.468248 1_555
O13 S2 1.468248 1_555
O14 S1 1.468248 1_555
O15 S0 1.468248 1_555
O16 S0 1.468248 1_555
O17 S1 1.468248 1_555
O18 S2 1.468248 1_555
O19 S3 1.468248 1_555
O20 S4 1.480849 1_555
O21 S5 1.480849 1_555
O22 S6 1.480849 1_555
O23 S7 1.480849 1_555
O24 S7 1.462358 1_555
O25 S6 1.462358 1_555
O26 S5 1.462358 1_555
O27 S4 1.462358 1_555
O28 S4 1.462358 1_555
O29 S5 1.462358 1_555
O30 S6 1.462358 1_555
O31 S7 1.462358 1_555
