# generated using pymatgen
data_Rb4MgMo2(SO)4
_symmetry_space_group_name_H-M   'P 1'
_cell_length_a   6.14802831
_cell_length_b   6.97649483
_cell_length_c   11.28602496
_cell_angle_alpha   100.91000132
_cell_angle_beta   115.13762827
_cell_angle_gamma   102.76817187
_symmetry_Int_Tables_number   1
_chemical_formula_structural   Rb4MgMo2(SO)4
_chemical_formula_sum   'Rb4 Mg1 Mo2 S4 O4'
_cell_volume   404.81847872
_cell_formula_units_Z   1
loop_
 _symmetry_equiv_pos_site_id
 _symmetry_equiv_pos_as_xyz
  1  'x, y, z'
loop_
 _atom_site_type_symbol
 _atom_site_label
 _atom_site_symmetry_multiplicity
 _atom_site_fract_x
 _atom_site_fract_y
 _atom_site_fract_z
 _atom_site_occupancy
  Rb  Rb0  1  0.41238406  0.45391865  0.58297481  1
  Rb  Rb1  1  0.17913669  0.67569650  0.94288611  1
  Rb  Rb2  1  0.60898676  0.59112197  0.32428936  1
  Rb  Rb3  1  0.76075149  0.21567513  0.07374595  1
  Mg  Mg0  1  0.16005073  0.01052944  0.66596502  1
  Mo  Mo0  1  0.75439329  0.04295644  0.71641305  1
  Mo  Mo1  1  0.20623238  0.96199460  0.27994830  1
  S  S0  1  0.13241438  0.16210799  0.92640395  1
  S  S1  1  0.90867051  0.27464656  0.62203152  1
  S  S2  1  0.81283680  0.72842609  0.10320673  1
  S  S3  1  0.24887184  0.85670462  0.47821142  1
  O  O0  1  0.82763375  0.81776641  0.64328311  1
  O  O1  1  0.53051057  0.08759559  0.78088472  1
  O  O2  1  0.20572728  0.22634766  0.30828147  1
  O  O3  1  0.42732548  0.89451235  0.23203048  1
loop_
_geom_bond_atom_site_label_1
_geom_bond_atom_site_label_2
_geom_bond_distance
_geom_bond_site_symmetry_2
Rb0 S1 3.317440 1_455
Rb0 S3 3.435307 1_555
Rb0 S1 3.438174 1_555
Rb1 S2 3.422505 1_556
Rb1 S2 3.472304 1_456
Rb1 S0 3.493239 1_555
Rb1 S0 3.501001 1_565
Rb1 S1 3.563550 1_455
Rb2 S3 3.417739 1_655
Rb2 S2 3.427077 1_555
Rb3 S0 3.390653 1_654
Rb3 S0 3.390716 1_554
Rb3 S2 3.458681 1_555
Rb3 S2 3.547787 1_545
Mg0 O1 1.960553 1_555
Mg0 O0 2.064261 1_445
Mg0 S3 2.514222 1_545
Mg0 S1 2.642565 1_455
Mg0 S0 3.018920 1_555
Mo0 O1 1.864295 1_555
Mo0 O0 1.868077 1_545
Mo0 S0 2.330213 1_655
Mo0 S1 2.340819 1_555
Mo0 S3 2.892949 1_545
Mo1 O3 1.781233 1_555
Mo1 O2 1.812095 1_565
Mo1 S2 2.326501 1_455
Mo1 S3 2.413316 1_555
O0 Rb0 2.903373 1_555
O0 Rb2 3.172138 1_555
O1 Rb3 2.841617 1_556
O2 Rb0 2.764939 1_555
O2 Rb3 2.859958 1_455
O2 Rb2 3.051587 1_555
O3 Rb2 2.775372 1_555
O3 Rb1 2.856927 1_554
