# generated using pymatgen
data_Cs4Mg(TiS3)2
_symmetry_space_group_name_H-M   'P 1'
_cell_length_a   6.98489636
_cell_length_b   8.22614482
_cell_length_c   8.22614549
_cell_angle_alpha   113.66339104
_cell_angle_beta   92.70378721
_cell_angle_gamma   92.70378276
_symmetry_Int_Tables_number   1
_chemical_formula_structural   Cs4Mg(TiS3)2
_chemical_formula_sum   'Cs4 Mg1 Ti2 S6'
_cell_volume   431.30997454
_cell_formula_units_Z   1
loop_
 _symmetry_equiv_pos_site_id
 _symmetry_equiv_pos_as_xyz
  1  'x, y, z'
loop_
 _atom_site_type_symbol
 _atom_site_label
 _atom_site_symmetry_multiplicity
 _atom_site_fract_x
 _atom_site_fract_y
 _atom_site_fract_z
 _atom_site_occupancy
  Cs  Cs0  1  0.33548200  0.96782400  0.32039600  1
  Cs  Cs1  1  0.82181800  0.99776800  0.69278400  1
  Cs  Cs2  1  0.82181800  0.69278400  0.99776800  1
  Cs  Cs3  1  0.33548200  0.32039600  0.96782400  1
  Mg  Mg0  1  0.02863100  0.27938100  0.27938100  1
  Ti  Ti0  1  0.70669800  0.44299600  0.44299600  1
  Ti  Ti1  1  0.27698400  0.58420600  0.58420600  1
  S  S0  1  0.50918200  0.39575500  0.64330000  1
  S  S1  1  0.00809000  0.59956000  0.36903600  1
  S  S2  1  0.69735500  0.18212800  0.18212800  1
  S  S3  1  0.26518900  0.83319800  0.83319800  1
  S  S4  1  0.00809000  0.36903600  0.59956000  1
  S  S5  1  0.50918200  0.64330000  0.39575500  1
loop_
_geom_bond_atom_site_label_1
_geom_bond_atom_site_label_2
_geom_bond_distance
_geom_bond_site_symmetry_2
Cs0 S5 3.247469 1_555
Cs0 S2 3.500131 1_565
Cs0 Mg0 3.524251 1_565
Cs0 S0 3.564650 1_565
Cs0 S3 3.705389 1_554
Cs0 S1 3.869433 1_555
Cs1 S5 3.523926 1_555
Cs1 S4 3.634254 1_665
Cs1 S1 3.638943 1_655
Cs1 S3 3.751128 1_655
Cs1 S2 3.848869 1_566
Cs2 S0 3.523926 1_555
Cs2 S1 3.634254 1_656
Cs2 S4 3.638943 1_655
Cs2 S3 3.751128 1_655
Cs2 S2 3.848869 1_566
Cs3 S0 3.247469 1_555
Cs3 S2 3.500131 1_556
Cs3 Mg0 3.524251 1_556
Cs3 S5 3.564650 1_556
Cs3 S3 3.705388 1_545
Cs3 S4 3.869433 1_555
Mg0 S2 2.402344 1_455
Mg0 S1 2.447032 1_555
Mg0 S4 2.447032 1_555
S0 Ti0 2.333946 1_555
S0 Ti1 2.457183 1_555
S1 Ti1 2.562175 1_555
S1 Ti0 2.637188 1_455
S2 Ti0 2.343362 1_555
S3 Ti1 2.249791 1_555
S4 Ti1 2.562175 1_555
S4 Ti0 2.637188 1_455
S5 Ti0 2.333945 1_555
S5 Ti1 2.457183 1_555
