# generated using pymatgen
data_MgV4P2O13
_symmetry_space_group_name_H-M   'P 1'
_cell_length_a   5.26412091
_cell_length_b   5.01074135
_cell_length_c   10.10338366
_cell_angle_alpha   100.90139870
_cell_angle_beta   103.00833829
_cell_angle_gamma   83.19200153
_symmetry_Int_Tables_number   1
_chemical_formula_structural   MgV4P2O13
_chemical_formula_sum   'Mg1 V4 P2 O13'
_cell_volume   254.16845695
_cell_formula_units_Z   1
loop_
 _symmetry_equiv_pos_site_id
 _symmetry_equiv_pos_as_xyz
  1  'x, y, z'
loop_
 _atom_site_type_symbol
 _atom_site_label
 _atom_site_symmetry_multiplicity
 _atom_site_fract_x
 _atom_site_fract_y
 _atom_site_fract_z
 _atom_site_occupancy
  Mg  Mg0  1  0.01741977  0.44594852  0.84970001  1
  V  V0  1  0.29329142  0.08969386  0.63332008  1
  V  V1  1  0.01102138  0.87664780  0.34366872  1
  V  V2  1  0.55261235  0.46924551  0.98838270  1
  V  V3  1  0.41217004  0.26118689  0.29087298  1
  P  P0  1  0.01098906  0.93936971  0.01900053  1
  P  P1  1  0.78627929  0.64406574  0.56319879  1
  O  O0  1  0.99265900  0.83119768  0.54180195  1
  O  O1  1  0.23214802  0.77773487  0.95158895  1
  O  O2  1  0.12592740  0.54635017  0.29618522  1
  O  O3  1  0.25618765  0.12889326  0.44289783  1
  O  O4  1  0.36702446  0.27551324  0.81862648  1
  O  O5  1  0.10279984  0.01166736  0.17768905  1
  O  O6  1  0.59888654  0.82199686  0.64803893  1
  O  O7  1  0.64870153  0.51502605  0.42103133  1
  O  O8  1  0.47613424  0.36259867  0.13248654  1
  O  O9  1  0.66157679  0.98253289  0.29662336  1
  O  O10  1  0.90515835  0.20200872  0.95847792  1
  O  O11  1  0.93478975  0.42594041  0.64930244  1
  O  O12  1  0.79220213  0.73765981  0.97772419  1
loop_
_geom_bond_atom_site_label_1
_geom_bond_atom_site_label_2
_geom_bond_distance
_geom_bond_site_symmetry_2
Mg0 O11 1.958501 1_455
Mg0 O4 2.000224 1_555
Mg0 O10 2.005718 1_455
Mg0 O1 2.091811 1_555
Mg0 O12 2.186228 1_455
O0 P1 1.590647 1_555
O0 V1 2.081644 1_655
O0 V0 2.100332 1_665
O1 P0 1.549188 1_556
O1 V2 2.165688 1_555
O2 V1 1.711184 1_555
O2 V3 1.952438 1_555
O3 V1 1.895578 1_545
O3 V0 1.934638 1_555
O3 V3 2.134190 1_555
O4 V0 1.903152 1_555
O4 V2 1.918117 1_555
O5 P0 1.551884 1_545
O5 V1 2.091573 1_545
O5 V3 2.150967 1_555
O6 P1 1.544611 1_555
O6 V0 1.966064 1_565
O7 P1 1.515641 1_555
O7 V3 1.975640 1_555
O8 V2 1.782288 1_554
O8 V3 1.876982 1_555
O9 V3 1.799550 1_565
O9 V1 1.833474 1_655
O10 P0 1.547053 1_646
O10 V2 2.199714 1_555
O11 P1 1.553524 1_555
O11 V0 2.388875 1_655
O12 P0 1.556358 1_656
O12 V2 1.982244 1_555
