# generated using pymatgen
data_MgFe6(OF)6
_symmetry_space_group_name_H-M   'P 1'
_cell_length_a   4.93582586
_cell_length_b   7.85011441
_cell_length_c   5.79074933
_cell_angle_alpha   97.33833643
_cell_angle_beta   93.59681523
_cell_angle_gamma   88.96802828
_symmetry_Int_Tables_number   1
_chemical_formula_structural   MgFe6(OF)6
_chemical_formula_sum   'Mg1 Fe6 O6 F6'
_cell_volume   222.08552483
_cell_formula_units_Z   1
loop_
 _symmetry_equiv_pos_site_id
 _symmetry_equiv_pos_as_xyz
  1  'x, y, z'
loop_
 _atom_site_type_symbol
 _atom_site_label
 _atom_site_symmetry_multiplicity
 _atom_site_fract_x
 _atom_site_fract_y
 _atom_site_fract_z
 _atom_site_occupancy
  Mg  Mg0  1  0.50000000  0.00000000  0.00000000  1
  Fe  Fe0  1  0.50000000  0.00000000  0.50000000  1
  Fe  Fe1  1  0.47952100  0.37109000  0.80411300  1
  Fe  Fe2  1  0.52047900  0.62891000  0.19588700  1
  Fe  Fe3  1  0.02423900  0.68909600  0.66129400  1
  Fe  Fe4  1  0.97576100  0.31090400  0.33870600  1
  Fe  Fe5  1  0.00000000  0.00000000  0.00000000  1
  O  O0  1  0.76132500  0.08862000  0.26802500  1
  O  O1  1  0.69922600  0.77043400  0.46185300  1
  O  O2  1  0.70938600  0.42295600  0.11094100  1
  O  O3  1  0.29061400  0.57704400  0.88905900  1
  O  O4  1  0.30077400  0.22956600  0.53814700  1
  O  O5  1  0.23867500  0.91138000  0.73197500  1
  F  F0  1  0.79508000  0.44285100  0.62524500  1
  F  F1  1  0.75131400  0.78382000  0.95553200  1
  F  F2  1  0.71302100  0.11807900  0.78512900  1
  F  F3  1  0.28697900  0.88192100  0.21487100  1
  F  F4  1  0.24868600  0.21618000  0.04446800  1
  F  F5  1  0.20492000  0.55714900  0.37475500  1
loop_
_geom_bond_atom_site_label_1
_geom_bond_atom_site_label_2
_geom_bond_distance
_geom_bond_site_symmetry_2
Mg0 O0 2.015419 1_555
Mg0 O5 2.015419 1_544
Fe0 O4 2.031041 1_555
Fe0 O1 2.031041 1_545
Fe0 O5 2.107277 1_545
Fe0 O0 2.107277 1_555
Fe1 O3 1.877596 1_555
Fe1 O4 1.952541 1_555
Fe1 O2 2.046663 1_556
Fe2 O2 1.877596 1_555
Fe2 O1 1.952541 1_555
Fe2 O3 2.046663 1_554
Fe3 O5 2.040187 1_555
Fe3 O1 2.057675 1_455
Fe3 O3 2.068596 1_555
Fe4 O0 2.040187 1_555
Fe4 O4 2.057675 1_655
Fe4 O2 2.068596 1_555
Fe5 O0 2.050552 1_455
Fe5 O5 2.050552 1_544
F0 Fe1 2.049196 1_555
F0 Fe4 2.082005 1_555
F0 Fe3 2.237337 1_655
F1 Mg0 2.082681 1_566
F1 Fe5 2.092050 1_666
F1 Fe3 2.280136 1_655
F1 Fe2 2.322802 1_556
F2 Mg0 2.001699 1_556
F2 Fe0 2.029089 1_555
F2 Fe5 2.107133 1_656
F2 Fe1 2.272200 1_555
F3 Mg0 2.001699 1_565
F3 Fe0 2.029089 1_565
F3 Fe5 2.107133 1_565
F3 Fe2 2.272200 1_555
F4 Mg0 2.082681 1_555
F4 Fe5 2.092050 1_555
F4 Fe4 2.280136 1_455
F4 Fe1 2.322802 1_554
F5 Fe2 2.049196 1_555
F5 Fe3 2.082005 1_555
F5 Fe4 2.237337 1_455
