# generated using pymatgen
data_Li3Cr3(PO4)4
_symmetry_space_group_name_H-M   'P 1'
_cell_length_a   7.96656200
_cell_length_b   8.82177443
_cell_length_c   13.01723704
_cell_angle_alpha   85.79656935
_cell_angle_beta   89.76309569
_cell_angle_gamma   89.93081074
_symmetry_Int_Tables_number   1
_chemical_formula_structural   Li3Cr3(PO4)4
_chemical_formula_sum   'Li9 Cr9 P12 O48'
_cell_volume   912.37215957
_cell_formula_units_Z   3
loop_
 _symmetry_equiv_pos_site_id
 _symmetry_equiv_pos_as_xyz
  1  'x, y, z'
loop_
 _atom_site_type_symbol
 _atom_site_label
 _atom_site_symmetry_multiplicity
 _atom_site_fract_x
 _atom_site_fract_y
 _atom_site_fract_z
 _atom_site_occupancy
  Li  Li0  1  0.86277700  0.77088300  0.83371900  1
  Li  Li1  1  0.13339100  0.23977500  0.16836000  1
  Li  Li2  1  0.86708500  0.42954000  0.16839200  1
  Li  Li3  1  0.36106500  0.72643700  0.16749500  1
  Li  Li4  1  0.36108400  0.40787600  0.49981100  1
  Li  Li5  1  0.36642100  0.07101100  0.82665600  1
  Li  Li6  1  0.63277700  0.59365600  0.50812900  1
  Li  Li7  1  0.63525500  0.26185100  0.83047000  1
  Li  Li8  1  0.13580200  0.89413200  0.49738700  1
  Cr  Cr0  1  0.49288300  0.34121700  0.16995300  1
  Cr  Cr1  1  0.85429400  0.10498300  0.49704600  1
  Cr  Cr2  1  0.01211400  0.82763700  0.16528700  1
  Cr  Cr3  1  0.00472400  0.50595800  0.50194400  1
  Cr  Cr4  1  0.99719700  0.16031300  0.82868000  1
  Cr  Cr5  1  0.64413000  0.93954700  0.16511200  1
  Cr  Cr6  1  0.14510900  0.56152200  0.83524700  1
  Cr  Cr7  1  0.48653700  0.99628100  0.50003000  1
  Cr  Cr8  1  0.51123400  0.67155600  0.83367100  1
  P  P0  1  0.30357100  0.68856300  0.61304100  1
  P  P1  1  0.31458500  0.35034000  0.94915800  1
  P  P2  1  0.80782000  0.47506200  0.72049700  1
  P  P3  1  0.79435900  0.80733400  0.38904800  1
  P  P4  1  0.19127500  0.19155500  0.61164300  1
  P  P5  1  0.18943200  0.52017000  0.28194500  1
  P  P6  1  0.68450600  0.31662100  0.38485300  1
  P  P7  1  0.70081100  0.64348500  0.05492100  1
  P  P8  1  0.30508800  0.02476600  0.27942800  1
  P  P9  1  0.20179600  0.85786500  0.94462700  1
  P  P10  1  0.69526900  0.97863400  0.71977500  1
  P  P11  1  0.81389900  0.14830600  0.04928000  1
  O  O0  1  0.91622400  0.92204800  0.43490200  1
  O  O1  1  0.06736800  0.41169400  0.23923200  1
  O  O2  1  0.64453000  0.14056900  0.41570400  1
  O  O3  1  0.63715700  0.47947900  0.08042200  1
  O  O4  1  0.35853000  0.19200300  0.25541300  1
  O  O5  1  0.30347500  0.33115900  0.06699400  1
  O  O6  1  0.93164400  0.25596000  0.09435600  1
  O  O7  1  0.63042500  0.15171500  0.10352000  1
  O  O8  1  0.12959300  0.00394200  0.23076200  1
  O  O9  1  0.87646300  0.99242800  0.76362800  1
  O  O10  1  0.38100200  0.84295900  0.89959400  1
  O  O11  1  0.08185600  0.74532300  0.89400400  1
  O  O12  1  0.69646100  0.68043600  0.93660800  1
  O  O13  1  0.64775100  0.80861600  0.74341900  1
  O  O14  1  0.35483900  0.52551300  0.91664600  1
  O  O15  1  0.35110100  0.85875400  0.59009700  1
  O  O16  1  0.29979300  0.66417700  0.73678700  1
  O  O17  1  0.93363800  0.58258800  0.76959300  1
  O  O18  1  0.30175000  0.98820000  0.39789300  1
  O  O19  1  0.69257600  0.33759000  0.26695200  1
  O  O20  1  0.63220000  0.49636500  0.77008900  1
  O  O21  1  0.13193300  0.34735900  0.89492000  1
  O  O22  1  0.61621700  0.82445500  0.43289600  1
  O  O23  1  0.12257300  0.67474100  0.56886300  1
  O  O24  1  0.43235400  0.24253600  0.90347600  1
  O  O25  1  0.80383800  0.16655100  0.93163000  1
  O  O26  1  0.42706100  0.57800600  0.57499600  1
  O  O27  1  0.80988100  0.51118800  0.60259800  1
  O  O28  1  0.43226000  0.91617300  0.23222200  1
  O  O29  1  0.85864300  0.30675600  0.74493700  1
  O  O30  1  0.80041000  0.84162500  0.26732400  1
  O  O31  1  0.85840700  0.64471800  0.41254800  1
  O  O32  1  0.85388100  0.97356900  0.08345800  1
  O  O33  1  0.13824600  0.02178200  0.91930600  1
  O  O34  1  0.13956800  0.35950100  0.58810200  1
  O  O35  1  0.19002000  0.15511200  0.72980400  1
  O  O36  1  0.14487300  0.69196100  0.25421200  1
  O  O37  1  0.57165700  0.08924200  0.75783000  1
  O  O38  1  0.19381200  0.49816900  0.40174200  1
  O  O39  1  0.56855200  0.42273400  0.43303800  1
  O  O40  1  0.19765300  0.82130700  0.06312900  1
  O  O41  1  0.58136500  0.75557600  0.10719400  1
  O  O42  1  0.69958800  0.00224400  0.59600500  1
  O  O43  1  0.36730500  0.17070000  0.56286100  1
  O  O44  1  0.87974300  0.65781500  0.09973100  1
  O  O45  1  0.37145700  0.50643100  0.23449000  1
  O  O46  1  0.06571600  0.08328400  0.56282400  1
  O  O47  1  0.86832100  0.31806800  0.43764500  1
loop_
_geom_bond_atom_site_label_1
_geom_bond_atom_site_label_2
_geom_bond_distance
_geom_bond_site_symmetry_2
Li0 O11 1.922810 1_655
Li0 O17 1.992944 1_555
Li0 O12 2.004298 1_555
Li0 O13 2.094003 1_555
Li0 O9 2.098186 1_555
Li1 O6 1.877142 1_455
Li1 O1 1.904496 1_555
Li1 O5 2.014671 1_555
Li1 O4 2.150265 1_555
Li1 O8 2.177451 1_555
Li2 O1 1.846955 1_655
Li2 O6 1.936102 1_555
Li2 O19 2.017966 1_555
Li2 O44 2.144819 1_555
Li2 O3 2.191369 1_555
Li3 O41 1.929375 1_555
Li3 O28 2.011525 1_555
Li3 O40 2.021434 1_555
Li3 O36 2.065896 1_555
Li3 O45 2.070350 1_555
Li4 O39 1.864511 1_555
Li4 O26 1.925658 1_555
Li4 O38 1.975442 1_555
Li4 O34 2.128475 1_555
Li4 O43 2.191389 1_555
Li5 O37 1.862593 1_555
Li5 O24 1.947713 1_555
Li5 O35 1.997456 1_555
Li5 O10 2.163958 1_545
Li5 O33 2.203279 1_555
Li6 O26 1.853013 1_555
Li6 O39 1.926884 1_555
Li6 O27 1.978102 1_555
Li6 O22 2.197754 1_555
Li6 O31 2.209805 1_555
Li7 O24 1.873292 1_555
Li7 O37 1.919994 1_555
Li7 O25 2.023401 1_555
Li7 O29 2.117629 1_555
Li7 O20 2.158725 1_555
Li8 O0 1.939996 1_455
Li8 O18 1.986136 1_555
Li8 O46 2.005972 1_565
Li8 O23 2.087661 1_555
Li8 O15 2.111003 1_555
Cr0 O4 1.973520 1_555
Cr0 O45 1.983718 1_555
Cr0 O3 1.987697 1_555
Cr0 O5 2.028663 1_555
Cr0 O19 2.033901 1_555
Cr0 O7 2.223257 1_555
Cr1 O46 1.895735 1_655
Cr1 O0 1.920506 1_545
Cr1 O42 1.954035 1_555
Cr1 O47 1.982599 1_555
Cr1 O2 1.994221 1_555
Cr2 O36 1.922255 1_555
Cr2 O40 1.987652 1_555
Cr2 O32 2.046258 1_455
Cr2 O8 2.055677 1_565
Cr2 O44 2.069625 1_455
Cr2 O30 2.151490 1_455
Cr3 O34 1.968585 1_555
Cr3 O38 1.992959 1_555
Cr3 O31 2.002570 1_455
Cr3 O23 2.014338 1_555
Cr3 O27 2.029811 1_455
Cr3 O47 2.200916 1_455
Cr4 O29 1.968686 1_555
Cr4 O33 1.985986 1_655
Cr4 O35 2.002639 1_655
Cr4 O9 2.007414 1_545
Cr4 O25 2.040919 1_555
Cr4 O21 2.199752 1_655
Cr5 O28 1.901798 1_555
Cr5 O41 1.907054 1_555
Cr5 O30 1.977164 1_555
Cr5 O7 1.984498 1_565
Cr5 O32 1.987923 1_555
Cr6 O17 1.894995 1_455
Cr6 O11 1.909103 1_555
Cr6 O16 1.949577 1_555
Cr6 O21 1.992113 1_555
Cr6 O14 1.994823 1_555
Cr7 O15 1.948035 1_555
Cr7 O18 1.992542 1_555
Cr7 O43 2.028120 1_565
Cr7 O2 2.048654 1_565
Cr7 O22 2.076446 1_555
Cr7 O42 2.114651 1_565
Cr8 O13 1.951759 1_555
Cr8 O12 2.002772 1_555
Cr8 O14 2.041467 1_555
Cr8 O20 2.044405 1_555
Cr8 O10 2.068394 1_555
Cr8 O16 2.112352 1_555
O0 P3 1.555198 1_555
O1 P5 1.501744 1_555
O2 P6 1.607326 1_555
O3 P7 1.546163 1_555
O4 P8 1.545439 1_555
O5 P1 1.533029 1_554
O6 P11 1.488120 1_555
O7 P11 1.621830 1_555
O8 P8 1.553941 1_555
O9 P10 1.562615 1_555
O10 P9 1.550179 1_555
O11 P9 1.560878 1_555
O12 P7 1.551197 1_556
O13 P10 1.555747 1_555
O14 P1 1.604436 1_555
O15 P0 1.556098 1_555
O16 P0 1.609589 1_555
O17 P2 1.552214 1_555
O18 P8 1.552274 1_565
O19 P6 1.533424 1_555
O20 P2 1.555372 1_555
O21 P1 1.621055 1_555
O22 P3 1.538861 1_555
O23 P0 1.562789 1_555
O24 P1 1.488099 1_555
O25 P11 1.530557 1_556
O26 P0 1.492915 1_555
O27 P2 1.544442 1_555
O28 P8 1.549373 1_565
O29 P2 1.549199 1_555
O30 P3 1.591742 1_555
O31 P3 1.532019 1_555
O32 P11 1.604691 1_565
O33 P9 1.544579 1_545
O34 P4 1.546508 1_555
O35 P4 1.548125 1_555
O36 P5 1.572463 1_555
O37 P10 1.493907 1_545
O38 P5 1.557806 1_555
O39 P6 1.483993 1_555
O40 P9 1.552834 1_554
O41 P7 1.561193 1_555
O42 P10 1.609569 1_545
O43 P4 1.553325 1_555
O44 P7 1.551231 1_555
O45 P5 1.581852 1_555
O46 P4 1.553459 1_555
O47 P6 1.620635 1_555
